
     RDKit          3D

 47 50  0  0  0  0  0  0  0  0999 V2000
  140.0460   77.5720  219.0250 O   0  0  0  0  0  0  0  0  0  0  0  0
  141.3010   77.4160  219.1190 C   0  0  0  0  0  0  0  0  0  0  0  0
  142.1380   78.5400  219.3610 N   0  0  0  0  0  0  0  0  0  0  0  0
  141.5960   79.8510  219.5030 C   0  0  0  0  0  0  0  0  0  0  0  0
  141.0120   80.0870  220.8720 C   0  0  0  0  0  0  0  0  0  0  0  0
  139.8760   80.6140  220.8880 O   0  0  0  0  0  0  0  0  0  0  0  0
  141.7600   79.7080  222.0060 N   0  0  0  0  0  0  0  0  0  0  0  0
  142.8590   80.5100  222.6070 C   0  0  0  0  0  0  0  0  0  0  0  0
  142.5440   80.3580  224.1000 C   0  0  0  0  0  0  0  0  0  0  0  0
  141.4720   79.2640  224.2000 C   0  0  0  0  0  0  0  0  0  0  0  0
  141.7060   78.5560  222.8720 C   0  0  1  0  0  0  0  0  0  0  0  0
  140.7140   77.5430  222.5900 C   0  0  0  0  0  0  0  0  0  0  0  0
  141.0690   76.2350  222.2480 C   0  0  0  0  0  0  0  0  0  0  0  0
  140.1470   75.2970  221.9630 N   0  0  0  0  0  0  0  0  0  0  0  0
  138.8210   75.5280  221.9810 C   0  0  0  0  0  0  0  0  0  0  0  0
  137.6830   74.2540  221.5980 Cl  0  0  0  0  0  0  0  0  0  0  0  0
  138.4240   76.8110  222.3130 C   0  0  0  0  0  0  0  0  0  0  0  0
  136.7100   77.1330  222.3420 Cl  0  0  0  0  0  0  0  0  0  0  0  0
  139.3620   77.8070  222.6140 C   0  0  0  0  0  0  0  0  0  0  0  0
  141.9010   76.0860  218.9800 C   0  0  0  0  0  0  0  0  0  0  0  0
  141.3190   75.1350  218.1910 C   0  0  0  0  0  0  0  0  0  0  0  0
  141.9360   73.8900  218.0990 C   0  0  0  0  0  0  0  0  0  0  0  0
  143.1050   73.6100  218.7800 C   0  0  0  0  0  0  0  0  0  0  0  0
  143.7410   72.3850  218.7090 C   0  0  0  0  0  0  0  0  0  0  0  0
  144.9200   72.1590  219.4200 C   0  0  0  0  0  0  0  0  0  0  0  0
  145.7390   70.6020  219.3370 Cl  0  0  0  0  0  0  0  0  0  0  0  0
  145.4710   73.1680  220.2110 C   0  0  0  0  0  0  0  0  0  0  0  0
  144.8370   74.3900  220.2830 C   0  0  0  0  0  0  0  0  0  0  0  0
  143.6690   74.6050  219.5750 C   0  0  0  0  0  0  0  0  0  0  0  0
  143.0440   75.7780  219.6320 N   0  0  0  0  0  0  0  0  0  0  0  0
  143.1770   78.3500  219.4300 H   0  0  0  0  0  0  0  0  0  0  0  0
  142.3968   80.5849  219.3295 H   0  0  0  0  0  0  0  0  0  0  0  0
  140.7837   79.9590  218.7691 H   0  0  0  0  0  0  0  0  0  0  0  0
  143.8464   80.0944  222.3574 H   0  0  0  0  0  0  0  0  0  0  0  0
  142.9068   81.5513  222.2558 H   0  0  0  0  0  0  0  0  0  0  0  0
  143.4472   80.0590  224.6521 H   0  0  0  0  0  0  0  0  0  0  0  0
  142.1930   81.3054  224.5350 H   0  0  0  0  0  0  0  0  0  0  0  0
  141.6464   78.5964  225.0567 H   0  0  0  0  0  0  0  0  0  0  0  0
  140.4466   79.6283  224.3606 H   0  0  0  0  0  0  0  0  0  0  0  0
  142.6038   77.9262  222.7865 H   0  0  0  0  0  0  0  0  0  0  0  0
  142.1345   75.9641  222.2107 H   0  0  0  0  0  0  0  0  0  0  0  0
  139.0131   78.8173  222.8740 H   0  0  0  0  0  0  0  0  0  0  0  0
  140.3887   75.3467  217.6435 H   0  0  0  0  0  0  0  0  0  0  0  0
  141.4818   73.1109  217.4691 H   0  0  0  0  0  0  0  0  0  0  0  0
  143.3150   71.5832  218.0880 H   0  0  0  0  0  0  0  0  0  0  0  0
  146.4010   72.9902  220.7709 H   0  0  0  0  0  0  0  0  0  0  0  0
  145.2602   75.1937  220.9035 H   0  0  0  0  0  0  0  0  0  0  0  0
  1  2  2  0
  2  3  1  0
  3  4  1  0
  4  5  1  0
  5  6  2  0
  5  7  1  0
  7  8  1  0
  8  9  1  0
  9 10  1  0
 10 11  1  0
 11 12  1  0
 12 13  2  0
 13 14  1  0
 14 15  2  0
 15 16  1  0
 15 17  1  0
 17 18  1  0
 17 19  2  0
  2 20  1  0
 20 21  2  0
 21 22  1  0
 22 23  2  0
 23 24  1  0
 24 25  2  0
 25 26  1  0
 25 27  1  0
 27 28  2  0
 28 29  1  0
 29 30  2  0
 11  7  1  0
 19 12  1  0
 30 20  1  0
 29 23  1  0
  3 31  1  0
  4 32  1  0
  4 33  1  0
  8 34  1  0
  8 35  1  0
  9 36  1  0
  9 37  1  0
 10 38  1  0
 10 39  1  0
 11 40  1  1
 13 41  1  0
 19 42  1  0
 21 43  1  0
 22 44  1  0
 24 45  1  0
 27 46  1  0
 28 47  1  0
M  END
>  <smiles>  (1) 
O=C(NCC(=O)N1CCC[C@H]1c1cnc(Cl)c(Cl)c1)c1ccc2cc(Cl)ccc2n1

>  <score_type>  (1) 
oracle

>  <origin>  (1) 
autodockgpu

>  <m_score__min__energy>  (1) 
-9.0399999999999991

>  <m_primary>  (1) 
energy

>  <rmsd>  (1) 
7.729149249474192

>  <m_score__min__rmsd>  (1) 
7.729149249474192

>  <meeko>  (1) 
{"free_energy": -6.94, "intermolecular_energy": -8.43, "internal_energy": -2.67, "cluster_size": 4, "cluster_id": 7, "rank_in_cluster": 2}

>  <energy>  (1) 
-9.04

>  <cluster_rmsd>  (1) 
0.0

>  <cluster>  (1) 
1

$$$$

     RDKit          3D

 47 50  0  0  0  0  0  0  0  0999 V2000
  140.1800   72.3700  220.7090 O   0  0  0  0  0  0  0  0  0  0  0  0
  139.7160   72.6470  221.8560 C   0  0  0  0  0  0  0  0  0  0  0  0
  139.1200   73.9170  222.0910 N   0  0  0  0  0  0  0  0  0  0  0  0
  139.0300   74.8960  221.0590 C   0  0  0  0  0  0  0  0  0  0  0  0
  139.9430   76.0710  221.2990 C   0  0  0  0  0  0  0  0  0  0  0  0
  139.4590   76.9940  221.9940 O   0  0  0  0  0  0  0  0  0  0  0  0
  141.2390   76.0500  220.7440 N   0  0  0  0  0  0  0  0  0  0  0  0
  141.9450   74.8280  220.2770 C   0  0  0  0  0  0  0  0  0  0  0  0
  142.5610   75.3330  218.9670 C   0  0  0  0  0  0  0  0  0  0  0  0
  142.3740   76.8570  218.9670 C   0  0  0  0  0  0  0  0  0  0  0  0
  142.1980   77.0900  220.4620 C   0  0  1  0  0  0  0  0  0  0  0  0
  141.8320   78.4530  220.7810 C   0  0  0  0  0  0  0  0  0  0  0  0
  141.1840   79.2790  219.8580 C   0  0  0  0  0  0  0  0  0  0  0  0
  140.8640   80.5540  220.1450 N   0  0  0  0  0  0  0  0  0  0  0  0
  141.1310   81.1410  221.3270 C   0  0  0  0  0  0  0  0  0  0  0  0
  140.6800   82.8060  221.6250 Cl  0  0  0  0  0  0  0  0  0  0  0  0
  141.7710   80.3580  222.2710 C   0  0  0  0  0  0  0  0  0  0  0  0
  142.1270   81.0980  223.8100 Cl  0  0  0  0  0  0  0  0  0  0  0  0
  142.1180   79.0280  221.9990 C   0  0  0  0  0  0  0  0  0  0  0  0
  139.7880   71.6710  222.9470 C   0  0  0  0  0  0  0  0  0  0  0  0
  139.3260   70.3970  222.7780 C   0  0  0  0  0  0  0  0  0  0  0  0
  139.4220   69.5150  223.8520 C   0  0  0  0  0  0  0  0  0  0  0  0
  139.9660   69.9030  225.0600 C   0  0  0  0  0  0  0  0  0  0  0  0
  140.0750   69.0530  226.1440 C   0  0  0  0  0  0  0  0  0  0  0  0
  140.6350   69.5010  227.3410 C   0  0  0  0  0  0  0  0  0  0  0  0
  140.7780   68.4250  228.7280 Cl  0  0  0  0  0  0  0  0  0  0  0  0
  141.0910   70.8150  227.4580 C   0  0  0  0  0  0  0  0  0  0  0  0
  140.9830   71.6640  226.3770 C   0  0  0  0  0  0  0  0  0  0  0  0
  140.4270   71.2120  225.1950 C   0  0  0  0  0  0  0  0  0  0  0  0
  140.3150   72.0170  224.1420 N   0  0  0  0  0  0  0  0  0  0  0  0
  138.7510   74.0930  223.0680 H   0  0  0  0  0  0  0  0  0  0  0  0
  139.3027   74.4266  220.1023 H   0  0  0  0  0  0  0  0  0  0  0  0
  137.9966   75.2725  221.0437 H   0  0  0  0  0  0  0  0  0  0  0  0
  142.7185   74.5097  220.9914 H   0  0  0  0  0  0  0  0  0  0  0  0
  141.2993   73.9445  220.1651 H   0  0  0  0  0  0  0  0  0  0  0  0
  143.6307   75.0798  218.9258 H   0  0  0  0  0  0  0  0  0  0  0  0
  142.0806   74.8696  218.0926 H   0  0  0  0  0  0  0  0  0  0  0  0
  143.2581   77.3787  218.5719 H   0  0  0  0  0  0  0  0  0  0  0  0
  141.5526   77.2274  218.3360 H   0  0  0  0  0  0  0  0  0  0  0  0
  143.0949   77.0139  221.0942 H   0  0  0  0  0  0  0  0  0  0  0  0
  140.9281   78.8746  218.8676 H   0  0  0  0  0  0  0  0  0  0  0  0
  142.6274   78.4332  222.7715 H   0  0  0  0  0  0  0  0  0  0  0  0
  138.8902   70.0762  221.8203 H   0  0  0  0  0  0  0  0  0  0  0  0
  139.0555   68.4845  223.7347 H   0  0  0  0  0  0  0  0  0  0  0  0
  139.7178   68.0158  226.0627 H   0  0  0  0  0  0  0  0  0  0  0  0
  141.5315   71.1691  228.4017 H   0  0  0  0  0  0  0  0  0  0  0  0
  141.3395   72.7017  226.4553 H   0  0  0  0  0  0  0  0  0  0  0  0
  1  2  2  0
  2  3  1  0
  3  4  1  0
  4  5  1  0
  5  6  2  0
  5  7  1  0
  7  8  1  0
  8  9  1  0
  9 10  1  0
 10 11  1  0
 11 12  1  0
 12 13  2  0
 13 14  1  0
 14 15  2  0
 15 16  1  0
 15 17  1  0
 17 18  1  0
 17 19  2  0
  2 20  1  0
 20 21  2  0
 21 22  1  0
 22 23  2  0
 23 24  1  0
 24 25  2  0
 25 26  1  0
 25 27  1  0
 27 28  2  0
 28 29  1  0
 29 30  2  0
 11  7  1  0
 19 12  1  0
 30 20  1  0
 29 23  1  0
  3 31  1  0
  4 32  1  0
  4 33  1  0
  8 34  1  0
  8 35  1  0
  9 36  1  0
  9 37  1  0
 10 38  1  0
 10 39  1  0
 11 40  1  1
 13 41  1  0
 19 42  1  0
 21 43  1  0
 22 44  1  0
 24 45  1  0
 27 46  1  0
 28 47  1  0
M  END
>  <smiles>  (2) 
O=C(NCC(=O)N1CCC[C@H]1c1cnc(Cl)c(Cl)c1)c1ccc2cc(Cl)ccc2n1

>  <score_type>  (2) 
oracle

>  <origin>  (2) 
autodockgpu

>  <m_score__min__energy>  (2) 
-9.0399999999999991

>  <m_primary>  (2) 
energy

>  <rmsd>  (2) 
1.8849125643512852

>  <m_score__min__rmsd>  (2) 
1.8849125643512852

>  <meeko>  (2) 
{"free_energy": -8.94, "intermolecular_energy": -10.43, "internal_energy": -1.45, "cluster_size": 10, "cluster_id": 1, "rank_in_cluster": 2}

>  <energy>  (2) 
-8.94

>  <cluster_rmsd>  (2) 
1.55

>  <cluster>  (2) 
1

$$$$

     RDKit          3D

 47 50  0  0  0  0  0  0  0  0999 V2000
  135.1080   75.0600  222.2870 O   0  0  0  0  0  0  0  0  0  0  0  0
  136.3530   75.0230  222.5300 C   0  0  0  0  0  0  0  0  0  0  0  0
  137.0020   73.7700  222.7120 N   0  0  0  0  0  0  0  0  0  0  0  0
  136.2820   72.5430  222.6250 C   0  0  0  0  0  0  0  0  0  0  0  0
  137.1950   71.3460  222.5560 C   0  0  0  0  0  0  0  0  0  0  0  0
  136.7040   70.2710  222.9730 O   0  0  0  0  0  0  0  0  0  0  0  0
  138.4980   71.5110  222.0430 N   0  0  0  0  0  0  0  0  0  0  0  0
  138.8190   72.0450  220.6920 C   0  0  0  0  0  0  0  0  0  0  0  0
  139.9930   72.9750  221.0200 C   0  0  0  0  0  0  0  0  0  0  0  0
  140.3930   72.6610  222.4690 C   0  0  0  0  0  0  0  0  0  0  0  0
  139.8060   71.2610  222.5970 C   0  0  1  0  0  0  0  0  0  0  0  0
  139.8820   70.7390  223.9430 C   0  0  0  0  0  0  0  0  0  0  0  0
  139.4250   69.4570  224.2660 C   0  0  0  0  0  0  0  0  0  0  0  0
  139.4740   68.9790  225.5230 N   0  0  0  0  0  0  0  0  0  0  0  0
  139.9580   69.6770  226.5670 C   0  0  0  0  0  0  0  0  0  0  0  0
  139.9880   68.9830  228.1740 Cl  0  0  0  0  0  0  0  0  0  0  0  0
  140.4210   70.9520  226.2930 C   0  0  0  0  0  0  0  0  0  0  0  0
  141.0530   71.8740  227.6310 Cl  0  0  0  0  0  0  0  0  0  0  0  0
  140.3820   71.4750  224.9940 C   0  0  0  0  0  0  0  0  0  0  0  0
  137.1320   76.2610  222.6290 C   0  0  0  0  0  0  0  0  0  0  0  0
  136.5100   77.4720  222.7330 C   0  0  0  0  0  0  0  0  0  0  0  0
  137.3040   78.6130  222.8230 C   0  0  0  0  0  0  0  0  0  0  0  0
  138.6830   78.5370  222.8090 C   0  0  0  0  0  0  0  0  0  0  0  0
  139.4980   79.6490  222.8960 C   0  0  0  0  0  0  0  0  0  0  0  0
  140.8870   79.5120  222.8770 C   0  0  0  0  0  0  0  0  0  0  0  0
  141.9350   80.9230  222.9880 Cl  0  0  0  0  0  0  0  0  0  0  0  0
  141.4680   78.2480  222.7690 C   0  0  0  0  0  0  0  0  0  0  0  0
  140.6560   77.1370  222.6820 C   0  0  0  0  0  0  0  0  0  0  0  0
  139.2810   77.2830  222.7010 C   0  0  0  0  0  0  0  0  0  0  0  0
  138.4820   76.2230  222.6180 N   0  0  0  0  0  0  0  0  0  0  0  0
  138.0410   73.8010  222.9130 H   0  0  0  0  0  0  0  0  0  0  0  0
  135.6393   72.4466  223.5125 H   0  0  0  0  0  0  0  0  0  0  0  0
  135.6887   72.5667  221.6990 H   0  0  0  0  0  0  0  0  0  0  0  0
  139.1188   71.2434  220.0009 H   0  0  0  0  0  0  0  0  0  0  0  0
  137.9760   72.5381  220.1859 H   0  0  0  0  0  0  0  0  0  0  0  0
  140.8358   72.7801  220.3405 H   0  0  0  0  0  0  0  0  0  0  0  0
  139.7138   74.0322  220.9003 H   0  0  0  0  0  0  0  0  0  0  0  0
  141.4849   72.6614  222.6021 H   0  0  0  0  0  0  0  0  0  0  0  0
  140.0411   73.3854  223.2182 H   0  0  0  0  0  0  0  0  0  0  0  0
  140.3301   70.4439  222.0797 H   0  0  0  0  0  0  0  0  0  0  0  0
  139.0133   68.8206  223.4688 H   0  0  0  0  0  0  0  0  0  0  0  0
  140.7577   72.4924  224.8101 H   0  0  0  0  0  0  0  0  0  0  0  0
  135.4125   77.5446  222.7454 H   0  0  0  0  0  0  0  0  0  0  0  0
  136.8213   79.5978  222.9072 H   0  0  0  0  0  0  0  0  0  0  0  0
  139.0491   80.6497  222.9808 H   0  0  0  0  0  0  0  0  0  0  0  0
  142.5625   78.1390  222.7534 H   0  0  0  0  0  0  0  0  0  0  0  0
  141.1018   76.1349  222.5975 H   0  0  0  0  0  0  0  0  0  0  0  0
  1  2  2  0
  2  3  1  0
  3  4  1  0
  4  5  1  0
  5  6  2  0
  5  7  1  0
  7  8  1  0
  8  9  1  0
  9 10  1  0
 10 11  1  0
 11 12  1  0
 12 13  2  0
 13 14  1  0
 14 15  2  0
 15 16  1  0
 15 17  1  0
 17 18  1  0
 17 19  2  0
  2 20  1  0
 20 21  2  0
 21 22  1  0
 22 23  2  0
 23 24  1  0
 24 25  2  0
 25 26  1  0
 25 27  1  0
 27 28  2  0
 28 29  1  0
 29 30  2  0
 11  7  1  0
 19 12  1  0
 30 20  1  0
 29 23  1  0
  3 31  1  0
  4 32  1  0
  4 33  1  0
  8 34  1  0
  8 35  1  0
  9 36  1  0
  9 37  1  0
 10 38  1  0
 10 39  1  0
 11 40  1  6
 13 41  1  0
 19 42  1  0
 21 43  1  0
 22 44  1  0
 24 45  1  0
 27 46  1  0
 28 47  1  0
M  END
>  <smiles>  (3) 
O=C(NCC(=O)N1CCC[C@H]1c1cnc(Cl)c(Cl)c1)c1ccc2cc(Cl)ccc2n1

>  <score_type>  (3) 
oracle

>  <origin>  (3) 
autodockgpu

>  <m_score__min__energy>  (3) 
-9.0399999999999991

>  <m_primary>  (3) 
energy

>  <rmsd>  (3) 
7.183909874948242

>  <m_score__min__rmsd>  (3) 
7.183909874948242

>  <meeko>  (3) 
{"free_energy": -8.17, "intermolecular_energy": -9.66, "internal_energy": -1.98, "cluster_size": 10, "cluster_id": 4, "rank_in_cluster": 4}

>  <energy>  (3) 
-8.79

>  <cluster_rmsd>  (3) 
1.53

>  <cluster>  (3) 
1

$$$$

     RDKit          3D

 47 50  0  0  0  0  0  0  0  0999 V2000
  137.9880   73.0270  220.2640 O   0  0  0  0  0  0  0  0  0  0  0  0
  138.0980   73.5040  221.4350 C   0  0  0  0  0  0  0  0  0  0  0  0
  137.3280   72.9560  222.4980 N   0  0  0  0  0  0  0  0  0  0  0  0
  136.4260   71.8740  222.2790 C   0  0  0  0  0  0  0  0  0  0  0  0
  137.0360   70.5390  222.6220 C   0  0  0  0  0  0  0  0  0  0  0  0
  136.4370   69.8870  223.5080 O   0  0  0  0  0  0  0  0  0  0  0  0
  138.2020   70.1290  221.9440 N   0  0  0  0  0  0  0  0  0  0  0  0
  138.2570   69.7280  220.5130 C   0  0  0  0  0  0  0  0  0  0  0  0
  139.5440   70.4320  220.0650 C   0  0  0  0  0  0  0  0  0  0  0  0
  140.2280   70.9250  221.3480 C   0  0  0  0  0  0  0  0  0  0  0  0
  139.5770   69.9900  222.3590 C   0  0  1  0  0  0  0  0  0  0  0  0
  139.9070   70.3210  223.7280 C   0  0  0  0  0  0  0  0  0  0  0  0
  140.3970   71.5810  224.0860 C   0  0  0  0  0  0  0  0  0  0  0  0
  140.7260   71.8830  225.3550 N   0  0  0  0  0  0  0  0  0  0  0  0
  140.6150   71.0160  226.3790 C   0  0  0  0  0  0  0  0  0  0  0  0
  141.0640   71.4850  228.0050 Cl  0  0  0  0  0  0  0  0  0  0  0  0
  140.1330   69.7560  226.0690 C   0  0  0  0  0  0  0  0  0  0  0  0
  139.9810   68.6170  227.3810 Cl  0  0  0  0  0  0  0  0  0  0  0  0
  139.7840   69.4140  224.7570 C   0  0  0  0  0  0  0  0  0  0  0  0
  139.0130   74.6170  221.7050 C   0  0  0  0  0  0  0  0  0  0  0  0
  140.3480   74.5040  221.4420 C   0  0  0  0  0  0  0  0  0  0  0  0
  141.1670   75.5960  221.7200 C   0  0  0  0  0  0  0  0  0  0  0  0
  140.6570   76.7660  222.2480 C   0  0  0  0  0  0  0  0  0  0  0  0
  141.4430   77.8660  222.5360 C   0  0  0  0  0  0  0  0  0  0  0  0
  140.8720   79.0230  223.0690 C   0  0  0  0  0  0  0  0  0  0  0  0
  141.8640   80.4310  223.4390 Cl  0  0  0  0  0  0  0  0  0  0  0  0
  139.5000   79.0810  223.3180 C   0  0  0  0  0  0  0  0  0  0  0  0
  138.7150   77.9840  223.0320 C   0  0  0  0  0  0  0  0  0  0  0  0
  139.2890   76.8430  222.5040 C   0  0  0  0  0  0  0  0  0  0  0  0
  138.5480   75.7750  222.2220 N   0  0  0  0  0  0  0  0  0  0  0  0
  137.4610   73.3940  223.4520 H   0  0  0  0  0  0  0  0  0  0  0  0
  135.5338   72.0258  222.9042 H   0  0  0  0  0  0  0  0  0  0  0  0
  136.1710   71.8613  221.2091 H   0  0  0  0  0  0  0  0  0  0  0  0
  138.3331   68.6363  220.4014 H   0  0  0  0  0  0  0  0  0  0  0  0
  137.3641   69.9983  219.9302 H   0  0  0  0  0  0  0  0  0  0  0  0
  140.1981   69.7277  219.5300 H   0  0  0  0  0  0  0  0  0  0  0  0
  139.3289   71.2644  219.3788 H   0  0  0  0  0  0  0  0  0  0  0  0
  141.3190   70.7903  221.3085 H   0  0  0  0  0  0  0  0  0  0  0  0
  140.1073   71.9978  221.5589 H   0  0  0  0  0  0  0  0  0  0  0  0
  139.9091   68.9413  222.3645 H   0  0  0  0  0  0  0  0  0  0  0  0
  140.5170   72.3480  223.3067 H   0  0  0  0  0  0  0  0  0  0  0  0
  139.4050   68.4035  224.5444 H   0  0  0  0  0  0  0  0  0  0  0  0
  140.7651   73.5767  221.0224 H   0  0  0  0  0  0  0  0  0  0  0  0
  142.2452   75.5248  221.5142 H   0  0  0  0  0  0  0  0  0  0  0  0
  142.5255   77.8294  222.3439 H   0  0  0  0  0  0  0  0  0  0  0  0
  139.0495   79.9924  223.7380 H   0  0  0  0  0  0  0  0  0  0  0  0
  137.6324   78.0170  223.2240 H   0  0  0  0  0  0  0  0  0  0  0  0
  1  2  2  0
  2  3  1  0
  3  4  1  0
  4  5  1  0
  5  6  2  0
  5  7  1  0
  7  8  1  0
  8  9  1  0
  9 10  1  0
 10 11  1  0
 11 12  1  0
 12 13  2  0
 13 14  1  0
 14 15  2  0
 15 16  1  0
 15 17  1  0
 17 18  1  0
 17 19  2  0
  2 20  1  0
 20 21  2  0
 21 22  1  0
 22 23  2  0
 23 24  1  0
 24 25  2  0
 25 26  1  0
 25 27  1  0
 27 28  2  0
 28 29  1  0
 29 30  2  0
 11  7  1  0
 19 12  1  0
 30 20  1  0
 29 23  1  0
  3 31  1  0
  4 32  1  0
  4 33  1  0
  8 34  1  0
  8 35  1  0
  9 36  1  0
  9 37  1  0
 10 38  1  0
 10 39  1  0
 11 40  1  6
 13 41  1  0
 19 42  1  0
 21 43  1  0
 22 44  1  0
 24 45  1  0
 27 46  1  0
 28 47  1  0
M  END
>  <smiles>  (4) 
O=C(NCC(=O)N1CCC[C@H]1c1cnc(Cl)c(Cl)c1)c1ccc2cc(Cl)ccc2n1

>  <score_type>  (4) 
oracle

>  <origin>  (4) 
autodockgpu

>  <m_score__min__energy>  (4) 
-9.0399999999999991

>  <m_primary>  (4) 
energy

>  <rmsd>  (4) 
6.890396089314161

>  <m_score__min__rmsd>  (4) 
6.890396089314161

>  <meeko>  (4) 
{"free_energy": -7.88, "intermolecular_energy": -9.37, "internal_energy": -2.07, "cluster_size": 10, "cluster_id": 4, "rank_in_cluster": 8}

>  <energy>  (4) 
-8.73

>  <cluster_rmsd>  (4) 
1.54

>  <cluster>  (4) 
1

$$$$

     RDKit          3D

 47 50  0  0  0  0  0  0  0  0999 V2000
  140.2010   77.3750  218.7960 O   0  0  0  0  0  0  0  0  0  0  0  0
  141.4430   77.1820  218.9610 C   0  0  0  0  0  0  0  0  0  0  0  0
  142.3010   78.2830  219.2360 N   0  0  0  0  0  0  0  0  0  0  0  0
  141.7940   79.6110  219.3340 C   0  0  0  0  0  0  0  0  0  0  0  0
  141.0370   79.8450  220.6160 C   0  0  0  0  0  0  0  0  0  0  0  0
  139.8570   80.2410  220.4790 O   0  0  0  0  0  0  0  0  0  0  0  0
  141.6890   79.6080  221.8440 N   0  0  0  0  0  0  0  0  0  0  0  0
  142.7070   80.5040  222.4530 C   0  0  0  0  0  0  0  0  0  0  0  0
  142.2630   80.4910  223.9210 C   0  0  0  0  0  0  0  0  0  0  0  0
  141.2150   79.3760  224.0390 C   0  0  0  0  0  0  0  0  0  0  0  0
  141.5870   78.5470  222.8160 C   0  0  1  0  0  0  0  0  0  0  0  0
  140.6500   77.4770  222.5530 C   0  0  0  0  0  0  0  0  0  0  0  0
  141.0750   76.1860  222.2260 C   0  0  0  0  0  0  0  0  0  0  0  0
  140.2050   75.1950  221.9590 N   0  0  0  0  0  0  0  0  0  0  0  0
  138.8680   75.3530  221.9830 C   0  0  0  0  0  0  0  0  0  0  0  0
  137.8000   74.0130  221.6240 Cl  0  0  0  0  0  0  0  0  0  0  0  0
  138.4030   76.6160  222.3020 C   0  0  0  0  0  0  0  0  0  0  0  0
  136.6730   76.8420  222.3390 Cl  0  0  0  0  0  0  0  0  0  0  0  0
  139.2860   77.6660  222.5840 C   0  0  0  0  0  0  0  0  0  0  0  0
  142.0080   75.8320  218.8690 C   0  0  0  0  0  0  0  0  0  0  0  0
  141.3590   74.8480  218.1780 C   0  0  0  0  0  0  0  0  0  0  0  0
  141.9460   73.5860  218.1270 C   0  0  0  0  0  0  0  0  0  0  0  0
  143.1490   73.3220  218.7520 C   0  0  0  0  0  0  0  0  0  0  0  0
  143.7560   72.0800  218.7200 C   0  0  0  0  0  0  0  0  0  0  0  0
  144.9730   71.8710  219.3700 C   0  0  0  0  0  0  0  0  0  0  0  0
  145.7550   70.2930  219.3350 Cl  0  0  0  0  0  0  0  0  0  0  0  0
  145.5910   72.9140  220.0610 C   0  0  0  0  0  0  0  0  0  0  0  0
  144.9860   74.1530  220.0950 C   0  0  0  0  0  0  0  0  0  0  0  0
  143.7800   74.3510  219.4470 C   0  0  0  0  0  0  0  0  0  0  0  0
  143.1820   75.5390  219.4680 N   0  0  0  0  0  0  0  0  0  0  0  0
  143.3280   78.0610  219.3640 H   0  0  0  0  0  0  0  0  0  0  0  0
  142.6378   80.3153  219.2887 H   0  0  0  0  0  0  0  0  0  0  0  0
  141.0945   79.7649  218.4991 H   0  0  0  0  0  0  0  0  0  0  0  0
  143.7235   80.1008  222.3343 H   0  0  0  0  0  0  0  0  0  0  0  0
  142.7584   81.5062  222.0024 H   0  0  0  0  0  0  0  0  0  0  0  0
  143.1203   80.2801  224.5772 H   0  0  0  0  0  0  0  0  0  0  0  0
  141.8501   81.4643  224.2245 H   0  0  0  0  0  0  0  0  0  0  0  0
  141.3282   78.8041  224.9718 H   0  0  0  0  0  0  0  0  0  0  0  0
  140.1701   79.7184  224.0711 H   0  0  0  0  0  0  0  0  0  0  0  0
  142.5049   77.9437  222.8752 H   0  0  0  0  0  0  0  0  0  0  0  0
  142.1536   75.9739  222.1858 H   0  0  0  0  0  0  0  0  0  0  0  0
  138.8833   78.6585  222.8345 H   0  0  0  0  0  0  0  0  0  0  0  0
  140.4004   75.0468  217.6764 H   0  0  0  0  0  0  0  0  0  0  0  0
  141.4393   72.7802  217.5757 H   0  0  0  0  0  0  0  0  0  0  0  0
  143.2764   71.2513  218.1786 H   0  0  0  0  0  0  0  0  0  0  0  0
  146.5505   72.7498  220.5732 H   0  0  0  0  0  0  0  0  0  0  0  0
  145.4622   74.9833  220.6371 H   0  0  0  0  0  0  0  0  0  0  0  0
  1  2  2  0
  2  3  1  0
  3  4  1  0
  4  5  1  0
  5  6  2  0
  5  7  1  0
  7  8  1  0
  8  9  1  0
  9 10  1  0
 10 11  1  0
 11 12  1  0
 12 13  2  0
 13 14  1  0
 14 15  2  0
 15 16  1  0
 15 17  1  0
 17 18  1  0
 17 19  2  0
  2 20  1  0
 20 21  2  0
 21 22  1  0
 22 23  2  0
 23 24  1  0
 24 25  2  0
 25 26  1  0
 25 27  1  0
 27 28  2  0
 28 29  1  0
 29 30  2  0
 11  7  1  0
 19 12  1  0
 30 20  1  0
 29 23  1  0
  3 31  1  0
  4 32  1  0
  4 33  1  0
  8 34  1  0
  8 35  1  0
  9 36  1  0
  9 37  1  0
 10 38  1  0
 10 39  1  0
 11 40  1  1
 13 41  1  0
 19 42  1  0
 21 43  1  0
 22 44  1  0
 24 45  1  0
 27 46  1  0
 28 47  1  0
M  END
>  <smiles>  (5) 
O=C(NCC(=O)N1CCC[C@H]1c1cnc(Cl)c(Cl)c1)c1ccc2cc(Cl)ccc2n1

>  <score_type>  (5) 
oracle

>  <origin>  (5) 
autodockgpu

>  <m_score__min__energy>  (5) 
-9.0399999999999991

>  <m_primary>  (5) 
energy

>  <rmsd>  (5) 
7.649251410595653

>  <m_score__min__rmsd>  (5) 
7.649251410595653

>  <meeko>  (5) 
{"free_energy": -6.87, "intermolecular_energy": -8.37, "internal_energy": -2.61, "cluster_size": 4, "cluster_id": 7, "rank_in_cluster": 3}

>  <energy>  (5) 
-8.3

>  <cluster_rmsd>  (5) 
1.87

>  <cluster>  (5) 
1

$$$$

     RDKit          3D

 47 50  0  0  0  0  0  0  0  0999 V2000
  140.4560   72.5420  221.0000 O   0  0  0  0  0  0  0  0  0  0  0  0
  139.7190   72.6150  222.0300 C   0  0  0  0  0  0  0  0  0  0  0  0
  138.7960   73.6900  222.1650 N   0  0  0  0  0  0  0  0  0  0  0  0
  138.6780   74.6960  221.1620 C   0  0  0  0  0  0  0  0  0  0  0  0
  139.9250   75.5330  221.0390 C   0  0  0  0  0  0  0  0  0  0  0  0
  140.5600   75.7110  222.1040 O   0  0  0  0  0  0  0  0  0  0  0  0
  140.2810   76.0430  219.7730 N   0  0  0  0  0  0  0  0  0  0  0  0
  139.3860   76.8440  218.8960 C   0  0  0  0  0  0  0  0  0  0  0  0
  140.3540   77.9280  218.4080 C   0  0  0  0  0  0  0  0  0  0  0  0
  141.7560   77.4700  218.8340 C   0  0  0  0  0  0  0  0  0  0  0  0
  141.4970   75.9780  219.0000 C   0  0  1  0  0  0  0  0  0  0  0  0
  142.6220   75.2700  219.5670 C   0  0  0  0  0  0  0  0  0  0  0  0
  143.7900   75.9310  219.9600 C   0  0  0  0  0  0  0  0  0  0  0  0
  144.8470   75.2700  220.4670 N   0  0  0  0  0  0  0  0  0  0  0  0
  144.8770   73.9360  220.6410 C   0  0  0  0  0  0  0  0  0  0  0  0
  146.2910   73.1490  221.3080 Cl  0  0  0  0  0  0  0  0  0  0  0  0
  143.7410   73.2410  220.2640 C   0  0  0  0  0  0  0  0  0  0  0  0
  143.7580   71.5100  220.4800 Cl  0  0  0  0  0  0  0  0  0  0  0  0
  142.6270   73.9030  219.7330 C   0  0  0  0  0  0  0  0  0  0  0  0
  139.8080   71.6030  223.0860 C   0  0  0  0  0  0  0  0  0  0  0  0
  139.3790   70.3240  222.8670 C   0  0  0  0  0  0  0  0  0  0  0  0
  139.4890   69.4080  223.9100 C   0  0  0  0  0  0  0  0  0  0  0  0
  140.0140   69.7660  225.1360 C   0  0  0  0  0  0  0  0  0  0  0  0
  140.1360   68.8800  226.1900 C   0  0  0  0  0  0  0  0  0  0  0  0
  140.6760   69.3000  227.4070 C   0  0  0  0  0  0  0  0  0  0  0  0
  140.8360   68.1790  228.7560 Cl  0  0  0  0  0  0  0  0  0  0  0  0
  141.0970   70.6190  227.5740 C   0  0  0  0  0  0  0  0  0  0  0  0
  140.9760   71.5040  226.5240 C   0  0  0  0  0  0  0  0  0  0  0  0
  140.4400   71.0800  225.3210 C   0  0  0  0  0  0  0  0  0  0  0  0
  140.3160   71.9190  224.2970 N   0  0  0  0  0  0  0  0  0  0  0  0
  138.2080   73.7000  223.0450 H   0  0  0  0  0  0  0  0  0  0  0  0
  138.4821   74.2096  220.1950 H   0  0  0  0  0  0  0  0  0  0  0  0
  137.8530   75.3635  221.4516 H   0  0  0  0  0  0  0  0  0  0  0  0
  138.9957   76.2443  218.0605 H   0  0  0  0  0  0  0  0  0  0  0  0
  138.4857   77.2301  219.3963 H   0  0  0  0  0  0  0  0  0  0  0  0
  140.2998   78.0236  217.3135 H   0  0  0  0  0  0  0  0  0  0  0  0
  140.1052   78.9107  218.8351 H   0  0  0  0  0  0  0  0  0  0  0  0
  142.5070   77.6715  218.0559 H   0  0  0  0  0  0  0  0  0  0  0  0
  142.1624   77.9751  219.7226 H   0  0  0  0  0  0  0  0  0  0  0  0
  141.3791   75.3804  218.0840 H   0  0  0  0  0  0  0  0  0  0  0  0
  143.8465   77.0242  219.8515 H   0  0  0  0  0  0  0  0  0  0  0  0
  141.7400   73.3205  219.4433 H   0  0  0  0  0  0  0  0  0  0  0  0
  138.9589   70.0267  221.8948 H   0  0  0  0  0  0  0  0  0  0  0  0
  139.1493   68.3736  223.7534 H   0  0  0  0  0  0  0  0  0  0  0  0
  139.8056   67.8378  226.0691 H   0  0  0  0  0  0  0  0  0  0  0  0
  141.5212   70.9497  228.5335 H   0  0  0  0  0  0  0  0  0  0  0  0
  141.3054   72.5468  226.6425 H   0  0  0  0  0  0  0  0  0  0  0  0
  1  2  2  0
  2  3  1  0
  3  4  1  0
  4  5  1  0
  5  6  2  0
  5  7  1  0
  7  8  1  0
  8  9  1  0
  9 10  1  0
 10 11  1  0
 11 12  1  0
 12 13  2  0
 13 14  1  0
 14 15  2  0
 15 16  1  0
 15 17  1  0
 17 18  1  0
 17 19  2  0
  2 20  1  0
 20 21  2  0
 21 22  1  0
 22 23  2  0
 23 24  1  0
 24 25  2  0
 25 26  1  0
 25 27  1  0
 27 28  2  0
 28 29  1  0
 29 30  2  0
 11  7  1  0
 19 12  1  0
 30 20  1  0
 29 23  1  0
  3 31  1  0
  4 32  1  0
  4 33  1  0
  8 34  1  0
  8 35  1  0
  9 36  1  0
  9 37  1  0
 10 38  1  0
 10 39  1  0
 11 40  1  6
 13 41  1  0
 19 42  1  0
 21 43  1  0
 22 44  1  0
 24 45  1  0
 27 46  1  0
 28 47  1  0
M  END
>  <smiles>  (6) 
O=C(NCC(=O)N1CCC[C@H]1c1cnc(Cl)c(Cl)c1)c1ccc2cc(Cl)ccc2n1

>  <score_type>  (6) 
oracle

>  <origin>  (6) 
autodockgpu

>  <m_score__min__energy>  (6) 
-9.0399999999999991

>  <m_primary>  (6) 
energy

>  <rmsd>  (6) 
1.4760248917424015

>  <m_score__min__rmsd>  (6) 
1.4760248917424015

>  <meeko>  (6) 
{"free_energy": -8.45, "intermolecular_energy": -9.94, "internal_energy": -1.76, "cluster_size": 17, "cluster_id": 3, "rank_in_cluster": 4}

>  <energy>  (6) 
-8.1

>  <cluster_rmsd>  (6) 
1.85

>  <cluster>  (6) 
1

$$$$

     RDKit          3D

 47 50  0  0  0  0  0  0  0  0999 V2000
  137.6770   71.3640  220.9670 O   0  0  0  0  0  0  0  0  0  0  0  0
  138.1550   71.8590  222.0330 C   0  0  0  0  0  0  0  0  0  0  0  0
  138.2550   73.2700  222.1750 N   0  0  0  0  0  0  0  0  0  0  0  0
  137.8270   74.1520  221.1400 C   0  0  0  0  0  0  0  0  0  0  0  0
  138.9530   74.5490  220.2210 C   0  0  0  0  0  0  0  0  0  0  0  0
  138.6020   75.0080  219.1090 O   0  0  0  0  0  0  0  0  0  0  0  0
  140.2820   74.3840  220.6610 N   0  0  0  0  0  0  0  0  0  0  0  0
  141.1490   73.2210  220.3320 C   0  0  0  0  0  0  0  0  0  0  0  0
  142.4770   73.9260  220.0300 C   0  0  0  0  0  0  0  0  0  0  0  0
  142.3000   75.3800  220.4880 C   0  0  0  0  0  0  0  0  0  0  0  0
  141.1520   75.1990  221.4730 C   0  0  1  0  0  0  0  0  0  0  0  0
  140.6320   76.4540  221.9700 C   0  0  0  0  0  0  0  0  0  0  0  0
  139.3200   76.5780  222.4350 C   0  0  0  0  0  0  0  0  0  0  0  0
  138.8280   77.7500  222.8770 N   0  0  0  0  0  0  0  0  0  0  0  0
  139.5420   78.8910  222.9120 C   0  0  0  0  0  0  0  0  0  0  0  0
  138.8300   80.3770  223.5020 Cl  0  0  0  0  0  0  0  0  0  0  0  0
  140.8470   78.8140  222.4600 C   0  0  0  0  0  0  0  0  0  0  0  0
  141.7910   80.2810  222.4960 Cl  0  0  0  0  0  0  0  0  0  0  0  0
  141.3850   77.6070  221.9940 C   0  0  0  0  0  0  0  0  0  0  0  0
  138.6090   70.9890  223.1220 C   0  0  0  0  0  0  0  0  0  0  0  0
  138.3760   69.6440  223.0860 C   0  0  0  0  0  0  0  0  0  0  0  0
  138.8310   68.8700  224.1510 C   0  0  0  0  0  0  0  0  0  0  0  0
  139.5000   69.4320  225.2200 C   0  0  0  0  0  0  0  0  0  0  0  0
  139.9640   68.6920  226.2910 C   0  0  0  0  0  0  0  0  0  0  0  0
  140.6350   69.3160  227.3440 C   0  0  0  0  0  0  0  0  0  0  0  0
  141.2290   68.3820  228.7140 Cl  0  0  0  0  0  0  0  0  0  0  0  0
  140.8440   70.6960  227.3280 C   0  0  0  0  0  0  0  0  0  0  0  0
  140.3820   71.4350  226.2600 C   0  0  0  0  0  0  0  0  0  0  0  0
  139.7190   70.8090  225.2210 C   0  0  0  0  0  0  0  0  0  0  0  0
  139.2660   71.5070  224.1830 N   0  0  0  0  0  0  0  0  0  0  0  0
  138.6630   73.6260  223.0850 H   0  0  0  0  0  0  0  0  0  0  0  0
  137.0480   73.6497  220.5476 H   0  0  0  0  0  0  0  0  0  0  0  0
  137.4445   75.0669  221.6161 H   0  0  0  0  0  0  0  0  0  0  0  0
  141.2417   72.5317  221.1842 H   0  0  0  0  0  0  0  0  0  0  0  0
  140.7725   72.5906  219.5130 H   0  0  0  0  0  0  0  0  0  0  0  0
  143.2979   73.4481  220.5848 H   0  0  0  0  0  0  0  0  0  0  0  0
  142.7284   73.8690  218.9606 H   0  0  0  0  0  0  0  0  0  0  0  0
  143.2044   75.7678  220.9796 H   0  0  0  0  0  0  0  0  0  0  0  0
  142.1133   76.1042  219.6813 H   0  0  0  0  0  0  0  0  0  0  0  0
  141.3854   74.7286  222.4396 H   0  0  0  0  0  0  0  0  0  0  0  0
  138.6698   75.6908  222.4399 H   0  0  0  0  0  0  0  0  0  0  0  0
  142.4266   77.5799  221.6413 H   0  0  0  0  0  0  0  0  0  0  0  0
  137.8440   69.1847  222.2398 H   0  0  0  0  0  0  0  0  0  0  0  0
  138.6529   67.7846  224.1401 H   0  0  0  0  0  0  0  0  0  0  0  0
  139.8035   67.6040  226.3138 H   0  0  0  0  0  0  0  0  0  0  0  0
  141.3714   71.1883  228.1583 H   0  0  0  0  0  0  0  0  0  0  0  0
  140.5410   72.5232  226.2345 H   0  0  0  0  0  0  0  0  0  0  0  0
  1  2  2  0
  2  3  1  0
  3  4  1  0
  4  5  1  0
  5  6  2  0
  5  7  1  0
  7  8  1  0
  8  9  1  0
  9 10  1  0
 10 11  1  0
 11 12  1  0
 12 13  2  0
 13 14  1  0
 14 15  2  0
 15 16  1  0
 15 17  1  0
 17 18  1  0
 17 19  2  0
  2 20  1  0
 20 21  2  0
 21 22  1  0
 22 23  2  0
 23 24  1  0
 24 25  2  0
 25 26  1  0
 25 27  1  0
 27 28  2  0
 28 29  1  0
 29 30  2  0
 11  7  1  0
 19 12  1  0
 30 20  1  0
 29 23  1  0
  3 31  1  0
  4 32  1  0
  4 33  1  0
  8 34  1  0
  8 35  1  0
  9 36  1  0
  9 37  1  0
 10 38  1  0
 10 39  1  0
 11 40  1  1
 13 41  1  0
 19 42  1  0
 21 43  1  0
 22 44  1  0
 24 45  1  0
 27 46  1  0
 28 47  1  0
M  END
>  <smiles>  (7) 
O=C(NCC(=O)N1CCC[C@H]1c1cnc(Cl)c(Cl)c1)c1ccc2cc(Cl)ccc2n1

>  <score_type>  (7) 
oracle

>  <origin>  (7) 
autodockgpu

>  <m_score__min__energy>  (7) 
-9.0399999999999991

>  <m_primary>  (7) 
energy

>  <rmsd>  (7) 
2.1160668542079635

>  <m_score__min__rmsd>  (7) 
2.1160668542079635

>  <meeko>  (7) 
{"free_energy": -8.06, "intermolecular_energy": -9.55, "internal_energy": -1.69, "cluster_size": 10, "cluster_id": 1, "rank_in_cluster": 7}

>  <energy>  (7) 
-8.06

>  <cluster_rmsd>  (7) 
1.81

>  <cluster>  (7) 
1

$$$$

     RDKit          3D

 47 50  0  0  0  0  0  0  0  0999 V2000
  139.4910   72.5230  220.5340 O   0  0  0  0  0  0  0  0  0  0  0  0
  139.5690   72.8690  221.7520 C   0  0  0  0  0  0  0  0  0  0  0  0
  139.4980   74.2460  222.1030 N   0  0  0  0  0  0  0  0  0  0  0  0
  139.3410   75.2570  221.1110 C   0  0  0  0  0  0  0  0  0  0  0  0
  140.4160   76.3110  221.1880 C   0  0  0  0  0  0  0  0  0  0  0  0
  140.7550   76.6480  222.3460 O   0  0  0  0  0  0  0  0  0  0  0  0
  140.9490   76.8280  219.9900 N   0  0  0  0  0  0  0  0  0  0  0  0
  140.6210   78.1610  219.4180 C   0  0  0  0  0  0  0  0  0  0  0  0
  142.0110   78.6370  218.9770 C   0  0  0  0  0  0  0  0  0  0  0  0
  142.9350   77.4160  219.0910 C   0  0  0  0  0  0  0  0  0  0  0  0
  141.8950   76.3040  219.0340 C   0  0  1  0  0  0  0  0  0  0  0  0
  142.4550   74.9950  219.2860 C   0  0  0  0  0  0  0  0  0  0  0  0
  141.7890   73.8220  218.9140 C   0  0  0  0  0  0  0  0  0  0  0  0
  142.2980   72.6030  219.1680 N   0  0  0  0  0  0  0  0  0  0  0  0
  143.4750   72.4020  219.7900 C   0  0  0  0  0  0  0  0  0  0  0  0
  144.0710   70.7830  220.0840 Cl  0  0  0  0  0  0  0  0  0  0  0  0
  144.1680   73.5360  220.1760 C   0  0  0  0  0  0  0  0  0  0  0  0
  145.6950   73.2990  220.9850 Cl  0  0  0  0  0  0  0  0  0  0  0  0
  143.6610   74.8180  219.9260 C   0  0  0  0  0  0  0  0  0  0  0  0
  139.7320   71.8640  222.8060 C   0  0  0  0  0  0  0  0  0  0  0  0
  139.3970   70.5580  222.5850 C   0  0  0  0  0  0  0  0  0  0  0  0
  139.5740   69.6490  223.6250 C   0  0  0  0  0  0  0  0  0  0  0  0
  140.0740   70.0410  224.8510 C   0  0  0  0  0  0  0  0  0  0  0  0
  140.2620   69.1640  225.9020 C   0  0  0  0  0  0  0  0  0  0  0  0
  140.7710   69.6180  227.1200 C   0  0  0  0  0  0  0  0  0  0  0  0
  141.0140   68.5080  228.4660 Cl  0  0  0  0  0  0  0  0  0  0  0  0
  141.0970   70.9640  227.2890 C   0  0  0  0  0  0  0  0  0  0  0  0
  140.9100   71.8410  226.2420 C   0  0  0  0  0  0  0  0  0  0  0  0
  140.4050   71.3820  225.0390 C   0  0  0  0  0  0  0  0  0  0  0  0
  140.2180   72.2130  224.0170 N   0  0  0  0  0  0  0  0  0  0  0  0
  139.5690   74.4750  223.1340 H   0  0  0  0  0  0  0  0  0  0  0  0
  139.3789   74.7859  220.1177 H   0  0  0  0  0  0  0  0  0  0  0  0
  138.3741   75.7513  221.2866 H   0  0  0  0  0  0  0  0  0  0  0  0
  139.9327   78.0765  218.5641 H   0  0  0  0  0  0  0  0  0  0  0  0
  140.1075   78.8405  220.1141 H   0  0  0  0  0  0  0  0  0  0  0  0
  141.9796   78.9963  217.9378 H   0  0  0  0  0  0  0  0  0  0  0  0
  142.3671   79.4702  219.6007 H   0  0  0  0  0  0  0  0  0  0  0  0
  143.6433   77.3582  218.2514 H   0  0  0  0  0  0  0  0  0  0  0  0
  143.5847   77.4030  219.9786 H   0  0  0  0  0  0  0  0  0  0  0  0
  141.4323   76.0946  218.0583 H   0  0  0  0  0  0  0  0  0  0  0  0
  140.8203   73.8990  218.3985 H   0  0  0  0  0  0  0  0  0  0  0  0
  144.2367   75.6987  220.2468 H   0  0  0  0  0  0  0  0  0  0  0  0
  138.9985   70.2335  221.6124 H   0  0  0  0  0  0  0  0  0  0  0  0
  139.3091   68.5933  223.4660 H   0  0  0  0  0  0  0  0  0  0  0  0
  140.0088   68.1007  225.7781 H   0  0  0  0  0  0  0  0  0  0  0  0
  141.4993   71.3219  228.2482 H   0  0  0  0  0  0  0  0  0  0  0  0
  141.1622   72.9048  226.3632 H   0  0  0  0  0  0  0  0  0  0  0  0
  1  2  2  0
  2  3  1  0
  3  4  1  0
  4  5  1  0
  5  6  2  0
  5  7  1  0
  7  8  1  0
  8  9  1  0
  9 10  1  0
 10 11  1  0
 11 12  1  0
 12 13  2  0
 13 14  1  0
 14 15  2  0
 15 16  1  0
 15 17  1  0
 17 18  1  0
 17 19  2  0
  2 20  1  0
 20 21  2  0
 21 22  1  0
 22 23  2  0
 23 24  1  0
 24 25  2  0
 25 26  1  0
 25 27  1  0
 27 28  2  0
 28 29  1  0
 29 30  2  0
 11  7  1  0
 19 12  1  0
 30 20  1  0
 29 23  1  0
  3 31  1  0
  4 32  1  0
  4 33  1  0
  8 34  1  0
  8 35  1  0
  9 36  1  0
  9 37  1  0
 10 38  1  0
 10 39  1  0
 11 40  1  6
 13 41  1  0
 19 42  1  0
 21 43  1  0
 22 44  1  0
 24 45  1  0
 27 46  1  0
 28 47  1  0
M  END
>  <smiles>  (8) 
O=C(NCC(=O)N1CCC[C@H]1c1cnc(Cl)c(Cl)c1)c1ccc2cc(Cl)ccc2n1

>  <score_type>  (8) 
oracle

>  <origin>  (8) 
autodockgpu

>  <m_score__min__energy>  (8) 
-9.0399999999999991

>  <m_primary>  (8) 
energy

>  <rmsd>  (8) 
2.199486495482163

>  <m_score__min__rmsd>  (8) 
2.199486495482163

>  <meeko>  (8) 
{"free_energy": -8.08, "intermolecular_energy": -9.57, "internal_energy": -2.25, "cluster_size": 17, "cluster_id": 3, "rank_in_cluster": 17}

>  <energy>  (8) 
-7.99

>  <cluster_rmsd>  (8) 
0.98

>  <cluster>  (8) 
1

$$$$

     RDKit          3D

 47 50  0  0  0  0  0  0  0  0999 V2000
  141.2970   82.0190  221.5690 O   0  0  0  0  0  0  0  0  0  0  0  0
  141.8450   81.0160  221.0180 C   0  0  0  0  0  0  0  0  0  0  0  0
  142.4680   80.0200  221.8200 N   0  0  0  0  0  0  0  0  0  0  0  0
  142.4910   80.1200  223.2420 C   0  0  0  0  0  0  0  0  0  0  0  0
  141.4350   79.2650  223.8950 C   0  0  0  0  0  0  0  0  0  0  0  0
  141.8360   78.5440  224.8370 O   0  0  0  0  0  0  0  0  0  0  0  0
  140.1110   79.3350  223.4170 N   0  0  0  0  0  0  0  0  0  0  0  0
  139.1570   80.4380  223.7100 C   0  0  0  0  0  0  0  0  0  0  0  0
  138.5230   80.6460  222.3300 C   0  0  0  0  0  0  0  0  0  0  0  0
  138.9790   79.4610  221.4680 C   0  0  0  0  0  0  0  0  0  0  0  0
  139.3310   78.4680  222.5680 C   0  0  1  0  0  0  0  0  0  0  0  0
  139.9630   77.2690  222.0640 C   0  0  0  0  0  0  0  0  0  0  0  0
  139.5110   75.9920  222.4130 C   0  0  0  0  0  0  0  0  0  0  0  0
  140.1130   74.8760  221.9630 N   0  0  0  0  0  0  0  0  0  0  0  0
  141.1840   74.8840  221.1490 C   0  0  0  0  0  0  0  0  0  0  0  0
  141.9110   73.3870  220.6050 Cl  0  0  0  0  0  0  0  0  0  0  0  0
  141.6660   76.1270  220.7780 C   0  0  0  0  0  0  0  0  0  0  0  0
  143.0540   76.1610  219.7230 Cl  0  0  0  0  0  0  0  0  0  0  0  0
  141.0600   77.3060  221.2320 C   0  0  0  0  0  0  0  0  0  0  0  0
  141.8450   80.8730  219.5590 C   0  0  0  0  0  0  0  0  0  0  0  0
  141.4850   81.9160  218.7540 C   0  0  0  0  0  0  0  0  0  0  0  0
  141.5050   81.7190  217.3760 C   0  0  0  0  0  0  0  0  0  0  0  0
  141.8760   80.5090  216.8240 C   0  0  0  0  0  0  0  0  0  0  0  0
  141.9060   80.2820  215.4610 C   0  0  0  0  0  0  0  0  0  0  0  0
  142.2900   79.0370  214.9590 C   0  0  0  0  0  0  0  0  0  0  0  0
  142.3310   78.7370  213.2240 Cl  0  0  0  0  0  0  0  0  0  0  0  0
  142.6480   78.0060  215.8300 C   0  0  0  0  0  0  0  0  0  0  0  0
  142.6180   78.2320  217.1900 C   0  0  0  0  0  0  0  0  0  0  0  0
  142.2370   79.4680  217.6770 C   0  0  0  0  0  0  0  0  0  0  0  0
  142.2020   79.7030  218.9860 N   0  0  0  0  0  0  0  0  0  0  0  0
  142.9100   79.2070  221.3050 H   0  0  0  0  0  0  0  0  0  0  0  0
  143.4791   79.7983  223.6029 H   0  0  0  0  0  0  0  0  0  0  0  0
  142.2864   81.1675  223.5081 H   0  0  0  0  0  0  0  0  0  0  0  0
  138.4085   80.1375  224.4579 H   0  0  0  0  0  0  0  0  0  0  0  0
  139.6210   81.3390  224.1377 H   0  0  0  0  0  0  0  0  0  0  0  0
  137.4261   80.6585  222.4120 H   0  0  0  0  0  0  0  0  0  0  0  0
  138.8295   81.6055  221.8879 H   0  0  0  0  0  0  0  0  0  0  0  0
  138.1700   79.0882  220.8226 H   0  0  0  0  0  0  0  0  0  0  0  0
  139.7919   79.6828  220.7609 H   0  0  0  0  0  0  0  0  0  0  0  0
  138.4969   77.9946  223.1066 H   0  0  0  0  0  0  0  0  0  0  0  0
  138.6376   75.8974  223.0749 H   0  0  0  0  0  0  0  0  0  0  0  0
  141.4676   78.2784  220.9184 H   0  0  0  0  0  0  0  0  0  0  0  0
  141.1876   82.8845  219.1825 H   0  0  0  0  0  0  0  0  0  0  0  0
  141.2184   82.5471  216.7111 H   0  0  0  0  0  0  0  0  0  0  0  0
  141.6254   81.0878  214.7668 H   0  0  0  0  0  0  0  0  0  0  0  0
  142.9505   77.0246  215.4358 H   0  0  0  0  0  0  0  0  0  0  0  0
  142.8973   77.4284  217.8873 H   0  0  0  0  0  0  0  0  0  0  0  0
  1  2  2  0
  2  3  1  0
  3  4  1  0
  4  5  1  0
  5  6  2  0
  5  7  1  0
  7  8  1  0
  8  9  1  0
  9 10  1  0
 10 11  1  0
 11 12  1  0
 12 13  2  0
 13 14  1  0
 14 15  2  0
 15 16  1  0
 15 17  1  0
 17 18  1  0
 17 19  2  0
  2 20  1  0
 20 21  2  0
 21 22  1  0
 22 23  2  0
 23 24  1  0
 24 25  2  0
 25 26  1  0
 25 27  1  0
 27 28  2  0
 28 29  1  0
 29 30  2  0
 11  7  1  0
 19 12  1  0
 30 20  1  0
 29 23  1  0
  3 31  1  0
  4 32  1  0
  4 33  1  0
  8 34  1  0
  8 35  1  0
  9 36  1  0
  9 37  1  0
 10 38  1  0
 10 39  1  0
 11 40  1  1
 13 41  1  0
 19 42  1  0
 21 43  1  0
 22 44  1  0
 24 45  1  0
 27 46  1  0
 28 47  1  0
M  END
>  <smiles>  (9) 
O=C(NCC(=O)N1CCC[C@H]1c1cnc(Cl)c(Cl)c1)c1ccc2cc(Cl)ccc2n1

>  <score_type>  (9) 
oracle

>  <origin>  (9) 
autodockgpu

>  <m_score__min__energy>  (9) 
-9.0399999999999991

>  <m_primary>  (9) 
energy

>  <rmsd>  (9) 
10.664114462452883

>  <m_score__min__rmsd>  (9) 
10.664114462452883

>  <meeko>  (9) 
{"free_energy": -6.97, "intermolecular_energy": -8.46, "internal_energy": -2.74, "cluster_size": 1, "cluster_id": 8, "rank_in_cluster": 1}

>  <energy>  (9) 
-7.93

>  <cluster_rmsd>  (9) 
1.87

>  <cluster>  (9) 
1

$$$$

     RDKit          3D

 47 50  0  0  0  0  0  0  0  0999 V2000
  139.5550   72.1100  220.2980 O   0  0  0  0  0  0  0  0  0  0  0  0
  140.2590   72.2960  221.3360 C   0  0  0  0  0  0  0  0  0  0  0  0
  141.2690   73.2970  221.3360 N   0  0  0  0  0  0  0  0  0  0  0  0
  141.5120   74.1060  220.1880 C   0  0  0  0  0  0  0  0  0  0  0  0
  141.1410   75.5500  220.4140 C   0  0  0  0  0  0  0  0  0  0  0  0
  142.0760   76.3720  220.2770 O   0  0  0  0  0  0  0  0  0  0  0  0
  139.8090   75.8660  220.7520 N   0  0  0  0  0  0  0  0  0  0  0  0
  138.6170   75.0760  220.3440 C   0  0  0  0  0  0  0  0  0  0  0  0
  137.8110   75.0750  221.6490 C   0  0  0  0  0  0  0  0  0  0  0  0
  138.4930   76.0940  222.5720 C   0  0  0  0  0  0  0  0  0  0  0  0
  139.2250   76.9310  221.5300 C   0  0  1  0  0  0  0  0  0  0  0  0
  140.1150   77.9080  222.1150 C   0  0  0  0  0  0  0  0  0  0  0  0
  141.0640   77.5590  223.0820 C   0  0  0  0  0  0  0  0  0  0  0  0
  141.8770   78.4710  223.6440 N   0  0  0  0  0  0  0  0  0  0  0  0
  141.8550   79.7800  223.3330 C   0  0  0  0  0  0  0  0  0  0  0  0
  142.9480   80.9060  224.1100 Cl  0  0  0  0  0  0  0  0  0  0  0  0
  140.9310   80.1710  222.3810 C   0  0  0  0  0  0  0  0  0  0  0  0
  140.8840   81.8640  221.9620 Cl  0  0  0  0  0  0  0  0  0  0  0  0
  140.0710   79.2430  221.7790 C   0  0  0  0  0  0  0  0  0  0  0  0
  140.0450   71.4860  222.5390 C   0  0  0  0  0  0  0  0  0  0  0  0
  139.2520   70.3750  222.5020 C   0  0  0  0  0  0  0  0  0  0  0  0
  139.0860   69.6470  223.6770 C   0  0  0  0  0  0  0  0  0  0  0  0
  139.7000   70.0250  224.8550 C   0  0  0  0  0  0  0  0  0  0  0  0
  139.5560   69.3240  226.0370 C   0  0  0  0  0  0  0  0  0  0  0  0
  140.2010   69.7540  227.1970 C   0  0  0  0  0  0  0  0  0  0  0  0
  140.0240   68.8670  228.7100 Cl  0  0  0  0  0  0  0  0  0  0  0  0
  141.0010   70.8970  227.1770 C   0  0  0  0  0  0  0  0  0  0  0  0
  141.1450   71.5980  225.9980 C   0  0  0  0  0  0  0  0  0  0  0  0
  140.5020   71.1650  224.8540 C   0  0  0  0  0  0  0  0  0  0  0  0
  140.6300   71.8270  223.7070 N   0  0  0  0  0  0  0  0  0  0  0  0
  141.8260   73.4060  222.2300 H   0  0  0  0  0  0  0  0  0  0  0  0
  142.5816   74.0511  219.9370 H   0  0  0  0  0  0  0  0  0  0  0  0
  140.8858   73.7229  219.3688 H   0  0  0  0  0  0  0  0  0  0  0  0
  138.0659   75.5670  219.5284 H   0  0  0  0  0  0  0  0  0  0  0  0
  138.8475   74.0749  219.9508 H   0  0  0  0  0  0  0  0  0  0  0  0
  136.7700   75.3727  221.4549 H   0  0  0  0  0  0  0  0  0  0  0  0
  137.7859   74.0742  222.1047 H   0  0  0  0  0  0  0  0  0  0  0  0
  137.7608   76.6904  223.1361 H   0  0  0  0  0  0  0  0  0  0  0  0
  139.1317   75.6603  223.3556 H   0  0  0  0  0  0  0  0  0  0  0  0
  138.6208   77.6149  220.9159 H   0  0  0  0  0  0  0  0  0  0  0  0
  141.1476   76.5069  223.3919 H   0  0  0  0  0  0  0  0  0  0  0  0
  139.3479   79.5867  221.0247 H   0  0  0  0  0  0  0  0  0  0  0  0
  138.7581   70.0639  221.5697 H   0  0  0  0  0  0  0  0  0  0  0  0
  138.4506   68.7492  223.6670 H   0  0  0  0  0  0  0  0  0  0  0  0
  138.9286   68.4208  226.0636 H   0  0  0  0  0  0  0  0  0  0  0  0
  141.5110   71.2351  228.0911 H   0  0  0  0  0  0  0  0  0  0  0  0
  141.7716   72.5016  225.9683 H   0  0  0  0  0  0  0  0  0  0  0  0
  1  2  2  0
  2  3  1  0
  3  4  1  0
  4  5  1  0
  5  6  2  0
  5  7  1  0
  7  8  1  0
  8  9  1  0
  9 10  1  0
 10 11  1  0
 11 12  1  0
 12 13  2  0
 13 14  1  0
 14 15  2  0
 15 16  1  0
 15 17  1  0
 17 18  1  0
 17 19  2  0
  2 20  1  0
 20 21  2  0
 21 22  1  0
 22 23  2  0
 23 24  1  0
 24 25  2  0
 25 26  1  0
 25 27  1  0
 27 28  2  0
 28 29  1  0
 29 30  2  0
 11  7  1  0
 19 12  1  0
 30 20  1  0
 29 23  1  0
  3 31  1  0
  4 32  1  0
  4 33  1  0
  8 34  1  0
  8 35  1  0
  9 36  1  0
  9 37  1  0
 10 38  1  0
 10 39  1  0
 11 40  1  6
 13 41  1  0
 19 42  1  0
 21 43  1  0
 22 44  1  0
 24 45  1  0
 27 46  1  0
 28 47  1  0
M  END
>  <smiles>  (10) 
O=C(NCC(=O)N1CCC[C@H]1c1cnc(Cl)c(Cl)c1)c1ccc2cc(Cl)ccc2n1

>  <score_type>  (10) 
oracle

>  <origin>  (10) 
autodockgpu

>  <m_score__min__energy>  (10) 
-9.0399999999999991

>  <m_primary>  (10) 
energy

>  <rmsd>  (10) 
2.7972718573415776

>  <m_score__min__rmsd>  (10) 
2.7972718573415776

>  <meeko>  (10) 
{"free_energy": -7.84, "intermolecular_energy": -9.33, "internal_energy": -1.9, "cluster_size": 10, "cluster_id": 1, "rank_in_cluster": 10}

>  <energy>  (10) 
-7.84

>  <cluster_rmsd>  (10) 
1.76

>  <cluster>  (10) 
1

$$$$

     RDKit          3D

 47 50  0  0  0  0  0  0  0  0999 V2000
  134.7940   68.4940  224.9450 O   0  0  0  0  0  0  0  0  0  0  0  0
  135.2700   69.6660  225.0330 C   0  0  0  0  0  0  0  0  0  0  0  0
  136.5780   69.9370  224.5440 N   0  0  0  0  0  0  0  0  0  0  0  0
  137.3750   68.9150  223.9500 C   0  0  0  0  0  0  0  0  0  0  0  0
  138.6640   68.6860  224.6960 C   0  0  0  0  0  0  0  0  0  0  0  0
  139.1910   67.5620  224.5250 O   0  0  0  0  0  0  0  0  0  0  0  0
  139.1730   69.7190  225.5090 N   0  0  0  0  0  0  0  0  0  0  0  0
  139.3260   69.6430  226.9860 C   0  0  0  0  0  0  0  0  0  0  0  0
  140.7070   70.2860  227.1680 C   0  0  0  0  0  0  0  0  0  0  0  0
  141.0680   70.9090  225.8120 C   0  0  0  0  0  0  0  0  0  0  0  0
  139.6730   71.0390  225.2130 C   0  0  1  0  0  0  0  0  0  0  0  0
  139.6910   71.4610  223.8300 C   0  0  0  0  0  0  0  0  0  0  0  0
  138.5190   71.7980  223.1450 C   0  0  0  0  0  0  0  0  0  0  0  0
  138.5320   72.1680  221.8510 N   0  0  0  0  0  0  0  0  0  0  0  0
  139.6530   72.2480  221.1110 C   0  0  0  0  0  0  0  0  0  0  0  0
  139.5870   72.7400  219.4320 Cl  0  0  0  0  0  0  0  0  0  0  0  0
  140.8370   71.9230  221.7490 C   0  0  0  0  0  0  0  0  0  0  0  0
  142.3020   72.0200  220.8080 Cl  0  0  0  0  0  0  0  0  0  0  0  0
  140.8530   71.5340  223.0950 C   0  0  0  0  0  0  0  0  0  0  0  0
  134.4870   70.7480  225.6360 C   0  0  0  0  0  0  0  0  0  0  0  0
  133.4430   70.4720  226.4740 C   0  0  0  0  0  0  0  0  0  0  0  0
  132.7360   71.5430  227.0160 C   0  0  0  0  0  0  0  0  0  0  0  0
  133.0690   72.8510  226.7240 C   0  0  0  0  0  0  0  0  0  0  0  0
  132.3870   73.9340  227.2460 C   0  0  0  0  0  0  0  0  0  0  0  0
  132.7680   75.2360  226.9160 C   0  0  0  0  0  0  0  0  0  0  0  0
  131.9060   76.6230  227.5750 Cl  0  0  0  0  0  0  0  0  0  0  0  0
  133.8430   75.4580  226.0540 C   0  0  0  0  0  0  0  0  0  0  0  0
  134.5240   74.3780  225.5330 C   0  0  0  0  0  0  0  0  0  0  0  0
  134.1390   73.0930  225.8650 C   0  0  0  0  0  0  0  0  0  0  0  0
  134.7850   72.0390  225.3730 N   0  0  0  0  0  0  0  0  0  0  0  0
  136.9230   70.9330  224.6440 H   0  0  0  0  0  0  0  0  0  0  0  0
  136.7996   67.9775  223.9428 H   0  0  0  0  0  0  0  0  0  0  0  0
  137.6304   69.2387  222.9302 H   0  0  0  0  0  0  0  0  0  0  0  0
  138.5421   70.2152  227.5037 H   0  0  0  0  0  0  0  0  0  0  0  0
  139.2393   68.6277  227.4002 H   0  0  0  0  0  0  0  0  0  0  0  0
  140.6672   71.0622  227.9464 H   0  0  0  0  0  0  0  0  0  0  0  0
  141.4570   69.5455  227.4827 H   0  0  0  0  0  0  0  0  0  0  0  0
  141.5573   71.8874  225.9276 H   0  0  0  0  0  0  0  0  0  0  0  0
  141.7839   70.3319  225.2083 H   0  0  0  0  0  0  0  0  0  0  0  0
  139.0232   71.8312  225.6132 H   0  0  0  0  0  0  0  0  0  0  0  0
  137.5584   71.7595  223.6796 H   0  0  0  0  0  0  0  0  0  0  0  0
  141.8112   71.2824  223.5731 H   0  0  0  0  0  0  0  0  0  0  0  0
  133.1689   69.4340  226.7135 H   0  0  0  0  0  0  0  0  0  0  0  0
  131.8924   71.3420  227.6927 H   0  0  0  0  0  0  0  0  0  0  0  0
  131.5383   73.7689  227.9260 H   0  0  0  0  0  0  0  0  0  0  0  0
  134.1438   76.4834  225.7930 H   0  0  0  0  0  0  0  0  0  0  0  0
  135.3736   74.5393  224.8532 H   0  0  0  0  0  0  0  0  0  0  0  0
  1  2  2  0
  2  3  1  0
  3  4  1  0
  4  5  1  0
  5  6  2  0
  5  7  1  0
  7  8  1  0
  8  9  1  0
  9 10  1  0
 10 11  1  0
 11 12  1  0
 12 13  2  0
 13 14  1  0
 14 15  2  0
 15 16  1  0
 15 17  1  0
 17 18  1  0
 17 19  2  0
  2 20  1  0
 20 21  2  0
 21 22  1  0
 22 23  2  0
 23 24  1  0
 24 25  2  0
 25 26  1  0
 25 27  1  0
 27 28  2  0
 28 29  1  0
 29 30  2  0
 11  7  1  0
 19 12  1  0
 30 20  1  0
 29 23  1  0
  3 31  1  0
  4 32  1  0
  4 33  1  0
  8 34  1  0
  8 35  1  0
  9 36  1  0
  9 37  1  0
 10 38  1  0
 10 39  1  0
 11 40  1  1
 13 41  1  0
 19 42  1  0
 21 43  1  0
 22 44  1  0
 24 45  1  0
 27 46  1  0
 28 47  1  0
M  END
>  <smiles>  (11) 
O=C(NCC(=O)N1CCC[C@H]1c1cnc(Cl)c(Cl)c1)c1ccc2cc(Cl)ccc2n1

>  <score_type>  (11) 
oracle

>  <origin>  (11) 
autodockgpu

>  <m_score__min__energy>  (11) 
-9.0399999999999991

>  <m_primary>  (11) 
energy

>  <rmsd>  (11) 
8.069676800100387

>  <m_score__min__rmsd>  (11) 
8.069676800100387

>  <meeko>  (11) 
{"free_energy": -7.69, "intermolecular_energy": -9.18, "internal_energy": -1.75, "cluster_size": 1, "cluster_id": 6, "rank_in_cluster": 1}

>  <energy>  (11) 
-8.84

>  <cluster_rmsd>  (11) 
0.0

>  <cluster>  (11) 
2

$$$$

     RDKit          3D

 47 50  0  0  0  0  0  0  0  0999 V2000
  135.5270   75.2970  221.8120 O   0  0  0  0  0  0  0  0  0  0  0  0
  136.7160   75.2560  222.2510 C   0  0  0  0  0  0  0  0  0  0  0  0
  137.3290   74.0020  222.5230 N   0  0  0  0  0  0  0  0  0  0  0  0
  136.6330   72.7760  222.3110 C   0  0  0  0  0  0  0  0  0  0  0  0
  137.5520   71.5810  222.3410 C   0  0  0  0  0  0  0  0  0  0  0  0
  137.0510   70.5290  222.8020 O   0  0  0  0  0  0  0  0  0  0  0  0
  138.8710   71.7250  221.8630 N   0  0  0  0  0  0  0  0  0  0  0  0
  139.2350   72.1790  220.4950 C   0  0  0  0  0  0  0  0  0  0  0  0
  140.3930   73.1350  220.8060 C   0  0  0  0  0  0  0  0  0  0  0  0
  140.7450   72.9120  222.2830 C   0  0  0  0  0  0  0  0  0  0  0  0
  140.1610   71.5180  222.4750 C   0  0  1  0  0  0  0  0  0  0  0  0
  140.1920   71.0780  223.8530 C   0  0  0  0  0  0  0  0  0  0  0  0
  140.6920   71.8890  224.8760 C   0  0  0  0  0  0  0  0  0  0  0  0
  140.7430   71.4730  226.1550 N   0  0  0  0  0  0  0  0  0  0  0  0
  140.3260   70.2590  226.5590 C   0  0  0  0  0  0  0  0  0  0  0  0
  140.4250   69.7900  228.2430 Cl  0  0  0  0  0  0  0  0  0  0  0  0
  139.8240   69.4220  225.5780 C   0  0  0  0  0  0  0  0  0  0  0  0
  139.2770   67.8440  226.0800 Cl  0  0  0  0  0  0  0  0  0  0  0  0
  139.7590   69.8290  224.2390 C   0  0  0  0  0  0  0  0  0  0  0  0
  137.4680   76.4930  222.4850 C   0  0  0  0  0  0  0  0  0  0  0  0
  136.8200   77.6790  222.6800 C   0  0  0  0  0  0  0  0  0  0  0  0
  137.5900   78.8200  222.8960 C   0  0  0  0  0  0  0  0  0  0  0  0
  138.9700   78.7680  222.9160 C   0  0  0  0  0  0  0  0  0  0  0  0
  139.7610   79.8810  223.1280 C   0  0  0  0  0  0  0  0  0  0  0  0
  141.1520   79.7690  223.1370 C   0  0  0  0  0  0  0  0  0  0  0  0
  142.1700   81.1810  223.4070 Cl  0  0  0  0  0  0  0  0  0  0  0  0
  141.7610   78.5300  222.9320 C   0  0  0  0  0  0  0  0  0  0  0  0
  140.9720   77.4190  222.7200 C   0  0  0  0  0  0  0  0  0  0  0  0
  139.5950   77.5390  222.7120 C   0  0  0  0  0  0  0  0  0  0  0  0
  138.8190   76.4780  222.5100 N   0  0  0  0  0  0  0  0  0  0  0  0
  138.3220   74.0300  222.8890 H   0  0  0  0  0  0  0  0  0  0  0  0
  135.8753   72.6589  223.0998 H   0  0  0  0  0  0  0  0  0  0  0  0
  136.1723   72.8200  221.3131 H   0  0  0  0  0  0  0  0  0  0  0  0
  139.5619   71.3395  219.8638 H   0  0  0  0  0  0  0  0  0  0  0  0
  138.4074   72.6353  219.9321 H   0  0  0  0  0  0  0  0  0  0  0  0
  141.2594   72.9052  220.1683 H   0  0  0  0  0  0  0  0  0  0  0  0
  140.1128   74.1812  220.6135 H   0  0  0  0  0  0  0  0  0  0  0  0
  141.8317   72.9282  222.4525 H   0  0  0  0  0  0  0  0  0  0  0  0
  140.3644   73.6777  222.9750 H   0  0  0  0  0  0  0  0  0  0  0  0
  140.7075   70.6756  222.0259 H   0  0  0  0  0  0  0  0  0  0  0  0
  141.0547   72.8975  224.6282 H   0  0  0  0  0  0  0  0  0  0  0  0
  139.3553   69.1392  223.4832 H   0  0  0  0  0  0  0  0  0  0  0  0
  135.7214   77.7321  222.6669 H   0  0  0  0  0  0  0  0  0  0  0  0
  137.0868   79.7852  223.0544 H   0  0  0  0  0  0  0  0  0  0  0  0
  139.2910   80.8621  223.2908 H   0  0  0  0  0  0  0  0  0  0  0  0
  142.8574   78.4408  222.9395 H   0  0  0  0  0  0  0  0  0  0  0  0
  141.4389   76.4364  222.5571 H   0  0  0  0  0  0  0  0  0  0  0  0
  1  2  2  0
  2  3  1  0
  3  4  1  0
  4  5  1  0
  5  6  2  0
  5  7  1  0
  7  8  1  0
  8  9  1  0
  9 10  1  0
 10 11  1  0
 11 12  1  0
 12 13  2  0
 13 14  1  0
 14 15  2  0
 15 16  1  0
 15 17  1  0
 17 18  1  0
 17 19  2  0
  2 20  1  0
 20 21  2  0
 21 22  1  0
 22 23  2  0
 23 24  1  0
 24 25  2  0
 25 26  1  0
 25 27  1  0
 27 28  2  0
 28 29  1  0
 29 30  2  0
 11  7  1  0
 19 12  1  0
 30 20  1  0
 29 23  1  0
  3 31  1  0
  4 32  1  0
  4 33  1  0
  8 34  1  0
  8 35  1  0
  9 36  1  0
  9 37  1  0
 10 38  1  0
 10 39  1  0
 11 40  1  6
 13 41  1  0
 19 42  1  0
 21 43  1  0
 22 44  1  0
 24 45  1  0
 27 46  1  0
 28 47  1  0
M  END
>  <smiles>  (12) 
O=C(NCC(=O)N1CCC[C@H]1c1cnc(Cl)c(Cl)c1)c1ccc2cc(Cl)ccc2n1

>  <score_type>  (12) 
oracle

>  <origin>  (12) 
autodockgpu

>  <m_score__min__energy>  (12) 
-9.0399999999999991

>  <m_primary>  (12) 
energy

>  <rmsd>  (12) 
7.154734819208731

>  <m_score__min__rmsd>  (12) 
7.154734819208731

>  <meeko>  (12) 
{"free_energy": -7.76, "intermolecular_energy": -9.25, "internal_energy": -1.93, "cluster_size": 10, "cluster_id": 4, "rank_in_cluster": 10}

>  <energy>  (12) 
-8.83

>  <cluster_rmsd>  (12) 
1.3

>  <cluster>  (12) 
2

$$$$

     RDKit          3D

 47 50  0  0  0  0  0  0  0  0999 V2000
  135.0890   74.8780  222.7450 O   0  0  0  0  0  0  0  0  0  0  0  0
  136.3580   74.8600  222.7350 C   0  0  0  0  0  0  0  0  0  0  0  0
  137.0480   73.6160  222.7300 N   0  0  0  0  0  0  0  0  0  0  0  0
  136.3440   72.3770  222.7340 C   0  0  0  0  0  0  0  0  0  0  0  0
  137.2560   71.1970  222.5220 C   0  0  0  0  0  0  0  0  0  0  0  0
  136.7610   70.0790  222.7950 O   0  0  0  0  0  0  0  0  0  0  0  0
  138.5630   71.4240  222.0430 N   0  0  0  0  0  0  0  0  0  0  0  0
  138.8950   71.9610  220.6970 C   0  0  0  0  0  0  0  0  0  0  0  0
  140.0110   72.9530  221.0480 C   0  0  0  0  0  0  0  0  0  0  0  0
  140.3840   72.6730  222.5100 C   0  0  0  0  0  0  0  0  0  0  0  0
  139.8660   71.2460  222.6370 C   0  0  1  0  0  0  0  0  0  0  0  0
  139.9290   70.7410  223.9900 C   0  0  0  0  0  0  0  0  0  0  0  0
  139.4700   69.4630  224.3240 C   0  0  0  0  0  0  0  0  0  0  0  0
  139.5070   69.0000  225.5870 N   0  0  0  0  0  0  0  0  0  0  0  0
  139.9820   69.7110  226.6270 C   0  0  0  0  0  0  0  0  0  0  0  0
  139.9980   69.0380  228.2430 Cl  0  0  0  0  0  0  0  0  0  0  0  0
  140.4480   70.9830  226.3410 C   0  0  0  0  0  0  0  0  0  0  0  0
  141.0680   71.9220  227.6740 Cl  0  0  0  0  0  0  0  0  0  0  0  0
  140.4200   71.4900  225.0360 C   0  0  0  0  0  0  0  0  0  0  0  0
  137.1230   76.1100  222.7310 C   0  0  0  0  0  0  0  0  0  0  0  0
  136.4870   77.3190  222.7470 C   0  0  0  0  0  0  0  0  0  0  0  0
  137.2680   78.4720  222.7410 C   0  0  0  0  0  0  0  0  0  0  0  0
  138.6480   78.4110  222.7210 C   0  0  0  0  0  0  0  0  0  0  0  0
  139.4510   79.5360  222.7150 C   0  0  0  0  0  0  0  0  0  0  0  0
  140.8410   79.4130  222.6940 C   0  0  0  0  0  0  0  0  0  0  0  0
  141.8730   80.8400  222.6860 Cl  0  0  0  0  0  0  0  0  0  0  0  0
  141.4360   78.1510  222.6780 C   0  0  0  0  0  0  0  0  0  0  0  0
  140.6370   77.0280  222.6830 C   0  0  0  0  0  0  0  0  0  0  0  0
  139.2610   77.1590  222.7040 C   0  0  0  0  0  0  0  0  0  0  0  0
  138.4730   76.0870  222.7110 N   0  0  0  0  0  0  0  0  0  0  0  0
  138.1060   73.6630  222.7220 H   0  0  0  0  0  0  0  0  0  0  0  0
  135.8372   72.2619  223.7035 H   0  0  0  0  0  0  0  0  0  0  0  0
  135.6242   72.3979  221.9025 H   0  0  0  0  0  0  0  0  0  0  0  0
  139.2547   71.1694  220.0232 H   0  0  0  0  0  0  0  0  0  0  0  0
  138.0429   72.4060  220.1623 H   0  0  0  0  0  0  0  0  0  0  0  0
  140.8818   72.7950  220.3947 H   0  0  0  0  0  0  0  0  0  0  0  0
  139.6825   73.9936  220.9090 H   0  0  0  0  0  0  0  0  0  0  0  0
  141.4702   72.7307  222.6740 H   0  0  0  0  0  0  0  0  0  0  0  0
  139.9737   73.3852  223.2410 H   0  0  0  0  0  0  0  0  0  0  0  0
  140.4463   70.4519  222.1443 H   0  0  0  0  0  0  0  0  0  0  0  0
  139.0666   68.8168  223.5305 H   0  0  0  0  0  0  0  0  0  0  0  0
  140.7971   72.5051  224.8429 H   0  0  0  0  0  0  0  0  0  0  0  0
  135.3888   77.3800  222.7641 H   0  0  0  0  0  0  0  0  0  0  0  0
  136.7742   79.4549  222.7525 H   0  0  0  0  0  0  0  0  0  0  0  0
  138.9913   80.5352  222.7269 H   0  0  0  0  0  0  0  0  0  0  0  0
  142.5315   78.0534  222.6615 H   0  0  0  0  0  0  0  0  0  0  0  0
  141.0942   76.0276  222.6703 H   0  0  0  0  0  0  0  0  0  0  0  0
  1  2  2  0
  2  3  1  0
  3  4  1  0
  4  5  1  0
  5  6  2  0
  5  7  1  0
  7  8  1  0
  8  9  1  0
  9 10  1  0
 10 11  1  0
 11 12  1  0
 12 13  2  0
 13 14  1  0
 14 15  2  0
 15 16  1  0
 15 17  1  0
 17 18  1  0
 17 19  2  0
  2 20  1  0
 20 21  2  0
 21 22  1  0
 22 23  2  0
 23 24  1  0
 24 25  2  0
 25 26  1  0
 25 27  1  0
 27 28  2  0
 28 29  1  0
 29 30  2  0
 11  7  1  0
 19 12  1  0
 30 20  1  0
 29 23  1  0
  3 31  1  0
  4 32  1  0
  4 33  1  0
  8 34  1  0
  8 35  1  0
  9 36  1  0
  9 37  1  0
 10 38  1  0
 10 39  1  0
 11 40  1  6
 13 41  1  0
 19 42  1  0
 21 43  1  0
 22 44  1  0
 24 45  1  0
 27 46  1  0
 28 47  1  0
M  END
>  <smiles>  (13) 
O=C(NCC(=O)N1CCC[C@H]1c1cnc(Cl)c(Cl)c1)c1ccc2cc(Cl)ccc2n1

>  <score_type>  (13) 
oracle

>  <origin>  (13) 
autodockgpu

>  <m_score__min__energy>  (13) 
-9.0399999999999991

>  <m_primary>  (13) 
energy

>  <rmsd>  (13) 
7.151497853511555

>  <m_score__min__rmsd>  (13) 
7.151497853511555

>  <meeko>  (13) 
{"free_energy": -8.03, "intermolecular_energy": -9.52, "internal_energy": -2.04, "cluster_size": 10, "cluster_id": 4, "rank_in_cluster": 6}

>  <energy>  (13) 
-8.81

>  <cluster_rmsd>  (13) 
0.16

>  <cluster>  (13) 
2

$$$$

     RDKit          3D

 47 50  0  0  0  0  0  0  0  0999 V2000
  138.7730   72.1000  220.8420 O   0  0  0  0  0  0  0  0  0  0  0  0
  139.1120   72.4820  222.0030 C   0  0  0  0  0  0  0  0  0  0  0  0
  139.2490   73.8700  222.2800 N   0  0  0  0  0  0  0  0  0  0  0  0
  139.0110   74.8530  221.2750 C   0  0  0  0  0  0  0  0  0  0  0  0
  139.9330   76.0390  221.4020 C   0  0  0  0  0  0  0  0  0  0  0  0
  139.4770   77.0070  222.0530 O   0  0  0  0  0  0  0  0  0  0  0  0
  141.2070   75.9790  220.8000 N   0  0  0  0  0  0  0  0  0  0  0  0
  141.8670   74.7330  220.3280 C   0  0  0  0  0  0  0  0  0  0  0  0
  142.4440   75.2020  218.9870 C   0  0  0  0  0  0  0  0  0  0  0  0
  142.2920   76.7290  218.9680 C   0  0  0  0  0  0  0  0  0  0  0  0
  142.1780   76.9920  220.4640 C   0  0  1  0  0  0  0  0  0  0  0  0
  141.8550   78.3670  220.7730 C   0  0  0  0  0  0  0  0  0  0  0  0
  141.2620   79.2160  219.8330 C   0  0  0  0  0  0  0  0  0  0  0  0
  140.9820   80.5020  220.1120 N   0  0  0  0  0  0  0  0  0  0  0  0
  141.2420   81.0800  221.2990 C   0  0  0  0  0  0  0  0  0  0  0  0
  140.8470   82.7620  221.5850 Cl  0  0  0  0  0  0  0  0  0  0  0  0
  141.8300   80.2760  222.2600 C   0  0  0  0  0  0  0  0  0  0  0  0
  142.1750   81.0040  223.8070 Cl  0  0  0  0  0  0  0  0  0  0  0  0
  142.1320   78.9340  221.9970 C   0  0  0  0  0  0  0  0  0  0  0  0
  139.3670   71.5060  223.0660 C   0  0  0  0  0  0  0  0  0  0  0  0
  139.0410   70.1900  222.9000 C   0  0  0  0  0  0  0  0  0  0  0  0
  139.3070   69.3100  223.9460 C   0  0  0  0  0  0  0  0  0  0  0  0
  139.8830   69.7410  225.1250 C   0  0  0  0  0  0  0  0  0  0  0  0
  140.1600   68.8940  226.1810 C   0  0  0  0  0  0  0  0  0  0  0  0
  140.7440   69.3860  227.3490 C   0  0  0  0  0  0  0  0  0  0  0  0
  141.1000   68.3150  228.7010 Cl  0  0  0  0  0  0  0  0  0  0  0  0
  141.0560   70.7420  227.4630 C   0  0  0  0  0  0  0  0  0  0  0  0
  140.7810   71.5880  226.4110 C   0  0  0  0  0  0  0  0  0  0  0  0
  140.2020   71.0920  225.2580 C   0  0  0  0  0  0  0  0  0  0  0  0
  139.9290   71.8930  224.2320 N   0  0  0  0  0  0  0  0  0  0  0  0
  139.5340   74.1300  223.2650 H   0  0  0  0  0  0  0  0  0  0  0  0
  139.1617   74.3924  220.2875 H   0  0  0  0  0  0  0  0  0  0  0  0
  137.9796   75.2152  221.3974 H   0  0  0  0  0  0  0  0  0  0  0  0
  142.6597   74.4086  221.0182 H   0  0  0  0  0  0  0  0  0  0  0  0
  141.1978   73.8630  220.2559 H   0  0  0  0  0  0  0  0  0  0  0  0
  143.5053   74.9232  218.9098 H   0  0  0  0  0  0  0  0  0  0  0  0
  141.9202   74.7358  218.1395 H   0  0  0  0  0  0  0  0  0  0  0  0
  143.1723   77.2231  218.5309 H   0  0  0  0  0  0  0  0  0  0  0  0
  141.4556   77.1076  218.3621 H   0  0  0  0  0  0  0  0  0  0  0  0
  143.0967   76.9067  221.0629 H   0  0  0  0  0  0  0  0  0  0  0  0
  141.0173   78.8206  218.8361 H   0  0  0  0  0  0  0  0  0  0  0  0
  142.5990   78.3217  222.7825 H   0  0  0  0  0  0  0  0  0  0  0  0
  138.5811   69.8351  221.9659 H   0  0  0  0  0  0  0  0  0  0  0  0
  139.0523   68.2462  223.8305 H   0  0  0  0  0  0  0  0  0  0  0  0
  139.9184   67.8239  226.1004 H   0  0  0  0  0  0  0  0  0  0  0  0
  141.5166   71.1309  228.3831 H   0  0  0  0  0  0  0  0  0  0  0  0
  141.0223   72.6584  226.4886 H   0  0  0  0  0  0  0  0  0  0  0  0
  1  2  2  0
  2  3  1  0
  3  4  1  0
  4  5  1  0
  5  6  2  0
  5  7  1  0
  7  8  1  0
  8  9  1  0
  9 10  1  0
 10 11  1  0
 11 12  1  0
 12 13  2  0
 13 14  1  0
 14 15  2  0
 15 16  1  0
 15 17  1  0
 17 18  1  0
 17 19  2  0
  2 20  1  0
 20 21  2  0
 21 22  1  0
 22 23  2  0
 23 24  1  0
 24 25  2  0
 25 26  1  0
 25 27  1  0
 27 28  2  0
 28 29  1  0
 29 30  2  0
 11  7  1  0
 19 12  1  0
 30 20  1  0
 29 23  1  0
  3 31  1  0
  4 32  1  0
  4 33  1  0
  8 34  1  0
  8 35  1  0
  9 36  1  0
  9 37  1  0
 10 38  1  0
 10 39  1  0
 11 40  1  1
 13 41  1  0
 19 42  1  0
 21 43  1  0
 22 44  1  0
 24 45  1  0
 27 46  1  0
 28 47  1  0
M  END
>  <smiles>  (14) 
O=C(NCC(=O)N1CCC[C@H]1c1cnc(Cl)c(Cl)c1)c1ccc2cc(Cl)ccc2n1

>  <score_type>  (14) 
oracle

>  <origin>  (14) 
autodockgpu

>  <m_score__min__energy>  (14) 
-9.0399999999999991

>  <m_primary>  (14) 
energy

>  <rmsd>  (14) 
1.810472271523271

>  <m_score__min__rmsd>  (14) 
1.810472271523271

>  <meeko>  (14) 
{"free_energy": -8.73, "intermolecular_energy": -10.22, "internal_energy": -1.6, "cluster_size": 10, "cluster_id": 1, "rank_in_cluster": 4}

>  <energy>  (14) 
-8.78

>  <cluster_rmsd>  (14) 
1.3

>  <cluster>  (14) 
2

$$$$

     RDKit          3D

 47 50  0  0  0  0  0  0  0  0999 V2000
  137.4480   72.1040  220.7540 O   0  0  0  0  0  0  0  0  0  0  0  0
  137.6060   72.7550  221.8320 C   0  0  0  0  0  0  0  0  0  0  0  0
  136.8580   72.4020  222.9890 N   0  0  0  0  0  0  0  0  0  0  0  0
  135.9260   71.3230  222.9680 C   0  0  0  0  0  0  0  0  0  0  0  0
  136.4780   70.0750  223.6080 C   0  0  0  0  0  0  0  0  0  0  0  0
  135.9720   69.7690  224.7130 O   0  0  0  0  0  0  0  0  0  0  0  0
  137.4920   69.3590  222.9400 N   0  0  0  0  0  0  0  0  0  0  0  0
  137.3040   68.5950  221.6780 C   0  0  0  0  0  0  0  0  0  0  0  0
  138.5710   68.9900  220.9090 C   0  0  0  0  0  0  0  0  0  0  0  0
  139.4740   69.7110  221.9190 C   0  0  0  0  0  0  0  0  0  0  0  0
  138.8940   69.1620  223.2160 C   0  0  1  0  0  0  0  0  0  0  0  0
  139.4460   69.7940  224.3940 C   0  0  0  0  0  0  0  0  0  0  0  0
  139.8780   71.1240  224.3850 C   0  0  0  0  0  0  0  0  0  0  0  0
  140.4130   71.7070  225.4730 N   0  0  0  0  0  0  0  0  0  0  0  0
  140.5790   71.0750  226.6500 C   0  0  0  0  0  0  0  0  0  0  0  0
  141.2830   71.9030  228.0220 Cl  0  0  0  0  0  0  0  0  0  0  0  0
  140.1640   69.7560  226.7040 C   0  0  0  0  0  0  0  0  0  0  0  0
  140.3690   68.9180  228.2200 Cl  0  0  0  0  0  0  0  0  0  0  0  0
  139.6050   69.1240  225.5860 C   0  0  0  0  0  0  0  0  0  0  0  0
  138.5540   73.8710  221.8980 C   0  0  0  0  0  0  0  0  0  0  0  0
  139.8720   73.6890  221.5910 C   0  0  0  0  0  0  0  0  0  0  0  0
  140.7240   74.7880  221.6730 C   0  0  0  0  0  0  0  0  0  0  0  0
  140.2620   76.0330  222.0510 C   0  0  0  0  0  0  0  0  0  0  0  0
  141.0810   77.1430  222.1420 C   0  0  0  0  0  0  0  0  0  0  0  0
  140.5590   78.3780  222.5300 C   0  0  0  0  0  0  0  0  0  0  0  0
  141.5940   79.7980  222.6490 Cl  0  0  0  0  0  0  0  0  0  0  0  0
  139.2020   78.5060  222.8320 C   0  0  0  0  0  0  0  0  0  0  0  0
  138.3840   77.4000  222.7420 C   0  0  0  0  0  0  0  0  0  0  0  0
  138.9100   76.1810  222.3570 C   0  0  0  0  0  0  0  0  0  0  0  0
  138.1360   75.1030  222.2640 N   0  0  0  0  0  0  0  0  0  0  0  0
  137.0310   72.9800  223.8580 H   0  0  0  0  0  0  0  0  0  0  0  0
  135.0200   71.6280  223.5121 H   0  0  0  0  0  0  0  0  0  0  0  0
  135.7050   71.0909  221.9157 H   0  0  0  0  0  0  0  0  0  0  0  0
  137.2646   67.5114  221.8632 H   0  0  0  0  0  0  0  0  0  0  0  0
  136.3645   68.8142  221.1495 H   0  0  0  0  0  0  0  0  0  0  0  0
  139.0751   68.0940  220.5177 H   0  0  0  0  0  0  0  0  0  0  0  0
  138.3350   69.6343  220.0492 H   0  0  0  0  0  0  0  0  0  0  0  0
  140.5314   69.4348  221.7936 H   0  0  0  0  0  0  0  0  0  0  0  0
  139.4821   70.8080  221.8384 H   0  0  0  0  0  0  0  0  0  0  0  0
  139.1282   68.1180  223.4713 H   0  0  0  0  0  0  0  0  0  0  0  0
  139.7773   71.7112  223.4603 H   0  0  0  0  0  0  0  0  0  0  0  0
  139.2874   68.0736  225.6618 H   0  0  0  0  0  0  0  0  0  0  0  0
  140.2505   72.7018  221.2873 H   0  0  0  0  0  0  0  0  0  0  0  0
  141.7895   74.6610  221.4310 H   0  0  0  0  0  0  0  0  0  0  0  0
  142.1517   77.0523  221.9069 H   0  0  0  0  0  0  0  0  0  0  0  0
  138.7900   79.4788  223.1384 H   0  0  0  0  0  0  0  0  0  0  0  0
  137.3129   77.4875  222.9765 H   0  0  0  0  0  0  0  0  0  0  0  0
  1  2  2  0
  2  3  1  0
  3  4  1  0
  4  5  1  0
  5  6  2  0
  5  7  1  0
  7  8  1  0
  8  9  1  0
  9 10  1  0
 10 11  1  0
 11 12  1  0
 12 13  2  0
 13 14  1  0
 14 15  2  0
 15 16  1  0
 15 17  1  0
 17 18  1  0
 17 19  2  0
  2 20  1  0
 20 21  2  0
 21 22  1  0
 22 23  2  0
 23 24  1  0
 24 25  2  0
 25 26  1  0
 25 27  1  0
 27 28  2  0
 28 29  1  0
 29 30  2  0
 11  7  1  0
 19 12  1  0
 30 20  1  0
 29 23  1  0
  3 31  1  0
  4 32  1  0
  4 33  1  0
  8 34  1  0
  8 35  1  0
  9 36  1  0
  9 37  1  0
 10 38  1  0
 10 39  1  0
 11 40  1  1
 13 41  1  0
 19 42  1  0
 21 43  1  0
 22 44  1  0
 24 45  1  0
 27 46  1  0
 28 47  1  0
M  END
>  <smiles>  (15) 
O=C(NCC(=O)N1CCC[C@H]1c1cnc(Cl)c(Cl)c1)c1ccc2cc(Cl)ccc2n1

>  <score_type>  (15) 
oracle

>  <origin>  (15) 
autodockgpu

>  <m_score__min__energy>  (15) 
-9.0399999999999991

>  <m_primary>  (15) 
energy

>  <rmsd>  (15) 
7.248716545749056

>  <m_score__min__rmsd>  (15) 
7.248716545749056

>  <meeko>  (15) 
{"free_energy": -7.97, "intermolecular_energy": -9.46, "internal_energy": -2.08, "cluster_size": 2, "cluster_id": 5, "rank_in_cluster": 1}

>  <energy>  (15) 
-8.73

>  <cluster_rmsd>  (15) 
0.23

>  <cluster>  (15) 
2

$$$$

     RDKit          3D

 47 50  0  0  0  0  0  0  0  0999 V2000
  140.0370   77.6170  218.9990 O   0  0  0  0  0  0  0  0  0  0  0  0
  141.2680   77.3470  219.1450 C   0  0  0  0  0  0  0  0  0  0  0  0
  142.1960   78.3930  219.4040 N   0  0  0  0  0  0  0  0  0  0  0  0
  141.7740   79.7510  219.5040 C   0  0  0  0  0  0  0  0  0  0  0  0
  141.1330   80.0560  220.8340 C   0  0  0  0  0  0  0  0  0  0  0  0
  140.0060   80.5990  220.7750 O   0  0  0  0  0  0  0  0  0  0  0  0
  141.8240   79.7200  222.0160 N   0  0  0  0  0  0  0  0  0  0  0  0
  142.9070   80.5340  222.6300 C   0  0  0  0  0  0  0  0  0  0  0  0
  142.5240   80.4540  224.1130 C   0  0  0  0  0  0  0  0  0  0  0  0
  141.4320   79.3790  224.2130 C   0  0  0  0  0  0  0  0  0  0  0  0
  141.7160   78.6090  222.9300 C   0  0  1  0  0  0  0  0  0  0  0  0
  140.7210   77.5970  222.6480 C   0  0  0  0  0  0  0  0  0  0  0  0
  141.0750   76.2840  222.3230 C   0  0  0  0  0  0  0  0  0  0  0  0
  140.1520   75.3470  222.0390 N   0  0  0  0  0  0  0  0  0  0  0  0
  138.8270   75.5830  222.0420 C   0  0  0  0  0  0  0  0  0  0  0  0
  137.6870   74.3090  221.6610 Cl  0  0  0  0  0  0  0  0  0  0  0  0
  138.4320   76.8700  222.3580 C   0  0  0  0  0  0  0  0  0  0  0  0
  136.7190   77.1980  222.3680 Cl  0  0  0  0  0  0  0  0  0  0  0  0
  139.3710   77.8650  222.6580 C   0  0  0  0  0  0  0  0  0  0  0  0
  141.7460   75.9650  219.0490 C   0  0  0  0  0  0  0  0  0  0  0  0
  140.9640   74.9910  218.4950 C   0  0  0  0  0  0  0  0  0  0  0  0
  141.4740   73.6960  218.4320 C   0  0  0  0  0  0  0  0  0  0  0  0
  142.7320   73.3900  218.9120 C   0  0  0  0  0  0  0  0  0  0  0  0
  143.2660   72.1160  218.8640 C   0  0  0  0  0  0  0  0  0  0  0  0
  144.5440   71.8650  219.3660 C   0  0  0  0  0  0  0  0  0  0  0  0
  145.2330   70.2450  219.3100 Cl  0  0  0  0  0  0  0  0  0  0  0  0
  145.2980   72.9000  219.9220 C   0  0  0  0  0  0  0  0  0  0  0  0
  144.7670   74.1710  219.9700 C   0  0  0  0  0  0  0  0  0  0  0  0
  143.5000   74.4100  219.4710 C   0  0  0  0  0  0  0  0  0  0  0  0
  142.9710   75.6300  219.5090 N   0  0  0  0  0  0  0  0  0  0  0  0
  143.2100   78.1080  219.5160 H   0  0  0  0  0  0  0  0  0  0  0  0
  142.6501   80.4037  219.3759 H   0  0  0  0  0  0  0  0  0  0  0  0
  141.0224   79.9277  218.7205 H   0  0  0  0  0  0  0  0  0  0  0  0
  143.8982   80.0947  222.4440 H   0  0  0  0  0  0  0  0  0  0  0  0
  142.9857   81.5578  222.2354 H   0  0  0  0  0  0  0  0  0  0  0  0
  143.3972   80.1687  224.7180 H   0  0  0  0  0  0  0  0  0  0  0  0
  142.1684   81.4245  224.4893 H   0  0  0  0  0  0  0  0  0  0  0  0
  141.5576   78.7488  225.1057 H   0  0  0  0  0  0  0  0  0  0  0  0
  140.4058   79.7629  224.3103 H   0  0  0  0  0  0  0  0  0  0  0  0
  142.6082   77.9657  222.9144 H   0  0  0  0  0  0  0  0  0  0  0  0
  142.1397   76.0088  222.2988 H   0  0  0  0  0  0  0  0  0  0  0  0
  139.0233   78.8787  222.9060 H   0  0  0  0  0  0  0  0  0  0  0  0
  139.9601   75.2228  218.1096 H   0  0  0  0  0  0  0  0  0  0  0  0
  140.8597   72.8981  217.9892 H   0  0  0  0  0  0  0  0  0  0  0  0
  142.6797   71.2942  218.4271 H   0  0  0  0  0  0  0  0  0  0  0  0
  146.3054   72.7032  220.3176 H   0  0  0  0  0  0  0  0  0  0  0  0
  145.3512   74.9951  220.4053 H   0  0  0  0  0  0  0  0  0  0  0  0
  1  2  2  0
  2  3  1  0
  3  4  1  0
  4  5  1  0
  5  6  2  0
  5  7  1  0
  7  8  1  0
  8  9  1  0
  9 10  1  0
 10 11  1  0
 11 12  1  0
 12 13  2  0
 13 14  1  0
 14 15  2  0
 15 16  1  0
 15 17  1  0
 17 18  1  0
 17 19  2  0
  2 20  1  0
 20 21  2  0
 21 22  1  0
 22 23  2  0
 23 24  1  0
 24 25  2  0
 25 26  1  0
 25 27  1  0
 27 28  2  0
 28 29  1  0
 29 30  2  0
 11  7  1  0
 19 12  1  0
 30 20  1  0
 29 23  1  0
  3 31  1  0
  4 32  1  0
  4 33  1  0
  8 34  1  0
  8 35  1  0
  9 36  1  0
  9 37  1  0
 10 38  1  0
 10 39  1  0
 11 40  1  1
 13 41  1  0
 19 42  1  0
 21 43  1  0
 22 44  1  0
 24 45  1  0
 27 46  1  0
 28 47  1  0
M  END
>  <smiles>  (16) 
O=C(NCC(=O)N1CCC[C@H]1c1cnc(Cl)c(Cl)c1)c1ccc2cc(Cl)ccc2n1

>  <score_type>  (16) 
oracle

>  <origin>  (16) 
autodockgpu

>  <m_score__min__energy>  (16) 
-9.0399999999999991

>  <m_primary>  (16) 
energy

>  <rmsd>  (16) 
7.638208410931876

>  <m_score__min__rmsd>  (16) 
7.638208410931876

>  <meeko>  (16) 
{"free_energy": -6.71, "intermolecular_energy": -8.2, "internal_energy": -2.78, "cluster_size": 4, "cluster_id": 7, "rank_in_cluster": 4}

>  <energy>  (16) 
-8.61

>  <cluster_rmsd>  (16) 
0.0

>  <cluster>  (16) 
3

$$$$

     RDKit          3D

 47 50  0  0  0  0  0  0  0  0999 V2000
  137.6720   71.2800  220.9140 O   0  0  0  0  0  0  0  0  0  0  0  0
  138.0920   71.7970  221.9940 C   0  0  0  0  0  0  0  0  0  0  0  0
  138.1120   73.2120  222.1410 N   0  0  0  0  0  0  0  0  0  0  0  0
  137.6680   74.0720  221.0950 C   0  0  0  0  0  0  0  0  0  0  0  0
  138.8130   74.6670  220.3160 C   0  0  0  0  0  0  0  0  0  0  0  0
  138.4870   75.3280  219.3030 O   0  0  0  0  0  0  0  0  0  0  0  0
  140.1310   74.4460  220.7660 N   0  0  0  0  0  0  0  0  0  0  0  0
  140.9560   73.2550  220.4320 C   0  0  0  0  0  0  0  0  0  0  0  0
  142.3120   73.9130  220.1500 C   0  0  0  0  0  0  0  0  0  0  0  0
  142.1860   75.3680  220.6220 C   0  0  0  0  0  0  0  0  0  0  0  0
  141.0230   75.2200  221.5940 C   0  0  1  0  0  0  0  0  0  0  0  0
  140.5470   76.4880  222.1010 C   0  0  0  0  0  0  0  0  0  0  0  0
  139.2290   76.6630  222.5340 C   0  0  0  0  0  0  0  0  0  0  0  0
  138.7780   77.8480  222.9840 N   0  0  0  0  0  0  0  0  0  0  0  0
  139.5400   78.9550  223.0580 C   0  0  0  0  0  0  0  0  0  0  0  0
  138.8800   80.4620  223.6570 Cl  0  0  0  0  0  0  0  0  0  0  0  0
  140.8530   78.8270  222.6390 C   0  0  0  0  0  0  0  0  0  0  0  0
  141.8590   80.2490  222.7260 Cl  0  0  0  0  0  0  0  0  0  0  0  0
  141.3480   77.6060  222.1650 C   0  0  0  0  0  0  0  0  0  0  0  0
  138.5580   70.9500  223.0960 C   0  0  0  0  0  0  0  0  0  0  0  0
  138.3400   69.6020  223.0820 C   0  0  0  0  0  0  0  0  0  0  0  0
  138.8070   68.8500  224.1570 C   0  0  0  0  0  0  0  0  0  0  0  0
  139.4740   69.4370  225.2150 C   0  0  0  0  0  0  0  0  0  0  0  0
  139.9490   68.7190  226.2960 C   0  0  0  0  0  0  0  0  0  0  0  0
  140.6160   69.3660  227.3370 C   0  0  0  0  0  0  0  0  0  0  0  0
  141.2250   68.4600  228.7190 Cl  0  0  0  0  0  0  0  0  0  0  0  0
  140.8110   70.7480  227.2980 C   0  0  0  0  0  0  0  0  0  0  0  0
  140.3370   71.4650  226.2200 C   0  0  0  0  0  0  0  0  0  0  0  0
  139.6770   70.8150  225.1930 C   0  0  0  0  0  0  0  0  0  0  0  0
  139.2130   71.4910  224.1460 N   0  0  0  0  0  0  0  0  0  0  0  0
  138.4730   73.5860  223.0630 H   0  0  0  0  0  0  0  0  0  0  0  0
  137.0351   73.4931  220.4063 H   0  0  0  0  0  0  0  0  0  0  0  0
  137.1094   74.9001  221.5557 H   0  0  0  0  0  0  0  0  0  0  0  0
  141.0147   72.5535  221.2773 H   0  0  0  0  0  0  0  0  0  0  0  0
  140.5637   72.6479  219.6028 H   0  0  0  0  0  0  0  0  0  0  0  0
  143.1090   73.3987  220.7070 H   0  0  0  0  0  0  0  0  0  0  0  0
  142.5708   73.8581  219.0823 H   0  0  0  0  0  0  0  0  0  0  0  0
  143.0997   75.7160  221.1260 H   0  0  0  0  0  0  0  0  0  0  0  0
  142.0348   76.1073  219.8217 H   0  0  0  0  0  0  0  0  0  0  0  0
  141.2287   74.7310  222.5576 H   0  0  0  0  0  0  0  0  0  0  0  0
  138.5401   75.8059  222.5059 H   0  0  0  0  0  0  0  0  0  0  0  0
  142.3960   77.5388  221.8377 H   0  0  0  0  0  0  0  0  0  0  0  0
  137.8103   69.1236  222.2450 H   0  0  0  0  0  0  0  0  0  0  0  0
  138.6409   67.7626  224.1640 H   0  0  0  0  0  0  0  0  0  0  0  0
  139.8003   67.6298  226.3361 H   0  0  0  0  0  0  0  0  0  0  0  0
  141.3368   71.2589  228.1180 H   0  0  0  0  0  0  0  0  0  0  0  0
  140.4838   72.5543  226.1767 H   0  0  0  0  0  0  0  0  0  0  0  0
  1  2  2  0
  2  3  1  0
  3  4  1  0
  4  5  1  0
  5  6  2  0
  5  7  1  0
  7  8  1  0
  8  9  1  0
  9 10  1  0
 10 11  1  0
 11 12  1  0
 12 13  2  0
 13 14  1  0
 14 15  2  0
 15 16  1  0
 15 17  1  0
 17 18  1  0
 17 19  2  0
  2 20  1  0
 20 21  2  0
 21 22  1  0
 22 23  2  0
 23 24  1  0
 24 25  2  0
 25 26  1  0
 25 27  1  0
 27 28  2  0
 28 29  1  0
 29 30  2  0
 11  7  1  0
 19 12  1  0
 30 20  1  0
 29 23  1  0
  3 31  1  0
  4 32  1  0
  4 33  1  0
  8 34  1  0
  8 35  1  0
  9 36  1  0
  9 37  1  0
 10 38  1  0
 10 39  1  0
 11 40  1  1
 13 41  1  0
 19 42  1  0
 21 43  1  0
 22 44  1  0
 24 45  1  0
 27 46  1  0
 28 47  1  0
M  END
>  <smiles>  (17) 
O=C(NCC(=O)N1CCC[C@H]1c1cnc(Cl)c(Cl)c1)c1ccc2cc(Cl)ccc2n1

>  <score_type>  (17) 
oracle

>  <origin>  (17) 
autodockgpu

>  <m_score__min__energy>  (17) 
-9.0399999999999991

>  <m_primary>  (17) 
energy

>  <rmsd>  (17) 
2.1166546011060365

>  <m_score__min__rmsd>  (17) 
2.1166546011060365

>  <meeko>  (17) 
{"free_energy": -8.1, "intermolecular_energy": -9.59, "internal_energy": -1.73, "cluster_size": 10, "cluster_id": 1, "rank_in_cluster": 6}

>  <energy>  (17) 
-8.48

>  <cluster_rmsd>  (17) 
0.29

>  <cluster>  (17) 
3

$$$$

     RDKit          3D

 47 50  0  0  0  0  0  0  0  0999 V2000
  135.2070   74.7230  222.5870 O   0  0  0  0  0  0  0  0  0  0  0  0
  136.4740   74.7420  222.6540 C   0  0  0  0  0  0  0  0  0  0  0  0
  137.1990   73.5190  222.6980 N   0  0  0  0  0  0  0  0  0  0  0  0
  136.5310   72.2600  222.6680 C   0  0  0  0  0  0  0  0  0  0  0  0
  137.3960   71.1650  222.0990 C   0  0  0  0  0  0  0  0  0  0  0  0
  136.8500   70.0410  222.0080 O   0  0  0  0  0  0  0  0  0  0  0  0
  138.7190   71.4700  221.7190 N   0  0  0  0  0  0  0  0  0  0  0  0
  139.1160   72.0540  220.4100 C   0  0  0  0  0  0  0  0  0  0  0  0
  140.1490   73.0940  220.8580 C   0  0  0  0  0  0  0  0  0  0  0  0
  140.4340   72.8020  222.3370 C   0  0  0  0  0  0  0  0  0  0  0  0
  139.9850   71.3480  222.4000 C   0  0  1  0  0  0  0  0  0  0  0  0
  139.9800   70.8160  223.7450 C   0  0  0  0  0  0  0  0  0  0  0  0
  139.4440   69.5590  224.0420 C   0  0  0  0  0  0  0  0  0  0  0  0
  139.4180   69.0740  225.2960 N   0  0  0  0  0  0  0  0  0  0  0  0
  139.8990   69.7400  226.3620 C   0  0  0  0  0  0  0  0  0  0  0  0
  139.8290   69.0390  227.9650 Cl  0  0  0  0  0  0  0  0  0  0  0  0
  140.4400   70.9890  226.1150 C   0  0  0  0  0  0  0  0  0  0  0  0
  141.0690   71.8700  227.4820 Cl  0  0  0  0  0  0  0  0  0  0  0  0
  140.4790   71.5200  224.8190 C   0  0  0  0  0  0  0  0  0  0  0  0
  137.2010   76.0140  222.6880 C   0  0  0  0  0  0  0  0  0  0  0  0
  136.5300   77.2030  222.7190 C   0  0  0  0  0  0  0  0  0  0  0  0
  137.2760   78.3790  222.7500 C   0  0  0  0  0  0  0  0  0  0  0  0
  138.6570   78.3580  222.7500 C   0  0  0  0  0  0  0  0  0  0  0  0
  139.4260   79.5060  222.7810 C   0  0  0  0  0  0  0  0  0  0  0  0
  140.8190   79.4250  222.7790 C   0  0  0  0  0  0  0  0  0  0  0  0
  141.8080   80.8820  222.8180 Cl  0  0  0  0  0  0  0  0  0  0  0  0
  141.4520   78.1810  222.7470 C   0  0  0  0  0  0  0  0  0  0  0  0
  140.6860   77.0350  222.7160 C   0  0  0  0  0  0  0  0  0  0  0  0
  139.3070   77.1260  222.7180 C   0  0  0  0  0  0  0  0  0  0  0  0
  138.5520   76.0310  222.6890 N   0  0  0  0  0  0  0  0  0  0  0  0
  138.2530   73.5970  222.7540 H   0  0  0  0  0  0  0  0  0  0  0  0
  136.2451   71.9871  223.6945 H   0  0  0  0  0  0  0  0  0  0  0  0
  135.6493   72.3631  222.0184 H   0  0  0  0  0  0  0  0  0  0  0  0
  139.5642   71.2976  219.7490 H   0  0  0  0  0  0  0  0  0  0  0  0
  138.2810   72.4659  219.8242 H   0  0  0  0  0  0  0  0  0  0  0  0
  141.0705   72.9965  220.2653 H   0  0  0  0  0  0  0  0  0  0  0  0
  139.7749   74.1186  220.7158 H   0  0  0  0  0  0  0  0  0  0  0  0
  141.5016   72.9122  222.5783 H   0  0  0  0  0  0  0  0  0  0  0  0
  139.9370   73.4758  223.0505 H   0  0  0  0  0  0  0  0  0  0  0  0
  140.6404   70.5973  221.9343 H   0  0  0  0  0  0  0  0  0  0  0  0
  139.0312   68.9486  223.2253 H   0  0  0  0  0  0  0  0  0  0  0  0
  140.9157   72.5164  224.6562 H   0  0  0  0  0  0  0  0  0  0  0  0
  135.4304   77.2313  222.7195 H   0  0  0  0  0  0  0  0  0  0  0  0
  136.7532   79.3465  222.7751 H   0  0  0  0  0  0  0  0  0  0  0  0
  138.9363   80.4906  222.8075 H   0  0  0  0  0  0  0  0  0  0  0  0
  142.5501   78.1159  222.7465 H   0  0  0  0  0  0  0  0  0  0  0  0
  141.1723   76.0487  222.6897 H   0  0  0  0  0  0  0  0  0  0  0  0
  1  2  2  0
  2  3  1  0
  3  4  1  0
  4  5  1  0
  5  6  2  0
  5  7  1  0
  7  8  1  0
  8  9  1  0
  9 10  1  0
 10 11  1  0
 11 12  1  0
 12 13  2  0
 13 14  1  0
 14 15  2  0
 15 16  1  0
 15 17  1  0
 17 18  1  0
 17 19  2  0
  2 20  1  0
 20 21  2  0
 21 22  1  0
 22 23  2  0
 23 24  1  0
 24 25  2  0
 25 26  1  0
 25 27  1  0
 27 28  2  0
 28 29  1  0
 29 30  2  0
 11  7  1  0
 19 12  1  0
 30 20  1  0
 29 23  1  0
  3 31  1  0
  4 32  1  0
  4 33  1  0
  8 34  1  0
  8 35  1  0
  9 36  1  0
  9 37  1  0
 10 38  1  0
 10 39  1  0
 11 40  1  6
 13 41  1  0
 19 42  1  0
 21 43  1  0
 22 44  1  0
 24 45  1  0
 27 46  1  0
 28 47  1  0
M  END
>  <smiles>  (18) 
O=C(NCC(=O)N1CCC[C@H]1c1cnc(Cl)c(Cl)c1)c1ccc2cc(Cl)ccc2n1

>  <score_type>  (18) 
oracle

>  <origin>  (18) 
autodockgpu

>  <m_score__min__energy>  (18) 
-9.0399999999999991

>  <m_primary>  (18) 
energy

>  <rmsd>  (18) 
7.048682492925973

>  <m_score__min__rmsd>  (18) 
7.048682492925973

>  <meeko>  (18) 
{"free_energy": -7.83, "intermolecular_energy": -9.32, "internal_energy": -2.08, "cluster_size": 10, "cluster_id": 4, "rank_in_cluster": 9}

>  <energy>  (18) 
-8.47

>  <cluster_rmsd>  (18) 
0.24

>  <cluster>  (18) 
3

$$$$

     RDKit          3D

 47 50  0  0  0  0  0  0  0  0999 V2000
  136.7560   73.7430  220.5360 O   0  0  0  0  0  0  0  0  0  0  0  0
  137.0290   74.0360  221.7400 C   0  0  0  0  0  0  0  0  0  0  0  0
  136.8180   73.0760  222.7680 N   0  0  0  0  0  0  0  0  0  0  0  0
  136.3040   71.7790  222.4770 C   0  0  0  0  0  0  0  0  0  0  0  0
  137.3820   70.7270  222.4450 C   0  0  0  0  0  0  0  0  0  0  0  0
  137.0230   69.5780  222.7920 O   0  0  0  0  0  0  0  0  0  0  0  0
  138.6810   71.0950  222.0400 N   0  0  0  0  0  0  0  0  0  0  0  0
  139.0310   71.6490  220.7040 C   0  0  0  0  0  0  0  0  0  0  0  0
  140.0040   72.7660  221.1000 C   0  0  0  0  0  0  0  0  0  0  0  0
  140.3180   72.5510  222.5870 C   0  0  0  0  0  0  0  0  0  0  0  0
  139.9580   71.0760  222.7120 C   0  0  1  0  0  0  0  0  0  0  0  0
  139.9960   70.6000  224.0770 C   0  0  0  0  0  0  0  0  0  0  0  0
  139.5540   69.3200  224.4250 C   0  0  0  0  0  0  0  0  0  0  0  0
  139.5680   68.8830  225.6980 N   0  0  0  0  0  0  0  0  0  0  0  0
  140.0020   69.6250  226.7340 C   0  0  0  0  0  0  0  0  0  0  0  0
  139.9890   68.9850  228.3640 Cl  0  0  0  0  0  0  0  0  0  0  0  0
  140.4490   70.9000  226.4350 C   0  0  0  0  0  0  0  0  0  0  0  0
  141.0150   71.8780  227.7630 Cl  0  0  0  0  0  0  0  0  0  0  0  0
  140.4450   71.3800  225.1190 C   0  0  0  0  0  0  0  0  0  0  0  0
  137.5590   75.3590  222.0850 C   0  0  0  0  0  0  0  0  0  0  0  0
  136.7190   76.3870  222.4070 C   0  0  0  0  0  0  0  0  0  0  0  0
  137.2830   77.6200  222.7250 C   0  0  0  0  0  0  0  0  0  0  0  0
  138.6500   77.8130  222.7190 C   0  0  0  0  0  0  0  0  0  0  0  0
  139.2400   79.0240  223.0300 C   0  0  0  0  0  0  0  0  0  0  0  0
  140.6280   79.1610  223.0080 C   0  0  0  0  0  0  0  0  0  0  0  0
  141.3900   80.7000  223.4020 Cl  0  0  0  0  0  0  0  0  0  0  0  0
  141.4380   78.0750  222.6710 C   0  0  0  0  0  0  0  0  0  0  0  0
  140.8510   76.8670  222.3600 C   0  0  0  0  0  0  0  0  0  0  0  0
  139.4750   76.7410  222.3850 C   0  0  0  0  0  0  0  0  0  0  0  0
  138.8910   75.5820  222.0890 N   0  0  0  0  0  0  0  0  0  0  0  0
  137.0630   73.3770  223.7530 H   0  0  0  0  0  0  0  0  0  0  0  0
  135.5696   71.5086  223.2500 H   0  0  0  0  0  0  0  0  0  0  0  0
  135.8435   71.8173  221.4788 H   0  0  0  0  0  0  0  0  0  0  0  0
  139.5180   70.8949  220.0683 H   0  0  0  0  0  0  0  0  0  0  0  0
  138.1680   71.9866  220.1114 H   0  0  0  0  0  0  0  0  0  0  0  0
  140.9249   72.6996  220.5021 H   0  0  0  0  0  0  0  0  0  0  0  0
  139.5682   73.7601  220.9214 H   0  0  0  0  0  0  0  0  0  0  0  0
  141.3788   72.7346  222.8127 H   0  0  0  0  0  0  0  0  0  0  0  0
  139.7869   73.2218  223.2784 H   0  0  0  0  0  0  0  0  0  0  0  0
  140.6531   70.3474  222.2694 H   0  0  0  0  0  0  0  0  0  0  0  0
  139.1838   68.6501  223.6349 H   0  0  0  0  0  0  0  0  0  0  0  0
  140.8071   72.3983  224.9144 H   0  0  0  0  0  0  0  0  0  0  0  0
  135.6282   76.2450  222.4149 H   0  0  0  0  0  0  0  0  0  0  0  0
  136.6234   78.4603  222.9873 H   0  0  0  0  0  0  0  0  0  0  0  0
  138.6104   79.8857  223.2967 H   0  0  0  0  0  0  0  0  0  0  0  0
  142.5327   78.1820  222.6538 H   0  0  0  0  0  0  0  0  0  0  0  0
  141.4777   76.0036  222.0920 H   0  0  0  0  0  0  0  0  0  0  0  0
  1  2  2  0
  2  3  1  0
  3  4  1  0
  4  5  1  0
  5  6  2  0
  5  7  1  0
  7  8  1  0
  8  9  1  0
  9 10  1  0
 10 11  1  0
 11 12  1  0
 12 13  2  0
 13 14  1  0
 14 15  2  0
 15 16  1  0
 15 17  1  0
 17 18  1  0
 17 19  2  0
  2 20  1  0
 20 21  2  0
 21 22  1  0
 22 23  2  0
 23 24  1  0
 24 25  2  0
 25 26  1  0
 25 27  1  0
 27 28  2  0
 28 29  1  0
 29 30  2  0
 11  7  1  0
 19 12  1  0
 30 20  1  0
 29 23  1  0
  3 31  1  0
  4 32  1  0
  4 33  1  0
  8 34  1  0
  8 35  1  0
  9 36  1  0
  9 37  1  0
 10 38  1  0
 10 39  1  0
 11 40  1  6
 13 41  1  0
 19 42  1  0
 21 43  1  0
 22 44  1  0
 24 45  1  0
 27 46  1  0
 28 47  1  0
M  END
>  <smiles>  (19) 
O=C(NCC(=O)N1CCC[C@H]1c1cnc(Cl)c(Cl)c1)c1ccc2cc(Cl)ccc2n1

>  <score_type>  (19) 
oracle

>  <origin>  (19) 
autodockgpu

>  <m_score__min__energy>  (19) 
-9.0399999999999991

>  <m_primary>  (19) 
energy

>  <rmsd>  (19) 
6.8891909443918795

>  <m_score__min__rmsd>  (19) 
6.8891909443918795

>  <meeko>  (19) 
{"free_energy": -8.22, "intermolecular_energy": -9.71, "internal_energy": -1.85, "cluster_size": 10, "cluster_id": 4, "rank_in_cluster": 3}

>  <energy>  (19) 
-8.45

>  <cluster_rmsd>  (19) 
1.04

>  <cluster>  (19) 
3

$$$$

     RDKit          3D

 47 50  0  0  0  0  0  0  0  0999 V2000
  138.8620   71.7000  220.7710 O   0  0  0  0  0  0  0  0  0  0  0  0
  139.0940   72.1180  221.9460 C   0  0  0  0  0  0  0  0  0  0  0  0
  139.1160   73.5150  222.2090 N   0  0  0  0  0  0  0  0  0  0  0  0
  138.8800   74.4690  221.1760 C   0  0  0  0  0  0  0  0  0  0  0  0
  139.5300   75.7980  221.4620 C   0  0  0  0  0  0  0  0  0  0  0  0
  139.6970   76.0650  222.6750 O   0  0  0  0  0  0  0  0  0  0  0  0
  139.8960   76.6240  220.3800 N   0  0  0  0  0  0  0  0  0  0  0  0
  139.0460   77.7010  219.8060 C   0  0  0  0  0  0  0  0  0  0  0  0
  140.0840   78.8120  219.6040 C   0  0  0  0  0  0  0  0  0  0  0  0
  141.4550   78.1580  219.8220 C   0  0  0  0  0  0  0  0  0  0  0  0
  141.0860   76.7030  219.5680 C   0  0  1  0  0  0  0  0  0  0  0  0
  142.1660   75.7870  219.8610 C   0  0  0  0  0  0  0  0  0  0  0  0
  143.5040   76.1930  219.8470 C   0  0  0  0  0  0  0  0  0  0  0  0
  144.5110   75.3370  220.0970 N   0  0  0  0  0  0  0  0  0  0  0  0
  144.3280   74.0340  220.3810 C   0  0  0  0  0  0  0  0  0  0  0  0
  145.6920   72.9830  220.6960 Cl  0  0  0  0  0  0  0  0  0  0  0  0
  143.0180   73.5890  220.4060 C   0  0  0  0  0  0  0  0  0  0  0  0
  142.7570   71.9030  220.7720 Cl  0  0  0  0  0  0  0  0  0  0  0  0
  141.9500   74.4580  220.1480 C   0  0  0  0  0  0  0  0  0  0  0  0
  139.3430   71.1730  223.0390 C   0  0  0  0  0  0  0  0  0  0  0  0
  138.9920   69.8580  222.9200 C   0  0  0  0  0  0  0  0  0  0  0  0
  139.2530   69.0090  223.9930 C   0  0  0  0  0  0  0  0  0  0  0  0
  139.8500   69.4690  225.1500 C   0  0  0  0  0  0  0  0  0  0  0  0
  140.1220   68.6530  226.2310 C   0  0  0  0  0  0  0  0  0  0  0  0
  140.7270   69.1730  227.3760 C   0  0  0  0  0  0  0  0  0  0  0  0
  141.0780   68.1410  228.7600 Cl  0  0  0  0  0  0  0  0  0  0  0  0
  141.0640   70.5260  227.4420 C   0  0  0  0  0  0  0  0  0  0  0  0
  140.7930   71.3420  226.3640 C   0  0  0  0  0  0  0  0  0  0  0  0
  140.1930   70.8170  225.2340 C   0  0  0  0  0  0  0  0  0  0  0  0
  139.9240   71.5890  224.1850 N   0  0  0  0  0  0  0  0  0  0  0  0
  139.3160   73.8050  223.2080 H   0  0  0  0  0  0  0  0  0  0  0  0
  139.2834   74.0744  220.2318 H   0  0  0  0  0  0  0  0  0  0  0  0
  137.7942   74.6334  221.1129 H   0  0  0  0  0  0  0  0  0  0  0  0
  138.5922   77.3932  218.8524 H   0  0  0  0  0  0  0  0  0  0  0  0
  138.1895   77.9876  220.4339 H   0  0  0  0  0  0  0  0  0  0  0  0
  140.0133   79.2199  218.5849 H   0  0  0  0  0  0  0  0  0  0  0  0
  139.9210   79.6462  220.3023 H   0  0  0  0  0  0  0  0  0  0  0  0
  142.2023   78.5230  219.1021 H   0  0  0  0  0  0  0  0  0  0  0  0
  141.9181   78.3586  220.7994 H   0  0  0  0  0  0  0  0  0  0  0  0
  140.9021   76.4038  218.5256 H   0  0  0  0  0  0  0  0  0  0  0  0
  143.7402   77.2441  219.6248 H   0  0  0  0  0  0  0  0  0  0  0  0
  140.9205   74.0716  220.1752 H   0  0  0  0  0  0  0  0  0  0  0  0
  138.5167   69.4804  222.0027 H   0  0  0  0  0  0  0  0  0  0  0  0
  138.9770   67.9469  223.9168 H   0  0  0  0  0  0  0  0  0  0  0  0
  139.8598   67.5855  226.1889 H   0  0  0  0  0  0  0  0  0  0  0  0
  141.5406   70.9368  228.3443 H   0  0  0  0  0  0  0  0  0  0  0  0
  141.0539   72.4099  226.4028 H   0  0  0  0  0  0  0  0  0  0  0  0
  1  2  2  0
  2  3  1  0
  3  4  1  0
  4  5  1  0
  5  6  2  0
  5  7  1  0
  7  8  1  0
  8  9  1  0
  9 10  1  0
 10 11  1  0
 11 12  1  0
 12 13  2  0
 13 14  1  0
 14 15  2  0
 15 16  1  0
 15 17  1  0
 17 18  1  0
 17 19  2  0
  2 20  1  0
 20 21  2  0
 21 22  1  0
 22 23  2  0
 23 24  1  0
 24 25  2  0
 25 26  1  0
 25 27  1  0
 27 28  2  0
 28 29  1  0
 29 30  2  0
 11  7  1  0
 19 12  1  0
 30 20  1  0
 29 23  1  0
  3 31  1  0
  4 32  1  0
  4 33  1  0
  8 34  1  0
  8 35  1  0
  9 36  1  0
  9 37  1  0
 10 38  1  0
 10 39  1  0
 11 40  1  6
 13 41  1  0
 19 42  1  0
 21 43  1  0
 22 44  1  0
 24 45  1  0
 27 46  1  0
 28 47  1  0
M  END
>  <smiles>  (20) 
O=C(NCC(=O)N1CCC[C@H]1c1cnc(Cl)c(Cl)c1)c1ccc2cc(Cl)ccc2n1

>  <score_type>  (20) 
oracle

>  <origin>  (20) 
autodockgpu

>  <m_score__min__energy>  (20) 
-9.0399999999999991

>  <m_primary>  (20) 
energy

>  <rmsd>  (20) 
1.7041851817055378

>  <m_score__min__rmsd>  (20) 
1.7041851817055378

>  <meeko>  (20) 
{"free_energy": -8.21, "intermolecular_energy": -9.7, "internal_energy": -2.22, "cluster_size": 17, "cluster_id": 3, "rank_in_cluster": 12}

>  <energy>  (20) 
-8.35

>  <cluster_rmsd>  (20) 
0.4

>  <cluster>  (20) 
3

$$$$

     RDKit          3D

 47 50  0  0  0  0  0  0  0  0999 V2000
  133.7900   70.2350  226.7420 O   0  0  0  0  0  0  0  0  0  0  0  0
  133.6640   71.2760  226.0290 C   0  0  0  0  0  0  0  0  0  0  0  0
  134.1130   71.2690  224.6790 N   0  0  0  0  0  0  0  0  0  0  0  0
  134.7070   70.1080  224.1020 C   0  0  0  0  0  0  0  0  0  0  0  0
  136.1560   69.9520  224.4870 C   0  0  0  0  0  0  0  0  0  0  0  0
  136.3630   69.6410  225.6820 O   0  0  0  0  0  0  0  0  0  0  0  0
  137.1470   70.1610  223.5060 N   0  0  0  0  0  0  0  0  0  0  0  0
  136.8830   70.5920  222.1070 C   0  0  0  0  0  0  0  0  0  0  0  0
  137.9970   71.6260  221.9080 C   0  0  0  0  0  0  0  0  0  0  0  0
  138.9410   71.4720  223.1090 C   0  0  0  0  0  0  0  0  0  0  0  0
  138.5850   70.0520  223.5310 C   0  0  1  0  0  0  0  0  0  0  0  0
  139.2120   69.6590  224.7730 C   0  0  0  0  0  0  0  0  0  0  0  0
  139.2870   68.3210  225.1730 C   0  0  0  0  0  0  0  0  0  0  0  0
  139.8490   67.9560  226.3390 N   0  0  0  0  0  0  0  0  0  0  0  0
  140.3830   68.8290  227.2140 C   0  0  0  0  0  0  0  0  0  0  0  0
  141.0980   68.2760  228.7120 Cl  0  0  0  0  0  0  0  0  0  0  0  0
  140.3300   70.1660  226.8580 C   0  0  0  0  0  0  0  0  0  0  0  0
  141.0170   71.3150  227.9770 Cl  0  0  0  0  0  0  0  0  0  0  0  0
  139.7500   70.5740  225.6510 C   0  0  0  0  0  0  0  0  0  0  0  0
  133.0600   72.4920  226.5820 C   0  0  0  0  0  0  0  0  0  0  0  0
  131.8720   72.4390  227.2540 C   0  0  0  0  0  0  0  0  0  0  0  0
  131.3480   73.6280  227.7560 C   0  0  0  0  0  0  0  0  0  0  0  0
  132.0000   74.8340  227.5870 C   0  0  0  0  0  0  0  0  0  0  0  0
  131.5060   76.0300  228.0720 C   0  0  0  0  0  0  0  0  0  0  0  0
  132.2090   77.2190  227.8710 C   0  0  0  0  0  0  0  0  0  0  0  0
  131.5890   78.7490  228.4860 Cl  0  0  0  0  0  0  0  0  0  0  0  0
  133.4190   77.2130  227.1760 C   0  0  0  0  0  0  0  0  0  0  0  0
  133.9120   76.0210  226.6910 C   0  0  0  0  0  0  0  0  0  0  0  0
  133.2090   74.8480  226.8950 C   0  0  0  0  0  0  0  0  0  0  0  0
  133.6700   73.6880  226.4340 N   0  0  0  0  0  0  0  0  0  0  0  0
  133.9830   72.1660  224.1330 H   0  0  0  0  0  0  0  0  0  0  0  0
  134.1533   69.2210  224.4436 H   0  0  0  0  0  0  0  0  0  0  0  0
  134.6604   70.2158  223.0083 H   0  0  0  0  0  0  0  0  0  0  0  0
  136.9780   69.7540  221.4008 H   0  0  0  0  0  0  0  0  0  0  0  0
  135.8677   70.9784  221.9341 H   0  0  0  0  0  0  0  0  0  0  0  0
  138.5372   71.4293  220.9702 H   0  0  0  0  0  0  0  0  0  0  0  0
  137.5912   72.6464  221.8443 H   0  0  0  0  0  0  0  0  0  0  0  0
  139.9971   71.5595  222.8142 H   0  0  0  0  0  0  0  0  0  0  0  0
  138.8278   72.2349  223.8933 H   0  0  0  0  0  0  0  0  0  0  0  0
  138.9534   69.2298  222.8999 H   0  0  0  0  0  0  0  0  0  0  0  0
  138.8737   67.5434  224.5138 H   0  0  0  0  0  0  0  0  0  0  0  0
  139.7234   71.6445  225.3992 H   0  0  0  0  0  0  0  0  0  0  0  0
  131.3440   71.4843  227.3948 H   0  0  0  0  0  0  0  0  0  0  0  0
  130.3922   73.6060  228.3000 H   0  0  0  0  0  0  0  0  0  0  0  0
  130.5524   76.0451  228.6201 H   0  0  0  0  0  0  0  0  0  0  0  0
  133.9734   78.1497  227.0170 H   0  0  0  0  0  0  0  0  0  0  0  0
  134.8648   76.0027  226.1416 H   0  0  0  0  0  0  0  0  0  0  0  0
  1  2  2  0
  2  3  1  0
  3  4  1  0
  4  5  1  0
  5  6  2  0
  5  7  1  0
  7  8  1  0
  8  9  1  0
  9 10  1  0
 10 11  1  0
 11 12  1  0
 12 13  2  0
 13 14  1  0
 14 15  2  0
 15 16  1  0
 15 17  1  0
 17 18  1  0
 17 19  2  0
  2 20  1  0
 20 21  2  0
 21 22  1  0
 22 23  2  0
 23 24  1  0
 24 25  2  0
 25 26  1  0
 25 27  1  0
 27 28  2  0
 28 29  1  0
 29 30  2  0
 11  7  1  0
 19 12  1  0
 30 20  1  0
 29 23  1  0
  3 31  1  0
  4 32  1  0
  4 33  1  0
  8 34  1  0
  8 35  1  0
  9 36  1  0
  9 37  1  0
 10 38  1  0
 10 39  1  0
 11 40  1  6
 13 41  1  0
 19 42  1  0
 21 43  1  0
 22 44  1  0
 24 45  1  0
 27 46  1  0
 28 47  1  0
M  END
>  <smiles>  (21) 
O=C(NCC(=O)N1CCC[C@H]1c1cnc(Cl)c(Cl)c1)c1ccc2cc(Cl)ccc2n1

>  <score_type>  (21) 
oracle

>  <origin>  (21) 
autodockgpu

>  <m_score__min__energy>  (21) 
-9.0399999999999991

>  <m_primary>  (21) 
energy

>  <rmsd>  (21) 
8.172820237296497

>  <m_score__min__rmsd>  (21) 
8.172820237296497

>  <meeko>  (21) 
{"free_energy": -8.83, "intermolecular_energy": -10.32, "internal_energy": -1.35, "cluster_size": 5, "cluster_id": 2, "rank_in_cluster": 2}

>  <energy>  (21) 
-8.32

>  <cluster_rmsd>  (21) 
0.57

>  <cluster>  (21) 
3

$$$$

     RDKit          3D

 47 50  0  0  0  0  0  0  0  0999 V2000
  137.4890   71.4620  220.9650 O   0  0  0  0  0  0  0  0  0  0  0  0
  137.6020   72.2430  221.9580 C   0  0  0  0  0  0  0  0  0  0  0  0
  136.7960   72.0400  223.1130 N   0  0  0  0  0  0  0  0  0  0  0  0
  135.8560   70.9710  223.1820 C   0  0  0  0  0  0  0  0  0  0  0  0
  136.4320   69.7410  223.8370 C   0  0  0  0  0  0  0  0  0  0  0  0
  135.9520   69.4550  224.9580 O   0  0  0  0  0  0  0  0  0  0  0  0
  137.4380   69.0200  223.1630 N   0  0  0  0  0  0  0  0  0  0  0  0
  137.2090   68.1250  221.9970 C   0  0  0  0  0  0  0  0  0  0  0  0
  138.3900   68.5120  221.0980 C   0  0  0  0  0  0  0  0  0  0  0  0
  139.3160   69.3780  221.9620 C   0  0  0  0  0  0  0  0  0  0  0  0
  138.8660   68.9300  223.3470 C   0  0  1  0  0  0  0  0  0  0  0  0
  139.4610   69.7060  224.4120 C   0  0  0  0  0  0  0  0  0  0  0  0
  139.9160   71.0130  224.2100 C   0  0  0  0  0  0  0  0  0  0  0  0
  140.4910   71.7280  225.1940 N   0  0  0  0  0  0  0  0  0  0  0  0
  140.6760   71.2600  226.4430 C   0  0  0  0  0  0  0  0  0  0  0  0
  141.4320   72.2540  227.6700 Cl  0  0  0  0  0  0  0  0  0  0  0  0
  140.2400   69.9700  226.6880 C   0  0  0  0  0  0  0  0  0  0  0  0
  140.4710   69.3440  228.2990 Cl  0  0  0  0  0  0  0  0  0  0  0  0
  139.6400   69.2030  225.6820 C   0  0  0  0  0  0  0  0  0  0  0  0
  138.5550   73.3560  221.9300 C   0  0  0  0  0  0  0  0  0  0  0  0
  139.8390   73.1670  221.5030 C   0  0  0  0  0  0  0  0  0  0  0  0
  140.6980   74.2630  221.4990 C   0  0  0  0  0  0  0  0  0  0  0  0
  140.2780   75.5120  221.9120 C   0  0  0  0  0  0  0  0  0  0  0  0
  141.1060   76.6190  221.9200 C   0  0  0  0  0  0  0  0  0  0  0  0
  140.6260   77.8580  222.3480 C   0  0  0  0  0  0  0  0  0  0  0  0
  141.6720   79.2750  222.3620 Cl  0  0  0  0  0  0  0  0  0  0  0  0
  139.3040   77.9930  222.7740 C   0  0  0  0  0  0  0  0  0  0  0  0
  138.4770   76.8890  222.7670 C   0  0  0  0  0  0  0  0  0  0  0  0
  138.9610   75.6660  222.3410 C   0  0  0  0  0  0  0  0  0  0  0  0
  138.1780   74.5910  222.3270 N   0  0  0  0  0  0  0  0  0  0  0  0
  136.9320   72.7230  223.9100 H   0  0  0  0  0  0  0  0  0  0  0  0
  134.9834   71.3047  223.7627 H   0  0  0  0  0  0  0  0  0  0  0  0
  135.5763   70.7031  222.1524 H   0  0  0  0  0  0  0  0  0  0  0  0
  137.2517   67.0647  222.2866 H   0  0  0  0  0  0  0  0  0  0  0  0
  136.2221   68.2378  221.5244 H   0  0  0  0  0  0  0  0  0  0  0  0
  138.9199   67.6112  220.7549 H   0  0  0  0  0  0  0  0  0  0  0  0
  138.0527   69.0541  220.2023 H   0  0  0  0  0  0  0  0  0  0  0  0
  140.3768   69.1492  221.7820 H   0  0  0  0  0  0  0  0  0  0  0  0
  139.2496   70.4603  221.7771 H   0  0  0  0  0  0  0  0  0  0  0  0
  139.1824   67.9313  223.6824 H   0  0  0  0  0  0  0  0  0  0  0  0
  139.8002   71.4703  223.2163 H   0  0  0  0  0  0  0  0  0  0  0  0
  139.3054   68.1802  225.9098 H   0  0  0  0  0  0  0  0  0  0  0  0
  140.1846   72.1767  221.1716 H   0  0  0  0  0  0  0  0  0  0  0  0
  141.7357   74.1307  221.1588 H   0  0  0  0  0  0  0  0  0  0  0  0
  142.1499   76.5229  221.5869 H   0  0  0  0  0  0  0  0  0  0  0  0
  138.9256   78.9691  223.1117 H   0  0  0  0  0  0  0  0  0  0  0  0
  137.4328   76.9817  223.1002 H   0  0  0  0  0  0  0  0  0  0  0  0
  1  2  2  0
  2  3  1  0
  3  4  1  0
  4  5  1  0
  5  6  2  0
  5  7  1  0
  7  8  1  0
  8  9  1  0
  9 10  1  0
 10 11  1  0
 11 12  1  0
 12 13  2  0
 13 14  1  0
 14 15  2  0
 15 16  1  0
 15 17  1  0
 17 18  1  0
 17 19  2  0
  2 20  1  0
 20 21  2  0
 21 22  1  0
 22 23  2  0
 23 24  1  0
 24 25  2  0
 25 26  1  0
 25 27  1  0
 27 28  2  0
 28 29  1  0
 29 30  2  0
 11  7  1  0
 19 12  1  0
 30 20  1  0
 29 23  1  0
  3 31  1  0
  4 32  1  0
  4 33  1  0
  8 34  1  0
  8 35  1  0
  9 36  1  0
  9 37  1  0
 10 38  1  0
 10 39  1  0
 11 40  1  1
 13 41  1  0
 19 42  1  0
 21 43  1  0
 22 44  1  0
 24 45  1  0
 27 46  1  0
 28 47  1  0
M  END
>  <smiles>  (22) 
O=C(NCC(=O)N1CCC[C@H]1c1cnc(Cl)c(Cl)c1)c1ccc2cc(Cl)ccc2n1

>  <score_type>  (22) 
oracle

>  <origin>  (22) 
autodockgpu

>  <m_score__min__energy>  (22) 
-9.0399999999999991

>  <m_primary>  (22) 
energy

>  <rmsd>  (22) 
7.2641915891257645

>  <m_score__min__rmsd>  (22) 
7.2641915891257645

>  <meeko>  (22) 
{"free_energy": -7.77, "intermolecular_energy": -9.26, "internal_energy": -2.25, "cluster_size": 2, "cluster_id": 5, "rank_in_cluster": 2}

>  <energy>  (22) 
-8.31

>  <cluster_rmsd>  (22) 
0.43

>  <cluster>  (22) 
3

$$$$

     RDKit          3D

 47 50  0  0  0  0  0  0  0  0999 V2000
  141.5730   78.7520  217.1880 O   0  0  0  0  0  0  0  0  0  0  0  0
  142.1230   78.2310  218.2060 C   0  0  0  0  0  0  0  0  0  0  0  0
  142.1340   78.9350  219.4420 N   0  0  0  0  0  0  0  0  0  0  0  0
  141.5370   80.2230  219.5670 C   0  0  0  0  0  0  0  0  0  0  0  0
  141.0490   80.4960  220.9670 C   0  0  0  0  0  0  0  0  0  0  0  0
  139.9780   81.1420  221.0460 O   0  0  0  0  0  0  0  0  0  0  0  0
  141.8070   80.0210  222.0570 N   0  0  0  0  0  0  0  0  0  0  0  0
  142.9200   80.7620  222.7070 C   0  0  0  0  0  0  0  0  0  0  0  0
  142.6220   80.4930  224.1870 C   0  0  0  0  0  0  0  0  0  0  0  0
  141.5400   79.4040  224.2120 C   0  0  0  0  0  0  0  0  0  0  0  0
  141.7520   78.8030  222.8290 C   0  0  1  0  0  0  0  0  0  0  0  0
  140.7450   77.8260  222.4780 C   0  0  0  0  0  0  0  0  0  0  0  0
  139.3860   78.0440  222.7230 C   0  0  0  0  0  0  0  0  0  0  0  0
  138.4510   77.1250  222.4180 N   0  0  0  0  0  0  0  0  0  0  0  0
  138.7320   75.9340  221.8600 C   0  0  0  0  0  0  0  0  0  0  0  0
  137.4580   74.7910  221.4920 Cl  0  0  0  0  0  0  0  0  0  0  0  0
  140.0670   75.6750  221.6010 C   0  0  0  0  0  0  0  0  0  0  0  0
  140.4540   74.1360  220.8770 Cl  0  0  0  0  0  0  0  0  0  0  0  0
  141.0610   76.6130  221.9080 C   0  0  0  0  0  0  0  0  0  0  0  0
  142.7500   76.9090  218.1220 C   0  0  0  0  0  0  0  0  0  0  0  0
  142.9280   76.2940  216.9150 C   0  0  0  0  0  0  0  0  0  0  0  0
  143.5290   75.0380  216.9000 C   0  0  0  0  0  0  0  0  0  0  0  0
  143.9390   74.4190  218.0640 C   0  0  0  0  0  0  0  0  0  0  0  0
  144.5380   73.1730  218.0830 C   0  0  0  0  0  0  0  0  0  0  0  0
  144.9310   72.5960  219.2910 C   0  0  0  0  0  0  0  0  0  0  0  0
  145.6960   71.0090  219.3250 Cl  0  0  0  0  0  0  0  0  0  0  0  0
  144.7240   73.2700  220.4950 C   0  0  0  0  0  0  0  0  0  0  0  0
  144.1260   74.5120  220.4780 C   0  0  0  0  0  0  0  0  0  0  0  0
  143.7390   75.0760  219.2770 C   0  0  0  0  0  0  0  0  0  0  0  0
  143.1620   76.2740  219.2410 N   0  0  0  0  0  0  0  0  0  0  0  0
  142.6070   78.4520  220.2560 H   0  0  0  0  0  0  0  0  0  0  0  0
  142.2825   80.9857  219.2976 H   0  0  0  0  0  0  0  0  0  0  0  0
  140.6663   80.2560  218.8956 H   0  0  0  0  0  0  0  0  0  0  0  0
  143.9003   80.3595  222.4122 H   0  0  0  0  0  0  0  0  0  0  0  0
  142.9730   81.8279  222.4405 H   0  0  0  0  0  0  0  0  0  0  0  0
  143.5288   80.1422  224.7014 H   0  0  0  0  0  0  0  0  0  0  0  0
  142.2861   81.4053  224.7017 H   0  0  0  0  0  0  0  0  0  0  0  0
  141.7174   78.6682  225.0102 H   0  0  0  0  0  0  0  0  0  0  0  0
  140.5201   79.7634  224.4138 H   0  0  0  0  0  0  0  0  0  0  0  0
  142.6426   78.1740  222.6832 H   0  0  0  0  0  0  0  0  0  0  0  0
  139.0715   78.9946  223.1785 H   0  0  0  0  0  0  0  0  0  0  0  0
  142.1129   76.3764  221.6899 H   0  0  0  0  0  0  0  0  0  0  0  0
  142.6055   76.7776  215.9811 H   0  0  0  0  0  0  0  0  0  0  0  0
  143.6807   74.5268  215.9379 H   0  0  0  0  0  0  0  0  0  0  0  0
  144.7058   72.6330  217.1395 H   0  0  0  0  0  0  0  0  0  0  0  0
  145.0345   72.8153  221.4473 H   0  0  0  0  0  0  0  0  0  0  0  0
  143.9569   75.0541  221.4201 H   0  0  0  0  0  0  0  0  0  0  0  0
  1  2  2  0
  2  3  1  0
  3  4  1  0
  4  5  1  0
  5  6  2  0
  5  7  1  0
  7  8  1  0
  8  9  1  0
  9 10  1  0
 10 11  1  0
 11 12  1  0
 12 13  2  0
 13 14  1  0
 14 15  2  0
 15 16  1  0
 15 17  1  0
 17 18  1  0
 17 19  2  0
  2 20  1  0
 20 21  2  0
 21 22  1  0
 22 23  2  0
 23 24  1  0
 24 25  2  0
 25 26  1  0
 25 27  1  0
 27 28  2  0
 28 29  1  0
 29 30  2  0
 11  7  1  0
 19 12  1  0
 30 20  1  0
 29 23  1  0
  3 31  1  0
  4 32  1  0
  4 33  1  0
  8 34  1  0
  8 35  1  0
  9 36  1  0
  9 37  1  0
 10 38  1  0
 10 39  1  0
 11 40  1  1
 13 41  1  0
 19 42  1  0
 21 43  1  0
 22 44  1  0
 24 45  1  0
 27 46  1  0
 28 47  1  0
M  END
>  <smiles>  (23) 
O=C(NCC(=O)N1CCC[C@H]1c1cnc(Cl)c(Cl)c1)c1ccc2cc(Cl)ccc2n1

>  <score_type>  (23) 
oracle

>  <origin>  (23) 
autodockgpu

>  <m_score__min__energy>  (23) 
-9.0399999999999991

>  <m_primary>  (23) 
energy

>  <rmsd>  (23) 
8.358397943285393

>  <m_score__min__rmsd>  (23) 
8.358397943285393

>  <meeko>  (23) 
{"free_energy": -7.03, "intermolecular_energy": -8.52, "internal_energy": -2.54, "cluster_size": 4, "cluster_id": 7, "rank_in_cluster": 1}

>  <energy>  (23) 
-8.28

>  <cluster_rmsd>  (23) 
0.69

>  <cluster>  (23) 
3

$$$$

     RDKit          3D

 47 50  0  0  0  0  0  0  0  0999 V2000
  140.6680   72.7610  220.8550 O   0  0  0  0  0  0  0  0  0  0  0  0
  140.0620   72.9690  221.9500 C   0  0  0  0  0  0  0  0  0  0  0  0
  139.3810   74.2000  222.1600 N   0  0  0  0  0  0  0  0  0  0  0  0
  139.3610   75.2150  221.1600 C   0  0  0  0  0  0  0  0  0  0  0  0
  140.6120   76.0560  221.1700 C   0  0  0  0  0  0  0  0  0  0  0  0
  141.1810   76.1590  222.2820 O   0  0  0  0  0  0  0  0  0  0  0  0
  141.0440   76.6490  219.9660 N   0  0  0  0  0  0  0  0  0  0  0  0
  140.5770   77.9620  219.4490 C   0  0  0  0  0  0  0  0  0  0  0  0
  141.8990   78.5690  218.9630 C   0  0  0  0  0  0  0  0  0  0  0  0
  142.9280   77.4320  219.0000 C   0  0  0  0  0  0  0  0  0  0  0  0
  141.9870   76.2350  218.9560 C   0  0  1  0  0  0  0  0  0  0  0  0
  142.6690   74.9730  219.1430 C   0  0  0  0  0  0  0  0  0  0  0  0
  142.2450   73.8030  218.5060 C   0  0  0  0  0  0  0  0  0  0  0  0
  142.8650   72.6240  218.6980 N   0  0  0  0  0  0  0  0  0  0  0  0
  143.9300   72.4650  219.5050 C   0  0  0  0  0  0  0  0  0  0  0  0
  144.6820   70.8960  219.7010 Cl  0  0  0  0  0  0  0  0  0  0  0  0
  144.3830   73.5990  220.1560 C   0  0  0  0  0  0  0  0  0  0  0  0
  145.7630   73.4160  221.2070 Cl  0  0  0  0  0  0  0  0  0  0  0  0
  143.7570   74.8390  219.9760 C   0  0  0  0  0  0  0  0  0  0  0  0
  140.0570   71.9520  223.0060 C   0  0  0  0  0  0  0  0  0  0  0  0
  139.5960   70.6900  222.7600 C   0  0  0  0  0  0  0  0  0  0  0  0
  139.6160   69.7680  223.8040 C   0  0  0  0  0  0  0  0  0  0  0  0
  140.0870   70.1050  225.0570 C   0  0  0  0  0  0  0  0  0  0  0  0
  140.1200   69.2140  226.1130 C   0  0  0  0  0  0  0  0  0  0  0  0
  140.6070   69.6120  227.3590 C   0  0  0  0  0  0  0  0  0  0  0  0
  140.6530   68.4830  228.7110 Cl  0  0  0  0  0  0  0  0  0  0  0  0
  141.0660   70.9150  227.5540 C   0  0  0  0  0  0  0  0  0  0  0  0
  141.0330   71.8050  226.5010 C   0  0  0  0  0  0  0  0  0  0  0  0
  140.5490   71.4030  225.2710 C   0  0  0  0  0  0  0  0  0  0  0  0
  140.5100   72.2480  224.2440 N   0  0  0  0  0  0  0  0  0  0  0  0
  138.8940   74.3170  223.0920 H   0  0  0  0  0  0  0  0  0  0  0  0
  139.2642   74.7375  220.1738 H   0  0  0  0  0  0  0  0  0  0  0  0
  138.5093   75.8781  221.3720 H   0  0  0  0  0  0  0  0  0  0  0  0
  139.8604   77.8399  218.6234 H   0  0  0  0  0  0  0  0  0  0  0  0
  140.0391   78.5757  220.1867 H   0  0  0  0  0  0  0  0  0  0  0  0
  141.7893   78.9514  217.9375 H   0  0  0  0  0  0  0  0  0  0  0  0
  142.2101   79.4134  219.5956 H   0  0  0  0  0  0  0  0  0  0  0  0
  143.5989   77.4580  218.1287 H   0  0  0  0  0  0  0  0  0  0  0  0
  143.6166   77.4532  219.8575 H   0  0  0  0  0  0  0  0  0  0  0  0
  141.4998   76.0107  217.9956 H   0  0  0  0  0  0  0  0  0  0  0  0
  141.3797   73.8473  217.8283 H   0  0  0  0  0  0  0  0  0  0  0  0
  144.1413   75.7210  220.5094 H   0  0  0  0  0  0  0  0  0  0  0  0
  139.2194   70.4096  221.7652 H   0  0  0  0  0  0  0  0  0  0  0  0
  139.2477   68.7470  223.6257 H   0  0  0  0  0  0  0  0  0  0  0  0
  139.7601   68.1844  225.9706 H   0  0  0  0  0  0  0  0  0  0  0  0
  141.4497   71.2287  228.5360 H   0  0  0  0  0  0  0  0  0  0  0  0
  141.3922   72.8353  226.6405 H   0  0  0  0  0  0  0  0  0  0  0  0
  1  2  2  0
  2  3  1  0
  3  4  1  0
  4  5  1  0
  5  6  2  0
  5  7  1  0
  7  8  1  0
  8  9  1  0
  9 10  1  0
 10 11  1  0
 11 12  1  0
 12 13  2  0
 13 14  1  0
 14 15  2  0
 15 16  1  0
 15 17  1  0
 17 18  1  0
 17 19  2  0
  2 20  1  0
 20 21  2  0
 21 22  1  0
 22 23  2  0
 23 24  1  0
 24 25  2  0
 25 26  1  0
 25 27  1  0
 27 28  2  0
 28 29  1  0
 29 30  2  0
 11  7  1  0
 19 12  1  0
 30 20  1  0
 29 23  1  0
  3 31  1  0
  4 32  1  0
  4 33  1  0
  8 34  1  0
  8 35  1  0
  9 36  1  0
  9 37  1  0
 10 38  1  0
 10 39  1  0
 11 40  1  6
 13 41  1  0
 19 42  1  0
 21 43  1  0
 22 44  1  0
 24 45  1  0
 27 46  1  0
 28 47  1  0
M  END
>  <smiles>  (24) 
O=C(NCC(=O)N1CCC[C@H]1c1cnc(Cl)c(Cl)c1)c1ccc2cc(Cl)ccc2n1

>  <score_type>  (24) 
oracle

>  <origin>  (24) 
autodockgpu

>  <m_score__min__energy>  (24) 
-9.0399999999999991

>  <m_primary>  (24) 
energy

>  <rmsd>  (24) 
2.175156832541397

>  <m_score__min__rmsd>  (24) 
2.175156832541397

>  <meeko>  (24) 
{"free_energy": -8.47, "intermolecular_energy": -9.96, "internal_energy": -1.89, "cluster_size": 17, "cluster_id": 3, "rank_in_cluster": 3}

>  <energy>  (24) 
-8.24

>  <cluster_rmsd>  (24) 
0.79

>  <cluster>  (24) 
3

$$$$

     RDKit          3D

 47 50  0  0  0  0  0  0  0  0999 V2000
  135.0900   75.1820  222.3850 O   0  0  0  0  0  0  0  0  0  0  0  0
  136.3420   75.1360  222.5840 C   0  0  0  0  0  0  0  0  0  0  0  0
  136.9910   73.8780  222.7220 N   0  0  0  0  0  0  0  0  0  0  0  0
  136.2620   72.6550  222.6420 C   0  0  0  0  0  0  0  0  0  0  0  0
  137.1630   71.4470  222.6700 C   0  0  0  0  0  0  0  0  0  0  0  0
  136.6720   70.4230  223.2000 O   0  0  0  0  0  0  0  0  0  0  0  0
  138.4550   71.5480  222.1160 N   0  0  0  0  0  0  0  0  0  0  0  0
  138.7590   72.0580  220.7530 C   0  0  0  0  0  0  0  0  0  0  0  0
  139.9860   72.9340  221.0380 C   0  0  0  0  0  0  0  0  0  0  0  0
  140.4150   72.6090  222.4760 C   0  0  0  0  0  0  0  0  0  0  0  0
  139.7670   71.2400  222.6320 C   0  0  1  0  0  0  0  0  0  0  0  0
  139.8600   70.7220  223.9790 C   0  0  0  0  0  0  0  0  0  0  0  0
  139.4170   69.4370  224.3090 C   0  0  0  0  0  0  0  0  0  0  0  0
  139.4810   68.9620  225.5660 N   0  0  0  0  0  0  0  0  0  0  0  0
  139.9700   69.6670  226.6040 C   0  0  0  0  0  0  0  0  0  0  0  0
  140.0200   68.9780  228.2120 Cl  0  0  0  0  0  0  0  0  0  0  0  0
  140.4190   70.9450  226.3220 C   0  0  0  0  0  0  0  0  0  0  0  0
  141.0560   71.8760  227.6520 Cl  0  0  0  0  0  0  0  0  0  0  0  0
  140.3630   71.4650  225.0230 C   0  0  0  0  0  0  0  0  0  0  0  0
  137.1300   76.3680  222.6740 C   0  0  0  0  0  0  0  0  0  0  0  0
  136.5170   77.5840  222.7860 C   0  0  0  0  0  0  0  0  0  0  0  0
  137.3200   78.7190  222.8680 C   0  0  0  0  0  0  0  0  0  0  0  0
  138.6980   78.6340  222.8370 C   0  0  0  0  0  0  0  0  0  0  0  0
  139.5220   79.7410  222.9160 C   0  0  0  0  0  0  0  0  0  0  0  0
  140.9090   79.5940  222.8800 C   0  0  0  0  0  0  0  0  0  0  0  0
  141.9680   80.9990  222.9800 Cl  0  0  0  0  0  0  0  0  0  0  0  0
  141.4810   78.3260  222.7640 C   0  0  0  0  0  0  0  0  0  0  0  0
  140.6600   77.2210  222.6850 C   0  0  0  0  0  0  0  0  0  0  0  0
  139.2870   77.3760  222.7210 C   0  0  0  0  0  0  0  0  0  0  0  0
  138.4800   76.3210  222.6470 N   0  0  0  0  0  0  0  0  0  0  0  0
  138.0360   73.9000  222.8870 H   0  0  0  0  0  0  0  0  0  0  0  0
  135.5700   72.5996  223.4953 H   0  0  0  0  0  0  0  0  0  0  0  0
  135.7214   72.6485  221.6840 H   0  0  0  0  0  0  0  0  0  0  0  0
  138.9992   71.2390  220.0590 H   0  0  0  0  0  0  0  0  0  0  0  0
  137.9249   72.5876  220.2695 H   0  0  0  0  0  0  0  0  0  0  0  0
  140.7972   72.6957  220.3343 H   0  0  0  0  0  0  0  0  0  0  0  0
  139.7538   74.0026  220.9192 H   0  0  0  0  0  0  0  0  0  0  0  0
  141.5093   72.5581  222.5756 H   0  0  0  0  0  0  0  0  0  0  0  0
  140.1209   73.3535  223.2305 H   0  0  0  0  0  0  0  0  0  0  0  0
  140.2360   70.3962  222.1047 H   0  0  0  0  0  0  0  0  0  0  0  0
  139.0038   68.7954  223.5168 H   0  0  0  0  0  0  0  0  0  0  0  0
  140.7275   72.4854  224.8334 H   0  0  0  0  0  0  0  0  0  0  0  0
  135.4202   77.6643  222.8107 H   0  0  0  0  0  0  0  0  0  0  0  0
  136.8451   79.7070  222.9597 H   0  0  0  0  0  0  0  0  0  0  0  0
  139.0812   80.7446  223.0079 H   0  0  0  0  0  0  0  0  0  0  0  0
  142.5745   78.2096  222.7359 H   0  0  0  0  0  0  0  0  0  0  0  0
  141.0978   76.2160  222.5933 H   0  0  0  0  0  0  0  0  0  0  0  0
  1  2  2  0
  2  3  1  0
  3  4  1  0
  4  5  1  0
  5  6  2  0
  5  7  1  0
  7  8  1  0
  8  9  1  0
  9 10  1  0
 10 11  1  0
 11 12  1  0
 12 13  2  0
 13 14  1  0
 14 15  2  0
 15 16  1  0
 15 17  1  0
 17 18  1  0
 17 19  2  0
  2 20  1  0
 20 21  2  0
 21 22  1  0
 22 23  2  0
 23 24  1  0
 24 25  2  0
 25 26  1  0
 25 27  1  0
 27 28  2  0
 28 29  1  0
 29 30  2  0
 11  7  1  0
 19 12  1  0
 30 20  1  0
 29 23  1  0
  3 31  1  0
  4 32  1  0
  4 33  1  0
  8 34  1  0
  8 35  1  0
  9 36  1  0
  9 37  1  0
 10 38  1  0
 10 39  1  0
 11 40  1  6
 13 41  1  0
 19 42  1  0
 21 43  1  0
 22 44  1  0
 24 45  1  0
 27 46  1  0
 28 47  1  0
M  END
>  <smiles>  (25) 
O=C(NCC(=O)N1CCC[C@H]1c1cnc(Cl)c(Cl)c1)c1ccc2cc(Cl)ccc2n1

>  <score_type>  (25) 
oracle

>  <origin>  (25) 
autodockgpu

>  <m_score__min__energy>  (25) 
-9.0399999999999991

>  <m_primary>  (25) 
energy

>  <rmsd>  (25) 
7.241383812934888

>  <m_score__min__rmsd>  (25) 
7.241383812934888

>  <meeko>  (25) 
{"free_energy": -8.23, "intermolecular_energy": -9.72, "internal_energy": -1.95, "cluster_size": 10, "cluster_id": 4, "rank_in_cluster": 2}

>  <energy>  (25) 
-8.23

>  <cluster_rmsd>  (25) 
0.84

>  <cluster>  (25) 
3

$$$$

     RDKit          3D

 47 50  0  0  0  0  0  0  0  0999 V2000
  139.2350   73.7310  222.3350 O   0  0  0  0  0  0  0  0  0  0  0  0
  140.1070   72.8110  222.3090 C   0  0  0  0  0  0  0  0  0  0  0  0
  141.0850   72.7920  221.2760 N   0  0  0  0  0  0  0  0  0  0  0  0
  141.1110   73.7910  220.2600 C   0  0  0  0  0  0  0  0  0  0  0  0
  141.5060   75.1440  220.7950 C   0  0  0  0  0  0  0  0  0  0  0  0
  141.1520   75.3800  221.9730 O   0  0  0  0  0  0  0  0  0  0  0  0
  142.2250   76.0230  219.9590 N   0  0  0  0  0  0  0  0  0  0  0  0
  143.0980   75.6010  218.8320 C   0  0  0  0  0  0  0  0  0  0  0  0
  142.7070   76.6290  217.7630 C   0  0  0  0  0  0  0  0  0  0  0  0
  141.8630   77.6910  218.4820 C   0  0  0  0  0  0  0  0  0  0  0  0
  142.3310   77.4610  219.9140 C   0  0  1  0  0  0  0  0  0  0  0  0
  141.5780   78.2250  220.8830 C   0  0  0  0  0  0  0  0  0  0  0  0
  140.1840   78.1510  220.9610 C   0  0  0  0  0  0  0  0  0  0  0  0
  139.4800   78.8800  221.8480 N   0  0  0  0  0  0  0  0  0  0  0  0
  140.0440   79.7310  222.7250 C   0  0  0  0  0  0  0  0  0  0  0  0
  139.0590   80.6440  223.8490 Cl  0  0  0  0  0  0  0  0  0  0  0  0
  141.4230   79.8360  222.6820 C   0  0  0  0  0  0  0  0  0  0  0  0
  142.1730   80.9330  223.8110 Cl  0  0  0  0  0  0  0  0  0  0  0  0
  142.1800   79.0900  221.7700 C   0  0  0  0  0  0  0  0  0  0  0  0
  140.1180   71.7620  223.3330 C   0  0  0  0  0  0  0  0  0  0  0  0
  139.7150   70.4910  223.0370 C   0  0  0  0  0  0  0  0  0  0  0  0
  139.7470   69.5390  224.0530 C   0  0  0  0  0  0  0  0  0  0  0  0
  140.1730   69.8550  225.3280 C   0  0  0  0  0  0  0  0  0  0  0  0
  140.2160   68.9330  226.3570 C   0  0  0  0  0  0  0  0  0  0  0  0
  140.6560   69.3110  227.6260 C   0  0  0  0  0  0  0  0  0  0  0  0
  140.7150   68.1440  228.9440 Cl  0  0  0  0  0  0  0  0  0  0  0  0
  141.0560   70.6250  227.8720 C   0  0  0  0  0  0  0  0  0  0  0  0
  141.0130   71.5460  226.8470 C   0  0  0  0  0  0  0  0  0  0  0  0
  140.5760   71.1630  225.5920 C   0  0  0  0  0  0  0  0  0  0  0  0
  140.5280   72.0380  224.5910 N   0  0  0  0  0  0  0  0  0  0  0  0
  141.7870   72.0000  221.3050 H   0  0  0  0  0  0  0  0  0  0  0  0
  141.8350   73.4911  219.4881 H   0  0  0  0  0  0  0  0  0  0  0  0
  140.0948   73.8768  219.8476 H   0  0  0  0  0  0  0  0  0  0  0  0
  144.1634   75.6764  219.0953 H   0  0  0  0  0  0  0  0  0  0  0  0
  142.9685   74.5529  218.5241 H   0  0  0  0  0  0  0  0  0  0  0  0
  143.6069   77.0874  217.3270 H   0  0  0  0  0  0  0  0  0  0  0  0
  142.1472   76.1601  216.9403 H   0  0  0  0  0  0  0  0  0  0  0  0
  142.0979   78.7071  218.1322 H   0  0  0  0  0  0  0  0  0  0  0  0
  140.7772   77.6088  218.3265 H   0  0  0  0  0  0  0  0  0  0  0  0
  143.3378   77.8155  220.1800 H   0  0  0  0  0  0  0  0  0  0  0  0
  139.6463   77.4773  220.2776 H   0  0  0  0  0  0  0  0  0  0  0  0
  143.2748   79.1967  221.7619 H   0  0  0  0  0  0  0  0  0  0  0  0
  139.3748   70.2268  222.0248 H   0  0  0  0  0  0  0  0  0  0  0  0
  139.4250   68.5101  223.8345 H   0  0  0  0  0  0  0  0  0  0  0  0
  139.9014   67.8949  226.1743 H   0  0  0  0  0  0  0  0  0  0  0  0
  141.4019   70.9228  228.8728 H   0  0  0  0  0  0  0  0  0  0  0  0
  141.3261   72.5850  227.0273 H   0  0  0  0  0  0  0  0  0  0  0  0
  1  2  2  0
  2  3  1  0
  3  4  1  0
  4  5  1  0
  5  6  2  0
  5  7  1  0
  7  8  1  0
  8  9  1  0
  9 10  1  0
 10 11  1  0
 11 12  1  0
 12 13  2  0
 13 14  1  0
 14 15  2  0
 15 16  1  0
 15 17  1  0
 17 18  1  0
 17 19  2  0
  2 20  1  0
 20 21  2  0
 21 22  1  0
 22 23  2  0
 23 24  1  0
 24 25  2  0
 25 26  1  0
 25 27  1  0
 27 28  2  0
 28 29  1  0
 29 30  2  0
 11  7  1  0
 19 12  1  0
 30 20  1  0
 29 23  1  0
  3 31  1  0
  4 32  1  0
  4 33  1  0
  8 34  1  0
  8 35  1  0
  9 36  1  0
  9 37  1  0
 10 38  1  0
 10 39  1  0
 11 40  1  6
 13 41  1  0
 19 42  1  0
 21 43  1  0
 22 44  1  0
 24 45  1  0
 27 46  1  0
 28 47  1  0
M  END
>  <smiles>  (26) 
O=C(NCC(=O)N1CCC[C@H]1c1cnc(Cl)c(Cl)c1)c1ccc2cc(Cl)ccc2n1

>  <score_type>  (26) 
oracle

>  <origin>  (26) 
autodockgpu

>  <m_score__min__energy>  (26) 
-9.0399999999999991

>  <m_primary>  (26) 
energy

>  <rmsd>  (26) 
2.3033446972569966

>  <m_score__min__rmsd>  (26) 
2.3033446972569966

>  <meeko>  (26) 
{"free_energy": -9.04, "intermolecular_energy": -10.53, "internal_energy": -1.04, "cluster_size": 10, "cluster_id": 1, "rank_in_cluster": 1}

>  <energy>  (26) 
-8.22

>  <cluster_rmsd>  (26) 
0.83

>  <cluster>  (26) 
3

$$$$

     RDKit          3D

 47 50  0  0  0  0  0  0  0  0999 V2000
  138.6960   73.2360  220.8360 O   0  0  0  0  0  0  0  0  0  0  0  0
  139.7150   73.0140  221.5580 C   0  0  0  0  0  0  0  0  0  0  0  0
  140.9270   73.7170  221.3100 N   0  0  0  0  0  0  0  0  0  0  0  0
  141.0260   74.6750  220.2590 C   0  0  0  0  0  0  0  0  0  0  0  0
  142.4200   75.2290  220.1170 C   0  0  0  0  0  0  0  0  0  0  0  0
  143.2880   74.6950  220.8470 O   0  0  0  0  0  0  0  0  0  0  0  0
  142.6460   76.2760  219.2010 N   0  0  0  0  0  0  0  0  0  0  0  0
  143.3470   76.1310  217.8970 C   0  0  0  0  0  0  0  0  0  0  0  0
  142.4470   76.9770  216.9880 C   0  0  0  0  0  0  0  0  0  0  0  0
  141.4940   77.7360  217.9210 C   0  0  0  0  0  0  0  0  0  0  0  0
  142.3000   77.6770  219.2120 C   0  0  1  0  0  0  0  0  0  0  0  0
  141.5740   78.1850  220.3550 C   0  0  0  0  0  0  0  0  0  0  0  0
  140.2000   77.9800  220.5080 C   0  0  0  0  0  0  0  0  0  0  0  0
  139.5190   78.4710  221.5590 N   0  0  0  0  0  0  0  0  0  0  0  0
  140.0870   79.1920  222.5430 C   0  0  0  0  0  0  0  0  0  0  0  0
  139.1320   79.7970  223.8800 Cl  0  0  0  0  0  0  0  0  0  0  0  0
  141.4480   79.4200  222.4320 C   0  0  0  0  0  0  0  0  0  0  0  0
  142.2050   80.3520  223.6960 Cl  0  0  0  0  0  0  0  0  0  0  0  0
  142.1810   78.9210  221.3480 C   0  0  0  0  0  0  0  0  0  0  0  0
  139.6580   72.0360  222.6490 C   0  0  0  0  0  0  0  0  0  0  0  0
  138.9360   70.8840  222.5190 C   0  0  0  0  0  0  0  0  0  0  0  0
  138.9200   69.9950  223.5900 C   0  0  0  0  0  0  0  0  0  0  0  0
  139.6100   70.2560  224.7580 C   0  0  0  0  0  0  0  0  0  0  0  0
  139.6150   69.3940  225.8380 C   0  0  0  0  0  0  0  0  0  0  0  0
  140.3310   69.7100  226.9930 C   0  0  0  0  0  0  0  0  0  0  0  0
  140.3430   68.6190  228.3750 Cl  0  0  0  0  0  0  0  0  0  0  0  0
  141.0520   70.9030  227.0700 C   0  0  0  0  0  0  0  0  0  0  0  0
  141.0490   71.7640  225.9930 C   0  0  0  0  0  0  0  0  0  0  0  0
  140.3360   71.4420  224.8530 C   0  0  0  0  0  0  0  0  0  0  0  0
  140.3220   72.2600  223.8050 N   0  0  0  0  0  0  0  0  0  0  0  0
  141.7430   73.4900  221.9440 H   0  0  0  0  0  0  0  0  0  0  0  0
  140.7394   74.1925  219.3129 H   0  0  0  0  0  0  0  0  0  0  0  0
  140.3555   75.5120  220.5035 H   0  0  0  0  0  0  0  0  0  0  0  0
  144.3699   76.5333  217.9409 H   0  0  0  0  0  0  0  0  0  0  0  0
  143.4784   75.0905  217.5651 H   0  0  0  0  0  0  0  0  0  0  0  0
  143.0526   77.6847  216.4028 H   0  0  0  0  0  0  0  0  0  0  0  0
  141.8947   76.3498  216.2727 H   0  0  0  0  0  0  0  0  0  0  0  0
  141.3313   78.7712  217.5865 H   0  0  0  0  0  0  0  0  0  0  0  0
  140.4769   77.3222  217.9864 H   0  0  0  0  0  0  0  0  0  0  0  0
  143.1849   78.3264  219.2846 H   0  0  0  0  0  0  0  0  0  0  0  0
  139.6592   77.3996  219.7460 H   0  0  0  0  0  0  0  0  0  0  0  0
  143.2611   79.1206  221.2888 H   0  0  0  0  0  0  0  0  0  0  0  0
  138.3827   70.6648  221.5939 H   0  0  0  0  0  0  0  0  0  0  0  0
  138.3439   69.0619  223.5042 H   0  0  0  0  0  0  0  0  0  0  0  0
  139.0502   68.4515  225.7867 H   0  0  0  0  0  0  0  0  0  0  0  0
  141.6165   71.1535  227.9803 H   0  0  0  0  0  0  0  0  0  0  0  0
  141.6137   72.7068  226.0408 H   0  0  0  0  0  0  0  0  0  0  0  0
  1  2  2  0
  2  3  1  0
  3  4  1  0
  4  5  1  0
  5  6  2  0
  5  7  1  0
  7  8  1  0
  8  9  1  0
  9 10  1  0
 10 11  1  0
 11 12  1  0
 12 13  2  0
 13 14  1  0
 14 15  2  0
 15 16  1  0
 15 17  1  0
 17 18  1  0
 17 19  2  0
  2 20  1  0
 20 21  2  0
 21 22  1  0
 22 23  2  0
 23 24  1  0
 24 25  2  0
 25 26  1  0
 25 27  1  0
 27 28  2  0
 28 29  1  0
 29 30  2  0
 11  7  1  0
 19 12  1  0
 30 20  1  0
 29 23  1  0
  3 31  1  0
  4 32  1  0
  4 33  1  0
  8 34  1  0
  8 35  1  0
  9 36  1  0
  9 37  1  0
 10 38  1  0
 10 39  1  0
 11 40  1  6
 13 41  1  0
 19 42  1  0
 21 43  1  0
 22 44  1  0
 24 45  1  0
 27 46  1  0
 28 47  1  0
M  END
>  <smiles>  (27) 
O=C(NCC(=O)N1CCC[C@H]1c1cnc(Cl)c(Cl)c1)c1ccc2cc(Cl)ccc2n1

>  <score_type>  (27) 
oracle

>  <origin>  (27) 
autodockgpu

>  <m_score__min__energy>  (27) 
-9.0399999999999991

>  <m_primary>  (27) 
energy

>  <rmsd>  (27) 
2.495890559586312

>  <m_score__min__rmsd>  (27) 
2.495890559586312

>  <meeko>  (27) 
{"free_energy": -7.99, "intermolecular_energy": -9.48, "internal_energy": -1.91, "cluster_size": 10, "cluster_id": 1, "rank_in_cluster": 8}

>  <energy>  (27) 
-8.21

>  <cluster_rmsd>  (27) 
1.32

>  <cluster>  (27) 
3

$$$$

     RDKit          3D

 47 50  0  0  0  0  0  0  0  0999 V2000
  139.2330   71.8840  220.7370 O   0  0  0  0  0  0  0  0  0  0  0  0
  139.4140   72.2830  221.9280 C   0  0  0  0  0  0  0  0  0  0  0  0
  139.4370   73.6760  222.2130 N   0  0  0  0  0  0  0  0  0  0  0  0
  139.2570   74.6460  221.1840 C   0  0  0  0  0  0  0  0  0  0  0  0
  139.9860   75.9330  221.4750 C   0  0  0  0  0  0  0  0  0  0  0  0
  140.0270   76.2660  222.6820 O   0  0  0  0  0  0  0  0  0  0  0  0
  140.5540   76.6510  220.4030 N   0  0  0  0  0  0  0  0  0  0  0  0
  140.1630   78.0280  219.9990 C   0  0  0  0  0  0  0  0  0  0  0  0
  141.5380   78.6530  219.7320 C   0  0  0  0  0  0  0  0  0  0  0  0
  142.5420   77.4920  219.7430 C   0  0  0  0  0  0  0  0  0  0  0  0
  141.5950   76.3340  219.4560 C   0  0  1  0  0  0  0  0  0  0  0  0
  142.2350   75.0420  219.5630 C   0  0  0  0  0  0  0  0  0  0  0  0
  141.6250   73.8740  219.0960 C   0  0  0  0  0  0  0  0  0  0  0  0
  142.2100   72.6680  219.2160 N   0  0  0  0  0  0  0  0  0  0  0  0
  143.4150   72.4780  219.7850 C   0  0  0  0  0  0  0  0  0  0  0  0
  144.1100   70.8760  219.9030 Cl  0  0  0  0  0  0  0  0  0  0  0  0
  144.0550   73.6080  220.2620 C   0  0  0  0  0  0  0  0  0  0  0  0
  145.6180   73.3860  221.0040 Cl  0  0  0  0  0  0  0  0  0  0  0  0
  143.4690   74.8760  220.1510 C   0  0  0  0  0  0  0  0  0  0  0  0
  139.6040   71.3200  223.0170 C   0  0  0  0  0  0  0  0  0  0  0  0
  139.2680   70.0060  222.8550 C   0  0  0  0  0  0  0  0  0  0  0  0
  139.4700   69.1400  223.9260 C   0  0  0  0  0  0  0  0  0  0  0  0
  139.9960   69.5820  225.1250 C   0  0  0  0  0  0  0  0  0  0  0  0
  140.2090   68.7480  226.2060 C   0  0  0  0  0  0  0  0  0  0  0  0
  140.7430   69.2510  227.3930 C   0  0  0  0  0  0  0  0  0  0  0  0
  141.0180   68.1960  228.7770 Cl  0  0  0  0  0  0  0  0  0  0  0  0
  141.0680   70.6040  227.5020 C   0  0  0  0  0  0  0  0  0  0  0  0
  140.8550   71.4370  226.4240 C   0  0  0  0  0  0  0  0  0  0  0  0
  140.3260   70.9300  225.2520 C   0  0  0  0  0  0  0  0  0  0  0  0
  140.1150   71.7190  224.2020 N   0  0  0  0  0  0  0  0  0  0  0  0
  139.5920   73.9490  223.2230 H   0  0  0  0  0  0  0  0  0  0  0  0
  139.6351   74.2318  220.2377 H   0  0  0  0  0  0  0  0  0  0  0  0
  138.1829   74.8750  221.1225 H   0  0  0  0  0  0  0  0  0  0  0  0
  139.5387   78.0219  219.0933 H   0  0  0  0  0  0  0  0  0  0  0  0
  139.5563   78.5650  220.7430 H   0  0  0  0  0  0  0  0  0  0  0  0
  141.5457   79.1552  218.7534 H   0  0  0  0  0  0  0  0  0  0  0  0
  141.7898   79.4096  220.4898 H   0  0  0  0  0  0  0  0  0  0  0  0
  143.3045   77.6021  218.9579 H   0  0  0  0  0  0  0  0  0  0  0  0
  143.1331   77.3944  220.6655 H   0  0  0  0  0  0  0  0  0  0  0  0
  141.2121   76.2375  218.4293 H   0  0  0  0  0  0  0  0  0  0  0  0
  140.6375   73.9428  218.6162 H   0  0  0  0  0  0  0  0  0  0  0  0
  144.0043   75.7545  220.5405 H   0  0  0  0  0  0  0  0  0  0  0  0
  138.8496   69.6423  221.9049 H   0  0  0  0  0  0  0  0  0  0  0  0
  139.2045   68.0783  223.8152 H   0  0  0  0  0  0  0  0  0  0  0  0
  139.9559   67.6802  226.1303 H   0  0  0  0  0  0  0  0  0  0  0  0
  141.4893   71.0013  228.4373 H   0  0  0  0  0  0  0  0  0  0  0  0
  141.1062   72.5055  226.4968 H   0  0  0  0  0  0  0  0  0  0  0  0
  1  2  2  0
  2  3  1  0
  3  4  1  0
  4  5  1  0
  5  6  2  0
  5  7  1  0
  7  8  1  0
  8  9  1  0
  9 10  1  0
 10 11  1  0
 11 12  1  0
 12 13  2  0
 13 14  1  0
 14 15  2  0
 15 16  1  0
 15 17  1  0
 17 18  1  0
 17 19  2  0
  2 20  1  0
 20 21  2  0
 21 22  1  0
 22 23  2  0
 23 24  1  0
 24 25  2  0
 25 26  1  0
 25 27  1  0
 27 28  2  0
 28 29  1  0
 29 30  2  0
 11  7  1  0
 19 12  1  0
 30 20  1  0
 29 23  1  0
  3 31  1  0
  4 32  1  0
  4 33  1  0
  8 34  1  0
  8 35  1  0
  9 36  1  0
  9 37  1  0
 10 38  1  0
 10 39  1  0
 11 40  1  6
 13 41  1  0
 19 42  1  0
 21 43  1  0
 22 44  1  0
 24 45  1  0
 27 46  1  0
 28 47  1  0
M  END
>  <smiles>  (28) 
O=C(NCC(=O)N1CCC[C@H]1c1cnc(Cl)c(Cl)c1)c1ccc2cc(Cl)ccc2n1

>  <score_type>  (28) 
oracle

>  <origin>  (28) 
autodockgpu

>  <m_score__min__energy>  (28) 
-9.0399999999999991

>  <m_primary>  (28) 
energy

>  <rmsd>  (28) 
1.9900356026641832

>  <m_score__min__rmsd>  (28) 
1.9900356026641832

>  <meeko>  (28) 
{"free_energy": -8.15, "intermolecular_energy": -9.64, "internal_energy": -2.23, "cluster_size": 17, "cluster_id": 3, "rank_in_cluster": 15}

>  <energy>  (28) 
-8.19

>  <cluster_rmsd>  (28) 
0.67

>  <cluster>  (28) 
3

$$$$

     RDKit          3D

 47 50  0  0  0  0  0  0  0  0999 V2000
  139.7740   72.3850  220.5930 O   0  0  0  0  0  0  0  0  0  0  0  0
  139.7120   72.7490  221.8070 C   0  0  0  0  0  0  0  0  0  0  0  0
  139.5360   74.1240  222.1260 N   0  0  0  0  0  0  0  0  0  0  0  0
  139.4260   75.1140  221.1060 C   0  0  0  0  0  0  0  0  0  0  0  0
  140.5230   76.1440  221.1850 C   0  0  0  0  0  0  0  0  0  0  0  0
  140.9500   76.3870  222.3380 O   0  0  0  0  0  0  0  0  0  0  0  0
  140.9790   76.7450  219.9940 N   0  0  0  0  0  0  0  0  0  0  0  0
  140.5540   78.0800  219.4970 C   0  0  0  0  0  0  0  0  0  0  0  0
  141.8960   78.6570  219.0300 C   0  0  0  0  0  0  0  0  0  0  0  0
  142.8920   77.4890  219.0530 C   0  0  0  0  0  0  0  0  0  0  0  0
  141.9160   76.3210  218.9820 C   0  0  1  0  0  0  0  0  0  0  0  0
  142.5590   75.0370  219.1520 C   0  0  0  0  0  0  0  0  0  0  0  0
  142.0260   73.8650  218.6070 C   0  0  0  0  0  0  0  0  0  0  0  0
  142.6110   72.6660  218.7830 N   0  0  0  0  0  0  0  0  0  0  0  0
  143.7450   72.4880  219.4870 C   0  0  0  0  0  0  0  0  0  0  0  0
  144.4460   70.8950  219.6710 Cl  0  0  0  0  0  0  0  0  0  0  0  0
  144.3080   73.6220  220.0450 C   0  0  0  0  0  0  0  0  0  0  0  0
  145.7770   73.4140  220.9610 Cl  0  0  0  0  0  0  0  0  0  0  0  0
  143.7190   74.8830  219.8780 C   0  0  0  0  0  0  0  0  0  0  0  0
  139.8210   71.7650  222.8880 C   0  0  0  0  0  0  0  0  0  0  0  0
  139.4410   70.4680  222.6940 C   0  0  0  0  0  0  0  0  0  0  0  0
  139.5680   69.5800  223.7590 C   0  0  0  0  0  0  0  0  0  0  0  0
  140.0630   69.9850  224.9830 C   0  0  0  0  0  0  0  0  0  0  0  0
  140.2020   69.1290  226.0590 C   0  0  0  0  0  0  0  0  0  0  0  0
  140.7090   69.5950  227.2730 C   0  0  0  0  0  0  0  0  0  0  0  0
  140.8890   68.5120  228.6510 Cl  0  0  0  0  0  0  0  0  0  0  0  0
  141.0810   70.9320  227.4150 C   0  0  0  0  0  0  0  0  0  0  0  0
  140.9430   71.7870  226.3420 C   0  0  0  0  0  0  0  0  0  0  0  0
  140.4400   71.3170  225.1430 C   0  0  0  0  0  0  0  0  0  0  0  0
  140.3010   72.1280  224.0980 N   0  0  0  0  0  0  0  0  0  0  0  0
  139.4920   74.3680  223.1550 H   0  0  0  0  0  0  0  0  0  0  0  0
  139.4768   74.6182  220.1254 H   0  0  0  0  0  0  0  0  0  0  0  0
  138.4668   75.6341  221.2452 H   0  0  0  0  0  0  0  0  0  0  0  0
  139.8398   77.9930  218.6649 H   0  0  0  0  0  0  0  0  0  0  0  0
  140.0293   78.6961  220.2421 H   0  0  0  0  0  0  0  0  0  0  0  0
  141.8042   79.0606  218.0108 H   0  0  0  0  0  0  0  0  0  0  0  0
  142.2273   79.4808  219.6793 H   0  0  0  0  0  0  0  0  0  0  0  0
  143.5691   77.5106  218.1864 H   0  0  0  0  0  0  0  0  0  0  0  0
  143.5755   77.4749  219.9147 H   0  0  0  0  0  0  0  0  0  0  0  0
  141.4290   76.1283  218.0147 H   0  0  0  0  0  0  0  0  0  0  0  0
  141.1000   73.9248  218.0162 H   0  0  0  0  0  0  0  0  0  0  0  0
  144.1916   75.7650  220.3349 H   0  0  0  0  0  0  0  0  0  0  0  0
  139.0455   70.1339  221.7234 H   0  0  0  0  0  0  0  0  0  0  0  0
  139.2669   68.5309  223.6221 H   0  0  0  0  0  0  0  0  0  0  0  0
  139.9110   68.0730  225.9580 H   0  0  0  0  0  0  0  0  0  0  0  0
  141.4798   71.2999  228.3719 H   0  0  0  0  0  0  0  0  0  0  0  0
  141.2332   72.8435  226.4400 H   0  0  0  0  0  0  0  0  0  0  0  0
  1  2  2  0
  2  3  1  0
  3  4  1  0
  4  5  1  0
  5  6  2  0
  5  7  1  0
  7  8  1  0
  8  9  1  0
  9 10  1  0
 10 11  1  0
 11 12  1  0
 12 13  2  0
 13 14  1  0
 14 15  2  0
 15 16  1  0
 15 17  1  0
 17 18  1  0
 17 19  2  0
  2 20  1  0
 20 21  2  0
 21 22  1  0
 22 23  2  0
 23 24  1  0
 24 25  2  0
 25 26  1  0
 25 27  1  0
 27 28  2  0
 28 29  1  0
 29 30  2  0
 11  7  1  0
 19 12  1  0
 30 20  1  0
 29 23  1  0
  3 31  1  0
  4 32  1  0
  4 33  1  0
  8 34  1  0
  8 35  1  0
  9 36  1  0
  9 37  1  0
 10 38  1  0
 10 39  1  0
 11 40  1  6
 13 41  1  0
 19 42  1  0
 21 43  1  0
 22 44  1  0
 24 45  1  0
 27 46  1  0
 28 47  1  0
M  END
>  <smiles>  (29) 
O=C(NCC(=O)N1CCC[C@H]1c1cnc(Cl)c(Cl)c1)c1ccc2cc(Cl)ccc2n1

>  <score_type>  (29) 
oracle

>  <origin>  (29) 
autodockgpu

>  <m_score__min__energy>  (29) 
-9.0399999999999991

>  <m_primary>  (29) 
energy

>  <rmsd>  (29) 
2.1419234170444192

>  <m_score__min__rmsd>  (29) 
2.1419234170444192

>  <meeko>  (29) 
{"free_energy": -8.31, "intermolecular_energy": -9.8, "internal_energy": -2.09, "cluster_size": 17, "cluster_id": 3, "rank_in_cluster": 7}

>  <energy>  (29) 
-8.16

>  <cluster_rmsd>  (29) 
0.83

>  <cluster>  (29) 
3

$$$$

     RDKit          3D

 47 50  0  0  0  0  0  0  0  0999 V2000
  137.6420   71.4340  221.0100 O   0  0  0  0  0  0  0  0  0  0  0  0
  138.1730   71.9150  222.0570 C   0  0  0  0  0  0  0  0  0  0  0  0
  138.3780   73.3180  222.1660 N   0  0  0  0  0  0  0  0  0  0  0  0
  137.9980   74.2070  221.1180 C   0  0  0  0  0  0  0  0  0  0  0  0
  139.1840   74.7270  220.3470 C   0  0  0  0  0  0  0  0  0  0  0  0
  138.9090   75.4510  219.3630 O   0  0  0  0  0  0  0  0  0  0  0  0
  140.4810   74.3740  220.7740 N   0  0  0  0  0  0  0  0  0  0  0  0
  141.0110   72.9860  220.8280 C   0  0  0  0  0  0  0  0  0  0  0  0
  142.4220   73.1920  220.2620 C   0  0  0  0  0  0  0  0  0  0  0  0
  142.6400   74.7100  220.2070 C   0  0  0  0  0  0  0  0  0  0  0  0
  141.6050   75.1540  221.2330 C   0  0  1  0  0  0  0  0  0  0  0  0
  141.4510   76.5900  221.2940 C   0  0  0  0  0  0  0  0  0  0  0  0
  141.8660   77.4230  220.2510 C   0  0  0  0  0  0  0  0  0  0  0  0
  141.7450   78.7620  220.3160 N   0  0  0  0  0  0  0  0  0  0  0  0
  141.2220   79.4110  221.3730 C   0  0  0  0  0  0  0  0  0  0  0  0
  141.0970   81.1570  221.3830 Cl  0  0  0  0  0  0  0  0  0  0  0  0
  140.7980   78.6250  222.4300 C   0  0  0  0  0  0  0  0  0  0  0  0
  140.1160   79.4450  223.8100 Cl  0  0  0  0  0  0  0  0  0  0  0  0
  140.9130   77.2290  222.3890 C   0  0  0  0  0  0  0  0  0  0  0  0
  138.5800   71.0380  223.1590 C   0  0  0  0  0  0  0  0  0  0  0  0
  138.1690   69.7360  223.2050 C   0  0  0  0  0  0  0  0  0  0  0  0
  138.5890   68.9530  224.2780 C   0  0  0  0  0  0  0  0  0  0  0  0
  139.3970   69.4640  225.2740 C   0  0  0  0  0  0  0  0  0  0  0  0
  139.8300   68.7130  226.3510 C   0  0  0  0  0  0  0  0  0  0  0  0
  140.6460   69.2840  227.3280 C   0  0  0  0  0  0  0  0  0  0  0  0
  141.2030   68.3350  228.7040 Cl  0  0  0  0  0  0  0  0  0  0  0  0
  141.0350   70.6200  227.2300 C   0  0  0  0  0  0  0  0  0  0  0  0
  140.6040   71.3710  226.1570 C   0  0  0  0  0  0  0  0  0  0  0  0
  139.7950   70.7970  225.1930 C   0  0  0  0  0  0  0  0  0  0  0  0
  139.3700   71.5060  224.1500 N   0  0  0  0  0  0  0  0  0  0  0  0
  138.8260   73.6620  223.0610 H   0  0  0  0  0  0  0  0  0  0  0  0
  137.3330   73.6716  220.4244 H   0  0  0  0  0  0  0  0  0  0  0  0
  137.4921   75.0693  221.5768 H   0  0  0  0  0  0  0  0  0  0  0  0
  141.0407   72.6043  221.8592 H   0  0  0  0  0  0  0  0  0  0  0  0
  140.4059   72.2470  220.2824 H   0  0  0  0  0  0  0  0  0  0  0  0
  143.1692   72.7224  220.9186 H   0  0  0  0  0  0  0  0  0  0  0  0
  142.5272   72.7342  219.2673 H   0  0  0  0  0  0  0  0  0  0  0  0
  143.6608   74.9885  220.5078 H   0  0  0  0  0  0  0  0  0  0  0  0
  142.5319   75.1612  219.2096 H   0  0  0  0  0  0  0  0  0  0  0  0
  141.8352   74.9736  222.2934 H   0  0  0  0  0  0  0  0  0  0  0  0
  142.3049   76.9704  219.3496 H   0  0  0  0  0  0  0  0  0  0  0  0
  140.5674   76.6330  223.2466 H   0  0  0  0  0  0  0  0  0  0  0  0
  137.5249   69.3179  222.4174 H   0  0  0  0  0  0  0  0  0  0  0  0
  138.2690   67.9020  224.3330 H   0  0  0  0  0  0  0  0  0  0  0  0
  139.5292   67.6585  226.4381 H   0  0  0  0  0  0  0  0  0  0  0  0
  141.6787   71.0695  228.0004 H   0  0  0  0  0  0  0  0  0  0  0  0
  140.9033   72.4257  226.0677 H   0  0  0  0  0  0  0  0  0  0  0  0
  1  2  2  0
  2  3  1  0
  3  4  1  0
  4  5  1  0
  5  6  2  0
  5  7  1  0
  7  8  1  0
  8  9  1  0
  9 10  1  0
 10 11  1  0
 11 12  1  0
 12 13  2  0
 13 14  1  0
 14 15  2  0
 15 16  1  0
 15 17  1  0
 17 18  1  0
 17 19  2  0
  2 20  1  0
 20 21  2  0
 21 22  1  0
 22 23  2  0
 23 24  1  0
 24 25  2  0
 25 26  1  0
 25 27  1  0
 27 28  2  0
 28 29  1  0
 29 30  2  0
 11  7  1  0
 19 12  1  0
 30 20  1  0
 29 23  1  0
  3 31  1  0
  4 32  1  0
  4 33  1  0
  8 34  1  0
  8 35  1  0
  9 36  1  0
  9 37  1  0
 10 38  1  0
 10 39  1  0
 11 40  1  1
 13 41  1  0
 19 42  1  0
 21 43  1  0
 22 44  1  0
 24 45  1  0
 27 46  1  0
 28 47  1  0
M  END
>  <smiles>  (30) 
O=C(NCC(=O)N1CCC[C@H]1c1cnc(Cl)c(Cl)c1)c1ccc2cc(Cl)ccc2n1

>  <score_type>  (30) 
oracle

>  <origin>  (30) 
autodockgpu

>  <m_score__min__energy>  (30) 
-9.0399999999999991

>  <m_primary>  (30) 
energy

>  <rmsd>  (30) 
2.278524777505563

>  <m_score__min__rmsd>  (30) 
2.278524777505563

>  <meeko>  (30) 
{"free_energy": -7.93, "intermolecular_energy": -9.42, "internal_energy": -1.77, "cluster_size": 10, "cluster_id": 1, "rank_in_cluster": 9}

>  <energy>  (30) 
-8.15

>  <cluster_rmsd>  (30) 
0.84

>  <cluster>  (30) 
3

$$$$

     RDKit          3D

 47 50  0  0  0  0  0  0  0  0999 V2000
  139.5430   72.1460  220.7300 O   0  0  0  0  0  0  0  0  0  0  0  0
  139.5910   72.5070  221.9450 C   0  0  0  0  0  0  0  0  0  0  0  0
  139.5060   73.8870  222.2780 N   0  0  0  0  0  0  0  0  0  0  0  0
  139.3680   74.8860  221.2700 C   0  0  0  0  0  0  0  0  0  0  0  0
  140.4040   75.9740  221.3950 C   0  0  0  0  0  0  0  0  0  0  0  0
  140.7240   76.2790  222.5670 O   0  0  0  0  0  0  0  0  0  0  0  0
  140.9240   76.5560  220.2210 N   0  0  0  0  0  0  0  0  0  0  0  0
  140.5850   77.9140  219.7210 C   0  0  0  0  0  0  0  0  0  0  0  0
  141.9690   78.4200  219.2940 C   0  0  0  0  0  0  0  0  0  0  0  0
  142.8990   77.2000  219.3370 C   0  0  0  0  0  0  0  0  0  0  0  0
  141.8640   76.0870  219.2320 C   0  0  1  0  0  0  0  0  0  0  0  0
  142.4330   74.7690  219.4100 C   0  0  0  0  0  0  0  0  0  0  0  0
  141.7690   73.6140  218.9860 C   0  0  0  0  0  0  0  0  0  0  0  0
  142.2860   72.3860  219.1720 N   0  0  0  0  0  0  0  0  0  0  0  0
  143.4700   72.1600  219.7720 C   0  0  0  0  0  0  0  0  0  0  0  0
  144.0760   70.5300  219.9760 Cl  0  0  0  0  0  0  0  0  0  0  0  0
  144.1610   73.2760  220.2090 C   0  0  0  0  0  0  0  0  0  0  0  0
  145.6970   73.0060  220.9890 Cl  0  0  0  0  0  0  0  0  0  0  0  0
  143.6460   74.5660  220.0290 C   0  0  0  0  0  0  0  0  0  0  0  0
  139.7330   71.5140  223.0140 C   0  0  0  0  0  0  0  0  0  0  0  0
  139.3730   70.2120  222.8110 C   0  0  0  0  0  0  0  0  0  0  0  0
  139.5310   69.3150  223.8650 C   0  0  0  0  0  0  0  0  0  0  0  0
  140.0370   69.7160  225.0860 C   0  0  0  0  0  0  0  0  0  0  0  0
  140.2060   68.8510  226.1510 C   0  0  0  0  0  0  0  0  0  0  0  0
  140.7210   69.3130  227.3630 C   0  0  0  0  0  0  0  0  0  0  0  0
  140.9400   68.2190  228.7260 Cl  0  0  0  0  0  0  0  0  0  0  0  0
  141.0720   70.6560  227.5130 C   0  0  0  0  0  0  0  0  0  0  0  0
  140.9040   71.5200  226.4520 C   0  0  0  0  0  0  0  0  0  0  0  0
  140.3920   71.0530  225.2550 C   0  0  0  0  0  0  0  0  0  0  0  0
  140.2230   71.8720  224.2210 N   0  0  0  0  0  0  0  0  0  0  0  0
  139.5520   74.1280  223.3080 H   0  0  0  0  0  0  0  0  0  0  0  0
  139.4726   74.4099  220.2839 H   0  0  0  0  0  0  0  0  0  0  0  0
  138.3778   75.3497  221.3901 H   0  0  0  0  0  0  0  0  0  0  0  0
  139.8902   77.8696  218.8693 H   0  0  0  0  0  0  0  0  0  0  0  0
  140.0739   78.5540  220.4552 H   0  0  0  0  0  0  0  0  0  0  0  0
  141.9272   78.8327  218.2752 H   0  0  0  0  0  0  0  0  0  0  0  0
  142.3263   79.2218  219.9570 H   0  0  0  0  0  0  0  0  0  0  0  0
  143.6001   77.1890  218.4894 H   0  0  0  0  0  0  0  0  0  0  0  0
  143.5565   77.1448  220.2171 H   0  0  0  0  0  0  0  0  0  0  0  0
  141.3931   75.9255  218.2511 H   0  0  0  0  0  0  0  0  0  0  0  0
  140.7945   73.7123  218.4852 H   0  0  0  0  0  0  0  0  0  0  0  0
  144.2208   75.4322  220.3885 H   0  0  0  0  0  0  0  0  0  0  0  0
  138.9697   69.8812  221.8425 H   0  0  0  0  0  0  0  0  0  0  0  0
  139.2460   68.2623  223.7215 H   0  0  0  0  0  0  0  0  0  0  0  0
  139.9326   67.7911  226.0424 H   0  0  0  0  0  0  0  0  0  0  0  0
  141.4784   71.0209  228.4678 H   0  0  0  0  0  0  0  0  0  0  0  0
  141.1770   72.5804  226.5573 H   0  0  0  0  0  0  0  0  0  0  0  0
  1  2  2  0
  2  3  1  0
  3  4  1  0
  4  5  1  0
  5  6  2  0
  5  7  1  0
  7  8  1  0
  8  9  1  0
  9 10  1  0
 10 11  1  0
 11 12  1  0
 12 13  2  0
 13 14  1  0
 14 15  2  0
 15 16  1  0
 15 17  1  0
 17 18  1  0
 17 19  2  0
  2 20  1  0
 20 21  2  0
 21 22  1  0
 22 23  2  0
 23 24  1  0
 24 25  2  0
 25 26  1  0
 25 27  1  0
 27 28  2  0
 28 29  1  0
 29 30  2  0
 11  7  1  0
 19 12  1  0
 30 20  1  0
 29 23  1  0
  3 31  1  0
  4 32  1  0
  4 33  1  0
  8 34  1  0
  8 35  1  0
  9 36  1  0
  9 37  1  0
 10 38  1  0
 10 39  1  0
 11 40  1  6
 13 41  1  0
 19 42  1  0
 21 43  1  0
 22 44  1  0
 24 45  1  0
 27 46  1  0
 28 47  1  0
M  END
>  <smiles>  (31) 
O=C(NCC(=O)N1CCC[C@H]1c1cnc(Cl)c(Cl)c1)c1ccc2cc(Cl)ccc2n1

>  <score_type>  (31) 
oracle

>  <origin>  (31) 
autodockgpu

>  <m_score__min__energy>  (31) 
-9.0399999999999991

>  <m_primary>  (31) 
energy

>  <rmsd>  (31) 
2.0500695954932846

>  <m_score__min__rmsd>  (31) 
2.0500695954932846

>  <meeko>  (31) 
{"free_energy": -8.19, "intermolecular_energy": -9.68, "internal_energy": -2.2, "cluster_size": 17, "cluster_id": 3, "rank_in_cluster": 13}

>  <energy>  (31) 
-8.09

>  <cluster_rmsd>  (31) 
1.28

>  <cluster>  (31) 
3

$$$$

     RDKit          3D

 47 50  0  0  0  0  0  0  0  0999 V2000
  135.8660   75.5180  221.1130 O   0  0  0  0  0  0  0  0  0  0  0  0
  136.8750   75.4720  221.8800 C   0  0  0  0  0  0  0  0  0  0  0  0
  137.3050   74.2250  222.4100 N   0  0  0  0  0  0  0  0  0  0  0  0
  136.6250   73.0120  222.0970 C   0  0  0  0  0  0  0  0  0  0  0  0
  137.4520   71.7920  222.4130 C   0  0  0  0  0  0  0  0  0  0  0  0
  136.8820   70.9230  223.1140 O   0  0  0  0  0  0  0  0  0  0  0  0
  138.7680   71.7130  221.9120 N   0  0  0  0  0  0  0  0  0  0  0  0
  139.1860   72.1320  220.5480 C   0  0  0  0  0  0  0  0  0  0  0  0
  140.4990   72.8600  220.8590 C   0  0  0  0  0  0  0  0  0  0  0  0
  140.8280   72.5380  222.3230 C   0  0  0  0  0  0  0  0  0  0  0  0
  140.0100   71.2650  222.4940 C   0  0  1  0  0  0  0  0  0  0  0  0
  139.9840   70.7890  223.8590 C   0  0  0  0  0  0  0  0  0  0  0  0
  139.4230   69.5540  224.2010 C   0  0  0  0  0  0  0  0  0  0  0  0
  139.3780   69.1200  225.4740 N   0  0  0  0  0  0  0  0  0  0  0  0
  139.8610   69.8210  226.5170 C   0  0  0  0  0  0  0  0  0  0  0  0
  139.7650   69.1870  228.1460 Cl  0  0  0  0  0  0  0  0  0  0  0  0
  140.4250   71.0500  226.2240 C   0  0  0  0  0  0  0  0  0  0  0  0
  141.0570   71.9760  227.5600 Cl  0  0  0  0  0  0  0  0  0  0  0  0
  140.4850   71.5270  224.9080 C   0  0  0  0  0  0  0  0  0  0  0  0
  137.6040   76.6950  222.2290 C   0  0  0  0  0  0  0  0  0  0  0  0
  136.9470   77.8840  222.3730 C   0  0  0  0  0  0  0  0  0  0  0  0
  137.6940   79.0110  222.7050 C   0  0  0  0  0  0  0  0  0  0  0  0
  139.0610   78.9450  222.8870 C   0  0  0  0  0  0  0  0  0  0  0  0
  139.8310   80.0450  223.2160 C   0  0  0  0  0  0  0  0  0  0  0  0
  141.2100   79.9170  223.3880 C   0  0  0  0  0  0  0  0  0  0  0  0
  142.2000   81.3130  223.8080 Cl  0  0  0  0  0  0  0  0  0  0  0  0
  141.8290   78.6770  223.2270 C   0  0  0  0  0  0  0  0  0  0  0  0
  141.0620   77.5790  222.8980 C   0  0  0  0  0  0  0  0  0  0  0  0
  139.6970   77.7140  222.7310 C   0  0  0  0  0  0  0  0  0  0  0  0
  138.9420   76.6660  222.4130 N   0  0  0  0  0  0  0  0  0  0  0  0
  138.1520   74.2480  223.0450 H   0  0  0  0  0  0  0  0  0  0  0  0
  135.6936   72.9683  222.6806 H   0  0  0  0  0  0  0  0  0  0  0  0
  136.4234   73.0098  221.0156 H   0  0  0  0  0  0  0  0  0  0  0  0
  139.3499   71.2652  219.8909 H   0  0  0  0  0  0  0  0  0  0  0  0
  138.4438   72.7418  220.0121 H   0  0  0  0  0  0  0  0  0  0  0  0
  141.3014   72.4986  220.1990 H   0  0  0  0  0  0  0  0  0  0  0  0
  140.4054   73.9440  220.6973 H   0  0  0  0  0  0  0  0  0  0  0  0
  141.9029   72.3574  222.4713 H   0  0  0  0  0  0  0  0  0  0  0  0
  140.5991   73.3400  223.0403 H   0  0  0  0  0  0  0  0  0  0  0  0
  140.3919   70.3514  222.0150 H   0  0  0  0  0  0  0  0  0  0  0  0
  139.0062   68.9187  223.4056 H   0  0  0  0  0  0  0  0  0  0  0  0
  140.9404   72.5084  224.7093 H   0  0  0  0  0  0  0  0  0  0  0  0
  135.8582   77.9492  222.2306 H   0  0  0  0  0  0  0  0  0  0  0  0
  137.1827   79.9775  222.8252 H   0  0  0  0  0  0  0  0  0  0  0  0
  139.3535   81.0278  223.3431 H   0  0  0  0  0  0  0  0  0  0  0  0
  142.9162   78.5763  223.3609 H   0  0  0  0  0  0  0  0  0  0  0  0
  141.5371   76.5954  222.7685 H   0  0  0  0  0  0  0  0  0  0  0  0
  1  2  2  0
  2  3  1  0
  3  4  1  0
  4  5  1  0
  5  6  2  0
  5  7  1  0
  7  8  1  0
  8  9  1  0
  9 10  1  0
 10 11  1  0
 11 12  1  0
 12 13  2  0
 13 14  1  0
 14 15  2  0
 15 16  1  0
 15 17  1  0
 17 18  1  0
 17 19  2  0
  2 20  1  0
 20 21  2  0
 21 22  1  0
 22 23  2  0
 23 24  1  0
 24 25  2  0
 25 26  1  0
 25 27  1  0
 27 28  2  0
 28 29  1  0
 29 30  2  0
 11  7  1  0
 19 12  1  0
 30 20  1  0
 29 23  1  0
  3 31  1  0
  4 32  1  0
  4 33  1  0
  8 34  1  0
  8 35  1  0
  9 36  1  0
  9 37  1  0
 10 38  1  0
 10 39  1  0
 11 40  1  6
 13 41  1  0
 19 42  1  0
 21 43  1  0
 22 44  1  0
 24 45  1  0
 27 46  1  0
 28 47  1  0
M  END
>  <smiles>  (32) 
O=C(NCC(=O)N1CCC[C@H]1c1cnc(Cl)c(Cl)c1)c1ccc2cc(Cl)ccc2n1

>  <score_type>  (32) 
oracle

>  <origin>  (32) 
autodockgpu

>  <m_score__min__energy>  (32) 
-9.0399999999999991

>  <m_primary>  (32) 
energy

>  <rmsd>  (32) 
7.266189195513688

>  <m_score__min__rmsd>  (32) 
7.266189195513688

>  <meeko>  (32) 
{"free_energy": -8.4, "intermolecular_energy": -9.89, "internal_energy": -1.73, "cluster_size": 10, "cluster_id": 4, "rank_in_cluster": 1}

>  <energy>  (32) 
-8.08

>  <cluster_rmsd>  (32) 
0.63

>  <cluster>  (32) 
3

$$$$

     RDKit          3D

 47 50  0  0  0  0  0  0  0  0999 V2000
  133.2300   69.9220  226.4920 O   0  0  0  0  0  0  0  0  0  0  0  0
  133.5550   71.0460  226.0020 C   0  0  0  0  0  0  0  0  0  0  0  0
  134.4670   71.1070  224.9120 N   0  0  0  0  0  0  0  0  0  0  0  0
  135.0300   69.9240  224.3500 C   0  0  0  0  0  0  0  0  0  0  0  0
  136.3940   70.1640  223.7550 C   0  0  0  0  0  0  0  0  0  0  0  0
  136.7230   71.3670  223.6340 O   0  0  0  0  0  0  0  0  0  0  0  0
  137.1810   69.0540  223.3880 N   0  0  0  0  0  0  0  0  0  0  0  0
  136.8130   68.0550  222.3490 C   0  0  0  0  0  0  0  0  0  0  0  0
  138.1540   67.8800  221.6260 C   0  0  0  0  0  0  0  0  0  0  0  0
  139.2020   68.5830  222.4990 C   0  0  0  0  0  0  0  0  0  0  0  0
  138.4680   68.5770  223.8340 C   0  0  1  0  0  0  0  0  0  0  0  0
  139.1520   69.3360  224.8570 C   0  0  0  0  0  0  0  0  0  0  0  0
  139.4440   70.6940  224.7000 C   0  0  0  0  0  0  0  0  0  0  0  0
  140.1010   71.3960  225.6420 N   0  0  0  0  0  0  0  0  0  0  0  0
  140.5290   70.8640  226.8020 C   0  0  0  0  0  0  0  0  0  0  0  0
  141.3770   71.8440  227.9800 Cl  0  0  0  0  0  0  0  0  0  0  0  0
  140.2610   69.5210  227.0000 C   0  0  0  0  0  0  0  0  0  0  0  0
  140.8070   68.8120  228.4970 Cl  0  0  0  0  0  0  0  0  0  0  0  0
  139.5800   68.7670  226.0360 C   0  0  0  0  0  0  0  0  0  0  0  0
  133.0010   72.2880  226.5490 C   0  0  0  0  0  0  0  0  0  0  0  0
  131.8340   72.2800  227.2590 C   0  0  0  0  0  0  0  0  0  0  0  0
  131.3570   73.4920  227.7530 C   0  0  0  0  0  0  0  0  0  0  0  0
  132.0340   74.6760  227.5390 C   0  0  0  0  0  0  0  0  0  0  0  0
  131.5880   75.8940  228.0160 C   0  0  0  0  0  0  0  0  0  0  0  0
  132.3140   77.0600  227.7690 C   0  0  0  0  0  0  0  0  0  0  0  0
  131.7540   78.6170  228.3720 Cl  0  0  0  0  0  0  0  0  0  0  0  0
  133.5010   77.0090  227.0370 C   0  0  0  0  0  0  0  0  0  0  0  0
  133.9480   75.7940  226.5600 C   0  0  0  0  0  0  0  0  0  0  0  0
  133.2210   74.6450  226.8100 C   0  0  0  0  0  0  0  0  0  0  0  0
  133.6370   73.4640  226.3590 N   0  0  0  0  0  0  0  0  0  0  0  0
  134.7020   72.0710  224.5450 H   0  0  0  0  0  0  0  0  0  0  0  0
  135.1181   69.1644  225.1408 H   0  0  0  0  0  0  0  0  0  0  0  0
  134.3652   69.5877  223.5407 H   0  0  0  0  0  0  0  0  0  0  0  0
  136.4701   67.1115  222.7988 H   0  0  0  0  0  0  0  0  0  0  0  0
  135.9823   68.3629  221.6970 H   0  0  0  0  0  0  0  0  0  0  0  0
  138.3963   66.8119  221.5239 H   0  0  0  0  0  0  0  0  0  0  0  0
  138.1232   68.3065  220.6125 H   0  0  0  0  0  0  0  0  0  0  0  0
  140.1431   68.0155  222.5463 H   0  0  0  0  0  0  0  0  0  0  0  0
  139.5158   69.5755  222.1434 H   0  0  0  0  0  0  0  0  0  0  0  0
  138.3976   67.6176  224.3674 H   0  0  0  0  0  0  0  0  0  0  0  0
  139.1272   71.2045  223.7786 H   0  0  0  0  0  0  0  0  0  0  0  0
  139.3834   67.7011  226.2239 H   0  0  0  0  0  0  0  0  0  0  0  0
  131.2862   71.3426  227.4357 H   0  0  0  0  0  0  0  0  0  0  0  0
  130.4188   73.5060  228.3271 H   0  0  0  0  0  0  0  0  0  0  0  0
  130.6539   75.9448  228.5946 H   0  0  0  0  0  0  0  0  0  0  0  0
  134.0741   77.9275  226.8424 H   0  0  0  0  0  0  0  0  0  0  0  0
  134.8819   75.7396  225.9813 H   0  0  0  0  0  0  0  0  0  0  0  0
  1  2  2  0
  2  3  1  0
  3  4  1  0
  4  5  1  0
  5  6  2  0
  5  7  1  0
  7  8  1  0
  8  9  1  0
  9 10  1  0
 10 11  1  0
 11 12  1  0
 12 13  2  0
 13 14  1  0
 14 15  2  0
 15 16  1  0
 15 17  1  0
 17 18  1  0
 17 19  2  0
  2 20  1  0
 20 21  2  0
 21 22  1  0
 22 23  2  0
 23 24  1  0
 24 25  2  0
 25 26  1  0
 25 27  1  0
 27 28  2  0
 28 29  1  0
 29 30  2  0
 11  7  1  0
 19 12  1  0
 30 20  1  0
 29 23  1  0
  3 31  1  0
  4 32  1  0
  4 33  1  0
  8 34  1  0
  8 35  1  0
  9 36  1  0
  9 37  1  0
 10 38  1  0
 10 39  1  0
 11 40  1  1
 13 41  1  0
 19 42  1  0
 21 43  1  0
 22 44  1  0
 24 45  1  0
 27 46  1  0
 28 47  1  0
M  END
>  <smiles>  (33) 
O=C(NCC(=O)N1CCC[C@H]1c1cnc(Cl)c(Cl)c1)c1ccc2cc(Cl)ccc2n1

>  <score_type>  (33) 
oracle

>  <origin>  (33) 
autodockgpu

>  <m_score__min__energy>  (33) 
-9.0399999999999991

>  <m_primary>  (33) 
energy

>  <rmsd>  (33) 
8.72472150126429

>  <m_score__min__rmsd>  (33) 
8.72472150126429

>  <meeko>  (33) 
{"free_energy": -8.73, "intermolecular_energy": -10.22, "internal_energy": -1.82, "cluster_size": 5, "cluster_id": 2, "rank_in_cluster": 5}

>  <energy>  (33) 
-8.4

>  <cluster_rmsd>  (33) 
0.0

>  <cluster>  (33) 
4

$$$$

     RDKit          3D

 47 50  0  0  0  0  0  0  0  0999 V2000
  139.1990   71.9410  220.6900 O   0  0  0  0  0  0  0  0  0  0  0  0
  139.3940   72.3420  221.8780 C   0  0  0  0  0  0  0  0  0  0  0  0
  139.4280   73.7350  222.1590 N   0  0  0  0  0  0  0  0  0  0  0  0
  139.2440   74.7040  221.1300 C   0  0  0  0  0  0  0  0  0  0  0  0
  139.9680   75.9940  221.4190 C   0  0  0  0  0  0  0  0  0  0  0  0
  139.9810   76.3440  222.6220 O   0  0  0  0  0  0  0  0  0  0  0  0
  140.5620   76.6960  220.3510 N   0  0  0  0  0  0  0  0  0  0  0  0
  140.1880   78.0710  219.9230 C   0  0  0  0  0  0  0  0  0  0  0  0
  141.5720   78.6840  219.6770 C   0  0  0  0  0  0  0  0  0  0  0  0
  142.5690   77.5180  219.7220 C   0  0  0  0  0  0  0  0  0  0  0  0
  141.6200   76.3620  219.4300 C   0  0  1  0  0  0  0  0  0  0  0  0
  142.2500   75.0670  219.5650 C   0  0  0  0  0  0  0  0  0  0  0  0
  141.6180   73.8900  219.1530 C   0  0  0  0  0  0  0  0  0  0  0  0
  142.1930   72.6830  219.2990 N   0  0  0  0  0  0  0  0  0  0  0  0
  143.4100   72.4990  219.8460 C   0  0  0  0  0  0  0  0  0  0  0  0
  144.0910   70.8940  220.0010 Cl  0  0  0  0  0  0  0  0  0  0  0  0
  144.0720   73.6380  220.2690 C   0  0  0  0  0  0  0  0  0  0  0  0
  145.6500   73.4240  220.9800 Cl  0  0  0  0  0  0  0  0  0  0  0  0
  143.4970   74.9070  220.1290 C   0  0  0  0  0  0  0  0  0  0  0  0
  139.5890   71.3800  222.9680 C   0  0  0  0  0  0  0  0  0  0  0  0
  139.2580   70.0650  222.8070 C   0  0  0  0  0  0  0  0  0  0  0  0
  139.4660   69.2000  223.8790 C   0  0  0  0  0  0  0  0  0  0  0  0
  139.9900   69.6450  225.0760 C   0  0  0  0  0  0  0  0  0  0  0  0
  140.2070   68.8130  226.1580 C   0  0  0  0  0  0  0  0  0  0  0  0
  140.7400   69.3190  227.3440 C   0  0  0  0  0  0  0  0  0  0  0  0
  141.0210   68.2670  228.7290 Cl  0  0  0  0  0  0  0  0  0  0  0  0
  141.0590   70.6740  227.4520 C   0  0  0  0  0  0  0  0  0  0  0  0
  140.8420   71.5050  226.3740 C   0  0  0  0  0  0  0  0  0  0  0  0
  140.3140   70.9950  225.2030 C   0  0  0  0  0  0  0  0  0  0  0  0
  140.0990   71.7820  224.1520 N   0  0  0  0  0  0  0  0  0  0  0  0
  139.5950   74.0100  223.1670 H   0  0  0  0  0  0  0  0  0  0  0  0
  139.6230   74.2906  220.1837 H   0  0  0  0  0  0  0  0  0  0  0  0
  138.1690   74.9291  221.0698 H   0  0  0  0  0  0  0  0  0  0  0  0
  139.5823   78.0582  219.0049 H   0  0  0  0  0  0  0  0  0  0  0  0
  139.5697   78.6205  220.6481 H   0  0  0  0  0  0  0  0  0  0  0  0
  141.6027   79.1745  218.6929 H   0  0  0  0  0  0  0  0  0  0  0  0
  141.8128   79.4475  220.4313 H   0  0  0  0  0  0  0  0  0  0  0  0
  143.3476   77.6142  218.9509 H   0  0  0  0  0  0  0  0  0  0  0  0
  143.1415   77.4282  220.6570 H   0  0  0  0  0  0  0  0  0  0  0  0
  141.2570   76.2559  218.3970 H   0  0  0  0  0  0  0  0  0  0  0  0
  140.6197   73.9531  218.6953 H   0  0  0  0  0  0  0  0  0  0  0  0
  144.0507   75.7921  220.4755 H   0  0  0  0  0  0  0  0  0  0  0  0
  138.8391   69.6992  221.8580 H   0  0  0  0  0  0  0  0  0  0  0  0
  139.2064   68.1367  223.7689 H   0  0  0  0  0  0  0  0  0  0  0  0
  139.9577   67.7442  226.0836 H   0  0  0  0  0  0  0  0  0  0  0  0
  141.4788   71.0738  228.3869 H   0  0  0  0  0  0  0  0  0  0  0  0
  141.0891   72.5745  226.4457 H   0  0  0  0  0  0  0  0  0  0  0  0
  1  2  2  0
  2  3  1  0
  3  4  1  0
  4  5  1  0
  5  6  2  0
  5  7  1  0
  7  8  1  0
  8  9  1  0
  9 10  1  0
 10 11  1  0
 11 12  1  0
 12 13  2  0
 13 14  1  0
 14 15  2  0
 15 16  1  0
 15 17  1  0
 17 18  1  0
 17 19  2  0
  2 20  1  0
 20 21  2  0
 21 22  1  0
 22 23  2  0
 23 24  1  0
 24 25  2  0
 25 26  1  0
 25 27  1  0
 27 28  2  0
 28 29  1  0
 29 30  2  0
 11  7  1  0
 19 12  1  0
 30 20  1  0
 29 23  1  0
  3 31  1  0
  4 32  1  0
  4 33  1  0
  8 34  1  0
  8 35  1  0
  9 36  1  0
  9 37  1  0
 10 38  1  0
 10 39  1  0
 11 40  1  6
 13 41  1  0
 19 42  1  0
 21 43  1  0
 22 44  1  0
 24 45  1  0
 27 46  1  0
 28 47  1  0
M  END
>  <smiles>  (34) 
O=C(NCC(=O)N1CCC[C@H]1c1cnc(Cl)c(Cl)c1)c1ccc2cc(Cl)ccc2n1

>  <score_type>  (34) 
oracle

>  <origin>  (34) 
autodockgpu

>  <m_score__min__energy>  (34) 
-9.0399999999999991

>  <m_primary>  (34) 
energy

>  <rmsd>  (34) 
2.0106202596099427

>  <m_score__min__rmsd>  (34) 
2.0106202596099427

>  <meeko>  (34) 
{"free_energy": -8.16, "intermolecular_energy": -9.65, "internal_energy": -2.22, "cluster_size": 17, "cluster_id": 3, "rank_in_cluster": 14}

>  <energy>  (34) 
-8.23

>  <cluster_rmsd>  (34) 
0.59

>  <cluster>  (34) 
4

$$$$

     RDKit          3D

 47 50  0  0  0  0  0  0  0  0999 V2000
  133.3760   69.8700  226.7750 O   0  0  0  0  0  0  0  0  0  0  0  0
  133.6790   70.9800  226.2410 C   0  0  0  0  0  0  0  0  0  0  0  0
  134.6200   71.0190  225.1760 N   0  0  0  0  0  0  0  0  0  0  0  0
  135.2380   69.8310  224.6880 C   0  0  0  0  0  0  0  0  0  0  0  0
  136.2880   70.1160  223.6450 C   0  0  0  0  0  0  0  0  0  0  0  0
  136.3210   71.2950  223.2240 O   0  0  0  0  0  0  0  0  0  0  0  0
  137.1360   69.0690  223.2290 N   0  0  0  0  0  0  0  0  0  0  0  0
  136.8220   68.1000  222.1450 C   0  0  0  0  0  0  0  0  0  0  0  0
  138.1710   68.0340  221.4170 C   0  0  0  0  0  0  0  0  0  0  0  0
  139.1790   68.7520  222.3240 C   0  0  0  0  0  0  0  0  0  0  0  0
  138.4470   68.6440  223.6550 C   0  0  1  0  0  0  0  0  0  0  0  0
  139.0880   69.3910  224.7140 C   0  0  0  0  0  0  0  0  0  0  0  0
  139.3400   70.7620  224.6040 C   0  0  0  0  0  0  0  0  0  0  0  0
  139.9570   71.4540  225.5790 N   0  0  0  0  0  0  0  0  0  0  0  0
  140.3810   70.9000  226.7310 C   0  0  0  0  0  0  0  0  0  0  0  0
  141.1770   71.8680  227.9530 Cl  0  0  0  0  0  0  0  0  0  0  0  0
  140.1530   69.5440  226.8820 C   0  0  0  0  0  0  0  0  0  0  0  0
  140.6940   68.8050  228.3670 Cl  0  0  0  0  0  0  0  0  0  0  0  0
  139.5130   68.7990  225.8830 C   0  0  0  0  0  0  0  0  0  0  0  0
  133.0680   72.2270  226.7110 C   0  0  0  0  0  0  0  0  0  0  0  0
  131.8900   72.2120  227.4010 C   0  0  0  0  0  0  0  0  0  0  0  0
  131.3590   73.4290  227.8210 C   0  0  0  0  0  0  0  0  0  0  0  0
  131.9960   74.6260  227.5560 C   0  0  0  0  0  0  0  0  0  0  0  0
  131.4960   75.8500  227.9590 C   0  0  0  0  0  0  0  0  0  0  0  0
  132.1830   77.0270  227.6620 C   0  0  0  0  0  0  0  0  0  0  0  0
  131.5540   78.5920  228.1710 Cl  0  0  0  0  0  0  0  0  0  0  0  0
  133.3840   76.9830  226.9530 C   0  0  0  0  0  0  0  0  0  0  0  0
  133.8840   75.7630  226.5500 C   0  0  0  0  0  0  0  0  0  0  0  0
  133.1970   74.6010  226.8490 C   0  0  0  0  0  0  0  0  0  0  0  0
  133.6640   73.4150  226.4680 N   0  0  0  0  0  0  0  0  0  0  0  0
  134.8350   71.9730  224.7690 H   0  0  0  0  0  0  0  0  0  0  0  0
  135.7111   69.3069  225.5315 H   0  0  0  0  0  0  0  0  0  0  0  0
  134.4569   69.2155  224.2179 H   0  0  0  0  0  0  0  0  0  0  0  0
  136.5326   67.1192  222.5504 H   0  0  0  0  0  0  0  0  0  0  0  0
  135.9744   68.3902  221.5068 H   0  0  0  0  0  0  0  0  0  0  0  0
  138.4722   66.9870  221.2652 H   0  0  0  0  0  0  0  0  0  0  0  0
  138.1159   68.5056  220.4248 H   0  0  0  0  0  0  0  0  0  0  0  0
  140.1498   68.2353  222.3472 H   0  0  0  0  0  0  0  0  0  0  0  0
  139.4379   69.7756  222.0155 H   0  0  0  0  0  0  0  0  0  0  0  0
  138.4300   67.6584  224.1431 H   0  0  0  0  0  0  0  0  0  0  0  0
  139.0242   71.2908  223.6926 H   0  0  0  0  0  0  0  0  0  0  0  0
  139.3469   67.7223  226.0347 H   0  0  0  0  0  0  0  0  0  0  0  0
  131.3747   71.2650  227.6191 H   0  0  0  0  0  0  0  0  0  0  0  0
  130.4099   73.4374  228.3769 H   0  0  0  0  0  0  0  0  0  0  0  0
  130.5497   75.8962  228.5179 H   0  0  0  0  0  0  0  0  0  0  0  0
  133.9257   77.9112  226.7183 H   0  0  0  0  0  0  0  0  0  0  0  0
  134.8298   75.7141  225.9904 H   0  0  0  0  0  0  0  0  0  0  0  0
  1  2  2  0
  2  3  1  0
  3  4  1  0
  4  5  1  0
  5  6  2  0
  5  7  1  0
  7  8  1  0
  8  9  1  0
  9 10  1  0
 10 11  1  0
 11 12  1  0
 12 13  2  0
 13 14  1  0
 14 15  2  0
 15 16  1  0
 15 17  1  0
 17 18  1  0
 17 19  2  0
  2 20  1  0
 20 21  2  0
 21 22  1  0
 22 23  2  0
 23 24  1  0
 24 25  2  0
 25 26  1  0
 25 27  1  0
 27 28  2  0
 28 29  1  0
 29 30  2  0
 11  7  1  0
 19 12  1  0
 30 20  1  0
 29 23  1  0
  3 31  1  0
  4 32  1  0
  4 33  1  0
  8 34  1  0
  8 35  1  0
  9 36  1  0
  9 37  1  0
 10 38  1  0
 10 39  1  0
 11 40  1  1
 13 41  1  0
 19 42  1  0
 21 43  1  0
 22 44  1  0
 24 45  1  0
 27 46  1  0
 28 47  1  0
M  END
>  <smiles>  (35) 
O=C(NCC(=O)N1CCC[C@H]1c1cnc(Cl)c(Cl)c1)c1ccc2cc(Cl)ccc2n1

>  <score_type>  (35) 
oracle

>  <origin>  (35) 
autodockgpu

>  <m_score__min__energy>  (35) 
-9.0399999999999991

>  <m_primary>  (35) 
energy

>  <rmsd>  (35) 
8.69856170940149

>  <m_score__min__rmsd>  (35) 
8.69856170940149

>  <meeko>  (35) 
{"free_energy": -8.84, "intermolecular_energy": -10.34, "internal_energy": -1.95, "cluster_size": 5, "cluster_id": 2, "rank_in_cluster": 1}

>  <energy>  (35) 
-8.22

>  <cluster_rmsd>  (35) 
0.92

>  <cluster>  (35) 
4

$$$$

     RDKit          3D

 47 50  0  0  0  0  0  0  0  0999 V2000
  139.4820   72.1630  220.7450 O   0  0  0  0  0  0  0  0  0  0  0  0
  139.5610   72.5230  221.9590 C   0  0  0  0  0  0  0  0  0  0  0  0
  139.4940   73.9040  222.2940 N   0  0  0  0  0  0  0  0  0  0  0  0
  139.3390   74.9040  221.2900 C   0  0  0  0  0  0  0  0  0  0  0  0
  140.3690   75.9990  221.4050 C   0  0  0  0  0  0  0  0  0  0  0  0
  140.7740   76.2350  222.5670 O   0  0  0  0  0  0  0  0  0  0  0  0
  140.7930   76.6610  220.2350 N   0  0  0  0  0  0  0  0  0  0  0  0
  140.3070   77.9930  219.7870 C   0  0  0  0  0  0  0  0  0  0  0  0
  141.6200   78.6440  219.3360 C   0  0  0  0  0  0  0  0  0  0  0  0
  142.6660   77.5200  219.3150 C   0  0  0  0  0  0  0  0  0  0  0  0
  141.7420   76.3140  219.2050 C   0  0  1  0  0  0  0  0  0  0  0  0
  142.4420   75.0550  219.3270 C   0  0  0  0  0  0  0  0  0  0  0  0
  141.9030   73.8600  218.8390 C   0  0  0  0  0  0  0  0  0  0  0  0
  142.5430   72.6830  218.9720 N   0  0  0  0  0  0  0  0  0  0  0  0
  143.7390   72.5500  219.5750 C   0  0  0  0  0  0  0  0  0  0  0  0
  144.5080   70.9830  219.7080 Cl  0  0  0  0  0  0  0  0  0  0  0  0
  144.3090   73.7090  220.0740 C   0  0  0  0  0  0  0  0  0  0  0  0
  145.8590   73.5590  220.8590 Cl  0  0  0  0  0  0  0  0  0  0  0  0
  143.6650   74.9460  219.9500 C   0  0  0  0  0  0  0  0  0  0  0  0
  139.7220   71.5290  223.0240 C   0  0  0  0  0  0  0  0  0  0  0  0
  139.3780   70.2230  222.8200 C   0  0  0  0  0  0  0  0  0  0  0  0
  139.5530   69.3260  223.8700 C   0  0  0  0  0  0  0  0  0  0  0  0
  140.0590   69.7300  225.0900 C   0  0  0  0  0  0  0  0  0  0  0  0
  140.2450   68.8640  226.1510 C   0  0  0  0  0  0  0  0  0  0  0  0
  140.7610   69.3300  227.3610 C   0  0  0  0  0  0  0  0  0  0  0  0
  141.0020   68.2350  228.7200 Cl  0  0  0  0  0  0  0  0  0  0  0  0
  141.0950   70.6760  227.5140 C   0  0  0  0  0  0  0  0  0  0  0  0
  140.9100   71.5410  226.4560 C   0  0  0  0  0  0  0  0  0  0  0  0
  140.3990   71.0710  225.2610 C   0  0  0  0  0  0  0  0  0  0  0  0
  140.2140   71.8900  224.2290 N   0  0  0  0  0  0  0  0  0  0  0  0
  139.5660   74.1450  223.3220 H   0  0  0  0  0  0  0  0  0  0  0  0
  139.4358   74.4304  220.3019 H   0  0  0  0  0  0  0  0  0  0  0  0
  138.3474   75.3613  221.4226 H   0  0  0  0  0  0  0  0  0  0  0  0
  139.5930   77.9041  218.9550 H   0  0  0  0  0  0  0  0  0  0  0  0
  139.7595   78.5589  220.5551 H   0  0  0  0  0  0  0  0  0  0  0  0
  141.5058   79.0783  218.3318 H   0  0  0  0  0  0  0  0  0  0  0  0
  141.9183   79.4586  220.0123 H   0  0  0  0  0  0  0  0  0  0  0  0
  143.3380   77.6018  218.4480 H   0  0  0  0  0  0  0  0  0  0  0  0
  143.3528   77.5052  220.1741 H   0  0  0  0  0  0  0  0  0  0  0  0
  141.2586   76.1339  218.2335 H   0  0  0  0  0  0  0  0  0  0  0  0
  140.9273   73.8826  218.3315 H   0  0  0  0  0  0  0  0  0  0  0  0
  144.1451   75.8477  220.3580 H   0  0  0  0  0  0  0  0  0  0  0  0
  138.9739   69.8893  221.8529 H   0  0  0  0  0  0  0  0  0  0  0  0
  139.2817   68.2699  223.7246 H   0  0  0  0  0  0  0  0  0  0  0  0
  139.9847   67.8009  226.0410 H   0  0  0  0  0  0  0  0  0  0  0  0
  141.5014   71.0432  228.4680 H   0  0  0  0  0  0  0  0  0  0  0  0
  141.1691   72.6047  226.5632 H   0  0  0  0  0  0  0  0  0  0  0  0
  1  2  2  0
  2  3  1  0
  3  4  1  0
  4  5  1  0
  5  6  2  0
  5  7  1  0
  7  8  1  0
  8  9  1  0
  9 10  1  0
 10 11  1  0
 11 12  1  0
 12 13  2  0
 13 14  1  0
 14 15  2  0
 15 16  1  0
 15 17  1  0
 17 18  1  0
 17 19  2  0
  2 20  1  0
 20 21  2  0
 21 22  1  0
 22 23  2  0
 23 24  1  0
 24 25  2  0
 25 26  1  0
 25 27  1  0
 27 28  2  0
 28 29  1  0
 29 30  2  0
 11  7  1  0
 19 12  1  0
 30 20  1  0
 29 23  1  0
  3 31  1  0
  4 32  1  0
  4 33  1  0
  8 34  1  0
  8 35  1  0
  9 36  1  0
  9 37  1  0
 10 38  1  0
 10 39  1  0
 11 40  1  6
 13 41  1  0
 19 42  1  0
 21 43  1  0
 22 44  1  0
 24 45  1  0
 27 46  1  0
 28 47  1  0
M  END
>  <smiles>  (36) 
O=C(NCC(=O)N1CCC[C@H]1c1cnc(Cl)c(Cl)c1)c1ccc2cc(Cl)ccc2n1

>  <score_type>  (36) 
oracle

>  <origin>  (36) 
autodockgpu

>  <m_score__min__energy>  (36) 
-9.0399999999999991

>  <m_primary>  (36) 
energy

>  <rmsd>  (36) 
2.0154553495444127

>  <m_score__min__rmsd>  (36) 
2.0154553495444127

>  <meeko>  (36) 
{"free_energy": -8.32, "intermolecular_energy": -9.81, "internal_energy": -2.1, "cluster_size": 17, "cluster_id": 3, "rank_in_cluster": 6}

>  <energy>  (36) 
-8.17

>  <cluster_rmsd>  (36) 
0.61

>  <cluster>  (36) 
4

$$$$

     RDKit          3D

 47 50  0  0  0  0  0  0  0  0999 V2000
  133.4790   69.8320  226.8110 O   0  0  0  0  0  0  0  0  0  0  0  0
  133.8120   70.9450  226.3030 C   0  0  0  0  0  0  0  0  0  0  0  0
  134.8390   70.9960  225.3200 N   0  0  0  0  0  0  0  0  0  0  0  0
  135.5090   69.8160  224.8850 C   0  0  0  0  0  0  0  0  0  0  0  0
  136.2530   70.0210  223.5910 C   0  0  0  0  0  0  0  0  0  0  0  0
  136.0220   71.1040  223.0040 O   0  0  0  0  0  0  0  0  0  0  0  0
  137.1310   69.0120  223.1430 N   0  0  0  0  0  0  0  0  0  0  0  0
  136.8480   68.0720  222.0260 C   0  0  0  0  0  0  0  0  0  0  0  0
  138.1990   68.0670  221.3020 C   0  0  0  0  0  0  0  0  0  0  0  0
  139.1850   68.7830  222.2360 C   0  0  0  0  0  0  0  0  0  0  0  0
  138.4520   68.6100  223.5600 C   0  0  1  0  0  0  0  0  0  0  0  0
  139.0690   69.3390  224.6460 C   0  0  0  0  0  0  0  0  0  0  0  0
  139.3590   70.7040  224.5490 C   0  0  0  0  0  0  0  0  0  0  0  0
  139.9540   71.3780  225.5500 N   0  0  0  0  0  0  0  0  0  0  0  0
  140.3180   70.8120  226.7160 C   0  0  0  0  0  0  0  0  0  0  0  0
  141.0890   71.7580  227.9710 Cl  0  0  0  0  0  0  0  0  0  0  0  0
  140.0510   69.4610  226.8540 C   0  0  0  0  0  0  0  0  0  0  0  0
  140.5150   68.7070  228.3570 Cl  0  0  0  0  0  0  0  0  0  0  0  0
  139.4330   68.7350  225.8280 C   0  0  0  0  0  0  0  0  0  0  0  0
  133.1510   72.1850  226.7210 C   0  0  0  0  0  0  0  0  0  0  0  0
  131.9400   72.1530  227.3520 C   0  0  0  0  0  0  0  0  0  0  0  0
  131.3610   73.3640  227.7240 C   0  0  0  0  0  0  0  0  0  0  0  0
  131.9810   74.5710  227.4690 C   0  0  0  0  0  0  0  0  0  0  0  0
  131.4330   75.7880  227.8250 C   0  0  0  0  0  0  0  0  0  0  0  0
  132.1070   76.9770  227.5410 C   0  0  0  0  0  0  0  0  0  0  0  0
  131.4170   78.5340  227.9910 Cl  0  0  0  0  0  0  0  0  0  0  0  0
  133.3420   76.9500  226.8920 C   0  0  0  0  0  0  0  0  0  0  0  0
  133.8900   75.7360  226.5360 C   0  0  0  0  0  0  0  0  0  0  0  0
  133.2160   74.5630  226.8220 C   0  0  0  0  0  0  0  0  0  0  0  0
  133.7290   73.3830  226.4860 N   0  0  0  0  0  0  0  0  0  0  0  0
  135.0750   71.9530  224.9320 H   0  0  0  0  0  0  0  0  0  0  0  0
  136.2270   69.5113  225.6607 H   0  0  0  0  0  0  0  0  0  0  0  0
  134.7467   69.0416  224.7141 H   0  0  0  0  0  0  0  0  0  0  0  0
  136.5844   67.0706  222.3971 H   0  0  0  0  0  0  0  0  0  0  0  0
  135.9950   68.3606  221.3943 H   0  0  0  0  0  0  0  0  0  0  0  0
  138.5294   67.0342  221.1174 H   0  0  0  0  0  0  0  0  0  0  0  0
  138.1336   68.5691  220.3255 H   0  0  0  0  0  0  0  0  0  0  0  0
  140.1699   68.2932  222.2456 H   0  0  0  0  0  0  0  0  0  0  0  0
  139.4164   69.8230  221.9625 H   0  0  0  0  0  0  0  0  0  0  0  0
  138.4609   67.6086  224.0151 H   0  0  0  0  0  0  0  0  0  0  0  0
  139.0928   71.2422  223.6273 H   0  0  0  0  0  0  0  0  0  0  0  0
  139.2349   67.6623  225.9695 H   0  0  0  0  0  0  0  0  0  0  0  0
  131.4362   71.1977  227.5606 H   0  0  0  0  0  0  0  0  0  0  0  0
  130.3860   73.3586  228.2333 H   0  0  0  0  0  0  0  0  0  0  0  0
  130.4592   75.8204  228.3356 H   0  0  0  0  0  0  0  0  0  0  0  0
  133.8725   77.8870  226.6669 H   0  0  0  0  0  0  0  0  0  0  0  0
  134.8632   75.7006  226.0245 H   0  0  0  0  0  0  0  0  0  0  0  0
  1  2  2  0
  2  3  1  0
  3  4  1  0
  4  5  1  0
  5  6  2  0
  5  7  1  0
  7  8  1  0
  8  9  1  0
  9 10  1  0
 10 11  1  0
 11 12  1  0
 12 13  2  0
 13 14  1  0
 14 15  2  0
 15 16  1  0
 15 17  1  0
 17 18  1  0
 17 19  2  0
  2 20  1  0
 20 21  2  0
 21 22  1  0
 22 23  2  0
 23 24  1  0
 24 25  2  0
 25 26  1  0
 25 27  1  0
 27 28  2  0
 28 29  1  0
 29 30  2  0
 11  7  1  0
 19 12  1  0
 30 20  1  0
 29 23  1  0
  3 31  1  0
  4 32  1  0
  4 33  1  0
  8 34  1  0
  8 35  1  0
  9 36  1  0
  9 37  1  0
 10 38  1  0
 10 39  1  0
 11 40  1  1
 13 41  1  0
 19 42  1  0
 21 43  1  0
 22 44  1  0
 24 45  1  0
 27 46  1  0
 28 47  1  0
M  END
>  <smiles>  (37) 
O=C(NCC(=O)N1CCC[C@H]1c1cnc(Cl)c(Cl)c1)c1ccc2cc(Cl)ccc2n1

>  <score_type>  (37) 
oracle

>  <origin>  (37) 
autodockgpu

>  <m_score__min__energy>  (37) 
-9.0399999999999991

>  <m_primary>  (37) 
energy

>  <rmsd>  (37) 
8.670594500731326

>  <m_score__min__rmsd>  (37) 
8.670594500731326

>  <meeko>  (37) 
{"free_energy": -8.81, "intermolecular_energy": -10.3, "internal_energy": -1.92, "cluster_size": 5, "cluster_id": 2, "rank_in_cluster": 3}

>  <energy>  (37) 
-8.05

>  <cluster_rmsd>  (37) 
1.87

>  <cluster>  (37) 
4

$$$$

     RDKit          3D

 47 50  0  0  0  0  0  0  0  0999 V2000
  139.2080   72.0660  220.7490 O   0  0  0  0  0  0  0  0  0  0  0  0
  139.3920   72.4450  221.9460 C   0  0  0  0  0  0  0  0  0  0  0  0
  139.4000   73.8330  222.2550 N   0  0  0  0  0  0  0  0  0  0  0  0
  139.2050   74.8190  221.2450 C   0  0  0  0  0  0  0  0  0  0  0  0
  140.0110   76.0680  221.4980 C   0  0  0  0  0  0  0  0  0  0  0  0
  140.1140   76.4070  222.6990 O   0  0  0  0  0  0  0  0  0  0  0  0
  140.5770   76.7470  220.3990 N   0  0  0  0  0  0  0  0  0  0  0  0
  140.2040   78.1180  219.9620 C   0  0  0  0  0  0  0  0  0  0  0  0
  141.5860   78.7120  219.6620 C   0  0  0  0  0  0  0  0  0  0  0  0
  142.5710   77.5350  219.6920 C   0  0  0  0  0  0  0  0  0  0  0  0
  141.6010   76.3860  219.4490 C   0  0  1  0  0  0  0  0  0  0  0  0
  142.2210   75.0860  219.5840 C   0  0  0  0  0  0  0  0  0  0  0  0
  141.5620   73.9100  219.2130 C   0  0  0  0  0  0  0  0  0  0  0  0
  142.1290   72.6990  219.3600 N   0  0  0  0  0  0  0  0  0  0  0  0
  143.3610   72.5110  219.8660 C   0  0  0  0  0  0  0  0  0  0  0  0
  144.0310   70.9010  220.0250 Cl  0  0  0  0  0  0  0  0  0  0  0  0
  144.0510   73.6480  220.2470 C   0  0  0  0  0  0  0  0  0  0  0  0
  145.6500   73.4270  220.9070 Cl  0  0  0  0  0  0  0  0  0  0  0  0
  143.4840   74.9220  220.1070 C   0  0  0  0  0  0  0  0  0  0  0  0
  139.5970   71.4650  223.0160 C   0  0  0  0  0  0  0  0  0  0  0  0
  139.2830   70.1490  222.8290 C   0  0  0  0  0  0  0  0  0  0  0  0
  139.5010   69.2660  223.8840 C   0  0  0  0  0  0  0  0  0  0  0  0
  140.0190   69.6940  225.0910 C   0  0  0  0  0  0  0  0  0  0  0  0
  140.2460   68.8430  226.1560 C   0  0  0  0  0  0  0  0  0  0  0  0
  140.7720   69.3320  227.3520 C   0  0  0  0  0  0  0  0  0  0  0  0
  141.0650   68.2560  228.7160 Cl  0  0  0  0  0  0  0  0  0  0  0  0
  141.0740   70.6880  227.4870 C   0  0  0  0  0  0  0  0  0  0  0  0
  140.8470   71.5380  226.4250 C   0  0  0  0  0  0  0  0  0  0  0  0
  140.3260   71.0440  225.2440 C   0  0  0  0  0  0  0  0  0  0  0  0
  140.1020   71.8490  224.2090 N   0  0  0  0  0  0  0  0  0  0  0  0
  139.5590   74.0900  223.2700 H   0  0  0  0  0  0  0  0  0  0  0  0
  139.5049   74.3954  220.2751 H   0  0  0  0  0  0  0  0  0  0  0  0
  138.1413   75.0993  221.2507 H   0  0  0  0  0  0  0  0  0  0  0  0
  139.5689   78.0976  219.0641 H   0  0  0  0  0  0  0  0  0  0  0  0
  139.6151   78.6854  220.6978 H   0  0  0  0  0  0  0  0  0  0  0  0
  141.5899   79.1878  218.6703 H   0  0  0  0  0  0  0  0  0  0  0  0
  141.8597   79.4838  220.3964 H   0  0  0  0  0  0  0  0  0  0  0  0
  143.3248   77.6108  218.8944 H   0  0  0  0  0  0  0  0  0  0  0  0
  143.1728   77.4525  220.6091 H   0  0  0  0  0  0  0  0  0  0  0  0
  141.2034   76.2676  218.4302 H   0  0  0  0  0  0  0  0  0  0  0  0
  140.5496   73.9771  218.7882 H   0  0  0  0  0  0  0  0  0  0  0  0
  144.0581   75.8064  220.4204 H   0  0  0  0  0  0  0  0  0  0  0  0
  138.8697   69.7965  221.8725 H   0  0  0  0  0  0  0  0  0  0  0  0
  139.2547   68.2020  223.7528 H   0  0  0  0  0  0  0  0  0  0  0  0
  140.0103   67.7728  226.0600 H   0  0  0  0  0  0  0  0  0  0  0  0
  141.4884   71.0743  228.4299 H   0  0  0  0  0  0  0  0  0  0  0  0
  141.0805   72.6089  226.5178 H   0  0  0  0  0  0  0  0  0  0  0  0
  1  2  2  0
  2  3  1  0
  3  4  1  0
  4  5  1  0
  5  6  2  0
  5  7  1  0
  7  8  1  0
  8  9  1  0
  9 10  1  0
 10 11  1  0
 11 12  1  0
 12 13  2  0
 13 14  1  0
 14 15  2  0
 15 16  1  0
 15 17  1  0
 17 18  1  0
 17 19  2  0
  2 20  1  0
 20 21  2  0
 21 22  1  0
 22 23  2  0
 23 24  1  0
 24 25  2  0
 25 26  1  0
 25 27  1  0
 27 28  2  0
 28 29  1  0
 29 30  2  0
 11  7  1  0
 19 12  1  0
 30 20  1  0
 29 23  1  0
  3 31  1  0
  4 32  1  0
  4 33  1  0
  8 34  1  0
  8 35  1  0
  9 36  1  0
  9 37  1  0
 10 38  1  0
 10 39  1  0
 11 40  1  6
 13 41  1  0
 19 42  1  0
 21 43  1  0
 22 44  1  0
 24 45  1  0
 27 46  1  0
 28 47  1  0
M  END
>  <smiles>  (38) 
O=C(NCC(=O)N1CCC[C@H]1c1cnc(Cl)c(Cl)c1)c1ccc2cc(Cl)ccc2n1

>  <score_type>  (38) 
oracle

>  <origin>  (38) 
autodockgpu

>  <m_score__min__energy>  (38) 
-9.0399999999999991

>  <m_primary>  (38) 
energy

>  <rmsd>  (38) 
2.0372471614408454

>  <m_score__min__rmsd>  (38) 
2.0372471614408454

>  <meeko>  (38) 
{"free_energy": -8.22, "intermolecular_energy": -9.72, "internal_energy": -2.23, "cluster_size": 17, "cluster_id": 3, "rank_in_cluster": 11}

>  <energy>  (38) 
-8.03

>  <cluster_rmsd>  (38) 
0.74

>  <cluster>  (38) 
4

$$$$

     RDKit          3D

 47 50  0  0  0  0  0  0  0  0999 V2000
  139.1570   72.0240  220.7430 O   0  0  0  0  0  0  0  0  0  0  0  0
  139.3580   72.4050  221.9360 C   0  0  0  0  0  0  0  0  0  0  0  0
  139.3940   73.7940  222.2390 N   0  0  0  0  0  0  0  0  0  0  0  0
  139.2060   74.7790  221.2260 C   0  0  0  0  0  0  0  0  0  0  0  0
  140.0110   76.0270  221.4820 C   0  0  0  0  0  0  0  0  0  0  0  0
  140.1090   76.3660  222.6840 O   0  0  0  0  0  0  0  0  0  0  0  0
  140.5810   76.7060  220.3860 N   0  0  0  0  0  0  0  0  0  0  0  0
  140.2080   78.0770  219.9460 C   0  0  0  0  0  0  0  0  0  0  0  0
  141.5890   78.6730  219.6520 C   0  0  0  0  0  0  0  0  0  0  0  0
  142.5770   77.4990  219.6890 C   0  0  0  0  0  0  0  0  0  0  0  0
  141.6110   76.3470  219.4410 C   0  0  1  0  0  0  0  0  0  0  0  0
  142.2330   75.0490  219.5810 C   0  0  0  0  0  0  0  0  0  0  0  0
  141.5730   73.8700  219.2210 C   0  0  0  0  0  0  0  0  0  0  0  0
  142.1420   72.6600  219.3710 N   0  0  0  0  0  0  0  0  0  0  0  0
  143.3770   72.4760  219.8730 C   0  0  0  0  0  0  0  0  0  0  0  0
  144.0490   70.8680  220.0370 Cl  0  0  0  0  0  0  0  0  0  0  0  0
  144.0670   73.6170  220.2430 C   0  0  0  0  0  0  0  0  0  0  0  0
  145.6710   73.4010  220.8960 Cl  0  0  0  0  0  0  0  0  0  0  0  0
  143.4990   74.8890  220.0980 C   0  0  0  0  0  0  0  0  0  0  0  0
  139.5580   71.4260  223.0090 C   0  0  0  0  0  0  0  0  0  0  0  0
  139.2220   70.1140  222.8310 C   0  0  0  0  0  0  0  0  0  0  0  0
  139.4340   69.2330  223.8880 C   0  0  0  0  0  0  0  0  0  0  0  0
  139.9680   69.6580  225.0880 C   0  0  0  0  0  0  0  0  0  0  0  0
  140.1910   68.8080  226.1550 C   0  0  0  0  0  0  0  0  0  0  0  0
  140.7340   69.2950  227.3450 C   0  0  0  0  0  0  0  0  0  0  0  0
  141.0220   68.2200  228.7110 Cl  0  0  0  0  0  0  0  0  0  0  0  0
  141.0580   70.6460  227.4720 C   0  0  0  0  0  0  0  0  0  0  0  0
  140.8360   71.4950  226.4080 C   0  0  0  0  0  0  0  0  0  0  0  0
  140.2980   71.0040  225.2330 C   0  0  0  0  0  0  0  0  0  0  0  0
  140.0770   71.8080  224.1960 N   0  0  0  0  0  0  0  0  0  0  0  0
  139.5670   74.0530  223.2510 H   0  0  0  0  0  0  0  0  0  0  0  0
  139.5116   74.3537  220.2586 H   0  0  0  0  0  0  0  0  0  0  0  0
  138.1425   75.0601  221.2247 H   0  0  0  0  0  0  0  0  0  0  0  0
  139.5770   78.0549  219.0452 H   0  0  0  0  0  0  0  0  0  0  0  0
  139.6152   78.6439  220.6789 H   0  0  0  0  0  0  0  0  0  0  0  0
  141.5966   79.1470  218.6594 H   0  0  0  0  0  0  0  0  0  0  0  0
  141.8571   79.4466  220.3866 H   0  0  0  0  0  0  0  0  0  0  0  0
  143.3354   77.5761  218.8960 H   0  0  0  0  0  0  0  0  0  0  0  0
  143.1736   77.4189  220.6097 H   0  0  0  0  0  0  0  0  0  0  0  0
  141.2197   76.2273  218.4199 H   0  0  0  0  0  0  0  0  0  0  0  0
  140.5577   73.9337  218.8024 H   0  0  0  0  0  0  0  0  0  0  0  0
  144.0744   75.7757  220.4025 H   0  0  0  0  0  0  0  0  0  0  0  0
  138.7959   69.7634  221.8794 H   0  0  0  0  0  0  0  0  0  0  0  0
  139.1696   68.1725  223.7639 H   0  0  0  0  0  0  0  0  0  0  0  0
  139.9389   67.7410  226.0657 H   0  0  0  0  0  0  0  0  0  0  0  0
  141.4856   71.0297  228.4100 H   0  0  0  0  0  0  0  0  0  0  0  0
  141.0869   72.5625  226.4943 H   0  0  0  0  0  0  0  0  0  0  0  0
  1  2  2  0
  2  3  1  0
  3  4  1  0
  4  5  1  0
  5  6  2  0
  5  7  1  0
  7  8  1  0
  8  9  1  0
  9 10  1  0
 10 11  1  0
 11 12  1  0
 12 13  2  0
 13 14  1  0
 14 15  2  0
 15 16  1  0
 15 17  1  0
 17 18  1  0
 17 19  2  0
  2 20  1  0
 20 21  2  0
 21 22  1  0
 22 23  2  0
 23 24  1  0
 24 25  2  0
 25 26  1  0
 25 27  1  0
 27 28  2  0
 28 29  1  0
 29 30  2  0
 11  7  1  0
 19 12  1  0
 30 20  1  0
 29 23  1  0
  3 31  1  0
  4 32  1  0
  4 33  1  0
  8 34  1  0
  8 35  1  0
  9 36  1  0
  9 37  1  0
 10 38  1  0
 10 39  1  0
 11 40  1  6
 13 41  1  0
 19 42  1  0
 21 43  1  0
 22 44  1  0
 24 45  1  0
 27 46  1  0
 28 47  1  0
M  END
>  <smiles>  (39) 
O=C(NCC(=O)N1CCC[C@H]1c1cnc(Cl)c(Cl)c1)c1ccc2cc(Cl)ccc2n1

>  <score_type>  (39) 
oracle

>  <origin>  (39) 
autodockgpu

>  <m_score__min__energy>  (39) 
-9.0399999999999991

>  <m_primary>  (39) 
energy

>  <rmsd>  (39) 
2.0156624872167903

>  <m_score__min__rmsd>  (39) 
2.0156624872167903

>  <meeko>  (39) 
{"free_energy": -8.23, "intermolecular_energy": -9.72, "internal_energy": -2.23, "cluster_size": 17, "cluster_id": 3, "rank_in_cluster": 10}

>  <energy>  (39) 
-7.98

>  <cluster_rmsd>  (39) 
1.35

>  <cluster>  (39) 
4

$$$$

     RDKit          3D

 47 50  0  0  0  0  0  0  0  0999 V2000
  138.6150   73.6080  220.3690 O   0  0  0  0  0  0  0  0  0  0  0  0
  138.4830   74.3420  221.3950 C   0  0  0  0  0  0  0  0  0  0  0  0
  137.4610   74.0570  222.3420 N   0  0  0  0  0  0  0  0  0  0  0  0
  136.5720   72.9570  222.1660 C   0  0  0  0  0  0  0  0  0  0  0  0
  137.1010   71.6870  222.7810 C   0  0  0  0  0  0  0  0  0  0  0  0
  136.8200   71.5180  223.9900 O   0  0  0  0  0  0  0  0  0  0  0  0
  137.8510   70.8030  221.9790 N   0  0  0  0  0  0  0  0  0  0  0  0
  137.7820   70.7330  220.4950 C   0  0  0  0  0  0  0  0  0  0  0  0
  139.2680   70.6010  220.1410 C   0  0  0  0  0  0  0  0  0  0  0  0
  139.9980   70.3310  221.4640 C   0  0  0  0  0  0  0  0  0  0  0  0
  138.8360   69.7960  222.2910 C   0  0  1  0  0  0  0  0  0  0  0  0
  139.1790   69.5930  223.6810 C   0  0  0  0  0  0  0  0  0  0  0  0
  138.8310   68.4250  224.3660 C   0  0  0  0  0  0  0  0  0  0  0  0
  139.1290   68.2450  225.6660 N   0  0  0  0  0  0  0  0  0  0  0  0
  139.7790   69.1560  226.4130 C   0  0  0  0  0  0  0  0  0  0  0  0
  140.1310   68.8470  228.1000 Cl  0  0  0  0  0  0  0  0  0  0  0  0
  140.1430   70.3290  225.7750 C   0  0  0  0  0  0  0  0  0  0  0  0
  140.9860   71.5240  226.7250 Cl  0  0  0  0  0  0  0  0  0  0  0  0
  139.8440   70.5430  224.4230 C   0  0  0  0  0  0  0  0  0  0  0  0
  139.3750   75.4840  221.6160 C   0  0  0  0  0  0  0  0  0  0  0  0
  140.6290   75.5080  221.0760 C   0  0  0  0  0  0  0  0  0  0  0  0
  141.4290   76.6210  221.3220 C   0  0  0  0  0  0  0  0  0  0  0  0
  140.9810   77.6780  222.0890 C   0  0  0  0  0  0  0  0  0  0  0  0
  141.7500   78.7960  222.3510 C   0  0  0  0  0  0  0  0  0  0  0  0
  141.2450   79.8350  223.1330 C   0  0  0  0  0  0  0  0  0  0  0  0
  142.2170   81.2640  223.4740 Cl  0  0  0  0  0  0  0  0  0  0  0  0
  139.9550   79.7570  223.6610 C   0  0  0  0  0  0  0  0  0  0  0  0
  139.1860   78.6420  223.4000 C   0  0  0  0  0  0  0  0  0  0  0  0
  139.6960   77.6180  222.6240 C   0  0  0  0  0  0  0  0  0  0  0  0
  138.9690   76.5350  222.3620 N   0  0  0  0  0  0  0  0  0  0  0  0
  137.3980   74.7040  223.1780 H   0  0  0  0  0  0  0  0  0  0  0  0
  135.6085   73.2027  222.6364 H   0  0  0  0  0  0  0  0  0  0  0  0
  136.4606   72.7853  221.0852 H   0  0  0  0  0  0  0  0  0  0  0  0
  137.2068   69.8581  220.1578 H   0  0  0  0  0  0  0  0  0  0  0  0
  137.2769   71.5885  220.0229 H   0  0  0  0  0  0  0  0  0  0  0  0
  139.4214   69.7650  219.4428 H   0  0  0  0  0  0  0  0  0  0  0  0
  139.6469   71.5101  219.6511 H   0  0  0  0  0  0  0  0  0  0  0  0
  140.7961   69.5831  221.3466 H   0  0  0  0  0  0  0  0  0  0  0  0
  140.5183   71.1986  221.8959 H   0  0  0  0  0  0  0  0  0  0  0  0
  138.4811   68.7796  222.0650 H   0  0  0  0  0  0  0  0  0  0  0  0
  138.2974   67.6290  223.8260 H   0  0  0  0  0  0  0  0  0  0  0  0
  140.1460   71.4870  223.9459 H   0  0  0  0  0  0  0  0  0  0  0  0
  140.9970   74.6715  220.4638 H   0  0  0  0  0  0  0  0  0  0  0  0
  142.4420   76.6589  220.8950 H   0  0  0  0  0  0  0  0  0  0  0  0
  142.7678   78.8671  221.9399 H   0  0  0  0  0  0  0  0  0  0  0  0
  139.5563   80.5755  224.2783 H   0  0  0  0  0  0  0  0  0  0  0  0
  138.1676   78.5677  223.8091 H   0  0  0  0  0  0  0  0  0  0  0  0
  1  2  2  0
  2  3  1  0
  3  4  1  0
  4  5  1  0
  5  6  2  0
  5  7  1  0
  7  8  1  0
  8  9  1  0
  9 10  1  0
 10 11  1  0
 11 12  1  0
 12 13  2  0
 13 14  1  0
 14 15  2  0
 15 16  1  0
 15 17  1  0
 17 18  1  0
 17 19  2  0
  2 20  1  0
 20 21  2  0
 21 22  1  0
 22 23  2  0
 23 24  1  0
 24 25  2  0
 25 26  1  0
 25 27  1  0
 27 28  2  0
 28 29  1  0
 29 30  2  0
 11  7  1  0
 19 12  1  0
 30 20  1  0
 29 23  1  0
  3 31  1  0
  4 32  1  0
  4 33  1  0
  8 34  1  0
  8 35  1  0
  9 36  1  0
  9 37  1  0
 10 38  1  0
 10 39  1  0
 11 40  1  6
 13 41  1  0
 19 42  1  0
 21 43  1  0
 22 44  1  0
 24 45  1  0
 27 46  1  0
 28 47  1  0
M  END
>  <smiles>  (40) 
O=C(NCC(=O)N1CCC[C@H]1c1cnc(Cl)c(Cl)c1)c1ccc2cc(Cl)ccc2n1

>  <score_type>  (40) 
oracle

>  <origin>  (40) 
autodockgpu

>  <m_score__min__energy>  (40) 
-9.0399999999999991

>  <m_primary>  (40) 
energy

>  <rmsd>  (40) 
7.27410304432915

>  <m_score__min__rmsd>  (40) 
7.27410304432915

>  <meeko>  (40) 
{"free_energy": -7.98, "intermolecular_energy": -9.47, "internal_energy": -1.84, "cluster_size": 10, "cluster_id": 4, "rank_in_cluster": 7}

>  <energy>  (40) 
-7.88

>  <cluster_rmsd>  (40) 
1.62

>  <cluster>  (40) 
4

$$$$

     RDKit          3D

 47 50  0  0  0  0  0  0  0  0999 V2000
  138.5860   72.5750  220.6050 O   0  0  0  0  0  0  0  0  0  0  0  0
  138.3190   73.3690  221.5570 C   0  0  0  0  0  0  0  0  0  0  0  0
  137.1820   73.1310  222.3790 N   0  0  0  0  0  0  0  0  0  0  0  0
  136.3280   72.0120  222.1580 C   0  0  0  0  0  0  0  0  0  0  0  0
  136.4930   70.9460  223.2110 C   0  0  0  0  0  0  0  0  0  0  0  0
  135.9760   71.2050  224.3220 O   0  0  0  0  0  0  0  0  0  0  0  0
  137.1950   69.7680  222.8830 N   0  0  0  0  0  0  0  0  0  0  0  0
  136.7830   68.7950  221.8370 C   0  0  0  0  0  0  0  0  0  0  0  0
  138.1320   68.4980  221.1710 C   0  0  0  0  0  0  0  0  0  0  0  0
  139.2020   69.1150  222.0820 C   0  0  0  0  0  0  0  0  0  0  0  0
  138.4160   69.1860  223.3850 C   0  0  1  0  0  0  0  0  0  0  0  0
  139.1220   69.8930  224.4320 C   0  0  0  0  0  0  0  0  0  0  0  0
  139.7360   71.1280  224.2050 C   0  0  0  0  0  0  0  0  0  0  0  0
  140.4120   71.7750  225.1720 N   0  0  0  0  0  0  0  0  0  0  0  0
  140.5570   71.3020  226.4230 C   0  0  0  0  0  0  0  0  0  0  0  0
  141.4520   72.2050  227.6270 Cl  0  0  0  0  0  0  0  0  0  0  0  0
  139.9640   70.0810  226.6920 C   0  0  0  0  0  0  0  0  0  0  0  0
  140.1380   69.4490  228.3080 Cl  0  0  0  0  0  0  0  0  0  0  0  0
  139.2550   69.3850  225.7050 C   0  0  0  0  0  0  0  0  0  0  0  0
  139.1690   74.5330  221.8210 C   0  0  0  0  0  0  0  0  0  0  0  0
  140.5140   74.4830  221.5910 C   0  0  0  0  0  0  0  0  0  0  0  0
  141.2700   75.6210  221.8610 C   0  0  0  0  0  0  0  0  0  0  0  0
  140.6890   76.7760  222.3470 C   0  0  0  0  0  0  0  0  0  0  0  0
  141.4110   77.9220  222.6250 C   0  0  0  0  0  0  0  0  0  0  0  0
  140.7700   79.0600  223.1160 C   0  0  0  0  0  0  0  0  0  0  0  0
  141.6800   80.5250  223.4730 Cl  0  0  0  0  0  0  0  0  0  0  0  0
  139.3910   79.0540  223.3320 C   0  0  0  0  0  0  0  0  0  0  0  0
  138.6700   77.9120  223.0560 C   0  0  0  0  0  0  0  0  0  0  0  0
  139.3130   76.7890  222.5700 C   0  0  0  0  0  0  0  0  0  0  0  0
  138.6340   75.6780  222.2970 N   0  0  0  0  0  0  0  0  0  0  0  0
  137.0080   73.8270  223.1570 H   0  0  0  0  0  0  0  0  0  0  0  0
  135.2837   72.3576  222.1659 H   0  0  0  0  0  0  0  0  0  0  0  0
  136.5990   71.5698  221.1879 H   0  0  0  0  0  0  0  0  0  0  0  0
  136.3416   67.8892  222.2784 H   0  0  0  0  0  0  0  0  0  0  0  0
  136.0086   69.1667  221.1498 H   0  0  0  0  0  0  0  0  0  0  0  0
  138.2842   67.4120  221.0848 H   0  0  0  0  0  0  0  0  0  0  0  0
  138.1793   68.9170  220.1550 H   0  0  0  0  0  0  0  0  0  0  0  0
  140.0868   68.4677  222.1718 H   0  0  0  0  0  0  0  0  0  0  0  0
  139.6166   70.0725  221.7337 H   0  0  0  0  0  0  0  0  0  0  0  0
  138.2401   68.2417  223.9210 H   0  0  0  0  0  0  0  0  0  0  0  0
  139.6645   71.5843  223.2067 H   0  0  0  0  0  0  0  0  0  0  0  0
  138.7965   68.4158  225.9509 H   0  0  0  0  0  0  0  0  0  0  0  0
  140.9874   73.5690  221.2031 H   0  0  0  0  0  0  0  0  0  0  0  0
  142.3553   75.5995  221.6830 H   0  0  0  0  0  0  0  0  0  0  0  0
  142.4981   77.9367  222.4579 H   0  0  0  0  0  0  0  0  0  0  0  0
  138.8850   79.9510  223.7184 H   0  0  0  0  0  0  0  0  0  0  0  0
  137.5828   77.8944  223.2225 H   0  0  0  0  0  0  0  0  0  0  0  0
  1  2  2  0
  2  3  1  0
  3  4  1  0
  4  5  1  0
  5  6  2  0
  5  7  1  0
  7  8  1  0
  8  9  1  0
  9 10  1  0
 10 11  1  0
 11 12  1  0
 12 13  2  0
 13 14  1  0
 14 15  2  0
 15 16  1  0
 15 17  1  0
 17 18  1  0
 17 19  2  0
  2 20  1  0
 20 21  2  0
 21 22  1  0
 22 23  2  0
 23 24  1  0
 24 25  2  0
 25 26  1  0
 25 27  1  0
 27 28  2  0
 28 29  1  0
 29 30  2  0
 11  7  1  0
 19 12  1  0
 30 20  1  0
 29 23  1  0
  3 31  1  0
  4 32  1  0
  4 33  1  0
  8 34  1  0
  8 35  1  0
  9 36  1  0
  9 37  1  0
 10 38  1  0
 10 39  1  0
 11 40  1  1
 13 41  1  0
 19 42  1  0
 21 43  1  0
 22 44  1  0
 24 45  1  0
 27 46  1  0
 28 47  1  0
M  END
>  <smiles>  (41) 
O=C(NCC(=O)N1CCC[C@H]1c1cnc(Cl)c(Cl)c1)c1ccc2cc(Cl)ccc2n1

>  <score_type>  (41) 
oracle

>  <origin>  (41) 
autodockgpu

>  <m_score__min__energy>  (41) 
-9.0399999999999991

>  <m_primary>  (41) 
energy

>  <rmsd>  (41) 
7.511422878970508

>  <m_score__min__rmsd>  (41) 
7.511422878970508

>  <meeko>  (41) 
{"free_energy": -8.05, "intermolecular_energy": -9.54, "internal_energy": -1.98, "cluster_size": 10, "cluster_id": 4, "rank_in_cluster": 5}

>  <energy>  (41) 
-7.83

>  <cluster_rmsd>  (41) 
0.74

>  <cluster>  (41) 
4

$$$$

     RDKit          3D

 47 50  0  0  0  0  0  0  0  0999 V2000
  139.3050   71.9070  220.7510 O   0  0  0  0  0  0  0  0  0  0  0  0
  139.4370   72.2960  221.9510 C   0  0  0  0  0  0  0  0  0  0  0  0
  139.4320   73.6860  222.2500 N   0  0  0  0  0  0  0  0  0  0  0  0
  139.2780   74.6650  221.2250 C   0  0  0  0  0  0  0  0  0  0  0  0
  140.0810   75.9110  221.4960 C   0  0  0  0  0  0  0  0  0  0  0  0
  140.2140   76.2120  222.7050 O   0  0  0  0  0  0  0  0  0  0  0  0
  140.6110   76.6300  220.4050 N   0  0  0  0  0  0  0  0  0  0  0  0
  140.1990   78.0030  220.0100 C   0  0  0  0  0  0  0  0  0  0  0  0
  141.5610   78.6360  219.7000 C   0  0  0  0  0  0  0  0  0  0  0  0
  142.5730   77.4820  219.6820 C   0  0  0  0  0  0  0  0  0  0  0  0
  141.6250   76.3170  219.4280 C   0  0  1  0  0  0  0  0  0  0  0  0
  142.2770   75.0290  219.5190 C   0  0  0  0  0  0  0  0  0  0  0  0
  141.6610   73.8560  219.0700 C   0  0  0  0  0  0  0  0  0  0  0  0
  142.2570   72.6540  219.1750 N   0  0  0  0  0  0  0  0  0  0  0  0
  143.4790   72.4730  219.7110 C   0  0  0  0  0  0  0  0  0  0  0  0
  144.1880   70.8760  219.8110 Cl  0  0  0  0  0  0  0  0  0  0  0  0
  144.1250   73.6090  220.1680 C   0  0  0  0  0  0  0  0  0  0  0  0
  145.7090   73.3970  220.8660 Cl  0  0  0  0  0  0  0  0  0  0  0  0
  143.5280   74.8720  220.0720 C   0  0  0  0  0  0  0  0  0  0  0  0
  139.5980   71.3250  223.0370 C   0  0  0  0  0  0  0  0  0  0  0  0
  139.2120   70.0240  222.8760 C   0  0  0  0  0  0  0  0  0  0  0  0
  139.3900   69.1490  223.9440 C   0  0  0  0  0  0  0  0  0  0  0  0
  139.9400   69.5690  225.1390 C   0  0  0  0  0  0  0  0  0  0  0  0
  140.1290   68.7250  226.2170 C   0  0  0  0  0  0  0  0  0  0  0  0
  140.6910   69.2060  227.4010 C   0  0  0  0  0  0  0  0  0  0  0  0
  140.9370   68.1390  228.7810 Cl  0  0  0  0  0  0  0  0  0  0  0  0
  141.0670   70.5450  227.5100 C   0  0  0  0  0  0  0  0  0  0  0  0
  140.8790   71.3880  226.4350 C   0  0  0  0  0  0  0  0  0  0  0  0
  140.3220   70.9030  225.2670 C   0  0  0  0  0  0  0  0  0  0  0  0
  140.1330   71.7010  224.2190 N   0  0  0  0  0  0  0  0  0  0  0  0
  139.5470   73.9510  223.2680 H   0  0  0  0  0  0  0  0  0  0  0  0
  139.6096   74.2317  220.2699 H   0  0  0  0  0  0  0  0  0  0  0  0
  138.2163   74.9508  221.1907 H   0  0  0  0  0  0  0  0  0  0  0  0
  139.5476   77.9906  219.1237 H   0  0  0  0  0  0  0  0  0  0  0  0
  139.6116   78.5380  220.7708 H   0  0  0  0  0  0  0  0  0  0  0  0
  141.5353   79.1364  218.7208 H   0  0  0  0  0  0  0  0  0  0  0  0
  141.8308   79.3953  220.4488 H   0  0  0  0  0  0  0  0  0  0  0  0
  143.3095   77.5952  218.8728 H   0  0  0  0  0  0  0  0  0  0  0  0
  143.1939   77.3908  220.5854 H   0  0  0  0  0  0  0  0  0  0  0  0
  141.2112   76.2149  218.4139 H   0  0  0  0  0  0  0  0  0  0  0  0
  140.6601   73.9180  218.6179 H   0  0  0  0  0  0  0  0  0  0  0  0
  144.0682   75.7546  220.4451 H   0  0  0  0  0  0  0  0  0  0  0  0
  138.7728   69.6778  221.9288 H   0  0  0  0  0  0  0  0  0  0  0  0
  139.0852   68.0979  223.8333 H   0  0  0  0  0  0  0  0  0  0  0  0
  139.8348   67.6678  226.1416 H   0  0  0  0  0  0  0  0  0  0  0  0
  141.5087   70.9242  228.4433 H   0  0  0  0  0  0  0  0  0  0  0  0
  141.1722   72.4458  226.5072 H   0  0  0  0  0  0  0  0  0  0  0  0
  1  2  2  0
  2  3  1  0
  3  4  1  0
  4  5  1  0
  5  6  2  0
  5  7  1  0
  7  8  1  0
  8  9  1  0
  9 10  1  0
 10 11  1  0
 11 12  1  0
 12 13  2  0
 13 14  1  0
 14 15  2  0
 15 16  1  0
 15 17  1  0
 17 18  1  0
 17 19  2  0
  2 20  1  0
 20 21  2  0
 21 22  1  0
 22 23  2  0
 23 24  1  0
 24 25  2  0
 25 26  1  0
 25 27  1  0
 27 28  2  0
 28 29  1  0
 29 30  2  0
 11  7  1  0
 19 12  1  0
 30 20  1  0
 29 23  1  0
  3 31  1  0
  4 32  1  0
  4 33  1  0
  8 34  1  0
  8 35  1  0
  9 36  1  0
  9 37  1  0
 10 38  1  0
 10 39  1  0
 11 40  1  6
 13 41  1  0
 19 42  1  0
 21 43  1  0
 22 44  1  0
 24 45  1  0
 27 46  1  0
 28 47  1  0
M  END
>  <smiles>  (42) 
O=C(NCC(=O)N1CCC[C@H]1c1cnc(Cl)c(Cl)c1)c1ccc2cc(Cl)ccc2n1

>  <score_type>  (42) 
oracle

>  <origin>  (42) 
autodockgpu

>  <m_score__min__energy>  (42) 
-9.0399999999999991

>  <m_primary>  (42) 
energy

>  <rmsd>  (42) 
1.9845439423089062

>  <m_score__min__rmsd>  (42) 
1.9845439423089062

>  <meeko>  (42) 
{"free_energy": -8.24, "intermolecular_energy": -9.73, "internal_energy": -2.2, "cluster_size": 17, "cluster_id": 3, "rank_in_cluster": 9}

>  <energy>  (42) 
-7.76

>  <cluster_rmsd>  (42) 
0.8

>  <cluster>  (42) 
4

$$$$

     RDKit          3D

 47 50  0  0  0  0  0  0  0  0999 V2000
  138.9010   72.1250  220.8080 O   0  0  0  0  0  0  0  0  0  0  0  0
  139.1920   72.5000  221.9840 C   0  0  0  0  0  0  0  0  0  0  0  0
  139.2980   73.8870  222.2790 N   0  0  0  0  0  0  0  0  0  0  0  0
  139.0830   74.8770  221.2760 C   0  0  0  0  0  0  0  0  0  0  0  0
  140.0000   76.0630  221.4330 C   0  0  0  0  0  0  0  0  0  0  0  0
  139.5490   77.0020  222.1310 O   0  0  0  0  0  0  0  0  0  0  0  0
  141.2620   76.0350  220.8060 N   0  0  0  0  0  0  0  0  0  0  0  0
  141.9440   74.8060  220.3210 C   0  0  0  0  0  0  0  0  0  0  0  0
  142.4830   75.2890  218.9680 C   0  0  0  0  0  0  0  0  0  0  0  0
  142.2910   76.8120  218.9530 C   0  0  0  0  0  0  0  0  0  0  0  0
  142.2000   77.0720  220.4510 C   0  0  1  0  0  0  0  0  0  0  0  0
  141.8480   78.4390  220.7660 C   0  0  0  0  0  0  0  0  0  0  0  0
  141.2050   79.2680  219.8410 C   0  0  0  0  0  0  0  0  0  0  0  0
  140.8980   80.5470  220.1250 N   0  0  0  0  0  0  0  0  0  0  0  0
  141.1750   81.1360  221.3030 C   0  0  0  0  0  0  0  0  0  0  0  0
  140.7420   82.8070  221.5960 Cl  0  0  0  0  0  0  0  0  0  0  0  0
  141.8130   80.3510  222.2480 C   0  0  0  0  0  0  0  0  0  0  0  0
  142.1820   81.0940  223.7820 Cl  0  0  0  0  0  0  0  0  0  0  0  0
  142.1450   79.0170  221.9800 C   0  0  0  0  0  0  0  0  0  0  0  0
  139.4230   71.5170  223.0470 C   0  0  0  0  0  0  0  0  0  0  0  0
  139.0690   70.2080  222.8770 C   0  0  0  0  0  0  0  0  0  0  0  0
  139.3120   69.3210  223.9230 C   0  0  0  0  0  0  0  0  0  0  0  0
  139.8950   69.7380  225.1040 C   0  0  0  0  0  0  0  0  0  0  0  0
  140.1500   68.8830  226.1590 C   0  0  0  0  0  0  0  0  0  0  0  0
  140.7420   69.3610  227.3290 C   0  0  0  0  0  0  0  0  0  0  0  0
  141.0710   68.2790  228.6800 Cl  0  0  0  0  0  0  0  0  0  0  0  0
  141.0830   70.7090  227.4470 C   0  0  0  0  0  0  0  0  0  0  0  0
  140.8280   71.5630  226.3950 C   0  0  0  0  0  0  0  0  0  0  0  0
  140.2420   71.0810  225.2400 C   0  0  0  0  0  0  0  0  0  0  0  0
  139.9900   71.8900  224.2140 N   0  0  0  0  0  0  0  0  0  0  0  0
  139.5440   74.1410  223.2770 H   0  0  0  0  0  0  0  0  0  0  0  0
  139.2576   74.4237  220.2891 H   0  0  0  0  0  0  0  0  0  0  0  0
  138.0486   75.2373  221.3768 H   0  0  0  0  0  0  0  0  0  0  0  0
  142.7580   74.5021  220.9956 H   0  0  0  0  0  0  0  0  0  0  0  0
  141.2956   73.9194  220.2619 H   0  0  0  0  0  0  0  0  0  0  0  0
  143.5494   75.0376  218.8700 H   0  0  0  0  0  0  0  0  0  0  0  0
  141.9555   74.8090  218.1305 H   0  0  0  0  0  0  0  0  0  0  0  0
  143.1492   77.3288  218.4988 H   0  0  0  0  0  0  0  0  0  0  0  0
  141.4331   77.1687  218.3642 H   0  0  0  0  0  0  0  0  0  0  0  0
  143.1321   77.0098  221.0319 H   0  0  0  0  0  0  0  0  0  0  0  0
  140.9426   78.8627  218.8526 H   0  0  0  0  0  0  0  0  0  0  0  0
  142.6519   78.4206  222.7529 H   0  0  0  0  0  0  0  0  0  0  0  0
  138.6052   69.8646  221.9405 H   0  0  0  0  0  0  0  0  0  0  0  0
  139.0331   68.2634  223.8060 H   0  0  0  0  0  0  0  0  0  0  0  0
  139.8847   67.8187  226.0762 H   0  0  0  0  0  0  0  0  0  0  0  0
  141.5499   71.0860  228.3689 H   0  0  0  0  0  0  0  0  0  0  0  0
  141.0910   72.6281  226.4751 H   0  0  0  0  0  0  0  0  0  0  0  0
  1  2  2  0
  2  3  1  0
  3  4  1  0
  4  5  1  0
  5  6  2  0
  5  7  1  0
  7  8  1  0
  8  9  1  0
  9 10  1  0
 10 11  1  0
 11 12  1  0
 12 13  2  0
 13 14  1  0
 14 15  2  0
 15 16  1  0
 15 17  1  0
 17 18  1  0
 17 19  2  0
  2 20  1  0
 20 21  2  0
 21 22  1  0
 22 23  2  0
 23 24  1  0
 24 25  2  0
 25 26  1  0
 25 27  1  0
 27 28  2  0
 28 29  1  0
 29 30  2  0
 11  7  1  0
 19 12  1  0
 30 20  1  0
 29 23  1  0
  3 31  1  0
  4 32  1  0
  4 33  1  0
  8 34  1  0
  8 35  1  0
  9 36  1  0
  9 37  1  0
 10 38  1  0
 10 39  1  0
 11 40  1  1
 13 41  1  0
 19 42  1  0
 21 43  1  0
 22 44  1  0
 24 45  1  0
 27 46  1  0
 28 47  1  0
M  END
>  <smiles>  (43) 
O=C(NCC(=O)N1CCC[C@H]1c1cnc(Cl)c(Cl)c1)c1ccc2cc(Cl)ccc2n1

>  <score_type>  (43) 
oracle

>  <origin>  (43) 
autodockgpu

>  <m_score__min__energy>  (43) 
-9.0399999999999991

>  <m_primary>  (43) 
energy

>  <rmsd>  (43) 
1.8306997406491476

>  <m_score__min__rmsd>  (43) 
1.8306997406491476

>  <meeko>  (43) 
{"free_energy": -8.79, "intermolecular_energy": -10.28, "internal_energy": -1.6, "cluster_size": 10, "cluster_id": 1, "rank_in_cluster": 3}

>  <energy>  (43) 
-7.97

>  <cluster_rmsd>  (43) 
0.0

>  <cluster>  (43) 
5

$$$$

     RDKit          3D

 47 50  0  0  0  0  0  0  0  0999 V2000
  133.5210   70.1010  226.5580 O   0  0  0  0  0  0  0  0  0  0  0  0
  133.5830   71.2070  225.9380 C   0  0  0  0  0  0  0  0  0  0  0  0
  134.2020   71.2680  224.6590 N   0  0  0  0  0  0  0  0  0  0  0  0
  134.7580   70.1060  224.0480 C   0  0  0  0  0  0  0  0  0  0  0  0
  136.1990   69.8880  224.4340 C   0  0  0  0  0  0  0  0  0  0  0  0
  136.3890   69.5260  225.6180 O   0  0  0  0  0  0  0  0  0  0  0  0
  137.2020   70.0980  223.4660 N   0  0  0  0  0  0  0  0  0  0  0  0
  136.9550   70.5300  222.0640 C   0  0  0  0  0  0  0  0  0  0  0  0
  138.0690   71.5660  221.8800 C   0  0  0  0  0  0  0  0  0  0  0  0
  138.9980   71.4140  223.0920 C   0  0  0  0  0  0  0  0  0  0  0  0
  138.6400   69.9930  223.5090 C   0  0  1  0  0  0  0  0  0  0  0  0
  139.2520   69.6010  224.7600 C   0  0  0  0  0  0  0  0  0  0  0  0
  139.3110   68.2640  225.1660 C   0  0  0  0  0  0  0  0  0  0  0  0
  139.8600   67.9000  226.3400 N   0  0  0  0  0  0  0  0  0  0  0  0
  140.3930   68.7730  227.2150 C   0  0  0  0  0  0  0  0  0  0  0  0
  141.0890   68.2200  228.7230 Cl  0  0  0  0  0  0  0  0  0  0  0  0
  140.3550   70.1080  226.8520 C   0  0  0  0  0  0  0  0  0  0  0  0
  141.0400   71.2570  227.9720 Cl  0  0  0  0  0  0  0  0  0  0  0  0
  139.7900   70.5150  225.6370 C   0  0  0  0  0  0  0  0  0  0  0  0
  133.0260   72.4270  226.5290 C   0  0  0  0  0  0  0  0  0  0  0  0
  131.8860   72.3820  227.2800 C   0  0  0  0  0  0  0  0  0  0  0  0
  131.4040   73.5750  227.8150 C   0  0  0  0  0  0  0  0  0  0  0  0
  132.0500   74.7760  227.6000 C   0  0  0  0  0  0  0  0  0  0  0  0
  131.5980   75.9760  228.1160 C   0  0  0  0  0  0  0  0  0  0  0  0
  132.2920   77.1600  227.8660 C   0  0  0  0  0  0  0  0  0  0  0  0
  131.7240   78.6950  228.5190 Cl  0  0  0  0  0  0  0  0  0  0  0  0
  133.4530   77.1470  227.0900 C   0  0  0  0  0  0  0  0  0  0  0  0
  133.9050   75.9500  226.5740 C   0  0  0  0  0  0  0  0  0  0  0  0
  133.2100   74.7820  226.8280 C   0  0  0  0  0  0  0  0  0  0  0  0
  133.6320   73.6190  226.3390 N   0  0  0  0  0  0  0  0  0  0  0  0
  134.2260   72.2160  224.1900 H   0  0  0  0  0  0  0  0  0  0  0  0
  134.1722   69.2285  224.3592 H   0  0  0  0  0  0  0  0  0  0  0  0
  134.7205   70.2494  222.9580 H   0  0  0  0  0  0  0  0  0  0  0  0
  137.0606   69.6929  221.3583 H   0  0  0  0  0  0  0  0  0  0  0  0
  135.9413   70.9147  221.8787 H   0  0  0  0  0  0  0  0  0  0  0  0
  138.6215   71.3709  220.9490 H   0  0  0  0  0  0  0  0  0  0  0  0
  137.6616   72.5855  221.8121 H   0  0  0  0  0  0  0  0  0  0  0  0
  140.0575   71.5041  222.8104 H   0  0  0  0  0  0  0  0  0  0  0  0
  138.8734   72.1764  223.8751 H   0  0  0  0  0  0  0  0  0  0  0  0
  139.0187   69.1723  222.8820 H   0  0  0  0  0  0  0  0  0  0  0  0
  138.8967   67.4871  224.5067 H   0  0  0  0  0  0  0  0  0  0  0  0
  139.7760   71.5842  225.3790 H   0  0  0  0  0  0  0  0  0  0  0  0
  131.3630   71.4307  227.4575 H   0  0  0  0  0  0  0  0  0  0  0  0
  130.4873   73.5594  228.4229 H   0  0  0  0  0  0  0  0  0  0  0  0
  130.6844   75.9975  228.7282 H   0  0  0  0  0  0  0  0  0  0  0  0
  134.0007   78.0803  226.8925 H   0  0  0  0  0  0  0  0  0  0  0  0
  134.8179   75.9248  225.9608 H   0  0  0  0  0  0  0  0  0  0  0  0
  1  2  2  0
  2  3  1  0
  3  4  1  0
  4  5  1  0
  5  6  2  0
  5  7  1  0
  7  8  1  0
  8  9  1  0
  9 10  1  0
 10 11  1  0
 11 12  1  0
 12 13  2  0
 13 14  1  0
 14 15  2  0
 15 16  1  0
 15 17  1  0
 17 18  1  0
 17 19  2  0
  2 20  1  0
 20 21  2  0
 21 22  1  0
 22 23  2  0
 23 24  1  0
 24 25  2  0
 25 26  1  0
 25 27  1  0
 27 28  2  0
 28 29  1  0
 29 30  2  0
 11  7  1  0
 19 12  1  0
 30 20  1  0
 29 23  1  0
  3 31  1  0
  4 32  1  0
  4 33  1  0
  8 34  1  0
  8 35  1  0
  9 36  1  0
  9 37  1  0
 10 38  1  0
 10 39  1  0
 11 40  1  6
 13 41  1  0
 19 42  1  0
 21 43  1  0
 22 44  1  0
 24 45  1  0
 27 46  1  0
 28 47  1  0
M  END
>  <smiles>  (44) 
O=C(NCC(=O)N1CCC[C@H]1c1cnc(Cl)c(Cl)c1)c1ccc2cc(Cl)ccc2n1

>  <score_type>  (44) 
oracle

>  <origin>  (44) 
autodockgpu

>  <m_score__min__energy>  (44) 
-9.0399999999999991

>  <m_primary>  (44) 
energy

>  <rmsd>  (44) 
8.144254180431073

>  <m_score__min__rmsd>  (44) 
8.144254180431073

>  <meeko>  (44) 
{"free_energy": -8.78, "intermolecular_energy": -10.27, "internal_energy": -1.43, "cluster_size": 5, "cluster_id": 2, "rank_in_cluster": 4}

>  <energy>  (44) 
-7.77

>  <cluster_rmsd>  (44) 
0.46

>  <cluster>  (44) 
5

$$$$

     RDKit          3D

 47 50  0  0  0  0  0  0  0  0999 V2000
  140.5090   72.4920  220.8040 O   0  0  0  0  0  0  0  0  0  0  0  0
  139.9320   72.7150  221.9110 C   0  0  0  0  0  0  0  0  0  0  0  0
  139.2560   73.9490  222.1200 N   0  0  0  0  0  0  0  0  0  0  0  0
  139.2110   74.9510  221.1080 C   0  0  0  0  0  0  0  0  0  0  0  0
  140.1560   76.0930  221.3860 C   0  0  0  0  0  0  0  0  0  0  0  0
  139.7300   76.9590  222.1850 O   0  0  0  0  0  0  0  0  0  0  0  0
  141.4130   76.1060  220.7490 N   0  0  0  0  0  0  0  0  0  0  0  0
  142.1590   74.8960  220.3120 C   0  0  0  0  0  0  0  0  0  0  0  0
  142.6620   75.3480  218.9360 C   0  0  0  0  0  0  0  0  0  0  0  0
  142.3870   76.8550  218.8550 C   0  0  0  0  0  0  0  0  0  0  0  0
  142.2910   77.1760  220.3420 C   0  0  1  0  0  0  0  0  0  0  0  0
  141.8670   78.5340  220.6000 C   0  0  0  0  0  0  0  0  0  0  0  0
  141.8230   79.0620  221.8940 C   0  0  0  0  0  0  0  0  0  0  0  0
  141.4070   80.3180  222.1380 N   0  0  0  0  0  0  0  0  0  0  0  0
  141.0030   81.1680  221.1760 C   0  0  0  0  0  0  0  0  0  0  0  0
  140.4750   82.7890  221.5730 Cl  0  0  0  0  0  0  0  0  0  0  0  0
  141.0300   80.6870  219.8780 C   0  0  0  0  0  0  0  0  0  0  0  0
  140.5100   81.7720  218.6150 Cl  0  0  0  0  0  0  0  0  0  0  0  0
  141.4580   79.3830  219.5960 C   0  0  0  0  0  0  0  0  0  0  0  0
  139.9540   71.7140  222.9810 C   0  0  0  0  0  0  0  0  0  0  0  0
  139.4880   70.4480  222.7630 C   0  0  0  0  0  0  0  0  0  0  0  0
  139.5350   69.5410  223.8190 C   0  0  0  0  0  0  0  0  0  0  0  0
  140.0350   69.8960  225.0560 C   0  0  0  0  0  0  0  0  0  0  0  0
  140.0940   69.0200  226.1230 C   0  0  0  0  0  0  0  0  0  0  0  0
  140.6100   69.4350  227.3520 C   0  0  0  0  0  0  0  0  0  0  0  0
  140.6900   68.3260  228.7180 Cl  0  0  0  0  0  0  0  0  0  0  0  0
  141.0720   70.7420  227.5170 C   0  0  0  0  0  0  0  0  0  0  0  0
  141.0120   71.6170  226.4530 C   0  0  0  0  0  0  0  0  0  0  0  0
  140.5000   71.1970  225.2400 C   0  0  0  0  0  0  0  0  0  0  0  0
  140.4350   72.0270  224.2030 N   0  0  0  0  0  0  0  0  0  0  0  0
  138.7930   74.0810  223.0630 H   0  0  0  0  0  0  0  0  0  0  0  0
  139.4837   74.4933  220.1456 H   0  0  0  0  0  0  0  0  0  0  0  0
  138.1897   75.3591  221.0858 H   0  0  0  0  0  0  0  0  0  0  0  0
  142.9925   74.6670  220.9923 H   0  0  0  0  0  0  0  0  0  0  0  0
  141.5603   73.9734  220.2968 H   0  0  0  0  0  0  0  0  0  0  0  0
  143.7400   75.1512  218.8403 H   0  0  0  0  0  0  0  0  0  0  0  0
  142.1561   74.8036  218.1250 H   0  0  0  0  0  0  0  0  0  0  0  0
  143.2129   77.3970  218.3711 H   0  0  0  0  0  0  0  0  0  0  0  0
  141.5074   77.1381  218.2581 H   0  0  0  0  0  0  0  0  0  0  0  0
  143.2284   77.1905  220.9175 H   0  0  0  0  0  0  0  0  0  0  0  0
  142.1381   78.4312  222.7383 H   0  0  0  0  0  0  0  0  0  0  0  0
  141.4674   79.0311  218.5538 H   0  0  0  0  0  0  0  0  0  0  0  0
  139.0873   70.1537  221.7818 H   0  0  0  0  0  0  0  0  0  0  0  0
  139.1647   68.5169  223.6636 H   0  0  0  0  0  0  0  0  0  0  0  0
  139.7318   67.9883  226.0032 H   0  0  0  0  0  0  0  0  0  0  0  0
  141.4793   71.0701  228.4847 H   0  0  0  0  0  0  0  0  0  0  0  0
  141.3718   72.6499  226.5698 H   0  0  0  0  0  0  0  0  0  0  0  0
  1  2  2  0
  2  3  1  0
  3  4  1  0
  4  5  1  0
  5  6  2  0
  5  7  1  0
  7  8  1  0
  8  9  1  0
  9 10  1  0
 10 11  1  0
 11 12  1  0
 12 13  2  0
 13 14  1  0
 14 15  2  0
 15 16  1  0
 15 17  1  0
 17 18  1  0
 17 19  2  0
  2 20  1  0
 20 21  2  0
 21 22  1  0
 22 23  2  0
 23 24  1  0
 24 25  2  0
 25 26  1  0
 25 27  1  0
 27 28  2  0
 28 29  1  0
 29 30  2  0
 11  7  1  0
 19 12  1  0
 30 20  1  0
 29 23  1  0
  3 31  1  0
  4 32  1  0
  4 33  1  0
  8 34  1  0
  8 35  1  0
  9 36  1  0
  9 37  1  0
 10 38  1  0
 10 39  1  0
 11 40  1  1
 13 41  1  0
 19 42  1  0
 21 43  1  0
 22 44  1  0
 24 45  1  0
 27 46  1  0
 28 47  1  0
M  END
>  <smiles>  (45) 
O=C(NCC(=O)N1CCC[C@H]1c1cnc(Cl)c(Cl)c1)c1ccc2cc(Cl)ccc2n1

>  <score_type>  (45) 
oracle

>  <origin>  (45) 
autodockgpu

>  <m_score__min__energy>  (45) 
-9.0399999999999991

>  <m_primary>  (45) 
energy

>  <rmsd>  (45) 
1.9679211702943629

>  <m_score__min__rmsd>  (45) 
1.9679211702943629

>  <meeko>  (45) 
{"free_energy": -8.3, "intermolecular_energy": -9.79, "internal_energy": -1.4, "cluster_size": 10, "cluster_id": 1, "rank_in_cluster": 5}

>  <energy>  (45) 
-7.69

>  <cluster_rmsd>  (45) 
0.0

>  <cluster>  (45) 
6

$$$$

     RDKit          3D

 47 50  0  0  0  0  0  0  0  0999 V2000
  139.3230   72.0910  220.7400 O   0  0  0  0  0  0  0  0  0  0  0  0
  139.4590   72.4610  221.9460 C   0  0  0  0  0  0  0  0  0  0  0  0
  139.4440   73.8470  222.2670 N   0  0  0  0  0  0  0  0  0  0  0  0
  139.2780   74.8400  221.2580 C   0  0  0  0  0  0  0  0  0  0  0  0
  140.1880   76.0240  221.4620 C   0  0  0  0  0  0  0  0  0  0  0  0
  140.4630   76.2910  222.6540 O   0  0  0  0  0  0  0  0  0  0  0  0
  140.6530   76.7270  220.3320 N   0  0  0  0  0  0  0  0  0  0  0  0
  140.1760   78.0710  219.9090 C   0  0  0  0  0  0  0  0  0  0  0  0
  141.5010   78.7440  219.5330 C   0  0  0  0  0  0  0  0  0  0  0  0
  142.5560   77.6290  219.5160 C   0  0  0  0  0  0  0  0  0  0  0  0
  141.6460   76.4210  219.3300 C   0  0  1  0  0  0  0  0  0  0  0  0
  142.3500   75.1620  219.4380 C   0  0  0  0  0  0  0  0  0  0  0  0
  141.7810   73.9590  219.0100 C   0  0  0  0  0  0  0  0  0  0  0  0
  142.4260   72.7840  219.1310 N   0  0  0  0  0  0  0  0  0  0  0  0
  143.6550   72.6610  219.6650 C   0  0  0  0  0  0  0  0  0  0  0  0
  144.4280   71.0950  219.7870 Cl  0  0  0  0  0  0  0  0  0  0  0  0
  144.2560   73.8280  220.1020 C   0  0  0  0  0  0  0  0  0  0  0  0
  145.8500   73.6920  220.7970 Cl  0  0  0  0  0  0  0  0  0  0  0  0
  143.6080   75.0650  219.9890 C   0  0  0  0  0  0  0  0  0  0  0  0
  139.6340   71.4740  223.0150 C   0  0  0  0  0  0  0  0  0  0  0  0
  139.2830   70.1680  222.8250 C   0  0  0  0  0  0  0  0  0  0  0  0
  139.4720   69.2770  223.8790 C   0  0  0  0  0  0  0  0  0  0  0  0
  139.9990   69.6880  225.0880 C   0  0  0  0  0  0  0  0  0  0  0  0
  140.1990   68.8300  226.1520 C   0  0  0  0  0  0  0  0  0  0  0  0
  140.7360   69.3020  227.3510 C   0  0  0  0  0  0  0  0  0  0  0  0
  140.9950   68.2160  228.7130 Cl  0  0  0  0  0  0  0  0  0  0  0  0
  141.0760   70.6490  227.4880 C   0  0  0  0  0  0  0  0  0  0  0  0
  140.8770   71.5060  226.4270 C   0  0  0  0  0  0  0  0  0  0  0  0
  140.3450   71.0300  225.2440 C   0  0  0  0  0  0  0  0  0  0  0  0
  140.1460   71.8420  224.2100 N   0  0  0  0  0  0  0  0  0  0  0  0
  139.5630   74.0970  223.2880 H   0  0  0  0  0  0  0  0  0  0  0  0
  139.4987   74.3893  220.2791 H   0  0  0  0  0  0  0  0  0  0  0  0
  138.2404   75.2014  221.3105 H   0  0  0  0  0  0  0  0  0  0  0  0
  139.4965   78.0059  219.0464 H   0  0  0  0  0  0  0  0  0  0  0  0
  139.5944   78.6079  220.6729 H   0  0  0  0  0  0  0  0  0  0  0  0
  141.4235   79.2112  218.5402 H   0  0  0  0  0  0  0  0  0  0  0  0
  141.7659   79.5366  220.2483 H   0  0  0  0  0  0  0  0  0  0  0  0
  143.2607   77.7441  218.6792 H   0  0  0  0  0  0  0  0  0  0  0  0
  143.2091   77.5902  220.4003 H   0  0  0  0  0  0  0  0  0  0  0  0
  141.2034   76.2708  218.3342 H   0  0  0  0  0  0  0  0  0  0  0  0
  140.7768   73.9732  218.5612 H   0  0  0  0  0  0  0  0  0  0  0  0
  144.1130   75.9744  220.3467 H   0  0  0  0  0  0  0  0  0  0  0  0
  138.8628   69.8291  221.8666 H   0  0  0  0  0  0  0  0  0  0  0  0
  139.1950   68.2209  223.7454 H   0  0  0  0  0  0  0  0  0  0  0  0
  139.9332   67.7671  226.0537 H   0  0  0  0  0  0  0  0  0  0  0  0
  141.4982   71.0225  228.4326 H   0  0  0  0  0  0  0  0  0  0  0  0
  141.1418   72.5694  226.5221 H   0  0  0  0  0  0  0  0  0  0  0  0
  1  2  2  0
  2  3  1  0
  3  4  1  0
  4  5  1  0
  5  6  2  0
  5  7  1  0
  7  8  1  0
  8  9  1  0
  9 10  1  0
 10 11  1  0
 11 12  1  0
 12 13  2  0
 13 14  1  0
 14 15  2  0
 15 16  1  0
 15 17  1  0
 17 18  1  0
 17 19  2  0
  2 20  1  0
 20 21  2  0
 21 22  1  0
 22 23  2  0
 23 24  1  0
 24 25  2  0
 25 26  1  0
 25 27  1  0
 27 28  2  0
 28 29  1  0
 29 30  2  0
 11  7  1  0
 19 12  1  0
 30 20  1  0
 29 23  1  0
  3 31  1  0
  4 32  1  0
  4 33  1  0
  8 34  1  0
  8 35  1  0
  9 36  1  0
  9 37  1  0
 10 38  1  0
 10 39  1  0
 11 40  1  6
 13 41  1  0
 19 42  1  0
 21 43  1  0
 22 44  1  0
 24 45  1  0
 27 46  1  0
 28 47  1  0
M  END
>  <smiles>  (46) 
O=C(NCC(=O)N1CCC[C@H]1c1cnc(Cl)c(Cl)c1)c1ccc2cc(Cl)ccc2n1

>  <score_type>  (46) 
oracle

>  <origin>  (46) 
autodockgpu

>  <m_score__min__energy>  (46) 
-9.0399999999999991

>  <m_primary>  (46) 
energy

>  <rmsd>  (46) 
2.010985625610092

>  <m_score__min__rmsd>  (46) 
2.010985625610092

>  <meeko>  (46) 
{"free_energy": -8.28, "intermolecular_energy": -9.77, "internal_energy": -2.16, "cluster_size": 17, "cluster_id": 3, "rank_in_cluster": 8}

>  <energy>  (46) 
-7.03

>  <cluster_rmsd>  (46) 
0.0

>  <cluster>  (46) 
7

$$$$

     RDKit          3D

 47 50  0  0  0  0  0  0  0  0999 V2000
  140.4660   72.5280  220.7290 O   0  0  0  0  0  0  0  0  0  0  0  0
  139.9750   72.8010  221.8660 C   0  0  0  0  0  0  0  0  0  0  0  0
  139.4030   74.0810  222.1020 N   0  0  0  0  0  0  0  0  0  0  0  0
  139.3660   75.0760  221.0820 C   0  0  0  0  0  0  0  0  0  0  0  0
  140.5290   76.0320  221.1700 C   0  0  0  0  0  0  0  0  0  0  0  0
  141.0030   76.1970  222.3180 O   0  0  0  0  0  0  0  0  0  0  0  0
  140.9900   76.6530  219.9910 N   0  0  0  0  0  0  0  0  0  0  0  0
  140.5420   77.9820  219.4980 C   0  0  0  0  0  0  0  0  0  0  0  0
  141.8770   78.5930  219.0560 C   0  0  0  0  0  0  0  0  0  0  0  0
  142.8990   77.4480  219.0860 C   0  0  0  0  0  0  0  0  0  0  0  0
  141.9510   76.2590  218.9900 C   0  0  1  0  0  0  0  0  0  0  0  0
  142.6210   74.9880  219.1590 C   0  0  0  0  0  0  0  0  0  0  0  0
  142.1630   73.8230  218.5370 C   0  0  0  0  0  0  0  0  0  0  0  0
  142.7720   72.6350  218.7110 N   0  0  0  0  0  0  0  0  0  0  0  0
  143.8590   72.4630  219.4860 C   0  0  0  0  0  0  0  0  0  0  0  0
  144.5950   70.8850  219.6630 Cl  0  0  0  0  0  0  0  0  0  0  0  0
  144.3470   73.5920  220.1220 C   0  0  0  0  0  0  0  0  0  0  0  0
  145.7550   73.3910  221.1320 Cl  0  0  0  0  0  0  0  0  0  0  0  0
  143.7320   74.8400  219.9590 C   0  0  0  0  0  0  0  0  0  0  0  0
  139.9920   71.8080  222.9440 C   0  0  0  0  0  0  0  0  0  0  0  0
  139.5350   70.5380  222.7330 C   0  0  0  0  0  0  0  0  0  0  0  0
  139.5770   69.6390  223.7960 C   0  0  0  0  0  0  0  0  0  0  0  0
  140.0630   70.0070  225.0350 C   0  0  0  0  0  0  0  0  0  0  0  0
  140.1170   69.1400  226.1100 C   0  0  0  0  0  0  0  0  0  0  0  0
  140.6190   69.5680  227.3400 C   0  0  0  0  0  0  0  0  0  0  0  0
  140.6920   68.4700  228.7160 Cl  0  0  0  0  0  0  0  0  0  0  0  0
  141.0720   70.8780  227.4990 C   0  0  0  0  0  0  0  0  0  0  0  0
  141.0180   71.7450  226.4280 C   0  0  0  0  0  0  0  0  0  0  0  0
  140.5190   71.3120  225.2130 C   0  0  0  0  0  0  0  0  0  0  0  0
  140.4600   72.1340  224.1680 N   0  0  0  0  0  0  0  0  0  0  0  0
  139.0090   74.2520  223.0700 H   0  0  0  0  0  0  0  0  0  0  0  0
  139.3913   74.5780  220.1015 H   0  0  0  0  0  0  0  0  0  0  0  0
  138.4421   75.6582  221.2143 H   0  0  0  0  0  0  0  0  0  0  0  0
  139.8425   77.8856  218.6545 H   0  0  0  0  0  0  0  0  0  0  0  0
  139.9923   78.5799  220.2398 H   0  0  0  0  0  0  0  0  0  0  0  0
  141.7915   79.0020  218.0385 H   0  0  0  0  0  0  0  0  0  0  0  0
  142.1793   79.4193  219.7162 H   0  0  0  0  0  0  0  0  0  0  0  0
  143.5893   77.4921  218.2307 H   0  0  0  0  0  0  0  0  0  0  0  0
  143.5689   77.4423  219.9585 H   0  0  0  0  0  0  0  0  0  0  0  0
  141.4829   76.0636  218.0140 H   0  0  0  0  0  0  0  0  0  0  0  0
  141.2783   73.8785  217.8857 H   0  0  0  0  0  0  0  0  0  0  0  0
  144.1438   75.7173  220.4793 H   0  0  0  0  0  0  0  0  0  0  0  0
  139.1446   70.2338  221.7506 H   0  0  0  0  0  0  0  0  0  0  0  0
  139.2144   68.6115  223.6450 H   0  0  0  0  0  0  0  0  0  0  0  0
  139.7618   68.1053  225.9954 H   0  0  0  0  0  0  0  0  0  0  0  0
  141.4679   71.2156  228.4682 H   0  0  0  0  0  0  0  0  0  0  0  0
  141.3717   72.7806  226.5400 H   0  0  0  0  0  0  0  0  0  0  0  0
  1  2  2  0
  2  3  1  0
  3  4  1  0
  4  5  1  0
  5  6  2  0
  5  7  1  0
  7  8  1  0
  8  9  1  0
  9 10  1  0
 10 11  1  0
 11 12  1  0
 12 13  2  0
 13 14  1  0
 14 15  2  0
 15 16  1  0
 15 17  1  0
 17 18  1  0
 17 19  2  0
  2 20  1  0
 20 21  2  0
 21 22  1  0
 22 23  2  0
 23 24  1  0
 24 25  2  0
 25 26  1  0
 25 27  1  0
 27 28  2  0
 28 29  1  0
 29 30  2  0
 11  7  1  0
 19 12  1  0
 30 20  1  0
 29 23  1  0
  3 31  1  0
  4 32  1  0
  4 33  1  0
  8 34  1  0
  8 35  1  0
  9 36  1  0
  9 37  1  0
 10 38  1  0
 10 39  1  0
 11 40  1  6
 13 41  1  0
 19 42  1  0
 21 43  1  0
 22 44  1  0
 24 45  1  0
 27 46  1  0
 28 47  1  0
M  END
>  <smiles>  (47) 
O=C(NCC(=O)N1CCC[C@H]1c1cnc(Cl)c(Cl)c1)c1ccc2cc(Cl)ccc2n1

>  <score_type>  (47) 
oracle

>  <origin>  (47) 
autodockgpu

>  <m_score__min__energy>  (47) 
-9.0399999999999991

>  <m_primary>  (47) 
energy

>  <rmsd>  (47) 
2.1307887326921064

>  <m_score__min__rmsd>  (47) 
2.1307887326921064

>  <meeko>  (47) 
{"free_energy": -8.48, "intermolecular_energy": -9.97, "internal_energy": -1.92, "cluster_size": 17, "cluster_id": 3, "rank_in_cluster": 2}

>  <energy>  (47) 
-6.94

>  <cluster_rmsd>  (47) 
1.19

>  <cluster>  (47) 
7

$$$$

     RDKit          3D

 47 50  0  0  0  0  0  0  0  0999 V2000
  139.9890   72.5280  220.6360 O   0  0  0  0  0  0  0  0  0  0  0  0
  139.8080   72.8520  221.8490 C   0  0  0  0  0  0  0  0  0  0  0  0
  139.5190   74.2040  222.1840 N   0  0  0  0  0  0  0  0  0  0  0  0
  139.4260   75.2130  221.1820 C   0  0  0  0  0  0  0  0  0  0  0  0
  140.5920   76.1680  221.2170 C   0  0  0  0  0  0  0  0  0  0  0  0
  141.0840   76.3720  222.3510 O   0  0  0  0  0  0  0  0  0  0  0  0
  141.0350   76.7460  220.0110 N   0  0  0  0  0  0  0  0  0  0  0  0
  140.6140   78.0780  219.5000 C   0  0  0  0  0  0  0  0  0  0  0  0
  141.9540   78.6340  219.0030 C   0  0  0  0  0  0  0  0  0  0  0  0
  142.9390   77.4570  219.0290 C   0  0  0  0  0  0  0  0  0  0  0  0
  141.9520   76.2980  218.9910 C   0  0  1  0  0  0  0  0  0  0  0  0
  142.5860   75.0110  219.1690 C   0  0  0  0  0  0  0  0  0  0  0  0
  142.0510   73.8410  218.6210 C   0  0  0  0  0  0  0  0  0  0  0  0
  142.6270   72.6390  218.8060 N   0  0  0  0  0  0  0  0  0  0  0  0
  143.7520   72.4550  219.5220 C   0  0  0  0  0  0  0  0  0  0  0  0
  144.4420   70.8580  219.7160 Cl  0  0  0  0  0  0  0  0  0  0  0  0
  144.3160   73.5870  220.0830 C   0  0  0  0  0  0  0  0  0  0  0  0
  145.7750   73.3720  221.0150 Cl  0  0  0  0  0  0  0  0  0  0  0  0
  143.7370   74.8510  219.9080 C   0  0  0  0  0  0  0  0  0  0  0  0
  139.8950   71.8480  222.9120 C   0  0  0  0  0  0  0  0  0  0  0  0
  139.5150   70.5550  222.6860 C   0  0  0  0  0  0  0  0  0  0  0  0
  139.6200   69.6460  223.7360 C   0  0  0  0  0  0  0  0  0  0  0  0
  140.0940   70.0260  224.9770 C   0  0  0  0  0  0  0  0  0  0  0  0
  140.2100   69.1490  226.0380 C   0  0  0  0  0  0  0  0  0  0  0  0
  140.6950   69.5900  227.2700 C   0  0  0  0  0  0  0  0  0  0  0  0
  140.8470   68.4800  228.6300 Cl  0  0  0  0  0  0  0  0  0  0  0  0
  141.0680   70.9230  227.4450 C   0  0  0  0  0  0  0  0  0  0  0  0
  140.9520   71.8000  226.3870 C   0  0  0  0  0  0  0  0  0  0  0  0
  140.4710   71.3540  225.1700 C   0  0  0  0  0  0  0  0  0  0  0  0
  140.3520   72.1850  224.1380 N   0  0  0  0  0  0  0  0  0  0  0  0
  139.3780   74.4160  223.2120 H   0  0  0  0  0  0  0  0  0  0  0  0
  139.3958   74.7286  220.1949 H   0  0  0  0  0  0  0  0  0  0  0  0
  138.5117   75.7934  221.3748 H   0  0  0  0  0  0  0  0  0  0  0  0
  139.8857   77.9853  218.6808 H   0  0  0  0  0  0  0  0  0  0  0  0
  140.1069   78.7106  220.2434 H   0  0  0  0  0  0  0  0  0  0  0  0
  141.8500   79.0223  217.9791 H   0  0  0  0  0  0  0  0  0  0  0  0
  142.3034   79.4645  219.6340 H   0  0  0  0  0  0  0  0  0  0  0  0
  143.6029   77.4588  218.1520 H   0  0  0  0  0  0  0  0  0  0  0  0
  143.6353   77.4496  219.8805 H   0  0  0  0  0  0  0  0  0  0  0  0
  141.4474   76.0952  218.0348 H   0  0  0  0  0  0  0  0  0  0  0  0
  141.1315   73.9051  218.0206 H   0  0  0  0  0  0  0  0  0  0  0  0
  144.2100   75.7307  220.3689 H   0  0  0  0  0  0  0  0  0  0  0  0
  139.1367   70.2408  221.7021 H   0  0  0  0  0  0  0  0  0  0  0  0
  139.3184   68.6007  223.5734 H   0  0  0  0  0  0  0  0  0  0  0  0
  139.9182   68.0961  225.9109 H   0  0  0  0  0  0  0  0  0  0  0  0
  141.4503   71.2706  228.4161 H   0  0  0  0  0  0  0  0  0  0  0  0
  141.2420   72.8538  226.5113 H   0  0  0  0  0  0  0  0  0  0  0  0
  1  2  2  0
  2  3  1  0
  3  4  1  0
  4  5  1  0
  5  6  2  0
  5  7  1  0
  7  8  1  0
  8  9  1  0
  9 10  1  0
 10 11  1  0
 11 12  1  0
 12 13  2  0
 13 14  1  0
 14 15  2  0
 15 16  1  0
 15 17  1  0
 17 18  1  0
 17 19  2  0
  2 20  1  0
 20 21  2  0
 21 22  1  0
 22 23  2  0
 23 24  1  0
 24 25  2  0
 25 26  1  0
 25 27  1  0
 27 28  2  0
 28 29  1  0
 29 30  2  0
 11  7  1  0
 19 12  1  0
 30 20  1  0
 29 23  1  0
  3 31  1  0
  4 32  1  0
  4 33  1  0
  8 34  1  0
  8 35  1  0
  9 36  1  0
  9 37  1  0
 10 38  1  0
 10 39  1  0
 11 40  1  6
 13 41  1  0
 19 42  1  0
 21 43  1  0
 22 44  1  0
 24 45  1  0
 27 46  1  0
 28 47  1  0
M  END
>  <smiles>  (48) 
O=C(NCC(=O)N1CCC[C@H]1c1cnc(Cl)c(Cl)c1)c1ccc2cc(Cl)ccc2n1

>  <score_type>  (48) 
oracle

>  <origin>  (48) 
autodockgpu

>  <m_score__min__energy>  (48) 
-9.0399999999999991

>  <m_primary>  (48) 
energy

>  <rmsd>  (48) 
2.1801340166333167

>  <m_score__min__rmsd>  (48) 
2.1801340166333167

>  <meeko>  (48) 
{"free_energy": -8.35, "intermolecular_energy": -9.84, "internal_energy": -2.04, "cluster_size": 17, "cluster_id": 3, "rank_in_cluster": 5}

>  <energy>  (48) 
-6.87

>  <cluster_rmsd>  (48) 
1.27

>  <cluster>  (48) 
7

$$$$

     RDKit          3D

 47 50  0  0  0  0  0  0  0  0999 V2000
  139.1000   71.6060  220.7670 O   0  0  0  0  0  0  0  0  0  0  0  0
  139.2930   72.0450  221.9420 C   0  0  0  0  0  0  0  0  0  0  0  0
  139.3420   73.4480  222.1740 N   0  0  0  0  0  0  0  0  0  0  0  0
  139.1790   74.3820  221.1100 C   0  0  0  0  0  0  0  0  0  0  0  0
  139.6440   75.7660  221.4840 C   0  0  0  0  0  0  0  0  0  0  0  0
  139.6350   76.0230  222.7100 O   0  0  0  0  0  0  0  0  0  0  0  0
  140.0450   76.6490  220.4610 N   0  0  0  0  0  0  0  0  0  0  0  0
  139.2460   77.8030  219.9700 C   0  0  0  0  0  0  0  0  0  0  0  0
  140.3350   78.8760  219.8420 C   0  0  0  0  0  0  0  0  0  0  0  0
  141.6740   78.1440  220.0050 C   0  0  0  0  0  0  0  0  0  0  0  0
  141.2360   76.7290  219.6500 C   0  0  1  0  0  0  0  0  0  0  0  0
  142.2720   75.7450  219.8710 C   0  0  0  0  0  0  0  0  0  0  0  0
  143.6240   76.0980  219.9400 C   0  0  0  0  0  0  0  0  0  0  0  0
  144.5910   75.1800  220.1230 N   0  0  0  0  0  0  0  0  0  0  0  0
  144.3510   73.8620  220.2560 C   0  0  0  0  0  0  0  0  0  0  0  0
  145.6660   72.7300  220.4930 Cl  0  0  0  0  0  0  0  0  0  0  0  0
  143.0260   73.4690  220.1940 C   0  0  0  0  0  0  0  0  0  0  0  0
  142.6930   71.7650  220.3650 Cl  0  0  0  0  0  0  0  0  0  0  0  0
  141.9990   74.4020  220.0040 C   0  0  0  0  0  0  0  0  0  0  0  0
  139.4670   71.1210  223.0660 C   0  0  0  0  0  0  0  0  0  0  0  0
  139.0600   69.8200  222.9710 C   0  0  0  0  0  0  0  0  0  0  0  0
  139.2520   68.9910  224.0730 C   0  0  0  0  0  0  0  0  0  0  0  0
  139.8360   69.4550  225.2350 C   0  0  0  0  0  0  0  0  0  0  0  0
  140.0400   68.6570  226.3450 C   0  0  0  0  0  0  0  0  0  0  0  0
  140.6350   69.1820  227.4930 C   0  0  0  0  0  0  0  0  0  0  0  0
  140.8990   68.1730  228.9130 Cl  0  0  0  0  0  0  0  0  0  0  0  0
  141.0310   70.5190  227.5340 C   0  0  0  0  0  0  0  0  0  0  0  0
  140.8270   71.3160  226.4280 C   0  0  0  0  0  0  0  0  0  0  0  0
  140.2370   70.7880  225.2940 C   0  0  0  0  0  0  0  0  0  0  0  0
  140.0340   71.5420  224.2170 N   0  0  0  0  0  0  0  0  0  0  0  0
  139.5060   73.7560  223.1730 H   0  0  0  0  0  0  0  0  0  0  0  0
  139.7616   74.0357  220.2436 H   0  0  0  0  0  0  0  0  0  0  0  0
  138.1056   74.4405  220.8766 H   0  0  0  0  0  0  0  0  0  0  0  0
  138.7761   77.5858  218.9994 H   0  0  0  0  0  0  0  0  0  0  0  0
  138.4054   78.0839  220.6216 H   0  0  0  0  0  0  0  0  0  0  0  0
  140.2814   79.3587  218.8550 H   0  0  0  0  0  0  0  0  0  0  0  0
  140.2132   79.6649  220.5988 H   0  0  0  0  0  0  0  0  0  0  0  0
  142.4361   78.5239  219.3087 H   0  0  0  0  0  0  0  0  0  0  0  0
  142.1481   78.2522  220.9917 H   0  0  0  0  0  0  0  0  0  0  0  0
  141.0360   76.5132  218.5901 H   0  0  0  0  0  0  0  0  0  0  0  0
  143.9049   77.1570  219.8418 H   0  0  0  0  0  0  0  0  0  0  0  0
  140.9558   74.0558  219.9602 H   0  0  0  0  0  0  0  0  0  0  0  0
  138.5941   69.4387  222.0504 H   0  0  0  0  0  0  0  0  0  0  0  0
  138.9305   67.9405  224.0166 H   0  0  0  0  0  0  0  0  0  0  0  0
  139.7314   67.6014  226.3234 H   0  0  0  0  0  0  0  0  0  0  0  0
  141.5007   70.9325  228.4386 H   0  0  0  0  0  0  0  0  0  0  0  0
  141.1335   72.3723  226.4473 H   0  0  0  0  0  0  0  0  0  0  0  0
  1  2  2  0
  2  3  1  0
  3  4  1  0
  4  5  1  0
  5  6  2  0
  5  7  1  0
  7  8  1  0
  8  9  1  0
  9 10  1  0
 10 11  1  0
 11 12  1  0
 12 13  2  0
 13 14  1  0
 14 15  2  0
 15 16  1  0
 15 17  1  0
 17 18  1  0
 17 19  2  0
  2 20  1  0
 20 21  2  0
 21 22  1  0
 22 23  2  0
 23 24  1  0
 24 25  2  0
 25 26  1  0
 25 27  1  0
 27 28  2  0
 28 29  1  0
 29 30  2  0
 11  7  1  0
 19 12  1  0
 30 20  1  0
 29 23  1  0
  3 31  1  0
  4 32  1  0
  4 33  1  0
  8 34  1  0
  8 35  1  0
  9 36  1  0
  9 37  1  0
 10 38  1  0
 10 39  1  0
 11 40  1  6
 13 41  1  0
 19 42  1  0
 21 43  1  0
 22 44  1  0
 24 45  1  0
 27 46  1  0
 28 47  1  0
M  END
>  <smiles>  (49) 
O=C(NCC(=O)N1CCC[C@H]1c1cnc(Cl)c(Cl)c1)c1ccc2cc(Cl)ccc2n1

>  <score_type>  (49) 
oracle

>  <origin>  (49) 
autodockgpu

>  <m_score__min__energy>  (49) 
-9.0399999999999991

>  <m_primary>  (49) 
energy

>  <rmsd>  (49) 
1.7948499683423282

>  <m_score__min__rmsd>  (49) 
1.7948499683423282

>  <meeko>  (49) 
{"free_energy": -8.09, "intermolecular_energy": -9.58, "internal_energy": -2.17, "cluster_size": 17, "cluster_id": 3, "rank_in_cluster": 16}

>  <energy>  (49) 
-6.71

>  <cluster_rmsd>  (49) 
1.32

>  <cluster>  (49) 
7

$$$$

     RDKit          3D

 47 50  0  0  0  0  0  0  0  0999 V2000
  140.8420   72.6790  220.8950 O   0  0  0  0  0  0  0  0  0  0  0  0
  140.1710   72.8760  221.9530 C   0  0  0  0  0  0  0  0  0  0  0  0
  139.4520   74.0920  222.1190 N   0  0  0  0  0  0  0  0  0  0  0  0
  139.4650   75.1040  221.1160 C   0  0  0  0  0  0  0  0  0  0  0  0
  140.7590   75.8780  221.0980 C   0  0  0  0  0  0  0  0  0  0  0  0
  141.4130   75.8540  222.1660 O   0  0  0  0  0  0  0  0  0  0  0  0
  141.1320   76.5520  219.9180 N   0  0  0  0  0  0  0  0  0  0  0  0
  140.5690   77.8530  219.4660 C   0  0  0  0  0  0  0  0  0  0  0  0
  141.8400   78.5700  218.9940 C   0  0  0  0  0  0  0  0  0  0  0  0
  142.9450   77.5050  218.9680 C   0  0  0  0  0  0  0  0  0  0  0  0
  142.0860   76.2500  218.8790 C   0  0  1  0  0  0  0  0  0  0  0  0
  142.8540   75.0310  219.0000 C   0  0  0  0  0  0  0  0  0  0  0  0
  142.5750   73.9010  218.2250 C   0  0  0  0  0  0  0  0  0  0  0  0
  143.2750   72.7580  218.3540 N   0  0  0  0  0  0  0  0  0  0  0  0
  144.2890   72.6000  219.2240 C   0  0  0  0  0  0  0  0  0  0  0  0
  145.1520   71.0810  219.3310 Cl  0  0  0  0  0  0  0  0  0  0  0  0
  144.5990   73.6950  220.0120 C   0  0  0  0  0  0  0  0  0  0  0  0
  145.9110   73.5120  221.1470 Cl  0  0  0  0  0  0  0  0  0  0  0  0
  143.8880   74.8960  219.9000 C   0  0  0  0  0  0  0  0  0  0  0  0
  140.1300   71.8620  223.0110 C   0  0  0  0  0  0  0  0  0  0  0  0
  139.6340   70.6140  222.7650 C   0  0  0  0  0  0  0  0  0  0  0  0
  139.6210   69.6940  223.8100 C   0  0  0  0  0  0  0  0  0  0  0  0
  140.0920   70.0210  225.0670 C   0  0  0  0  0  0  0  0  0  0  0  0
  140.0920   69.1310  226.1250 C   0  0  0  0  0  0  0  0  0  0  0  0
  140.5810   69.5170  227.3730 C   0  0  0  0  0  0  0  0  0  0  0  0
  140.5860   68.3910  228.7280 Cl  0  0  0  0  0  0  0  0  0  0  0  0
  141.0760   70.8080  227.5680 C   0  0  0  0  0  0  0  0  0  0  0  0
  141.0760   71.6960  226.5140 C   0  0  0  0  0  0  0  0  0  0  0  0
  140.5890   71.3050  225.2800 C   0  0  0  0  0  0  0  0  0  0  0  0
  140.5820   72.1480  224.2520 N   0  0  0  0  0  0  0  0  0  0  0  0
  138.9100   74.2010  223.0220 H   0  0  0  0  0  0  0  0  0  0  0  0
  139.3232   74.6298  220.1337 H   0  0  0  0  0  0  0  0  0  0  0  0
  138.6538   75.8115  221.3425 H   0  0  0  0  0  0  0  0  0  0  0  0
  139.8510   77.7191  218.6435 H   0  0  0  0  0  0  0  0  0  0  0  0
  140.0008   78.3948  220.2365 H   0  0  0  0  0  0  0  0  0  0  0  0
  141.6904   78.9895  217.9882 H   0  0  0  0  0  0  0  0  0  0  0  0
  142.1018   79.4045  219.6612 H   0  0  0  0  0  0  0  0  0  0  0  0
  143.6008   77.6159  218.0918 H   0  0  0  0  0  0  0  0  0  0  0  0
  143.6425   77.5345  219.8181 H   0  0  0  0  0  0  0  0  0  0  0  0
  141.6011   76.0375  217.9148 H   0  0  0  0  0  0  0  0  0  0  0  0
  141.7595   73.9472  217.4882 H   0  0  0  0  0  0  0  0  0  0  0  0
  144.1600   75.7468  220.5421 H   0  0  0  0  0  0  0  0  0  0  0  0
  139.2551   70.3428  221.7686 H   0  0  0  0  0  0  0  0  0  0  0  0
  139.2264   68.6830  223.6306 H   0  0  0  0  0  0  0  0  0  0  0  0
  139.7038   68.1118  225.9816 H   0  0  0  0  0  0  0  0  0  0  0  0
  141.4617   71.1129  228.5520 H   0  0  0  0  0  0  0  0  0  0  0  0
  141.4634   72.7159  226.6543 H   0  0  0  0  0  0  0  0  0  0  0  0
  1  2  2  0
  2  3  1  0
  3  4  1  0
  4  5  1  0
  5  6  2  0
  5  7  1  0
  7  8  1  0
  8  9  1  0
  9 10  1  0
 10 11  1  0
 11 12  1  0
 12 13  2  0
 13 14  1  0
 14 15  2  0
 15 16  1  0
 15 17  1  0
 17 18  1  0
 17 19  2  0
  2 20  1  0
 20 21  2  0
 21 22  1  0
 22 23  2  0
 23 24  1  0
 24 25  2  0
 25 26  1  0
 25 27  1  0
 27 28  2  0
 28 29  1  0
 29 30  2  0
 11  7  1  0
 19 12  1  0
 30 20  1  0
 29 23  1  0
  3 31  1  0
  4 32  1  0
  4 33  1  0
  8 34  1  0
  8 35  1  0
  9 36  1  0
  9 37  1  0
 10 38  1  0
 10 39  1  0
 11 40  1  6
 13 41  1  0
 19 42  1  0
 21 43  1  0
 22 44  1  0
 24 45  1  0
 27 46  1  0
 28 47  1  0
M  END
>  <smiles>  (50) 
O=C(NCC(=O)N1CCC[C@H]1c1cnc(Cl)c(Cl)c1)c1ccc2cc(Cl)ccc2n1

>  <score_type>  (50) 
oracle

>  <origin>  (50) 
autodockgpu

>  <m_score__min__energy>  (50) 
-9.0399999999999991

>  <m_primary>  (50) 
energy

>  <rmsd>  (50) 
2.1507628203830826

>  <m_score__min__rmsd>  (50) 
2.1507628203830826

>  <meeko>  (50) 
{"free_energy": -8.61, "intermolecular_energy": -10.1, "internal_energy": -1.79, "cluster_size": 17, "cluster_id": 3, "rank_in_cluster": 1}

>  <energy>  (50) 
-6.97

>  <cluster_rmsd>  (50) 
0.0

>  <cluster>  (50) 
8

$$$$
