
     RDKit          3D

 44 46  0  0  0  0  0  0  0  0999 V2000
  139.9390   70.7150  221.5410 O   0  0  0  0  0  0  0  0  0  0  0  0
  139.8990   71.2520  222.6840 C   0  0  0  0  0  0  0  0  0  0  0  0
  139.8600   72.6730  222.7120 N   0  0  0  0  0  0  0  0  0  0  0  0
  139.8700   73.3380  221.4010 C   0  0  0  0  0  0  0  0  0  0  0  0
  141.0640   74.1820  221.2990 C   0  0  0  0  0  0  0  0  0  0  0  0
  141.0290   75.3120  221.8820 O   0  0  0  0  0  0  0  0  0  0  0  0
  142.2510   73.8600  220.6140 N   0  0  0  0  0  0  0  0  0  0  0  0
  142.3540   72.8320  219.5630 C   0  0  0  0  0  0  0  0  0  0  0  0
  143.5710   72.0880  220.1080 C   0  0  2  0  0  0  0  0  0  0  0  0
  143.2560   71.4980  221.3330 O   0  0  0  0  0  0  0  0  0  0  0  0
  144.5190   73.2240  220.3850 C   0  0  2  0  0  0  0  0  0  0  0  0
  145.3980   72.9410  221.4250 O   0  0  0  0  0  0  0  0  0  0  0  0
  143.5990   74.3740  220.7190 C   0  0  1  0  0  0  0  0  0  0  0  0
  143.7840   75.4820  219.6930 C   0  0  0  0  0  0  0  0  0  0  0  0
  142.9260   76.5180  220.0160 O   0  0  0  0  0  0  0  0  0  0  0  0
  139.8940   70.4710  223.9150 C   0  0  0  0  0  0  0  0  0  0  0  0
  139.2640   69.2470  223.8910 C   0  0  0  0  0  0  0  0  0  0  0  0
  139.1920   68.4130  224.9970 C   0  0  0  0  0  0  0  0  0  0  0  0
  139.8100   68.9040  226.1510 C   0  0  0  0  0  0  0  0  0  0  0  0
  139.7540   68.0990  227.2620 C   0  0  0  0  0  0  0  0  0  0  0  0
  140.3350   68.5110  228.4320 C   0  0  0  0  0  0  0  0  0  0  0  0
  140.9650   69.7340  228.4550 C   0  0  0  0  0  0  0  0  0  0  0  0
  141.0300   70.5630  227.3340 C   0  0  0  0  0  0  0  0  0  0  0  0
  140.4400   70.1290  226.1780 C   0  0  0  0  0  0  0  0  0  0  0  0
  140.4630   70.8760  225.0580 N   0  0  0  0  0  0  0  0  0  0  0  0
  139.8260   73.2090  223.6060 H   0  0  0  0  0  0  0  0  0  0  0  0
  139.8857   72.5801  220.6039 H   0  0  0  0  0  0  0  0  0  0  0  0
  138.9680   73.9585  221.2939 H   0  0  0  0  0  0  0  0  0  0  0  0
  141.4606   72.1918  219.5180 H   0  0  0  0  0  0  0  0  0  0  0  0
  142.4393   73.2045  218.5315 H   0  0  0  0  0  0  0  0  0  0  0  0
  143.9469   71.3043  219.4338 H   0  0  0  0  0  0  0  0  0  0  0  0
  144.0660   71.2680  221.8530 H   0  0  0  0  0  0  0  0  0  0  0  0
  145.1791   73.4378  219.5314 H   0  0  0  0  0  0  0  0  0  0  0  0
  145.3190   72.0380  221.7690 H   0  0  0  0  0  0  0  0  0  0  0  0
  143.8072   74.7763  221.7214 H   0  0  0  0  0  0  0  0  0  0  0  0
  144.8241   75.8395  219.7145 H   0  0  0  0  0  0  0  0  0  0  0  0
  143.5622   75.1058  218.6834 H   0  0  0  0  0  0  0  0  0  0  0  0
  142.6080   76.4260  220.9470 H   0  0  0  0  0  0  0  0  0  0  0  0
  138.7966   68.9154  222.9521 H   0  0  0  0  0  0  0  0  0  0  0  0
  138.6858   67.4368  224.9683 H   0  0  0  0  0  0  0  0  0  0  0  0
  139.2438   67.1257  227.2125 H   0  0  0  0  0  0  0  0  0  0  0  0
  140.2988   67.8792  229.3317 H   0  0  0  0  0  0  0  0  0  0  0  0
  141.4346   70.0707  229.3910 H   0  0  0  0  0  0  0  0  0  0  0  0
  141.5404   71.5364  227.3784 H   0  0  0  0  0  0  0  0  0  0  0  0
  1  2  2  0
  2  3  1  0
  3  4  1  0
  4  5  1  0
  5  6  2  0
  5  7  1  0
  7  8  1  0
  8  9  1  0
  9 10  1  0
  9 11  1  0
 11 12  1  0
 11 13  1  0
 13 14  1  0
 14 15  1  0
  2 16  1  0
 16 17  2  0
 17 18  1  0
 18 19  2  0
 19 20  1  0
 20 21  2  0
 21 22  1  0
 22 23  2  0
 23 24  1  0
 24 25  2  0
 13  7  1  0
 25 16  1  0
 24 19  1  0
  3 26  1  0
  4 27  1  0
  4 28  1  0
  8 29  1  0
  8 30  1  0
  9 31  1  6
 10 32  1  0
 11 33  1  6
 12 34  1  0
 13 35  1  1
 14 36  1  0
 14 37  1  0
 15 38  1  0
 17 39  1  0
 18 40  1  0
 20 41  1  0
 21 42  1  0
 22 43  1  0
 23 44  1  0
M  END
>  <smiles>  (1) 
O=C(NCC(=O)N1C[C@H](O)[C@H](O)[C@H]1CO)c1ccc2ccccc2n1

>  <score_type>  (1) 
oracle

>  <origin>  (1) 
autodockgpu

>  <m_score__min__energy>  (1) 
-7.2400000000000002

>  <m_primary>  (1) 
energy

>  <rmsd>  (1) 
3.1511736414359803

>  <m_score__min__rmsd>  (1) 
3.1511736414359803

>  <meeko>  (1) 
{"free_energy": -7.03, "intermolecular_energy": -9.42, "internal_energy": -3.2, "cluster_size": 12, "cluster_id": 1, "rank_in_cluster": 8}

>  <energy>  (1) 
-7.24

>  <cluster_rmsd>  (1) 
0.0

>  <cluster>  (1) 
1

$$$$

     RDKit          3D

 44 46  0  0  0  0  0  0  0  0999 V2000
  137.7370   76.9150  220.8220 O   0  0  0  0  0  0  0  0  0  0  0  0
  138.5610   76.7850  221.7720 C   0  0  0  0  0  0  0  0  0  0  0  0
  138.7190   75.4720  222.2930 N   0  0  0  0  0  0  0  0  0  0  0  0
  137.9000   74.4300  221.6570 C   0  0  0  0  0  0  0  0  0  0  0  0
  138.6440   73.8510  220.5340 C   0  0  0  0  0  0  0  0  0  0  0  0
  138.0310   73.0100  219.8030 O   0  0  0  0  0  0  0  0  0  0  0  0
  139.9770   74.1400  220.1870 N   0  0  0  0  0  0  0  0  0  0  0  0
  141.1460   73.3890  220.6770 C   0  0  0  0  0  0  0  0  0  0  0  0
  141.9910   74.5790  221.1290 C   0  0  2  0  0  0  0  0  0  0  0  0
  141.3570   75.2330  222.1870 O   0  0  0  0  0  0  0  0  0  0  0  0
  141.9100   75.4800  219.9270 C   0  0  2  0  0  0  0  0  0  0  0  0
  142.0230   76.8250  220.2620 O   0  0  0  0  0  0  0  0  0  0  0  0
  140.5580   75.1560  219.3370 C   0  0  1  0  0  0  0  0  0  0  0  0
  140.7410   74.5850  217.9390 C   0  0  0  0  0  0  0  0  0  0  0  0
  139.5050   74.1720  217.4750 O   0  0  0  0  0  0  0  0  0  0  0  0
  139.3150   77.9080  222.3130 C   0  0  0  0  0  0  0  0  0  0  0  0
  138.6070   78.9110  222.9370 C   0  0  0  0  0  0  0  0  0  0  0  0
  139.2100   80.0300  223.4920 C   0  0  0  0  0  0  0  0  0  0  0  0
  140.6020   80.0710  223.3740 C   0  0  0  0  0  0  0  0  0  0  0  0
  141.2270   81.1690  223.9140 C   0  0  0  0  0  0  0  0  0  0  0  0
  142.5900   81.2830  223.8390 C   0  0  0  0  0  0  0  0  0  0  0  0
  143.2980   80.2810  223.2160 C   0  0  0  0  0  0  0  0  0  0  0  0
  142.6770   79.1600  222.6620 C   0  0  0  0  0  0  0  0  0  0  0  0
  141.3140   79.0700  222.7500 C   0  0  0  0  0  0  0  0  0  0  0  0
  140.6480   78.0180  222.2390 N   0  0  0  0  0  0  0  0  0  0  0  0
  139.3740   75.2610  223.0770 H   0  0  0  0  0  0  0  0  0  0  0  0
  137.6704   73.6434  222.3909 H   0  0  0  0  0  0  0  0  0  0  0  0
  136.9609   74.8702  221.2906 H   0  0  0  0  0  0  0  0  0  0  0  0
  140.8907   72.7189  221.5111 H   0  0  0  0  0  0  0  0  0  0  0  0
  141.6194   72.7083  219.9541 H   0  0  0  0  0  0  0  0  0  0  0  0
  143.0059   74.3030  221.4513 H   0  0  0  0  0  0  0  0  0  0  0  0
  141.7140   76.1460  222.3240 H   0  0  0  0  0  0  0  0  0  0  0  0
  142.7367   75.3128  219.2209 H   0  0  0  0  0  0  0  0  0  0  0  0
  142.2260   76.9790  221.1980 H   0  0  0  0  0  0  0  0  0  0  0  0
  139.9215   76.0511  219.2756 H   0  0  0  0  0  0  0  0  0  0  0  0
  141.1498   75.3580  217.2717 H   0  0  0  0  0  0  0  0  0  0  0  0
  141.4402   73.7362  217.9640 H   0  0  0  0  0  0  0  0  0  0  0  0
  139.0200   73.6770  218.1790 H   0  0  0  0  0  0  0  0  0  0  0  0
  137.5124   78.8205  222.9981 H   0  0  0  0  0  0  0  0  0  0  0  0
  138.6354   80.8260  223.9882 H   0  0  0  0  0  0  0  0  0  0  0  0
  140.6343   81.9546  224.4054 H   0  0  0  0  0  0  0  0  0  0  0  0
  143.1064   82.1550  224.2667 H   0  0  0  0  0  0  0  0  0  0  0  0
  144.3928   80.3663  223.1522 H   0  0  0  0  0  0  0  0  0  0  0  0
  143.2658   78.3722  222.1693 H   0  0  0  0  0  0  0  0  0  0  0  0
  1  2  2  0
  2  3  1  0
  3  4  1  0
  4  5  1  0
  5  6  2  0
  5  7  1  0
  7  8  1  0
  8  9  1  0
  9 10  1  0
  9 11  1  0
 11 12  1  0
 11 13  1  0
 13 14  1  0
 14 15  1  0
  2 16  1  0
 16 17  2  0
 17 18  1  0
 18 19  2  0
 19 20  1  0
 20 21  2  0
 21 22  1  0
 22 23  2  0
 23 24  1  0
 24 25  2  0
 13  7  1  0
 25 16  1  0
 24 19  1  0
  3 26  1  0
  4 27  1  0
  4 28  1  0
  8 29  1  0
  8 30  1  0
  9 31  1  1
 10 32  1  0
 11 33  1  6
 12 34  1  0
 13 35  1  6
 14 36  1  0
 14 37  1  0
 15 38  1  0
 17 39  1  0
 18 40  1  0
 20 41  1  0
 21 42  1  0
 22 43  1  0
 23 44  1  0
M  END
>  <smiles>  (2) 
O=C(NCC(=O)N1C[C@H](O)[C@H](O)[C@H]1CO)c1ccc2ccccc2n1

>  <score_type>  (2) 
oracle

>  <origin>  (2) 
autodockgpu

>  <m_score__min__energy>  (2) 
-7.2400000000000002

>  <m_primary>  (2) 
energy

>  <rmsd>  (2) 
7.3743752427466

>  <m_score__min__rmsd>  (2) 
7.3743752427466

>  <meeko>  (2) 
{"free_energy": -4.61, "intermolecular_energy": -7.0, "internal_energy": -5.54, "cluster_size": 12, "cluster_id": 6, "rank_in_cluster": 9}

>  <energy>  (2) 
-7.23

>  <cluster_rmsd>  (2) 
1.74

>  <cluster>  (2) 
1

$$$$

     RDKit          3D

 44 46  0  0  0  0  0  0  0  0999 V2000
  140.5260   70.9220  221.4910 O   0  0  0  0  0  0  0  0  0  0  0  0
  140.0880   71.4020  222.5760 C   0  0  0  0  0  0  0  0  0  0  0  0
  139.6830   72.7640  222.5430 N   0  0  0  0  0  0  0  0  0  0  0  0
  139.8260   73.4420  221.2460 C   0  0  0  0  0  0  0  0  0  0  0  0
  141.0630   74.2290  221.2480 C   0  0  0  0  0  0  0  0  0  0  0  0
  141.0860   75.2740  221.9720 O   0  0  0  0  0  0  0  0  0  0  0  0
  142.2330   73.9360  220.5220 N   0  0  0  0  0  0  0  0  0  0  0  0
  142.3220   72.9170  219.4620 C   0  0  0  0  0  0  0  0  0  0  0  0
  143.5720   72.1950  219.9610 C   0  0  2  0  0  0  0  0  0  0  0  0
  143.3100   71.5910  221.1920 O   0  0  0  0  0  0  0  0  0  0  0  0
  144.5050   73.3490  220.2140 C   0  0  2  0  0  0  0  0  0  0  0  0
  145.4230   73.0780  221.2220 O   0  0  0  0  0  0  0  0  0  0  0  0
  143.5730   74.4770  220.5860 C   0  0  1  0  0  0  0  0  0  0  0  0
  143.7010   75.5960  219.5620 C   0  0  0  0  0  0  0  0  0  0  0  0
  142.9110   76.6530  219.9750 O   0  0  0  0  0  0  0  0  0  0  0  0
  139.9970   70.6160  223.7990 C   0  0  0  0  0  0  0  0  0  0  0  0
  139.3090   69.4250  223.7430 C   0  0  0  0  0  0  0  0  0  0  0  0
  139.1530   68.5900  224.8390 C   0  0  0  0  0  0  0  0  0  0  0  0
  139.7510   69.0430  226.0180 C   0  0  0  0  0  0  0  0  0  0  0  0
  139.6130   68.2350  227.1200 C   0  0  0  0  0  0  0  0  0  0  0  0
  140.1710   68.6100  228.3140 C   0  0  0  0  0  0  0  0  0  0  0  0
  140.8590   69.8000  228.3710 C   0  0  0  0  0  0  0  0  0  0  0  0
  141.0080   70.6310  227.2590 C   0  0  0  0  0  0  0  0  0  0  0  0
  140.4410   70.2340  226.0780 C   0  0  0  0  0  0  0  0  0  0  0  0
  140.5430   70.9850  224.9650 N   0  0  0  0  0  0  0  0  0  0  0  0
  139.3080   73.2530  223.3860 H   0  0  0  0  0  0  0  0  0  0  0  0
  139.8678   72.6928  220.4417 H   0  0  0  0  0  0  0  0  0  0  0  0
  138.9653   74.1063  221.0790 H   0  0  0  0  0  0  0  0  0  0  0  0
  141.4410   72.2586  219.4427 H   0  0  0  0  0  0  0  0  0  0  0  0
  142.3650   73.2974  218.4308 H   0  0  0  0  0  0  0  0  0  0  0  0
  143.9415   71.4235  219.2694 H   0  0  0  0  0  0  0  0  0  0  0  0
  144.1410   71.3840  221.6880 H   0  0  0  0  0  0  0  0  0  0  0  0
  145.1318   73.5820  219.3406 H   0  0  0  0  0  0  0  0  0  0  0  0
  145.3640   72.1770  221.5740 H   0  0  0  0  0  0  0  0  0  0  0  0
  143.8060   74.8769  221.5839 H   0  0  0  0  0  0  0  0  0  0  0  0
  144.7500   75.9198  219.4937 H   0  0  0  0  0  0  0  0  0  0  0  0
  143.3763   75.2435  218.5719 H   0  0  0  0  0  0  0  0  0  0  0  0
  142.5470   76.4800  220.8780 H   0  0  0  0  0  0  0  0  0  0  0  0
  138.8624   69.1217  222.7846 H   0  0  0  0  0  0  0  0  0  0  0  0
  138.5994   67.6410  224.7844 H   0  0  0  0  0  0  0  0  0  0  0  0
  139.0561   67.2894  227.0443 H   0  0  0  0  0  0  0  0  0  0  0  0
  140.0712   67.9743  229.2062 H   0  0  0  0  0  0  0  0  0  0  0  0
  141.3078   70.1078  229.3270 H   0  0  0  0  0  0  0  0  0  0  0  0
  141.5647   71.5771  227.3298 H   0  0  0  0  0  0  0  0  0  0  0  0
  1  2  2  0
  2  3  1  0
  3  4  1  0
  4  5  1  0
  5  6  2  0
  5  7  1  0
  7  8  1  0
  8  9  1  0
  9 10  1  0
  9 11  1  0
 11 12  1  0
 11 13  1  0
 13 14  1  0
 14 15  1  0
  2 16  1  0
 16 17  2  0
 17 18  1  0
 18 19  2  0
 19 20  1  0
 20 21  2  0
 21 22  1  0
 22 23  2  0
 23 24  1  0
 24 25  2  0
 13  7  1  0
 25 16  1  0
 24 19  1  0
  3 26  1  0
  4 27  1  0
  4 28  1  0
  8 29  1  0
  8 30  1  0
  9 31  1  6
 10 32  1  0
 11 33  1  6
 12 34  1  0
 13 35  1  1
 14 36  1  0
 14 37  1  0
 15 38  1  0
 17 39  1  0
 18 40  1  0
 20 41  1  0
 21 42  1  0
 22 43  1  0
 23 44  1  0
M  END
>  <smiles>  (3) 
O=C(NCC(=O)N1C[C@H](O)[C@H](O)[C@H]1CO)c1ccc2ccccc2n1

>  <score_type>  (3) 
oracle

>  <origin>  (3) 
autodockgpu

>  <m_score__min__energy>  (3) 
-7.2400000000000002

>  <m_primary>  (3) 
energy

>  <rmsd>  (3) 
3.057282567405136

>  <m_score__min__rmsd>  (3) 
3.057282567405136

>  <meeko>  (3) 
{"free_energy": -7.24, "intermolecular_energy": -9.63, "internal_energy": -3.15, "cluster_size": 12, "cluster_id": 1, "rank_in_cluster": 1}

>  <energy>  (3) 
-7.14

>  <cluster_rmsd>  (3) 
0.25

>  <cluster>  (3) 
1

$$$$

     RDKit          3D

 44 46  0  0  0  0  0  0  0  0999 V2000
  137.8370   76.7680  220.7440 O   0  0  0  0  0  0  0  0  0  0  0  0
  138.6160   76.6670  221.7350 C   0  0  0  0  0  0  0  0  0  0  0  0
  138.7620   75.3660  222.2900 N   0  0  0  0  0  0  0  0  0  0  0  0
  137.9850   74.3020  221.6370 C   0  0  0  0  0  0  0  0  0  0  0  0
  138.7000   73.8500  220.4400 C   0  0  0  0  0  0  0  0  0  0  0  0
  138.0370   73.1840  219.5830 O   0  0  0  0  0  0  0  0  0  0  0  0
  140.0570   74.0830  220.1470 N   0  0  0  0  0  0  0  0  0  0  0  0
  141.1770   73.3150  220.7200 C   0  0  0  0  0  0  0  0  0  0  0  0
  142.0380   74.4930  221.1700 C   0  0  2  0  0  0  0  0  0  0  0  0
  141.3770   75.2070  222.1720 O   0  0  0  0  0  0  0  0  0  0  0  0
  142.0440   75.3520  219.9330 C   0  0  2  0  0  0  0  0  0  0  0  0
  142.1860   76.7030  220.2260 O   0  0  0  0  0  0  0  0  0  0  0  0
  140.7110   75.0480  219.2910 C   0  0  1  0  0  0  0  0  0  0  0  0
  140.9420   74.4200  217.9250 C   0  0  0  0  0  0  0  0  0  0  0  0
  140.1860   73.2640  217.8480 O   0  0  0  0  0  0  0  0  0  0  0  0
  139.3300   77.8090  222.2880 C   0  0  0  0  0  0  0  0  0  0  0  0
  138.5850   78.8010  222.8840 C   0  0  0  0  0  0  0  0  0  0  0  0
  139.1480   79.9360  223.4470 C   0  0  0  0  0  0  0  0  0  0  0  0
  140.5420   80.0060  223.3680 C   0  0  0  0  0  0  0  0  0  0  0  0
  141.1280   81.1200  223.9170 C   0  0  0  0  0  0  0  0  0  0  0  0
  142.4910   81.2620  223.8800 C   0  0  0  0  0  0  0  0  0  0  0  0
  143.2360   80.2710  223.2850 C   0  0  0  0  0  0  0  0  0  0  0  0
  142.6550   79.1330  222.7230 C   0  0  0  0  0  0  0  0  0  0  0  0
  141.2920   79.0150  222.7720 C   0  0  0  0  0  0  0  0  0  0  0  0
  140.6620   77.9460  222.2510 N   0  0  0  0  0  0  0  0  0  0  0  0
  139.3800   75.1780  223.1090 H   0  0  0  0  0  0  0  0  0  0  0  0
  137.8599   73.4583  222.3316 H   0  0  0  0  0  0  0  0  0  0  0  0
  136.9949   74.6880  221.3529 H   0  0  0  0  0  0  0  0  0  0  0  0
  140.8606   72.6844  221.5639 H   0  0  0  0  0  0  0  0  0  0  0  0
  141.6618   72.5941  220.0453 H   0  0  0  0  0  0  0  0  0  0  0  0
  143.0262   74.1964  221.5513 H   0  0  0  0  0  0  0  0  0  0  0  0
  141.7620   76.1100  222.2990 H   0  0  0  0  0  0  0  0  0  0  0  0
  142.8966   75.1340  219.2730 H   0  0  0  0  0  0  0  0  0  0  0  0
  142.2220   76.8970  221.1750 H   0  0  0  0  0  0  0  0  0  0  0  0
  140.1073   75.9593  219.1677 H   0  0  0  0  0  0  0  0  0  0  0  0
  140.6324   75.1208  217.1357 H   0  0  0  0  0  0  0  0  0  0  0  0
  142.0084   74.1867  217.7892 H   0  0  0  0  0  0  0  0  0  0  0  0
  139.2630   73.4330  218.1570 H   0  0  0  0  0  0  0  0  0  0  0  0
  137.4913   78.6880  222.9151 H   0  0  0  0  0  0  0  0  0  0  0  0
  138.5428   80.7230  223.9207 H   0  0  0  0  0  0  0  0  0  0  0  0
  140.5053   81.8965  224.3853 H   0  0  0  0  0  0  0  0  0  0  0  0
  142.9771   82.1473  224.3158 H   0  0  0  0  0  0  0  0  0  0  0  0
  144.3301   80.3791  223.2507 H   0  0  0  0  0  0  0  0  0  0  0  0
  143.2742   78.3539  222.2545 H   0  0  0  0  0  0  0  0  0  0  0  0
  1  2  2  0
  2  3  1  0
  3  4  1  0
  4  5  1  0
  5  6  2  0
  5  7  1  0
  7  8  1  0
  8  9  1  0
  9 10  1  0
  9 11  1  0
 11 12  1  0
 11 13  1  0
 13 14  1  0
 14 15  1  0
  2 16  1  0
 16 17  2  0
 17 18  1  0
 18 19  2  0
 19 20  1  0
 20 21  2  0
 21 22  1  0
 22 23  2  0
 23 24  1  0
 24 25  2  0
 13  7  1  0
 25 16  1  0
 24 19  1  0
  3 26  1  0
  4 27  1  0
  4 28  1  0
  8 29  1  0
  8 30  1  0
  9 31  1  1
 10 32  1  0
 11 33  1  6
 12 34  1  0
 13 35  1  6
 14 36  1  0
 14 37  1  0
 15 38  1  0
 17 39  1  0
 18 40  1  0
 20 41  1  0
 21 42  1  0
 22 43  1  0
 23 44  1  0
M  END
>  <smiles>  (4) 
O=C(NCC(=O)N1C[C@H](O)[C@H](O)[C@H]1CO)c1ccc2ccccc2n1

>  <score_type>  (4) 
oracle

>  <origin>  (4) 
autodockgpu

>  <m_score__min__energy>  (4) 
-7.2400000000000002

>  <m_primary>  (4) 
energy

>  <rmsd>  (4) 
7.327147840943851

>  <m_score__min__rmsd>  (4) 
7.327147840943851

>  <meeko>  (4) 
{"free_energy": -4.62, "intermolecular_energy": -7.01, "internal_energy": -5.52, "cluster_size": 12, "cluster_id": 6, "rank_in_cluster": 8}

>  <energy>  (4) 
-7.11

>  <cluster_rmsd>  (4) 
1.53

>  <cluster>  (4) 
1

$$$$

     RDKit          3D

 44 46  0  0  0  0  0  0  0  0999 V2000
  140.9130   73.3770  222.3330 O   0  0  0  0  0  0  0  0  0  0  0  0
  140.6740   72.1370  222.3990 C   0  0  0  0  0  0  0  0  0  0  0  0
  140.7430   71.4170  221.1750 N   0  0  0  0  0  0  0  0  0  0  0  0
  141.0860   72.2100  219.9850 C   0  0  0  0  0  0  0  0  0  0  0  0
  142.4600   71.9000  219.5800 C   0  0  0  0  0  0  0  0  0  0  0  0
  142.6910   70.7200  219.1660 O   0  0  0  0  0  0  0  0  0  0  0  0
  143.5530   72.7870  219.6060 N   0  0  0  0  0  0  0  0  0  0  0  0
  144.4760   73.0040  218.4780 C   0  0  0  0  0  0  0  0  0  0  0  0
  145.7900   72.8430  219.2410 C   0  0  2  0  0  0  0  0  0  0  0  0
  145.9030   71.5350  219.7160 O   0  0  0  0  0  0  0  0  0  0  0  0
  145.5570   73.7360  220.4310 C   0  0  2  0  0  0  0  0  0  0  0  0
  146.2590   73.3160  221.5550 O   0  0  0  0  0  0  0  0  0  0  0  0
  144.0630   73.6650  220.6360 C   0  0  1  0  0  0  0  0  0  0  0  0
  143.4620   75.0490  220.4460 C   0  0  0  0  0  0  0  0  0  0  0  0
  142.1800   75.0390  220.9670 O   0  0  0  0  0  0  0  0  0  0  0  0
  140.3440   71.4690  223.6510 C   0  0  0  0  0  0  0  0  0  0  0  0
  139.5960   70.3160  223.5810 C   0  0  0  0  0  0  0  0  0  0  0  0
  139.2190   69.5910  224.7020 C   0  0  0  0  0  0  0  0  0  0  0  0
  139.6560   70.1150  225.9210 C   0  0  0  0  0  0  0  0  0  0  0  0
  139.2970   69.4180  227.0490 C   0  0  0  0  0  0  0  0  0  0  0  0
  139.6870   69.8690  228.2820 C   0  0  0  0  0  0  0  0  0  0  0  0
  140.4350   71.0220  228.3520 C   0  0  0  0  0  0  0  0  0  0  0  0
  140.8070   71.7410  227.2150 C   0  0  0  0  0  0  0  0  0  0  0  0
  140.4050   71.2700  225.9950 C   0  0  0  0  0  0  0  0  0  0  0  0
  140.7260   71.9120  224.8560 N   0  0  0  0  0  0  0  0  0  0  0  0
  140.5620   70.3910  221.1240 H   0  0  0  0  0  0  0  0  0  0  0  0
  140.3957   71.9613  219.1655 H   0  0  0  0  0  0  0  0  0  0  0  0
  141.0018   73.2818  220.2178 H   0  0  0  0  0  0  0  0  0  0  0  0
  144.3564   72.2454  217.6904 H   0  0  0  0  0  0  0  0  0  0  0  0
  144.3509   73.9483  217.9279 H   0  0  0  0  0  0  0  0  0  0  0  0
  146.6816   73.0707  218.6384 H   0  0  0  0  0  0  0  0  0  0  0  0
  145.6150   71.4570  220.6600 H   0  0  0  0  0  0  0  0  0  0  0  0
  145.9163   74.7620  220.2632 H   0  0  0  0  0  0  0  0  0  0  0  0
  146.2670   72.3530  221.6750 H   0  0  0  0  0  0  0  0  0  0  0  0
  143.8125   73.3024  221.6438 H   0  0  0  0  0  0  0  0  0  0  0  0
  144.0728   75.7959  220.9743 H   0  0  0  0  0  0  0  0  0  0  0  0
  143.4358   75.3084  219.3773 H   0  0  0  0  0  0  0  0  0  0  0  0
  142.2070   75.1260  221.9520 H   0  0  0  0  0  0  0  0  0  0  0  0
  139.2828   69.9527  222.5911 H   0  0  0  0  0  0  0  0  0  0  0  0
  138.6198   68.6709  224.6359 H   0  0  0  0  0  0  0  0  0  0  0  0
  138.6976   68.4997  226.9621 H   0  0  0  0  0  0  0  0  0  0  0  0
  139.4088   69.3223  229.1951 H   0  0  0  0  0  0  0  0  0  0  0  0
  140.7510   71.3901  229.3392 H   0  0  0  0  0  0  0  0  0  0  0  0
  141.4061   72.6598  227.2974 H   0  0  0  0  0  0  0  0  0  0  0  0
  1  2  2  0
  2  3  1  0
  3  4  1  0
  4  5  1  0
  5  6  2  0
  5  7  1  0
  7  8  1  0
  8  9  1  0
  9 10  1  0
  9 11  1  0
 11 12  1  0
 11 13  1  0
 13 14  1  0
 14 15  1  0
  2 16  1  0
 16 17  2  0
 17 18  1  0
 18 19  2  0
 19 20  1  0
 20 21  2  0
 21 22  1  0
 22 23  2  0
 23 24  1  0
 24 25  2  0
 13  7  1  0
 25 16  1  0
 24 19  1  0
  3 26  1  0
  4 27  1  0
  4 28  1  0
  8 29  1  0
  8 30  1  0
  9 31  1  6
 10 32  1  0
 11 33  1  6
 12 34  1  0
 13 35  1  1
 14 36  1  0
 14 37  1  0
 15 38  1  0
 17 39  1  0
 18 40  1  0
 20 41  1  0
 21 42  1  0
 22 43  1  0
 23 44  1  0
M  END
>  <smiles>  (5) 
O=C(NCC(=O)N1C[C@H](O)[C@H](O)[C@H]1CO)c1ccc2ccccc2n1

>  <score_type>  (5) 
oracle

>  <origin>  (5) 
autodockgpu

>  <m_score__min__energy>  (5) 
-7.2400000000000002

>  <m_primary>  (5) 
energy

>  <rmsd>  (5) 
3.9862802478414383

>  <m_score__min__rmsd>  (5) 
3.9862802478414383

>  <meeko>  (5) 
{"free_energy": -7.11, "intermolecular_energy": -9.49, "internal_energy": -2.98, "cluster_size": 12, "cluster_id": 1, "rank_in_cluster": 4}

>  <energy>  (5) 
-7.11

>  <cluster_rmsd>  (5) 
0.11

>  <cluster>  (5) 
1

$$$$

     RDKit          3D

 44 46  0  0  0  0  0  0  0  0999 V2000
  137.6760   76.8050  220.9540 O   0  0  0  0  0  0  0  0  0  0  0  0
  138.5680   76.6910  221.8430 C   0  0  0  0  0  0  0  0  0  0  0  0
  138.8080   75.3770  222.3290 N   0  0  0  0  0  0  0  0  0  0  0  0
  137.9840   74.3150  221.7330 C   0  0  0  0  0  0  0  0  0  0  0  0
  138.6520   73.8060  220.5320 C   0  0  0  0  0  0  0  0  0  0  0  0
  138.0160   72.9570  219.8290 O   0  0  0  0  0  0  0  0  0  0  0  0
  139.9350   74.1680  220.0790 N   0  0  0  0  0  0  0  0  0  0  0  0
  141.1700   73.4310  220.4010 C   0  0  0  0  0  0  0  0  0  0  0  0
  142.0170   74.6180  220.8540 C   0  0  2  0  0  0  0  0  0  0  0  0
  141.4700   75.1750  222.0110 O   0  0  0  0  0  0  0  0  0  0  0  0
  141.7900   75.5950  219.7310 C   0  0  2  0  0  0  0  0  0  0  0  0
  141.8940   76.9170  220.1490 O   0  0  0  0  0  0  0  0  0  0  0  0
  140.3980   75.2600  219.2520 C   0  0  1  0  0  0  0  0  0  0  0  0
  140.4610   74.7920  217.8060 C   0  0  0  0  0  0  0  0  0  0  0  0
  139.2270   74.2660  217.4680 O   0  0  0  0  0  0  0  0  0  0  0  0
  139.3160   77.8340  222.3500 C   0  0  0  0  0  0  0  0  0  0  0  0
  138.6010   78.8710  222.9050 C   0  0  0  0  0  0  0  0  0  0  0  0
  139.1980   80.0100  223.4210 C   0  0  0  0  0  0  0  0  0  0  0  0
  140.5930   80.0360  223.3410 C   0  0  0  0  0  0  0  0  0  0  0  0
  141.2130   81.1530  223.8450 C   0  0  0  0  0  0  0  0  0  0  0  0
  142.5790   81.2530  223.8020 C   0  0  0  0  0  0  0  0  0  0  0  0
  143.2940   80.2160  223.2490 C   0  0  0  0  0  0  0  0  0  0  0  0
  142.6790   79.0750  222.7320 C   0  0  0  0  0  0  0  0  0  0  0  0
  141.3130   78.9990  222.7860 C   0  0  0  0  0  0  0  0  0  0  0  0
  140.6520   77.9290  222.3080 N   0  0  0  0  0  0  0  0  0  0  0  0
  139.5230   75.1790  223.0620 H   0  0  0  0  0  0  0  0  0  0  0  0
  137.8563   73.4975  222.4578 H   0  0  0  0  0  0  0  0  0  0  0  0
  136.9967   74.7189  221.4646 H   0  0  0  0  0  0  0  0  0  0  0  0
  141.0186   72.6965  221.2057 H   0  0  0  0  0  0  0  0  0  0  0  0
  141.5919   72.8199  219.5894 H   0  0  0  0  0  0  0  0  0  0  0  0
  143.0664   74.3592  221.0582 H   0  0  0  0  0  0  0  0  0  0  0  0
  141.8010   76.0940  222.1730 H   0  0  0  0  0  0  0  0  0  0  0  0
  142.5474   75.5079  218.9380 H   0  0  0  0  0  0  0  0  0  0  0  0
  142.1740   77.0150  221.0720 H   0  0  0  0  0  0  0  0  0  0  0  0
  139.7308   76.1323  219.3157 H   0  0  0  0  0  0  0  0  0  0  0  0
  140.6958   75.6426  217.1492 H   0  0  0  0  0  0  0  0  0  0  0  0
  141.2447   74.0293  217.6872 H   0  0  0  0  0  0  0  0  0  0  0  0
  138.9910   73.5230  218.0750 H   0  0  0  0  0  0  0  0  0  0  0  0
  137.5044   78.7918  222.9406 H   0  0  0  0  0  0  0  0  0  0  0  0
  138.6165   80.8334  223.8613 H   0  0  0  0  0  0  0  0  0  0  0  0
  140.6143   81.9657  224.2823 H   0  0  0  0  0  0  0  0  0  0  0  0
  143.0915   82.1412  224.2001 H   0  0  0  0  0  0  0  0  0  0  0  0
  144.3910   80.2889  223.2130 H   0  0  0  0  0  0  0  0  0  0  0  0
  143.2743   78.2604  222.2938 H   0  0  0  0  0  0  0  0  0  0  0  0
  1  2  2  0
  2  3  1  0
  3  4  1  0
  4  5  1  0
  5  6  2  0
  5  7  1  0
  7  8  1  0
  8  9  1  0
  9 10  1  0
  9 11  1  0
 11 12  1  0
 11 13  1  0
 13 14  1  0
 14 15  1  0
  2 16  1  0
 16 17  2  0
 17 18  1  0
 18 19  2  0
 19 20  1  0
 20 21  2  0
 21 22  1  0
 22 23  2  0
 23 24  1  0
 24 25  2  0
 13  7  1  0
 25 16  1  0
 24 19  1  0
  3 26  1  0
  4 27  1  0
  4 28  1  0
  8 29  1  0
  8 30  1  0
  9 31  1  1
 10 32  1  0
 11 33  1  6
 12 34  1  0
 13 35  1  6
 14 36  1  0
 14 37  1  0
 15 38  1  0
 17 39  1  0
 18 40  1  0
 20 41  1  0
 21 42  1  0
 22 43  1  0
 23 44  1  0
M  END
>  <smiles>  (6) 
O=C(NCC(=O)N1C[C@H](O)[C@H](O)[C@H]1CO)c1ccc2ccccc2n1

>  <score_type>  (6) 
oracle

>  <origin>  (6) 
autodockgpu

>  <m_score__min__energy>  (6) 
-7.2400000000000002

>  <m_primary>  (6) 
energy

>  <rmsd>  (6) 
7.315409644465758

>  <m_score__min__rmsd>  (6) 
7.315409644465758

>  <meeko>  (6) 
{"free_energy": -4.68, "intermolecular_energy": -7.07, "internal_energy": -5.55, "cluster_size": 12, "cluster_id": 6, "rank_in_cluster": 6}

>  <energy>  (6) 
-7.07

>  <cluster_rmsd>  (6) 
1.84

>  <cluster>  (6) 
1

$$$$

     RDKit          3D

 44 46  0  0  0  0  0  0  0  0999 V2000
  141.3730   73.1170  221.9370 O   0  0  0  0  0  0  0  0  0  0  0  0
  140.2770   72.9080  222.5320 C   0  0  0  0  0  0  0  0  0  0  0  0
  139.2580   73.8780  222.3340 N   0  0  0  0  0  0  0  0  0  0  0  0
  139.6110   75.0060  221.4590 C   0  0  0  0  0  0  0  0  0  0  0  0
  139.2900   76.2630  222.1420 C   0  0  0  0  0  0  0  0  0  0  0  0
  138.4110   76.2180  223.0600 O   0  0  0  0  0  0  0  0  0  0  0  0
  139.8650   77.5210  221.8780 N   0  0  0  0  0  0  0  0  0  0  0  0
  139.9560   78.1290  220.5390 C   0  0  0  0  0  0  0  0  0  0  0  0
  141.4370   78.5030  220.5740 C   0  0  2  0  0  0  0  0  0  0  0  0
  142.2160   77.3460  220.6340 O   0  0  0  0  0  0  0  0  0  0  0  0
  141.5430   79.1880  221.9100 C   0  0  2  0  0  0  0  0  0  0  0  0
  142.8090   79.0640  222.4710 O   0  0  0  0  0  0  0  0  0  0  0  0
  140.4850   78.5020  222.7400 C   0  0  1  0  0  0  0  0  0  0  0  0
  139.4370   79.5200  223.1630 C   0  0  0  0  0  0  0  0  0  0  0  0
  138.1890   78.9450  223.0080 O   0  0  0  0  0  0  0  0  0  0  0  0
  140.0560   71.7410  223.3760 C   0  0  0  0  0  0  0  0  0  0  0  0
  139.1840   70.7790  222.9190 C   0  0  0  0  0  0  0  0  0  0  0  0
  138.8910   69.6250  223.6300 C   0  0  0  0  0  0  0  0  0  0  0  0
  139.5500   69.5020  224.8560 C   0  0  0  0  0  0  0  0  0  0  0  0
  139.2800   68.3680  225.5830 C   0  0  0  0  0  0  0  0  0  0  0  0
  139.8870   68.1750  226.7960 C   0  0  0  0  0  0  0  0  0  0  0  0
  140.7590   69.1350  227.2520 C   0  0  0  0  0  0  0  0  0  0  0  0
  141.0440   70.2930  226.5250 C   0  0  0  0  0  0  0  0  0  0  0  0
  140.4240   70.4630  225.3170 C   0  0  0  0  0  0  0  0  0  0  0  0
  140.6510   71.5540  224.5610 N   0  0  0  0  0  0  0  0  0  0  0  0
  138.3180   73.7960  222.7810 H   0  0  0  0  0  0  0  0  0  0  0  0
  140.6871   74.9741  221.2332 H   0  0  0  0  0  0  0  0  0  0  0  0
  139.0413   74.9388  220.5204 H   0  0  0  0  0  0  0  0  0  0  0  0
  139.7269   77.4100  219.7387 H   0  0  0  0  0  0  0  0  0  0  0  0
  139.2555   78.9521  220.3345 H   0  0  0  0  0  0  0  0  0  0  0  0
  141.7631   79.0945  219.7058 H   0  0  0  0  0  0  0  0  0  0  0  0
  142.5160   77.1490  221.5560 H   0  0  0  0  0  0  0  0  0  0  0  0
  141.3913   80.2751  221.8385 H   0  0  0  0  0  0  0  0  0  0  0  0
  143.4220   78.5310  221.9410 H   0  0  0  0  0  0  0  0  0  0  0  0
  140.9174   78.0405  223.6400 H   0  0  0  0  0  0  0  0  0  0  0  0
  139.5910   79.7973  224.2163 H   0  0  0  0  0  0  0  0  0  0  0  0
  139.5170   80.4268  222.5454 H   0  0  0  0  0  0  0  0  0  0  0  0
  138.1880   78.0220  223.3610 H   0  0  0  0  0  0  0  0  0  0  0  0
  138.6970   70.9327  221.9447 H   0  0  0  0  0  0  0  0  0  0  0  0
  138.1915   68.8627  223.2564 H   0  0  0  0  0  0  0  0  0  0  0  0
  138.5781   67.6167  225.1921 H   0  0  0  0  0  0  0  0  0  0  0  0
  139.6814   67.2730  227.3911 H   0  0  0  0  0  0  0  0  0  0  0  0
  141.2502   68.9857  228.2249 H   0  0  0  0  0  0  0  0  0  0  0  0
  141.7461   71.0461  226.9120 H   0  0  0  0  0  0  0  0  0  0  0  0
  1  2  2  0
  2  3  1  0
  3  4  1  0
  4  5  1  0
  5  6  2  0
  5  7  1  0
  7  8  1  0
  8  9  1  0
  9 10  1  0
  9 11  1  0
 11 12  1  0
 11 13  1  0
 13 14  1  0
 14 15  1  0
  2 16  1  0
 16 17  2  0
 17 18  1  0
 18 19  2  0
 19 20  1  0
 20 21  2  0
 21 22  1  0
 22 23  2  0
 23 24  1  0
 24 25  2  0
 13  7  1  0
 25 16  1  0
 24 19  1  0
  3 26  1  0
  4 27  1  0
  4 28  1  0
  8 29  1  0
  8 30  1  0
  9 31  1  6
 10 32  1  0
 11 33  1  6
 12 34  1  0
 13 35  1  1
 14 36  1  0
 14 37  1  0
 15 38  1  0
 17 39  1  0
 18 40  1  0
 20 41  1  0
 21 42  1  0
 22 43  1  0
 23 44  1  0
M  END
>  <smiles>  (7) 
O=C(NCC(=O)N1C[C@H](O)[C@H](O)[C@H]1CO)c1ccc2ccccc2n1

>  <score_type>  (7) 
oracle

>  <origin>  (7) 
autodockgpu

>  <m_score__min__energy>  (7) 
-7.2400000000000002

>  <m_primary>  (7) 
energy

>  <rmsd>  (7) 
3.4791330530019215

>  <m_score__min__rmsd>  (7) 
3.4791330530019215

>  <meeko>  (7) 
{"free_energy": -6.56, "intermolecular_energy": -8.94, "internal_energy": -3.31, "cluster_size": 5, "cluster_id": 2, "rank_in_cluster": 5}

>  <energy>  (7) 
-7.05

>  <cluster_rmsd>  (7) 
0.25

>  <cluster>  (7) 
1

$$$$

     RDKit          3D

 44 46  0  0  0  0  0  0  0  0999 V2000
  140.1760   79.6680  219.1010 O   0  0  0  0  0  0  0  0  0  0  0  0
  141.3550   79.4140  219.4810 C   0  0  0  0  0  0  0  0  0  0  0  0
  142.0530   80.4760  220.1180 N   0  0  0  0  0  0  0  0  0  0  0  0
  141.3120   81.7390  220.2530 C   0  0  0  0  0  0  0  0  0  0  0  0
  140.7500   81.8250  221.6040 C   0  0  0  0  0  0  0  0  0  0  0  0
  140.1490   82.9010  221.9150 O   0  0  0  0  0  0  0  0  0  0  0  0
  140.8140   80.8260  222.5940 N   0  0  0  0  0  0  0  0  0  0  0  0
  141.8220   80.7800  223.6670 C   0  0  0  0  0  0  0  0  0  0  0  0
  142.2530   79.3240  223.4960 C   0  0  2  0  0  0  0  0  0  0  0  0
  142.8610   79.1540  222.2510 O   0  0  0  0  0  0  0  0  0  0  0  0
  140.9220   78.6220  223.4470 C   0  0  2  0  0  0  0  0  0  0  0  0
  140.9660   77.4540  222.6930 O   0  0  0  0  0  0  0  0  0  0  0  0
  140.0030   79.6540  222.8400 C   0  0  1  0  0  0  0  0  0  0  0  0
  138.9130   80.0090  223.8410 C   0  0  0  0  0  0  0  0  0  0  0  0
  138.5190   81.3140  223.6050 O   0  0  0  0  0  0  0  0  0  0  0  0
  141.9760   78.1110  219.2860 C   0  0  0  0  0  0  0  0  0  0  0  0
  142.6900   77.9120  218.1260 C   0  0  0  0  0  0  0  0  0  0  0  0
  143.3260   76.7170  217.8260 C   0  0  0  0  0  0  0  0  0  0  0  0
  143.1930   75.7160  218.7920 C   0  0  0  0  0  0  0  0  0  0  0  0
  143.8120   74.5210  218.5210 C   0  0  0  0  0  0  0  0  0  0  0  0
  143.7270   73.4900  219.4200 C   0  0  0  0  0  0  0  0  0  0  0  0
  143.0140   73.6880  220.5790 C   0  0  0  0  0  0  0  0  0  0  0  0
  142.3790   74.8970  220.8680 C   0  0  0  0  0  0  0  0  0  0  0  0
  142.4780   75.9120  219.9540 C   0  0  0  0  0  0  0  0  0  0  0  0
  141.8910   77.1050  220.1660 N   0  0  0  0  0  0  0  0  0  0  0  0
  143.0300   80.3670  220.4670 H   0  0  0  0  0  0  0  0  0  0  0  0
  141.9936   82.5856  220.0833 H   0  0  0  0  0  0  0  0  0  0  0  0
  140.5000   81.7726  219.5117 H   0  0  0  0  0  0  0  0  0  0  0  0
  142.6499   81.4825  223.4907 H   0  0  0  0  0  0  0  0  0  0  0  0
  141.4708   81.0636  224.6701 H   0  0  0  0  0  0  0  0  0  0  0  0
  142.9506   78.9756  224.2719 H   0  0  0  0  0  0  0  0  0  0  0  0
  142.6690   78.2650  221.8630 H   0  0  0  0  0  0  0  0  0  0  0  0
  140.5881   78.2843  224.4392 H   0  0  0  0  0  0  0  0  0  0  0  0
  141.8420   77.2570  222.3270 H   0  0  0  0  0  0  0  0  0  0  0  0
  139.5332   79.2811  221.9179 H   0  0  0  0  0  0  0  0  0  0  0  0
  138.0554   79.3321  223.7136 H   0  0  0  0  0  0  0  0  0  0  0  0
  139.2920   79.9060  224.8685 H   0  0  0  0  0  0  0  0  0  0  0  0
  138.6460   81.5470  222.6530 H   0  0  0  0  0  0  0  0  0  0  0  0
  142.7592   78.7390  217.4040 H   0  0  0  0  0  0  0  0  0  0  0  0
  143.8937   76.5678  216.8957 H   0  0  0  0  0  0  0  0  0  0  0  0
  144.3747   74.3913  217.5848 H   0  0  0  0  0  0  0  0  0  0  0  0
  144.2178   72.5263  219.2190 H   0  0  0  0  0  0  0  0  0  0  0  0
  142.9415   72.8642  221.3043 H   0  0  0  0  0  0  0  0  0  0  0  0
  141.8152   75.0306  221.8031 H   0  0  0  0  0  0  0  0  0  0  0  0
  1  2  2  0
  2  3  1  0
  3  4  1  0
  4  5  1  0
  5  6  2  0
  5  7  1  0
  7  8  1  0
  8  9  1  0
  9 10  1  0
  9 11  1  0
 11 12  1  0
 11 13  1  0
 13 14  1  0
 14 15  1  0
  2 16  1  0
 16 17  2  0
 17 18  1  0
 18 19  2  0
 19 20  1  0
 20 21  2  0
 21 22  1  0
 22 23  2  0
 23 24  1  0
 24 25  2  0
 13  7  1  0
 25 16  1  0
 24 19  1  0
  3 26  1  0
  4 27  1  0
  4 28  1  0
  8 29  1  0
  8 30  1  0
  9 31  1  1
 10 32  1  0
 11 33  1  1
 12 34  1  0
 13 35  1  6
 14 36  1  0
 14 37  1  0
 15 38  1  0
 17 39  1  0
 18 40  1  0
 20 41  1  0
 21 42  1  0
 22 43  1  0
 23 44  1  0
M  END
>  <smiles>  (8) 
O=C(NCC(=O)N1C[C@H](O)[C@H](O)[C@H]1CO)c1ccc2ccccc2n1

>  <score_type>  (8) 
oracle

>  <origin>  (8) 
autodockgpu

>  <m_score__min__energy>  (8) 
-7.2400000000000002

>  <m_primary>  (8) 
energy

>  <rmsd>  (8) 
8.635503357476228

>  <m_score__min__rmsd>  (8) 
8.635503357476228

>  <meeko>  (8) 
{"free_energy": -4.91, "intermolecular_energy": -7.29, "internal_energy": -5.47, "cluster_size": 10, "cluster_id": 5, "rank_in_cluster": 5}

>  <energy>  (8) 
-7.03

>  <cluster_rmsd>  (8) 
0.24

>  <cluster>  (8) 
1

$$$$

     RDKit          3D

 44 46  0  0  0  0  0  0  0  0999 V2000
  139.9200   70.6900  221.4720 O   0  0  0  0  0  0  0  0  0  0  0  0
  139.9390   71.2220  222.6180 C   0  0  0  0  0  0  0  0  0  0  0  0
  139.9510   72.6430  222.6520 N   0  0  0  0  0  0  0  0  0  0  0  0
  139.9390   73.3140  221.3430 C   0  0  0  0  0  0  0  0  0  0  0  0
  141.1110   74.1880  221.2400 C   0  0  0  0  0  0  0  0  0  0  0  0
  141.0500   75.3130  221.8300 O   0  0  0  0  0  0  0  0  0  0  0  0
  142.3020   73.9000  220.5480 N   0  0  0  0  0  0  0  0  0  0  0  0
  142.4220   72.8900  219.4810 C   0  0  0  0  0  0  0  0  0  0  0  0
  143.6560   72.1620  220.0120 C   0  0  2  0  0  0  0  0  0  0  0  0
  143.3550   71.5480  221.2290 O   0  0  0  0  0  0  0  0  0  0  0  0
  144.5810   73.3130  220.3030 C   0  0  2  0  0  0  0  0  0  0  0  0
  145.4690   73.0320  221.3360 O   0  0  0  0  0  0  0  0  0  0  0  0
  143.6400   74.4390  220.6560 C   0  0  1  0  0  0  0  0  0  0  0  0
  143.8000   75.5660  219.6470 C   0  0  0  0  0  0  0  0  0  0  0  0
  142.9310   76.5840  219.9930 O   0  0  0  0  0  0  0  0  0  0  0  0
  139.9490   70.4370  223.8450 C   0  0  0  0  0  0  0  0  0  0  0  0
  139.3250   69.2100  223.8230 C   0  0  0  0  0  0  0  0  0  0  0  0
  139.2670   68.3710  224.9250 C   0  0  0  0  0  0  0  0  0  0  0  0
  139.8930   68.8610  226.0760 C   0  0  0  0  0  0  0  0  0  0  0  0
  139.8510   68.0510  227.1840 C   0  0  0  0  0  0  0  0  0  0  0  0
  140.4410   68.4610  228.3500 C   0  0  0  0  0  0  0  0  0  0  0  0
  141.0650   69.6870  228.3730 C   0  0  0  0  0  0  0  0  0  0  0  0
  141.1150   70.5210  227.2550 C   0  0  0  0  0  0  0  0  0  0  0  0
  140.5170   70.0890  226.1020 C   0  0  0  0  0  0  0  0  0  0  0  0
  140.5260   70.8400  224.9850 N   0  0  0  0  0  0  0  0  0  0  0  0
  139.9670   73.1770  223.5480 H   0  0  0  0  0  0  0  0  0  0  0  0
  139.9705   72.5601  220.5426 H   0  0  0  0  0  0  0  0  0  0  0  0
  139.0213   73.9121  221.2421 H   0  0  0  0  0  0  0  0  0  0  0  0
  141.5414   72.2329  219.4288 H   0  0  0  0  0  0  0  0  0  0  0  0
  142.4965   73.2794  218.4550 H   0  0  0  0  0  0  0  0  0  0  0  0
  144.0466   71.3960  219.3260 H   0  0  0  0  0  0  0  0  0  0  0  0
  144.1710   71.3260  221.7430 H   0  0  0  0  0  0  0  0  0  0  0  0
  145.2335   73.5532  219.4507 H   0  0  0  0  0  0  0  0  0  0  0  0
  145.4070   72.1230  221.6690 H   0  0  0  0  0  0  0  0  0  0  0  0
  143.8435   74.8306  221.6636 H   0  0  0  0  0  0  0  0  0  0  0  0
  144.8351   75.9379  219.6656 H   0  0  0  0  0  0  0  0  0  0  0  0
  143.5744   75.2027  218.6335 H   0  0  0  0  0  0  0  0  0  0  0  0
  142.6330   76.4800  220.9300 H   0  0  0  0  0  0  0  0  0  0  0  0
  138.8502   68.8800  222.8872 H   0  0  0  0  0  0  0  0  0  0  0  0
  138.7657   67.3923  224.8965 H   0  0  0  0  0  0  0  0  0  0  0  0
  139.3449   67.0756  227.1352 H   0  0  0  0  0  0  0  0  0  0  0  0
  140.4165   67.8250  229.2472 H   0  0  0  0  0  0  0  0  0  0  0  0
  141.5416   70.0219  229.3061 H   0  0  0  0  0  0  0  0  0  0  0  0
  141.6203   71.4971  227.2992 H   0  0  0  0  0  0  0  0  0  0  0  0
  1  2  2  0
  2  3  1  0
  3  4  1  0
  4  5  1  0
  5  6  2  0
  5  7  1  0
  7  8  1  0
  8  9  1  0
  9 10  1  0
  9 11  1  0
 11 12  1  0
 11 13  1  0
 13 14  1  0
 14 15  1  0
  2 16  1  0
 16 17  2  0
 17 18  1  0
 18 19  2  0
 19 20  1  0
 20 21  2  0
 21 22  1  0
 22 23  2  0
 23 24  1  0
 24 25  2  0
 13  7  1  0
 25 16  1  0
 24 19  1  0
  3 26  1  0
  4 27  1  0
  4 28  1  0
  8 29  1  0
  8 30  1  0
  9 31  1  6
 10 32  1  0
 11 33  1  6
 12 34  1  0
 13 35  1  1
 14 36  1  0
 14 37  1  0
 15 38  1  0
 17 39  1  0
 18 40  1  0
 20 41  1  0
 21 42  1  0
 22 43  1  0
 23 44  1  0
M  END
>  <smiles>  (9) 
O=C(NCC(=O)N1C[C@H](O)[C@H](O)[C@H]1CO)c1ccc2ccccc2n1

>  <score_type>  (9) 
oracle

>  <origin>  (9) 
autodockgpu

>  <m_score__min__energy>  (9) 
-7.2400000000000002

>  <m_primary>  (9) 
energy

>  <rmsd>  (9) 
3.133262605527211

>  <m_score__min__rmsd>  (9) 
3.133262605527211

>  <meeko>  (9) 
{"free_energy": -7.05, "intermolecular_energy": -9.44, "internal_energy": -3.19, "cluster_size": 12, "cluster_id": 1, "rank_in_cluster": 7}

>  <energy>  (9) 
-6.47

>  <cluster_rmsd>  (9) 
1.72

>  <cluster>  (9) 
1

$$$$

     RDKit          3D

 44 46  0  0  0  0  0  0  0  0999 V2000
  140.4620   79.9650  218.7700 O   0  0  0  0  0  0  0  0  0  0  0  0
  141.5630   79.5970  219.2700 C   0  0  0  0  0  0  0  0  0  0  0  0
  142.1820   80.5070  220.1690 N   0  0  0  0  0  0  0  0  0  0  0  0
  141.4580   81.7660  220.4030 C   0  0  0  0  0  0  0  0  0  0  0  0
  140.7470   81.6810  221.6820 C   0  0  0  0  0  0  0  0  0  0  0  0
  140.0540   82.6890  222.0300 O   0  0  0  0  0  0  0  0  0  0  0  0
  140.7580   80.5850  222.5660 N   0  0  0  0  0  0  0  0  0  0  0  0
  141.6540   80.4620  223.7290 C   0  0  0  0  0  0  0  0  0  0  0  0
  142.1680   79.0490  223.4560 C   0  0  2  0  0  0  0  0  0  0  0  0
  142.9060   79.0350  222.2710 O   0  0  0  0  0  0  0  0  0  0  0  0
  140.8840   78.3080  223.1960 C   0  0  2  0  0  0  0  0  0  0  0  0
  141.0580   77.2290  222.3360 O   0  0  0  0  0  0  0  0  0  0  0  0
  139.9830   79.3640  222.6050 C   0  0  1  0  0  0  0  0  0  0  0  0
  138.7820   79.5710  223.5160 C   0  0  0  0  0  0  0  0  0  0  0  0
  138.0880   80.6820  223.0720 O   0  0  0  0  0  0  0  0  0  0  0  0
  142.1760   78.3140  218.9520 C   0  0  0  0  0  0  0  0  0  0  0  0
  142.5740   78.1020  217.6510 C   0  0  0  0  0  0  0  0  0  0  0  0
  143.1690   76.9240  217.2260 C   0  0  0  0  0  0  0  0  0  0  0  0
  143.3410   75.9550  218.2180 C   0  0  0  0  0  0  0  0  0  0  0  0
  143.9280   74.7770  217.8260 C   0  0  0  0  0  0  0  0  0  0  0  0
  144.1300   73.7780  218.7410 C   0  0  0  0  0  0  0  0  0  0  0  0
  143.7330   73.9900  220.0410 C   0  0  0  0  0  0  0  0  0  0  0  0
  143.1350   75.1810  220.4550 C   0  0  0  0  0  0  0  0  0  0  0  0
  142.9440   76.1640  219.5210 C   0  0  0  0  0  0  0  0  0  0  0  0
  142.3730   77.3390  219.8480 N   0  0  0  0  0  0  0  0  0  0  0  0
  143.0920   80.2960  220.6340 H   0  0  0  0  0  0  0  0  0  0  0  0
  142.1728   82.6015  220.4340 H   0  0  0  0  0  0  0  0  0  0  0  0
  140.7373   81.9353  219.5894 H   0  0  0  0  0  0  0  0  0  0  0  0
  142.4614   81.2089  223.7133 H   0  0  0  0  0  0  0  0  0  0  0  0
  141.1909   80.6245  224.7134 H   0  0  0  0  0  0  0  0  0  0  0  0
  142.7994   78.6455  224.2613 H   0  0  0  0  0  0  0  0  0  0  0  0
  142.8310   78.1690  221.7980 H   0  0  0  0  0  0  0  0  0  0  0  0
  140.4690   77.8544  224.1081 H   0  0  0  0  0  0  0  0  0  0  0  0
  141.9540   77.1610  221.9700 H   0  0  0  0  0  0  0  0  0  0  0  0
  139.6267   79.0735  221.6057 H   0  0  0  0  0  0  0  0  0  0  0  0
  138.1301   78.6858  223.4793 H   0  0  0  0  0  0  0  0  0  0  0  0
  139.1142   79.7208  224.5539 H   0  0  0  0  0  0  0  0  0  0  0  0
  138.7130   81.4140  222.8510 H   0  0  0  0  0  0  0  0  0  0  0  0
  142.4126   78.9037  216.9154 H   0  0  0  0  0  0  0  0  0  0  0  0
  143.4828   76.7639  216.1839 H   0  0  0  0  0  0  0  0  0  0  0  0
  144.2353   74.6360  216.7793 H   0  0  0  0  0  0  0  0  0  0  0  0
  144.5987   72.8284  218.4433 H   0  0  0  0  0  0  0  0  0  0  0  0
  143.8927   73.1919  220.7809 H   0  0  0  0  0  0  0  0  0  0  0  0
  142.8262   75.3259  221.5008 H   0  0  0  0  0  0  0  0  0  0  0  0
  1  2  2  0
  2  3  1  0
  3  4  1  0
  4  5  1  0
  5  6  2  0
  5  7  1  0
  7  8  1  0
  8  9  1  0
  9 10  1  0
  9 11  1  0
 11 12  1  0
 11 13  1  0
 13 14  1  0
 14 15  1  0
  2 16  1  0
 16 17  2  0
 17 18  1  0
 18 19  2  0
 19 20  1  0
 20 21  2  0
 21 22  1  0
 22 23  2  0
 23 24  1  0
 24 25  2  0
 13  7  1  0
 25 16  1  0
 24 19  1  0
  3 26  1  0
  4 27  1  0
  4 28  1  0
  8 29  1  0
  8 30  1  0
  9 31  1  1
 10 32  1  0
 11 33  1  1
 12 34  1  0
 13 35  1  6
 14 36  1  0
 14 37  1  0
 15 38  1  0
 17 39  1  0
 18 40  1  0
 20 41  1  0
 21 42  1  0
 22 43  1  0
 23 44  1  0
M  END
>  <smiles>  (10) 
O=C(NCC(=O)N1C[C@H](O)[C@H](O)[C@H]1CO)c1ccc2ccccc2n1

>  <score_type>  (10) 
oracle

>  <origin>  (10) 
autodockgpu

>  <m_score__min__energy>  (10) 
-7.2400000000000002

>  <m_primary>  (10) 
energy

>  <rmsd>  (10) 
8.821857322373743

>  <m_score__min__rmsd>  (10) 
8.821857322373743

>  <meeko>  (10) 
{"free_energy": -4.73, "intermolecular_energy": -7.12, "internal_energy": -5.53, "cluster_size": 10, "cluster_id": 5, "rank_in_cluster": 9}

>  <energy>  (10) 
-6.44

>  <cluster_rmsd>  (10) 
1.98

>  <cluster>  (10) 
1

$$$$

     RDKit          3D

 44 46  0  0  0  0  0  0  0  0999 V2000
  138.9270   75.1670  221.8400 O   0  0  0  0  0  0  0  0  0  0  0  0
  140.0680   75.6720  222.0410 C   0  0  0  0  0  0  0  0  0  0  0  0
  141.1820   74.8090  221.8520 N   0  0  0  0  0  0  0  0  0  0  0  0
  140.8610   73.4330  221.4460 C   0  0  0  0  0  0  0  0  0  0  0  0
  141.5230   73.1420  220.1710 C   0  0  0  0  0  0  0  0  0  0  0  0
  140.8240   72.5820  219.2670 O   0  0  0  0  0  0  0  0  0  0  0  0
  142.8650   73.4220  219.8500 N   0  0  0  0  0  0  0  0  0  0  0  0
  143.5720   72.8770  218.6780 C   0  0  0  0  0  0  0  0  0  0  0  0
  144.8260   72.3790  219.3950 C   0  0  2  0  0  0  0  0  0  0  0  0
  144.4890   71.3520  220.2790 O   0  0  0  0  0  0  0  0  0  0  0  0
  145.1970   73.5820  220.2210 C   0  0  2  0  0  0  0  0  0  0  0  0
  145.8640   73.2370  221.3920 O   0  0  0  0  0  0  0  0  0  0  0  0
  143.8660   74.2390  220.5000 C   0  0  1  0  0  0  0  0  0  0  0  0
  143.8490   75.6270  219.8800 C   0  0  0  0  0  0  0  0  0  0  0  0
  142.6460   76.2290  220.2000 O   0  0  0  0  0  0  0  0  0  0  0  0
  140.2480   77.0610  222.4430 C   0  0  0  0  0  0  0  0  0  0  0  0
  139.1180   77.8020  222.7040 C   0  0  0  0  0  0  0  0  0  0  0  0
  139.1590   79.1320  223.0940 C   0  0  0  0  0  0  0  0  0  0  0  0
  140.4410   79.6760  223.2080 C   0  0  0  0  0  0  0  0  0  0  0  0
  140.5130   80.9920  223.5940 C   0  0  0  0  0  0  0  0  0  0  0  0
  141.7340   81.5980  223.7280 C   0  0  0  0  0  0  0  0  0  0  0  0
  142.8640   80.8580  223.4690 C   0  0  0  0  0  0  0  0  0  0  0  0
  142.8080   79.5200  223.0760 C   0  0  0  0  0  0  0  0  0  0  0  0
  141.5750   78.9380  222.9490 C   0  0  0  0  0  0  0  0  0  0  0  0
  141.4440   77.6510  222.5740 N   0  0  0  0  0  0  0  0  0  0  0  0
  142.1640   75.1320  221.9930 H   0  0  0  0  0  0  0  0  0  0  0  0
  141.2159   72.7301  222.2141 H   0  0  0  0  0  0  0  0  0  0  0  0
  139.7723   73.3250  221.3313 H   0  0  0  0  0  0  0  0  0  0  0  0
  143.0141   72.0591  218.1987 H   0  0  0  0  0  0  0  0  0  0  0  0
  143.7387   73.5782  217.8470 H   0  0  0  0  0  0  0  0  0  0  0  0
  145.6056   72.0068  218.7141 H   0  0  0  0  0  0  0  0  0  0  0  0
  144.8080   71.5350  221.1980 H   0  0  0  0  0  0  0  0  0  0  0  0
  145.9019   74.2475  219.7012 H   0  0  0  0  0  0  0  0  0  0  0  0
  146.0100   72.2840  221.4930 H   0  0  0  0  0  0  0  0  0  0  0  0
  143.6814   74.3291  221.5806 H   0  0  0  0  0  0  0  0  0  0  0  0
  144.6819   76.2237  220.2802 H   0  0  0  0  0  0  0  0  0  0  0  0
  143.9596   75.5564  218.7879 H   0  0  0  0  0  0  0  0  0  0  0  0
  142.6820   76.6110  221.1100 H   0  0  0  0  0  0  0  0  0  0  0  0
  138.1366   77.3166  222.5983 H   0  0  0  0  0  0  0  0  0  0  0  0
  138.2494   79.7158  223.2985 H   0  0  0  0  0  0  0  0  0  0  0  0
  139.5917   81.5584  223.7952 H   0  0  0  0  0  0  0  0  0  0  0  0
  141.8090   82.6515  224.0355 H   0  0  0  0  0  0  0  0  0  0  0  0
  143.8479   81.3383  223.5755 H   0  0  0  0  0  0  0  0  0  0  0  0
  143.7269   78.9500  222.8743 H   0  0  0  0  0  0  0  0  0  0  0  0
  1  2  2  0
  2  3  1  0
  3  4  1  0
  4  5  1  0
  5  6  2  0
  5  7  1  0
  7  8  1  0
  8  9  1  0
  9 10  1  0
  9 11  1  0
 11 12  1  0
 11 13  1  0
 13 14  1  0
 14 15  1  0
  2 16  1  0
 16 17  2  0
 17 18  1  0
 18 19  2  0
 19 20  1  0
 20 21  2  0
 21 22  1  0
 22 23  2  0
 23 24  1  0
 24 25  2  0
 13  7  1  0
 25 16  1  0
 24 19  1  0
  3 26  1  0
  4 27  1  0
  4 28  1  0
  8 29  1  0
  8 30  1  0
  9 31  1  6
 10 32  1  0
 11 33  1  6
 12 34  1  0
 13 35  1  1
 14 36  1  0
 14 37  1  0
 15 38  1  0
 17 39  1  0
 18 40  1  0
 20 41  1  0
 21 42  1  0
 22 43  1  0
 23 44  1  0
M  END
>  <smiles>  (11) 
O=C(NCC(=O)N1C[C@H](O)[C@H](O)[C@H]1CO)c1ccc2ccccc2n1

>  <score_type>  (11) 
oracle

>  <origin>  (11) 
autodockgpu

>  <m_score__min__energy>  (11) 
-7.2400000000000002

>  <m_primary>  (11) 
energy

>  <rmsd>  (11) 
7.565030610017275

>  <m_score__min__rmsd>  (11) 
7.565030610017275

>  <meeko>  (11) 
{"free_energy": -6.42, "intermolecular_energy": -8.81, "internal_energy": -3.85, "cluster_size": 8, "cluster_id": 3, "rank_in_cluster": 5}

>  <energy>  (11) 
-6.39

>  <cluster_rmsd>  (11) 
1.89

>  <cluster>  (11) 
1

$$$$

     RDKit          3D

 44 46  0  0  0  0  0  0  0  0999 V2000
  140.2970   79.7440  219.1000 O   0  0  0  0  0  0  0  0  0  0  0  0
  141.4530   79.4460  219.5170 C   0  0  0  0  0  0  0  0  0  0  0  0
  142.1460   80.4610  220.2300 N   0  0  0  0  0  0  0  0  0  0  0  0
  141.4270   81.7330  220.3920 C   0  0  0  0  0  0  0  0  0  0  0  0
  140.7410   81.7360  221.6880 C   0  0  0  0  0  0  0  0  0  0  0  0
  140.0430   82.7600  221.9730 O   0  0  0  0  0  0  0  0  0  0  0  0
  140.7830   80.7100  222.6510 N   0  0  0  0  0  0  0  0  0  0  0  0
  141.7400   80.6560  223.7690 C   0  0  0  0  0  0  0  0  0  0  0  0
  142.2140   79.2160  223.5770 C   0  0  2  0  0  0  0  0  0  0  0  0
  142.8840   79.0970  222.3580 O   0  0  0  0  0  0  0  0  0  0  0  0
  140.9050   78.4850  223.4450 C   0  0  2  0  0  0  0  0  0  0  0  0
  141.0120   77.3410  222.6610 O   0  0  0  0  0  0  0  0  0  0  0  0
  139.9900   79.5130  222.8240 C   0  0  1  0  0  0  0  0  0  0  0  0
  138.8460   79.8130  223.7810 C   0  0  0  0  0  0  0  0  0  0  0  0
  138.8130   81.1780  224.0010 O   0  0  0  0  0  0  0  0  0  0  0  0
  142.0540   78.1380  219.2870 C   0  0  0  0  0  0  0  0  0  0  0  0
  142.6950   77.9330  218.0860 C   0  0  0  0  0  0  0  0  0  0  0  0
  143.3050   76.7340  217.7510 C   0  0  0  0  0  0  0  0  0  0  0  0
  143.2250   75.7360  218.7260 C   0  0  0  0  0  0  0  0  0  0  0  0
  143.8200   74.5360  218.4210 C   0  0  0  0  0  0  0  0  0  0  0  0
  143.7840   73.5080  219.3250 C   0  0  0  0  0  0  0  0  0  0  0  0
  143.1440   73.7130  220.5250 C   0  0  0  0  0  0  0  0  0  0  0  0
  142.5340   74.9260  220.8490 C   0  0  0  0  0  0  0  0  0  0  0  0
  142.5830   75.9380  219.9290 C   0  0  0  0  0  0  0  0  0  0  0  0
  142.0170   77.1350  220.1720 N   0  0  0  0  0  0  0  0  0  0  0  0
  143.1050   80.3130  220.6150 H   0  0  0  0  0  0  0  0  0  0  0  0
  142.1422   82.5678  220.3521 H   0  0  0  0  0  0  0  0  0  0  0  0
  140.6904   81.8474  219.5831 H   0  0  0  0  0  0  0  0  0  0  0  0
  142.5577   81.3825  223.6524 H   0  0  0  0  0  0  0  0  0  0  0  0
  141.3354   80.9018  224.7619 H   0  0  0  0  0  0  0  0  0  0  0  0
  142.8828   78.8611  224.3750 H   0  0  0  0  0  0  0  0  0  0  0  0
  142.6830   78.2400  221.9060 H   0  0  0  0  0  0  0  0  0  0  0  0
  140.5343   78.1105  224.4106 H   0  0  0  0  0  0  0  0  0  0  0  0
  141.9080   77.1800  222.3250 H   0  0  0  0  0  0  0  0  0  0  0  0
  139.5732   79.1567  221.8704 H   0  0  0  0  0  0  0  0  0  0  0  0
  137.8942   79.4841  223.3383 H   0  0  0  0  0  0  0  0  0  0  0  0
  138.9953   79.2787  224.7308 H   0  0  0  0  0  0  0  0  0  0  0  0
  138.7330   81.6640  223.1440 H   0  0  0  0  0  0  0  0  0  0  0  0
  142.7245   78.7581  217.3591 H   0  0  0  0  0  0  0  0  0  0  0  0
  143.8145   76.5795  216.7885 H   0  0  0  0  0  0  0  0  0  0  0  0
  144.3243   74.4011  217.4527 H   0  0  0  0  0  0  0  0  0  0  0  0
  144.2559   72.5409  219.0967 H   0  0  0  0  0  0  0  0  0  0  0  0
  143.1117   72.8914  221.2558 H   0  0  0  0  0  0  0  0  0  0  0  0
  142.0284   75.0645  221.8161 H   0  0  0  0  0  0  0  0  0  0  0  0
  1  2  2  0
  2  3  1  0
  3  4  1  0
  4  5  1  0
  5  6  2  0
  5  7  1  0
  7  8  1  0
  8  9  1  0
  9 10  1  0
  9 11  1  0
 11 12  1  0
 11 13  1  0
 13 14  1  0
 14 15  1  0
  2 16  1  0
 16 17  2  0
 17 18  1  0
 18 19  2  0
 19 20  1  0
 20 21  2  0
 21 22  1  0
 22 23  2  0
 23 24  1  0
 24 25  2  0
 13  7  1  0
 25 16  1  0
 24 19  1  0
  3 26  1  0
  4 27  1  0
  4 28  1  0
  8 29  1  0
  8 30  1  0
  9 31  1  1
 10 32  1  0
 11 33  1  1
 12 34  1  0
 13 35  1  6
 14 36  1  0
 14 37  1  0
 15 38  1  0
 17 39  1  0
 18 40  1  0
 20 41  1  0
 21 42  1  0
 22 43  1  0
 23 44  1  0
M  END
>  <smiles>  (12) 
O=C(NCC(=O)N1C[C@H](O)[C@H](O)[C@H]1CO)c1ccc2ccccc2n1

>  <score_type>  (12) 
oracle

>  <origin>  (12) 
autodockgpu

>  <m_score__min__energy>  (12) 
-7.2400000000000002

>  <m_primary>  (12) 
energy

>  <rmsd>  (12) 
8.642961431947993

>  <m_score__min__rmsd>  (12) 
8.642961431947993

>  <meeko>  (12) 
{"free_energy": -4.91, "intermolecular_energy": -7.3, "internal_energy": -5.52, "cluster_size": 10, "cluster_id": 5, "rank_in_cluster": 4}

>  <energy>  (12) 
-5.36

>  <cluster_rmsd>  (12) 
1.32

>  <cluster>  (12) 
1

$$$$

     RDKit          3D

 44 46  0  0  0  0  0  0  0  0999 V2000
  140.4580   71.0650  221.1250 O   0  0  0  0  0  0  0  0  0  0  0  0
  140.5080   71.8040  222.1490 C   0  0  0  0  0  0  0  0  0  0  0  0
  140.7910   73.1780  221.9210 N   0  0  0  0  0  0  0  0  0  0  0  0
  140.9910   73.5640  220.5160 C   0  0  0  0  0  0  0  0  0  0  0  0
  142.3860   73.9700  220.3220 C   0  0  0  0  0  0  0  0  0  0  0  0
  142.6430   75.2150  220.3810 O   0  0  0  0  0  0  0  0  0  0  0  0
  143.4730   73.1100  220.0760 N   0  0  0  0  0  0  0  0  0  0  0  0
  144.3100   72.5030  221.1250 C   0  0  0  0  0  0  0  0  0  0  0  0
  145.6770   72.8710  220.5500 C   0  0  2  0  0  0  0  0  0  0  0  0
  145.8320   74.2580  220.5490 O   0  0  0  0  0  0  0  0  0  0  0  0
  145.5280   72.4320  219.1180 C   0  0  2  0  0  0  0  0  0  0  0  0
  146.3120   73.1820  218.2490 O   0  0  0  0  0  0  0  0  0  0  0  0
  144.0530   72.6110  218.8480 C   0  0  1  0  0  0  0  0  0  0  0  0
  143.4320   71.2610  218.5230 C   0  0  0  0  0  0  0  0  0  0  0  0
  142.6000   70.9040  219.5680 O   0  0  0  0  0  0  0  0  0  0  0  0
  140.2900   71.2910  223.4950 C   0  0  0  0  0  0  0  0  0  0  0  0
  139.5660   70.1270  223.6250 C   0  0  0  0  0  0  0  0  0  0  0  0
  139.2910   69.5400  224.8510 C   0  0  0  0  0  0  0  0  0  0  0  0
  139.8070   70.2170  225.9600 C   0  0  0  0  0  0  0  0  0  0  0  0
  139.5500   69.6590  227.1880 C   0  0  0  0  0  0  0  0  0  0  0  0
  140.0210   70.2640  228.3240 C   0  0  0  0  0  0  0  0  0  0  0  0
  140.7450   71.4270  228.1950 C   0  0  0  0  0  0  0  0  0  0  0  0
  141.0140   72.0060  226.9530 C   0  0  0  0  0  0  0  0  0  0  0  0
  140.5320   71.3830  225.8340 C   0  0  0  0  0  0  0  0  0  0  0  0
  140.7510   71.8840  224.6040 N   0  0  0  0  0  0  0  0  0  0  0  0
  140.8540   73.8690  222.7000 H   0  0  0  0  0  0  0  0  0  0  0  0
  140.7625   72.7086  219.8633 H   0  0  0  0  0  0  0  0  0  0  0  0
  140.3237   74.4014  220.2641 H   0  0  0  0  0  0  0  0  0  0  0  0
  144.1369   72.9587  222.1111 H   0  0  0  0  0  0  0  0  0  0  0  0
  144.1406   71.4333  221.3175 H   0  0  0  0  0  0  0  0  0  0  0  0
  146.5210   72.4299  221.1006 H   0  0  0  0  0  0  0  0  0  0  0  0
  145.5930   74.6570  219.6750 H   0  0  0  0  0  0  0  0  0  0  0  0
  145.8693   71.3987  218.9576 H   0  0  0  0  0  0  0  0  0  0  0  0
  146.3350   74.1280  218.4590 H   0  0  0  0  0  0  0  0  0  0  0  0
  143.8794   73.2959  218.0049 H   0  0  0  0  0  0  0  0  0  0  0  0
  142.8503   71.3334  217.5922 H   0  0  0  0  0  0  0  0  0  0  0  0
  144.2187   70.5040  218.3887 H   0  0  0  0  0  0  0  0  0  0  0  0
  141.6850   71.2450  219.4130 H   0  0  0  0  0  0  0  0  0  0  0  0
  139.1881   69.6400  222.7139 H   0  0  0  0  0  0  0  0  0  0  0  0
  138.7100   68.6106  224.9440 H   0  0  0  0  0  0  0  0  0  0  0  0
  138.9675   68.7287  227.2598 H   0  0  0  0  0  0  0  0  0  0  0  0
  139.8249   69.8301  229.3156 H   0  0  0  0  0  0  0  0  0  0  0  0
  141.1255   71.9182  229.1027 H   0  0  0  0  0  0  0  0  0  0  0  0
  141.5965   72.9360  226.8764 H   0  0  0  0  0  0  0  0  0  0  0  0
  1  2  2  0
  2  3  1  0
  3  4  1  0
  4  5  1  0
  5  6  2  0
  5  7  1  0
  7  8  1  0
  8  9  1  0
  9 10  1  0
  9 11  1  0
 11 12  1  0
 11 13  1  0
 13 14  1  0
 14 15  1  0
  2 16  1  0
 16 17  2  0
 17 18  1  0
 18 19  2  0
 19 20  1  0
 20 21  2  0
 21 22  1  0
 22 23  2  0
 23 24  1  0
 24 25  2  0
 13  7  1  0
 25 16  1  0
 24 19  1  0
  3 26  1  0
  4 27  1  0
  4 28  1  0
  8 29  1  0
  8 30  1  0
  9 31  1  1
 10 32  1  0
 11 33  1  1
 12 34  1  0
 13 35  1  6
 14 36  1  0
 14 37  1  0
 15 38  1  0
 17 39  1  0
 18 40  1  0
 20 41  1  0
 21 42  1  0
 22 43  1  0
 23 44  1  0
M  END
>  <smiles>  (13) 
O=C(NCC(=O)N1C[C@H](O)[C@H](O)[C@H]1CO)c1ccc2ccccc2n1

>  <score_type>  (13) 
oracle

>  <origin>  (13) 
autodockgpu

>  <m_score__min__energy>  (13) 
-7.2400000000000002

>  <m_primary>  (13) 
energy

>  <rmsd>  (13) 
4.0756529156653025

>  <m_score__min__rmsd>  (13) 
4.0756529156653025

>  <meeko>  (13) 
{"free_energy": -6.47, "intermolecular_energy": -8.85, "internal_energy": -3.28, "cluster_size": 12, "cluster_id": 1, "rank_in_cluster": 9}

>  <energy>  (13) 
-7.16

>  <cluster_rmsd>  (13) 
0.0

>  <cluster>  (13) 
2

$$$$

     RDKit          3D

 44 46  0  0  0  0  0  0  0  0999 V2000
  140.3490   70.7610  221.4910 O   0  0  0  0  0  0  0  0  0  0  0  0
  140.0320   71.2880  222.5960 C   0  0  0  0  0  0  0  0  0  0  0  0
  139.7600   72.6830  222.5730 N   0  0  0  0  0  0  0  0  0  0  0  0
  139.8840   73.3370  221.2620 C   0  0  0  0  0  0  0  0  0  0  0  0
  141.0870   74.1750  221.2550 C   0  0  0  0  0  0  0  0  0  0  0  0
  141.0680   75.2260  221.9710 O   0  0  0  0  0  0  0  0  0  0  0  0
  142.2670   73.9270  220.5270 N   0  0  0  0  0  0  0  0  0  0  0  0
  142.3680   72.9780  219.4050 C   0  0  0  0  0  0  0  0  0  0  0  0
  143.6110   72.2220  219.8730 C   0  0  2  0  0  0  0  0  0  0  0  0
  143.3310   71.5420  221.0590 O   0  0  0  0  0  0  0  0  0  0  0  0
  144.5410   73.3560  220.2120 C   0  0  2  0  0  0  0  0  0  0  0  0
  145.4460   73.0190  221.2130 O   0  0  0  0  0  0  0  0  0  0  0  0
  143.6060   74.4600  220.6430 C   0  0  1  0  0  0  0  0  0  0  0  0
  143.7500   75.6410  219.6950 C   0  0  0  0  0  0  0  0  0  0  0  0
  142.7670   76.5650  220.0030 O   0  0  0  0  0  0  0  0  0  0  0  0
  139.9440   70.5210  223.8320 C   0  0  0  0  0  0  0  0  0  0  0  0
  139.2360   69.3410  223.8020 C   0  0  0  0  0  0  0  0  0  0  0  0
  139.0810   68.5240  224.9110 C   0  0  0  0  0  0  0  0  0  0  0  0
  139.7020   68.9830  226.0760 C   0  0  0  0  0  0  0  0  0  0  0  0
  139.5660   68.1940  227.1920 C   0  0  0  0  0  0  0  0  0  0  0  0
  140.1450   68.5770  228.3730 C   0  0  0  0  0  0  0  0  0  0  0  0
  140.8540   69.7560  228.4030 C   0  0  0  0  0  0  0  0  0  0  0  0
  141.0010   70.5680  227.2780 C   0  0  0  0  0  0  0  0  0  0  0  0
  140.4120   70.1640  226.1100 C   0  0  0  0  0  0  0  0  0  0  0  0
  140.5120   70.8970  224.9850 N   0  0  0  0  0  0  0  0  0  0  0  0
  139.4910   73.2100  223.4330 H   0  0  0  0  0  0  0  0  0  0  0  0
  139.9633   72.5724  220.4751 H   0  0  0  0  0  0  0  0  0  0  0  0
  138.9974   73.9603  221.0738 H   0  0  0  0  0  0  0  0  0  0  0  0
  141.4862   72.3244  219.3321 H   0  0  0  0  0  0  0  0  0  0  0  0
  142.4250   73.4236  218.4009 H   0  0  0  0  0  0  0  0  0  0  0  0
  143.9893   71.4955  219.1388 H   0  0  0  0  0  0  0  0  0  0  0  0
  144.1180   71.5020  221.6580 H   0  0  0  0  0  0  0  0  0  0  0  0
  145.1791   73.6436  219.3634 H   0  0  0  0  0  0  0  0  0  0  0  0
  145.3990   72.0900  221.4870 H   0  0  0  0  0  0  0  0  0  0  0  0
  143.8257   74.7952  221.6674 H   0  0  0  0  0  0  0  0  0  0  0  0
  144.7428   76.0984  219.8181 H   0  0  0  0  0  0  0  0  0  0  0  0
  143.6439   75.3065  218.6525 H   0  0  0  0  0  0  0  0  0  0  0  0
  142.5130   76.4940  220.9550 H   0  0  0  0  0  0  0  0  0  0  0  0
  138.7716   69.0320  222.8539 H   0  0  0  0  0  0  0  0  0  0  0  0
  138.5112   67.5837  224.8767 H   0  0  0  0  0  0  0  0  0  0  0  0
  138.9933   67.2564  227.1376 H   0  0  0  0  0  0  0  0  0  0  0  0
  140.0455   67.9567  229.2760 H   0  0  0  0  0  0  0  0  0  0  0  0
  141.3217   70.0695  229.3480 H   0  0  0  0  0  0  0  0  0  0  0  0
  141.5737   71.5058  227.3280 H   0  0  0  0  0  0  0  0  0  0  0  0
  1  2  2  0
  2  3  1  0
  3  4  1  0
  4  5  1  0
  5  6  2  0
  5  7  1  0
  7  8  1  0
  8  9  1  0
  9 10  1  0
  9 11  1  0
 11 12  1  0
 11 13  1  0
 13 14  1  0
 14 15  1  0
  2 16  1  0
 16 17  2  0
 17 18  1  0
 18 19  2  0
 19 20  1  0
 20 21  2  0
 21 22  1  0
 22 23  2  0
 23 24  1  0
 24 25  2  0
 13  7  1  0
 25 16  1  0
 24 19  1  0
  3 26  1  0
  4 27  1  0
  4 28  1  0
  8 29  1  0
  8 30  1  0
  9 31  1  6
 10 32  1  0
 11 33  1  6
 12 34  1  0
 13 35  1  1
 14 36  1  0
 14 37  1  0
 15 38  1  0
 17 39  1  0
 18 40  1  0
 20 41  1  0
 21 42  1  0
 22 43  1  0
 23 44  1  0
M  END
>  <smiles>  (14) 
O=C(NCC(=O)N1C[C@H](O)[C@H](O)[C@H]1CO)c1ccc2ccccc2n1

>  <score_type>  (14) 
oracle

>  <origin>  (14) 
autodockgpu

>  <m_score__min__energy>  (14) 
-7.2400000000000002

>  <m_primary>  (14) 
energy

>  <rmsd>  (14) 
3.0714074247956336

>  <m_score__min__rmsd>  (14) 
3.0714074247956336

>  <meeko>  (14) 
{"free_energy": -7.11, "intermolecular_energy": -9.49, "internal_energy": -3.17, "cluster_size": 12, "cluster_id": 1, "rank_in_cluster": 5}

>  <energy>  (14) 
-6.6

>  <cluster_rmsd>  (14) 
1.35

>  <cluster>  (14) 
2

$$$$

     RDKit          3D

 44 46  0  0  0  0  0  0  0  0999 V2000
  137.6760   76.8450  220.9740 O   0  0  0  0  0  0  0  0  0  0  0  0
  138.5680   76.7290  221.8620 C   0  0  0  0  0  0  0  0  0  0  0  0
  138.8070   75.4140  222.3460 N   0  0  0  0  0  0  0  0  0  0  0  0
  137.9820   74.3540  221.7490 C   0  0  0  0  0  0  0  0  0  0  0  0
  138.6250   73.8790  220.5200 C   0  0  0  0  0  0  0  0  0  0  0  0
  137.9690   73.0620  219.7990 O   0  0  0  0  0  0  0  0  0  0  0  0
  139.9050   74.2420  220.0600 N   0  0  0  0  0  0  0  0  0  0  0  0
  141.1390   73.4910  220.3510 C   0  0  0  0  0  0  0  0  0  0  0  0
  142.0000   74.6630  220.8190 C   0  0  2  0  0  0  0  0  0  0  0  0
  141.4700   75.1990  221.9950 O   0  0  0  0  0  0  0  0  0  0  0  0
  141.7650   75.6650  219.7210 C   0  0  2  0  0  0  0  0  0  0  0  0
  141.8830   76.9770  220.1650 O   0  0  0  0  0  0  0  0  0  0  0  0
  140.3650   75.3490  219.2510 C   0  0  1  0  0  0  0  0  0  0  0  0
  140.4080   74.9120  217.7950 C   0  0  0  0  0  0  0  0  0  0  0  0
  139.1370   74.5120  217.4260 O   0  0  0  0  0  0  0  0  0  0  0  0
  139.3180   77.8700  222.3710 C   0  0  0  0  0  0  0  0  0  0  0  0
  138.6060   78.8960  222.9500 C   0  0  0  0  0  0  0  0  0  0  0  0
  139.2050   80.0330  223.4700 C   0  0  0  0  0  0  0  0  0  0  0  0
  140.5980   80.0670  223.3680 C   0  0  0  0  0  0  0  0  0  0  0  0
  141.2190   81.1820  223.8750 C   0  0  0  0  0  0  0  0  0  0  0  0
  142.5840   81.2910  223.8120 C   0  0  0  0  0  0  0  0  0  0  0  0
  143.2960   80.2650  223.2350 C   0  0  0  0  0  0  0  0  0  0  0  0
  142.6790   79.1260  222.7150 C   0  0  0  0  0  0  0  0  0  0  0  0
  141.3150   79.0420  222.7900 C   0  0  0  0  0  0  0  0  0  0  0  0
  140.6520   77.9740  222.3090 N   0  0  0  0  0  0  0  0  0  0  0  0
  139.5220   75.2140  223.0800 H   0  0  0  0  0  0  0  0  0  0  0  0
  137.8839   73.5198  222.4593 H   0  0  0  0  0  0  0  0  0  0  0  0
  136.9830   74.7503  221.5147 H   0  0  0  0  0  0  0  0  0  0  0  0
  140.9926   72.7404  221.1417 H   0  0  0  0  0  0  0  0  0  0  0  0
  141.5469   72.8951  219.5213 H   0  0  0  0  0  0  0  0  0  0  0  0
  143.0502   74.3932  221.0044 H   0  0  0  0  0  0  0  0  0  0  0  0
  141.7910   76.1200  222.1590 H   0  0  0  0  0  0  0  0  0  0  0  0
  142.5123   75.5901  218.9173 H   0  0  0  0  0  0  0  0  0  0  0  0
  142.1800   77.0540  221.0850 H   0  0  0  0  0  0  0  0  0  0  0  0
  139.7042   76.2238  219.3410 H   0  0  0  0  0  0  0  0  0  0  0  0
  140.7319   75.7524  217.1635 H   0  0  0  0  0  0  0  0  0  0  0  0
  141.1191   74.0824  217.6683 H   0  0  0  0  0  0  0  0  0  0  0  0
  138.7330   73.9490  218.1320 H   0  0  0  0  0  0  0  0  0  0  0  0
  137.5107   78.8097  223.0025 H   0  0  0  0  0  0  0  0  0  0  0  0
  138.6263   80.8481  223.9290 H   0  0  0  0  0  0  0  0  0  0  0  0
  140.6223   81.9859  224.3307 H   0  0  0  0  0  0  0  0  0  0  0  0
  143.0975   82.1773  224.2130 H   0  0  0  0  0  0  0  0  0  0  0  0
  144.3918   80.3451  223.1815 H   0  0  0  0  0  0  0  0  0  0  0  0
  143.2716   78.3196  222.2583 H   0  0  0  0  0  0  0  0  0  0  0  0
  1  2  2  0
  2  3  1  0
  3  4  1  0
  4  5  1  0
  5  6  2  0
  5  7  1  0
  7  8  1  0
  8  9  1  0
  9 10  1  0
  9 11  1  0
 11 12  1  0
 11 13  1  0
 13 14  1  0
 14 15  1  0
  2 16  1  0
 16 17  2  0
 17 18  1  0
 18 19  2  0
 19 20  1  0
 20 21  2  0
 21 22  1  0
 22 23  2  0
 23 24  1  0
 24 25  2  0
 13  7  1  0
 25 16  1  0
 24 19  1  0
  3 26  1  0
  4 27  1  0
  4 28  1  0
  8 29  1  0
  8 30  1  0
  9 31  1  1
 10 32  1  0
 11 33  1  6
 12 34  1  0
 13 35  1  6
 14 36  1  0
 14 37  1  0
 15 38  1  0
 17 39  1  0
 18 40  1  0
 20 41  1  0
 21 42  1  0
 22 43  1  0
 23 44  1  0
M  END
>  <smiles>  (15) 
O=C(NCC(=O)N1C[C@H](O)[C@H](O)[C@H]1CO)c1ccc2ccccc2n1

>  <score_type>  (15) 
oracle

>  <origin>  (15) 
autodockgpu

>  <m_score__min__energy>  (15) 
-7.2400000000000002

>  <m_primary>  (15) 
energy

>  <rmsd>  (15) 
7.329442307330788

>  <m_score__min__rmsd>  (15) 
7.329442307330788

>  <meeko>  (15) 
{"free_energy": -4.69, "intermolecular_energy": -7.08, "internal_energy": -5.54, "cluster_size": 12, "cluster_id": 6, "rank_in_cluster": 5}

>  <energy>  (15) 
-6.57

>  <cluster_rmsd>  (15) 
1.22

>  <cluster>  (15) 
2

$$$$

     RDKit          3D

 44 46  0  0  0  0  0  0  0  0999 V2000
  140.3240   79.6980  219.0100 O   0  0  0  0  0  0  0  0  0  0  0  0
  141.4700   79.4000  219.4530 C   0  0  0  0  0  0  0  0  0  0  0  0
  142.1470   80.4150  220.1830 N   0  0  0  0  0  0  0  0  0  0  0  0
  141.4230   81.6860  220.3290 C   0  0  0  0  0  0  0  0  0  0  0  0
  140.8010   81.7360  221.6550 C   0  0  0  0  0  0  0  0  0  0  0  0
  140.1800   82.8020  221.9670 O   0  0  0  0  0  0  0  0  0  0  0  0
  140.8250   80.7120  222.6220 N   0  0  0  0  0  0  0  0  0  0  0  0
  141.7770   80.6500  223.7450 C   0  0  0  0  0  0  0  0  0  0  0  0
  142.2340   79.2040  223.5600 C   0  0  2  0  0  0  0  0  0  0  0  0
  142.9090   79.0740  222.3450 O   0  0  0  0  0  0  0  0  0  0  0  0
  140.9170   78.4880  223.4230 C   0  0  2  0  0  0  0  0  0  0  0  0
  141.0150   77.3410  222.6430 O   0  0  0  0  0  0  0  0  0  0  0  0
  140.0180   79.5250  222.7950 C   0  0  1  0  0  0  0  0  0  0  0  0
  138.8730   79.8420  223.7450 C   0  0  0  0  0  0  0  0  0  0  0  0
  138.8170   81.2140  223.9140 O   0  0  0  0  0  0  0  0  0  0  0  0
  142.0770   78.0930  219.2360 C   0  0  0  0  0  0  0  0  0  0  0  0
  142.7100   77.8750  218.0330 C   0  0  0  0  0  0  0  0  0  0  0  0
  143.3240   76.6750  217.7090 C   0  0  0  0  0  0  0  0  0  0  0  0
  143.2580   75.6890  218.6980 C   0  0  0  0  0  0  0  0  0  0  0  0
  143.8580   74.4890  218.4050 C   0  0  0  0  0  0  0  0  0  0  0  0
  143.8350   73.4730  219.3230 C   0  0  0  0  0  0  0  0  0  0  0  0
  143.2030   73.6910  220.5260 C   0  0  0  0  0  0  0  0  0  0  0  0
  142.5890   74.9050  220.8380 C   0  0  0  0  0  0  0  0  0  0  0  0
  142.6250   75.9040  219.9030 C   0  0  0  0  0  0  0  0  0  0  0  0
  142.0530   77.1010  220.1350 N   0  0  0  0  0  0  0  0  0  0  0  0
  143.0970   80.2670  220.5880 H   0  0  0  0  0  0  0  0  0  0  0  0
  142.1264   82.5248  220.2206 H   0  0  0  0  0  0  0  0  0  0  0  0
  140.6467   81.7606  219.5533 H   0  0  0  0  0  0  0  0  0  0  0  0
  142.6041   81.3660  223.6296 H   0  0  0  0  0  0  0  0  0  0  0  0
  141.3711   80.9041  224.7353 H   0  0  0  0  0  0  0  0  0  0  0  0
  142.8937   78.8431  224.3628 H   0  0  0  0  0  0  0  0  0  0  0  0
  142.6860   78.2260  221.8860 H   0  0  0  0  0  0  0  0  0  0  0  0
  140.5364   78.1203  224.3873 H   0  0  0  0  0  0  0  0  0  0  0  0
  141.9040   77.1820  222.2900 H   0  0  0  0  0  0  0  0  0  0  0  0
  139.6022   79.1701  221.8404 H   0  0  0  0  0  0  0  0  0  0  0  0
  137.9253   79.4805  223.3192 H   0  0  0  0  0  0  0  0  0  0  0  0
  139.0356   79.3468  224.7137 H   0  0  0  0  0  0  0  0  0  0  0  0
  138.7890   81.6680  223.0370 H   0  0  0  0  0  0  0  0  0  0  0  0
  142.7295   78.6904  217.2950 H   0  0  0  0  0  0  0  0  0  0  0  0
  143.8264   76.5107  216.7443 H   0  0  0  0  0  0  0  0  0  0  0  0
  144.3560   74.3442  217.4350 H   0  0  0  0  0  0  0  0  0  0  0  0
  144.3104   72.5055  219.1040 H   0  0  0  0  0  0  0  0  0  0  0  0
  143.1810   72.8794  221.2682 H   0  0  0  0  0  0  0  0  0  0  0  0
  142.0906   75.0546  221.8072 H   0  0  0  0  0  0  0  0  0  0  0  0
  1  2  2  0
  2  3  1  0
  3  4  1  0
  4  5  1  0
  5  6  2  0
  5  7  1  0
  7  8  1  0
  8  9  1  0
  9 10  1  0
  9 11  1  0
 11 12  1  0
 11 13  1  0
 13 14  1  0
 14 15  1  0
  2 16  1  0
 16 17  2  0
 17 18  1  0
 18 19  2  0
 19 20  1  0
 20 21  2  0
 21 22  1  0
 22 23  2  0
 23 24  1  0
 24 25  2  0
 13  7  1  0
 25 16  1  0
 24 19  1  0
  3 26  1  0
  4 27  1  0
  4 28  1  0
  8 29  1  0
  8 30  1  0
  9 31  1  1
 10 32  1  0
 11 33  1  1
 12 34  1  0
 13 35  1  6
 14 36  1  0
 14 37  1  0
 15 38  1  0
 17 39  1  0
 18 40  1  0
 20 41  1  0
 21 42  1  0
 22 43  1  0
 23 44  1  0
M  END
>  <smiles>  (16) 
O=C(NCC(=O)N1C[C@H](O)[C@H](O)[C@H]1CO)c1ccc2ccccc2n1

>  <score_type>  (16) 
oracle

>  <origin>  (16) 
autodockgpu

>  <m_score__min__energy>  (16) 
-7.2400000000000002

>  <m_primary>  (16) 
energy

>  <rmsd>  (16) 
8.62976325943962

>  <m_score__min__rmsd>  (16) 
8.62976325943962

>  <meeko>  (16) 
{"free_energy": -4.92, "intermolecular_energy": -7.3, "internal_energy": -5.52, "cluster_size": 10, "cluster_id": 5, "rank_in_cluster": 2}

>  <energy>  (16) 
-6.57

>  <cluster_rmsd>  (16) 
1.29

>  <cluster>  (16) 
2

$$$$

     RDKit          3D

 44 46  0  0  0  0  0  0  0  0999 V2000
  140.3070   74.6440  222.1840 O   0  0  0  0  0  0  0  0  0  0  0  0
  139.9630   75.7100  221.5970 C   0  0  0  0  0  0  0  0  0  0  0  0
  139.3210   75.5560  220.3380 N   0  0  0  0  0  0  0  0  0  0  0  0
  139.1400   74.1720  219.8780 C   0  0  0  0  0  0  0  0  0  0  0  0
  140.1320   73.8760  218.8400 C   0  0  0  0  0  0  0  0  0  0  0  0
  139.7690   73.1110  217.8910 O   0  0  0  0  0  0  0  0  0  0  0  0
  141.4530   74.3600  218.7940 N   0  0  0  0  0  0  0  0  0  0  0  0
  142.6430   73.5660  219.1450 C   0  0  0  0  0  0  0  0  0  0  0  0
  143.3020   74.5700  220.0890 C   0  0  2  0  0  0  0  0  0  0  0  0
  142.4970   74.7610  221.2130 O   0  0  0  0  0  0  0  0  0  0  0  0
  143.2420   75.8340  219.2720 C   0  0  2  0  0  0  0  0  0  0  0  0
  143.1720   76.9750  220.0630 O   0  0  0  0  0  0  0  0  0  0  0  0
  142.0000   75.6490  218.4330 C   0  0  1  0  0  0  0  0  0  0  0  0
  142.3850   75.6270  216.9610 C   0  0  0  0  0  0  0  0  0  0  0  0
  141.3250   75.1000  216.2450 O   0  0  0  0  0  0  0  0  0  0  0  0
  140.2030   77.0290  222.1680 C   0  0  0  0  0  0  0  0  0  0  0  0
  139.1150   77.7300  222.6360 C   0  0  0  0  0  0  0  0  0  0  0  0
  139.2140   78.9930  223.1990 C   0  0  0  0  0  0  0  0  0  0  0  0
  140.5100   79.5120  223.2630 C   0  0  0  0  0  0  0  0  0  0  0  0
  140.6400   80.7620  223.8160 C   0  0  0  0  0  0  0  0  0  0  0  0
  141.8780   81.3400  223.9130 C   0  0  0  0  0  0  0  0  0  0  0  0
  142.9660   80.6400  223.4470 C   0  0  0  0  0  0  0  0  0  0  0  0
  142.8500   79.3690  222.8810 C   0  0  0  0  0  0  0  0  0  0  0  0
  141.6020   78.8140  222.7950 C   0  0  0  0  0  0  0  0  0  0  0  0
  141.4150   77.5920  222.2620 N   0  0  0  0  0  0  0  0  0  0  0  0
  139.0000   76.3740  219.7760 H   0  0  0  0  0  0  0  0  0  0  0  0
  139.2757   73.4823  220.7241 H   0  0  0  0  0  0  0  0  0  0  0  0
  138.1270   74.0482  219.4675 H   0  0  0  0  0  0  0  0  0  0  0  0
  142.3812   72.6265  219.6537 H   0  0  0  0  0  0  0  0  0  0  0  0
  143.2591   73.2229  218.3007 H   0  0  0  0  0  0  0  0  0  0  0  0
  144.3031   74.2655  220.4282 H   0  0  0  0  0  0  0  0  0  0  0  0
  142.2110   75.7030  221.3090 H   0  0  0  0  0  0  0  0  0  0  0  0
  144.1480   75.9872  218.6674 H   0  0  0  0  0  0  0  0  0  0  0  0
  142.7260   76.8350  220.9140 H   0  0  0  0  0  0  0  0  0  0  0  0
  141.2773   76.4611  218.6011 H   0  0  0  0  0  0  0  0  0  0  0  0
  142.5956   76.6500  216.6158 H   0  0  0  0  0  0  0  0  0  0  0  0
  143.2860   75.0136  216.8129 H   0  0  0  0  0  0  0  0  0  0  0  0
  141.0660   74.2190  216.6110 H   0  0  0  0  0  0  0  0  0  0  0  0
  138.1204   77.2665  222.5598 H   0  0  0  0  0  0  0  0  0  0  0  0
  138.3374   79.5457  223.5680 H   0  0  0  0  0  0  0  0  0  0  0  0
  139.7515   81.2983  224.1805 H   0  0  0  0  0  0  0  0  0  0  0  0
  141.9991   82.3407  224.3534 H   0  0  0  0  0  0  0  0  0  0  0  0
  143.9633   81.0978  223.5229 H   0  0  0  0  0  0  0  0  0  0  0  0
  143.7359   78.8294  222.5148 H   0  0  0  0  0  0  0  0  0  0  0  0
  1  2  2  0
  2  3  1  0
  3  4  1  0
  4  5  1  0
  5  6  2  0
  5  7  1  0
  7  8  1  0
  8  9  1  0
  9 10  1  0
  9 11  1  0
 11 12  1  0
 11 13  1  0
 13 14  1  0
 14 15  1  0
  2 16  1  0
 16 17  2  0
 17 18  1  0
 18 19  2  0
 19 20  1  0
 20 21  2  0
 21 22  1  0
 22 23  2  0
 23 24  1  0
 24 25  2  0
 13  7  1  0
 25 16  1  0
 24 19  1  0
  3 26  1  0
  4 27  1  0
  4 28  1  0
  8 29  1  0
  8 30  1  0
  9 31  1  1
 10 32  1  0
 11 33  1  6
 12 34  1  0
 13 35  1  6
 14 36  1  0
 14 37  1  0
 15 38  1  0
 17 39  1  0
 18 40  1  0
 20 41  1  0
 21 42  1  0
 22 43  1  0
 23 44  1  0
M  END
>  <smiles>  (17) 
O=C(NCC(=O)N1C[C@H](O)[C@H](O)[C@H]1CO)c1ccc2ccccc2n1

>  <score_type>  (17) 
oracle

>  <origin>  (17) 
autodockgpu

>  <m_score__min__energy>  (17) 
-7.2400000000000002

>  <m_primary>  (17) 
energy

>  <rmsd>  (17) 
7.133120285396897

>  <m_score__min__rmsd>  (17) 
7.133120285396897

>  <meeko>  (17) 
{"free_energy": -4.84, "intermolecular_energy": -7.23, "internal_energy": -4.91, "cluster_size": 8, "cluster_id": 3, "rank_in_cluster": 8}

>  <energy>  (17) 
-6.56

>  <cluster_rmsd>  (17) 
1.34

>  <cluster>  (17) 
2

$$$$

     RDKit          3D

 44 46  0  0  0  0  0  0  0  0999 V2000
  139.9740   70.6740  221.5460 O   0  0  0  0  0  0  0  0  0  0  0  0
  139.9510   71.2110  222.6900 C   0  0  0  0  0  0  0  0  0  0  0  0
  139.9350   72.6320  222.7180 N   0  0  0  0  0  0  0  0  0  0  0  0
  139.9470   73.2970  221.4070 C   0  0  0  0  0  0  0  0  0  0  0  0
  141.1250   74.1650  221.3180 C   0  0  0  0  0  0  0  0  0  0  0  0
  141.0840   75.2670  221.9530 O   0  0  0  0  0  0  0  0  0  0  0  0
  142.3020   73.8950  220.5950 N   0  0  0  0  0  0  0  0  0  0  0  0
  142.4060   72.8980  219.5150 C   0  0  0  0  0  0  0  0  0  0  0  0
  143.6580   72.1750  220.0080 C   0  0  2  0  0  0  0  0  0  0  0  0
  143.3910   71.5450  221.2250 O   0  0  0  0  0  0  0  0  0  0  0  0
  144.5800   73.3300  220.2910 C   0  0  2  0  0  0  0  0  0  0  0  0
  145.4940   73.0450  221.3000 O   0  0  0  0  0  0  0  0  0  0  0  0
  143.6380   74.4440  220.6790 C   0  0  1  0  0  0  0  0  0  0  0  0
  143.7650   75.5840  219.6790 C   0  0  0  0  0  0  0  0  0  0  0  0
  142.8270   76.5480  219.9990 O   0  0  0  0  0  0  0  0  0  0  0  0
  139.9410   70.4310  223.9200 C   0  0  0  0  0  0  0  0  0  0  0  0
  139.3010   69.2120  223.8980 C   0  0  0  0  0  0  0  0  0  0  0  0
  139.2230   68.3790  225.0040 C   0  0  0  0  0  0  0  0  0  0  0  0
  139.8480   68.8640  226.1560 C   0  0  0  0  0  0  0  0  0  0  0  0
  139.7870   68.0600  227.2680 C   0  0  0  0  0  0  0  0  0  0  0  0
  140.3750   68.4660  228.4360 C   0  0  0  0  0  0  0  0  0  0  0  0
  141.0160   69.6830  228.4590 C   0  0  0  0  0  0  0  0  0  0  0  0
  141.0860   70.5120  227.3370 C   0  0  0  0  0  0  0  0  0  0  0  0
  140.4900   70.0840  226.1820 C   0  0  0  0  0  0  0  0  0  0  0  0
  140.5170   70.8300  225.0620 N   0  0  0  0  0  0  0  0  0  0  0  0
  139.9160   73.1690  223.6120 H   0  0  0  0  0  0  0  0  0  0  0  0
  139.9871   72.5394  220.6105 H   0  0  0  0  0  0  0  0  0  0  0  0
  139.0341   73.8994  221.2896 H   0  0  0  0  0  0  0  0  0  0  0  0
  141.5301   72.2338  219.4762 H   0  0  0  0  0  0  0  0  0  0  0  0
  142.4534   73.2996  218.4920 H   0  0  0  0  0  0  0  0  0  0  0  0
  144.0384   71.4205  219.3038 H   0  0  0  0  0  0  0  0  0  0  0  0
  144.2200   71.3380  221.7250 H   0  0  0  0  0  0  0  0  0  0  0  0
  145.2107   73.5852  219.4267 H   0  0  0  0  0  0  0  0  0  0  0  0
  145.4430   72.1350  221.6290 H   0  0  0  0  0  0  0  0  0  0  0  0
  143.8617   74.8255  221.6862 H   0  0  0  0  0  0  0  0  0  0  0  0
  144.7754   76.0156  219.7331 H   0  0  0  0  0  0  0  0  0  0  0  0
  143.5944   75.2132  218.6575 H   0  0  0  0  0  0  0  0  0  0  0  0
  142.5700   76.4770  220.9510 H   0  0  0  0  0  0  0  0  0  0  0  0
  138.8298   68.8838  222.9598 H   0  0  0  0  0  0  0  0  0  0  0  0
  138.7071   67.4079  224.9765 H   0  0  0  0  0  0  0  0  0  0  0  0
  139.2668   67.0919  227.2203 H   0  0  0  0  0  0  0  0  0  0  0  0
  140.3357   67.8336  229.3352 H   0  0  0  0  0  0  0  0  0  0  0  0
  141.4903   70.0151  229.3943 H   0  0  0  0  0  0  0  0  0  0  0  0
  141.6052   71.4808  227.3806 H   0  0  0  0  0  0  0  0  0  0  0  0
  1  2  2  0
  2  3  1  0
  3  4  1  0
  4  5  1  0
  5  6  2  0
  5  7  1  0
  7  8  1  0
  8  9  1  0
  9 10  1  0
  9 11  1  0
 11 12  1  0
 11 13  1  0
 13 14  1  0
 14 15  1  0
  2 16  1  0
 16 17  2  0
 17 18  1  0
 18 19  2  0
 19 20  1  0
 20 21  2  0
 21 22  1  0
 22 23  2  0
 23 24  1  0
 24 25  2  0
 13  7  1  0
 25 16  1  0
 24 19  1  0
  3 26  1  0
  4 27  1  0
  4 28  1  0
  8 29  1  0
  8 30  1  0
  9 31  1  6
 10 32  1  0
 11 33  1  6
 12 34  1  0
 13 35  1  1
 14 36  1  0
 14 37  1  0
 15 38  1  0
 17 39  1  0
 18 40  1  0
 20 41  1  0
 21 42  1  0
 22 43  1  0
 23 44  1  0
M  END
>  <smiles>  (18) 
O=C(NCC(=O)N1C[C@H](O)[C@H](O)[C@H]1CO)c1ccc2ccccc2n1

>  <score_type>  (18) 
oracle

>  <origin>  (18) 
autodockgpu

>  <m_score__min__energy>  (18) 
-7.2400000000000002

>  <m_primary>  (18) 
energy

>  <rmsd>  (18) 
3.1330399976753074

>  <m_score__min__rmsd>  (18) 
3.1330399976753074

>  <meeko>  (18) 
{"free_energy": -7.14, "intermolecular_energy": -9.53, "internal_energy": -3.19, "cluster_size": 12, "cluster_id": 1, "rank_in_cluster": 3}

>  <energy>  (18) 
-6.5

>  <cluster_rmsd>  (18) 
0.0

>  <cluster>  (18) 
3

$$$$

     RDKit          3D

 44 46  0  0  0  0  0  0  0  0999 V2000
  137.6650   69.5480  222.4140 O   0  0  0  0  0  0  0  0  0  0  0  0
  138.0750   70.5490  223.0690 C   0  0  0  0  0  0  0  0  0  0  0  0
  137.7470   71.8260  222.5380 N   0  0  0  0  0  0  0  0  0  0  0  0
  136.9700   71.8190  221.2890 C   0  0  0  0  0  0  0  0  0  0  0  0
  137.7720   72.4210  220.2210 C   0  0  0  0  0  0  0  0  0  0  0  0
  137.5680   72.0060  219.0360 O   0  0  0  0  0  0  0  0  0  0  0  0
  138.7530   73.4190  220.3810 N   0  0  0  0  0  0  0  0  0  0  0  0
  140.2050   73.1730  220.3490 C   0  0  0  0  0  0  0  0  0  0  0  0
  140.5770   73.9150  221.6310 C   0  0  2  0  0  0  0  0  0  0  0  0
  140.0020   73.2770  222.7310 O   0  0  0  0  0  0  0  0  0  0  0  0
  139.8570   75.2240  221.4400 C   0  0  2  0  0  0  0  0  0  0  0  0
  139.4940   75.8100  222.6470 O   0  0  0  0  0  0  0  0  0  0  0  0
  138.6550   74.8440  220.6100 C   0  0  1  0  0  0  0  0  0  0  0  0
  138.7190   75.5640  219.2720 C   0  0  0  0  0  0  0  0  0  0  0  0
  138.5450   74.6280  218.2680 O   0  0  0  0  0  0  0  0  0  0  0  0
  138.8410   70.4170  224.3010 C   0  0  0  0  0  0  0  0  0  0  0  0
  139.5680   71.5080  224.7210 C   0  0  0  0  0  0  0  0  0  0  0  0
  140.3350   71.5060  225.8760 C   0  0  0  0  0  0  0  0  0  0  0  0
  140.3200   70.3070  226.5950 C   0  0  0  0  0  0  0  0  0  0  0  0
  141.0710   70.2760  227.7440 C   0  0  0  0  0  0  0  0  0  0  0  0
  141.1080   69.1370  228.5040 C   0  0  0  0  0  0  0  0  0  0  0  0
  140.3810   68.0470  228.0850 C   0  0  0  0  0  0  0  0  0  0  0  0
  139.6130   68.0630  226.9200 C   0  0  0  0  0  0  0  0  0  0  0  0
  139.5930   69.2130  226.1780 C   0  0  0  0  0  0  0  0  0  0  0  0
  138.8750   69.3020  225.0430 N   0  0  0  0  0  0  0  0  0  0  0  0
  138.0390   72.7130  223.0040 H   0  0  0  0  0  0  0  0  0  0  0  0
  136.7158   70.7833  221.0193 H   0  0  0  0  0  0  0  0  0  0  0  0
  136.0435   72.3959  221.4262 H   0  0  0  0  0  0  0  0  0  0  0  0
  140.4469   72.1013  220.4032 H   0  0  0  0  0  0  0  0  0  0  0  0
  140.7283   73.4951  219.4367 H   0  0  0  0  0  0  0  0  0  0  0  0
  141.6614   73.9857  221.8013 H   0  0  0  0  0  0  0  0  0  0  0  0
  139.1760   73.7310  223.0320 H   0  0  0  0  0  0  0  0  0  0  0  0
  140.4872   75.9845  220.9558 H   0  0  0  0  0  0  0  0  0  0  0  0
  139.1590   75.1800  223.3040 H   0  0  0  0  0  0  0  0  0  0  0  0
  137.7161   75.1132  221.1159 H   0  0  0  0  0  0  0  0  0  0  0  0
  137.9222   76.3205  219.2179 H   0  0  0  0  0  0  0  0  0  0  0  0
  139.6904   76.0673  219.1577 H   0  0  0  0  0  0  0  0  0  0  0  0
  137.7670   74.0510  218.4650 H   0  0  0  0  0  0  0  0  0  0  0  0
  139.5390   72.4237  224.1121 H   0  0  0  0  0  0  0  0  0  0  0  0
  140.9128   72.3832  226.2026 H   0  0  0  0  0  0  0  0  0  0  0  0
  141.6417   71.1639  228.0536 H   0  0  0  0  0  0  0  0  0  0  0  0
  141.7047   69.0950  229.4271 H   0  0  0  0  0  0  0  0  0  0  0  0
  140.4059   67.1290  228.6905 H   0  0  0  0  0  0  0  0  0  0  0  0
  139.0405   67.1774  226.6071 H   0  0  0  0  0  0  0  0  0  0  0  0
  1  2  2  0
  2  3  1  0
  3  4  1  0
  4  5  1  0
  5  6  2  0
  5  7  1  0
  7  8  1  0
  8  9  1  0
  9 10  1  0
  9 11  1  0
 11 12  1  0
 11 13  1  0
 13 14  1  0
 14 15  1  0
  2 16  1  0
 16 17  2  0
 17 18  1  0
 18 19  2  0
 19 20  1  0
 20 21  2  0
 21 22  1  0
 22 23  2  0
 23 24  1  0
 24 25  2  0
 13  7  1  0
 25 16  1  0
 24 19  1  0
  3 26  1  0
  4 27  1  0
  4 28  1  0
  8 29  1  0
  8 30  1  0
  9 31  1  1
 10 32  1  0
 11 33  1  6
 12 34  1  0
 13 35  1  1
 14 36  1  0
 14 37  1  0
 15 38  1  0
 17 39  1  0
 18 40  1  0
 20 41  1  0
 21 42  1  0
 22 43  1  0
 23 44  1  0
M  END
>  <smiles>  (19) 
O=C(NCC(=O)N1C[C@H](O)[C@H](O)[C@H]1CO)c1ccc2ccccc2n1

>  <score_type>  (19) 
oracle

>  <origin>  (19) 
autodockgpu

>  <m_score__min__energy>  (19) 
-7.2400000000000002

>  <m_primary>  (19) 
energy

>  <rmsd>  (19) 
3.65801067077898

>  <m_score__min__rmsd>  (19) 
3.65801067077898

>  <meeko>  (19) 
{"free_energy": -5.82, "intermolecular_energy": -8.21, "internal_energy": -3.71, "cluster_size": 2, "cluster_id": 4, "rank_in_cluster": 1}

>  <energy>  (19) 
-6.47

>  <cluster_rmsd>  (19) 
0.82

>  <cluster>  (19) 
3

$$$$

     RDKit          3D

 44 46  0  0  0  0  0  0  0  0999 V2000
  140.0160   74.2830  222.3420 O   0  0  0  0  0  0  0  0  0  0  0  0
  140.2850   75.2770  221.6080 C   0  0  0  0  0  0  0  0  0  0  0  0
  140.6010   74.9920  220.2520 N   0  0  0  0  0  0  0  0  0  0  0  0
  140.5760   73.5710  219.8750 C   0  0  0  0  0  0  0  0  0  0  0  0
  141.8150   72.9320  220.3280 C   0  0  0  0  0  0  0  0  0  0  0  0
  141.7100   72.0130  221.2010 O   0  0  0  0  0  0  0  0  0  0  0  0
  143.1160   73.2390  219.8860 N   0  0  0  0  0  0  0  0  0  0  0  0
  143.7120   72.7370  218.6370 C   0  0  0  0  0  0  0  0  0  0  0  0
  145.0350   72.2360  219.2140 C   0  0  2  0  0  0  0  0  0  0  0  0
  144.7960   71.1810  220.0960 O   0  0  0  0  0  0  0  0  0  0  0  0
  145.4710   73.4210  220.0350 C   0  0  2  0  0  0  0  0  0  0  0  0
  146.2520   73.0530  221.1250 O   0  0  0  0  0  0  0  0  0  0  0  0
  144.1660   74.0510  220.4610 C   0  0  1  0  0  0  0  0  0  0  0  0
  144.0740   75.4560  219.8850 C   0  0  0  0  0  0  0  0  0  0  0  0
  142.8510   75.9920  220.2470 O   0  0  0  0  0  0  0  0  0  0  0  0
  140.2730   76.6450  222.1100 C   0  0  0  0  0  0  0  0  0  0  0  0
  139.0530   77.2020  222.4190 C   0  0  0  0  0  0  0  0  0  0  0  0
  138.9120   78.4930  222.9040 C   0  0  0  0  0  0  0  0  0  0  0  0
  140.1070   79.2000  223.0620 C   0  0  0  0  0  0  0  0  0  0  0  0
  139.9990   80.4820  223.5410 C   0  0  0  0  0  0  0  0  0  0  0  0
  141.1250   81.2400  223.7220 C   0  0  0  0  0  0  0  0  0  0  0  0
  142.3450   80.6840  223.4140 C   0  0  0  0  0  0  0  0  0  0  0  0
  142.4720   79.3830  222.9260 C   0  0  0  0  0  0  0  0  0  0  0  0
  141.3310   78.6460  222.7530 C   0  0  0  0  0  0  0  0  0  0  0  0
  141.3760   77.3840  222.2870 N   0  0  0  0  0  0  0  0  0  0  0  0
  140.8370   75.7430  219.5670 H   0  0  0  0  0  0  0  0  0  0  0  0
  139.7136   73.0794  220.3489 H   0  0  0  0  0  0  0  0  0  0  0  0
  140.4902   73.4793  218.7822 H   0  0  0  0  0  0  0  0  0  0  0  0
  143.1192   71.9253  218.1900 H   0  0  0  0  0  0  0  0  0  0  0  0
  143.7901   73.4638  217.8150 H   0  0  0  0  0  0  0  0  0  0  0  0
  145.7490   71.8933  218.4506 H   0  0  0  0  0  0  0  0  0  0  0  0
  144.7870   71.4810  221.0390 H   0  0  0  0  0  0  0  0  0  0  0  0
  146.1143   74.1106  219.4688 H   0  0  0  0  0  0  0  0  0  0  0  0
  146.1950   72.1100  221.3470 H   0  0  0  0  0  0  0  0  0  0  0  0
  144.0856   74.1078  221.5566 H   0  0  0  0  0  0  0  0  0  0  0  0
  144.8871   76.0777  220.2880 H   0  0  0  0  0  0  0  0  0  0  0  0
  144.1658   75.4244  218.7893 H   0  0  0  0  0  0  0  0  0  0  0  0
  142.9020   76.3880  221.1510 H   0  0  0  0  0  0  0  0  0  0  0  0
  138.1475   76.5944  222.2744 H   0  0  0  0  0  0  0  0  0  0  0  0
  137.9316   78.9288  223.1466 H   0  0  0  0  0  0  0  0  0  0  0  0
  139.0096   80.8997  223.7790 H   0  0  0  0  0  0  0  0  0  0  0  0
  141.0556   82.2690  224.1046 H   0  0  0  0  0  0  0  0  0  0  0  0
  143.2536   81.2871  223.5577 H   0  0  0  0  0  0  0  0  0  0  0  0
  143.4597   78.9618  222.6873 H   0  0  0  0  0  0  0  0  0  0  0  0
  1  2  2  0
  2  3  1  0
  3  4  1  0
  4  5  1  0
  5  6  2  0
  5  7  1  0
  7  8  1  0
  8  9  1  0
  9 10  1  0
  9 11  1  0
 11 12  1  0
 11 13  1  0
 13 14  1  0
 14 15  1  0
  2 16  1  0
 16 17  2  0
 17 18  1  0
 18 19  2  0
 19 20  1  0
 20 21  2  0
 21 22  1  0
 22 23  2  0
 23 24  1  0
 24 25  2  0
 13  7  1  0
 25 16  1  0
 24 19  1  0
  3 26  1  0
  4 27  1  0
  4 28  1  0
  8 29  1  0
  8 30  1  0
  9 31  1  6
 10 32  1  0
 11 33  1  6
 12 34  1  0
 13 35  1  1
 14 36  1  0
 14 37  1  0
 15 38  1  0
 17 39  1  0
 18 40  1  0
 20 41  1  0
 21 42  1  0
 22 43  1  0
 23 44  1  0
M  END
>  <smiles>  (20) 
O=C(NCC(=O)N1C[C@H](O)[C@H](O)[C@H]1CO)c1ccc2ccccc2n1

>  <score_type>  (20) 
oracle

>  <origin>  (20) 
autodockgpu

>  <m_score__min__energy>  (20) 
-7.2400000000000002

>  <m_primary>  (20) 
energy

>  <rmsd>  (20) 
7.388286876770372

>  <m_score__min__rmsd>  (20) 
7.388286876770372

>  <meeko>  (20) 
{"free_energy": -6.5, "intermolecular_energy": -8.89, "internal_energy": -3.76, "cluster_size": 8, "cluster_id": 3, "rank_in_cluster": 1}

>  <energy>  (20) 
-6.46

>  <cluster_rmsd>  (20) 
0.86

>  <cluster>  (20) 
3

$$$$

     RDKit          3D

 44 46  0  0  0  0  0  0  0  0999 V2000
  140.0190   74.2220  222.3450 O   0  0  0  0  0  0  0  0  0  0  0  0
  140.3880   75.1980  221.6310 C   0  0  0  0  0  0  0  0  0  0  0  0
  140.8480   74.8820  220.3230 N   0  0  0  0  0  0  0  0  0  0  0  0
  140.8340   73.4550  219.9680 C   0  0  0  0  0  0  0  0  0  0  0  0
  141.9350   73.1800  219.0400 C   0  0  0  0  0  0  0  0  0  0  0  0
  141.6450   72.5790  217.9570 O   0  0  0  0  0  0  0  0  0  0  0  0
  143.2870   73.5190  219.2320 N   0  0  0  0  0  0  0  0  0  0  0  0
  144.3830   73.1190  218.3320 C   0  0  0  0  0  0  0  0  0  0  0  0
  145.3400   72.5700  219.3880 C   0  0  2  0  0  0  0  0  0  0  0  0
  144.7780   71.4460  219.9970 O   0  0  0  0  0  0  0  0  0  0  0  0
  145.3370   73.6810  220.4030 C   0  0  2  0  0  0  0  0  0  0  0  0
  145.5810   73.2230  221.6930 O   0  0  0  0  0  0  0  0  0  0  0  0
  143.9570   74.2780  220.2650 C   0  0  1  0  0  0  0  0  0  0  0  0
  144.0770   75.7260  219.8140 C   0  0  0  0  0  0  0  0  0  0  0  0
  142.8810   76.3650  220.0870 O   0  0  0  0  0  0  0  0  0  0  0  0
  140.3500   76.5740  222.1060 C   0  0  0  0  0  0  0  0  0  0  0  0
  139.1160   77.1230  222.3740 C   0  0  0  0  0  0  0  0  0  0  0  0
  138.9500   78.4220  222.8310 C   0  0  0  0  0  0  0  0  0  0  0  0
  140.1340   79.1440  223.0060 C   0  0  0  0  0  0  0  0  0  0  0  0
  140.0000   80.4340  223.4580 C   0  0  0  0  0  0  0  0  0  0  0  0
  141.1140   81.2070  223.6540 C   0  0  0  0  0  0  0  0  0  0  0  0
  142.3470   80.6590  223.3870 C   0  0  0  0  0  0  0  0  0  0  0  0
  142.4990   79.3500  222.9270 C   0  0  0  0  0  0  0  0  0  0  0  0
  141.3710   78.5980  222.7390 C   0  0  0  0  0  0  0  0  0  0  0  0
  141.4410   77.3280  222.2970 N   0  0  0  0  0  0  0  0  0  0  0  0
  141.1740   75.6160  219.6570 H   0  0  0  0  0  0  0  0  0  0  0  0
  140.9584   72.8482  220.8770 H   0  0  0  0  0  0  0  0  0  0  0  0
  139.8757   73.2015  219.4911 H   0  0  0  0  0  0  0  0  0  0  0  0
  144.0703   72.3478  217.6126 H   0  0  0  0  0  0  0  0  0  0  0  0
  144.7854   73.9100  217.6821 H   0  0  0  0  0  0  0  0  0  0  0  0
  146.3255   72.2901  218.9874 H   0  0  0  0  0  0  0  0  0  0  0  0
  144.8480   71.4850  220.9830 H   0  0  0  0  0  0  0  0  0  0  0  0
  146.1389   74.4130  220.2268 H   0  0  0  0  0  0  0  0  0  0  0  0
  145.7680   72.2730  221.7420 H   0  0  0  0  0  0  0  0  0  0  0  0
  143.4081   74.2452  221.2177 H   0  0  0  0  0  0  0  0  0  0  0  0
  144.8954   76.2191  220.3591 H   0  0  0  0  0  0  0  0  0  0  0  0
  144.2943   75.7713  218.7366 H   0  0  0  0  0  0  0  0  0  0  0  0
  142.7930   76.5330  221.0570 H   0  0  0  0  0  0  0  0  0  0  0  0
  138.2208   76.5030  222.2185 H   0  0  0  0  0  0  0  0  0  0  0  0
  137.9595   78.8523  223.0403 H   0  0  0  0  0  0  0  0  0  0  0  0
  139.0005   80.8456  223.6621 H   0  0  0  0  0  0  0  0  0  0  0  0
  141.0245   82.2417  224.0165 H   0  0  0  0  0  0  0  0  0  0  0  0
  143.2455   81.2744  223.5415 H   0  0  0  0  0  0  0  0  0  0  0  0
  143.4966   78.9347  222.7215 H   0  0  0  0  0  0  0  0  0  0  0  0
  1  2  2  0
  2  3  1  0
  3  4  1  0
  4  5  1  0
  5  6  2  0
  5  7  1  0
  7  8  1  0
  8  9  1  0
  9 10  1  0
  9 11  1  0
 11 12  1  0
 11 13  1  0
 13 14  1  0
 14 15  1  0
  2 16  1  0
 16 17  2  0
 17 18  1  0
 18 19  2  0
 19 20  1  0
 20 21  2  0
 21 22  1  0
 22 23  2  0
 23 24  1  0
 24 25  2  0
 13  7  1  0
 25 16  1  0
 24 19  1  0
  3 26  1  0
  4 27  1  0
  4 28  1  0
  8 29  1  0
  8 30  1  0
  9 31  1  6
 10 32  1  0
 11 33  1  6
 12 34  1  0
 13 35  1  1
 14 36  1  0
 14 37  1  0
 15 38  1  0
 17 39  1  0
 18 40  1  0
 20 41  1  0
 21 42  1  0
 22 43  1  0
 23 44  1  0
M  END
>  <smiles>  (21) 
O=C(NCC(=O)N1C[C@H](O)[C@H](O)[C@H]1CO)c1ccc2ccccc2n1

>  <score_type>  (21) 
oracle

>  <origin>  (21) 
autodockgpu

>  <m_score__min__energy>  (21) 
-7.2400000000000002

>  <m_primary>  (21) 
energy

>  <rmsd>  (21) 
7.438737317559118

>  <m_score__min__rmsd>  (21) 
7.438737317559118

>  <meeko>  (21) 
{"free_energy": -6.2, "intermolecular_energy": -8.59, "internal_energy": -3.76, "cluster_size": 8, "cluster_id": 3, "rank_in_cluster": 6}

>  <energy>  (21) 
-6.45

>  <cluster_rmsd>  (21) 
0.76

>  <cluster>  (21) 
3

$$$$

     RDKit          3D

 44 46  0  0  0  0  0  0  0  0999 V2000
  141.0290   71.4740  221.4220 O   0  0  0  0  0  0  0  0  0  0  0  0
  140.3680   71.9920  222.3670 C   0  0  0  0  0  0  0  0  0  0  0  0
  139.7520   73.2430  222.0920 N   0  0  0  0  0  0  0  0  0  0  0  0
  139.9630   73.7760  220.7390 C   0  0  0  0  0  0  0  0  0  0  0  0
  140.9590   74.8510  220.7950 C   0  0  0  0  0  0  0  0  0  0  0  0
  142.1820   74.5150  220.7000 O   0  0  0  0  0  0  0  0  0  0  0  0
  140.6890   76.2240  220.9450 N   0  0  0  0  0  0  0  0  0  0  0  0
  140.2870   77.1190  219.8460 C   0  0  0  0  0  0  0  0  0  0  0  0
  141.2890   78.2430  220.1060 C   0  0  2  0  0  0  0  0  0  0  0  0
  142.5880   77.7750  219.9000 O   0  0  0  0  0  0  0  0  0  0  0  0
  141.1170   78.4610  221.5850 C   0  0  2  0  0  0  0  0  0  0  0  0
  142.2780   78.9310  222.1900 O   0  0  0  0  0  0  0  0  0  0  0  0
  140.7230   77.0970  222.0980 C   0  0  1  0  0  0  0  0  0  0  0  0
  139.3300   77.1690  222.7040 C   0  0  0  0  0  0  0  0  0  0  0  0
  138.7990   75.8920  222.7210 O   0  0  0  0  0  0  0  0  0  0  0  0
  140.2360   71.3540  223.6710 C   0  0  0  0  0  0  0  0  0  0  0  0
  139.5850   70.1430  223.7250 C   0  0  0  0  0  0  0  0  0  0  0  0
  139.3970   69.4380  224.9050 C   0  0  0  0  0  0  0  0  0  0  0  0
  139.9200   70.0480  226.0490 C   0  0  0  0  0  0  0  0  0  0  0  0
  139.7480   69.3740  227.2320 C   0  0  0  0  0  0  0  0  0  0  0  0
  140.2320   69.9070  228.3980 C   0  0  0  0  0  0  0  0  0  0  0  0
  140.8830   71.1170  228.3430 C   0  0  0  0  0  0  0  0  0  0  0  0
  141.0650   71.8150  227.1480 C   0  0  0  0  0  0  0  0  0  0  0  0
  140.5720   71.2620  225.9980 C   0  0  0  0  0  0  0  0  0  0  0  0
  140.7110   71.8780  224.8090 N   0  0  0  0  0  0  0  0  0  0  0  0
  139.1850   73.7510  222.8060 H   0  0  0  0  0  0  0  0  0  0  0  0
  140.3245   72.9733  220.0794 H   0  0  0  0  0  0  0  0  0  0  0  0
  139.0148   74.1704  220.3447 H   0  0  0  0  0  0  0  0  0  0  0  0
  140.4287   76.6553  218.8586 H   0  0  0  0  0  0  0  0  0  0  0  0
  139.2272   77.4132  219.8274 H   0  0  0  0  0  0  0  0  0  0  0  0
  141.1357   79.1277  219.4705 H   0  0  0  0  0  0  0  0  0  0  0  0
  143.0290   77.5200  220.7480 H   0  0  0  0  0  0  0  0  0  0  0  0
  140.3682   79.2343  221.8115 H   0  0  0  0  0  0  0  0  0  0  0  0
  143.0620   78.8860  221.6210 H   0  0  0  0  0  0  0  0  0  0  0  0
  141.4263   76.7369  222.8634 H   0  0  0  0  0  0  0  0  0  0  0  0
  139.3902   77.5608  223.7301 H   0  0  0  0  0  0  0  0  0  0  0  0
  138.6911   77.8380  222.1088 H   0  0  0  0  0  0  0  0  0  0  0  0
  139.1830   75.3690  223.4670 H   0  0  0  0  0  0  0  0  0  0  0  0
  139.1958   69.7142  222.7898 H   0  0  0  0  0  0  0  0  0  0  0  0
  138.8749   68.4704  224.9380 H   0  0  0  0  0  0  0  0  0  0  0  0
  139.2226   68.4077  227.2442 H   0  0  0  0  0  0  0  0  0  0  0  0
  140.1029   69.3797  229.3547 H   0  0  0  0  0  0  0  0  0  0  0  0
  141.2747   71.5508  229.2749 H   0  0  0  0  0  0  0  0  0  0  0  0
  141.5896   72.7817  227.1315 H   0  0  0  0  0  0  0  0  0  0  0  0
  1  2  2  0
  2  3  1  0
  3  4  1  0
  4  5  1  0
  5  6  2  0
  5  7  1  0
  7  8  1  0
  8  9  1  0
  9 10  1  0
  9 11  1  0
 11 12  1  0
 11 13  1  0
 13 14  1  0
 14 15  1  0
  2 16  1  0
 16 17  2  0
 17 18  1  0
 18 19  2  0
 19 20  1  0
 20 21  2  0
 21 22  1  0
 22 23  2  0
 23 24  1  0
 24 25  2  0
 13  7  1  0
 25 16  1  0
 24 19  1  0
  3 26  1  0
  4 27  1  0
  4 28  1  0
  8 29  1  0
  8 30  1  0
  9 31  1  6
 10 32  1  0
 11 33  1  6
 12 34  1  0
 13 35  1  1
 14 36  1  0
 14 37  1  0
 15 38  1  0
 17 39  1  0
 18 40  1  0
 20 41  1  0
 21 42  1  0
 22 43  1  0
 23 44  1  0
M  END
>  <smiles>  (22) 
O=C(NCC(=O)N1C[C@H](O)[C@H](O)[C@H]1CO)c1ccc2ccccc2n1

>  <score_type>  (22) 
oracle

>  <origin>  (22) 
autodockgpu

>  <m_score__min__energy>  (22) 
-7.2400000000000002

>  <m_primary>  (22) 
energy

>  <rmsd>  (22) 
2.938451893349853

>  <m_score__min__rmsd>  (22) 
2.938451893349853

>  <meeko>  (22) 
{"free_energy": -7.16, "intermolecular_energy": -9.55, "internal_energy": -3.06, "cluster_size": 5, "cluster_id": 2, "rank_in_cluster": 1}

>  <energy>  (22) 
-6.42

>  <cluster_rmsd>  (22) 
0.84

>  <cluster>  (22) 
3

$$$$

     RDKit          3D

 44 46  0  0  0  0  0  0  0  0999 V2000
  140.2850   79.8040  219.2060 O   0  0  0  0  0  0  0  0  0  0  0  0
  141.4570   79.5100  219.5760 C   0  0  0  0  0  0  0  0  0  0  0  0
  142.1770   80.5290  220.2580 N   0  0  0  0  0  0  0  0  0  0  0  0
  141.4620   81.7990  220.4460 C   0  0  0  0  0  0  0  0  0  0  0  0
  140.6950   81.7400  221.6940 C   0  0  0  0  0  0  0  0  0  0  0  0
  139.8880   82.6960  221.9270 O   0  0  0  0  0  0  0  0  0  0  0  0
  140.7680   80.7230  222.6650 N   0  0  0  0  0  0  0  0  0  0  0  0
  141.7490   80.6890  223.7630 C   0  0  0  0  0  0  0  0  0  0  0  0
  142.2340   79.2520  223.5730 C   0  0  2  0  0  0  0  0  0  0  0  0
  142.8810   79.1300  222.3420 O   0  0  0  0  0  0  0  0  0  0  0  0
  140.9310   78.5060  223.4750 C   0  0  2  0  0  0  0  0  0  0  0  0
  141.0350   77.3570  222.6990 O   0  0  0  0  0  0  0  0  0  0  0  0
  139.9920   79.5190  222.8650 C   0  0  1  0  0  0  0  0  0  0  0  0
  138.8650   79.8150  223.8430 C   0  0  0  0  0  0  0  0  0  0  0  0
  138.7440   81.1880  223.9600 O   0  0  0  0  0  0  0  0  0  0  0  0
  142.0510   78.2030  219.3260 C   0  0  0  0  0  0  0  0  0  0  0  0
  142.6900   78.0130  218.1210 C   0  0  0  0  0  0  0  0  0  0  0  0
  143.2940   76.8160  217.7670 C   0  0  0  0  0  0  0  0  0  0  0  0
  143.2100   75.8040  218.7270 C   0  0  0  0  0  0  0  0  0  0  0  0
  143.8000   74.6060  218.4030 C   0  0  0  0  0  0  0  0  0  0  0  0
  143.7600   73.5640  219.2910 C   0  0  0  0  0  0  0  0  0  0  0  0
  143.1220   73.7540  220.4950 C   0  0  0  0  0  0  0  0  0  0  0  0
  142.5190   74.9650  220.8390 C   0  0  0  0  0  0  0  0  0  0  0  0
  142.5710   75.9910  219.9340 C   0  0  0  0  0  0  0  0  0  0  0  0
  142.0110   77.1860  220.1960 N   0  0  0  0  0  0  0  0  0  0  0  0
  143.1510   80.3840  220.6040 H   0  0  0  0  0  0  0  0  0  0  0  0
  142.1866   82.6250  220.4981 H   0  0  0  0  0  0  0  0  0  0  0  0
  140.7793   81.9676  219.6001 H   0  0  0  0  0  0  0  0  0  0  0  0
  142.5563   81.4229  223.6229 H   0  0  0  0  0  0  0  0  0  0  0  0
  141.3631   80.9394  224.7622 H   0  0  0  0  0  0  0  0  0  0  0  0
  142.9226   78.9105  224.3599 H   0  0  0  0  0  0  0  0  0  0  0  0
  142.7410   78.2380  221.9370 H   0  0  0  0  0  0  0  0  0  0  0  0
  140.5840   78.1357  224.4510 H   0  0  0  0  0  0  0  0  0  0  0  0
  141.9250   77.2000  222.3490 H   0  0  0  0  0  0  0  0  0  0  0  0
  139.5593   79.1499  221.9235 H   0  0  0  0  0  0  0  0  0  0  0  0
  137.9235   79.3889  223.4662 H   0  0  0  0  0  0  0  0  0  0  0  0
  139.0855   79.3680  224.8236 H   0  0  0  0  0  0  0  0  0  0  0  0
  138.7540   81.6130  223.0680 H   0  0  0  0  0  0  0  0  0  0  0  0
  142.7228   78.8489  217.4067 H   0  0  0  0  0  0  0  0  0  0  0  0
  143.8018   76.6736  216.8017 H   0  0  0  0  0  0  0  0  0  0  0  0
  144.3033   74.4841  217.4325 H   0  0  0  0  0  0  0  0  0  0  0  0
  144.2268   72.5983  219.0473 H   0  0  0  0  0  0  0  0  0  0  0  0
  143.0857   72.9212  221.2127 H   0  0  0  0  0  0  0  0  0  0  0  0
  142.0165   75.0913  221.8093 H   0  0  0  0  0  0  0  0  0  0  0  0
  1  2  2  0
  2  3  1  0
  3  4  1  0
  4  5  1  0
  5  6  2  0
  5  7  1  0
  7  8  1  0
  8  9  1  0
  9 10  1  0
  9 11  1  0
 11 12  1  0
 11 13  1  0
 13 14  1  0
 14 15  1  0
  2 16  1  0
 16 17  2  0
 17 18  1  0
 18 19  2  0
 19 20  1  0
 20 21  2  0
 21 22  1  0
 22 23  2  0
 23 24  1  0
 24 25  2  0
 13  7  1  0
 25 16  1  0
 24 19  1  0
  3 26  1  0
  4 27  1  0
  4 28  1  0
  8 29  1  0
  8 30  1  0
  9 31  1  1
 10 32  1  0
 11 33  1  1
 12 34  1  0
 13 35  1  6
 14 36  1  0
 14 37  1  0
 15 38  1  0
 17 39  1  0
 18 40  1  0
 20 41  1  0
 21 42  1  0
 22 43  1  0
 23 44  1  0
M  END
>  <smiles>  (23) 
O=C(NCC(=O)N1C[C@H](O)[C@H](O)[C@H]1CO)c1ccc2ccccc2n1

>  <score_type>  (23) 
oracle

>  <origin>  (23) 
autodockgpu

>  <m_score__min__energy>  (23) 
-7.2400000000000002

>  <m_primary>  (23) 
energy

>  <rmsd>  (23) 
8.68384441651493

>  <m_score__min__rmsd>  (23) 
8.68384441651493

>  <meeko>  (23) 
{"free_energy": -4.89, "intermolecular_energy": -7.28, "internal_energy": -5.52, "cluster_size": 10, "cluster_id": 5, "rank_in_cluster": 6}

>  <energy>  (23) 
-6.2

>  <cluster_rmsd>  (23) 
0.75

>  <cluster>  (23) 
3

$$$$

     RDKit          3D

 44 46  0  0  0  0  0  0  0  0999 V2000
  140.6760   71.1690  221.7650 O   0  0  0  0  0  0  0  0  0  0  0  0
  139.7780   71.0190  222.6430 C   0  0  0  0  0  0  0  0  0  0  0  0
  138.4340   71.0950  222.1880 N   0  0  0  0  0  0  0  0  0  0  0  0
  138.2590   71.3390  220.7490 C   0  0  0  0  0  0  0  0  0  0  0  0
  138.2840   70.0580  220.0370 C   0  0  0  0  0  0  0  0  0  0  0  0
  138.4350   70.0970  218.7750 O   0  0  0  0  0  0  0  0  0  0  0  0
  138.1540   68.7830  220.6200 N   0  0  0  0  0  0  0  0  0  0  0  0
  136.8690   68.1100  220.8740 C   0  0  0  0  0  0  0  0  0  0  0  0
  137.1130   67.7220  222.3320 C   0  0  2  0  0  0  0  0  0  0  0  0
  137.2220   68.8720  223.1150 O   0  0  0  0  0  0  0  0  0  0  0  0
  138.4820   67.1000  222.2510 C   0  0  2  0  0  0  0  0  0  0  0  0
  139.1980   67.2360  223.4340 O   0  0  0  0  0  0  0  0  0  0  0  0
  139.1340   67.8360  221.1060 C   0  0  1  0  0  0  0  0  0  0  0  0
  139.4620   66.8510  219.9940 C   0  0  0  0  0  0  0  0  0  0  0  0
  139.9480   67.5650  218.9130 O   0  0  0  0  0  0  0  0  0  0  0  0
  140.0890   70.7810  224.0470 C   0  0  0  0  0  0  0  0  0  0  0  0
  140.7020   71.7960  224.7460 C   0  0  0  0  0  0  0  0  0  0  0  0
  141.0480   71.6900  226.0850 C   0  0  0  0  0  0  0  0  0  0  0  0
  140.7270   70.4690  226.6840 C   0  0  0  0  0  0  0  0  0  0  0  0
  141.0580   70.3350  228.0100 C   0  0  0  0  0  0  0  0  0  0  0  0
  140.7760   69.1670  228.6690 C   0  0  0  0  0  0  0  0  0  0  0  0
  140.1640   68.1530  227.9710 C   0  0  0  0  0  0  0  0  0  0  0  0
  139.8220   68.2740  226.6230 C   0  0  0  0  0  0  0  0  0  0  0  0
  140.1140   69.4500  225.9870 C   0  0  0  0  0  0  0  0  0  0  0  0
  139.8130   69.6380  224.6880 N   0  0  0  0  0  0  0  0  0  0  0  0
  137.6220   70.9840  222.8350 H   0  0  0  0  0  0  0  0  0  0  0  0
  137.2943   71.8380  220.5750 H   0  0  0  0  0  0  0  0  0  0  0  0
  139.0720   71.9823  220.3814 H   0  0  0  0  0  0  0  0  0  0  0  0
  136.0130   68.7918  220.7624 H   0  0  0  0  0  0  0  0  0  0  0  0
  136.6144   67.2851  220.1923 H   0  0  0  0  0  0  0  0  0  0  0  0
  136.3226   67.0870  222.7586 H   0  0  0  0  0  0  0  0  0  0  0  0
  138.1620   69.0670  223.3590 H   0  0  0  0  0  0  0  0  0  0  0  0
  138.4404   66.0124  222.0914 H   0  0  0  0  0  0  0  0  0  0  0  0
  139.1400   68.1210  223.8280 H   0  0  0  0  0  0  0  0  0  0  0  0
  140.0610   68.3345  221.4257 H   0  0  0  0  0  0  0  0  0  0  0  0
  140.2235   66.1373  220.3415 H   0  0  0  0  0  0  0  0  0  0  0  0
  138.5607   66.2907  219.7048 H   0  0  0  0  0  0  0  0  0  0  0  0
  139.3830   68.3580  218.7410 H   0  0  0  0  0  0  0  0  0  0  0  0
  140.9279   72.7344  224.2184 H   0  0  0  0  0  0  0  0  0  0  0  0
  141.5388   72.5067  226.6347 H   0  0  0  0  0  0  0  0  0  0  0  0
  141.5485   71.1635  228.5421 H   0  0  0  0  0  0  0  0  0  0  0  0
  141.0333   69.0437  229.7314 H   0  0  0  0  0  0  0  0  0  0  0  0
  139.9356   67.2124  228.4935 H   0  0  0  0  0  0  0  0  0  0  0  0
  139.3318   67.4477  226.0873 H   0  0  0  0  0  0  0  0  0  0  0  0
  1  2  2  0
  2  3  1  0
  3  4  1  0
  4  5  1  0
  5  6  2  0
  5  7  1  0
  7  8  1  0
  8  9  1  0
  9 10  1  0
  9 11  1  0
 11 12  1  0
 11 13  1  0
 13 14  1  0
 14 15  1  0
  2 16  1  0
 16 17  2  0
 17 18  1  0
 18 19  2  0
 19 20  1  0
 20 21  2  0
 21 22  1  0
 22 23  2  0
 23 24  1  0
 24 25  2  0
 13  7  1  0
 25 16  1  0
 24 19  1  0
  3 26  1  0
  4 27  1  0
  4 28  1  0
  8 29  1  0
  8 30  1  0
  9 31  1  1
 10 32  1  0
 11 33  1  6
 12 34  1  0
 13 35  1  1
 14 36  1  0
 14 37  1  0
 15 38  1  0
 17 39  1  0
 18 40  1  0
 20 41  1  0
 21 42  1  0
 22 43  1  0
 23 44  1  0
M  END
>  <smiles>  (24) 
O=C(NCC(=O)N1C[C@H](O)[C@H](O)[C@H]1CO)c1ccc2ccccc2n1

>  <score_type>  (24) 
oracle

>  <origin>  (24) 
autodockgpu

>  <m_score__min__energy>  (24) 
-7.2400000000000002

>  <m_primary>  (24) 
energy

>  <rmsd>  (24) 
6.52034959799635

>  <m_score__min__rmsd>  (24) 
6.52034959799635

>  <meeko>  (24) 
{"free_energy": -3.8, "intermolecular_energy": -6.19, "internal_energy": -5.61, "cluster_size": 1, "cluster_id": 7, "rank_in_cluster": 1}

>  <energy>  (24) 
-4.94

>  <cluster_rmsd>  (24) 
1.71

>  <cluster>  (24) 
3

$$$$

     RDKit          3D

 44 46  0  0  0  0  0  0  0  0999 V2000
  140.2970   79.7210  219.0380 O   0  0  0  0  0  0  0  0  0  0  0  0
  141.4620   79.4410  219.4400 C   0  0  0  0  0  0  0  0  0  0  0  0
  142.1640   80.4810  220.1080 N   0  0  0  0  0  0  0  0  0  0  0  0
  141.4420   81.7540  220.2450 C   0  0  0  0  0  0  0  0  0  0  0  0
  140.9460   81.8810  221.6190 C   0  0  0  0  0  0  0  0  0  0  0  0
  140.4560   83.0050  221.9580 O   0  0  0  0  0  0  0  0  0  0  0  0
  140.9620   80.8740  222.6020 N   0  0  0  0  0  0  0  0  0  0  0  0
  141.9560   80.7840  223.6860 C   0  0  0  0  0  0  0  0  0  0  0  0
  142.3340   79.3140  223.5090 C   0  0  2  0  0  0  0  0  0  0  0  0
  142.9510   79.1310  222.2700 O   0  0  0  0  0  0  0  0  0  0  0  0
  140.9800   78.6610  223.4410 C   0  0  2  0  0  0  0  0  0  0  0  0
  140.9890   77.4980  222.6790 O   0  0  0  0  0  0  0  0  0  0  0  0
  140.1060   79.7310  222.8310 C   0  0  1  0  0  0  0  0  0  0  0  0
  139.0190   80.1190  223.8210 C   0  0  0  0  0  0  0  0  0  0  0  0
  138.3710   81.2410  223.3350 O   0  0  0  0  0  0  0  0  0  0  0  0
  142.0660   78.1300  219.2390 C   0  0  0  0  0  0  0  0  0  0  0  0
  142.7400   77.9120  218.0590 C   0  0  0  0  0  0  0  0  0  0  0  0
  143.3550   76.7080  217.7520 C   0  0  0  0  0  0  0  0  0  0  0  0
  143.2460   75.7190  218.7330 C   0  0  0  0  0  0  0  0  0  0  0  0
  143.8460   74.5160  218.4560 C   0  0  0  0  0  0  0  0  0  0  0  0
  143.7820   73.4960  219.3690 C   0  0  0  0  0  0  0  0  0  0  0  0
  143.1090   73.7140  220.5490 C   0  0  0  0  0  0  0  0  0  0  0  0
  142.4940   74.9310  220.8440 C   0  0  0  0  0  0  0  0  0  0  0  0
  142.5710   75.9340  219.9160 C   0  0  0  0  0  0  0  0  0  0  0  0
  142.0020   77.1350  220.1330 N   0  0  0  0  0  0  0  0  0  0  0  0
  143.1310   80.3500  220.4770 H   0  0  0  0  0  0  0  0  0  0  0  0
  142.1222   82.5888  220.0207 H   0  0  0  0  0  0  0  0  0  0  0  0
  140.5956   81.7765  219.5428 H   0  0  0  0  0  0  0  0  0  0  0  0
  142.8113   81.4563  223.5235 H   0  0  0  0  0  0  0  0  0  0  0  0
  141.6049   81.0743  224.6873 H   0  0  0  0  0  0  0  0  0  0  0  0
  143.0087   78.9343  224.2904 H   0  0  0  0  0  0  0  0  0  0  0  0
  142.7210   78.2560  221.8680 H   0  0  0  0  0  0  0  0  0  0  0  0
  140.6238   78.3282  224.4271 H   0  0  0  0  0  0  0  0  0  0  0  0
  141.8550   77.2880  222.2960 H   0  0  0  0  0  0  0  0  0  0  0  0
  139.6334   79.3815  221.9012 H   0  0  0  0  0  0  0  0  0  0  0  0
  138.3015   79.2923  223.9289 H   0  0  0  0  0  0  0  0  0  0  0  0
  139.4608   80.3324  224.8055 H   0  0  0  0  0  0  0  0  0  0  0  0
  139.0280   81.9180  223.0400 H   0  0  0  0  0  0  0  0  0  0  0  0
  142.7932   78.7305  217.3260 H   0  0  0  0  0  0  0  0  0  0  0  0
  143.8898   76.5433  216.8050 H   0  0  0  0  0  0  0  0  0  0  0  0
  144.3769   74.3710  217.5036 H   0  0  0  0  0  0  0  0  0  0  0  0
  144.2576   72.5257  219.1632 H   0  0  0  0  0  0  0  0  0  0  0  0
  143.0538   72.8995  221.2863 H   0  0  0  0  0  0  0  0  0  0  0  0
  141.9624   75.0802  221.7954 H   0  0  0  0  0  0  0  0  0  0  0  0
  1  2  2  0
  2  3  1  0
  3  4  1  0
  4  5  1  0
  5  6  2  0
  5  7  1  0
  7  8  1  0
  8  9  1  0
  9 10  1  0
  9 11  1  0
 11 12  1  0
 11 13  1  0
 13 14  1  0
 14 15  1  0
  2 16  1  0
 16 17  2  0
 17 18  1  0
 18 19  2  0
 19 20  1  0
 20 21  2  0
 21 22  1  0
 22 23  2  0
 23 24  1  0
 24 25  2  0
 13  7  1  0
 25 16  1  0
 24 19  1  0
  3 26  1  0
  4 27  1  0
  4 28  1  0
  8 29  1  0
  8 30  1  0
  9 31  1  1
 10 32  1  0
 11 33  1  1
 12 34  1  0
 13 35  1  6
 14 36  1  0
 14 37  1  0
 15 38  1  0
 17 39  1  0
 18 40  1  0
 20 41  1  0
 21 42  1  0
 22 43  1  0
 23 44  1  0
M  END
>  <smiles>  (25) 
O=C(NCC(=O)N1C[C@H](O)[C@H](O)[C@H]1CO)c1ccc2ccccc2n1

>  <score_type>  (25) 
oracle

>  <origin>  (25) 
autodockgpu

>  <m_score__min__energy>  (25) 
-7.2400000000000002

>  <m_primary>  (25) 
energy

>  <rmsd>  (25) 
8.684660694846482

>  <m_score__min__rmsd>  (25) 
8.684660694846482

>  <meeko>  (25) 
{"free_energy": -4.87, "intermolecular_energy": -7.25, "internal_energy": -5.49, "cluster_size": 10, "cluster_id": 5, "rank_in_cluster": 7}

>  <energy>  (25) 
-4.84

>  <cluster_rmsd>  (25) 
1.76

>  <cluster>  (25) 
3

$$$$

     RDKit          3D

 44 46  0  0  0  0  0  0  0  0999 V2000
  137.4270   77.0820  220.9460 O   0  0  0  0  0  0  0  0  0  0  0  0
  138.2710   76.8860  221.8670 C   0  0  0  0  0  0  0  0  0  0  0  0
  138.3570   75.5590  222.3680 N   0  0  0  0  0  0  0  0  0  0  0  0
  137.4500   74.5810  221.7500 C   0  0  0  0  0  0  0  0  0  0  0  0
  138.1970   73.7820  220.7750 C   0  0  0  0  0  0  0  0  0  0  0  0
  137.5910   72.7980  220.2430 O   0  0  0  0  0  0  0  0  0  0  0  0
  139.5280   73.9990  220.3690 N   0  0  0  0  0  0  0  0  0  0  0  0
  140.6700   73.1650  220.7810 C   0  0  0  0  0  0  0  0  0  0  0  0
  141.6080   74.2870  221.2230 C   0  0  2  0  0  0  0  0  0  0  0  0
  141.0670   74.9470  222.3280 O   0  0  0  0  0  0  0  0  0  0  0  0
  141.5250   75.2270  220.0500 C   0  0  2  0  0  0  0  0  0  0  0  0
  141.7380   76.5520  220.4160 O   0  0  0  0  0  0  0  0  0  0  0  0
  140.1290   75.0030  219.5200 C   0  0  1  0  0  0  0  0  0  0  0  0
  140.2100   74.4630  218.1000 C   0  0  0  0  0  0  0  0  0  0  0  0
  139.0070   73.8500  217.8010 O   0  0  0  0  0  0  0  0  0  0  0  0
  139.1150   77.9500  222.3940 C   0  0  0  0  0  0  0  0  0  0  0  0
  138.5010   78.9640  223.0930 C   0  0  0  0  0  0  0  0  0  0  0  0
  139.1960   80.0310  223.6430 C   0  0  0  0  0  0  0  0  0  0  0  0
  140.5780   80.0060  223.4380 C   0  0  0  0  0  0  0  0  0  0  0  0
  141.2920   81.0510  223.9720 C   0  0  0  0  0  0  0  0  0  0  0  0
  142.6520   81.0980  223.8130 C   0  0  0  0  0  0  0  0  0  0  0  0
  143.2660   80.0840  223.1150 C   0  0  0  0  0  0  0  0  0  0  0  0
  142.5540   79.0170  222.5670 C   0  0  0  0  0  0  0  0  0  0  0  0
  141.1960   78.9920  222.7390 C   0  0  0  0  0  0  0  0  0  0  0  0
  140.4440   77.9940  222.2380 N   0  0  0  0  0  0  0  0  0  0  0  0
  139.0220   75.2950  223.1280 H   0  0  0  0  0  0  0  0  0  0  0  0
  137.0357   73.9212  222.5265 H   0  0  0  0  0  0  0  0  0  0  0  0
  136.6271   75.1074  221.2443 H   0  0  0  0  0  0  0  0  0  0  0  0
  140.4132   72.4871  221.6083 H   0  0  0  0  0  0  0  0  0  0  0  0
  141.0657   72.4791  220.0175 H   0  0  0  0  0  0  0  0  0  0  0  0
  142.6178   73.9404  221.4878 H   0  0  0  0  0  0  0  0  0  0  0  0
  140.8990   75.9040  222.1420 H   0  0  0  0  0  0  0  0  0  0  0  0
  142.3039   75.0315  219.2983 H   0  0  0  0  0  0  0  0  0  0  0  0
  141.9360   76.6710  221.3580 H   0  0  0  0  0  0  0  0  0  0  0  0
  139.5468   75.9363  219.5149 H   0  0  0  0  0  0  0  0  0  0  0  0
  140.3915   75.2895  217.3972 H   0  0  0  0  0  0  0  0  0  0  0  0
  141.0356   73.7410  218.0148 H   0  0  0  0  0  0  0  0  0  0  0  0
  138.7810   73.1790  218.4910 H   0  0  0  0  0  0  0  0  0  0  0  0
  137.4092   78.9266  223.2214 H   0  0  0  0  0  0  0  0  0  0  0  0
  138.6961   80.8374  224.1995 H   0  0  0  0  0  0  0  0  0  0  0  0
  140.7734   81.8476  224.5256 H   0  0  0  0  0  0  0  0  0  0  0  0
  143.2394   81.9274  224.2338 H   0  0  0  0  0  0  0  0  0  0  0  0
  144.3578   80.1157  222.9843 H   0  0  0  0  0  0  0  0  0  0  0  0
  143.0689   78.2186  222.0126 H   0  0  0  0  0  0  0  0  0  0  0  0
  1  2  2  0
  2  3  1  0
  3  4  1  0
  4  5  1  0
  5  6  2  0
  5  7  1  0
  7  8  1  0
  8  9  1  0
  9 10  1  0
  9 11  1  0
 11 12  1  0
 11 13  1  0
 13 14  1  0
 14 15  1  0
  2 16  1  0
 16 17  2  0
 17 18  1  0
 18 19  2  0
 19 20  1  0
 20 21  2  0
 21 22  1  0
 22 23  2  0
 23 24  1  0
 24 25  2  0
 13  7  1  0
 25 16  1  0
 24 19  1  0
  3 26  1  0
  4 27  1  0
  4 28  1  0
  8 29  1  0
  8 30  1  0
  9 31  1  1
 10 32  1  0
 11 33  1  6
 12 34  1  0
 13 35  1  6
 14 36  1  0
 14 37  1  0
 15 38  1  0
 17 39  1  0
 18 40  1  0
 20 41  1  0
 21 42  1  0
 22 43  1  0
 23 44  1  0
M  END
>  <smiles>  (26) 
O=C(NCC(=O)N1C[C@H](O)[C@H](O)[C@H]1CO)c1ccc2ccccc2n1

>  <score_type>  (26) 
oracle

>  <origin>  (26) 
autodockgpu

>  <m_score__min__energy>  (26) 
-7.2400000000000002

>  <m_primary>  (26) 
energy

>  <rmsd>  (26) 
7.362788078116756

>  <m_score__min__rmsd>  (26) 
7.362788078116756

>  <meeko>  (26) 
{"free_energy": -4.27, "intermolecular_energy": -6.65, "internal_energy": -5.58, "cluster_size": 12, "cluster_id": 6, "rank_in_cluster": 12}

>  <energy>  (26) 
-5.82

>  <cluster_rmsd>  (26) 
0.0

>  <cluster>  (26) 
4

$$$$

     RDKit          3D

 44 46  0  0  0  0  0  0  0  0999 V2000
  139.8050   73.6900  222.3400 O   0  0  0  0  0  0  0  0  0  0  0  0
  140.0730   72.4580  222.2430 C   0  0  0  0  0  0  0  0  0  0  0  0
  140.3530   71.9760  220.9360 N   0  0  0  0  0  0  0  0  0  0  0  0
  140.2940   72.9760  219.8600 C   0  0  0  0  0  0  0  0  0  0  0  0
  141.5520   72.9490  219.1080 C   0  0  0  0  0  0  0  0  0  0  0  0
  141.4840   73.1480  217.8530 O   0  0  0  0  0  0  0  0  0  0  0  0
  142.8340   72.7210  219.6440 N   0  0  0  0  0  0  0  0  0  0  0  0
  143.3240   73.3030  220.9050 C   0  0  0  0  0  0  0  0  0  0  0  0
  144.6580   73.8400  220.3900 C   0  0  2  0  0  0  0  0  0  0  0  0
  144.4320   74.8450  219.4480 O   0  0  0  0  0  0  0  0  0  0  0  0
  145.1990   72.6440  219.6520 C   0  0  2  0  0  0  0  0  0  0  0  0
  146.0320   73.0020  218.5990 O   0  0  0  0  0  0  0  0  0  0  0  0
  143.9540   71.9360  219.1740 C   0  0  1  0  0  0  0  0  0  0  0  0
  143.8860   70.5530  219.8050 C   0  0  0  0  0  0  0  0  0  0  0  0
  142.5630   70.2770  220.1000 O   0  0  0  0  0  0  0  0  0  0  0  0
  140.0990   71.5700  223.3980 C   0  0  0  0  0  0  0  0  0  0  0  0
  139.6120   70.2930  223.2320 C   0  0  0  0  0  0  0  0  0  0  0  0
  139.5830   69.3560  224.2540 C   0  0  0  0  0  0  0  0  0  0  0  0
  140.0890   69.8010  225.4790 C   0  0  0  0  0  0  0  0  0  0  0  0
  140.0720   68.8940  226.5100 C   0  0  0  0  0  0  0  0  0  0  0  0
  140.5500   69.2540  227.7420 C   0  0  0  0  0  0  0  0  0  0  0  0
  141.0370   70.5300  227.9090 C   0  0  0  0  0  0  0  0  0  0  0  0
  141.0600   71.4630  226.8700 C   0  0  0  0  0  0  0  0  0  0  0  0
  140.5760   71.0780  225.6490 C   0  0  0  0  0  0  0  0  0  0  0  0
  140.5670   71.9240  224.6020 N   0  0  0  0  0  0  0  0  0  0  0  0
  140.5850   70.9760  220.7510 H   0  0  0  0  0  0  0  0  0  0  0  0
  139.4571   72.7420  219.1856 H   0  0  0  0  0  0  0  0  0  0  0  0
  140.1432   73.9761  220.2925 H   0  0  0  0  0  0  0  0  0  0  0  0
  142.6681   74.1043  221.2762 H   0  0  0  0  0  0  0  0  0  0  0  0
  143.3797   72.6167  221.7628 H   0  0  0  0  0  0  0  0  0  0  0  0
  145.3044   74.2471  221.1815 H   0  0  0  0  0  0  0  0  0  0  0  0
  144.8430   74.6330  218.5730 H   0  0  0  0  0  0  0  0  0  0  0  0
  145.8346   72.0099  220.2876 H   0  0  0  0  0  0  0  0  0  0  0  0
  146.1910   73.9560  218.5320 H   0  0  0  0  0  0  0  0  0  0  0  0
  143.9483   71.8294  218.0792 H   0  0  0  0  0  0  0  0  0  0  0  0
  144.2748   69.8028  219.1006 H   0  0  0  0  0  0  0  0  0  0  0  0
  144.4938   70.5232  220.7213 H   0  0  0  0  0  0  0  0  0  0  0  0
  141.9730   70.6040  219.3780 H   0  0  0  0  0  0  0  0  0  0  0  0
  139.2281   70.0025  222.2429 H   0  0  0  0  0  0  0  0  0  0  0  0
  139.1909   68.3382  224.1114 H   0  0  0  0  0  0  0  0  0  0  0  0
  139.6755   67.8810  226.3468 H   0  0  0  0  0  0  0  0  0  0  0  0
  140.5447   68.5397  228.5785 H   0  0  0  0  0  0  0  0  0  0  0  0
  141.4220   70.8258  228.8961 H   0  0  0  0  0  0  0  0  0  0  0  0
  141.4554   72.4772  227.0283 H   0  0  0  0  0  0  0  0  0  0  0  0
  1  2  2  0
  2  3  1  0
  3  4  1  0
  4  5  1  0
  5  6  2  0
  5  7  1  0
  7  8  1  0
  8  9  1  0
  9 10  1  0
  9 11  1  0
 11 12  1  0
 11 13  1  0
 13 14  1  0
 14 15  1  0
  2 16  1  0
 16 17  2  0
 17 18  1  0
 18 19  2  0
 19 20  1  0
 20 21  2  0
 21 22  1  0
 22 23  2  0
 23 24  1  0
 24 25  2  0
 13  7  1  0
 25 16  1  0
 24 19  1  0
  3 26  1  0
  4 27  1  0
  4 28  1  0
  8 29  1  0
  8 30  1  0
  9 31  1  1
 10 32  1  0
 11 33  1  1
 12 34  1  0
 13 35  1  6
 14 36  1  0
 14 37  1  0
 15 38  1  0
 17 39  1  0
 18 40  1  0
 20 41  1  0
 21 42  1  0
 22 43  1  0
 23 44  1  0
M  END
>  <smiles>  (27) 
O=C(NCC(=O)N1C[C@H](O)[C@H](O)[C@H]1CO)c1ccc2ccccc2n1

>  <score_type>  (27) 
oracle

>  <origin>  (27) 
autodockgpu

>  <m_score__min__energy>  (27) 
-7.2400000000000002

>  <m_primary>  (27) 
energy

>  <rmsd>  (27) 
4.06310943745128

>  <m_score__min__rmsd>  (27) 
4.06310943745128

>  <meeko>  (27) 
{"free_energy": -6.44, "intermolecular_energy": -8.83, "internal_energy": -3.27, "cluster_size": 12, "cluster_id": 1, "rank_in_cluster": 10}

>  <energy>  (27) 
-5.2

>  <cluster_rmsd>  (27) 
1.54

>  <cluster>  (27) 
4

$$$$

     RDKit          3D

 44 46  0  0  0  0  0  0  0  0999 V2000
  137.7880   76.6790  220.8030 O   0  0  0  0  0  0  0  0  0  0  0  0
  138.6250   76.5740  221.7440 C   0  0  0  0  0  0  0  0  0  0  0  0
  138.8260   75.2670  222.2660 N   0  0  0  0  0  0  0  0  0  0  0  0
  138.0300   74.2000  221.6410 C   0  0  0  0  0  0  0  0  0  0  0  0
  138.6870   73.7720  220.4020 C   0  0  0  0  0  0  0  0  0  0  0  0
  138.0000   73.0740  219.5910 O   0  0  0  0  0  0  0  0  0  0  0  0
  140.0120   74.0600  220.0240 N   0  0  0  0  0  0  0  0  0  0  0  0
  141.1900   73.2970  220.4710 C   0  0  0  0  0  0  0  0  0  0  0  0
  142.0520   74.4750  220.9210 C   0  0  2  0  0  0  0  0  0  0  0  0
  141.4500   75.1150  222.0050 O   0  0  0  0  0  0  0  0  0  0  0  0
  141.9430   75.3970  219.7350 C   0  0  2  0  0  0  0  0  0  0  0  0
  142.0720   76.7350  220.0900 O   0  0  0  0  0  0  0  0  0  0  0  0
  140.5750   75.0880  219.1760 C   0  0  1  0  0  0  0  0  0  0  0  0
  140.7190   74.5390  217.7650 C   0  0  0  0  0  0  0  0  0  0  0  0
  140.0180   73.3490  217.6900 O   0  0  0  0  0  0  0  0  0  0  0  0
  139.3530   77.7190  222.2750 C   0  0  0  0  0  0  0  0  0  0  0  0
  138.6240   78.7030  222.9050 C   0  0  0  0  0  0  0  0  0  0  0  0
  139.2010   79.8390  223.4500 C   0  0  0  0  0  0  0  0  0  0  0  0
  140.5900   79.9200  223.3180 C   0  0  0  0  0  0  0  0  0  0  0  0
  141.1890   81.0350  223.8490 C   0  0  0  0  0  0  0  0  0  0  0  0
  142.5480   81.1880  223.7590 C   0  0  0  0  0  0  0  0  0  0  0  0
  143.2770   80.2050  223.1310 C   0  0  0  0  0  0  0  0  0  0  0  0
  142.6820   79.0660  222.5860 C   0  0  0  0  0  0  0  0  0  0  0  0
  141.3230   78.9370  222.6880 C   0  0  0  0  0  0  0  0  0  0  0  0
  140.6810   77.8660  222.1860 N   0  0  0  0  0  0  0  0  0  0  0  0
  139.4950   75.0760  223.0430 H   0  0  0  0  0  0  0  0  0  0  0  0
  137.9529   73.3464  222.3305 H   0  0  0  0  0  0  0  0  0  0  0  0
  137.0213   74.5756  221.4141 H   0  0  0  0  0  0  0  0  0  0  0  0
  140.9533   72.6139  221.3000 H   0  0  0  0  0  0  0  0  0  0  0  0
  141.6417   72.6272  219.7244 H   0  0  0  0  0  0  0  0  0  0  0  0
  143.0732   74.1886  221.2128 H   0  0  0  0  0  0  0  0  0  0  0  0
  141.8130   76.0250  222.1470 H   0  0  0  0  0  0  0  0  0  0  0  0
  142.7490   75.2386  219.0034 H   0  0  0  0  0  0  0  0  0  0  0  0
  142.2270   76.8760  221.0370 H   0  0  0  0  0  0  0  0  0  0  0  0
  139.9411   75.9865  219.1463 H   0  0  0  0  0  0  0  0  0  0  0  0
  140.3086   75.2590  217.0417 H   0  0  0  0  0  0  0  0  0  0  0  0
  141.7802   74.3700  217.5298 H   0  0  0  0  0  0  0  0  0  0  0  0
  139.1030   73.4640  218.0470 H   0  0  0  0  0  0  0  0  0  0  0  0
  137.5332   78.5816  222.9790 H   0  0  0  0  0  0  0  0  0  0  0  0
  138.6091   80.6198  223.9499 H   0  0  0  0  0  0  0  0  0  0  0  0
  140.5795   81.8042  224.3458 H   0  0  0  0  0  0  0  0  0  0  0  0
  143.0439   82.0756  224.1789 H   0  0  0  0  0  0  0  0  0  0  0  0
  144.3683   80.3207  223.0556 H   0  0  0  0  0  0  0  0  0  0  0  0
  143.2878   78.2942  222.0888 H   0  0  0  0  0  0  0  0  0  0  0  0
  1  2  2  0
  2  3  1  0
  3  4  1  0
  4  5  1  0
  5  6  2  0
  5  7  1  0
  7  8  1  0
  8  9  1  0
  9 10  1  0
  9 11  1  0
 11 12  1  0
 11 13  1  0
 13 14  1  0
 14 15  1  0
  2 16  1  0
 16 17  2  0
 17 18  1  0
 18 19  2  0
 19 20  1  0
 20 21  2  0
 21 22  1  0
 22 23  2  0
 23 24  1  0
 24 25  2  0
 13  7  1  0
 25 16  1  0
 24 19  1  0
  3 26  1  0
  4 27  1  0
  4 28  1  0
  8 29  1  0
  8 30  1  0
  9 31  1  1
 10 32  1  0
 11 33  1  6
 12 34  1  0
 13 35  1  6
 14 36  1  0
 14 37  1  0
 15 38  1  0
 17 39  1  0
 18 40  1  0
 20 41  1  0
 21 42  1  0
 22 43  1  0
 23 44  1  0
M  END
>  <smiles>  (28) 
O=C(NCC(=O)N1C[C@H](O)[C@H](O)[C@H]1CO)c1ccc2ccccc2n1

>  <score_type>  (28) 
oracle

>  <origin>  (28) 
autodockgpu

>  <m_score__min__energy>  (28) 
-7.2400000000000002

>  <m_primary>  (28) 
energy

>  <rmsd>  (28) 
7.271229685051996

>  <m_score__min__rmsd>  (28) 
7.271229685051996

>  <meeko>  (28) 
{"free_energy": -4.7, "intermolecular_energy": -7.08, "internal_energy": -5.54, "cluster_size": 12, "cluster_id": 6, "rank_in_cluster": 4}

>  <energy>  (28) 
-4.92

>  <cluster_rmsd>  (28) 
0.0

>  <cluster>  (28) 
5

$$$$

     RDKit          3D

 44 46  0  0  0  0  0  0  0  0999 V2000
  139.6900   73.3770  222.3900 O   0  0  0  0  0  0  0  0  0  0  0  0
  140.2640   72.2570  222.5130 C   0  0  0  0  0  0  0  0  0  0  0  0
  140.9830   71.7900  221.3790 N   0  0  0  0  0  0  0  0  0  0  0  0
  140.9660   72.6730  220.2030 C   0  0  0  0  0  0  0  0  0  0  0  0
  141.7430   73.8800  220.4970 C   0  0  0  0  0  0  0  0  0  0  0  0
  142.9170   73.7180  220.9590 O   0  0  0  0  0  0  0  0  0  0  0  0
  141.3120   75.2080  220.3170 N   0  0  0  0  0  0  0  0  0  0  0  0
  141.1540   75.8620  219.0070 C   0  0  0  0  0  0  0  0  0  0  0  0
  141.9290   77.1430  219.3100 C   0  0  2  0  0  0  0  0  0  0  0  0
  143.2720   76.8390  219.5410 O   0  0  0  0  0  0  0  0  0  0  0  0
  141.3260   77.5540  220.6270 C   0  0  2  0  0  0  0  0  0  0  0  0
  142.2180   78.2690  221.4190 O   0  0  0  0  0  0  0  0  0  0  0  0
  140.9350   76.2400  221.2590 C   0  0  1  0  0  0  0  0  0  0  0  0
  139.4270   76.2030  221.4540 C   0  0  0  0  0  0  0  0  0  0  0  0
  139.1690   75.8070  222.7540 O   0  0  0  0  0  0  0  0  0  0  0  0
  140.2030   71.4770  223.7420 C   0  0  0  0  0  0  0  0  0  0  0  0
  139.6010   70.2410  223.6840 C   0  0  0  0  0  0  0  0  0  0  0  0
  139.4810   69.4060  224.7850 C   0  0  0  0  0  0  0  0  0  0  0  0
  140.0200   69.9100  225.9720 C   0  0  0  0  0  0  0  0  0  0  0  0
  139.9150   69.1050  227.0790 C   0  0  0  0  0  0  0  0  0  0  0  0
  140.4190   69.5300  228.2810 C   0  0  0  0  0  0  0  0  0  0  0  0
  141.0200   70.7650  228.3390 C   0  0  0  0  0  0  0  0  0  0  0  0
  141.1340   71.5950  227.2220 C   0  0  0  0  0  0  0  0  0  0  0  0
  140.6220   71.1480  226.0340 C   0  0  0  0  0  0  0  0  0  0  0  0
  140.6960   71.8940  224.9150 N   0  0  0  0  0  0  0  0  0  0  0  0
  141.4900   70.8780  221.3800 H   0  0  0  0  0  0  0  0  0  0  0  0
  141.4099   72.1497  219.3433 H   0  0  0  0  0  0  0  0  0  0  0  0
  139.9288   72.9499  219.9631 H   0  0  0  0  0  0  0  0  0  0  0  0
  141.6128   75.2806  218.1937 H   0  0  0  0  0  0  0  0  0  0  0  0
  140.1197   75.9963  218.6576 H   0  0  0  0  0  0  0  0  0  0  0  0
  141.8774   77.8915  218.5056 H   0  0  0  0  0  0  0  0  0  0  0  0
  143.7110   77.5150  220.1160 H   0  0  0  0  0  0  0  0  0  0  0  0
  140.4741   78.2388  220.5035 H   0  0  0  0  0  0  0  0  0  0  0  0
  143.1210   77.9150  221.4090 H   0  0  0  0  0  0  0  0  0  0  0  0
  141.4241   76.1021  222.2346 H   0  0  0  0  0  0  0  0  0  0  0  0
  139.0042   77.2032  221.2785 H   0  0  0  0  0  0  0  0  0  0  0  0
  138.9692   75.4984  220.7441 H   0  0  0  0  0  0  0  0  0  0  0  0
  138.9190   74.8510  222.7800 H   0  0  0  0  0  0  0  0  0  0  0  0
  139.1962   69.8994  222.7199 H   0  0  0  0  0  0  0  0  0  0  0  0
  138.9972   68.4197  224.7282 H   0  0  0  0  0  0  0  0  0  0  0  0
  139.4278   68.1218  227.0018 H   0  0  0  0  0  0  0  0  0  0  0  0
  140.3443   68.8976  229.1780 H   0  0  0  0  0  0  0  0  0  0  0  0
  141.4260   71.1121  229.3006 H   0  0  0  0  0  0  0  0  0  0  0  0
  141.6208   72.5788  227.2946 H   0  0  0  0  0  0  0  0  0  0  0  0
  1  2  2  0
  2  3  1  0
  3  4  1  0
  4  5  1  0
  5  6  2  0
  5  7  1  0
  7  8  1  0
  8  9  1  0
  9 10  1  0
  9 11  1  0
 11 12  1  0
 11 13  1  0
 13 14  1  0
 14 15  1  0
  2 16  1  0
 16 17  2  0
 17 18  1  0
 18 19  2  0
 19 20  1  0
 20 21  2  0
 21 22  1  0
 22 23  2  0
 23 24  1  0
 24 25  2  0
 13  7  1  0
 25 16  1  0
 24 19  1  0
  3 26  1  0
  4 27  1  0
  4 28  1  0
  8 29  1  0
  8 30  1  0
  9 31  1  6
 10 32  1  0
 11 33  1  6
 12 34  1  0
 13 35  1  1
 14 36  1  0
 14 37  1  0
 15 38  1  0
 17 39  1  0
 18 40  1  0
 20 41  1  0
 21 42  1  0
 22 43  1  0
 23 44  1  0
M  END
>  <smiles>  (29) 
O=C(NCC(=O)N1C[C@H](O)[C@H](O)[C@H]1CO)c1ccc2ccccc2n1

>  <score_type>  (29) 
oracle

>  <origin>  (29) 
autodockgpu

>  <m_score__min__energy>  (29) 
-7.2400000000000002

>  <m_primary>  (29) 
energy

>  <rmsd>  (29) 
2.704116183389145

>  <m_score__min__rmsd>  (29) 
2.704116183389145

>  <meeko>  (29) 
{"free_energy": -7.23, "intermolecular_energy": -9.61, "internal_energy": -2.97, "cluster_size": 12, "cluster_id": 1, "rank_in_cluster": 2}

>  <energy>  (29) 
-4.92

>  <cluster_rmsd>  (29) 
0.15

>  <cluster>  (29) 
5

$$$$

     RDKit          3D

 44 46  0  0  0  0  0  0  0  0999 V2000
  140.3720   79.6620  218.9250 O   0  0  0  0  0  0  0  0  0  0  0  0
  141.5150   79.3780  219.3840 C   0  0  0  0  0  0  0  0  0  0  0  0
  142.1700   80.4030  220.1200 N   0  0  0  0  0  0  0  0  0  0  0  0
  141.4310   81.6660  220.2540 C   0  0  0  0  0  0  0  0  0  0  0  0
  140.8820   81.7610  221.6090 C   0  0  0  0  0  0  0  0  0  0  0  0
  140.3490   82.8660  221.9450 O   0  0  0  0  0  0  0  0  0  0  0  0
  140.8880   80.7420  222.5800 N   0  0  0  0  0  0  0  0  0  0  0  0
  141.8210   80.6820  223.7190 C   0  0  0  0  0  0  0  0  0  0  0  0
  142.2790   79.2350  223.5480 C   0  0  2  0  0  0  0  0  0  0  0  0
  142.9740   79.0990  222.3450 O   0  0  0  0  0  0  0  0  0  0  0  0
  140.9630   78.5200  223.3920 C   0  0  2  0  0  0  0  0  0  0  0  0
  141.0720   77.3700  222.6190 O   0  0  0  0  0  0  0  0  0  0  0  0
  140.0760   79.5560  222.7450 C   0  0  1  0  0  0  0  0  0  0  0  0
  138.9160   79.8790  223.6750 C   0  0  0  0  0  0  0  0  0  0  0  0
  138.3890   81.1020  223.3010 O   0  0  0  0  0  0  0  0  0  0  0  0
  142.1390   78.0780  219.1780 C   0  0  0  0  0  0  0  0  0  0  0  0
  142.7680   77.8550  217.9740 C   0  0  0  0  0  0  0  0  0  0  0  0
  143.3970   76.6600  217.6600 C   0  0  0  0  0  0  0  0  0  0  0  0
  143.3520   75.6850  218.6610 C   0  0  0  0  0  0  0  0  0  0  0  0
  143.9670   74.4910  218.3780 C   0  0  0  0  0  0  0  0  0  0  0  0
  143.9650   73.4850  219.3080 C   0  0  0  0  0  0  0  0  0  0  0  0
  143.3380   73.7080  220.5120 C   0  0  0  0  0  0  0  0  0  0  0  0
  142.7080   74.9170  220.8140 C   0  0  0  0  0  0  0  0  0  0  0  0
  142.7230   75.9050  219.8680 C   0  0  0  0  0  0  0  0  0  0  0  0
  142.1360   77.0960  220.0890 N   0  0  0  0  0  0  0  0  0  0  0  0
  143.1170   80.2670  220.5390 H   0  0  0  0  0  0  0  0  0  0  0  0
  142.1110   82.5113  220.0724 H   0  0  0  0  0  0  0  0  0  0  0  0
  140.6119   81.6948  219.5203 H   0  0  0  0  0  0  0  0  0  0  0  0
  142.6511   81.3962  223.6148 H   0  0  0  0  0  0  0  0  0  0  0  0
  141.3985   80.9401  224.7013 H   0  0  0  0  0  0  0  0  0  0  0  0
  142.9247   78.8767  224.3632 H   0  0  0  0  0  0  0  0  0  0  0  0
  142.6570   78.3220  221.8200 H   0  0  0  0  0  0  0  0  0  0  0  0
  140.5659   78.1566  224.3513 H   0  0  0  0  0  0  0  0  0  0  0  0
  141.9590   77.2270  222.2530 H   0  0  0  0  0  0  0  0  0  0  0  0
  139.6754   79.1976  221.7853 H   0  0  0  0  0  0  0  0  0  0  0  0
  138.1440   79.0998  223.5917 H   0  0  0  0  0  0  0  0  0  0  0  0
  139.2648   79.9187  224.7175 H   0  0  0  0  0  0  0  0  0  0  0  0
  139.1030   81.7840  223.2490 H   0  0  0  0  0  0  0  0  0  0  0  0
  142.7718   78.6621  217.2266 H   0  0  0  0  0  0  0  0  0  0  0  0
  143.8951   76.4913  216.6938 H   0  0  0  0  0  0  0  0  0  0  0  0
  144.4606   74.3421  217.4063 H   0  0  0  0  0  0  0  0  0  0  0  0
  144.4530   72.5220  219.0970 H   0  0  0  0  0  0  0  0  0  0  0  0
  143.3328   72.9051  221.2638 H   0  0  0  0  0  0  0  0  0  0  0  0
  142.2138   75.0705  221.7847 H   0  0  0  0  0  0  0  0  0  0  0  0
  1  2  2  0
  2  3  1  0
  3  4  1  0
  4  5  1  0
  5  6  2  0
  5  7  1  0
  7  8  1  0
  8  9  1  0
  9 10  1  0
  9 11  1  0
 11 12  1  0
 11 13  1  0
 13 14  1  0
 14 15  1  0
  2 16  1  0
 16 17  2  0
 17 18  1  0
 18 19  2  0
 19 20  1  0
 20 21  2  0
 21 22  1  0
 22 23  2  0
 23 24  1  0
 24 25  2  0
 13  7  1  0
 25 16  1  0
 24 19  1  0
  3 26  1  0
  4 27  1  0
  4 28  1  0
  8 29  1  0
  8 30  1  0
  9 31  1  1
 10 32  1  0
 11 33  1  1
 12 34  1  0
 13 35  1  6
 14 36  1  0
 14 37  1  0
 15 38  1  0
 17 39  1  0
 18 40  1  0
 20 41  1  0
 21 42  1  0
 22 43  1  0
 23 44  1  0
M  END
>  <smiles>  (30) 
O=C(NCC(=O)N1C[C@H](O)[C@H](O)[C@H]1CO)c1ccc2ccccc2n1

>  <score_type>  (30) 
oracle

>  <origin>  (30) 
autodockgpu

>  <m_score__min__energy>  (30) 
-7.2400000000000002

>  <m_primary>  (30) 
energy

>  <rmsd>  (30) 
8.654978098171924

>  <m_score__min__rmsd>  (30) 
8.654978098171924

>  <meeko>  (30) 
{"free_energy": -4.77, "intermolecular_energy": -7.16, "internal_energy": -5.53, "cluster_size": 10, "cluster_id": 5, "rank_in_cluster": 8}

>  <energy>  (30) 
-4.91

>  <cluster_rmsd>  (30) 
0.13

>  <cluster>  (30) 
5

$$$$

     RDKit          3D

 44 46  0  0  0  0  0  0  0  0999 V2000
  137.7610   76.7650  220.8150 O   0  0  0  0  0  0  0  0  0  0  0  0
  138.5800   76.6630  221.7730 C   0  0  0  0  0  0  0  0  0  0  0  0
  138.7670   75.3590  222.3050 N   0  0  0  0  0  0  0  0  0  0  0  0
  137.9800   74.2910  221.6710 C   0  0  0  0  0  0  0  0  0  0  0  0
  138.7300   73.7530  220.5320 C   0  0  0  0  0  0  0  0  0  0  0  0
  138.1290   72.9200  219.7820 O   0  0  0  0  0  0  0  0  0  0  0  0
  140.0570   74.0720  220.1870 N   0  0  0  0  0  0  0  0  0  0  0  0
  141.2430   73.3620  220.6980 C   0  0  0  0  0  0  0  0  0  0  0  0
  142.0520   74.5820  221.1350 C   0  0  2  0  0  0  0  0  0  0  0  0
  141.3940   75.2370  222.1770 O   0  0  0  0  0  0  0  0  0  0  0  0
  141.9540   75.4600  219.9160 C   0  0  2  0  0  0  0  0  0  0  0  0
  142.0290   76.8120  220.2290 O   0  0  0  0  0  0  0  0  0  0  0  0
  140.6160   75.0890  219.3240 C   0  0  1  0  0  0  0  0  0  0  0  0
  140.8240   74.4990  217.9380 C   0  0  0  0  0  0  0  0  0  0  0  0
  140.1460   73.2950  217.8740 O   0  0  0  0  0  0  0  0  0  0  0  0
  139.3000   77.8100  222.3110 C   0  0  0  0  0  0  0  0  0  0  0  0
  138.5570   78.8200  222.8800 C   0  0  0  0  0  0  0  0  0  0  0  0
  139.1260   79.9610  223.4260 C   0  0  0  0  0  0  0  0  0  0  0  0
  140.5210   80.0170  223.3600 C   0  0  0  0  0  0  0  0  0  0  0  0
  141.1120   81.1350  223.8930 C   0  0  0  0  0  0  0  0  0  0  0  0
  142.4760   81.2650  223.8660 C   0  0  0  0  0  0  0  0  0  0  0  0
  143.2180   80.2550  223.2980 C   0  0  0  0  0  0  0  0  0  0  0  0
  142.6320   79.1120  222.7520 C   0  0  0  0  0  0  0  0  0  0  0  0
  141.2670   79.0070  222.7910 C   0  0  0  0  0  0  0  0  0  0  0  0
  140.6330   77.9340  222.2840 N   0  0  0  0  0  0  0  0  0  0  0  0
  139.4210   75.1710  223.0970 H   0  0  0  0  0  0  0  0  0  0  0  0
  137.7927   73.4891  222.4004 H   0  0  0  0  0  0  0  0  0  0  0  0
  137.0185   74.6964  221.3230 H   0  0  0  0  0  0  0  0  0  0  0  0
  141.0001   72.6995  221.5419 H   0  0  0  0  0  0  0  0  0  0  0  0
  141.7401   72.6825  219.9901 H   0  0  0  0  0  0  0  0  0  0  0  0
  143.0716   74.3391  221.4689 H   0  0  0  0  0  0  0  0  0  0  0  0
  141.7340   76.1570  222.3100 H   0  0  0  0  0  0  0  0  0  0  0  0
  142.7887   75.3036  219.2169 H   0  0  0  0  0  0  0  0  0  0  0  0
  142.2110   76.9880  221.1660 H   0  0  0  0  0  0  0  0  0  0  0  0
  139.9560   75.9653  219.2437 H   0  0  0  0  0  0  0  0  0  0  0  0
  140.4304   75.1888  217.1769 H   0  0  0  0  0  0  0  0  0  0  0  0
  141.8962   74.3415  217.7494 H   0  0  0  0  0  0  0  0  0  0  0  0
  139.2260   73.3980  218.2190 H   0  0  0  0  0  0  0  0  0  0  0  0
  137.4620   78.7173  222.9026 H   0  0  0  0  0  0  0  0  0  0  0  0
  138.5236   80.7629  223.8778 H   0  0  0  0  0  0  0  0  0  0  0  0
  140.4920   81.9254  224.3411 H   0  0  0  0  0  0  0  0  0  0  0  0
  142.9657   82.1550  224.2881 H   0  0  0  0  0  0  0  0  0  0  0  0
  144.3134   80.3520  223.2733 H   0  0  0  0  0  0  0  0  0  0  0  0
  143.2483   78.3189  222.3036 H   0  0  0  0  0  0  0  0  0  0  0  0
  1  2  2  0
  2  3  1  0
  3  4  1  0
  4  5  1  0
  5  6  2  0
  5  7  1  0
  7  8  1  0
  8  9  1  0
  9 10  1  0
  9 11  1  0
 11 12  1  0
 11 13  1  0
 13 14  1  0
 14 15  1  0
  2 16  1  0
 16 17  2  0
 17 18  1  0
 18 19  2  0
 19 20  1  0
 20 21  2  0
 21 22  1  0
 22 23  2  0
 23 24  1  0
 24 25  2  0
 13  7  1  0
 25 16  1  0
 24 19  1  0
  3 26  1  0
  4 27  1  0
  4 28  1  0
  8 29  1  0
  8 30  1  0
  9 31  1  1
 10 32  1  0
 11 33  1  6
 12 34  1  0
 13 35  1  6
 14 36  1  0
 14 37  1  0
 15 38  1  0
 17 39  1  0
 18 40  1  0
 20 41  1  0
 21 42  1  0
 22 43  1  0
 23 44  1  0
M  END
>  <smiles>  (31) 
O=C(NCC(=O)N1C[C@H](O)[C@H](O)[C@H]1CO)c1ccc2ccccc2n1

>  <score_type>  (31) 
oracle

>  <origin>  (31) 
autodockgpu

>  <m_score__min__energy>  (31) 
-7.2400000000000002

>  <m_primary>  (31) 
energy

>  <rmsd>  (31) 
7.323889848937484

>  <m_score__min__rmsd>  (31) 
7.323889848937484

>  <meeko>  (31) 
{"free_energy": -4.6, "intermolecular_energy": -6.99, "internal_energy": -5.55, "cluster_size": 12, "cluster_id": 6, "rank_in_cluster": 10}

>  <energy>  (31) 
-4.91

>  <cluster_rmsd>  (31) 
0.14

>  <cluster>  (31) 
5

$$$$

     RDKit          3D

 44 46  0  0  0  0  0  0  0  0999 V2000
  140.3170   79.7500  219.1180 O   0  0  0  0  0  0  0  0  0  0  0  0
  141.4760   79.4530  219.5270 C   0  0  0  0  0  0  0  0  0  0  0  0
  142.1740   80.4690  220.2350 N   0  0  0  0  0  0  0  0  0  0  0  0
  141.4540   81.7400  220.4020 C   0  0  0  0  0  0  0  0  0  0  0  0
  140.7430   81.7250  221.6840 C   0  0  0  0  0  0  0  0  0  0  0  0
  140.0040   82.7260  221.9500 O   0  0  0  0  0  0  0  0  0  0  0  0
  140.8010   80.7050  222.6530 N   0  0  0  0  0  0  0  0  0  0  0  0
  141.7740   80.6610  223.7580 C   0  0  0  0  0  0  0  0  0  0  0  0
  142.2490   79.2210  223.5680 C   0  0  2  0  0  0  0  0  0  0  0  0
  142.9030   79.0970  222.3410 O   0  0  0  0  0  0  0  0  0  0  0  0
  140.9400   78.4850  223.4590 C   0  0  2  0  0  0  0  0  0  0  0  0
  141.0400   77.3370  222.6810 O   0  0  0  0  0  0  0  0  0  0  0  0
  140.0140   79.5070  222.8450 C   0  0  1  0  0  0  0  0  0  0  0  0
  138.8830   79.8100  223.8160 C   0  0  0  0  0  0  0  0  0  0  0  0
  138.7830   81.1840  223.9480 O   0  0  0  0  0  0  0  0  0  0  0  0
  142.0770   78.1470  219.2920 C   0  0  0  0  0  0  0  0  0  0  0  0
  142.7170   77.9450  218.0900 C   0  0  0  0  0  0  0  0  0  0  0  0
  143.3270   76.7460  217.7510 C   0  0  0  0  0  0  0  0  0  0  0  0
  143.2480   75.7450  218.7230 C   0  0  0  0  0  0  0  0  0  0  0  0
  143.8440   74.5470  218.4140 C   0  0  0  0  0  0  0  0  0  0  0  0
  143.8090   73.5160  219.3160 C   0  0  0  0  0  0  0  0  0  0  0  0
  143.1700   73.7180  220.5170 C   0  0  0  0  0  0  0  0  0  0  0  0
  142.5600   74.9300  220.8450 C   0  0  0  0  0  0  0  0  0  0  0  0
  142.6080   75.9440  219.9270 C   0  0  0  0  0  0  0  0  0  0  0  0
  142.0420   77.1400  220.1750 N   0  0  0  0  0  0  0  0  0  0  0  0
  143.1360   80.3230  220.6120 H   0  0  0  0  0  0  0  0  0  0  0  0
  142.1712   82.5739  220.3885 H   0  0  0  0  0  0  0  0  0  0  0  0
  140.7335   81.8679  219.5807 H   0  0  0  0  0  0  0  0  0  0  0  0
  142.5880   81.3889  223.6253 H   0  0  0  0  0  0  0  0  0  0  0  0
  141.3830   80.9122  224.7550 H   0  0  0  0  0  0  0  0  0  0  0  0
  142.9295   78.8723  224.3588 H   0  0  0  0  0  0  0  0  0  0  0  0
  142.7230   78.2230  221.9130 H   0  0  0  0  0  0  0  0  0  0  0  0
  140.5833   78.1149  224.4315 H   0  0  0  0  0  0  0  0  0  0  0  0
  141.9290   77.1800  222.3270 H   0  0  0  0  0  0  0  0  0  0  0  0
  139.5849   79.1437  221.8996 H   0  0  0  0  0  0  0  0  0  0  0  0
  137.9382   79.4037  223.4257 H   0  0  0  0  0  0  0  0  0  0  0  0
  139.0872   79.3482  224.7933 H   0  0  0  0  0  0  0  0  0  0  0  0
  138.7860   81.6170  223.0600 H   0  0  0  0  0  0  0  0  0  0  0  0
  142.7460   78.7720  217.3653 H   0  0  0  0  0  0  0  0  0  0  0  0
  143.8357   76.5943  216.7876 H   0  0  0  0  0  0  0  0  0  0  0  0
  144.3480   74.4154  217.4452 H   0  0  0  0  0  0  0  0  0  0  0  0
  144.2809   72.5496  219.0849 H   0  0  0  0  0  0  0  0  0  0  0  0
  143.1385   72.8945  221.2456 H   0  0  0  0  0  0  0  0  0  0  0  0
  142.0555   75.0661  221.8130 H   0  0  0  0  0  0  0  0  0  0  0  0
  1  2  2  0
  2  3  1  0
  3  4  1  0
  4  5  1  0
  5  6  2  0
  5  7  1  0
  7  8  1  0
  8  9  1  0
  9 10  1  0
  9 11  1  0
 11 12  1  0
 11 13  1  0
 13 14  1  0
 14 15  1  0
  2 16  1  0
 16 17  2  0
 17 18  1  0
 18 19  2  0
 19 20  1  0
 20 21  2  0
 21 22  1  0
 22 23  2  0
 23 24  1  0
 24 25  2  0
 13  7  1  0
 25 16  1  0
 24 19  1  0
  3 26  1  0
  4 27  1  0
  4 28  1  0
  8 29  1  0
  8 30  1  0
  9 31  1  1
 10 32  1  0
 11 33  1  1
 12 34  1  0
 13 35  1  6
 14 36  1  0
 14 37  1  0
 15 38  1  0
 17 39  1  0
 18 40  1  0
 20 41  1  0
 21 42  1  0
 22 43  1  0
 23 44  1  0
M  END
>  <smiles>  (32) 
O=C(NCC(=O)N1C[C@H](O)[C@H](O)[C@H]1CO)c1ccc2ccccc2n1

>  <score_type>  (32) 
oracle

>  <origin>  (32) 
autodockgpu

>  <m_score__min__energy>  (32) 
-7.2400000000000002

>  <m_primary>  (32) 
energy

>  <rmsd>  (32) 
8.655935549700342

>  <m_score__min__rmsd>  (32) 
8.655935549700342

>  <meeko>  (32) 
{"free_energy": -4.91, "intermolecular_energy": -7.3, "internal_energy": -5.52, "cluster_size": 10, "cluster_id": 5, "rank_in_cluster": 3}

>  <energy>  (32) 
-4.91

>  <cluster_rmsd>  (32) 
0.09

>  <cluster>  (32) 
5

$$$$

     RDKit          3D

 44 46  0  0  0  0  0  0  0  0999 V2000
  139.0220   74.9940  221.6570 O   0  0  0  0  0  0  0  0  0  0  0  0
  140.1440   75.5310  221.8820 C   0  0  0  0  0  0  0  0  0  0  0  0
  141.2870   74.7140  221.6680 N   0  0  0  0  0  0  0  0  0  0  0  0
  141.0160   73.3430  221.2100 C   0  0  0  0  0  0  0  0  0  0  0  0
  141.7770   73.0870  219.9840 C   0  0  0  0  0  0  0  0  0  0  0  0
  141.1610   72.5190  219.0260 O   0  0  0  0  0  0  0  0  0  0  0  0
  143.1290   73.4100  219.7640 N   0  0  0  0  0  0  0  0  0  0  0  0
  143.9090   72.9770  218.5910 C   0  0  0  0  0  0  0  0  0  0  0  0
  145.1290   72.4340  219.3320 C   0  0  2  0  0  0  0  0  0  0  0  0
  144.7610   71.3300  220.1030 O   0  0  0  0  0  0  0  0  0  0  0  0
  145.4340   73.5640  220.2780 C   0  0  2  0  0  0  0  0  0  0  0  0
  146.0410   73.1270  221.4500 O   0  0  0  0  0  0  0  0  0  0  0  0
  144.0790   74.1790  220.5380 C   0  0  1  0  0  0  0  0  0  0  0  0
  144.0730   75.6160  220.0390 C   0  0  0  0  0  0  0  0  0  0  0  0
  142.7730   76.0850  220.0870 O   0  0  0  0  0  0  0  0  0  0  0  0
  140.2750   76.9090  222.3370 C   0  0  0  0  0  0  0  0  0  0  0  0
  139.1190   77.5940  222.6400 C   0  0  0  0  0  0  0  0  0  0  0  0
  139.1130   78.9080  223.0810 C   0  0  0  0  0  0  0  0  0  0  0  0
  140.3750   79.4990  223.2010 C   0  0  0  0  0  0  0  0  0  0  0  0
  140.3990   80.8010  223.6360 C   0  0  0  0  0  0  0  0  0  0  0  0
  141.5980   81.4490  223.7780 C   0  0  0  0  0  0  0  0  0  0  0  0
  142.7530   80.7650  223.4760 C   0  0  0  0  0  0  0  0  0  0  0  0
  142.7430   79.4420  223.0320 C   0  0  0  0  0  0  0  0  0  0  0  0
  141.5330   78.8160  222.8980 C   0  0  0  0  0  0  0  0  0  0  0  0
  141.4470   77.5410  222.4750 N   0  0  0  0  0  0  0  0  0  0  0  0
  142.2570   75.0640  221.8270 H   0  0  0  0  0  0  0  0  0  0  0  0
  141.3204   72.6278  221.9884 H   0  0  0  0  0  0  0  0  0  0  0  0
  139.9408   73.2252  221.0098 H   0  0  0  0  0  0  0  0  0  0  0  0
  143.3923   72.1971  218.0124 H   0  0  0  0  0  0  0  0  0  0  0  0
  144.1096   73.7495  217.8341 H   0  0  0  0  0  0  0  0  0  0  0  0
  145.9513   72.1322  218.6666 H   0  0  0  0  0  0  0  0  0  0  0  0
  144.8140   71.5210  221.0730 H   0  0  0  0  0  0  0  0  0  0  0  0
  146.1555   74.2800  219.8575 H   0  0  0  0  0  0  0  0  0  0  0  0
  146.0390   72.1630  221.5560 H   0  0  0  0  0  0  0  0  0  0  0  0
  143.8341   74.1728  221.6104 H   0  0  0  0  0  0  0  0  0  0  0  0
  144.7163   76.2357  220.6810 H   0  0  0  0  0  0  0  0  0  0  0  0
  144.4555   75.6619  219.0087 H   0  0  0  0  0  0  0  0  0  0  0  0
  142.6170   76.5860  220.9240 H   0  0  0  0  0  0  0  0  0  0  0  0
  138.1562   77.0742  222.5268 H   0  0  0  0  0  0  0  0  0  0  0  0
  138.1839   79.4465  223.3191 H   0  0  0  0  0  0  0  0  0  0  0  0
  139.4589   81.3222  223.8697 H   0  0  0  0  0  0  0  0  0  0  0  0
  141.6362   82.4920  224.1254 H   0  0  0  0  0  0  0  0  0  0  0  0
  143.7188   81.2793  223.5885 H   0  0  0  0  0  0  0  0  0  0  0  0
  143.6806   78.9172  222.7964 H   0  0  0  0  0  0  0  0  0  0  0  0
  1  2  2  0
  2  3  1  0
  3  4  1  0
  4  5  1  0
  5  6  2  0
  5  7  1  0
  7  8  1  0
  8  9  1  0
  9 10  1  0
  9 11  1  0
 11 12  1  0
 11 13  1  0
 13 14  1  0
 14 15  1  0
  2 16  1  0
 16 17  2  0
 17 18  1  0
 18 19  2  0
 19 20  1  0
 20 21  2  0
 21 22  1  0
 22 23  2  0
 23 24  1  0
 24 25  2  0
 13  7  1  0
 25 16  1  0
 24 19  1  0
  3 26  1  0
  4 27  1  0
  4 28  1  0
  8 29  1  0
  8 30  1  0
  9 31  1  6
 10 32  1  0
 11 33  1  6
 12 34  1  0
 13 35  1  1
 14 36  1  0
 14 37  1  0
 15 38  1  0
 17 39  1  0
 18 40  1  0
 20 41  1  0
 21 42  1  0
 22 43  1  0
 23 44  1  0
M  END
>  <smiles>  (33) 
O=C(NCC(=O)N1C[C@H](O)[C@H](O)[C@H]1CO)c1ccc2ccccc2n1

>  <score_type>  (33) 
oracle

>  <origin>  (33) 
autodockgpu

>  <m_score__min__energy>  (33) 
-7.2400000000000002

>  <m_primary>  (33) 
energy

>  <rmsd>  (33) 
7.5399761833160195

>  <m_score__min__rmsd>  (33) 
7.5399761833160195

>  <meeko>  (33) 
{"free_energy": -6.45, "intermolecular_energy": -8.83, "internal_energy": -3.84, "cluster_size": 8, "cluster_id": 3, "rank_in_cluster": 4}

>  <energy>  (33) 
-4.89

>  <cluster_rmsd>  (33) 
0.12

>  <cluster>  (33) 
5

$$$$

     RDKit          3D

 44 46  0  0  0  0  0  0  0  0999 V2000
  141.4440   72.8460  221.6130 O   0  0  0  0  0  0  0  0  0  0  0  0
  140.4380   72.7670  222.3740 C   0  0  0  0  0  0  0  0  0  0  0  0
  139.5520   73.8790  222.3650 N   0  0  0  0  0  0  0  0  0  0  0  0
  139.9220   74.9820  221.4660 C   0  0  0  0  0  0  0  0  0  0  0  0
  139.3850   76.2370  222.0000 C   0  0  0  0  0  0  0  0  0  0  0  0
  138.3150   76.1680  222.6840 O   0  0  0  0  0  0  0  0  0  0  0  0
  139.9440   77.5180  221.8280 N   0  0  0  0  0  0  0  0  0  0  0  0
  139.9800   78.2450  220.5470 C   0  0  0  0  0  0  0  0  0  0  0  0
  141.4590   78.6260  220.5570 C   0  0  2  0  0  0  0  0  0  0  0  0
  142.2450   77.4740  220.4830 O   0  0  0  0  0  0  0  0  0  0  0  0
  141.6140   79.1900  221.9440 C   0  0  2  0  0  0  0  0  0  0  0  0
  142.9020   79.0260  222.4430 O   0  0  0  0  0  0  0  0  0  0  0  0
  140.5930   78.4240  222.7500 C   0  0  1  0  0  0  0  0  0  0  0  0
  139.5570   79.3910  223.3030 C   0  0  0  0  0  0  0  0  0  0  0  0
  138.3010   78.8820  223.0300 O   0  0  0  0  0  0  0  0  0  0  0  0
  140.1860   71.6070  223.2200 C   0  0  0  0  0  0  0  0  0  0  0  0
  139.3830   70.6110  222.7140 C   0  0  0  0  0  0  0  0  0  0  0  0
  139.0700   69.4600  223.4220 C   0  0  0  0  0  0  0  0  0  0  0  0
  139.6340   69.3780  224.6980 C   0  0  0  0  0  0  0  0  0  0  0  0
  139.3420   68.2480  225.4220 C   0  0  0  0  0  0  0  0  0  0  0  0
  139.8560   68.0950  226.6830 C   0  0  0  0  0  0  0  0  0  0  0  0
  140.6590   69.0900  227.1880 C   0  0  0  0  0  0  0  0  0  0  0  0
  140.9650   70.2440  226.4650 C   0  0  0  0  0  0  0  0  0  0  0  0
  140.4390   70.3740  225.2080 C   0  0  0  0  0  0  0  0  0  0  0  0
  140.6910   71.4590  224.4520 N   0  0  0  0  0  0  0  0  0  0  0  0
  138.6940   73.9100  222.9580 H   0  0  0  0  0  0  0  0  0  0  0  0
  141.0178   75.0498  221.3978 H   0  0  0  0  0  0  0  0  0  0  0  0
  139.5073   74.7982  220.4639 H   0  0  0  0  0  0  0  0  0  0  0  0
  139.7223   77.5993  219.6946 H   0  0  0  0  0  0  0  0  0  0  0  0
  139.2687   79.0779  220.4457 H   0  0  0  0  0  0  0  0  0  0  0  0
  141.7483   79.2949  219.7330 H   0  0  0  0  0  0  0  0  0  0  0  0
  142.5580   77.1820  221.3750 H   0  0  0  0  0  0  0  0  0  0  0  0
  141.4545   80.2779  221.9753 H   0  0  0  0  0  0  0  0  0  0  0  0
  143.5060   78.5800  221.8290 H   0  0  0  0  0  0  0  0  0  0  0  0
  141.0632   77.8882  223.5878 H   0  0  0  0  0  0  0  0  0  0  0  0
  139.6881   79.4954  224.3902 H   0  0  0  0  0  0  0  0  0  0  0  0
  139.6749   80.3807  222.8377 H   0  0  0  0  0  0  0  0  0  0  0  0
  138.2530   77.9270  223.2830 H   0  0  0  0  0  0  0  0  0  0  0  0
  138.9703   70.7330  221.7017 H   0  0  0  0  0  0  0  0  0  0  0  0
  138.4253   68.6699  223.0095 H   0  0  0  0  0  0  0  0  0  0  0  0
  138.6973   67.4680  224.9908 H   0  0  0  0  0  0  0  0  0  0  0  0
  139.6313   67.1970  227.2773 H   0  0  0  0  0  0  0  0  0  0  0  0
  141.0757   68.9723  228.1992 H   0  0  0  0  0  0  0  0  0  0  0  0
  141.6098   71.0259  226.8927 H   0  0  0  0  0  0  0  0  0  0  0  0
  1  2  2  0
  2  3  1  0
  3  4  1  0
  4  5  1  0
  5  6  2  0
  5  7  1  0
  7  8  1  0
  8  9  1  0
  9 10  1  0
  9 11  1  0
 11 12  1  0
 11 13  1  0
 13 14  1  0
 14 15  1  0
  2 16  1  0
 16 17  2  0
 17 18  1  0
 18 19  2  0
 19 20  1  0
 20 21  2  0
 21 22  1  0
 22 23  2  0
 23 24  1  0
 24 25  2  0
 13  7  1  0
 25 16  1  0
 24 19  1  0
  3 26  1  0
  4 27  1  0
  4 28  1  0
  8 29  1  0
  8 30  1  0
  9 31  1  6
 10 32  1  0
 11 33  1  6
 12 34  1  0
 13 35  1  1
 14 36  1  0
 14 37  1  0
 15 38  1  0
 17 39  1  0
 18 40  1  0
 20 41  1  0
 21 42  1  0
 22 43  1  0
 23 44  1  0
M  END
>  <smiles>  (34) 
O=C(NCC(=O)N1C[C@H](O)[C@H](O)[C@H]1CO)c1ccc2ccccc2n1

>  <score_type>  (34) 
oracle

>  <origin>  (34) 
autodockgpu

>  <m_score__min__energy>  (34) 
-7.2400000000000002

>  <m_primary>  (34) 
energy

>  <rmsd>  (34) 
3.514949303316381

>  <m_score__min__rmsd>  (34) 
3.514949303316381

>  <meeko>  (34) 
{"free_energy": -6.57, "intermolecular_energy": -8.95, "internal_energy": -3.43, "cluster_size": 5, "cluster_id": 2, "rank_in_cluster": 4}

>  <energy>  (34) 
-4.87

>  <cluster_rmsd>  (34) 
0.2

>  <cluster>  (34) 
5

$$$$

     RDKit          3D

 44 46  0  0  0  0  0  0  0  0999 V2000
  139.0780   72.6530  221.9460 O   0  0  0  0  0  0  0  0  0  0  0  0
  140.1160   72.1430  222.4580 C   0  0  0  0  0  0  0  0  0  0  0  0
  141.3260   72.3140  221.7310 N   0  0  0  0  0  0  0  0  0  0  0  0
  141.2140   73.0650  220.4720 C   0  0  0  0  0  0  0  0  0  0  0  0
  141.9120   74.3460  220.6130 C   0  0  0  0  0  0  0  0  0  0  0  0
  143.1820   74.3120  220.6750 O   0  0  0  0  0  0  0  0  0  0  0  0
  141.3090   75.6160  220.6880 N   0  0  0  0  0  0  0  0  0  0  0  0
  140.7340   76.3340  219.5370 C   0  0  0  0  0  0  0  0  0  0  0  0
  141.4210   77.6810  219.7590 C   0  0  2  0  0  0  0  0  0  0  0  0
  142.8010   77.5390  219.6020 O   0  0  0  0  0  0  0  0  0  0  0  0
  141.1550   77.9160  221.2210 C   0  0  2  0  0  0  0  0  0  0  0  0
  142.1450   78.6840  221.8240 O   0  0  0  0  0  0  0  0  0  0  0  0
  141.0920   76.5210  221.7950 C   0  0  1  0  0  0  0  0  0  0  0  0
  139.7050   76.2740  222.3700 C   0  0  0  0  0  0  0  0  0  0  0  0
  139.5810   74.9220  222.6340 O   0  0  0  0  0  0  0  0  0  0  0  0
  140.0890   71.4180  223.7210 C   0  0  0  0  0  0  0  0  0  0  0  0
  139.4870   70.1800  223.7340 C   0  0  0  0  0  0  0  0  0  0  0  0
  139.3980   69.3940  224.8730 C   0  0  0  0  0  0  0  0  0  0  0  0
  139.9700   69.9500  226.0220 C   0  0  0  0  0  0  0  0  0  0  0  0
  139.8970   69.1940  227.1660 C   0  0  0  0  0  0  0  0  0  0  0  0
  140.4330   69.6700  228.3330 C   0  0  0  0  0  0  0  0  0  0  0  0
  141.0350   70.9070  228.3210 C   0  0  0  0  0  0  0  0  0  0  0  0
  141.1170   71.6870  227.1660 C   0  0  0  0  0  0  0  0  0  0  0  0
  140.5730   71.1890  226.0130 C   0  0  0  0  0  0  0  0  0  0  0  0
  140.6140   71.8850  224.8610 N   0  0  0  0  0  0  0  0  0  0  0  0
  142.2350   71.9300  222.0700 H   0  0  0  0  0  0  0  0  0  0  0  0
  141.6697   72.4853  219.6557 H   0  0  0  0  0  0  0  0  0  0  0  0
  140.1536   73.2446  220.2411 H   0  0  0  0  0  0  0  0  0  0  0  0
  141.0160   75.8760  218.5775 H   0  0  0  0  0  0  0  0  0  0  0  0
  139.6356   76.3564  219.4828 H   0  0  0  0  0  0  0  0  0  0  0  0
  141.0749   78.4713  219.0766 H   0  0  0  0  0  0  0  0  0  0  0  0
  143.2720   77.5210  220.4720 H   0  0  0  0  0  0  0  0  0  0  0  0
  140.2329   78.4906  221.3929 H   0  0  0  0  0  0  0  0  0  0  0  0
  143.0450   78.4440  221.5550 H   0  0  0  0  0  0  0  0  0  0  0  0
  141.8381   76.3802  222.5909 H   0  0  0  0  0  0  0  0  0  0  0  0
  139.5798   76.8480  223.3000 H   0  0  0  0  0  0  0  0  0  0  0  0
  138.9342   76.5934  221.6532 H   0  0  0  0  0  0  0  0  0  0  0  0
  138.6320   74.6820  222.7680 H   0  0  0  0  0  0  0  0  0  0  0  0
  139.0565   69.7964  222.7972 H   0  0  0  0  0  0  0  0  0  0  0  0
  138.9135   68.4065  224.8729 H   0  0  0  0  0  0  0  0  0  0  0  0
  139.4091   68.2083  227.1452 H   0  0  0  0  0  0  0  0  0  0  0  0
  140.3833   69.0771  229.2582 H   0  0  0  0  0  0  0  0  0  0  0  0
  141.4672   71.2954  229.2550 H   0  0  0  0  0  0  0  0  0  0  0  0
  141.6045   72.6729  227.1821 H   0  0  0  0  0  0  0  0  0  0  0  0
  1  2  2  0
  2  3  1  0
  3  4  1  0
  4  5  1  0
  5  6  2  0
  5  7  1  0
  7  8  1  0
  8  9  1  0
  9 10  1  0
  9 11  1  0
 11 12  1  0
 11 13  1  0
 13 14  1  0
 14 15  1  0
  2 16  1  0
 16 17  2  0
 17 18  1  0
 18 19  2  0
 19 20  1  0
 20 21  2  0
 21 22  1  0
 22 23  2  0
 23 24  1  0
 24 25  2  0
 13  7  1  0
 25 16  1  0
 24 19  1  0
  3 26  1  0
  4 27  1  0
  4 28  1  0
  8 29  1  0
  8 30  1  0
  9 31  1  6
 10 32  1  0
 11 33  1  6
 12 34  1  0
 13 35  1  1
 14 36  1  0
 14 37  1  0
 15 38  1  0
 17 39  1  0
 18 40  1  0
 20 41  1  0
 21 42  1  0
 22 43  1  0
 23 44  1  0
M  END
>  <smiles>  (35) 
O=C(NCC(=O)N1C[C@H](O)[C@H](O)[C@H]1CO)c1ccc2ccccc2n1

>  <score_type>  (35) 
oracle

>  <origin>  (35) 
autodockgpu

>  <m_score__min__energy>  (35) 
-7.2400000000000002

>  <m_primary>  (35) 
energy

>  <rmsd>  (35) 
2.9256692700627727

>  <m_score__min__rmsd>  (35) 
2.9256692700627727

>  <meeko>  (35) 
{"free_energy": -7.07, "intermolecular_energy": -9.46, "internal_energy": -2.96, "cluster_size": 12, "cluster_id": 1, "rank_in_cluster": 6}

>  <energy>  (35) 
-4.77

>  <cluster_rmsd>  (35) 
0.25

>  <cluster>  (35) 
5

$$$$

     RDKit          3D

 44 46  0  0  0  0  0  0  0  0999 V2000
  140.2600   79.7930  219.1190 O   0  0  0  0  0  0  0  0  0  0  0  0
  141.4220   79.4920  219.5160 C   0  0  0  0  0  0  0  0  0  0  0  0
  142.1350   80.5100  220.2050 N   0  0  0  0  0  0  0  0  0  0  0  0
  141.4280   81.7880  220.3670 C   0  0  0  0  0  0  0  0  0  0  0  0
  140.7440   81.7990  221.6640 C   0  0  0  0  0  0  0  0  0  0  0  0
  140.0390   82.8200  221.9410 O   0  0  0  0  0  0  0  0  0  0  0  0
  140.7940   80.7810  222.6360 N   0  0  0  0  0  0  0  0  0  0  0  0
  141.7790   80.7230  223.7300 C   0  0  0  0  0  0  0  0  0  0  0  0
  142.2250   79.2740  223.5410 C   0  0  2  0  0  0  0  0  0  0  0  0
  142.8630   79.1330  222.3070 O   0  0  0  0  0  0  0  0  0  0  0  0
  140.9020   78.5620  223.4490 C   0  0  2  0  0  0  0  0  0  0  0  0
  140.9730   77.4100  222.6740 O   0  0  0  0  0  0  0  0  0  0  0  0
  139.9880   79.5980  222.8410 C   0  0  1  0  0  0  0  0  0  0  0  0
  138.8740   79.9260  223.8240 C   0  0  0  0  0  0  0  0  0  0  0  0
  138.5540   81.2640  223.6840 O   0  0  0  0  0  0  0  0  0  0  0  0
  142.0100   78.1780  219.2890 C   0  0  0  0  0  0  0  0  0  0  0  0
  142.6850   77.9770  218.1060 C   0  0  0  0  0  0  0  0  0  0  0  0
  143.2860   76.7720  217.7750 C   0  0  0  0  0  0  0  0  0  0  0  0
  143.1620   75.7640  218.7350 C   0  0  0  0  0  0  0  0  0  0  0  0
  143.7480   74.5590  218.4340 C   0  0  0  0  0  0  0  0  0  0  0  0
  143.6690   73.5210  219.3240 C   0  0  0  0  0  0  0  0  0  0  0  0
  142.9950   73.7220  220.5060 C   0  0  0  0  0  0  0  0  0  0  0  0
  142.3940   74.9400  220.8270 C   0  0  0  0  0  0  0  0  0  0  0  0
  142.4870   75.9620  219.9200 C   0  0  0  0  0  0  0  0  0  0  0  0
  141.9310   77.1640  220.1610 N   0  0  0  0  0  0  0  0  0  0  0  0
  143.1010   80.3600  220.5710 H   0  0  0  0  0  0  0  0  0  0  0  0
  142.1507   82.6162  220.3250 H   0  0  0  0  0  0  0  0  0  0  0  0
  140.6910   81.9079  219.5593 H   0  0  0  0  0  0  0  0  0  0  0  0
  142.6048   81.4350  223.5848 H   0  0  0  0  0  0  0  0  0  0  0  0
  141.4042   80.9853  224.7304 H   0  0  0  0  0  0  0  0  0  0  0  0
  142.9075   78.9161  224.3260 H   0  0  0  0  0  0  0  0  0  0  0  0
  142.6890   78.2480  221.8990 H   0  0  0  0  0  0  0  0  0  0  0  0
  140.5491   78.2023  224.4268 H   0  0  0  0  0  0  0  0  0  0  0  0
  141.8590   77.2240  222.3280 H   0  0  0  0  0  0  0  0  0  0  0  0
  139.5421   79.2385  221.9019 H   0  0  0  0  0  0  0  0  0  0  0  0
  137.9910   79.3072  223.6061 H   0  0  0  0  0  0  0  0  0  0  0  0
  139.2027   79.7197  224.8533 H   0  0  0  0  0  0  0  0  0  0  0  0
  138.6630   81.5490  222.7440 H   0  0  0  0  0  0  0  0  0  0  0  0
  142.7505   78.8102  217.3909 H   0  0  0  0  0  0  0  0  0  0  0  0
  143.8213   76.6206  216.8260 H   0  0  0  0  0  0  0  0  0  0  0  0
  144.2797   74.4278  217.4800 H   0  0  0  0  0  0  0  0  0  0  0  0
  144.1336   72.5497  219.0989 H   0  0  0  0  0  0  0  0  0  0  0  0
  142.9271   72.8921  221.2248 H   0  0  0  0  0  0  0  0  0  0  0  0
  141.8615   75.0751  221.7800 H   0  0  0  0  0  0  0  0  0  0  0  0
  1  2  2  0
  2  3  1  0
  3  4  1  0
  4  5  1  0
  5  6  2  0
  5  7  1  0
  7  8  1  0
  8  9  1  0
  9 10  1  0
  9 11  1  0
 11 12  1  0
 11 13  1  0
 13 14  1  0
 14 15  1  0
  2 16  1  0
 16 17  2  0
 17 18  1  0
 18 19  2  0
 19 20  1  0
 20 21  2  0
 21 22  1  0
 22 23  2  0
 23 24  1  0
 24 25  2  0
 13  7  1  0
 25 16  1  0
 24 19  1  0
  3 26  1  0
  4 27  1  0
  4 28  1  0
  8 29  1  0
  8 30  1  0
  9 31  1  1
 10 32  1  0
 11 33  1  1
 12 34  1  0
 13 35  1  6
 14 36  1  0
 14 37  1  0
 15 38  1  0
 17 39  1  0
 18 40  1  0
 20 41  1  0
 21 42  1  0
 22 43  1  0
 23 44  1  0
M  END
>  <smiles>  (36) 
O=C(NCC(=O)N1C[C@H](O)[C@H](O)[C@H]1CO)c1ccc2ccccc2n1

>  <score_type>  (36) 
oracle

>  <origin>  (36) 
autodockgpu

>  <m_score__min__energy>  (36) 
-7.2400000000000002

>  <m_primary>  (36) 
energy

>  <rmsd>  (36) 
8.669519954923349

>  <m_score__min__rmsd>  (36) 
8.669519954923349

>  <meeko>  (36) 
{"free_energy": -4.92, "intermolecular_energy": -7.3, "internal_energy": -5.49, "cluster_size": 10, "cluster_id": 5, "rank_in_cluster": 1}

>  <energy>  (36) 
-4.73

>  <cluster_rmsd>  (36) 
0.48

>  <cluster>  (36) 
5

$$$$

     RDKit          3D

 44 46  0  0  0  0  0  0  0  0999 V2000
  141.4730   72.6860  221.6620 O   0  0  0  0  0  0  0  0  0  0  0  0
  140.4740   72.6510  222.4350 C   0  0  0  0  0  0  0  0  0  0  0  0
  139.5750   73.7490  222.3520 N   0  0  0  0  0  0  0  0  0  0  0  0
  139.9250   74.7880  221.3730 C   0  0  0  0  0  0  0  0  0  0  0  0
  139.3200   76.0590  221.7830 C   0  0  0  0  0  0  0  0  0  0  0  0
  138.2140   76.0010  222.4080 O   0  0  0  0  0  0  0  0  0  0  0  0
  139.8490   77.3430  221.5490 N   0  0  0  0  0  0  0  0  0  0  0  0
  139.9990   77.9520  220.2160 C   0  0  0  0  0  0  0  0  0  0  0  0
  141.4550   78.3980  220.3470 C   0  0  2  0  0  0  0  0  0  0  0  0
  142.2830   77.2810  220.4660 O   0  0  0  0  0  0  0  0  0  0  0  0
  141.4370   79.0920  221.6830 C   0  0  2  0  0  0  0  0  0  0  0  0
  142.6670   79.0310  222.3280 O   0  0  0  0  0  0  0  0  0  0  0  0
  140.3610   78.3560  222.4450 C   0  0  1  0  0  0  0  0  0  0  0  0
  139.2380   79.3220  222.7910 C   0  0  0  0  0  0  0  0  0  0  0  0
  138.1150   78.5820  223.1140 O   0  0  0  0  0  0  0  0  0  0  0  0
  140.2430   71.5540  223.3660 C   0  0  0  0  0  0  0  0  0  0  0  0
  139.4990   70.4850  222.9200 C   0  0  0  0  0  0  0  0  0  0  0  0
  139.2110   69.3830  223.7100 C   0  0  0  0  0  0  0  0  0  0  0  0
  139.7350   69.4290  225.0050 C   0  0  0  0  0  0  0  0  0  0  0  0
  139.4650   68.3500  225.8110 C   0  0  0  0  0  0  0  0  0  0  0  0
  139.9440   68.3210  227.0940 C   0  0  0  0  0  0  0  0  0  0  0  0
  140.6880   69.3890  227.5400 C   0  0  0  0  0  0  0  0  0  0  0  0
  140.9700   70.4920  226.7330 C   0  0  0  0  0  0  0  0  0  0  0  0
  140.4800   70.4970  225.4550 C   0  0  0  0  0  0  0  0  0  0  0  0
  140.7120   71.5280  224.6200 N   0  0  0  0  0  0  0  0  0  0  0  0
  138.7210   73.8140  222.9490 H   0  0  0  0  0  0  0  0  0  0  0  0
  141.0185   74.8983  221.3285 H   0  0  0  0  0  0  0  0  0  0  0  0
  139.5483   74.5024  220.3798 H   0  0  0  0  0  0  0  0  0  0  0  0
  139.8586   77.2211  219.4060 H   0  0  0  0  0  0  0  0  0  0  0  0
  139.2745   78.7395  219.9613 H   0  0  0  0  0  0  0  0  0  0  0  0
  141.8101   79.0017  219.4988 H   0  0  0  0  0  0  0  0  0  0  0  0
  142.5170   77.0920  221.4090 H   0  0  0  0  0  0  0  0  0  0  0  0
  141.2369   80.1700  221.5947 H   0  0  0  0  0  0  0  0  0  0  0  0
  143.3560   78.5780  221.8180 H   0  0  0  0  0  0  0  0  0  0  0  0
  140.7545   77.9187  223.3745 H   0  0  0  0  0  0  0  0  0  0  0  0
  139.5332   79.9442  223.6487 H   0  0  0  0  0  0  0  0  0  0  0  0
  139.0260   79.9801  221.9354 H   0  0  0  0  0  0  0  0  0  0  0  0
  137.9720   77.8650  222.4500 H   0  0  0  0  0  0  0  0  0  0  0  0
  139.1154   70.5063  221.8893 H   0  0  0  0  0  0  0  0  0  0  0  0
  138.6139   68.5345  223.3446 H   0  0  0  0  0  0  0  0  0  0  0  0
  138.8656   67.5113  225.4271 H   0  0  0  0  0  0  0  0  0  0  0  0
  139.7387   67.4640  227.7523 H   0  0  0  0  0  0  0  0  0  0  0  0
  141.0744   69.3728  228.5698 H   0  0  0  0  0  0  0  0  0  0  0  0
  141.5687   71.3330  227.1129 H   0  0  0  0  0  0  0  0  0  0  0  0
  1  2  2  0
  2  3  1  0
  3  4  1  0
  4  5  1  0
  5  6  2  0
  5  7  1  0
  7  8  1  0
  8  9  1  0
  9 10  1  0
  9 11  1  0
 11 12  1  0
 11 13  1  0
 13 14  1  0
 14 15  1  0
  2 16  1  0
 16 17  2  0
 17 18  1  0
 18 19  2  0
 19 20  1  0
 20 21  2  0
 21 22  1  0
 22 23  2  0
 23 24  1  0
 24 25  2  0
 13  7  1  0
 25 16  1  0
 24 19  1  0
  3 26  1  0
  4 27  1  0
  4 28  1  0
  8 29  1  0
  8 30  1  0
  9 31  1  6
 10 32  1  0
 11 33  1  6
 12 34  1  0
 13 35  1  1
 14 36  1  0
 14 37  1  0
 15 38  1  0
 17 39  1  0
 18 40  1  0
 20 41  1  0
 21 42  1  0
 22 43  1  0
 23 44  1  0
M  END
>  <smiles>  (37) 
O=C(NCC(=O)N1C[C@H](O)[C@H](O)[C@H]1CO)c1ccc2ccccc2n1

>  <score_type>  (37) 
oracle

>  <origin>  (37) 
autodockgpu

>  <m_score__min__energy>  (37) 
-7.2400000000000002

>  <m_primary>  (37) 
energy

>  <rmsd>  (37) 
3.2916800222494182

>  <m_score__min__rmsd>  (37) 
3.2916800222494182

>  <meeko>  (37) 
{"free_energy": -6.57, "intermolecular_energy": -8.95, "internal_energy": -3.39, "cluster_size": 5, "cluster_id": 2, "rank_in_cluster": 3}

>  <energy>  (37) 
-4.73

>  <cluster_rmsd>  (37) 
0.49

>  <cluster>  (37) 
5

$$$$

     RDKit          3D

 44 46  0  0  0  0  0  0  0  0999 V2000
  141.3950   73.0980  221.6850 O   0  0  0  0  0  0  0  0  0  0  0  0
  140.3740   72.9650  222.4180 C   0  0  0  0  0  0  0  0  0  0  0  0
  139.4150   74.0130  222.3580 N   0  0  0  0  0  0  0  0  0  0  0  0
  139.7360   75.1210  221.4470 C   0  0  0  0  0  0  0  0  0  0  0  0
  139.2750   76.3800  222.0400 C   0  0  0  0  0  0  0  0  0  0  0  0
  138.2310   76.3330  222.7650 O   0  0  0  0  0  0  0  0  0  0  0  0
  139.8800   77.6410  221.8840 N   0  0  0  0  0  0  0  0  0  0  0  0
  139.9580   78.3750  220.6090 C   0  0  0  0  0  0  0  0  0  0  0  0
  141.4500   78.7030  220.6390 C   0  0  2  0  0  0  0  0  0  0  0  0
  142.1950   77.5250  220.5660 O   0  0  0  0  0  0  0  0  0  0  0  0
  141.6080   79.2520  222.0320 C   0  0  2  0  0  0  0  0  0  0  0  0
  142.8820   79.0390  222.5450 O   0  0  0  0  0  0  0  0  0  0  0  0
  140.5500   78.5170  222.8200 C   0  0  1  0  0  0  0  0  0  0  0  0
  139.5430   79.5170  223.3670 C   0  0  0  0  0  0  0  0  0  0  0  0
  138.2720   79.0510  223.0820 O   0  0  0  0  0  0  0  0  0  0  0  0
  140.1760   71.8080  223.2810 C   0  0  0  0  0  0  0  0  0  0  0  0
  139.4580   70.7490  222.7740 C   0  0  0  0  0  0  0  0  0  0  0  0
  139.2030   69.5930  223.4960 C   0  0  0  0  0  0  0  0  0  0  0  0
  139.7320   69.5750  224.7900 C   0  0  0  0  0  0  0  0  0  0  0  0
  139.4950   68.4430  225.5300 C   0  0  0  0  0  0  0  0  0  0  0  0
  139.9800   68.3490  226.8080 C   0  0  0  0  0  0  0  0  0  0  0  0
  140.6980   69.4070  227.3150 C   0  0  0  0  0  0  0  0  0  0  0  0
  140.9470   70.5640  226.5750 C   0  0  0  0  0  0  0  0  0  0  0  0
  140.4510   70.6340  225.3010 C   0  0  0  0  0  0  0  0  0  0  0  0
  140.6520   71.7180  224.5300 N   0  0  0  0  0  0  0  0  0  0  0  0
  138.5390   73.9960  222.9240 H   0  0  0  0  0  0  0  0  0  0  0  0
  140.8238   75.1648  221.2896 H   0  0  0  0  0  0  0  0  0  0  0  0
  139.2357   74.9621  220.4803 H   0  0  0  0  0  0  0  0  0  0  0  0
  139.6878   77.7448  219.7489 H   0  0  0  0  0  0  0  0  0  0  0  0
  139.2783   79.2337  220.5056 H   0  0  0  0  0  0  0  0  0  0  0  0
  141.7729   79.3665  219.8233 H   0  0  0  0  0  0  0  0  0  0  0  0
  142.5350   77.2460  221.4530 H   0  0  0  0  0  0  0  0  0  0  0  0
  141.4871   80.3447  222.0693 H   0  0  0  0  0  0  0  0  0  0  0  0
  143.4810   78.5860  221.9310 H   0  0  0  0  0  0  0  0  0  0  0  0
  140.9904   77.9585  223.6591 H   0  0  0  0  0  0  0  0  0  0  0  0
  139.6685   79.6142  224.4555 H   0  0  0  0  0  0  0  0  0  0  0  0
  139.6982   80.5034  222.9055 H   0  0  0  0  0  0  0  0  0  0  0  0
  138.2050   78.0860  223.2850 H   0  0  0  0  0  0  0  0  0  0  0  0
  139.0682   70.8231  221.7481 H   0  0  0  0  0  0  0  0  0  0  0  0
  138.6272   68.7524  223.0814 H   0  0  0  0  0  0  0  0  0  0  0  0
  138.9168   67.6131  225.0976 H   0  0  0  0  0  0  0  0  0  0  0  0
  139.7995   67.4489  227.4141 H   0  0  0  0  0  0  0  0  0  0  0  0
  141.0901   69.3388  228.3405 H   0  0  0  0  0  0  0  0  0  0  0  0
  141.5253   71.3959  227.0033 H   0  0  0  0  0  0  0  0  0  0  0  0
  1  2  2  0
  2  3  1  0
  3  4  1  0
  4  5  1  0
  5  6  2  0
  5  7  1  0
  7  8  1  0
  8  9  1  0
  9 10  1  0
  9 11  1  0
 11 12  1  0
 11 13  1  0
 13 14  1  0
 14 15  1  0
  2 16  1  0
 16 17  2  0
 17 18  1  0
 18 19  2  0
 19 20  1  0
 20 21  2  0
 21 22  1  0
 22 23  2  0
 23 24  1  0
 24 25  2  0
 13  7  1  0
 25 16  1  0
 24 19  1  0
  3 26  1  0
  4 27  1  0
  4 28  1  0
  8 29  1  0
  8 30  1  0
  9 31  1  6
 10 32  1  0
 11 33  1  6
 12 34  1  0
 13 35  1  1
 14 36  1  0
 14 37  1  0
 15 38  1  0
 17 39  1  0
 18 40  1  0
 20 41  1  0
 21 42  1  0
 22 43  1  0
 23 44  1  0
M  END
>  <smiles>  (38) 
O=C(NCC(=O)N1C[C@H](O)[C@H](O)[C@H]1CO)c1ccc2ccccc2n1

>  <score_type>  (38) 
oracle

>  <origin>  (38) 
autodockgpu

>  <m_score__min__energy>  (38) 
-7.2400000000000002

>  <m_primary>  (38) 
energy

>  <rmsd>  (38) 
3.5631162612784197

>  <m_score__min__rmsd>  (38) 
3.5631162612784197

>  <meeko>  (38) 
{"free_energy": -6.6, "intermolecular_energy": -8.99, "internal_energy": -3.38, "cluster_size": 5, "cluster_id": 2, "rank_in_cluster": 2}

>  <energy>  (38) 
-4.81

>  <cluster_rmsd>  (38) 
0.0

>  <cluster>  (38) 
6

$$$$

     RDKit          3D

 44 46  0  0  0  0  0  0  0  0999 V2000
  140.6370   71.5210  221.3580 O   0  0  0  0  0  0  0  0  0  0  0  0
  140.1630   72.0460  222.4060 C   0  0  0  0  0  0  0  0  0  0  0  0
  139.6290   73.3570  222.2670 N   0  0  0  0  0  0  0  0  0  0  0  0
  139.6970   73.9350  220.9170 C   0  0  0  0  0  0  0  0  0  0  0  0
  141.0630   74.4020  220.6620 C   0  0  0  0  0  0  0  0  0  0  0  0
  141.3380   75.6000  220.9900 O   0  0  0  0  0  0  0  0  0  0  0  0
  142.1040   73.6480  220.0860 N   0  0  0  0  0  0  0  0  0  0  0  0
  142.3460   73.5350  218.6370 C   0  0  0  0  0  0  0  0  0  0  0  0
  142.4610   72.0140  218.5560 C   0  0  2  0  0  0  0  0  0  0  0  0
  141.2380   71.4290  218.8900 O   0  0  0  0  0  0  0  0  0  0  0  0
  143.4210   71.7250  219.6800 C   0  0  2  0  0  0  0  0  0  0  0  0
  143.2230   70.4660  220.2360 O   0  0  0  0  0  0  0  0  0  0  0  0
  143.1450   72.8310  220.6690 C   0  0  1  0  0  0  0  0  0  0  0  0
  144.3970   73.6780  220.8420 C   0  0  0  0  0  0  0  0  0  0  0  0
  144.0980   74.9750  220.4640 O   0  0  0  0  0  0  0  0  0  0  0  0
  140.1570   71.3600  223.6910 C   0  0  0  0  0  0  0  0  0  0  0  0
  139.6420   70.0840  223.7300 C   0  0  0  0  0  0  0  0  0  0  0  0
  139.5810   69.3280  224.8910 C   0  0  0  0  0  0  0  0  0  0  0  0
  140.0850   69.9570  226.0330 C   0  0  0  0  0  0  0  0  0  0  0  0
  140.0380   69.2330  227.1990 C   0  0  0  0  0  0  0  0  0  0  0  0
  140.5120   69.7810  228.3620 C   0  0  0  0  0  0  0  0  0  0  0  0
  141.0270   71.0560  228.3230 C   0  0  0  0  0  0  0  0  0  0  0  0
  141.0820   71.8040  227.1460 C   0  0  0  0  0  0  0  0  0  0  0  0
  140.6010   71.2350  225.9980 C   0  0  0  0  0  0  0  0  0  0  0  0
  140.6210   71.8970  224.8260 N   0  0  0  0  0  0  0  0  0  0  0  0
  139.2160   73.8750  223.0720 H   0  0  0  0  0  0  0  0  0  0  0  0
  139.4250   73.1700  220.1749 H   0  0  0  0  0  0  0  0  0  0  0  0
  138.9968   74.7799  220.8405 H   0  0  0  0  0  0  0  0  0  0  0  0
  141.5044   73.9210  218.0431 H   0  0  0  0  0  0  0  0  0  0  0  0
  143.2019   74.1044  218.2456 H   0  0  0  0  0  0  0  0  0  0  0  0
  142.7609   71.6462  217.5636 H   0  0  0  0  0  0  0  0  0  0  0  0
  141.2030   71.1610  219.8420 H   0  0  0  0  0  0  0  0  0  0  0  0
  144.4682   71.7040  219.3439 H   0  0  0  0  0  0  0  0  0  0  0  0
  142.3010   70.2820  220.4710 H   0  0  0  0  0  0  0  0  0  0  0  0
  142.8486   72.4279  221.6486 H   0  0  0  0  0  0  0  0  0  0  0  0
  144.7153   73.6611  221.8948 H   0  0  0  0  0  0  0  0  0  0  0  0
  145.2133   73.2802  220.2211 H   0  0  0  0  0  0  0  0  0  0  0  0
  143.3700   75.3380  221.0250 H   0  0  0  0  0  0  0  0  0  0  0  0
  139.2611   69.6435  222.7968 H   0  0  0  0  0  0  0  0  0  0  0  0
  139.1668   68.3092  224.9117 H   0  0  0  0  0  0  0  0  0  0  0  0
  139.6207   68.2152  227.1993 H   0  0  0  0  0  0  0  0  0  0  0  0
  140.4814   69.2148  229.3046 H   0  0  0  0  0  0  0  0  0  0  0  0
  141.4092   71.5021  229.2530 H   0  0  0  0  0  0  0  0  0  0  0  0
  141.4999   72.8215  227.1412 H   0  0  0  0  0  0  0  0  0  0  0  0
  1  2  2  0
  2  3  1  0
  3  4  1  0
  4  5  1  0
  5  6  2  0
  5  7  1  0
  7  8  1  0
  8  9  1  0
  9 10  1  0
  9 11  1  0
 11 12  1  0
 11 13  1  0
 13 14  1  0
 14 15  1  0
  2 16  1  0
 16 17  2  0
 17 18  1  0
 18 19  2  0
 19 20  1  0
 20 21  2  0
 21 22  1  0
 22 23  2  0
 23 24  1  0
 24 25  2  0
 13  7  1  0
 25 16  1  0
 24 19  1  0
  3 26  1  0
  4 27  1  0
  4 28  1  0
  8 29  1  0
  8 30  1  0
  9 31  1  6
 10 32  1  0
 11 33  1  6
 12 34  1  0
 13 35  1  1
 14 36  1  0
 14 37  1  0
 15 38  1  0
 17 39  1  0
 18 40  1  0
 20 41  1  0
 21 42  1  0
 22 43  1  0
 23 44  1  0
M  END
>  <smiles>  (39) 
O=C(NCC(=O)N1C[C@H](O)[C@H](O)[C@H]1CO)c1ccc2ccccc2n1

>  <score_type>  (39) 
oracle

>  <origin>  (39) 
autodockgpu

>  <m_score__min__energy>  (39) 
-7.2400000000000002

>  <m_primary>  (39) 
energy

>  <rmsd>  (39) 
3.2803980864144613

>  <m_score__min__rmsd>  (39) 
3.2803980864144613

>  <meeko>  (39) 
{"free_energy": -5.36, "intermolecular_energy": -7.75, "internal_energy": -4.52, "cluster_size": 12, "cluster_id": 1, "rank_in_cluster": 12}

>  <energy>  (39) 
-4.72

>  <cluster_rmsd>  (39) 
0.22

>  <cluster>  (39) 
6

$$$$

     RDKit          3D

 44 46  0  0  0  0  0  0  0  0999 V2000
  137.7920   76.8640  220.8260 O   0  0  0  0  0  0  0  0  0  0  0  0
  138.6190   76.7500  221.7760 C   0  0  0  0  0  0  0  0  0  0  0  0
  138.8000   75.4420  222.3010 N   0  0  0  0  0  0  0  0  0  0  0  0
  137.9980   74.3840  221.6690 C   0  0  0  0  0  0  0  0  0  0  0  0
  138.6290   73.9910  220.4060 C   0  0  0  0  0  0  0  0  0  0  0  0
  137.9110   73.3550  219.5710 O   0  0  0  0  0  0  0  0  0  0  0  0
  139.9590   74.2520  220.0270 N   0  0  0  0  0  0  0  0  0  0  0  0
  141.1190   73.4530  220.4580 C   0  0  0  0  0  0  0  0  0  0  0  0
  142.0130   74.6020  220.9220 C   0  0  2  0  0  0  0  0  0  0  0  0
  141.4300   75.2400  222.0190 O   0  0  0  0  0  0  0  0  0  0  0  0
  141.9230   75.5440  219.7520 C   0  0  2  0  0  0  0  0  0  0  0  0
  142.0860   76.8730  220.1260 O   0  0  0  0  0  0  0  0  0  0  0  0
  140.5450   75.2780  219.1930 C   0  0  1  0  0  0  0  0  0  0  0  0
  140.6710   74.7470  217.7730 C   0  0  0  0  0  0  0  0  0  0  0  0
  139.9460   73.5730  217.6850 O   0  0  0  0  0  0  0  0  0  0  0  0
  139.3540   77.8880  222.3130 C   0  0  0  0  0  0  0  0  0  0  0  0
  138.6270   78.8950  222.9070 C   0  0  0  0  0  0  0  0  0  0  0  0
  139.2110   80.0280  223.4540 C   0  0  0  0  0  0  0  0  0  0  0  0
  140.6050   80.0780  223.3620 C   0  0  0  0  0  0  0  0  0  0  0  0
  141.2110   81.1890  223.8950 C   0  0  0  0  0  0  0  0  0  0  0  0
  142.5740   81.3130  223.8440 C   0  0  0  0  0  0  0  0  0  0  0  0
  143.3010   80.3060  223.2510 C   0  0  0  0  0  0  0  0  0  0  0  0
  142.7000   79.1720  222.7040 C   0  0  0  0  0  0  0  0  0  0  0  0
  141.3360   79.0720  222.7680 C   0  0  0  0  0  0  0  0  0  0  0  0
  140.6870   78.0070  222.2610 N   0  0  0  0  0  0  0  0  0  0  0  0
  139.4590   75.2450  223.0850 H   0  0  0  0  0  0  0  0  0  0  0  0
  137.9432   73.5137  222.3394 H   0  0  0  0  0  0  0  0  0  0  0  0
  136.9816   74.7569  221.4742 H   0  0  0  0  0  0  0  0  0  0  0  0
  140.8680   72.7639  221.2779 H   0  0  0  0  0  0  0  0  0  0  0  0
  141.5507   72.7833  219.6996 H   0  0  0  0  0  0  0  0  0  0  0  0
  143.0280   74.2859  221.2045 H   0  0  0  0  0  0  0  0  0  0  0  0
  141.8010   76.1470  222.1600 H   0  0  0  0  0  0  0  0  0  0  0  0
  142.7230   75.3765  219.0158 H   0  0  0  0  0  0  0  0  0  0  0  0
  142.2100   76.9990  221.0790 H   0  0  0  0  0  0  0  0  0  0  0  0
  139.9338   76.1924  219.1792 H   0  0  0  0  0  0  0  0  0  0  0  0
  140.2715   75.4856  217.0624 H   0  0  0  0  0  0  0  0  0  0  0  0
  141.7273   74.5605  217.5294 H   0  0  0  0  0  0  0  0  0  0  0  0
  139.0320   73.7040  218.0370 H   0  0  0  0  0  0  0  0  0  0  0  0
  137.5323   78.7965  222.9498 H   0  0  0  0  0  0  0  0  0  0  0  0
  138.6210   80.8279  223.9252 H   0  0  0  0  0  0  0  0  0  0  0  0
  140.6029   81.9778  224.3620 H   0  0  0  0  0  0  0  0  0  0  0  0
  143.0755   82.1960  224.2667 H   0  0  0  0  0  0  0  0  0  0  0  0
  144.3962   80.3987  223.2067 H   0  0  0  0  0  0  0  0  0  0  0  0
  143.3042   78.3814  222.2350 H   0  0  0  0  0  0  0  0  0  0  0  0
  1  2  2  0
  2  3  1  0
  3  4  1  0
  4  5  1  0
  5  6  2  0
  5  7  1  0
  7  8  1  0
  8  9  1  0
  9 10  1  0
  9 11  1  0
 11 12  1  0
 11 13  1  0
 13 14  1  0
 14 15  1  0
  2 16  1  0
 16 17  2  0
 17 18  1  0
 18 19  2  0
 19 20  1  0
 20 21  2  0
 21 22  1  0
 22 23  2  0
 23 24  1  0
 24 25  2  0
 13  7  1  0
 25 16  1  0
 24 19  1  0
  3 26  1  0
  4 27  1  0
  4 28  1  0
  8 29  1  0
  8 30  1  0
  9 31  1  1
 10 32  1  0
 11 33  1  6
 12 34  1  0
 13 35  1  6
 14 36  1  0
 14 37  1  0
 15 38  1  0
 17 39  1  0
 18 40  1  0
 20 41  1  0
 21 42  1  0
 22 43  1  0
 23 44  1  0
M  END
>  <smiles>  (40) 
O=C(NCC(=O)N1C[C@H](O)[C@H](O)[C@H]1CO)c1ccc2ccccc2n1

>  <score_type>  (40) 
oracle

>  <origin>  (40) 
autodockgpu

>  <m_score__min__energy>  (40) 
-7.2400000000000002

>  <m_primary>  (40) 
energy

>  <rmsd>  (40) 
7.340497820082307

>  <m_score__min__rmsd>  (40) 
7.340497820082307

>  <meeko>  (40) 
{"free_energy": -4.71, "intermolecular_energy": -7.09, "internal_energy": -5.52, "cluster_size": 12, "cluster_id": 6, "rank_in_cluster": 3}

>  <energy>  (40) 
-4.71

>  <cluster_rmsd>  (40) 
0.29

>  <cluster>  (40) 
6

$$$$

     RDKit          3D

 44 46  0  0  0  0  0  0  0  0999 V2000
  137.8660   76.7680  220.7960 O   0  0  0  0  0  0  0  0  0  0  0  0
  138.6550   76.6730  221.7800 C   0  0  0  0  0  0  0  0  0  0  0  0
  138.8090   75.3760  222.3410 N   0  0  0  0  0  0  0  0  0  0  0  0
  138.0270   74.3070  221.7030 C   0  0  0  0  0  0  0  0  0  0  0  0
  138.6120   73.9980  220.3950 C   0  0  0  0  0  0  0  0  0  0  0  0
  137.8620   73.4220  219.5440 O   0  0  0  0  0  0  0  0  0  0  0  0
  139.9310   74.2780  219.9890 N   0  0  0  0  0  0  0  0  0  0  0  0
  141.1040   73.4630  220.3500 C   0  0  0  0  0  0  0  0  0  0  0  0
  142.0090   74.5930  220.8380 C   0  0  2  0  0  0  0  0  0  0  0  0
  141.4590   75.1810  221.9780 O   0  0  0  0  0  0  0  0  0  0  0  0
  141.8840   75.5850  219.7130 C   0  0  2  0  0  0  0  0  0  0  0  0
  142.0570   76.8970  220.1400 O   0  0  0  0  0  0  0  0  0  0  0  0
  140.4910   75.3410  219.1840 C   0  0  1  0  0  0  0  0  0  0  0  0
  140.5750   74.8730  217.7390 C   0  0  0  0  0  0  0  0  0  0  0  0
  139.3100   74.4870  217.3360 O   0  0  0  0  0  0  0  0  0  0  0  0
  139.3740   77.8200  222.3180 C   0  0  0  0  0  0  0  0  0  0  0  0
  138.6330   78.8150  222.9150 C   0  0  0  0  0  0  0  0  0  0  0  0
  139.2020   79.9550  223.4640 C   0  0  0  0  0  0  0  0  0  0  0  0
  140.5940   80.0260  223.3710 C   0  0  0  0  0  0  0  0  0  0  0  0
  141.1850   81.1440  223.9070 C   0  0  0  0  0  0  0  0  0  0  0  0
  142.5470   81.2870  223.8540 C   0  0  0  0  0  0  0  0  0  0  0  0
  143.2870   80.2930  223.2580 C   0  0  0  0  0  0  0  0  0  0  0  0
  142.7010   79.1510  222.7090 C   0  0  0  0  0  0  0  0  0  0  0  0
  141.3390   79.0320  222.7740 C   0  0  0  0  0  0  0  0  0  0  0  0
  140.7050   77.9580  222.2660 N   0  0  0  0  0  0  0  0  0  0  0  0
  139.4370   75.1950  223.1540 H   0  0  0  0  0  0  0  0  0  0  0  0
  138.0468   73.4081  222.3367 H   0  0  0  0  0  0  0  0  0  0  0  0
  136.9857   74.6371  221.5738 H   0  0  0  0  0  0  0  0  0  0  0  0
  140.8780   72.7376  221.1455 H   0  0  0  0  0  0  0  0  0  0  0  0
  141.5141   72.8282  219.5507 H   0  0  0  0  0  0  0  0  0  0  0  0
  143.0320   74.2671  221.0772 H   0  0  0  0  0  0  0  0  0  0  0  0
  141.8190   76.0890  222.1380 H   0  0  0  0  0  0  0  0  0  0  0  0
  142.6620   75.4514  218.9469 H   0  0  0  0  0  0  0  0  0  0  0  0
  142.2340   76.9790  221.0900 H   0  0  0  0  0  0  0  0  0  0  0  0
  139.8790   76.2540  219.2285 H   0  0  0  0  0  0  0  0  0  0  0  0
  140.9344   75.6945  217.1018 H   0  0  0  0  0  0  0  0  0  0  0  0
  141.2754   74.0292  217.6529 H   0  0  0  0  0  0  0  0  0  0  0  0
  138.6630   74.5960  218.0750 H   0  0  0  0  0  0  0  0  0  0  0  0
  137.5398   78.7009  222.9587 H   0  0  0  0  0  0  0  0  0  0  0  0
  138.6010   80.7451  223.9378 H   0  0  0  0  0  0  0  0  0  0  0  0
  140.5667   81.9226  224.3776 H   0  0  0  0  0  0  0  0  0  0  0  0
  143.0367   82.1760  224.2782 H   0  0  0  0  0  0  0  0  0  0  0  0
  144.3807   80.4016  223.2121 H   0  0  0  0  0  0  0  0  0  0  0  0
  143.3158   78.3698  222.2380 H   0  0  0  0  0  0  0  0  0  0  0  0
  1  2  2  0
  2  3  1  0
  3  4  1  0
  4  5  1  0
  5  6  2  0
  5  7  1  0
  7  8  1  0
  8  9  1  0
  9 10  1  0
  9 11  1  0
 11 12  1  0
 11 13  1  0
 13 14  1  0
 14 15  1  0
  2 16  1  0
 16 17  2  0
 17 18  1  0
 18 19  2  0
 19 20  1  0
 20 21  2  0
 21 22  1  0
 22 23  2  0
 23 24  1  0
 24 25  2  0
 13  7  1  0
 25 16  1  0
 24 19  1  0
  3 26  1  0
  4 27  1  0
  4 28  1  0
  8 29  1  0
  8 30  1  0
  9 31  1  1
 10 32  1  0
 11 33  1  6
 12 34  1  0
 13 35  1  6
 14 36  1  0
 14 37  1  0
 15 38  1  0
 17 39  1  0
 18 40  1  0
 20 41  1  0
 21 42  1  0
 22 43  1  0
 23 44  1  0
M  END
>  <smiles>  (41) 
O=C(NCC(=O)N1C[C@H](O)[C@H](O)[C@H]1CO)c1ccc2ccccc2n1

>  <score_type>  (41) 
oracle

>  <origin>  (41) 
autodockgpu

>  <m_score__min__energy>  (41) 
-7.2400000000000002

>  <m_primary>  (41) 
energy

>  <rmsd>  (41) 
7.30577509713243

>  <m_score__min__rmsd>  (41) 
7.30577509713243

>  <meeko>  (41) 
{"free_energy": -4.81, "intermolecular_energy": -7.2, "internal_energy": -5.38, "cluster_size": 12, "cluster_id": 6, "rank_in_cluster": 1}

>  <energy>  (41) 
-4.7

>  <cluster_rmsd>  (41) 
0.38

>  <cluster>  (41) 
6

$$$$

     RDKit          3D

 44 46  0  0  0  0  0  0  0  0999 V2000
  138.8710   75.2630  221.7950 O   0  0  0  0  0  0  0  0  0  0  0  0
  140.0260   75.7450  221.9720 C   0  0  0  0  0  0  0  0  0  0  0  0
  141.1190   74.8720  221.7170 N   0  0  0  0  0  0  0  0  0  0  0  0
  140.7630   73.5140  221.2800 C   0  0  0  0  0  0  0  0  0  0  0  0
  141.4810   73.2050  220.0400 C   0  0  0  0  0  0  0  0  0  0  0  0
  140.8210   72.6360  219.1130 O   0  0  0  0  0  0  0  0  0  0  0  0
  142.8360   73.4770  219.7760 N   0  0  0  0  0  0  0  0  0  0  0  0
  143.5920   72.9200  218.6410 C   0  0  0  0  0  0  0  0  0  0  0  0
  144.8110   72.4230  219.4160 C   0  0  2  0  0  0  0  0  0  0  0  0
  144.4300   71.4040  220.2920 O   0  0  0  0  0  0  0  0  0  0  0  0
  145.1500   73.6300  220.2490 C   0  0  2  0  0  0  0  0  0  0  0  0
  145.7630   73.2920  221.4500 O   0  0  0  0  0  0  0  0  0  0  0  0
  143.8110   74.2940  220.4640 C   0  0  1  0  0  0  0  0  0  0  0  0
  143.8280   75.6780  219.8330 C   0  0  0  0  0  0  0  0  0  0  0  0
  142.6340   76.3070  220.1370 O   0  0  0  0  0  0  0  0  0  0  0  0
  140.2420   77.1180  222.4100 C   0  0  0  0  0  0  0  0  0  0  0  0
  139.1320   77.8760  222.7060 C   0  0  0  0  0  0  0  0  0  0  0  0
  139.2070   79.1930  223.1320 C   0  0  0  0  0  0  0  0  0  0  0  0
  140.5030   79.7060  223.2450 C   0  0  0  0  0  0  0  0  0  0  0  0
  140.6080   81.0090  223.6660 C   0  0  0  0  0  0  0  0  0  0  0  0
  141.8440   81.5830  223.8010 C   0  0  0  0  0  0  0  0  0  0  0  0
  142.9550   80.8260  223.5070 C   0  0  0  0  0  0  0  0  0  0  0  0
  142.8630   79.5010  223.0780 C   0  0  0  0  0  0  0  0  0  0  0  0
  141.6170   78.9500  222.9500 C   0  0  0  0  0  0  0  0  0  0  0  0
  141.4520   77.6780  222.5420 N   0  0  0  0  0  0  0  0  0  0  0  0
  142.1100   75.1750  221.8330 H   0  0  0  0  0  0  0  0  0  0  0  0
  141.0453   72.7906  222.0591 H   0  0  0  0  0  0  0  0  0  0  0  0
  139.6787   73.4535  221.1051 H   0  0  0  0  0  0  0  0  0  0  0  0
  143.0525   72.1004  218.1439 H   0  0  0  0  0  0  0  0  0  0  0  0
  143.7982   73.6141  217.8130 H   0  0  0  0  0  0  0  0  0  0  0  0
  145.6186   72.0432  218.7730 H   0  0  0  0  0  0  0  0  0  0  0  0
  144.9640   71.4130  221.1250 H   0  0  0  0  0  0  0  0  0  0  0  0
  145.8802   74.2887  219.7561 H   0  0  0  0  0  0  0  0  0  0  0  0
  145.8970   72.3380  221.5660 H   0  0  0  0  0  0  0  0  0  0  0  0
  143.5791   74.3923  221.5348 H   0  0  0  0  0  0  0  0  0  0  0  0
  144.6691   76.2608  220.2366 H   0  0  0  0  0  0  0  0  0  0  0  0
  143.9474   75.5967  218.7425 H   0  0  0  0  0  0  0  0  0  0  0  0
  142.6510   76.6510  221.0640 H   0  0  0  0  0  0  0  0  0  0  0  0
  138.1389   77.4152  222.5995 H   0  0  0  0  0  0  0  0  0  0  0  0
  138.3130   79.7905  223.3641 H   0  0  0  0  0  0  0  0  0  0  0  0
  139.7021   81.5898  223.8941 H   0  0  0  0  0  0  0  0  0  0  0  0
  141.9464   82.6255  224.1368 H   0  0  0  0  0  0  0  0  0  0  0  0
  143.9507   81.2812  223.6139 H   0  0  0  0  0  0  0  0  0  0  0  0
  143.7663   78.9164  222.8493 H   0  0  0  0  0  0  0  0  0  0  0  0
  1  2  2  0
  2  3  1  0
  3  4  1  0
  4  5  1  0
  5  6  2  0
  5  7  1  0
  7  8  1  0
  8  9  1  0
  9 10  1  0
  9 11  1  0
 11 12  1  0
 11 13  1  0
 13 14  1  0
 14 15  1  0
  2 16  1  0
 16 17  2  0
 17 18  1  0
 18 19  2  0
 19 20  1  0
 20 21  2  0
 21 22  1  0
 22 23  2  0
 23 24  1  0
 24 25  2  0
 13  7  1  0
 25 16  1  0
 24 19  1  0
  3 26  1  0
  4 27  1  0
  4 28  1  0
  8 29  1  0
  8 30  1  0
  9 31  1  6
 10 32  1  0
 11 33  1  6
 12 34  1  0
 13 35  1  1
 14 36  1  0
 14 37  1  0
 15 38  1  0
 17 39  1  0
 18 40  1  0
 20 41  1  0
 21 42  1  0
 22 43  1  0
 23 44  1  0
M  END
>  <smiles>  (42) 
O=C(NCC(=O)N1C[C@H](O)[C@H](O)[C@H]1CO)c1ccc2ccccc2n1

>  <score_type>  (42) 
oracle

>  <origin>  (42) 
autodockgpu

>  <m_score__min__energy>  (42) 
-7.2400000000000002

>  <m_primary>  (42) 
energy

>  <rmsd>  (42) 
7.567551737834744

>  <m_score__min__rmsd>  (42) 
7.567551737834744

>  <meeko>  (42) 
{"free_energy": -6.46, "intermolecular_energy": -8.85, "internal_energy": -3.8, "cluster_size": 8, "cluster_id": 3, "rank_in_cluster": 3}

>  <energy>  (42) 
-4.69

>  <cluster_rmsd>  (42) 
0.18

>  <cluster>  (42) 
6

$$$$

     RDKit          3D

 44 46  0  0  0  0  0  0  0  0999 V2000
  138.2530   72.1990  222.2090 O   0  0  0  0  0  0  0  0  0  0  0  0
  138.8790   71.1200  222.4160 C   0  0  0  0  0  0  0  0  0  0  0  0
  139.1510   70.3210  221.2730 N   0  0  0  0  0  0  0  0  0  0  0  0
  138.6670   70.8530  219.9910 C   0  0  0  0  0  0  0  0  0  0  0  0
  139.6710   71.7690  219.4410 C   0  0  0  0  0  0  0  0  0  0  0  0
  140.3290   71.3700  218.4280 O   0  0  0  0  0  0  0  0  0  0  0  0
  139.9780   73.0530  219.9290 N   0  0  0  0  0  0  0  0  0  0  0  0
  141.3410   73.5280  220.2230 C   0  0  0  0  0  0  0  0  0  0  0  0
  141.0800   74.0800  221.6240 C   0  0  2  0  0  0  0  0  0  0  0  0
  140.7330   73.0380  222.4850 O   0  0  0  0  0  0  0  0  0  0  0  0
  139.8430   74.9060  221.3940 C   0  0  2  0  0  0  0  0  0  0  0  0
  139.0450   74.9940  222.5300 O   0  0  0  0  0  0  0  0  0  0  0  0
  139.1450   74.1860  220.2660 C   0  0  1  0  0  0  0  0  0  0  0  0
  139.0530   75.1080  219.0590 C   0  0  0  0  0  0  0  0  0  0  0  0
  139.1030   74.3300  217.9160 O   0  0  0  0  0  0  0  0  0  0  0  0
  139.3050   70.7060  223.7470 C   0  0  0  0  0  0  0  0  0  0  0  0
  139.0340   69.4120  224.1290 C   0  0  0  0  0  0  0  0  0  0  0  0
  139.3890   68.9000  225.3690 C   0  0  0  0  0  0  0  0  0  0  0  0
  140.0490   69.7970  226.2130 C   0  0  0  0  0  0  0  0  0  0  0  0
  140.4130   69.3180  227.4470 C   0  0  0  0  0  0  0  0  0  0  0  0
  141.0630   70.1370  228.3320 C   0  0  0  0  0  0  0  0  0  0  0  0
  141.3340   71.4300  227.9500 C   0  0  0  0  0  0  0  0  0  0  0  0
  140.9710   71.9320  226.6990 C   0  0  0  0  0  0  0  0  0  0  0  0
  140.3220   71.0940  225.8330 C   0  0  0  0  0  0  0  0  0  0  0  0
  139.9410   71.5080  224.6100 N   0  0  0  0  0  0  0  0  0  0  0  0
  139.6610   69.4130  221.3390 H   0  0  0  0  0  0  0  0  0  0  0  0
  138.5005   70.0238  219.2876 H   0  0  0  0  0  0  0  0  0  0  0  0
  137.7207   71.3915  220.1473 H   0  0  0  0  0  0  0  0  0  0  0  0
  142.0750   72.7087  220.2286 H   0  0  0  0  0  0  0  0  0  0  0  0
  141.7709   74.2358  219.4990 H   0  0  0  0  0  0  0  0  0  0  0  0
  141.9392   74.6139  222.0562 H   0  0  0  0  0  0  0  0  0  0  0  0
  139.9510   73.2660  223.0470 H   0  0  0  0  0  0  0  0  0  0  0  0
  140.0762   75.9535  221.1523 H   0  0  0  0  0  0  0  0  0  0  0  0
  138.8700   74.1400  222.9520 H   0  0  0  0  0  0  0  0  0  0  0  0
  138.1303   73.8753  220.5554 H   0  0  0  0  0  0  0  0  0  0  0  0
  138.1057   75.6663  219.0883 H   0  0  0  0  0  0  0  0  0  0  0  0
  139.8853   75.8272  219.0659 H   0  0  0  0  0  0  0  0  0  0  0  0
  139.6530   73.5230  218.0720 H   0  0  0  0  0  0  0  0  0  0  0  0
  138.5122   68.7535  223.4190 H   0  0  0  0  0  0  0  0  0  0  0  0
  139.1672   67.8642  225.6657 H   0  0  0  0  0  0  0  0  0  0  0  0
  140.1832   68.2787  227.7245 H   0  0  0  0  0  0  0  0  0  0  0  0
  141.3612   69.7691  229.3248 H   0  0  0  0  0  0  0  0  0  0  0  0
  141.8558   72.0928  228.6559 H   0  0  0  0  0  0  0  0  0  0  0  0
  141.1998   72.9705  226.4175 H   0  0  0  0  0  0  0  0  0  0  0  0
  1  2  2  0
  2  3  1  0
  3  4  1  0
  4  5  1  0
  5  6  2  0
  5  7  1  0
  7  8  1  0
  8  9  1  0
  9 10  1  0
  9 11  1  0
 11 12  1  0
 11 13  1  0
 13 14  1  0
 14 15  1  0
  2 16  1  0
 16 17  2  0
 17 18  1  0
 18 19  2  0
 19 20  1  0
 20 21  2  0
 21 22  1  0
 22 23  2  0
 23 24  1  0
 24 25  2  0
 13  7  1  0
 25 16  1  0
 24 19  1  0
  3 26  1  0
  4 27  1  0
  4 28  1  0
  8 29  1  0
  8 30  1  0
  9 31  1  1
 10 32  1  0
 11 33  1  6
 12 34  1  0
 13 35  1  1
 14 36  1  0
 14 37  1  0
 15 38  1  0
 17 39  1  0
 18 40  1  0
 20 41  1  0
 21 42  1  0
 22 43  1  0
 23 44  1  0
M  END
>  <smiles>  (43) 
O=C(NCC(=O)N1C[C@H](O)[C@H](O)[C@H]1CO)c1ccc2ccccc2n1

>  <score_type>  (43) 
oracle

>  <origin>  (43) 
autodockgpu

>  <m_score__min__energy>  (43) 
-7.2400000000000002

>  <m_primary>  (43) 
energy

>  <rmsd>  (43) 
3.2186646666630483

>  <m_score__min__rmsd>  (43) 
3.2186646666630483

>  <meeko>  (43) 
{"free_energy": -5.2, "intermolecular_energy": -7.59, "internal_energy": -4.76, "cluster_size": 2, "cluster_id": 4, "rank_in_cluster": 2}

>  <energy>  (43) 
-4.68

>  <cluster_rmsd>  (43) 
0.26

>  <cluster>  (43) 
6

$$$$

     RDKit          3D

 44 46  0  0  0  0  0  0  0  0999 V2000
  137.7680   76.8940  220.7660 O   0  0  0  0  0  0  0  0  0  0  0  0
  138.5380   76.7700  221.7610 C   0  0  0  0  0  0  0  0  0  0  0  0
  138.6380   75.4660  222.3200 N   0  0  0  0  0  0  0  0  0  0  0  0
  137.8300   74.4270  221.6660 C   0  0  0  0  0  0  0  0  0  0  0  0
  138.5400   73.9380  220.4810 C   0  0  0  0  0  0  0  0  0  0  0  0
  137.8680   73.2670  219.6360 O   0  0  0  0  0  0  0  0  0  0  0  0
  139.9020   74.1420  220.1880 N   0  0  0  0  0  0  0  0  0  0  0  0
  141.0060   73.3640  220.7780 C   0  0  0  0  0  0  0  0  0  0  0  0
  141.8880   74.5350  221.2100 C   0  0  2  0  0  0  0  0  0  0  0  0
  141.2370   75.2780  222.1970 O   0  0  0  0  0  0  0  0  0  0  0  0
  141.9110   75.3710  219.9580 C   0  0  2  0  0  0  0  0  0  0  0  0
  142.0770   76.7250  220.2270 O   0  0  0  0  0  0  0  0  0  0  0  0
  140.5760   75.0800  219.3170 C   0  0  1  0  0  0  0  0  0  0  0  0
  140.7980   74.4230  217.9630 C   0  0  0  0  0  0  0  0  0  0  0  0
  140.0240   73.2780  217.9050 O   0  0  0  0  0  0  0  0  0  0  0  0
  139.2890   77.8890  222.3140 C   0  0  0  0  0  0  0  0  0  0  0  0
  138.5850   78.8520  223.0020 C   0  0  0  0  0  0  0  0  0  0  0  0
  139.1850   79.9630  223.5740 C   0  0  0  0  0  0  0  0  0  0  0  0
  140.5700   80.0410  223.4050 C   0  0  0  0  0  0  0  0  0  0  0  0
  141.1920   81.1320  223.9610 C   0  0  0  0  0  0  0  0  0  0  0  0
  142.5480   81.2800  223.8370 C   0  0  0  0  0  0  0  0  0  0  0  0
  143.2520   80.3180  223.1500 C   0  0  0  0  0  0  0  0  0  0  0  0
  142.6340   79.2040  222.5790 C   0  0  0  0  0  0  0  0  0  0  0  0
  141.2780   79.0790  222.7160 C   0  0  0  0  0  0  0  0  0  0  0  0
  140.6150   78.0320  222.1920 N   0  0  0  0  0  0  0  0  0  0  0  0
  139.2470   75.2610  223.1420 H   0  0  0  0  0  0  0  0  0  0  0  0
  137.6654   73.5944  222.3657 H   0  0  0  0  0  0  0  0  0  0  0  0
  136.8589   74.8482  221.3669 H   0  0  0  0  0  0  0  0  0  0  0  0
  140.6757   72.7545  221.6320 H   0  0  0  0  0  0  0  0  0  0  0  0
  141.4793   72.6224  220.1177 H   0  0  0  0  0  0  0  0  0  0  0  0
  142.8701   74.2282  221.5992 H   0  0  0  0  0  0  0  0  0  0  0  0
  141.6470   76.1700  222.3190 H   0  0  0  0  0  0  0  0  0  0  0  0
  142.7608   75.1252  219.3043 H   0  0  0  0  0  0  0  0  0  0  0  0
  142.1820   76.9270  221.1690 H   0  0  0  0  0  0  0  0  0  0  0  0
  139.9905   76.0004  219.1752 H   0  0  0  0  0  0  0  0  0  0  0  0
  140.5007   75.1143  217.1607 H   0  0  0  0  0  0  0  0  0  0  0  0
  141.8606   74.1697  217.8337 H   0  0  0  0  0  0  0  0  0  0  0  0
  139.1020   73.4700  218.2050 H   0  0  0  0  0  0  0  0  0  0  0  0
  137.4960   78.7341  223.1023 H   0  0  0  0  0  0  0  0  0  0  0  0
  138.6130   80.7271  224.1208 H   0  0  0  0  0  0  0  0  0  0  0  0
  140.6026   81.8851  224.5046 H   0  0  0  0  0  0  0  0  0  0  0  0
  143.0621   82.1476  224.2764 H   0  0  0  0  0  0  0  0  0  0  0  0
  144.3413   80.4307  223.0469 H   0  0  0  0  0  0  0  0  0  0  0  0
  143.2199   78.4486  222.0348 H   0  0  0  0  0  0  0  0  0  0  0  0
  1  2  2  0
  2  3  1  0
  3  4  1  0
  4  5  1  0
  5  6  2  0
  5  7  1  0
  7  8  1  0
  8  9  1  0
  9 10  1  0
  9 11  1  0
 11 12  1  0
 11 13  1  0
 13 14  1  0
 14 15  1  0
  2 16  1  0
 16 17  2  0
 17 18  1  0
 18 19  2  0
 19 20  1  0
 20 21  2  0
 21 22  1  0
 22 23  2  0
 23 24  1  0
 24 25  2  0
 13  7  1  0
 25 16  1  0
 24 19  1  0
  3 26  1  0
  4 27  1  0
  4 28  1  0
  8 29  1  0
  8 30  1  0
  9 31  1  1
 10 32  1  0
 11 33  1  6
 12 34  1  0
 13 35  1  6
 14 36  1  0
 14 37  1  0
 15 38  1  0
 17 39  1  0
 18 40  1  0
 20 41  1  0
 21 42  1  0
 22 43  1  0
 23 44  1  0
M  END
>  <smiles>  (44) 
O=C(NCC(=O)N1C[C@H](O)[C@H](O)[C@H]1CO)c1ccc2ccccc2n1

>  <score_type>  (44) 
oracle

>  <origin>  (44) 
autodockgpu

>  <m_score__min__energy>  (44) 
-7.2400000000000002

>  <m_primary>  (44) 
energy

>  <rmsd>  (44) 
7.362749520995594

>  <m_score__min__rmsd>  (44) 
7.362749520995594

>  <meeko>  (44) 
{"free_energy": -4.66, "intermolecular_energy": -7.05, "internal_energy": -5.51, "cluster_size": 12, "cluster_id": 6, "rank_in_cluster": 7}

>  <energy>  (44) 
-4.66

>  <cluster_rmsd>  (44) 
0.43

>  <cluster>  (44) 
6

$$$$

     RDKit          3D

 44 46  0  0  0  0  0  0  0  0999 V2000
  137.7160   76.8080  220.9210 O   0  0  0  0  0  0  0  0  0  0  0  0
  138.5810   76.6950  221.8360 C   0  0  0  0  0  0  0  0  0  0  0  0
  138.7990   75.3830  222.3380 N   0  0  0  0  0  0  0  0  0  0  0  0
  137.9870   74.3220  221.7250 C   0  0  0  0  0  0  0  0  0  0  0  0
  138.6200   73.8920  220.4750 C   0  0  0  0  0  0  0  0  0  0  0  0
  137.9320   73.1560  219.6980 O   0  0  0  0  0  0  0  0  0  0  0  0
  139.9230   74.2160  220.0520 N   0  0  0  0  0  0  0  0  0  0  0  0
  141.1280   73.4410  220.3960 C   0  0  0  0  0  0  0  0  0  0  0  0
  142.0010   74.6000  220.8720 C   0  0  2  0  0  0  0  0  0  0  0  0
  141.4460   75.1700  222.0200 O   0  0  0  0  0  0  0  0  0  0  0  0
  141.8270   75.5870  219.7490 C   0  0  2  0  0  0  0  0  0  0  0  0
  141.9620   76.9040  220.1740 O   0  0  0  0  0  0  0  0  0  0  0  0
  140.4360   75.2970  219.2390 C   0  0  1  0  0  0  0  0  0  0  0  0
  140.5160   74.8310  217.7930 C   0  0  0  0  0  0  0  0  0  0  0  0
  139.2830   74.3150  217.4360 O   0  0  0  0  0  0  0  0  0  0  0  0
  139.3220   77.8360  222.3580 C   0  0  0  0  0  0  0  0  0  0  0  0
  138.6000   78.8610  222.9250 C   0  0  0  0  0  0  0  0  0  0  0  0
  139.1890   79.9980  223.4560 C   0  0  0  0  0  0  0  0  0  0  0  0
  140.5840   80.0340  223.3760 C   0  0  0  0  0  0  0  0  0  0  0  0
  141.1960   81.1490  223.8940 C   0  0  0  0  0  0  0  0  0  0  0  0
  142.5610   81.2590  223.8520 C   0  0  0  0  0  0  0  0  0  0  0  0
  143.2840   80.2350  223.2860 C   0  0  0  0  0  0  0  0  0  0  0  0
  142.6760   79.0950  222.7560 C   0  0  0  0  0  0  0  0  0  0  0  0
  141.3110   79.0100  222.8080 C   0  0  0  0  0  0  0  0  0  0  0  0
  140.6570   77.9410  222.3170 N   0  0  0  0  0  0  0  0  0  0  0  0
  139.4910   75.1850  223.0930 H   0  0  0  0  0  0  0  0  0  0  0  0
  137.9166   73.4678  222.4145 H   0  0  0  0  0  0  0  0  0  0  0  0
  136.9770   74.7041  221.5154 H   0  0  0  0  0  0  0  0  0  0  0  0
  140.9378   72.7082  221.1940 H   0  0  0  0  0  0  0  0  0  0  0  0
  141.5481   72.8208  219.5904 H   0  0  0  0  0  0  0  0  0  0  0  0
  143.0375   74.3087  221.0974 H   0  0  0  0  0  0  0  0  0  0  0  0
  141.7880   76.0850  222.1810 H   0  0  0  0  0  0  0  0  0  0  0  0
  142.5982   75.4789  218.9721 H   0  0  0  0  0  0  0  0  0  0  0  0
  142.1830   76.9920  221.1140 H   0  0  0  0  0  0  0  0  0  0  0  0
  139.7946   76.1891  219.2915 H   0  0  0  0  0  0  0  0  0  0  0  0
  140.7668   75.6809  217.1413 H   0  0  0  0  0  0  0  0  0  0  0  0
  141.2954   74.0624  217.6842 H   0  0  0  0  0  0  0  0  0  0  0  0
  138.9990   73.6230  218.0810 H   0  0  0  0  0  0  0  0  0  0  0  0
  137.5040   78.7741  222.9585 H   0  0  0  0  0  0  0  0  0  0  0  0
  138.6020   80.8117  223.9069 H   0  0  0  0  0  0  0  0  0  0  0  0
  140.5917   81.9518  224.3415 H   0  0  0  0  0  0  0  0  0  0  0  0
  143.0670   82.1457  224.2615 H   0  0  0  0  0  0  0  0  0  0  0  0
  144.3803   80.3169  223.2495 H   0  0  0  0  0  0  0  0  0  0  0  0
  143.2767   78.2888  222.3097 H   0  0  0  0  0  0  0  0  0  0  0  0
  1  2  2  0
  2  3  1  0
  3  4  1  0
  4  5  1  0
  5  6  2  0
  5  7  1  0
  7  8  1  0
  8  9  1  0
  9 10  1  0
  9 11  1  0
 11 12  1  0
 11 13  1  0
 13 14  1  0
 14 15  1  0
  2 16  1  0
 16 17  2  0
 17 18  1  0
 18 19  2  0
 19 20  1  0
 20 21  2  0
 21 22  1  0
 22 23  2  0
 23 24  1  0
 24 25  2  0
 13  7  1  0
 25 16  1  0
 24 19  1  0
  3 26  1  0
  4 27  1  0
  4 28  1  0
  8 29  1  0
  8 30  1  0
  9 31  1  1
 10 32  1  0
 11 33  1  6
 12 34  1  0
 13 35  1  6
 14 36  1  0
 14 37  1  0
 15 38  1  0
 17 39  1  0
 18 40  1  0
 20 41  1  0
 21 42  1  0
 22 43  1  0
 23 44  1  0
M  END
>  <smiles>  (45) 
O=C(NCC(=O)N1C[C@H](O)[C@H](O)[C@H]1CO)c1ccc2ccccc2n1

>  <score_type>  (45) 
oracle

>  <origin>  (45) 
autodockgpu

>  <m_score__min__energy>  (45) 
-7.2400000000000002

>  <m_primary>  (45) 
energy

>  <rmsd>  (45) 
7.309706998721996

>  <m_score__min__rmsd>  (45) 
7.309706998721996

>  <meeko>  (45) 
{"free_energy": -4.72, "intermolecular_energy": -7.11, "internal_energy": -5.54, "cluster_size": 12, "cluster_id": 6, "rank_in_cluster": 2}

>  <energy>  (45) 
-4.62

>  <cluster_rmsd>  (45) 
0.44

>  <cluster>  (45) 
6

$$$$

     RDKit          3D

 44 46  0  0  0  0  0  0  0  0999 V2000
  140.4000   79.9830  218.9550 O   0  0  0  0  0  0  0  0  0  0  0  0
  141.5380   79.6420  219.3850 C   0  0  0  0  0  0  0  0  0  0  0  0
  142.1970   80.5750  220.2320 N   0  0  0  0  0  0  0  0  0  0  0  0
  141.4660   81.8220  220.4980 C   0  0  0  0  0  0  0  0  0  0  0  0
  140.6730   81.6640  221.7210 C   0  0  0  0  0  0  0  0  0  0  0  0
  139.8940   82.6180  222.0360 O   0  0  0  0  0  0  0  0  0  0  0  0
  140.6930   80.5510  222.5840 N   0  0  0  0  0  0  0  0  0  0  0  0
  141.5680   80.4270  223.7620 C   0  0  0  0  0  0  0  0  0  0  0  0
  142.1230   79.0330  223.4730 C   0  0  2  0  0  0  0  0  0  0  0  0
  142.8850   79.0610  222.3040 O   0  0  0  0  0  0  0  0  0  0  0  0
  140.8630   78.2660  223.1730 C   0  0  2  0  0  0  0  0  0  0  0  0
  141.0820   77.2100  222.2950 O   0  0  0  0  0  0  0  0  0  0  0  0
  139.9480   79.3120  222.5830 C   0  0  1  0  0  0  0  0  0  0  0  0
  138.7240   79.4710  223.4720 C   0  0  0  0  0  0  0  0  0  0  0  0
  138.0410   80.6040  223.0680 O   0  0  0  0  0  0  0  0  0  0  0  0
  142.1540   78.3660  219.0430 C   0  0  0  0  0  0  0  0  0  0  0  0
  142.6120   78.2040  217.7550 C   0  0  0  0  0  0  0  0  0  0  0  0
  143.2150   77.0390  217.3080 C   0  0  0  0  0  0  0  0  0  0  0  0
  143.3300   76.0270  218.2660 C   0  0  0  0  0  0  0  0  0  0  0  0
  143.9240   74.8600  217.8520 C   0  0  0  0  0  0  0  0  0  0  0  0
  144.0720   73.8210  218.7320 C   0  0  0  0  0  0  0  0  0  0  0  0
  143.6150   73.9830  220.0190 C   0  0  0  0  0  0  0  0  0  0  0  0
  143.0100   75.1620  220.4550 C   0  0  0  0  0  0  0  0  0  0  0  0
  142.8720   76.1860  219.5560 C   0  0  0  0  0  0  0  0  0  0  0  0
  142.2980   77.3520  219.9050 N   0  0  0  0  0  0  0  0  0  0  0  0
  143.1400   80.3870  220.6380 H   0  0  0  0  0  0  0  0  0  0  0  0
  142.1814   82.6475  220.6274 H   0  0  0  0  0  0  0  0  0  0  0  0
  140.8000   82.0478  219.6521 H   0  0  0  0  0  0  0  0  0  0  0  0
  142.3565   81.1939  223.7773 H   0  0  0  0  0  0  0  0  0  0  0  0
  141.0810   80.5583  224.7395 H   0  0  0  0  0  0  0  0  0  0  0  0
  142.7481   78.6290  224.2830 H   0  0  0  0  0  0  0  0  0  0  0  0
  142.8350   78.2060  221.8090 H   0  0  0  0  0  0  0  0  0  0  0  0
  140.4408   77.7845  224.0674 H   0  0  0  0  0  0  0  0  0  0  0  0
  142.0090   77.1070  222.0300 H   0  0  0  0  0  0  0  0  0  0  0  0
  139.6196   79.0333  221.5708 H   0  0  0  0  0  0  0  0  0  0  0  0
  138.0742   78.5891  223.3723 H   0  0  0  0  0  0  0  0  0  0  0  0
  139.0286   79.5659  224.5247 H   0  0  0  0  0  0  0  0  0  0  0  0
  138.4890   81.0190  222.2920 H   0  0  0  0  0  0  0  0  0  0  0  0
  142.4939   79.0381  217.0476 H   0  0  0  0  0  0  0  0  0  0  0  0
  143.5764   76.9193  216.2760 H   0  0  0  0  0  0  0  0  0  0  0  0
  144.2801   74.7600  216.8160 H   0  0  0  0  0  0  0  0  0  0  0  0
  144.5452   72.8793  218.4169 H   0  0  0  0  0  0  0  0  0  0  0  0
  143.7308   73.1524  220.7308 H   0  0  0  0  0  0  0  0  0  0  0  0
  142.6542   75.2662  221.4906 H   0  0  0  0  0  0  0  0  0  0  0  0
  1  2  2  0
  2  3  1  0
  3  4  1  0
  4  5  1  0
  5  6  2  0
  5  7  1  0
  7  8  1  0
  8  9  1  0
  9 10  1  0
  9 11  1  0
 11 12  1  0
 11 13  1  0
 13 14  1  0
 14 15  1  0
  2 16  1  0
 16 17  2  0
 17 18  1  0
 18 19  2  0
 19 20  1  0
 20 21  2  0
 21 22  1  0
 22 23  2  0
 23 24  1  0
 24 25  2  0
 13  7  1  0
 25 16  1  0
 24 19  1  0
  3 26  1  0
  4 27  1  0
  4 28  1  0
  8 29  1  0
  8 30  1  0
  9 31  1  1
 10 32  1  0
 11 33  1  1
 12 34  1  0
 13 35  1  6
 14 36  1  0
 14 37  1  0
 15 38  1  0
 17 39  1  0
 18 40  1  0
 20 41  1  0
 21 42  1  0
 22 43  1  0
 23 44  1  0
M  END
>  <smiles>  (46) 
O=C(NCC(=O)N1C[C@H](O)[C@H](O)[C@H]1CO)c1ccc2ccccc2n1

>  <score_type>  (46) 
oracle

>  <origin>  (46) 
autodockgpu

>  <m_score__min__energy>  (46) 
-7.2400000000000002

>  <m_primary>  (46) 
energy

>  <rmsd>  (46) 
8.82814664825395

>  <m_score__min__rmsd>  (46) 
8.82814664825395

>  <meeko>  (46) 
{"free_energy": -4.73, "intermolecular_energy": -7.12, "internal_energy": -5.53, "cluster_size": 10, "cluster_id": 5, "rank_in_cluster": 10}

>  <energy>  (46) 
-4.61

>  <cluster_rmsd>  (46) 
0.28

>  <cluster>  (46) 
6

$$$$

     RDKit          3D

 44 46  0  0  0  0  0  0  0  0999 V2000
  138.9490   75.1560  221.7510 O   0  0  0  0  0  0  0  0  0  0  0  0
  140.0870   75.6660  221.9580 C   0  0  0  0  0  0  0  0  0  0  0  0
  141.2060   74.8110  221.7640 N   0  0  0  0  0  0  0  0  0  0  0  0
  140.8940   73.4370  221.3450 C   0  0  0  0  0  0  0  0  0  0  0  0
  141.5740   73.1540  220.0780 C   0  0  0  0  0  0  0  0  0  0  0  0
  140.8840   72.6180  219.1540 O   0  0  0  0  0  0  0  0  0  0  0  0
  142.9250   73.4200  219.7840 N   0  0  0  0  0  0  0  0  0  0  0  0
  143.6460   72.8820  218.6170 C   0  0  0  0  0  0  0  0  0  0  0  0
  144.8790   72.3570  219.3490 C   0  0  2  0  0  0  0  0  0  0  0  0
  144.5120   71.3220  220.2110 O   0  0  0  0  0  0  0  0  0  0  0  0
  145.2520   73.5420  220.1990 C   0  0  2  0  0  0  0  0  0  0  0  0
  145.8930   73.1710  221.3750 O   0  0  0  0  0  0  0  0  0  0  0  0
  143.9260   74.2130  220.4640 C   0  0  1  0  0  0  0  0  0  0  0  0
  143.9390   75.6110  219.8640 C   0  0  0  0  0  0  0  0  0  0  0  0
  142.7090   76.1960  220.1040 O   0  0  0  0  0  0  0  0  0  0  0  0
  140.2580   77.0530  222.3730 C   0  0  0  0  0  0  0  0  0  0  0  0
  139.1230   77.7840  222.6380 C   0  0  0  0  0  0  0  0  0  0  0  0
  139.1550   79.1110  223.0400 C   0  0  0  0  0  0  0  0  0  0  0  0
  140.4340   79.6620  223.1610 C   0  0  0  0  0  0  0  0  0  0  0  0
  140.4970   80.9750  223.5570 C   0  0  0  0  0  0  0  0  0  0  0  0
  141.7150   81.5870  223.6980 C   0  0  0  0  0  0  0  0  0  0  0  0
  142.8500   80.8560  223.4340 C   0  0  0  0  0  0  0  0  0  0  0  0
  142.8020   79.5210  223.0300 C   0  0  0  0  0  0  0  0  0  0  0  0
  141.5730   78.9330  222.8960 C   0  0  0  0  0  0  0  0  0  0  0  0
  141.4490   77.6490  222.5100 N   0  0  0  0  0  0  0  0  0  0  0  0
  142.1860   75.1380  221.9090 H   0  0  0  0  0  0  0  0  0  0  0  0
  141.2395   72.7303  222.1139 H   0  0  0  0  0  0  0  0  0  0  0  0
  139.8073   73.3281  221.2138 H   0  0  0  0  0  0  0  0  0  0  0  0
  143.0860   72.0787  218.1158 H   0  0  0  0  0  0  0  0  0  0  0  0
  143.8373   73.5926  217.7994 H   0  0  0  0  0  0  0  0  0  0  0  0
  145.6658   71.9843  218.6767 H   0  0  0  0  0  0  0  0  0  0  0  0
  144.7890   71.5020  221.1440 H   0  0  0  0  0  0  0  0  0  0  0  0
  145.9753   74.2051  219.7019 H   0  0  0  0  0  0  0  0  0  0  0  0
  146.0210   72.2140  221.4670 H   0  0  0  0  0  0  0  0  0  0  0  0
  143.7237   74.2894  221.5425 H   0  0  0  0  0  0  0  0  0  0  0  0
  144.7339   76.2099  220.3325 H   0  0  0  0  0  0  0  0  0  0  0  0
  144.1298   75.5582  218.7820 H   0  0  0  0  0  0  0  0  0  0  0  0
  142.6820   76.5840  221.0130 H   0  0  0  0  0  0  0  0  0  0  0  0
  138.1449   77.2933  222.5259 H   0  0  0  0  0  0  0  0  0  0  0  0
  138.2415   79.6873  223.2482 H   0  0  0  0  0  0  0  0  0  0  0  0
  139.5720   81.5344  223.7606 H   0  0  0  0  0  0  0  0  0  0  0  0
  141.7835   82.6381  224.0148 H   0  0  0  0  0  0  0  0  0  0  0  0
  143.8309   81.3412  223.5454 H   0  0  0  0  0  0  0  0  0  0  0  0
  143.7245   78.9579  222.8253 H   0  0  0  0  0  0  0  0  0  0  0  0
  1  2  2  0
  2  3  1  0
  3  4  1  0
  4  5  1  0
  5  6  2  0
  5  7  1  0
  7  8  1  0
  8  9  1  0
  9 10  1  0
  9 11  1  0
 11 12  1  0
 11 13  1  0
 13 14  1  0
 14 15  1  0
  2 16  1  0
 16 17  2  0
 17 18  1  0
 18 19  2  0
 19 20  1  0
 20 21  2  0
 21 22  1  0
 22 23  2  0
 23 24  1  0
 24 25  2  0
 13  7  1  0
 25 16  1  0
 24 19  1  0
  3 26  1  0
  4 27  1  0
  4 28  1  0
  8 29  1  0
  8 30  1  0
  9 31  1  6
 10 32  1  0
 11 33  1  6
 12 34  1  0
 13 35  1  1
 14 36  1  0
 14 37  1  0
 15 38  1  0
 17 39  1  0
 18 40  1  0
 20 41  1  0
 21 42  1  0
 22 43  1  0
 23 44  1  0
M  END
>  <smiles>  (47) 
O=C(NCC(=O)N1C[C@H](O)[C@H](O)[C@H]1CO)c1ccc2ccccc2n1

>  <score_type>  (47) 
oracle

>  <origin>  (47) 
autodockgpu

>  <m_score__min__energy>  (47) 
-7.2400000000000002

>  <m_primary>  (47) 
energy

>  <rmsd>  (47) 
7.578685032765112

>  <m_score__min__rmsd>  (47) 
7.578685032765112

>  <meeko>  (47) 
{"free_energy": -6.47, "intermolecular_energy": -8.85, "internal_energy": -3.83, "cluster_size": 8, "cluster_id": 3, "rank_in_cluster": 2}

>  <energy>  (47) 
-4.6

>  <cluster_rmsd>  (47) 
0.44

>  <cluster>  (47) 
6

$$$$

     RDKit          3D

 44 46  0  0  0  0  0  0  0  0999 V2000
  137.5920   76.9140  220.9900 O   0  0  0  0  0  0  0  0  0  0  0  0
  138.4800   76.7830  221.8800 C   0  0  0  0  0  0  0  0  0  0  0  0
  138.6960   75.4650  222.3650 N   0  0  0  0  0  0  0  0  0  0  0  0
  137.8540   74.4180  221.7680 C   0  0  0  0  0  0  0  0  0  0  0  0
  138.6010   73.7540  220.6960 C   0  0  0  0  0  0  0  0  0  0  0  0
  138.0750   72.7200  220.1750 O   0  0  0  0  0  0  0  0  0  0  0  0
  139.8520   74.1520  220.1870 N   0  0  0  0  0  0  0  0  0  0  0  0
  141.1210   73.4520  220.4530 C   0  0  0  0  0  0  0  0  0  0  0  0
  141.9530   74.6640  220.8680 C   0  0  2  0  0  0  0  0  0  0  0  0
  141.4410   75.2080  222.0480 O   0  0  0  0  0  0  0  0  0  0  0  0
  141.6470   75.6320  219.7560 C   0  0  2  0  0  0  0  0  0  0  0  0
  141.7310   76.9580  220.1680 O   0  0  0  0  0  0  0  0  0  0  0  0
  140.2450   75.2560  219.3390 C   0  0  1  0  0  0  0  0  0  0  0  0
  140.2580   74.7870  217.8920 C   0  0  0  0  0  0  0  0  0  0  0  0
  139.0240   74.2300  217.6080 O   0  0  0  0  0  0  0  0  0  0  0  0
  139.2490   77.9120  222.3890 C   0  0  0  0  0  0  0  0  0  0  0  0
  138.5520   78.9590  222.9480 C   0  0  0  0  0  0  0  0  0  0  0  0
  139.1700   80.0870  223.4660 C   0  0  0  0  0  0  0  0  0  0  0  0
  140.5650   80.0890  223.3840 C   0  0  0  0  0  0  0  0  0  0  0  0
  141.2040   81.1940  223.8900 C   0  0  0  0  0  0  0  0  0  0  0  0
  142.5710   81.2700  223.8460 C   0  0  0  0  0  0  0  0  0  0  0  0
  143.2680   80.2240  223.2890 C   0  0  0  0  0  0  0  0  0  0  0  0
  142.6330   79.0940  222.7710 C   0  0  0  0  0  0  0  0  0  0  0  0
  141.2660   79.0420  222.8260 C   0  0  0  0  0  0  0  0  0  0  0  0
  140.5860   77.9840  222.3450 N   0  0  0  0  0  0  0  0  0  0  0  0
  139.4060   75.2530  223.1000 H   0  0  0  0  0  0  0  0  0  0  0  0
  137.5815   73.6811  222.5379 H   0  0  0  0  0  0  0  0  0  0  0  0
  136.9385   74.8686  221.3572 H   0  0  0  0  0  0  0  0  0  0  0  0
  141.0274   72.7142  221.2635 H   0  0  0  0  0  0  0  0  0  0  0  0
  141.5236   72.8528  219.6231 H   0  0  0  0  0  0  0  0  0  0  0  0
  143.0174   74.4358  221.0258 H   0  0  0  0  0  0  0  0  0  0  0  0
  141.7390   76.1420  222.1850 H   0  0  0  0  0  0  0  0  0  0  0  0
  142.3706   75.5652  218.9302 H   0  0  0  0  0  0  0  0  0  0  0  0
  142.0660   77.0670  221.0710 H   0  0  0  0  0  0  0  0  0  0  0  0
  139.5557   76.1083  219.4311 H   0  0  0  0  0  0  0  0  0  0  0  0
  140.4433   75.6418  217.2250 H   0  0  0  0  0  0  0  0  0  0  0  0
  141.0547   74.0440  217.7401 H   0  0  0  0  0  0  0  0  0  0  0  0
  138.6190   73.8520  218.4260 H   0  0  0  0  0  0  0  0  0  0  0  0
  137.4543   78.8981  222.9855 H   0  0  0  0  0  0  0  0  0  0  0  0
  138.6036   80.9194  223.9091 H   0  0  0  0  0  0  0  0  0  0  0  0
  140.6198   82.0159  224.3295 H   0  0  0  0  0  0  0  0  0  0  0  0
  143.0989   82.1477  224.2471 H   0  0  0  0  0  0  0  0  0  0  0  0
  144.3659   80.2796  223.2502 H   0  0  0  0  0  0  0  0  0  0  0  0
  143.2138   78.2696  222.3316 H   0  0  0  0  0  0  0  0  0  0  0  0
  1  2  2  0
  2  3  1  0
  3  4  1  0
  4  5  1  0
  5  6  2  0
  5  7  1  0
  7  8  1  0
  8  9  1  0
  9 10  1  0
  9 11  1  0
 11 12  1  0
 11 13  1  0
 13 14  1  0
 14 15  1  0
  2 16  1  0
 16 17  2  0
 17 18  1  0
 18 19  2  0
 19 20  1  0
 20 21  2  0
 21 22  1  0
 22 23  2  0
 23 24  1  0
 24 25  2  0
 13  7  1  0
 25 16  1  0
 24 19  1  0
  3 26  1  0
  4 27  1  0
  4 28  1  0
  8 29  1  0
  8 30  1  0
  9 31  1  1
 10 32  1  0
 11 33  1  6
 12 34  1  0
 13 35  1  6
 14 36  1  0
 14 37  1  0
 15 38  1  0
 17 39  1  0
 18 40  1  0
 20 41  1  0
 21 42  1  0
 22 43  1  0
 23 44  1  0
M  END
>  <smiles>  (48) 
O=C(NCC(=O)N1C[C@H](O)[C@H](O)[C@H]1CO)c1ccc2ccccc2n1

>  <score_type>  (48) 
oracle

>  <origin>  (48) 
autodockgpu

>  <m_score__min__energy>  (48) 
-7.2400000000000002

>  <m_primary>  (48) 
energy

>  <rmsd>  (48) 
7.341442052687661

>  <m_score__min__rmsd>  (48) 
7.341442052687661

>  <meeko>  (48) 
{"free_energy": -4.6, "intermolecular_energy": -6.98, "internal_energy": -5.45, "cluster_size": 12, "cluster_id": 6, "rank_in_cluster": 11}

>  <energy>  (48) 
-4.6

>  <cluster_rmsd>  (48) 
0.32

>  <cluster>  (48) 
6

$$$$

     RDKit          3D

 44 46  0  0  0  0  0  0  0  0999 V2000
  139.7800   73.9660  222.3530 O   0  0  0  0  0  0  0  0  0  0  0  0
  140.1780   72.7800  222.1750 C   0  0  0  0  0  0  0  0  0  0  0  0
  140.6390   72.4590  220.8690 N   0  0  0  0  0  0  0  0  0  0  0  0
  140.5940   73.5550  219.8890 C   0  0  0  0  0  0  0  0  0  0  0  0
  141.9580   73.8680  219.4550 C   0  0  0  0  0  0  0  0  0  0  0  0
  142.1360   74.9730  218.8500 O   0  0  0  0  0  0  0  0  0  0  0  0
  143.0950   73.0600  219.6440 N   0  0  0  0  0  0  0  0  0  0  0  0
  143.6400   72.6840  220.9610 C   0  0  0  0  0  0  0  0  0  0  0  0
  145.0990   73.0540  220.7040 C   0  0  2  0  0  0  0  0  0  0  0  0
  145.2110   74.4310  220.5090 O   0  0  0  0  0  0  0  0  0  0  0  0
  145.3480   72.3890  219.3760 C   0  0  2  0  0  0  0  0  0  0  0  0
  146.3150   73.0490  218.6250 O   0  0  0  0  0  0  0  0  0  0  0  0
  143.9940   72.4190  218.7100 C   0  0  1  0  0  0  0  0  0  0  0  0
  143.5200   70.9940  218.4670 C   0  0  0  0  0  0  0  0  0  0  0  0
  142.2380   70.8730  218.9730 O   0  0  0  0  0  0  0  0  0  0  0  0
  140.1700   71.7840  223.2390 C   0  0  0  0  0  0  0  0  0  0  0  0
  139.6370   70.5480  222.9530 C   0  0  0  0  0  0  0  0  0  0  0  0
  139.5730   69.5190  223.8810 C   0  0  0  0  0  0  0  0  0  0  0  0
  140.0940   69.8250  225.1410 C   0  0  0  0  0  0  0  0  0  0  0  0
  140.0440   68.8250  226.0800 C   0  0  0  0  0  0  0  0  0  0  0  0
  140.5350   69.0480  227.3400 C   0  0  0  0  0  0  0  0  0  0  0  0
  141.0690   70.2830  227.6260 C   0  0  0  0  0  0  0  0  0  0  0  0
  141.1270   71.3090  226.6820 C   0  0  0  0  0  0  0  0  0  0  0  0
  140.6290   71.0620  225.4310 C   0  0  0  0  0  0  0  0  0  0  0  0
  140.6510   72.0040  224.4700 N   0  0  0  0  0  0  0  0  0  0  0  0
  140.9870   71.5070  220.6210 H   0  0  0  0  0  0  0  0  0  0  0  0
  139.9927   73.2479  219.0206 H   0  0  0  0  0  0  0  0  0  0  0  0
  140.1388   74.4444  220.3492 H   0  0  0  0  0  0  0  0  0  0  0  0
  143.1987   73.2739  221.7779 H   0  0  0  0  0  0  0  0  0  0  0  0
  143.4550   71.6479  221.2809 H   0  0  0  0  0  0  0  0  0  0  0  0
  145.7777   72.7643  221.5198 H   0  0  0  0  0  0  0  0  0  0  0  0
  146.0300   74.6700  220.0080 H   0  0  0  0  0  0  0  0  0  0  0  0
  145.7479   71.3700  219.4842 H   0  0  0  0  0  0  0  0  0  0  0  0
  146.2340   74.0150  218.6450 H   0  0  0  0  0  0  0  0  0  0  0  0
  144.0314   72.9514  217.7482 H   0  0  0  0  0  0  0  0  0  0  0  0
  143.5159   70.7818  217.3877 H   0  0  0  0  0  0  0  0  0  0  0  0
  144.1935   70.2796  218.9631 H   0  0  0  0  0  0  0  0  0  0  0  0
  141.6250   71.4990  218.5150 H   0  0  0  0  0  0  0  0  0  0  0  0
  139.2435   70.3676  221.9418 H   0  0  0  0  0  0  0  0  0  0  0  0
  139.1438   68.5347  223.6426 H   0  0  0  0  0  0  0  0  0  0  0  0
  139.6110   67.8473  225.8219 H   0  0  0  0  0  0  0  0  0  0  0  0
  140.5028   68.2579  228.1046 H   0  0  0  0  0  0  0  0  0  0  0  0
  141.4646   70.4685  228.6355 H   0  0  0  0  0  0  0  0  0  0  0  0
  141.5603   72.2877  226.9357 H   0  0  0  0  0  0  0  0  0  0  0  0
  1  2  2  0
  2  3  1  0
  3  4  1  0
  4  5  1  0
  5  6  2  0
  5  7  1  0
  7  8  1  0
  8  9  1  0
  9 10  1  0
  9 11  1  0
 11 12  1  0
 11 13  1  0
 13 14  1  0
 14 15  1  0
  2 16  1  0
 16 17  2  0
 17 18  1  0
 18 19  2  0
 19 20  1  0
 20 21  2  0
 21 22  1  0
 22 23  2  0
 23 24  1  0
 24 25  2  0
 13  7  1  0
 25 16  1  0
 24 19  1  0
  3 26  1  0
  4 27  1  0
  4 28  1  0
  8 29  1  0
  8 30  1  0
  9 31  1  1
 10 32  1  0
 11 33  1  1
 12 34  1  0
 13 35  1  6
 14 36  1  0
 14 37  1  0
 15 38  1  0
 17 39  1  0
 18 40  1  0
 20 41  1  0
 21 42  1  0
 22 43  1  0
 23 44  1  0
M  END
>  <smiles>  (49) 
O=C(NCC(=O)N1C[C@H](O)[C@H](O)[C@H]1CO)c1ccc2ccccc2n1

>  <score_type>  (49) 
oracle

>  <origin>  (49) 
autodockgpu

>  <m_score__min__energy>  (49) 
-7.2400000000000002

>  <m_primary>  (49) 
energy

>  <rmsd>  (49) 
4.075874299296593

>  <m_score__min__rmsd>  (49) 
4.075874299296593

>  <meeko>  (49) 
{"free_energy": -6.39, "intermolecular_energy": -8.78, "internal_energy": -3.14, "cluster_size": 12, "cluster_id": 1, "rank_in_cluster": 11}

>  <energy>  (49) 
-4.27

>  <cluster_rmsd>  (49) 
0.59

>  <cluster>  (49) 
6

$$$$

     RDKit          3D

 44 46  0  0  0  0  0  0  0  0999 V2000
  140.3280   74.6280  222.2170 O   0  0  0  0  0  0  0  0  0  0  0  0
  139.9600   75.6800  221.6190 C   0  0  0  0  0  0  0  0  0  0  0  0
  139.3040   75.4980  220.3710 N   0  0  0  0  0  0  0  0  0  0  0  0
  139.1360   74.1040  219.9350 C   0  0  0  0  0  0  0  0  0  0  0  0
  140.1820   73.7760  218.9610 C   0  0  0  0  0  0  0  0  0  0  0  0
  139.9340   72.8420  218.1340 O   0  0  0  0  0  0  0  0  0  0  0  0
  141.4410   74.3980  218.8550 N   0  0  0  0  0  0  0  0  0  0  0  0
  142.7260   73.7280  219.1200 C   0  0  0  0  0  0  0  0  0  0  0  0
  143.3280   74.7790  220.0510 C   0  0  2  0  0  0  0  0  0  0  0  0
  142.5730   74.8600  221.2230 O   0  0  0  0  0  0  0  0  0  0  0  0
  143.0890   76.0440  219.2710 C   0  0  2  0  0  0  0  0  0  0  0  0
  142.9440   77.1550  220.0940 O   0  0  0  0  0  0  0  0  0  0  0  0
  141.8270   75.7450  218.4970 C   0  0  1  0  0  0  0  0  0  0  0  0
  142.1270   75.7930  217.0070 C   0  0  0  0  0  0  0  0  0  0  0  0
  141.7360   74.5890  216.4480 O   0  0  0  0  0  0  0  0  0  0  0  0
  140.1890   77.0110  222.1660 C   0  0  0  0  0  0  0  0  0  0  0  0
  139.0930   77.7150  222.6090 C   0  0  0  0  0  0  0  0  0  0  0  0
  139.1810   78.9890  223.1490 C   0  0  0  0  0  0  0  0  0  0  0  0
  140.4740   79.5160  223.2150 C   0  0  0  0  0  0  0  0  0  0  0  0
  140.5920   80.7770  223.7450 C   0  0  0  0  0  0  0  0  0  0  0  0
  141.8270   81.3630  223.8430 C   0  0  0  0  0  0  0  0  0  0  0  0
  142.9230   80.6590  223.4000 C   0  0  0  0  0  0  0  0  0  0  0  0
  142.8180   79.3770  222.8580 C   0  0  0  0  0  0  0  0  0  0  0  0
  141.5740   78.8140  222.7710 C   0  0  0  0  0  0  0  0  0  0  0  0
  141.3970   77.5810  222.2600 N   0  0  0  0  0  0  0  0  0  0  0  0
  138.9620   76.3020  219.8010 H   0  0  0  0  0  0  0  0  0  0  0  0
  139.2184   73.4340  220.8035 H   0  0  0  0  0  0  0  0  0  0  0  0
  138.1461   73.9774  219.4722 H   0  0  0  0  0  0  0  0  0  0  0  0
  142.5939   72.7566  219.6189 H   0  0  0  0  0  0  0  0  0  0  0  0
  143.3254   73.4678  218.2351 H   0  0  0  0  0  0  0  0  0  0  0  0
  144.3737   74.5778  220.3268 H   0  0  0  0  0  0  0  0  0  0  0  0
  142.2130   75.7700  221.3690 H   0  0  0  0  0  0  0  0  0  0  0  0
  143.9378   76.3039  218.6214 H   0  0  0  0  0  0  0  0  0  0  0  0
  142.9450   76.9450  221.0410 H   0  0  0  0  0  0  0  0  0  0  0  0
  141.0336   76.4720  218.7247 H   0  0  0  0  0  0  0  0  0  0  0  0
  141.5688   76.6185  216.5412 H   0  0  0  0  0  0  0  0  0  0  0  0
  143.2019   75.9576  216.8410 H   0  0  0  0  0  0  0  0  0  0  0  0
  140.8720   74.2960  216.8290 H   0  0  0  0  0  0  0  0  0  0  0  0
  138.1013   77.2455  222.5312 H   0  0  0  0  0  0  0  0  0  0  0  0
  138.2984   79.5441  223.4996 H   0  0  0  0  0  0  0  0  0  0  0  0
  139.6973   81.3158  224.0902 H   0  0  0  0  0  0  0  0  0  0  0  0
  141.9394   82.3723  224.2658 H   0  0  0  0  0  0  0  0  0  0  0  0
  143.9175   81.1230  223.4756 H   0  0  0  0  0  0  0  0  0  0  0  0
  143.7099   78.8348  222.5107 H   0  0  0  0  0  0  0  0  0  0  0  0
  1  2  2  0
  2  3  1  0
  3  4  1  0
  4  5  1  0
  5  6  2  0
  5  7  1  0
  7  8  1  0
  8  9  1  0
  9 10  1  0
  9 11  1  0
 11 12  1  0
 11 13  1  0
 13 14  1  0
 14 15  1  0
  2 16  1  0
 16 17  2  0
 17 18  1  0
 18 19  2  0
 19 20  1  0
 20 21  2  0
 21 22  1  0
 22 23  2  0
 23 24  1  0
 24 25  2  0
 13  7  1  0
 25 16  1  0
 24 19  1  0
  3 26  1  0
  4 27  1  0
  4 28  1  0
  8 29  1  0
  8 30  1  0
  9 31  1  1
 10 32  1  0
 11 33  1  6
 12 34  1  0
 13 35  1  6
 14 36  1  0
 14 37  1  0
 15 38  1  0
 17 39  1  0
 18 40  1  0
 20 41  1  0
 21 42  1  0
 22 43  1  0
 23 44  1  0
M  END
>  <smiles>  (50) 
O=C(NCC(=O)N1C[C@H](O)[C@H](O)[C@H]1CO)c1ccc2ccccc2n1

>  <score_type>  (50) 
oracle

>  <origin>  (50) 
autodockgpu

>  <m_score__min__energy>  (50) 
-7.2400000000000002

>  <m_primary>  (50) 
energy

>  <rmsd>  (50) 
7.118052069175127

>  <m_score__min__rmsd>  (50) 
7.118052069175127

>  <meeko>  (50) 
{"free_energy": -4.94, "intermolecular_energy": -7.32, "internal_energy": -5.1, "cluster_size": 8, "cluster_id": 3, "rank_in_cluster": 7}

>  <energy>  (50) 
-3.8

>  <cluster_rmsd>  (50) 
0.0

>  <cluster>  (50) 
7

$$$$
