
     RDKit          3D

 44 46  0  0  0  0  0  0  0  0999 V2000
  140.5850   73.5570  220.6870 O   0  0  0  0  0  0  0  0  0  0  0  0
  139.8230   73.6930  221.6750 C   0  0  0  0  0  0  0  0  0  0  0  0
  139.0900   74.8750  221.9550 N   0  0  0  0  0  0  0  0  0  0  0  0
  139.2250   76.0070  221.0430 C   0  0  0  0  0  0  0  0  0  0  0  0
  140.4160   76.8010  221.4530 C   0  0  0  0  0  0  0  0  0  0  0  0
  141.5450   76.5800  220.8990 O   0  0  0  0  0  0  0  0  0  0  0  0
  140.2980   77.8020  222.4560 N   0  0  0  0  0  0  0  0  0  0  0  0
  139.0040   78.0290  223.0660 C   0  0  0  0  0  0  0  0  0  0  0  0
  138.3320   79.1450  222.2970 C   0  0  0  0  0  0  0  0  0  0  0  0
  138.8300   80.4800  222.7670 C   0  0  0  0  0  0  0  0  0  0  0  0
  140.1190   80.4400  223.5190 C   0  0  0  0  0  0  0  0  0  0  0  0
  141.3120   80.0170  222.7180 C   0  0  0  0  0  0  0  0  0  0  0  0
  141.5220   78.5100  222.7720 C   0  0  0  0  0  0  0  0  0  0  0  0
  139.6830   72.5580  222.5960 C   0  0  0  0  0  0  0  0  0  0  0  0
  138.6600   71.6490  222.4700 C   0  0  0  0  0  0  0  0  0  0  0  0
  138.4780   70.5700  223.2990 C   0  0  0  0  0  0  0  0  0  0  0  0
  139.3930   70.4010  224.3230 C   0  0  0  0  0  0  0  0  0  0  0  0
  139.2270   69.3230  225.1660 C   0  0  0  0  0  0  0  0  0  0  0  0
  140.1340   69.1570  226.1810 C   0  0  0  0  0  0  0  0  0  0  0  0
  139.9400   67.7930  227.2640 Cl  0  0  0  0  0  0  0  0  0  0  0  0
  141.1660   70.0560  226.3260 C   0  0  0  0  0  0  0  0  0  0  0  0
  141.3390   71.1450  225.4790 C   0  0  0  0  0  0  0  0  0  0  0  0
  140.4190   71.3130  224.4500 C   0  0  0  0  0  0  0  0  0  0  0  0
  140.5580   72.3610  223.6100 N   0  0  0  0  0  0  0  0  0  0  0  0
  138.4550   74.9540  222.8000 H   0  0  0  0  0  0  0  0  0  0  0  0
  139.3584   75.6414  220.0142 H   0  0  0  0  0  0  0  0  0  0  0  0
  138.3216   76.6333  221.0814 H   0  0  0  0  0  0  0  0  0  0  0  0
  138.3959   77.1141  223.0096 H   0  0  0  0  0  0  0  0  0  0  0  0
  139.1161   78.3000  224.1262 H   0  0  0  0  0  0  0  0  0  0  0  0
  138.5550   79.0320  221.2258 H   0  0  0  0  0  0  0  0  0  0  0  0
  137.2464   79.0903  222.4658 H   0  0  0  0  0  0  0  0  0  0  0  0
  138.9684   81.1230  221.8853 H   0  0  0  0  0  0  0  0  0  0  0  0
  138.0744   80.8617  223.4694 H   0  0  0  0  0  0  0  0  0  0  0  0
  140.3141   81.4481  223.9136 H   0  0  0  0  0  0  0  0  0  0  0  0
  139.9918   79.6784  224.3024 H   0  0  0  0  0  0  0  0  0  0  0  0
  141.1632   80.3187  221.6707 H   0  0  0  0  0  0  0  0  0  0  0  0
  142.2015   80.5024  223.1460 H   0  0  0  0  0  0  0  0  0  0  0  0
  142.2978   78.2289  222.0446 H   0  0  0  0  0  0  0  0  0  0  0  0
  141.8312   78.2362  223.7916 H   0  0  0  0  0  0  0  0  0  0  0  0
  137.9400   71.7956  221.6514 H   0  0  0  0  0  0  0  0  0  0  0  0
  137.6414   69.8704  223.1554 H   0  0  0  0  0  0  0  0  0  0  0  0
  138.3935   68.6184  225.0289 H   0  0  0  0  0  0  0  0  0  0  0  0
  141.8838   69.9068  227.1461 H   0  0  0  0  0  0  0  0  0  0  0  0
  142.1734   71.8482  225.6179 H   0  0  0  0  0  0  0  0  0  0  0  0
  1  2  2  0
  2  3  1  0
  3  4  1  0
  4  5  1  0
  5  6  2  0
  5  7  1  0
  7  8  1  0
  8  9  1  0
  9 10  1  0
 10 11  1  0
 11 12  1  0
 12 13  1  0
  2 14  1  0
 14 15  2  0
 15 16  1  0
 16 17  2  0
 17 18  1  0
 18 19  2  0
 19 20  1  0
 19 21  1  0
 21 22  2  0
 22 23  1  0
 23 24  2  0
 13  7  1  0
 24 14  1  0
 23 17  1  0
  3 25  1  0
  4 26  1  0
  4 27  1  0
  8 28  1  0
  8 29  1  0
  9 30  1  0
  9 31  1  0
 10 32  1  0
 10 33  1  0
 11 34  1  0
 11 35  1  0
 12 36  1  0
 12 37  1  0
 13 38  1  0
 13 39  1  0
 15 40  1  0
 16 41  1  0
 18 42  1  0
 21 43  1  0
 22 44  1  0
M  END
>  <smiles>  (1) 
O=C(NCC(=O)N1CCCCCC1)c1ccc2cc(Cl)ccc2n1

>  <score_type>  (1) 
oracle

>  <origin>  (1) 
autodockgpu

>  <m_score__min__energy>  (1) 
-5.8499999999999996

>  <m_primary>  (1) 
energy

>  <rmsd>  (1) 
3.8521777458186155

>  <m_score__min__rmsd>  (1) 
3.8521777458186155

>  <meeko>  (1) 
{"free_energy": -5.08, "intermolecular_energy": -7.77, "internal_energy": -0.9, "cluster_size": 14, "cluster_id": 3, "rank_in_cluster": 6}

>  <energy>  (1) 
-5.85

>  <cluster_rmsd>  (1) 
0.0

>  <cluster>  (1) 
1

$$$$

     RDKit          3D

 44 46  0  0  0  0  0  0  0  0999 V2000
  140.8500   73.6000  220.5940 O   0  0  0  0  0  0  0  0  0  0  0  0
  140.2280   73.7120  221.6780 C   0  0  0  0  0  0  0  0  0  0  0  0
  139.7300   74.9410  222.1840 N   0  0  0  0  0  0  0  0  0  0  0  0
  139.9530   76.1530  221.4020 C   0  0  0  0  0  0  0  0  0  0  0  0
  139.3850   77.3080  222.1500 C   0  0  0  0  0  0  0  0  0  0  0  0
  138.4660   77.1120  223.0130 O   0  0  0  0  0  0  0  0  0  0  0  0
  139.8640   78.6250  221.9060 N   0  0  0  0  0  0  0  0  0  0  0  0
  140.9090   78.8150  220.9190 C   0  0  0  0  0  0  0  0  0  0  0  0
  141.8710   79.8420  221.4740 C   0  0  0  0  0  0  0  0  0  0  0  0
  142.4090   79.3940  222.8000 C   0  0  0  0  0  0  0  0  0  0  0  0
  141.4030   79.3440  223.9020 C   0  0  0  0  0  0  0  0  0  0  0  0
  140.2070   80.2310  223.7230 C   0  0  0  0  0  0  0  0  0  0  0  0
  139.2380   79.6680  222.6920 C   0  0  0  0  0  0  0  0  0  0  0  0
  140.0010   72.4960  222.4700 C   0  0  0  0  0  0  0  0  0  0  0  0
  139.1000   71.5360  222.0760 C   0  0  0  0  0  0  0  0  0  0  0  0
  138.8460   70.3810  222.7730 C   0  0  0  0  0  0  0  0  0  0  0  0
  139.5520   70.1860  223.9470 C   0  0  0  0  0  0  0  0  0  0  0  0
  139.3110   69.0320  224.6620 C   0  0  0  0  0  0  0  0  0  0  0  0
  140.0100   68.8410  225.8250 C   0  0  0  0  0  0  0  0  0  0  0  0
  139.7180   67.3800  226.7480 Cl  0  0  0  0  0  0  0  0  0  0  0  0
  140.9170   69.7890  226.2390 C   0  0  0  0  0  0  0  0  0  0  0  0
  141.1660   70.9550  225.5230 C   0  0  0  0  0  0  0  0  0  0  0  0
  140.4560   71.1490  224.3430 C   0  0  0  0  0  0  0  0  0  0  0  0
  140.6720   72.2710  223.6240 N   0  0  0  0  0  0  0  0  0  0  0  0
  139.2080   74.9980  223.1050 H   0  0  0  0  0  0  0  0  0  0  0  0
  141.0320   76.3035  221.2502 H   0  0  0  0  0  0  0  0  0  0  0  0
  139.4658   76.0632  220.4199 H   0  0  0  0  0  0  0  0  0  0  0  0
  141.4344   77.8654  220.7396 H   0  0  0  0  0  0  0  0  0  0  0  0
  140.4844   79.1558  219.9632 H   0  0  0  0  0  0  0  0  0  0  0  0
  142.7060   79.9735  220.7701 H   0  0  0  0  0  0  0  0  0  0  0  0
  141.3365   80.7938  221.6098 H   0  0  0  0  0  0  0  0  0  0  0  0
  142.8294   78.3852  222.6750 H   0  0  0  0  0  0  0  0  0  0  0  0
  143.1568   80.1434  223.0987 H   0  0  0  0  0  0  0  0  0  0  0  0
  141.0463   78.3071  223.9889 H   0  0  0  0  0  0  0  0  0  0  0  0
  141.9202   79.7109  224.8009 H   0  0  0  0  0  0  0  0  0  0  0  0
  139.6862   80.3261  224.6872 H   0  0  0  0  0  0  0  0  0  0  0  0
  140.5569   81.2108  223.3658 H   0  0  0  0  0  0  0  0  0  0  0  0
  138.3627   79.2507  223.2113 H   0  0  0  0  0  0  0  0  0  0  0  0
  138.9340   80.4811  222.0164 H   0  0  0  0  0  0  0  0  0  0  0  0
  138.5460   71.7042  221.1407 H   0  0  0  0  0  0  0  0  0  0  0  0
  138.1135   69.6430  222.4141 H   0  0  0  0  0  0  0  0  0  0  0  0
  138.5809   68.2883  224.3100 H   0  0  0  0  0  0  0  0  0  0  0  0
  141.4682   69.6176  227.1754 H   0  0  0  0  0  0  0  0  0  0  0  0
  141.8975   71.6964  225.8769 H   0  0  0  0  0  0  0  0  0  0  0  0
  1  2  2  0
  2  3  1  0
  3  4  1  0
  4  5  1  0
  5  6  2  0
  5  7  1  0
  7  8  1  0
  8  9  1  0
  9 10  1  0
 10 11  1  0
 11 12  1  0
 12 13  1  0
  2 14  1  0
 14 15  2  0
 15 16  1  0
 16 17  2  0
 17 18  1  0
 18 19  2  0
 19 20  1  0
 19 21  1  0
 21 22  2  0
 22 23  1  0
 23 24  2  0
 13  7  1  0
 24 14  1  0
 23 17  1  0
  3 25  1  0
  4 26  1  0
  4 27  1  0
  8 28  1  0
  8 29  1  0
  9 30  1  0
  9 31  1  0
 10 32  1  0
 10 33  1  0
 11 34  1  0
 11 35  1  0
 12 36  1  0
 12 37  1  0
 13 38  1  0
 13 39  1  0
 15 40  1  0
 16 41  1  0
 18 42  1  0
 21 43  1  0
 22 44  1  0
M  END
>  <smiles>  (2) 
O=C(NCC(=O)N1CCCCCC1)c1ccc2cc(Cl)ccc2n1

>  <score_type>  (2) 
oracle

>  <origin>  (2) 
autodockgpu

>  <m_score__min__energy>  (2) 
-5.8499999999999996

>  <m_primary>  (2) 
energy

>  <rmsd>  (2) 
3.986187362009719

>  <m_score__min__rmsd>  (2) 
3.986187362009719

>  <meeko>  (2) 
{"free_energy": -4.9, "intermolecular_energy": -7.58, "internal_energy": -1.43, "cluster_size": 14, "cluster_id": 3, "rank_in_cluster": 7}

>  <energy>  (2) 
-5.64

>  <cluster_rmsd>  (2) 
0.48

>  <cluster>  (2) 
1

$$$$

     RDKit          3D

 44 46  0  0  0  0  0  0  0  0999 V2000
  140.8510   71.0900  221.2590 O   0  0  0  0  0  0  0  0  0  0  0  0
  140.2820   71.8860  222.0450 C   0  0  0  0  0  0  0  0  0  0  0  0
  139.4240   71.4830  223.1000 N   0  0  0  0  0  0  0  0  0  0  0  0
  139.1820   70.0560  223.2890 C   0  0  0  0  0  0  0  0  0  0  0  0
  138.7550   69.8320  224.6970 C   0  0  0  0  0  0  0  0  0  0  0  0
  137.5150   69.6940  224.9670 O   0  0  0  0  0  0  0  0  0  0  0  0
  139.7220   69.7740  225.7380 N   0  0  0  0  0  0  0  0  0  0  0  0
  141.1220   69.9350  225.4000 C   0  0  0  0  0  0  0  0  0  0  0  0
  141.5170   71.3470  225.7710 C   0  0  0  0  0  0  0  0  0  0  0  0
  140.7060   71.8280  226.9380 C   0  0  0  0  0  0  0  0  0  0  0  0
  140.8580   71.0210  228.1840 C   0  0  0  0  0  0  0  0  0  0  0  0
  140.2860   69.6510  228.1190 C   0  0  0  0  0  0  0  0  0  0  0  0
  139.1890   69.5530  227.0670 C   0  0  0  0  0  0  0  0  0  0  0  0
  140.5220   73.3230  221.8600 C   0  0  0  0  0  0  0  0  0  0  0  0
  141.6310   73.7910  221.1950 C   0  0  0  0  0  0  0  0  0  0  0  0
  141.9070   75.1200  220.9920 C   0  0  0  0  0  0  0  0  0  0  0  0
  141.0000   76.0360  221.4950 C   0  0  0  0  0  0  0  0  0  0  0  0
  141.2610   77.3760  221.3010 C   0  0  0  0  0  0  0  0  0  0  0  0
  140.3620   78.2820  221.8000 C   0  0  0  0  0  0  0  0  0  0  0  0
  140.6750   79.9910  221.5640 Cl  0  0  0  0  0  0  0  0  0  0  0  0
  139.2450   77.8370  222.4690 C   0  0  0  0  0  0  0  0  0  0  0  0
  138.9760   76.4870  222.6690 C   0  0  0  0  0  0  0  0  0  0  0  0
  139.8880   75.5680  222.1620 C   0  0  0  0  0  0  0  0  0  0  0  0
  139.6580   74.2490  222.3380 N   0  0  0  0  0  0  0  0  0  0  0  0
  138.9600   72.1840  223.7460 H   0  0  0  0  0  0  0  0  0  0  0  0
  138.3904   69.7198  222.6032 H   0  0  0  0  0  0  0  0  0  0  0  0
  140.0995   69.4869  223.0783 H   0  0  0  0  0  0  0  0  0  0  0  0
  141.7306   69.2135  225.9649 H   0  0  0  0  0  0  0  0  0  0  0  0
  141.2859   69.7548  224.3273 H   0  0  0  0  0  0  0  0  0  0  0  0
  142.5838   71.3664  226.0385 H   0  0  0  0  0  0  0  0  0  0  0  0
  141.3306   72.0071  224.9110 H   0  0  0  0  0  0  0  0  0  0  0  0
  141.0084   72.8617  227.1614 H   0  0  0  0  0  0  0  0  0  0  0  0
  139.6513   71.7379  226.6388 H   0  0  0  0  0  0  0  0  0  0  0  0
  141.9321   70.9322  228.4040 H   0  0  0  0  0  0  0  0  0  0  0  0
  140.2945   71.5525  228.9650 H   0  0  0  0  0  0  0  0  0  0  0  0
  141.0873   68.9408  227.8670 H   0  0  0  0  0  0  0  0  0  0  0  0
  139.8463   69.4139  229.0990 H   0  0  0  0  0  0  0  0  0  0  0  0
  138.7369   68.5512  227.1111 H   0  0  0  0  0  0  0  0  0  0  0  0
  138.4345   70.3261  227.2747 H   0  0  0  0  0  0  0  0  0  0  0  0
  142.3435   73.0519  220.8000 H   0  0  0  0  0  0  0  0  0  0  0  0
  142.8099   75.4429  220.4530 H   0  0  0  0  0  0  0  0  0  0  0  0
  142.1616   77.7070  220.7631 H   0  0  0  0  0  0  0  0  0  0  0  0
  138.5352   78.5798  222.8620 H   0  0  0  0  0  0  0  0  0  0  0  0
  138.0752   76.1586  223.2083 H   0  0  0  0  0  0  0  0  0  0  0  0
  1  2  2  0
  2  3  1  0
  3  4  1  0
  4  5  1  0
  5  6  2  0
  5  7  1  0
  7  8  1  0
  8  9  1  0
  9 10  1  0
 10 11  1  0
 11 12  1  0
 12 13  1  0
  2 14  1  0
 14 15  2  0
 15 16  1  0
 16 17  2  0
 17 18  1  0
 18 19  2  0
 19 20  1  0
 19 21  1  0
 21 22  2  0
 22 23  1  0
 23 24  2  0
 13  7  1  0
 24 14  1  0
 23 17  1  0
  3 25  1  0
  4 26  1  0
  4 27  1  0
  8 28  1  0
  8 29  1  0
  9 30  1  0
  9 31  1  0
 10 32  1  0
 10 33  1  0
 11 34  1  0
 11 35  1  0
 12 36  1  0
 12 37  1  0
 13 38  1  0
 13 39  1  0
 15 40  1  0
 16 41  1  0
 18 42  1  0
 21 43  1  0
 22 44  1  0
M  END
>  <smiles>  (3) 
O=C(NCC(=O)N1CCCCCC1)c1ccc2cc(Cl)ccc2n1

>  <score_type>  (3) 
oracle

>  <origin>  (3) 
autodockgpu

>  <m_score__min__energy>  (3) 
-5.8499999999999996

>  <m_primary>  (3) 
energy

>  <rmsd>  (3) 
8.187691946116848

>  <m_score__min__rmsd>  (3) 
8.187691946116848

>  <meeko>  (3) 
{"free_energy": -4.2, "intermolecular_energy": -6.89, "internal_energy": -1.35, "cluster_size": 6, "cluster_id": 2, "rank_in_cluster": 6}

>  <energy>  (3) 
-5.53

>  <cluster_rmsd>  (3) 
0.59

>  <cluster>  (3) 
1

$$$$

     RDKit          3D

 44 46  0  0  0  0  0  0  0  0999 V2000
  140.0140   72.4730  220.8290 O   0  0  0  0  0  0  0  0  0  0  0  0
  139.8220   72.8880  221.9980 C   0  0  0  0  0  0  0  0  0  0  0  0
  139.4920   74.2300  222.3200 N   0  0  0  0  0  0  0  0  0  0  0  0
  139.3680   75.1930  221.2300 C   0  0  0  0  0  0  0  0  0  0  0  0
  140.5100   76.1450  221.3120 C   0  0  0  0  0  0  0  0  0  0  0  0
  141.6540   75.8000  220.8630 O   0  0  0  0  0  0  0  0  0  0  0  0
  140.3280   77.4330  221.8860 N   0  0  0  0  0  0  0  0  0  0  0  0
  139.0170   77.7960  222.3870 C   0  0  0  0  0  0  0  0  0  0  0  0
  138.7740   79.2410  222.0120 C   0  0  0  0  0  0  0  0  0  0  0  0
  139.6030   80.1510  222.8700 C   0  0  0  0  0  0  0  0  0  0  0  0
  140.4770   79.4580  223.8600 C   0  0  0  0  0  0  0  0  0  0  0  0
  141.7300   78.8620  223.2980 C   0  0  0  0  0  0  0  0  0  0  0  0
  141.5090   78.2730  221.9110 C   0  0  0  0  0  0  0  0  0  0  0  0
  139.9450   71.9230  223.0980 C   0  0  0  0  0  0  0  0  0  0  0  0
  139.5510   70.6140  222.9580 C   0  0  0  0  0  0  0  0  0  0  0  0
  139.6420   69.6690  223.9490 C   0  0  0  0  0  0  0  0  0  0  0  0
  140.1670   70.0760  225.1630 C   0  0  0  0  0  0  0  0  0  0  0  0
  140.2670   69.1410  226.1700 C   0  0  0  0  0  0  0  0  0  0  0  0
  140.7870   69.5470  227.3720 C   0  0  0  0  0  0  0  0  0  0  0  0
  140.9220   68.3730  228.6670 Cl  0  0  0  0  0  0  0  0  0  0  0  0
  141.1870   70.8530  227.5350 C   0  0  0  0  0  0  0  0  0  0  0  0
  141.0900   71.8020  226.5230 C   0  0  0  0  0  0  0  0  0  0  0  0
  140.5630   71.3900  225.3040 C   0  0  0  0  0  0  0  0  0  0  0  0
  140.4540   72.2860  224.2990 N   0  0  0  0  0  0  0  0  0  0  0  0
  139.3360   74.5450  223.3200 H   0  0  0  0  0  0  0  0  0  0  0  0
  139.3918   74.6664  220.2645 H   0  0  0  0  0  0  0  0  0  0  0  0
  138.4156   75.7371  221.3128 H   0  0  0  0  0  0  0  0  0  0  0  0
  138.2490   77.1546  221.9300 H   0  0  0  0  0  0  0  0  0  0  0  0
  138.9678   77.6642  223.4780 H   0  0  0  0  0  0  0  0  0  0  0  0
  139.0448   79.3919  220.9566 H   0  0  0  0  0  0  0  0  0  0  0  0
  137.7105   79.4757  222.1669 H   0  0  0  0  0  0  0  0  0  0  0  0
  140.2451   80.7521  222.2094 H   0  0  0  0  0  0  0  0  0  0  0  0
  138.8931   80.7544  223.4548 H   0  0  0  0  0  0  0  0  0  0  0  0
  140.7638   80.1886  224.6307 H   0  0  0  0  0  0  0  0  0  0  0  0
  139.8871   78.6156  224.2504 H   0  0  0  0  0  0  0  0  0  0  0  0
  142.4982   79.6466  223.2324 H   0  0  0  0  0  0  0  0  0  0  0  0
  142.0486   78.0482  223.9660 H   0  0  0  0  0  0  0  0  0  0  0  0
  141.3831   79.0924  221.1880 H   0  0  0  0  0  0  0  0  0  0  0  0
  142.3823   77.6581  221.6479 H   0  0  0  0  0  0  0  0  0  0  0  0
  139.1354   70.3033  221.9881 H   0  0  0  0  0  0  0  0  0  0  0  0
  139.3118   68.6326  223.7854 H   0  0  0  0  0  0  0  0  0  0  0  0
  139.9402   68.1022  226.0147 H   0  0  0  0  0  0  0  0  0  0  0  0
  141.6011   71.1597  228.5068 H   0  0  0  0  0  0  0  0  0  0  0  0
  141.4180   72.8400  226.6810 H   0  0  0  0  0  0  0  0  0  0  0  0
  1  2  2  0
  2  3  1  0
  3  4  1  0
  4  5  1  0
  5  6  2  0
  5  7  1  0
  7  8  1  0
  8  9  1  0
  9 10  1  0
 10 11  1  0
 11 12  1  0
 12 13  1  0
  2 14  1  0
 14 15  2  0
 15 16  1  0
 16 17  2  0
 17 18  1  0
 18 19  2  0
 19 20  1  0
 19 21  1  0
 21 22  2  0
 22 23  1  0
 23 24  2  0
 13  7  1  0
 24 14  1  0
 23 17  1  0
  3 25  1  0
  4 26  1  0
  4 27  1  0
  8 28  1  0
  8 29  1  0
  9 30  1  0
  9 31  1  0
 10 32  1  0
 10 33  1  0
 11 34  1  0
 11 35  1  0
 12 36  1  0
 12 37  1  0
 13 38  1  0
 13 39  1  0
 15 40  1  0
 16 41  1  0
 18 42  1  0
 21 43  1  0
 22 44  1  0
M  END
>  <smiles>  (4) 
O=C(NCC(=O)N1CCCCCC1)c1ccc2cc(Cl)ccc2n1

>  <score_type>  (4) 
oracle

>  <origin>  (4) 
autodockgpu

>  <m_score__min__energy>  (4) 
-5.8499999999999996

>  <m_primary>  (4) 
energy

>  <rmsd>  (4) 
3.4319874650085835

>  <m_score__min__rmsd>  (4) 
3.4319874650085835

>  <meeko>  (4) 
{"free_energy": -5.27, "intermolecular_energy": -7.96, "internal_energy": -1.0, "cluster_size": 14, "cluster_id": 3, "rank_in_cluster": 2}

>  <energy>  (4) 
-5.25

>  <cluster_rmsd>  (4) 
1.62

>  <cluster>  (4) 
1

$$$$

     RDKit          3D

 44 46  0  0  0  0  0  0  0  0999 V2000
  135.8400   68.7220  224.1670 O   0  0  0  0  0  0  0  0  0  0  0  0
  136.2320   69.8590  224.5250 C   0  0  0  0  0  0  0  0  0  0  0  0
  137.5670   70.3200  224.3810 N   0  0  0  0  0  0  0  0  0  0  0  0
  138.5490   69.4210  223.7820 C   0  0  0  0  0  0  0  0  0  0  0  0
  139.2680   68.7130  224.8770 C   0  0  0  0  0  0  0  0  0  0  0  0
  138.8720   67.5580  225.2500 O   0  0  0  0  0  0  0  0  0  0  0  0
  140.3900   69.3200  225.5060 N   0  0  0  0  0  0  0  0  0  0  0  0
  140.8150   70.6320  225.0610 C   0  0  0  0  0  0  0  0  0  0  0  0
  141.3600   71.3630  226.2670 C   0  0  0  0  0  0  0  0  0  0  0  0
  140.2890   71.5350  227.3040 C   0  0  0  0  0  0  0  0  0  0  0  0
  139.7230   70.2620  227.8390 C   0  0  0  0  0  0  0  0  0  0  0  0
  140.6900   69.1180  227.9290 C   0  0  0  0  0  0  0  0  0  0  0  0
  141.0080   68.5380  226.5570 C   0  0  0  0  0  0  0  0  0  0  0  0
  135.2490   70.7680  225.1280 C   0  0  0  0  0  0  0  0  0  0  0  0
  134.2780   70.3120  225.9870 C   0  0  0  0  0  0  0  0  0  0  0  0
  133.3330   71.1130  226.5810 C   0  0  0  0  0  0  0  0  0  0  0  0
  133.3750   72.4630  226.2840 C   0  0  0  0  0  0  0  0  0  0  0  0
  132.4350   73.2830  226.8700 C   0  0  0  0  0  0  0  0  0  0  0  0
  132.4770   74.6210  226.5740 C   0  0  0  0  0  0  0  0  0  0  0  0
  131.2900   75.6810  227.3090 Cl  0  0  0  0  0  0  0  0  0  0  0  0
  133.4400   75.0990  225.7160 C   0  0  0  0  0  0  0  0  0  0  0  0
  134.3930   74.2780  225.1210 C   0  0  0  0  0  0  0  0  0  0  0  0
  134.3490   72.9210  225.4210 C   0  0  0  0  0  0  0  0  0  0  0  0
  135.2580   72.0950  224.8610 N   0  0  0  0  0  0  0  0  0  0  0  0
  137.8630   71.2880  224.6950 H   0  0  0  0  0  0  0  0  0  0  0  0
  138.0387   68.6890  223.1387 H   0  0  0  0  0  0  0  0  0  0  0  0
  139.2618   69.9936  223.1704 H   0  0  0  0  0  0  0  0  0  0  0  0
  141.5983   70.5339  224.2950 H   0  0  0  0  0  0  0  0  0  0  0  0
  139.9725   71.1845  224.6195 H   0  0  0  0  0  0  0  0  0  0  0  0
  142.1906   70.7839  226.6967 H   0  0  0  0  0  0  0  0  0  0  0  0
  141.7138   72.3558  225.9520 H   0  0  0  0  0  0  0  0  0  0  0  0
  140.7159   72.0997  228.1459 H   0  0  0  0  0  0  0  0  0  0  0  0
  139.4585   72.0572  226.8065 H   0  0  0  0  0  0  0  0  0  0  0  0
  139.3362   70.4603  228.8495 H   0  0  0  0  0  0  0  0  0  0  0  0
  138.9479   69.9495  227.1238 H   0  0  0  0  0  0  0  0  0  0  0  0
  141.6228   69.4754  228.3895 H   0  0  0  0  0  0  0  0  0  0  0  0
  140.2277   68.3261  228.5366 H   0  0  0  0  0  0  0  0  0  0  0  0
  142.0982   68.5372  226.4109 H   0  0  0  0  0  0  0  0  0  0  0  0
  140.6117   67.5130  226.5098 H   0  0  0  0  0  0  0  0  0  0  0  0
  134.2560   69.2358  226.2137 H   0  0  0  0  0  0  0  0  0  0  0  0
  132.5760   70.6986  227.2631 H   0  0  0  0  0  0  0  0  0  0  0  0
  131.6750   72.8768  227.5536 H   0  0  0  0  0  0  0  0  0  0  0  0
  133.4575   76.1755  225.4907 H   0  0  0  0  0  0  0  0  0  0  0  0
  135.1527   74.6872  224.4388 H   0  0  0  0  0  0  0  0  0  0  0  0
  1  2  2  0
  2  3  1  0
  3  4  1  0
  4  5  1  0
  5  6  2  0
  5  7  1  0
  7  8  1  0
  8  9  1  0
  9 10  1  0
 10 11  1  0
 11 12  1  0
 12 13  1  0
  2 14  1  0
 14 15  2  0
 15 16  1  0
 16 17  2  0
 17 18  1  0
 18 19  2  0
 19 20  1  0
 19 21  1  0
 21 22  2  0
 22 23  1  0
 23 24  2  0
 13  7  1  0
 24 14  1  0
 23 17  1  0
  3 25  1  0
  4 26  1  0
  4 27  1  0
  8 28  1  0
  8 29  1  0
  9 30  1  0
  9 31  1  0
 10 32  1  0
 10 33  1  0
 11 34  1  0
 11 35  1  0
 12 36  1  0
 12 37  1  0
 13 38  1  0
 13 39  1  0
 15 40  1  0
 16 41  1  0
 18 42  1  0
 21 43  1  0
 22 44  1  0
M  END
>  <smiles>  (5) 
O=C(NCC(=O)N1CCCCCC1)c1ccc2cc(Cl)ccc2n1

>  <score_type>  (5) 
oracle

>  <origin>  (5) 
autodockgpu

>  <m_score__min__energy>  (5) 
-5.8499999999999996

>  <m_primary>  (5) 
energy

>  <rmsd>  (5) 
8.15584030025832

>  <m_score__min__rmsd>  (5) 
8.15584030025832

>  <meeko>  (5) 
{"free_energy": -5.53, "intermolecular_energy": -8.21, "internal_energy": -1.24, "cluster_size": 14, "cluster_id": 1, "rank_in_cluster": 3}

>  <energy>  (5) 
-5.22

>  <cluster_rmsd>  (5) 
1.12

>  <cluster>  (5) 
1

$$$$

     RDKit          3D

 44 46  0  0  0  0  0  0  0  0999 V2000
  137.8410   77.8270  222.7140 O   0  0  0  0  0  0  0  0  0  0  0  0
  138.0440   76.5880  222.7190 C   0  0  0  0  0  0  0  0  0  0  0  0
  137.1190   75.6340  223.2160 N   0  0  0  0  0  0  0  0  0  0  0  0
  135.8520   76.1140  223.7570 C   0  0  0  0  0  0  0  0  0  0  0  0
  135.0410   74.9370  224.1740 C   0  0  0  0  0  0  0  0  0  0  0  0
  135.5830   73.7830  224.2260 O   0  0  0  0  0  0  0  0  0  0  0  0
  133.6690   75.0960  224.5110 N   0  0  0  0  0  0  0  0  0  0  0  0
  133.0820   76.4200  224.4420 C   0  0  0  0  0  0  0  0  0  0  0  0
  133.1260   77.0070  225.8350 C   0  0  0  0  0  0  0  0  0  0  0  0
  133.7630   76.0430  226.7900 C   0  0  0  0  0  0  0  0  0  0  0  0
  132.9030   74.8900  227.1880 C   0  0  0  0  0  0  0  0  0  0  0  0
  133.1120   73.6370  226.3980 C   0  0  0  0  0  0  0  0  0  0  0  0
  132.9810   73.8820  224.9010 C   0  0  0  0  0  0  0  0  0  0  0  0
  139.3180   76.0990  222.1760 C   0  0  0  0  0  0  0  0  0  0  0  0
  140.2440   76.9530  221.6260 C   0  0  0  0  0  0  0  0  0  0  0  0
  141.4490   76.5550  221.1040 C   0  0  0  0  0  0  0  0  0  0  0  0
  141.7360   75.2020  221.1420 C   0  0  0  0  0  0  0  0  0  0  0  0
  142.9420   74.7820  220.6220 C   0  0  0  0  0  0  0  0  0  0  0  0
  143.2240   73.4410  220.6600 C   0  0  0  0  0  0  0  0  0  0  0  0
  144.7520   72.8870  220.0050 Cl  0  0  0  0  0  0  0  0  0  0  0  0
  142.3120   72.5680  221.2060 C   0  0  0  0  0  0  0  0  0  0  0  0
  141.0940   72.9840  221.7320 C   0  0  0  0  0  0  0  0  0  0  0  0
  140.8070   74.3440  221.6940 C   0  0  0  0  0  0  0  0  0  0  0  0
  139.6330   74.7830  222.1950 N   0  0  0  0  0  0  0  0  0  0  0  0
  137.3260   74.5940  223.2040 H   0  0  0  0  0  0  0  0  0  0  0  0
  136.0409   76.7613  224.6261 H   0  0  0  0  0  0  0  0  0  0  0  0
  135.3114   76.6934  222.9941 H   0  0  0  0  0  0  0  0  0  0  0  0
  133.6583   77.0512  223.7496 H   0  0  0  0  0  0  0  0  0  0  0  0
  132.0463   76.3672  224.0752 H   0  0  0  0  0  0  0  0  0  0  0  0
  133.7105   77.9387  225.8171 H   0  0  0  0  0  0  0  0  0  0  0  0
  132.0977   77.2113  226.1681 H   0  0  0  0  0  0  0  0  0  0  0  0
  134.6720   75.6435  226.3165 H   0  0  0  0  0  0  0  0  0  0  0  0
  133.9641   76.6096  227.7112 H   0  0  0  0  0  0  0  0  0  0  0  0
  133.1054   74.6635  228.2452 H   0  0  0  0  0  0  0  0  0  0  0  0
  131.8658   75.2023  226.9963 H   0  0  0  0  0  0  0  0  0  0  0  0
  134.1192   73.2479  226.6080 H   0  0  0  0  0  0  0  0  0  0  0  0
  132.3381   72.9137  226.6944 H   0  0  0  0  0  0  0  0  0  0  0  0
  133.4175   73.0309  224.3577 H   0  0  0  0  0  0  0  0  0  0  0  0
  131.9141   73.9898  224.6557 H   0  0  0  0  0  0  0  0  0  0  0  0
  140.0033   78.0261  221.6028 H   0  0  0  0  0  0  0  0  0  0  0  0
  142.1559   77.2799  220.6741 H   0  0  0  0  0  0  0  0  0  0  0  0
  143.6550   75.5000  220.1905 H   0  0  0  0  0  0  0  0  0  0  0  0
  142.5565   71.4957  221.2274 H   0  0  0  0  0  0  0  0  0  0  0  0
  140.3832   72.2633  222.1626 H   0  0  0  0  0  0  0  0  0  0  0  0
  1  2  2  0
  2  3  1  0
  3  4  1  0
  4  5  1  0
  5  6  2  0
  5  7  1  0
  7  8  1  0
  8  9  1  0
  9 10  1  0
 10 11  1  0
 11 12  1  0
 12 13  1  0
  2 14  1  0
 14 15  2  0
 15 16  1  0
 16 17  2  0
 17 18  1  0
 18 19  2  0
 19 20  1  0
 19 21  1  0
 21 22  2  0
 22 23  1  0
 23 24  2  0
 13  7  1  0
 24 14  1  0
 23 17  1  0
  3 25  1  0
  4 26  1  0
  4 27  1  0
  8 28  1  0
  8 29  1  0
  9 30  1  0
  9 31  1  0
 10 32  1  0
 10 33  1  0
 11 34  1  0
 11 35  1  0
 12 36  1  0
 12 37  1  0
 13 38  1  0
 13 39  1  0
 15 40  1  0
 16 41  1  0
 18 42  1  0
 21 43  1  0
 22 44  1  0
M  END
>  <smiles>  (6) 
O=C(NCC(=O)N1CCCCCC1)c1ccc2cc(Cl)ccc2n1

>  <score_type>  (6) 
oracle

>  <origin>  (6) 
autodockgpu

>  <m_score__min__energy>  (6) 
-5.8499999999999996

>  <m_primary>  (6) 
energy

>  <rmsd>  (6) 
8.214201418324151

>  <m_score__min__rmsd>  (6) 
8.214201418324151

>  <meeko>  (6) 
{"free_energy": -3.72, "intermolecular_energy": -6.41, "internal_energy": -1.67, "cluster_size": 2, "cluster_id": 8, "rank_in_cluster": 2}

>  <energy>  (6) 
-5.03

>  <cluster_rmsd>  (6) 
0.81

>  <cluster>  (6) 
1

$$$$

     RDKit          3D

 44 46  0  0  0  0  0  0  0  0999 V2000
  141.0880   73.6850  220.9250 O   0  0  0  0  0  0  0  0  0  0  0  0
  140.1880   73.7380  221.7980 C   0  0  0  0  0  0  0  0  0  0  0  0
  139.4030   74.8910  222.0600 N   0  0  0  0  0  0  0  0  0  0  0  0
  139.6530   76.0930  221.2700 C   0  0  0  0  0  0  0  0  0  0  0  0
  139.2480   77.2780  222.0750 C   0  0  0  0  0  0  0  0  0  0  0  0
  138.3050   77.1710  222.9280 O   0  0  0  0  0  0  0  0  0  0  0  0
  139.9080   78.5250  221.8950 N   0  0  0  0  0  0  0  0  0  0  0  0
  140.9750   78.6150  220.9190 C   0  0  0  0  0  0  0  0  0  0  0  0
  141.8020   79.8330  221.2640 C   0  0  0  0  0  0  0  0  0  0  0  0
  142.5370   79.6190  222.5540 C   0  0  0  0  0  0  0  0  0  0  0  0
  141.6890   79.1510  223.6900 C   0  0  0  0  0  0  0  0  0  0  0  0
  140.4000   79.8850  223.8720 C   0  0  0  0  0  0  0  0  0  0  0  0
  139.4290   79.6060  222.7320 C   0  0  0  0  0  0  0  0  0  0  0  0
  139.9330   72.5320  222.5960 C   0  0  0  0  0  0  0  0  0  0  0  0
  138.9560   71.6290  222.2470 C   0  0  0  0  0  0  0  0  0  0  0  0
  138.6720   70.4870  222.9530 C   0  0  0  0  0  0  0  0  0  0  0  0
  139.4280   70.2410  224.0860 C   0  0  0  0  0  0  0  0  0  0  0  0
  139.1570   69.0990  224.8080 C   0  0  0  0  0  0  0  0  0  0  0  0
  139.9060   68.8580  225.9300 C   0  0  0  0  0  0  0  0  0  0  0  0
  139.5780   67.4100  226.8620 Cl  0  0  0  0  0  0  0  0  0  0  0  0
  140.8890   69.7470  226.2980 C   0  0  0  0  0  0  0  0  0  0  0  0
  141.1670   70.9020  225.5750 C   0  0  0  0  0  0  0  0  0  0  0  0
  140.4070   71.1470  224.4360 C   0  0  0  0  0  0  0  0  0  0  0  0
  140.6510   72.2590  223.7100 N   0  0  0  0  0  0  0  0  0  0  0  0
  138.6500   74.8990  222.8070 H   0  0  0  0  0  0  0  0  0  0  0  0
  140.7230   76.1596  221.0236 H   0  0  0  0  0  0  0  0  0  0  0  0
  139.0756   76.0568  220.3344 H   0  0  0  0  0  0  0  0  0  0  0  0
  141.6007   77.7113  220.9617 H   0  0  0  0  0  0  0  0  0  0  0  0
  140.5648   78.6995  219.9019 H   0  0  0  0  0  0  0  0  0  0  0  0
  142.5289   80.0172  220.4592 H   0  0  0  0  0  0  0  0  0  0  0  0
  141.1324   80.6987  221.3747 H   0  0  0  0  0  0  0  0  0  0  0  0
  143.3207   78.8670  222.3801 H   0  0  0  0  0  0  0  0  0  0  0  0
  142.9342   80.6013  222.8496 H   0  0  0  0  0  0  0  0  0  0  0  0
  141.4545   78.0893  223.5236 H   0  0  0  0  0  0  0  0  0  0  0  0
  142.2750   79.3363  224.6023 H   0  0  0  0  0  0  0  0  0  0  0  0
  139.9392   79.5674  224.8190 H   0  0  0  0  0  0  0  0  0  0  0  0
  140.6171   80.9633  223.8824 H   0  0  0  0  0  0  0  0  0  0  0  0
  138.4508   79.3293  223.1522 H   0  0  0  0  0  0  0  0  0  0  0  0
  139.3412   80.5134  222.1164 H   0  0  0  0  0  0  0  0  0  0  0  0
  138.3638   71.8356  221.3433 H   0  0  0  0  0  0  0  0  0  0  0  0
  137.8777   69.7969  222.6323 H   0  0  0  0  0  0  0  0  0  0  0  0
  138.3650   68.4033  224.4939 H   0  0  0  0  0  0  0  0  0  0  0  0
  141.4797   69.5356  227.2016 H   0  0  0  0  0  0  0  0  0  0  0  0
  141.9589   71.5964  225.8922 H   0  0  0  0  0  0  0  0  0  0  0  0
  1  2  2  0
  2  3  1  0
  3  4  1  0
  4  5  1  0
  5  6  2  0
  5  7  1  0
  7  8  1  0
  8  9  1  0
  9 10  1  0
 10 11  1  0
 11 12  1  0
 12 13  1  0
  2 14  1  0
 14 15  2  0
 15 16  1  0
 16 17  2  0
 17 18  1  0
 18 19  2  0
 19 20  1  0
 19 21  1  0
 21 22  2  0
 22 23  1  0
 23 24  2  0
 13  7  1  0
 24 14  1  0
 23 17  1  0
  3 25  1  0
  4 26  1  0
  4 27  1  0
  8 28  1  0
  8 29  1  0
  9 30  1  0
  9 31  1  0
 10 32  1  0
 10 33  1  0
 11 34  1  0
 11 35  1  0
 12 36  1  0
 12 37  1  0
 13 38  1  0
 13 39  1  0
 15 40  1  0
 16 41  1  0
 18 42  1  0
 21 43  1  0
 22 44  1  0
M  END
>  <smiles>  (7) 
O=C(NCC(=O)N1CCCCCC1)c1ccc2cc(Cl)ccc2n1

>  <score_type>  (7) 
oracle

>  <origin>  (7) 
autodockgpu

>  <m_score__min__energy>  (7) 
-5.8499999999999996

>  <m_primary>  (7) 
energy

>  <rmsd>  (7) 
3.9126065384190425

>  <m_score__min__rmsd>  (7) 
3.9126065384190425

>  <meeko>  (7) 
{"free_energy": -5.26, "intermolecular_energy": -7.95, "internal_energy": -1.34, "cluster_size": 14, "cluster_id": 3, "rank_in_cluster": 3}

>  <energy>  (7) 
-5.02

>  <cluster_rmsd>  (7) 
1.37

>  <cluster>  (7) 
1

$$$$

     RDKit          3D

 44 46  0  0  0  0  0  0  0  0999 V2000
  138.3060   69.7000  222.7580 O   0  0  0  0  0  0  0  0  0  0  0  0
  138.0160   70.8600  223.1390 C   0  0  0  0  0  0  0  0  0  0  0  0
  138.7810   72.0130  222.8220 N   0  0  0  0  0  0  0  0  0  0  0  0
  139.9800   71.8460  222.0060 C   0  0  0  0  0  0  0  0  0  0  0  0
  140.4410   73.1910  221.5650 C   0  0  0  0  0  0  0  0  0  0  0  0
  140.1490   74.2200  222.2630 O   0  0  0  0  0  0  0  0  0  0  0  0
  141.2020   73.3320  220.3730 N   0  0  0  0  0  0  0  0  0  0  0  0
  141.5180   72.1460  219.6020 C   0  0  0  0  0  0  0  0  0  0  0  0
  142.7470   71.5190  220.2210 C   0  0  0  0  0  0  0  0  0  0  0  0
  143.9240   72.4400  220.0970 C   0  0  0  0  0  0  0  0  0  0  0  0
  143.7800   73.7430  220.8100 C   0  0  0  0  0  0  0  0  0  0  0  0
  143.1110   74.8280  220.0250 C   0  0  0  0  0  0  0  0  0  0  0  0
  141.5950   74.6870  220.0440 C   0  0  0  0  0  0  0  0  0  0  0  0
  136.8120   71.0340  223.9600 C   0  0  0  0  0  0  0  0  0  0  0  0
  136.2020   69.9700  224.5810 C   0  0  0  0  0  0  0  0  0  0  0  0
  135.0760   70.0720  225.3600 C   0  0  0  0  0  0  0  0  0  0  0  0
  134.5320   71.3340  225.5210 C   0  0  0  0  0  0  0  0  0  0  0  0
  133.4020   71.4550  226.2990 C   0  0  0  0  0  0  0  0  0  0  0  0
  132.8640   72.7070  226.4570 C   0  0  0  0  0  0  0  0  0  0  0  0
  131.4250   72.8830  227.4430 Cl  0  0  0  0  0  0  0  0  0  0  0  0
  133.4570   73.7860  225.8440 C   0  0  0  0  0  0  0  0  0  0  0  0
  134.5980   73.6700  225.0570 C   0  0  0  0  0  0  0  0  0  0  0  0
  135.1440   72.4010  224.8970 C   0  0  0  0  0  0  0  0  0  0  0  0
  136.2510   72.2530  224.1390 N   0  0  0  0  0  0  0  0  0  0  0  0
  138.5060   72.9790  223.1610 H   0  0  0  0  0  0  0  0  0  0  0  0
  140.7682   71.3595  222.5994 H   0  0  0  0  0  0  0  0  0  0  0  0
  139.7565   71.2180  221.1309 H   0  0  0  0  0  0  0  0  0  0  0  0
  140.6763   71.4387  219.6380 H   0  0  0  0  0  0  0  0  0  0  0  0
  141.7023   72.4048  218.5489 H   0  0  0  0  0  0  0  0  0  0  0  0
  142.5544   71.3186  221.2853 H   0  0  0  0  0  0  0  0  0  0  0  0
  142.9720   70.5802  219.6937 H   0  0  0  0  0  0  0  0  0  0  0  0
  144.8062   71.9237  220.5035 H   0  0  0  0  0  0  0  0  0  0  0  0
  144.0152   72.6818  219.0278 H   0  0  0  0  0  0  0  0  0  0  0  0
  143.1895   73.5688  221.7216 H   0  0  0  0  0  0  0  0  0  0  0  0
  144.8023   74.0965  221.0099 H   0  0  0  0  0  0  0  0  0  0  0  0
  143.3835   75.8013  220.4590 H   0  0  0  0  0  0  0  0  0  0  0  0
  143.4484   74.7524  218.9808 H   0  0  0  0  0  0  0  0  0  0  0  0
  141.1795   75.3743  220.7957 H   0  0  0  0  0  0  0  0  0  0  0  0
  141.2086   74.9299  219.0431 H   0  0  0  0  0  0  0  0  0  0  0  0
  136.6447   68.9722  224.4450 H   0  0  0  0  0  0  0  0  0  0  0  0
  134.6257   69.1883  225.8357 H   0  0  0  0  0  0  0  0  0  0  0  0
  132.9457   70.5763  226.7781 H   0  0  0  0  0  0  0  0  0  0  0  0
  133.0105   74.7818  225.9818 H   0  0  0  0  0  0  0  0  0  0  0  0
  135.0521   74.5502  224.5785 H   0  0  0  0  0  0  0  0  0  0  0  0
  1  2  2  0
  2  3  1  0
  3  4  1  0
  4  5  1  0
  5  6  2  0
  5  7  1  0
  7  8  1  0
  8  9  1  0
  9 10  1  0
 10 11  1  0
 11 12  1  0
 12 13  1  0
  2 14  1  0
 14 15  2  0
 15 16  1  0
 16 17  2  0
 17 18  1  0
 18 19  2  0
 19 20  1  0
 19 21  1  0
 21 22  2  0
 22 23  1  0
 23 24  2  0
 13  7  1  0
 24 14  1  0
 23 17  1  0
  3 25  1  0
  4 26  1  0
  4 27  1  0
  8 28  1  0
  8 29  1  0
  9 30  1  0
  9 31  1  0
 10 32  1  0
 10 33  1  0
 11 34  1  0
 11 35  1  0
 12 36  1  0
 12 37  1  0
 13 38  1  0
 13 39  1  0
 15 40  1  0
 16 41  1  0
 18 42  1  0
 21 43  1  0
 22 44  1  0
M  END
>  <smiles>  (8) 
O=C(NCC(=O)N1CCCCCC1)c1ccc2cc(Cl)ccc2n1

>  <score_type>  (8) 
oracle

>  <origin>  (8) 
autodockgpu

>  <m_score__min__energy>  (8) 
-5.8499999999999996

>  <m_primary>  (8) 
energy

>  <rmsd>  (8) 
5.003056473467707

>  <m_score__min__rmsd>  (8) 
5.003056473467707

>  <meeko>  (8) 
{"free_energy": -3.58, "intermolecular_energy": -6.27, "internal_energy": -1.62, "cluster_size": 2, "cluster_id": 9, "rank_in_cluster": 2}

>  <energy>  (8) 
-4.9

>  <cluster_rmsd>  (8) 
1.27

>  <cluster>  (8) 
1

$$$$

     RDKit          3D

 44 46  0  0  0  0  0  0  0  0999 V2000
  137.1860   70.6310  222.3790 O   0  0  0  0  0  0  0  0  0  0  0  0
  136.9670   70.6320  223.6140 C   0  0  0  0  0  0  0  0  0  0  0  0
  137.5990   69.7540  224.5340 N   0  0  0  0  0  0  0  0  0  0  0  0
  138.5630   68.7880  224.0170 C   0  0  0  0  0  0  0  0  0  0  0  0
  139.3750   68.2780  225.1560 C   0  0  0  0  0  0  0  0  0  0  0  0
  139.2070   67.0810  225.5660 O   0  0  0  0  0  0  0  0  0  0  0  0
  140.3330   69.1200  225.7850 N   0  0  0  0  0  0  0  0  0  0  0  0
  140.5010   70.4740  225.2970 C   0  0  0  0  0  0  0  0  0  0  0  0
  141.1200   71.2840  226.4140 C   0  0  0  0  0  0  0  0  0  0  0  0
  140.1540   71.4320  227.5520 C   0  0  0  0  0  0  0  0  0  0  0  0
  139.5750   70.1520  228.0560 C   0  0  0  0  0  0  0  0  0  0  0  0
  140.5580   69.0310  228.2230 C   0  0  0  0  0  0  0  0  0  0  0  0
  141.0630   68.5160  226.8820 C   0  0  0  0  0  0  0  0  0  0  0  0
  135.9970   71.6010  224.1400 C   0  0  0  0  0  0  0  0  0  0  0  0
  135.9290   72.8870  223.6580 C   0  0  0  0  0  0  0  0  0  0  0  0
  135.0450   73.8360  224.1090 C   0  0  0  0  0  0  0  0  0  0  0  0
  134.1730   73.4570  225.1140 C   0  0  0  0  0  0  0  0  0  0  0  0
  133.2780   74.3960  225.5800 C   0  0  0  0  0  0  0  0  0  0  0  0
  132.4140   74.0190  226.5770 C   0  0  0  0  0  0  0  0  0  0  0  0
  131.2690   75.1990  227.1840 Cl  0  0  0  0  0  0  0  0  0  0  0  0
  132.4650   72.7380  227.0740 C   0  0  0  0  0  0  0  0  0  0  0  0
  133.3660   71.7850  226.6090 C   0  0  0  0  0  0  0  0  0  0  0  0
  134.2410   72.1670  225.5980 C   0  0  0  0  0  0  0  0  0  0  0  0
  135.1290   71.2670  225.1230 N   0  0  0  0  0  0  0  0  0  0  0  0
  137.3890   69.7840  225.5720 H   0  0  0  0  0  0  0  0  0  0  0  0
  138.0313   67.9533  223.5368 H   0  0  0  0  0  0  0  0  0  0  0  0
  139.2157   69.2672  223.2725 H   0  0  0  0  0  0  0  0  0  0  0  0
  141.1631   70.4776  224.4186 H   0  0  0  0  0  0  0  0  0  0  0  0
  139.5328   70.9018  224.9976 H   0  0  0  0  0  0  0  0  0  0  0  0
  142.0262   70.7736  226.7722 H   0  0  0  0  0  0  0  0  0  0  0  0
  141.3745   72.2831  226.0306 H   0  0  0  0  0  0  0  0  0  0  0  0
  140.6802   71.9204  228.3854 H   0  0  0  0  0  0  0  0  0  0  0  0
  139.3095   72.0210  227.1649 H   0  0  0  0  0  0  0  0  0  0  0  0
  139.1132   70.3489  229.0348 H   0  0  0  0  0  0  0  0  0  0  0  0
  138.8572   69.8187  227.2920 H   0  0  0  0  0  0  0  0  0  0  0  0
  141.4145   69.3933  228.8105 H   0  0  0  0  0  0  0  0  0  0  0  0
  140.0476   68.2029  228.7366 H   0  0  0  0  0  0  0  0  0  0  0  0
  142.1307   68.7609  226.7816 H   0  0  0  0  0  0  0  0  0  0  0  0
  140.9122   67.4270  226.8457 H   0  0  0  0  0  0  0  0  0  0  0  0
  136.6284   73.1743  222.8590 H   0  0  0  0  0  0  0  0  0  0  0  0
  135.0308   74.8528  223.6897 H   0  0  0  0  0  0  0  0  0  0  0  0
  133.2571   75.4149  225.1659 H   0  0  0  0  0  0  0  0  0  0  0  0
  131.7640   72.4546  227.8729 H   0  0  0  0  0  0  0  0  0  0  0  0
  133.3854   70.7672  227.0257 H   0  0  0  0  0  0  0  0  0  0  0  0
  1  2  2  0
  2  3  1  0
  3  4  1  0
  4  5  1  0
  5  6  2  0
  5  7  1  0
  7  8  1  0
  8  9  1  0
  9 10  1  0
 10 11  1  0
 11 12  1  0
 12 13  1  0
  2 14  1  0
 14 15  2  0
 15 16  1  0
 16 17  2  0
 17 18  1  0
 18 19  2  0
 19 20  1  0
 19 21  1  0
 21 22  2  0
 22 23  1  0
 23 24  2  0
 13  7  1  0
 24 14  1  0
 23 17  1  0
  3 25  1  0
  4 26  1  0
  4 27  1  0
  8 28  1  0
  8 29  1  0
  9 30  1  0
  9 31  1  0
 10 32  1  0
 10 33  1  0
 11 34  1  0
 11 35  1  0
 12 36  1  0
 12 37  1  0
 13 38  1  0
 13 39  1  0
 15 40  1  0
 16 41  1  0
 18 42  1  0
 21 43  1  0
 22 44  1  0
M  END
>  <smiles>  (9) 
O=C(NCC(=O)N1CCCCCC1)c1ccc2cc(Cl)ccc2n1

>  <score_type>  (9) 
oracle

>  <origin>  (9) 
autodockgpu

>  <m_score__min__energy>  (9) 
-5.8499999999999996

>  <m_primary>  (9) 
energy

>  <rmsd>  (9) 
8.305597644635487

>  <m_score__min__rmsd>  (9) 
8.305597644635487

>  <meeko>  (9) 
{"free_energy": -4.9, "intermolecular_energy": -7.58, "internal_energy": -1.25, "cluster_size": 14, "cluster_id": 1, "rank_in_cluster": 8}

>  <energy>  (9) 
-4.86

>  <cluster_rmsd>  (9) 
1.14

>  <cluster>  (9) 
1

$$$$

     RDKit          3D

 44 46  0  0  0  0  0  0  0  0999 V2000
  138.1440   70.0490  222.5260 O   0  0  0  0  0  0  0  0  0  0  0  0
  137.8600   71.2180  222.8840 C   0  0  0  0  0  0  0  0  0  0  0  0
  138.5940   72.3680  222.4930 N   0  0  0  0  0  0  0  0  0  0  0  0
  139.7520   72.1880  221.6220 C   0  0  0  0  0  0  0  0  0  0  0  0
  140.4990   73.4740  221.5600 C   0  0  0  0  0  0  0  0  0  0  0  0
  140.0200   74.5120  222.1270 O   0  0  0  0  0  0  0  0  0  0  0  0
  141.7410   73.5480  220.8700 N   0  0  0  0  0  0  0  0  0  0  0  0
  142.2590   72.3520  220.2360 C   0  0  0  0  0  0  0  0  0  0  0  0
  143.5810   72.0280  220.8940 C   0  0  0  0  0  0  0  0  0  0  0  0
  144.7050   72.7170  220.1800 C   0  0  0  0  0  0  0  0  0  0  0  0
  144.7300   74.2010  220.3320 C   0  0  0  0  0  0  0  0  0  0  0  0
  143.5030   74.9120  219.8540 C   0  0  0  0  0  0  0  0  0  0  0  0
  142.3760   74.8490  220.8760 C   0  0  0  0  0  0  0  0  0  0  0  0
  136.6970   71.4060  223.7600 C   0  0  0  0  0  0  0  0  0  0  0  0
  136.0300   70.3380  224.3120 C   0  0  0  0  0  0  0  0  0  0  0  0
  134.9380   70.4510  225.1370 C   0  0  0  0  0  0  0  0  0  0  0  0
  134.4930   71.7300  225.4210 C   0  0  0  0  0  0  0  0  0  0  0  0
  133.3990   71.8640  226.2480 C   0  0  0  0  0  0  0  0  0  0  0  0
  132.9590   73.1320  226.5280 C   0  0  0  0  0  0  0  0  0  0  0  0
  131.5680   73.3240  227.5770 Cl  0  0  0  0  0  0  0  0  0  0  0  0
  133.6110   74.2150  225.9860 C   0  0  0  0  0  0  0  0  0  0  0  0
  134.7160   74.0880  225.1520 C   0  0  0  0  0  0  0  0  0  0  0  0
  135.1620   72.8010  224.8670 C   0  0  0  0  0  0  0  0  0  0  0  0
  136.2330   72.6410  224.0600 N   0  0  0  0  0  0  0  0  0  0  0  0
  138.3250   73.3420  222.8150 H   0  0  0  0  0  0  0  0  0  0  0  0
  140.4030   71.3997  222.0279 H   0  0  0  0  0  0  0  0  0  0  0  0
  139.4242   71.8929  220.6143 H   0  0  0  0  0  0  0  0  0  0  0  0
  141.5554   71.5179  220.3750 H   0  0  0  0  0  0  0  0  0  0  0  0
  142.3916   72.5114  219.1557 H   0  0  0  0  0  0  0  0  0  0  0  0
  143.5566   72.3648  221.9409 H   0  0  0  0  0  0  0  0  0  0  0  0
  143.7440   70.9411  220.8493 H   0  0  0  0  0  0  0  0  0  0  0  0
  145.6530   72.3176  220.5695 H   0  0  0  0  0  0  0  0  0  0  0  0
  144.5568   72.5192  219.1081 H   0  0  0  0  0  0  0  0  0  0  0  0
  144.8625   74.4314  221.3994 H   0  0  0  0  0  0  0  0  0  0  0  0
  145.5556   74.5585  219.6990 H   0  0  0  0  0  0  0  0  0  0  0  0
  143.7536   75.9664  219.6655 H   0  0  0  0  0  0  0  0  0  0  0  0
  143.1579   74.4161  218.9348 H   0  0  0  0  0  0  0  0  0  0  0  0
  142.7875   75.0436  221.8774 H   0  0  0  0  0  0  0  0  0  0  0  0
  141.6232   75.6071  220.6141 H   0  0  0  0  0  0  0  0  0  0  0  0
  136.3948   69.3271  224.0775 H   0  0  0  0  0  0  0  0  0  0  0  0
  134.4390   69.5637  225.5537 H   0  0  0  0  0  0  0  0  0  0  0  0
  132.8949   70.9820  226.6700 H   0  0  0  0  0  0  0  0  0  0  0  0
  133.2426   75.2242  226.2224 H   0  0  0  0  0  0  0  0  0  0  0  0
  135.2191   74.9719  224.7330 H   0  0  0  0  0  0  0  0  0  0  0  0
  1  2  2  0
  2  3  1  0
  3  4  1  0
  4  5  1  0
  5  6  2  0
  5  7  1  0
  7  8  1  0
  8  9  1  0
  9 10  1  0
 10 11  1  0
 11 12  1  0
 12 13  1  0
  2 14  1  0
 14 15  2  0
 15 16  1  0
 16 17  2  0
 17 18  1  0
 18 19  2  0
 19 20  1  0
 19 21  1  0
 21 22  2  0
 22 23  1  0
 23 24  2  0
 13  7  1  0
 24 14  1  0
 23 17  1  0
  3 25  1  0
  4 26  1  0
  4 27  1  0
  8 28  1  0
  8 29  1  0
  9 30  1  0
  9 31  1  0
 10 32  1  0
 10 33  1  0
 11 34  1  0
 11 35  1  0
 12 36  1  0
 12 37  1  0
 13 38  1  0
 13 39  1  0
 15 40  1  0
 16 41  1  0
 18 42  1  0
 21 43  1  0
 22 44  1  0
M  END
>  <smiles>  (10) 
O=C(NCC(=O)N1CCCCCC1)c1ccc2cc(Cl)ccc2n1

>  <score_type>  (10) 
oracle

>  <origin>  (10) 
autodockgpu

>  <m_score__min__energy>  (10) 
-5.8499999999999996

>  <m_primary>  (10) 
energy

>  <rmsd>  (10) 
5.0894596063199495

>  <m_score__min__rmsd>  (10) 
5.0894596063199495

>  <meeko>  (10) 
{"free_energy": -3.86, "intermolecular_energy": -6.55, "internal_energy": -1.65, "cluster_size": 2, "cluster_id": 9, "rank_in_cluster": 1}

>  <energy>  (10) 
-4.71

>  <cluster_rmsd>  (10) 
1.64

>  <cluster>  (10) 
1

$$$$

     RDKit          3D

 44 46  0  0  0  0  0  0  0  0999 V2000
  139.4620   71.9770  220.8420 O   0  0  0  0  0  0  0  0  0  0  0  0
  139.5180   72.4570  222.0000 C   0  0  0  0  0  0  0  0  0  0  0  0
  139.4260   73.8430  222.2910 N   0  0  0  0  0  0  0  0  0  0  0  0
  139.2580   74.7740  221.1800 C   0  0  0  0  0  0  0  0  0  0  0  0
  139.6010   76.1420  221.6550 C   0  0  0  0  0  0  0  0  0  0  0  0
  138.7460   76.8110  222.3280 O   0  0  0  0  0  0  0  0  0  0  0  0
  140.8740   76.7030  221.3630 N   0  0  0  0  0  0  0  0  0  0  0  0
  141.8230   75.9200  220.5980 C   0  0  0  0  0  0  0  0  0  0  0  0
  141.4300   76.0310  219.1420 C   0  0  0  0  0  0  0  0  0  0  0  0
  141.1430   77.4580  218.7830 C   0  0  0  0  0  0  0  0  0  0  0  0
  141.9260   78.4690  219.5530 C   0  0  0  0  0  0  0  0  0  0  0  0
  141.2170   79.0480  220.7420 C   0  0  0  0  0  0  0  0  0  0  0  0
  141.0950   78.0400  221.8770 C   0  0  0  0  0  0  0  0  0  0  0  0
  139.6870   71.5250  223.1220 C   0  0  0  0  0  0  0  0  0  0  0  0
  139.3480   70.1970  223.0150 C   0  0  0  0  0  0  0  0  0  0  0  0
  139.4840   69.2800  224.0280 C   0  0  0  0  0  0  0  0  0  0  0  0
  139.9980   69.7380  225.2280 C   0  0  0  0  0  0  0  0  0  0  0  0
  140.1420   68.8330  226.2570 C   0  0  0  0  0  0  0  0  0  0  0  0
  140.6500   69.2880  227.4450 C   0  0  0  0  0  0  0  0  0  0  0  0
  140.8410   68.1530  228.7670 Cl  0  0  0  0  0  0  0  0  0  0  0  0
  140.9960   70.6130  227.5750 C   0  0  0  0  0  0  0  0  0  0  0  0
  140.8540   71.5330  226.5410 C   0  0  0  0  0  0  0  0  0  0  0  0
  140.3380   71.0710  225.3360 C   0  0  0  0  0  0  0  0  0  0  0  0
  140.1860   71.9370  224.3110 N   0  0  0  0  0  0  0  0  0  0  0  0
  139.4770   74.2120  223.2830 H   0  0  0  0  0  0  0  0  0  0  0  0
  139.9258   74.4898  220.3534 H   0  0  0  0  0  0  0  0  0  0  0  0
  138.2185   74.7490  220.8209 H   0  0  0  0  0  0  0  0  0  0  0  0
  142.8397   76.3135  220.7442 H   0  0  0  0  0  0  0  0  0  0  0  0
  141.8129   74.8696  220.9244 H   0  0  0  0  0  0  0  0  0  0  0  0
  142.2538   75.6587  218.5153 H   0  0  0  0  0  0  0  0  0  0  0  0
  140.5233   75.4320  218.9716 H   0  0  0  0  0  0  0  0  0  0  0  0
  141.3672   77.5934  217.7146 H   0  0  0  0  0  0  0  0  0  0  0  0
  140.0856   77.6321  219.0312 H   0  0  0  0  0  0  0  0  0  0  0  0
  142.8496   77.9879  219.9072 H   0  0  0  0  0  0  0  0  0  0  0  0
  142.1071   79.3075  218.8644 H   0  0  0  0  0  0  0  0  0  0  0  0
  141.7805   79.9217  221.1014 H   0  0  0  0  0  0  0  0  0  0  0  0
  140.2018   79.3325  220.4282 H   0  0  0  0  0  0  0  0  0  0  0  0
  142.0229   78.0494  222.4677 H   0  0  0  0  0  0  0  0  0  0  0  0
  140.2360   78.3207  222.5041 H   0  0  0  0  0  0  0  0  0  0  0  0
  138.9412   69.8460  222.0551 H   0  0  0  0  0  0  0  0  0  0  0  0
  139.1967   68.2270  223.8913 H   0  0  0  0  0  0  0  0  0  0  0  0
  139.8579   67.7781  226.1285 H   0  0  0  0  0  0  0  0  0  0  0  0
  141.4020   70.9597  228.5368 H   0  0  0  0  0  0  0  0  0  0  0  0
  141.1396   72.5871  226.6723 H   0  0  0  0  0  0  0  0  0  0  0  0
  1  2  2  0
  2  3  1  0
  3  4  1  0
  4  5  1  0
  5  6  2  0
  5  7  1  0
  7  8  1  0
  8  9  1  0
  9 10  1  0
 10 11  1  0
 11 12  1  0
 12 13  1  0
  2 14  1  0
 14 15  2  0
 15 16  1  0
 16 17  2  0
 17 18  1  0
 18 19  2  0
 19 20  1  0
 19 21  1  0
 21 22  2  0
 22 23  1  0
 23 24  2  0
 13  7  1  0
 24 14  1  0
 23 17  1  0
  3 25  1  0
  4 26  1  0
  4 27  1  0
  8 28  1  0
  8 29  1  0
  9 30  1  0
  9 31  1  0
 10 32  1  0
 10 33  1  0
 11 34  1  0
 11 35  1  0
 12 36  1  0
 12 37  1  0
 13 38  1  0
 13 39  1  0
 15 40  1  0
 16 41  1  0
 18 42  1  0
 21 43  1  0
 22 44  1  0
M  END
>  <smiles>  (11) 
O=C(NCC(=O)N1CCCCCC1)c1ccc2cc(Cl)ccc2n1

>  <score_type>  (11) 
oracle

>  <origin>  (11) 
autodockgpu

>  <m_score__min__energy>  (11) 
-5.8499999999999996

>  <m_primary>  (11) 
energy

>  <rmsd>  (11) 
2.5048966743757717

>  <m_score__min__rmsd>  (11) 
2.5048966743757717

>  <meeko>  (11) 
{"free_energy": -4.79, "intermolecular_energy": -7.47, "internal_energy": -1.16, "cluster_size": 14, "cluster_id": 3, "rank_in_cluster": 10}

>  <energy>  (11) 
-4.71

>  <cluster_rmsd>  (11) 
0.83

>  <cluster>  (11) 
1

$$$$

     RDKit          3D

 44 46  0  0  0  0  0  0  0  0999 V2000
  135.2910   68.5500  224.6810 O   0  0  0  0  0  0  0  0  0  0  0  0
  135.8010   69.6640  224.9560 C   0  0  0  0  0  0  0  0  0  0  0  0
  137.1660   69.9870  224.7390 N   0  0  0  0  0  0  0  0  0  0  0  0
  138.0360   68.9670  224.1620 C   0  0  0  0  0  0  0  0  0  0  0  0
  138.9950   68.5190  225.2090 C   0  0  0  0  0  0  0  0  0  0  0  0
  138.9000   67.3400  225.6900 O   0  0  0  0  0  0  0  0  0  0  0  0
  140.0120   69.3980  225.6720 N   0  0  0  0  0  0  0  0  0  0  0  0
  140.0930   70.7300  225.1060 C   0  0  0  0  0  0  0  0  0  0  0  0
  141.1530   71.4850  225.8780 C   0  0  0  0  0  0  0  0  0  0  0  0
  140.6770   71.7790  227.2700 C   0  0  0  0  0  0  0  0  0  0  0  0
  141.0640   70.7640  228.2940 C   0  0  0  0  0  0  0  0  0  0  0  0
  140.5160   69.3880  228.0690 C   0  0  0  0  0  0  0  0  0  0  0  0
  140.8850   68.8540  226.6920 C   0  0  0  0  0  0  0  0  0  0  0  0
  134.9310   70.6940  225.5370 C   0  0  0  0  0  0  0  0  0  0  0  0
  133.9210   70.3750  226.4130 C   0  0  0  0  0  0  0  0  0  0  0  0
  133.0770   71.2930  226.9870 C   0  0  0  0  0  0  0  0  0  0  0  0
  133.2690   72.6220  226.6510 C   0  0  0  0  0  0  0  0  0  0  0  0
  132.4320   73.5590  227.2180 C   0  0  0  0  0  0  0  0  0  0  0  0
  132.6230   74.8750  226.8840 C   0  0  0  0  0  0  0  0  0  0  0  0
  131.5680   76.0820  227.5930 Cl  0  0  0  0  0  0  0  0  0  0  0  0
  133.6270   75.2160  226.0080 C   0  0  0  0  0  0  0  0  0  0  0  0
  134.4770   74.2760  225.4330 C   0  0  0  0  0  0  0  0  0  0  0  0
  134.2820   72.9420  225.7720 C   0  0  0  0  0  0  0  0  0  0  0  0
  135.0880   72.0030  225.2320 N   0  0  0  0  0  0  0  0  0  0  0  0
  137.5630   70.9390  224.9830 H   0  0  0  0  0  0  0  0  0  0  0  0
  137.4320   68.1129  223.8218 H   0  0  0  0  0  0  0  0  0  0  0  0
  138.5825   69.3798  223.3012 H   0  0  0  0  0  0  0  0  0  0  0  0
  140.3719   70.6709  224.0436 H   0  0  0  0  0  0  0  0  0  0  0  0
  139.1220   71.2421  225.1765 H   0  0  0  0  0  0  0  0  0  0  0  0
  142.0673   70.8756  225.9288 H   0  0  0  0  0  0  0  0  0  0  0  0
  141.3599   72.4351  225.3637 H   0  0  0  0  0  0  0  0  0  0  0  0
  141.0945   72.7496  227.5761 H   0  0  0  0  0  0  0  0  0  0  0  0
  139.5778   71.7716  227.2282 H   0  0  0  0  0  0  0  0  0  0  0  0
  142.1618   70.6950  228.3065 H   0  0  0  0  0  0  0  0  0  0  0  0
  140.6340   71.1114  229.2450 H   0  0  0  0  0  0  0  0  0  0  0  0
  140.9241   68.7120  228.8348 H   0  0  0  0  0  0  0  0  0  0  0  0
  139.4192   69.4405  228.1342 H   0  0  0  0  0  0  0  0  0  0  0  0
  141.9236   69.1354  226.4637 H   0  0  0  0  0  0  0  0  0  0  0  0
  140.7745   67.7596  226.6999 H   0  0  0  0  0  0  0  0  0  0  0  0
  133.7798   69.3150  226.6709 H   0  0  0  0  0  0  0  0  0  0  0  0
  132.2829   70.9859  227.6835 H   0  0  0  0  0  0  0  0  0  0  0  0
  131.6362   73.2604  227.9162 H   0  0  0  0  0  0  0  0  0  0  0  0
  133.7639   76.2768  225.7510 H   0  0  0  0  0  0  0  0  0  0  0  0
  135.2733   74.5773  224.7364 H   0  0  0  0  0  0  0  0  0  0  0  0
  1  2  2  0
  2  3  1  0
  3  4  1  0
  4  5  1  0
  5  6  2  0
  5  7  1  0
  7  8  1  0
  8  9  1  0
  9 10  1  0
 10 11  1  0
 11 12  1  0
 12 13  1  0
  2 14  1  0
 14 15  2  0
 15 16  1  0
 16 17  2  0
 17 18  1  0
 18 19  2  0
 19 20  1  0
 19 21  1  0
 21 22  2  0
 22 23  1  0
 23 24  2  0
 13  7  1  0
 24 14  1  0
 23 17  1  0
  3 25  1  0
  4 26  1  0
  4 27  1  0
  8 28  1  0
  8 29  1  0
  9 30  1  0
  9 31  1  0
 10 32  1  0
 10 33  1  0
 11 34  1  0
 11 35  1  0
 12 36  1  0
 12 37  1  0
 13 38  1  0
 13 39  1  0
 15 40  1  0
 16 41  1  0
 18 42  1  0
 21 43  1  0
 22 44  1  0
M  END
>  <smiles>  (12) 
O=C(NCC(=O)N1CCCCCC1)c1ccc2cc(Cl)ccc2n1

>  <score_type>  (12) 
oracle

>  <origin>  (12) 
autodockgpu

>  <m_score__min__energy>  (12) 
-5.8499999999999996

>  <m_primary>  (12) 
energy

>  <rmsd>  (12) 
8.273412683525288

>  <m_score__min__rmsd>  (12) 
8.273412683525288

>  <meeko>  (12) 
{"free_energy": -5.85, "intermolecular_energy": -8.53, "internal_energy": -1.11, "cluster_size": 14, "cluster_id": 1, "rank_in_cluster": 1}

>  <energy>  (12) 
-4.23

>  <cluster_rmsd>  (12) 
1.78

>  <cluster>  (12) 
1

$$$$

     RDKit          3D

 44 46  0  0  0  0  0  0  0  0999 V2000
  138.9360   71.7280  220.7980 O   0  0  0  0  0  0  0  0  0  0  0  0
  139.1900   72.2490  221.9110 C   0  0  0  0  0  0  0  0  0  0  0  0
  139.2510   73.6480  222.1380 N   0  0  0  0  0  0  0  0  0  0  0  0
  139.0050   74.5440  221.0120 C   0  0  0  0  0  0  0  0  0  0  0  0
  140.1710   75.4590  220.8750 C   0  0  0  0  0  0  0  0  0  0  0  0
  140.1130   76.6350  221.3670 O   0  0  0  0  0  0  0  0  0  0  0  0
  141.3450   75.0270  220.1980 N   0  0  0  0  0  0  0  0  0  0  0  0
  141.3810   73.6860  219.6500 C   0  0  0  0  0  0  0  0  0  0  0  0
  142.2820   72.8580  220.5400 C   0  0  0  0  0  0  0  0  0  0  0  0
  143.7110   72.9890  220.1050 C   0  0  0  0  0  0  0  0  0  0  0  0
  144.2910   74.3560  220.2540 C   0  0  0  0  0  0  0  0  0  0  0  0
  143.6370   75.4220  219.4290 C   0  0  0  0  0  0  0  0  0  0  0  0
  142.4140   76.0020  220.1270 C   0  0  0  0  0  0  0  0  0  0  0  0
  139.4390   71.3530  223.0480 C   0  0  0  0  0  0  0  0  0  0  0  0
  139.1140   70.0180  222.9990 C   0  0  0  0  0  0  0  0  0  0  0  0
  139.3230   69.1340  224.0290 C   0  0  0  0  0  0  0  0  0  0  0  0
  139.8980   69.6340  225.1830 C   0  0  0  0  0  0  0  0  0  0  0  0
  140.1150   68.7620  226.2280 C   0  0  0  0  0  0  0  0  0  0  0  0
  140.6840   69.2600  227.3710 C   0  0  0  0  0  0  0  0  0  0  0  0
  140.9680   68.1660  228.7110 Cl  0  0  0  0  0  0  0  0  0  0  0  0
  141.0160   70.5930  227.4420 C   0  0  0  0  0  0  0  0  0  0  0  0
  140.8010   71.4790  226.3920 C   0  0  0  0  0  0  0  0  0  0  0  0
  140.2230   70.9740  225.2320 C   0  0  0  0  0  0  0  0  0  0  0  0
  139.9990   71.8070  224.1940 N   0  0  0  0  0  0  0  0  0  0  0  0
  139.4690   74.0530  223.0940 H   0  0  0  0  0  0  0  0  0  0  0  0
  138.8835   73.9568  220.0898 H   0  0  0  0  0  0  0  0  0  0  0  0
  138.0873   75.1252  221.1855 H   0  0  0  0  0  0  0  0  0  0  0  0
  140.3680   73.2575  219.6376 H   0  0  0  0  0  0  0  0  0  0  0  0
  141.7598   73.6983  218.6173 H   0  0  0  0  0  0  0  0  0  0  0  0
  142.1859   73.2076  221.5785 H   0  0  0  0  0  0  0  0  0  0  0  0
  141.9825   71.8021  220.4670 H   0  0  0  0  0  0  0  0  0  0  0  0
  144.3160   72.2939  220.7057 H   0  0  0  0  0  0  0  0  0  0  0  0
  143.7275   72.7628  219.0286 H   0  0  0  0  0  0  0  0  0  0  0  0
  144.2090   74.6466  221.3117 H   0  0  0  0  0  0  0  0  0  0  0  0
  145.3286   74.2872  219.8952 H   0  0  0  0  0  0  0  0  0  0  0  0
  144.3620   76.2296  219.2500 H   0  0  0  0  0  0  0  0  0  0  0  0
  143.3093   74.9700  218.4812 H   0  0  0  0  0  0  0  0  0  0  0  0
  142.6923   76.3055  221.1470 H   0  0  0  0  0  0  0  0  0  0  0  0
  142.0596   76.8688  219.5499 H   0  0  0  0  0  0  0  0  0  0  0  0
  138.6572   69.6332  222.0753 H   0  0  0  0  0  0  0  0  0  0  0  0
  139.0449   68.0735  223.9399 H   0  0  0  0  0  0  0  0  0  0  0  0
  139.8402   67.6999  226.1472 H   0  0  0  0  0  0  0  0  0  0  0  0
  141.4707   70.9741  228.3683 H   0  0  0  0  0  0  0  0  0  0  0  0
  141.0779   72.5403  226.4757 H   0  0  0  0  0  0  0  0  0  0  0  0
  1  2  2  0
  2  3  1  0
  3  4  1  0
  4  5  1  0
  5  6  2  0
  5  7  1  0
  7  8  1  0
  8  9  1  0
  9 10  1  0
 10 11  1  0
 11 12  1  0
 12 13  1  0
  2 14  1  0
 14 15  2  0
 15 16  1  0
 16 17  2  0
 17 18  1  0
 18 19  2  0
 19 20  1  0
 19 21  1  0
 21 22  2  0
 22 23  1  0
 23 24  2  0
 13  7  1  0
 24 14  1  0
 23 17  1  0
  3 25  1  0
  4 26  1  0
  4 27  1  0
  8 28  1  0
  8 29  1  0
  9 30  1  0
  9 31  1  0
 10 32  1  0
 10 33  1  0
 11 34  1  0
 11 35  1  0
 12 36  1  0
 12 37  1  0
 13 38  1  0
 13 39  1  0
 15 40  1  0
 16 41  1  0
 18 42  1  0
 21 43  1  0
 22 44  1  0
M  END
>  <smiles>  (13) 
O=C(NCC(=O)N1CCCCCC1)c1ccc2cc(Cl)ccc2n1

>  <score_type>  (13) 
oracle

>  <origin>  (13) 
autodockgpu

>  <m_score__min__energy>  (13) 
-5.8499999999999996

>  <m_primary>  (13) 
energy

>  <rmsd>  (13) 
2.6462624038958724

>  <m_score__min__rmsd>  (13) 
2.6462624038958724

>  <meeko>  (13) 
{"free_energy": -4.95, "intermolecular_energy": -7.64, "internal_energy": -1.41, "cluster_size": 6, "cluster_id": 4, "rank_in_cluster": 3}

>  <energy>  (13) 
-4.23

>  <cluster_rmsd>  (13) 
1.68

>  <cluster>  (13) 
1

$$$$

     RDKit          3D

 44 46  0  0  0  0  0  0  0  0999 V2000
  139.2350   71.8420  220.7830 O   0  0  0  0  0  0  0  0  0  0  0  0
  139.4160   72.3450  221.9180 C   0  0  0  0  0  0  0  0  0  0  0  0
  139.4560   73.7410  222.1700 N   0  0  0  0  0  0  0  0  0  0  0  0
  139.2780   74.6530  221.0440 C   0  0  0  0  0  0  0  0  0  0  0  0
  140.3420   75.6930  221.1080 C   0  0  0  0  0  0  0  0  0  0  0  0
  141.0420   75.8180  222.1680 O   0  0  0  0  0  0  0  0  0  0  0  0
  140.5780   76.5450  219.9940 N   0  0  0  0  0  0  0  0  0  0  0  0
  139.7660   76.3800  218.8050 C   0  0  0  0  0  0  0  0  0  0  0  0
  140.2150   77.4210  217.8040 C   0  0  0  0  0  0  0  0  0  0  0  0
  141.5360   77.0380  217.2060 C   0  0  0  0  0  0  0  0  0  0  0  0
  142.7300   77.5760  217.9220 C   0  0  0  0  0  0  0  0  0  0  0  0
  142.8640   77.1460  219.3530 C   0  0  0  0  0  0  0  0  0  0  0  0
  141.6360   77.5190  220.1720 C   0  0  0  0  0  0  0  0  0  0  0  0
  139.5960   71.4320  223.0540 C   0  0  0  0  0  0  0  0  0  0  0  0
  139.1620   70.1290  223.0080 C   0  0  0  0  0  0  0  0  0  0  0  0
  139.3020   69.2310  224.0360 C   0  0  0  0  0  0  0  0  0  0  0  0
  139.9240   69.6820  225.1870 C   0  0  0  0  0  0  0  0  0  0  0  0
  140.0740   68.7950  226.2310 C   0  0  0  0  0  0  0  0  0  0  0  0
  140.6890   69.2440  227.3710 C   0  0  0  0  0  0  0  0  0  0  0  0
  140.8890   68.1320  228.7100 Cl  0  0  0  0  0  0  0  0  0  0  0  0
  141.1300   70.5450  227.4390 C   0  0  0  0  0  0  0  0  0  0  0  0
  140.9830   71.4460  226.3900 C   0  0  0  0  0  0  0  0  0  0  0  0
  140.3580   70.9900  225.2340 C   0  0  0  0  0  0  0  0  0  0  0  0
  140.1980   71.8390  224.1960 N   0  0  0  0  0  0  0  0  0  0  0  0
  139.6120   74.1310  223.1430 H   0  0  0  0  0  0  0  0  0  0  0  0
  139.3592   74.0963  220.0987 H   0  0  0  0  0  0  0  0  0  0  0  0
  138.2854   75.1246  221.0932 H   0  0  0  0  0  0  0  0  0  0  0  0
  139.9088   75.3718  218.3889 H   0  0  0  0  0  0  0  0  0  0  0  0
  138.6991   76.5036  219.0425 H   0  0  0  0  0  0  0  0  0  0  0  0
  139.4647   77.5011  217.0036 H   0  0  0  0  0  0  0  0  0  0  0  0
  140.3239   78.3868  218.3191 H   0  0  0  0  0  0  0  0  0  0  0  0
  141.6047   75.9402  217.2041 H   0  0  0  0  0  0  0  0  0  0  0  0
  141.5571   77.4775  216.1978 H   0  0  0  0  0  0  0  0  0  0  0  0
  143.6289   77.2446  217.3815 H   0  0  0  0  0  0  0  0  0  0  0  0
  142.6072   78.6689  217.9419 H   0  0  0  0  0  0  0  0  0  0  0  0
  142.9961   76.0545  219.3861 H   0  0  0  0  0  0  0  0  0  0  0  0
  143.7336   77.6624  219.7855 H   0  0  0  0  0  0  0  0  0  0  0  0
  141.9120   77.5600  221.2360 H   0  0  0  0  0  0  0  0  0  0  0  0
  141.2714   78.4990  219.8306 H   0  0  0  0  0  0  0  0  0  0  0  0
  138.6702   69.7832  222.0868 H   0  0  0  0  0  0  0  0  0  0  0  0
  138.9357   68.1974  223.9490 H   0  0  0  0  0  0  0  0  0  0  0  0
  139.7117   67.7594  226.1521 H   0  0  0  0  0  0  0  0  0  0  0  0
  141.6199   70.8874  228.3625 H   0  0  0  0  0  0  0  0  0  0  0  0
  141.3474   72.4807  226.4713 H   0  0  0  0  0  0  0  0  0  0  0  0
  1  2  2  0
  2  3  1  0
  3  4  1  0
  4  5  1  0
  5  6  2  0
  5  7  1  0
  7  8  1  0
  8  9  1  0
  9 10  1  0
 10 11  1  0
 11 12  1  0
 12 13  1  0
  2 14  1  0
 14 15  2  0
 15 16  1  0
 16 17  2  0
 17 18  1  0
 18 19  2  0
 19 20  1  0
 19 21  1  0
 21 22  2  0
 22 23  1  0
 23 24  2  0
 13  7  1  0
 24 14  1  0
 23 17  1  0
  3 25  1  0
  4 26  1  0
  4 27  1  0
  8 28  1  0
  8 29  1  0
  9 30  1  0
  9 31  1  0
 10 32  1  0
 10 33  1  0
 11 34  1  0
 11 35  1  0
 12 36  1  0
 12 37  1  0
 13 38  1  0
 13 39  1  0
 15 40  1  0
 16 41  1  0
 18 42  1  0
 21 43  1  0
 22 44  1  0
M  END
>  <smiles>  (14) 
O=C(NCC(=O)N1CCCCCC1)c1ccc2cc(Cl)ccc2n1

>  <score_type>  (14) 
oracle

>  <origin>  (14) 
autodockgpu

>  <m_score__min__energy>  (14) 
-5.8499999999999996

>  <m_primary>  (14) 
energy

>  <rmsd>  (14) 
1.9654280461227447

>  <m_score__min__rmsd>  (14) 
1.9654280461227447

>  <meeko>  (14) 
{"free_energy": -4.42, "intermolecular_energy": -7.1, "internal_energy": -1.38, "cluster_size": 6, "cluster_id": 4, "rank_in_cluster": 5}

>  <energy>  (14) 
-4.18

>  <cluster_rmsd>  (14) 
1.79

>  <cluster>  (14) 
1

$$$$

     RDKit          3D

 44 46  0  0  0  0  0  0  0  0999 V2000
  135.0660   69.9960  224.6070 O   0  0  0  0  0  0  0  0  0  0  0  0
  135.4460   71.1850  224.7360 C   0  0  0  0  0  0  0  0  0  0  0  0
  136.6830   71.6800  224.2460 N   0  0  0  0  0  0  0  0  0  0  0  0
  137.5720   70.7560  223.5500 C   0  0  0  0  0  0  0  0  0  0  0  0
  138.9730   71.0540  223.9570 C   0  0  0  0  0  0  0  0  0  0  0  0
  139.5870   72.0430  223.4340 O   0  0  0  0  0  0  0  0  0  0  0  0
  139.6260   70.2410  224.9240 N   0  0  0  0  0  0  0  0  0  0  0  0
  138.9030   69.1250  225.5000 C   0  0  0  0  0  0  0  0  0  0  0  0
  139.8930   68.3150  226.3080 C   0  0  0  0  0  0  0  0  0  0  0  0
  140.1740   68.9880  227.6190 C   0  0  0  0  0  0  0  0  0  0  0  0
  140.1110   70.4780  227.5870 C   0  0  0  0  0  0  0  0  0  0  0  0
  141.0890   71.1460  226.6680 C   0  0  0  0  0  0  0  0  0  0  0  0
  140.9860   70.6260  225.2400 C   0  0  0  0  0  0  0  0  0  0  0  0
  134.5560   72.1190  225.4360 C   0  0  0  0  0  0  0  0  0  0  0  0
  133.4380   71.6840  226.1070 C   0  0  0  0  0  0  0  0  0  0  0  0
  132.5690   72.5100  226.7780 C   0  0  0  0  0  0  0  0  0  0  0  0
  132.8530   73.8640  226.7690 C   0  0  0  0  0  0  0  0  0  0  0  0
  131.9920   74.7080  227.4370 C   0  0  0  0  0  0  0  0  0  0  0  0
  132.2740   76.0500  227.4260 C   0  0  0  0  0  0  0  0  0  0  0  0
  131.1920   77.1410  228.2700 Cl  0  0  0  0  0  0  0  0  0  0  0  0
  133.3870   76.5070  226.7600 C   0  0  0  0  0  0  0  0  0  0  0  0
  134.2600   75.6610  226.0840 C   0  0  0  0  0  0  0  0  0  0  0  0
  133.9740   74.3000  226.0950 C   0  0  0  0  0  0  0  0  0  0  0  0
  134.8000   73.4500  225.4480 N   0  0  0  0  0  0  0  0  0  0  0  0
  136.9710   72.6920  224.3740 H   0  0  0  0  0  0  0  0  0  0  0  0
  137.3185   69.7208  223.8221 H   0  0  0  0  0  0  0  0  0  0  0  0
  137.4618   70.8734  222.4619 H   0  0  0  0  0  0  0  0  0  0  0  0
  138.0981   69.4946  226.1523 H   0  0  0  0  0  0  0  0  0  0  0  0
  138.4474   68.5081  224.7114 H   0  0  0  0  0  0  0  0  0  0  0  0
  139.4749   67.3151  226.4963 H   0  0  0  0  0  0  0  0  0  0  0  0
  140.8322   68.2319  225.7414 H   0  0  0  0  0  0  0  0  0  0  0  0
  139.4355   68.6305  228.3517 H   0  0  0  0  0  0  0  0  0  0  0  0
  141.2100   68.7289  227.8827 H   0  0  0  0  0  0  0  0  0  0  0  0
  139.0977   70.7676  227.2719 H   0  0  0  0  0  0  0  0  0  0  0  0
  140.3728   70.8130  228.6015 H   0  0  0  0  0  0  0  0  0  0  0  0
  140.8907   72.2280  226.6659 H   0  0  0  0  0  0  0  0  0  0  0  0
  142.1020   70.9248  227.0352 H   0  0  0  0  0  0  0  0  0  0  0  0
  141.3066   71.4165  224.5455 H   0  0  0  0  0  0  0  0  0  0  0  0
  141.6321   69.7412  225.1421 H   0  0  0  0  0  0  0  0  0  0  0  0
  133.2253   70.6048  226.1067 H   0  0  0  0  0  0  0  0  0  0  0  0
  131.6860   72.1121  227.2996 H   0  0  0  0  0  0  0  0  0  0  0  0
  131.1075   74.3178  227.9618 H   0  0  0  0  0  0  0  0  0  0  0  0
  133.5957   77.5870  226.7619 H   0  0  0  0  0  0  0  0  0  0  0  0
  135.1438   76.0539  225.5601 H   0  0  0  0  0  0  0  0  0  0  0  0
  1  2  2  0
  2  3  1  0
  3  4  1  0
  4  5  1  0
  5  6  2  0
  5  7  1  0
  7  8  1  0
  8  9  1  0
  9 10  1  0
 10 11  1  0
 11 12  1  0
 12 13  1  0
  2 14  1  0
 14 15  2  0
 15 16  1  0
 16 17  2  0
 17 18  1  0
 18 19  2  0
 19 20  1  0
 19 21  1  0
 21 22  2  0
 22 23  1  0
 23 24  2  0
 13  7  1  0
 24 14  1  0
 23 17  1  0
  3 25  1  0
  4 26  1  0
  4 27  1  0
  8 28  1  0
  8 29  1  0
  9 30  1  0
  9 31  1  0
 10 32  1  0
 10 33  1  0
 11 34  1  0
 11 35  1  0
 12 36  1  0
 12 37  1  0
 13 38  1  0
 13 39  1  0
 15 40  1  0
 16 41  1  0
 18 42  1  0
 21 43  1  0
 22 44  1  0
M  END
>  <smiles>  (15) 
O=C(NCC(=O)N1CCCCCC1)c1ccc2cc(Cl)ccc2n1

>  <score_type>  (15) 
oracle

>  <origin>  (15) 
autodockgpu

>  <m_score__min__energy>  (15) 
-5.8499999999999996

>  <m_primary>  (15) 
energy

>  <rmsd>  (15) 
8.280702868735776

>  <m_score__min__rmsd>  (15) 
8.280702868735776

>  <meeko>  (15) 
{"free_energy": -4.71, "intermolecular_energy": -7.4, "internal_energy": -1.28, "cluster_size": 14, "cluster_id": 1, "rank_in_cluster": 10}

>  <energy>  (15) 
-5.43

>  <cluster_rmsd>  (15) 
0.0

>  <cluster>  (15) 
2

$$$$

     RDKit          3D

 44 46  0  0  0  0  0  0  0  0999 V2000
  136.1230   70.0110  223.3170 O   0  0  0  0  0  0  0  0  0  0  0  0
  136.6610   70.9900  223.8890 C   0  0  0  0  0  0  0  0  0  0  0  0
  138.0630   71.1490  224.0410 N   0  0  0  0  0  0  0  0  0  0  0  0
  138.9400   70.1140  223.5020 C   0  0  0  0  0  0  0  0  0  0  0  0
  139.1710   69.0950  224.5620 C   0  0  0  0  0  0  0  0  0  0  0  0
  138.5310   67.9910  224.5280 O   0  0  0  0  0  0  0  0  0  0  0  0
  140.1000   69.3480  225.6080 N   0  0  0  0  0  0  0  0  0  0  0  0
  140.8110   70.6110  225.6200 C   0  0  0  0  0  0  0  0  0  0  0  0
  140.2880   71.4120  226.7910 C   0  0  0  0  0  0  0  0  0  0  0  0
  141.1080   71.1440  228.0180 C   0  0  0  0  0  0  0  0  0  0  0  0
  141.2730   69.7010  228.3610 C   0  0  0  0  0  0  0  0  0  0  0  0
  140.1170   68.8230  228.0010 C   0  0  0  0  0  0  0  0  0  0  0  0
  140.2410   68.2850  226.5820 C   0  0  0  0  0  0  0  0  0  0  0  0
  135.7840   72.0340  224.4340 C   0  0  0  0  0  0  0  0  0  0  0  0
  135.8220   73.3250  223.9640 C   0  0  0  0  0  0  0  0  0  0  0  0
  135.0270   74.3420  224.4330 C   0  0  0  0  0  0  0  0  0  0  0  0
  134.1360   74.0300  225.4440 C   0  0  0  0  0  0  0  0  0  0  0  0
  133.3300   75.0380  225.9280 C   0  0  0  0  0  0  0  0  0  0  0  0
  132.4470   74.7280  226.9300 C   0  0  0  0  0  0  0  0  0  0  0  0
  131.4130   75.9950  227.5590 Cl  0  0  0  0  0  0  0  0  0  0  0  0
  132.3920   73.4420  227.4150 C   0  0  0  0  0  0  0  0  0  0  0  0
  133.2020   72.4200  226.9320 C   0  0  0  0  0  0  0  0  0  0  0  0
  134.0980   72.7350  225.9150 C   0  0  0  0  0  0  0  0  0  0  0  0
  134.8990   71.7670  225.4230 N   0  0  0  0  0  0  0  0  0  0  0  0
  138.4820   71.9910  224.5300 H   0  0  0  0  0  0  0  0  0  0  0  0
  138.4647   69.6415  222.6298 H   0  0  0  0  0  0  0  0  0  0  0  0
  139.8970   70.5557  223.1875 H   0  0  0  0  0  0  0  0  0  0  0  0
  141.8903   70.4340  225.7374 H   0  0  0  0  0  0  0  0  0  0  0  0
  140.6545   71.1543  224.6764 H   0  0  0  0  0  0  0  0  0  0  0  0
  140.3390   72.4837  226.5483 H   0  0  0  0  0  0  0  0  0  0  0  0
  139.2466   71.1172  226.9873 H   0  0  0  0  0  0  0  0  0  0  0  0
  142.1081   71.5744  227.8613 H   0  0  0  0  0  0  0  0  0  0  0  0
  140.5641   71.6004  228.8582 H   0  0  0  0  0  0  0  0  0  0  0  0
  142.1622   69.3257  227.8334 H   0  0  0  0  0  0  0  0  0  0  0  0
  141.3596   69.6564  229.4567 H   0  0  0  0  0  0  0  0  0  0  0  0
  140.0805   67.9759  228.7018 H   0  0  0  0  0  0  0  0  0  0  0  0
  139.1974   69.4236  228.0616 H   0  0  0  0  0  0  0  0  0  0  0  0
  141.2281   67.8150  226.4608 H   0  0  0  0  0  0  0  0  0  0  0  0
  139.4401   67.5496  226.4155 H   0  0  0  0  0  0  0  0  0  0  0  0
  136.5354   73.5589  223.1601 H   0  0  0  0  0  0  0  0  0  0  0  0
  135.0958   75.3602  224.0225 H   0  0  0  0  0  0  0  0  0  0  0  0
  133.3932   76.0588  225.5231 H   0  0  0  0  0  0  0  0  0  0  0  0
  131.6771   73.2123  228.2188 H   0  0  0  0  0  0  0  0  0  0  0  0
  133.1368   71.4001  227.3389 H   0  0  0  0  0  0  0  0  0  0  0  0
  1  2  2  0
  2  3  1  0
  3  4  1  0
  4  5  1  0
  5  6  2  0
  5  7  1  0
  7  8  1  0
  8  9  1  0
  9 10  1  0
 10 11  1  0
 11 12  1  0
 12 13  1  0
  2 14  1  0
 14 15  2  0
 15 16  1  0
 16 17  2  0
 17 18  1  0
 18 19  2  0
 19 20  1  0
 19 21  1  0
 21 22  2  0
 22 23  1  0
 23 24  2  0
 13  7  1  0
 24 14  1  0
 23 17  1  0
  3 25  1  0
  4 26  1  0
  4 27  1  0
  8 28  1  0
  8 29  1  0
  9 30  1  0
  9 31  1  0
 10 32  1  0
 10 33  1  0
 11 34  1  0
 11 35  1  0
 12 36  1  0
 12 37  1  0
 13 38  1  0
 13 39  1  0
 15 40  1  0
 16 41  1  0
 18 42  1  0
 21 43  1  0
 22 44  1  0
M  END
>  <smiles>  (16) 
O=C(NCC(=O)N1CCCCCC1)c1ccc2cc(Cl)ccc2n1

>  <score_type>  (16) 
oracle

>  <origin>  (16) 
autodockgpu

>  <m_score__min__energy>  (16) 
-5.8499999999999996

>  <m_primary>  (16) 
energy

>  <rmsd>  (16) 
8.326864479943692

>  <m_score__min__rmsd>  (16) 
8.326864479943692

>  <meeko>  (16) 
{"free_energy": -4.86, "intermolecular_energy": -7.55, "internal_energy": -0.98, "cluster_size": 14, "cluster_id": 1, "rank_in_cluster": 9}

>  <energy>  (16) 
-5.37

>  <cluster_rmsd>  (16) 
0.59

>  <cluster>  (16) 
2

$$$$

     RDKit          3D

 44 46  0  0  0  0  0  0  0  0999 V2000
  137.4150   77.5780  222.8620 O   0  0  0  0  0  0  0  0  0  0  0  0
  137.6980   76.3590  222.7750 C   0  0  0  0  0  0  0  0  0  0  0  0
  136.8650   75.3140  223.2540 N   0  0  0  0  0  0  0  0  0  0  0  0
  135.6000   75.6730  223.8880 C   0  0  0  0  0  0  0  0  0  0  0  0
  134.9970   74.4410  224.4660 C   0  0  0  0  0  0  0  0  0  0  0  0
  135.6050   73.3250  224.3500 O   0  0  0  0  0  0  0  0  0  0  0  0
  133.7490   74.5060  225.1450 N   0  0  0  0  0  0  0  0  0  0  0  0
  133.0830   75.7880  225.2600 C   0  0  0  0  0  0  0  0  0  0  0  0
  133.2140   76.2370  226.6980 C   0  0  0  0  0  0  0  0  0  0  0  0
  132.0510   75.7470  227.5090 C   0  0  0  0  0  0  0  0  0  0  0  0
  131.6830   74.3190  227.2820 C   0  0  0  0  0  0  0  0  0  0  0  0
  132.8390   73.3810  227.1220 C   0  0  0  0  0  0  0  0  0  0  0  0
  133.2600   73.2450  225.6640 C   0  0  0  0  0  0  0  0  0  0  0  0
  138.9690   75.9920  222.1380 C   0  0  0  0  0  0  0  0  0  0  0  0
  139.7900   76.9360  221.5690 C   0  0  0  0  0  0  0  0  0  0  0  0
  140.9870   76.6530  220.9600 C   0  0  0  0  0  0  0  0  0  0  0  0
  141.3790   75.3270  220.9260 C   0  0  0  0  0  0  0  0  0  0  0  0
  142.5790   75.0230  220.3190 C   0  0  0  0  0  0  0  0  0  0  0  0
  142.9660   73.7080  220.2860 C   0  0  0  0  0  0  0  0  0  0  0  0
  144.4880   73.3010  219.5180 Cl  0  0  0  0  0  0  0  0  0  0  0  0
  142.1590   72.7460  220.8490 C   0  0  0  0  0  0  0  0  0  0  0  0
  140.9480   73.0450  221.4630 C   0  0  0  0  0  0  0  0  0  0  0  0
  140.5560   74.3790  221.4970 C   0  0  0  0  0  0  0  0  0  0  0  0
  139.3850   74.7050  222.0850 N   0  0  0  0  0  0  0  0  0  0  0  0
  137.1360   74.2940  223.1630 H   0  0  0  0  0  0  0  0  0  0  0  0
  135.7801   76.4080  224.6863 H   0  0  0  0  0  0  0  0  0  0  0  0
  134.9182   76.1151  223.1467 H   0  0  0  0  0  0  0  0  0  0  0  0
  133.5596   76.5207  224.5922 H   0  0  0  0  0  0  0  0  0  0  0  0
  132.0242   75.7032  224.9740 H   0  0  0  0  0  0  0  0  0  0  0  0
  134.1458   75.8326  227.1201 H   0  0  0  0  0  0  0  0  0  0  0  0
  133.2304   77.3365  226.7275 H   0  0  0  0  0  0  0  0  0  0  0  0
  132.3006   75.8704  228.5732 H   0  0  0  0  0  0  0  0  0  0  0  0
  131.1821   76.3431  227.1931 H   0  0  0  0  0  0  0  0  0  0  0  0
  131.0864   73.9804  228.1419 H   0  0  0  0  0  0  0  0  0  0  0  0
  131.1341   74.2927  226.3291 H   0  0  0  0  0  0  0  0  0  0  0  0
  133.6905   73.7628  227.7043 H   0  0  0  0  0  0  0  0  0  0  0  0
  132.5269   72.3894  227.4816 H   0  0  0  0  0  0  0  0  0  0  0  0
  134.0578   72.4914  225.5887 H   0  0  0  0  0  0  0  0  0  0  0  0
  132.3839   72.9391  225.0734 H   0  0  0  0  0  0  0  0  0  0  0  0
  139.4667   77.9868  221.6040 H   0  0  0  0  0  0  0  0  0  0  0  0
  141.6077   77.4464  220.5181 H   0  0  0  0  0  0  0  0  0  0  0  0
  143.2060   75.8104  219.8753 H   0  0  0  0  0  0  0  0  0  0  0  0
  142.4858   71.6963  220.8117 H   0  0  0  0  0  0  0  0  0  0  0  0
  140.3229   72.2555  221.9056 H   0  0  0  0  0  0  0  0  0  0  0  0
  1  2  2  0
  2  3  1  0
  3  4  1  0
  4  5  1  0
  5  6  2  0
  5  7  1  0
  7  8  1  0
  8  9  1  0
  9 10  1  0
 10 11  1  0
 11 12  1  0
 12 13  1  0
  2 14  1  0
 14 15  2  0
 15 16  1  0
 16 17  2  0
 17 18  1  0
 18 19  2  0
 19 20  1  0
 19 21  1  0
 21 22  2  0
 22 23  1  0
 23 24  2  0
 13  7  1  0
 24 14  1  0
 23 17  1  0
  3 25  1  0
  4 26  1  0
  4 27  1  0
  8 28  1  0
  8 29  1  0
  9 30  1  0
  9 31  1  0
 10 32  1  0
 10 33  1  0
 11 34  1  0
 11 35  1  0
 12 36  1  0
 12 37  1  0
 13 38  1  0
 13 39  1  0
 15 40  1  0
 16 41  1  0
 18 42  1  0
 21 43  1  0
 22 44  1  0
M  END
>  <smiles>  (17) 
O=C(NCC(=O)N1CCCCCC1)c1ccc2cc(Cl)ccc2n1

>  <score_type>  (17) 
oracle

>  <origin>  (17) 
autodockgpu

>  <m_score__min__energy>  (17) 
-5.8499999999999996

>  <m_primary>  (17) 
energy

>  <rmsd>  (17) 
8.493558985663686

>  <m_score__min__rmsd>  (17) 
8.493558985663686

>  <meeko>  (17) 
{"free_energy": -4.05, "intermolecular_energy": -6.74, "internal_energy": -1.67, "cluster_size": 2, "cluster_id": 8, "rank_in_cluster": 1}

>  <energy>  (17) 
-4.38

>  <cluster_rmsd>  (17) 
1.55

>  <cluster>  (17) 
2

$$$$

     RDKit          3D

 44 46  0  0  0  0  0  0  0  0999 V2000
  135.6350   69.9450  224.1900 O   0  0  0  0  0  0  0  0  0  0  0  0
  135.8950   71.1670  224.3140 C   0  0  0  0  0  0  0  0  0  0  0  0
  137.0680   71.7840  223.8050 N   0  0  0  0  0  0  0  0  0  0  0  0
  138.0340   70.9540  223.0940 C   0  0  0  0  0  0  0  0  0  0  0  0
  139.3890   71.2330  223.6430 C   0  0  0  0  0  0  0  0  0  0  0  0
  139.9400   72.3630  223.4240 O   0  0  0  0  0  0  0  0  0  0  0  0
  140.0690   70.2460  224.4090 N   0  0  0  0  0  0  0  0  0  0  0  0
  139.4180   68.9720  224.6410 C   0  0  0  0  0  0  0  0  0  0  0  0
  138.4940   69.1460  225.8260 C   0  0  0  0  0  0  0  0  0  0  0  0
  139.2800   69.4750  227.0590 C   0  0  0  0  0  0  0  0  0  0  0  0
  140.0410   70.7580  226.9960 C   0  0  0  0  0  0  0  0  0  0  0  0
  141.4160   70.6560  226.4130 C   0  0  0  0  0  0  0  0  0  0  0  0
  141.3800   70.6290  224.8910 C   0  0  0  0  0  0  0  0  0  0  0  0
  134.9260   72.0070  225.0280 C   0  0  0  0  0  0  0  0  0  0  0  0
  133.8200   71.4700  225.6420 C   0  0  0  0  0  0  0  0  0  0  0  0
  132.8810   72.2040  226.3230 C   0  0  0  0  0  0  0  0  0  0  0  0
  133.0760   73.5730  226.3880 C   0  0  0  0  0  0  0  0  0  0  0  0
  132.1440   74.3270  227.0680 C   0  0  0  0  0  0  0  0  0  0  0  0
  132.3390   75.6830  227.1300 C   0  0  0  0  0  0  0  0  0  0  0  0
  131.1650   76.6600  227.9900 Cl  0  0  0  0  0  0  0  0  0  0  0  0
  133.4390   76.2420  226.5230 C   0  0  0  0  0  0  0  0  0  0  0  0
  134.3840   75.4870  225.8350 C   0  0  0  0  0  0  0  0  0  0  0  0
  134.1860   74.1120  225.7720 C   0  0  0  0  0  0  0  0  0  0  0  0
  135.0840   73.3490  225.1120 N   0  0  0  0  0  0  0  0  0  0  0  0
  137.2540   72.8200  223.9280 H   0  0  0  0  0  0  0  0  0  0  0  0
  137.7870   69.8917  223.2369 H   0  0  0  0  0  0  0  0  0  0  0  0
  138.0083   71.1823  222.0183 H   0  0  0  0  0  0  0  0  0  0  0  0
  138.8393   68.6781  223.7529 H   0  0  0  0  0  0  0  0  0  0  0  0
  140.1615   68.1862  224.8401 H   0  0  0  0  0  0  0  0  0  0  0  0
  137.7878   69.9633  225.6178 H   0  0  0  0  0  0  0  0  0  0  0  0
  137.9470   68.2063  225.9923 H   0  0  0  0  0  0  0  0  0  0  0  0
  138.5795   69.5345  227.9050 H   0  0  0  0  0  0  0  0  0  0  0  0
  140.0292   68.6772  227.1691 H   0  0  0  0  0  0  0  0  0  0  0  0
  139.4636   71.4664  226.3838 H   0  0  0  0  0  0  0  0  0  0  0  0
  140.1748   71.0848  228.0378 H   0  0  0  0  0  0  0  0  0  0  0  0
  142.0077   71.5235  226.7406 H   0  0  0  0  0  0  0  0  0  0  0  0
  141.8687   69.7164  226.7627 H   0  0  0  0  0  0  0  0  0  0  0  0
  141.6257   71.6303  224.5077 H   0  0  0  0  0  0  0  0  0  0  0  0
  142.1133   69.8897  224.5364 H   0  0  0  0  0  0  0  0  0  0  0  0
  133.6779   70.3808  225.5839 H   0  0  0  0  0  0  0  0  0  0  0  0
  132.0113   71.7251  226.7965 H   0  0  0  0  0  0  0  0  0  0  0  0
  131.2720   73.8563  227.5455 H   0  0  0  0  0  0  0  0  0  0  0  0
  133.5777   77.3315  226.5838 H   0  0  0  0  0  0  0  0  0  0  0  0
  135.2553   75.9603  225.3587 H   0  0  0  0  0  0  0  0  0  0  0  0
  1  2  2  0
  2  3  1  0
  3  4  1  0
  4  5  1  0
  5  6  2  0
  5  7  1  0
  7  8  1  0
  8  9  1  0
  9 10  1  0
 10 11  1  0
 11 12  1  0
 12 13  1  0
  2 14  1  0
 14 15  2  0
 15 16  1  0
 16 17  2  0
 17 18  1  0
 18 19  2  0
 19 20  1  0
 19 21  1  0
 21 22  2  0
 22 23  1  0
 23 24  2  0
 13  7  1  0
 24 14  1  0
 23 17  1  0
  3 25  1  0
  4 26  1  0
  4 27  1  0
  8 28  1  0
  8 29  1  0
  9 30  1  0
  9 31  1  0
 10 32  1  0
 10 33  1  0
 11 34  1  0
 11 35  1  0
 12 36  1  0
 12 37  1  0
 13 38  1  0
 13 39  1  0
 15 40  1  0
 16 41  1  0
 18 42  1  0
 21 43  1  0
 22 44  1  0
M  END
>  <smiles>  (18) 
O=C(NCC(=O)N1CCCCCC1)c1ccc2cc(Cl)ccc2n1

>  <score_type>  (18) 
oracle

>  <origin>  (18) 
autodockgpu

>  <m_score__min__energy>  (18) 
-5.8499999999999996

>  <m_primary>  (18) 
energy

>  <rmsd>  (18) 
7.900593688038191

>  <m_score__min__rmsd>  (18) 
7.900593688038191

>  <meeko>  (18) 
{"free_energy": -4.18, "intermolecular_energy": -6.87, "internal_energy": -1.52, "cluster_size": 14, "cluster_id": 1, "rank_in_cluster": 14}

>  <energy>  (18) 
-4.36

>  <cluster_rmsd>  (18) 
1.66

>  <cluster>  (18) 
2

$$$$

     RDKit          3D

 44 46  0  0  0  0  0  0  0  0999 V2000
  135.3990   69.8800  224.4450 O   0  0  0  0  0  0  0  0  0  0  0  0
  135.7380   71.0770  224.6080 C   0  0  0  0  0  0  0  0  0  0  0  0
  136.9850   71.6130  224.1930 N   0  0  0  0  0  0  0  0  0  0  0  0
  137.9360   70.7220  223.5360 C   0  0  0  0  0  0  0  0  0  0  0  0
  139.3090   71.0900  223.9790 C   0  0  0  0  0  0  0  0  0  0  0  0
  139.8930   72.0990  223.4590 O   0  0  0  0  0  0  0  0  0  0  0  0
  139.9690   70.3220  224.9780 N   0  0  0  0  0  0  0  0  0  0  0  0
  139.2810   69.1820  225.5500 C   0  0  0  0  0  0  0  0  0  0  0  0
  140.1380   68.6580  226.6800 C   0  0  0  0  0  0  0  0  0  0  0  0
  140.0700   69.5810  227.8610 C   0  0  0  0  0  0  0  0  0  0  0  0
  140.1320   71.0340  227.5270 C   0  0  0  0  0  0  0  0  0  0  0  0
  141.3070   71.4470  226.6940 C   0  0  0  0  0  0  0  0  0  0  0  0
  141.3000   70.7740  225.3280 C   0  0  0  0  0  0  0  0  0  0  0  0
  134.7840   71.9780  225.2680 C   0  0  0  0  0  0  0  0  0  0  0  0
  133.6360   71.5060  225.8590 C   0  0  0  0  0  0  0  0  0  0  0  0
  132.7100   72.2990  226.4900 C   0  0  0  0  0  0  0  0  0  0  0  0
  132.9630   73.6590  226.5250 C   0  0  0  0  0  0  0  0  0  0  0  0
  132.0440   74.4710  227.1540 C   0  0  0  0  0  0  0  0  0  0  0  0
  132.2970   75.8180  227.1880 C   0  0  0  0  0  0  0  0  0  0  0  0
  131.1400   76.8680  227.9830 Cl  0  0  0  0  0  0  0  0  0  0  0  0
  133.4390   76.3120  226.6030 C   0  0  0  0  0  0  0  0  0  0  0  0
  134.3710   75.4990  225.9670 C   0  0  0  0  0  0  0  0  0  0  0  0
  134.1150   74.1320  225.9330 C   0  0  0  0  0  0  0  0  0  0  0  0
  134.9990   73.3140  225.3230 N   0  0  0  0  0  0  0  0  0  0  0  0
  137.2370   72.6310  224.3470 H   0  0  0  0  0  0  0  0  0  0  0  0
  137.7225   69.6797  223.8154 H   0  0  0  0  0  0  0  0  0  0  0  0
  137.8527   70.8200  222.4435 H   0  0  0  0  0  0  0  0  0  0  0  0
  138.2980   69.4905  225.9354 H   0  0  0  0  0  0  0  0  0  0  0  0
  139.1211   68.4030  224.7900 H   0  0  0  0  0  0  0  0  0  0  0  0
  139.7766   67.6624  226.9771 H   0  0  0  0  0  0  0  0  0  0  0  0
  141.1811   68.5951  226.3365 H   0  0  0  0  0  0  0  0  0  0  0  0
  139.1235   69.3917  228.3886 H   0  0  0  0  0  0  0  0  0  0  0  0
  140.9593   69.3666  228.4718 H   0  0  0  0  0  0  0  0  0  0  0  0
  139.2160   71.2963  226.9773 H   0  0  0  0  0  0  0  0  0  0  0  0
  140.2358   71.5636  228.4855 H   0  0  0  0  0  0  0  0  0  0  0  0
  141.2772   72.5375  226.5532 H   0  0  0  0  0  0  0  0  0  0  0  0
  142.2226   71.1397  227.2205 H   0  0  0  0  0  0  0  0  0  0  0  0
  141.6462   71.4932  224.5711 H   0  0  0  0  0  0  0  0  0  0  0  0
  141.9680   69.9008  225.3645 H   0  0  0  0  0  0  0  0  0  0  0  0
  133.4472   70.4229  225.8240 H   0  0  0  0  0  0  0  0  0  0  0  0
  131.8058   71.8717  226.9481 H   0  0  0  0  0  0  0  0  0  0  0  0
  131.1369   74.0519  227.6139 H   0  0  0  0  0  0  0  0  0  0  0  0
  133.6232   77.3958  226.6396 H   0  0  0  0  0  0  0  0  0  0  0  0
  135.2770   75.9212  225.5078 H   0  0  0  0  0  0  0  0  0  0  0  0
  1  2  2  0
  2  3  1  0
  3  4  1  0
  4  5  1  0
  5  6  2  0
  5  7  1  0
  7  8  1  0
  8  9  1  0
  9 10  1  0
 10 11  1  0
 11 12  1  0
 12 13  1  0
  2 14  1  0
 14 15  2  0
 15 16  1  0
 16 17  2  0
 17 18  1  0
 18 19  2  0
 19 20  1  0
 19 21  1  0
 21 22  2  0
 22 23  1  0
 23 24  2  0
 13  7  1  0
 24 14  1  0
 23 17  1  0
  3 25  1  0
  4 26  1  0
  4 27  1  0
  8 28  1  0
  8 29  1  0
  9 30  1  0
  9 31  1  0
 10 32  1  0
 10 33  1  0
 11 34  1  0
 11 35  1  0
 12 36  1  0
 12 37  1  0
 13 38  1  0
 13 39  1  0
 15 40  1  0
 16 41  1  0
 18 42  1  0
 21 43  1  0
 22 44  1  0
M  END
>  <smiles>  (19) 
O=C(NCC(=O)N1CCCCCC1)c1ccc2cc(Cl)ccc2n1

>  <score_type>  (19) 
oracle

>  <origin>  (19) 
autodockgpu

>  <m_score__min__energy>  (19) 
-5.8499999999999996

>  <m_primary>  (19) 
energy

>  <rmsd>  (19) 
8.156448623851418

>  <m_score__min__rmsd>  (19) 
8.156448623851418

>  <meeko>  (19) 
{"free_energy": -5.25, "intermolecular_energy": -7.94, "internal_energy": -1.32, "cluster_size": 14, "cluster_id": 1, "rank_in_cluster": 4}

>  <energy>  (19) 
-4.25

>  <cluster_rmsd>  (19) 
1.59

>  <cluster>  (19) 
2

$$$$

     RDKit          3D

 44 46  0  0  0  0  0  0  0  0999 V2000
  136.0740   69.1250  224.2310 O   0  0  0  0  0  0  0  0  0  0  0  0
  136.3630   70.3170  224.5010 C   0  0  0  0  0  0  0  0  0  0  0  0
  137.6460   70.8880  224.2990 N   0  0  0  0  0  0  0  0  0  0  0  0
  138.7000   70.0440  223.7440 C   0  0  0  0  0  0  0  0  0  0  0  0
  139.1940   69.1410  224.8190 C   0  0  0  0  0  0  0  0  0  0  0  0
  138.5330   68.0910  225.1170 O   0  0  0  0  0  0  0  0  0  0  0  0
  140.3980   69.4450  225.5130 N   0  0  0  0  0  0  0  0  0  0  0  0
  141.1270   70.6440  225.1520 C   0  0  0  0  0  0  0  0  0  0  0  0
  140.8210   71.6910  226.2000 C   0  0  0  0  0  0  0  0  0  0  0  0
  140.9990   71.1230  227.5770 C   0  0  0  0  0  0  0  0  0  0  0  0
  139.8750   70.2650  228.0530 C   0  0  0  0  0  0  0  0  0  0  0  0
  140.0690   68.7930  227.8510 C   0  0  0  0  0  0  0  0  0  0  0  0
  140.7800   68.4950  226.5380 C   0  0  0  0  0  0  0  0  0  0  0  0
  135.3070   71.1700  225.0590 C   0  0  0  0  0  0  0  0  0  0  0  0
  134.2260   70.6400  225.7240 C   0  0  0  0  0  0  0  0  0  0  0  0
  133.2100   71.3870  226.2660 C   0  0  0  0  0  0  0  0  0  0  0  0
  133.2930   72.7610  226.1260 C   0  0  0  0  0  0  0  0  0  0  0  0
  132.2820   73.5270  226.6640 C   0  0  0  0  0  0  0  0  0  0  0  0
  132.3660   74.8890  226.5240 C   0  0  0  0  0  0  0  0  0  0  0  0
  131.0900   75.8820  227.2010 Cl  0  0  0  0  0  0  0  0  0  0  0  0
  133.4380   75.4410  225.8630 C   0  0  0  0  0  0  0  0  0  0  0  0
  134.4630   74.6730  225.3170 C   0  0  0  0  0  0  0  0  0  0  0  0
  134.3770   73.2930  225.4590 C   0  0  0  0  0  0  0  0  0  0  0  0
  135.3540   72.5180  224.9420 N   0  0  0  0  0  0  0  0  0  0  0  0
  137.8540   71.8990  224.5380 H   0  0  0  0  0  0  0  0  0  0  0  0
  138.2982   69.4465  222.9125 H   0  0  0  0  0  0  0  0  0  0  0  0
  139.5237   70.6675  223.3662 H   0  0  0  0  0  0  0  0  0  0  0  0
  142.2070   70.4360  225.1322 H   0  0  0  0  0  0  0  0  0  0  0  0
  140.8282   70.9948  224.1531 H   0  0  0  0  0  0  0  0  0  0  0  0
  141.5029   72.5442  226.0693 H   0  0  0  0  0  0  0  0  0  0  0  0
  139.7775   72.0184  226.0821 H   0  0  0  0  0  0  0  0  0  0  0  0
  141.9168   70.5167  227.5805 H   0  0  0  0  0  0  0  0  0  0  0  0
  141.0422   71.9826  228.2620 H   0  0  0  0  0  0  0  0  0  0  0  0
  139.7402   70.4463  229.1295 H   0  0  0  0  0  0  0  0  0  0  0  0
  138.9994   70.5442  227.4486 H   0  0  0  0  0  0  0  0  0  0  0  0
  140.6713   68.3953  228.6811 H   0  0  0  0  0  0  0  0  0  0  0  0
  139.0778   68.3169  227.8207 H   0  0  0  0  0  0  0  0  0  0  0  0
  141.8670   68.5542  226.6961 H   0  0  0  0  0  0  0  0  0  0  0  0
  140.4931   67.4865  226.2053 H   0  0  0  0  0  0  0  0  0  0  0  0
  134.1721   69.5463  225.8283 H   0  0  0  0  0  0  0  0  0  0  0  0
  132.3661   70.9136  226.7892 H   0  0  0  0  0  0  0  0  0  0  0  0
  131.4348   73.0614  227.1889 H   0  0  0  0  0  0  0  0  0  0  0  0
  133.4879   76.5352  225.7613 H   0  0  0  0  0  0  0  0  0  0  0  0
  135.3093   75.1409  224.7928 H   0  0  0  0  0  0  0  0  0  0  0  0
  1  2  2  0
  2  3  1  0
  3  4  1  0
  4  5  1  0
  5  6  2  0
  5  7  1  0
  7  8  1  0
  8  9  1  0
  9 10  1  0
 10 11  1  0
 11 12  1  0
 12 13  1  0
  2 14  1  0
 14 15  2  0
 15 16  1  0
 16 17  2  0
 17 18  1  0
 18 19  2  0
 19 20  1  0
 19 21  1  0
 21 22  2  0
 22 23  1  0
 23 24  2  0
 13  7  1  0
 24 14  1  0
 23 17  1  0
  3 25  1  0
  4 26  1  0
  4 27  1  0
  8 28  1  0
  8 29  1  0
  9 30  1  0
  9 31  1  0
 10 32  1  0
 10 33  1  0
 11 34  1  0
 11 35  1  0
 12 36  1  0
 12 37  1  0
 13 38  1  0
 13 39  1  0
 15 40  1  0
 16 41  1  0
 18 42  1  0
 21 43  1  0
 22 44  1  0
M  END
>  <smiles>  (20) 
O=C(NCC(=O)N1CCCCCC1)c1ccc2cc(Cl)ccc2n1

>  <score_type>  (20) 
oracle

>  <origin>  (20) 
autodockgpu

>  <m_score__min__energy>  (20) 
-5.8499999999999996

>  <m_primary>  (20) 
energy

>  <rmsd>  (20) 
8.139596420613664

>  <m_score__min__rmsd>  (20) 
8.139596420613664

>  <meeko>  (20) 
{"free_energy": -5.03, "intermolecular_energy": -7.72, "internal_energy": -1.3, "cluster_size": 14, "cluster_id": 1, "rank_in_cluster": 6}

>  <energy>  (20) 
-4.2

>  <cluster_rmsd>  (20) 
1.33

>  <cluster>  (20) 
2

$$$$

     RDKit          3D

 44 46  0  0  0  0  0  0  0  0999 V2000
  139.5320   74.3070  222.1020 O   0  0  0  0  0  0  0  0  0  0  0  0
  140.6900   74.6300  221.7420 C   0  0  0  0  0  0  0  0  0  0  0  0
  141.2040   75.9510  221.8120 N   0  0  0  0  0  0  0  0  0  0  0  0
  140.3380   77.0040  222.3330 C   0  0  0  0  0  0  0  0  0  0  0  0
  141.1950   78.0940  222.8730 C   0  0  0  0  0  0  0  0  0  0  0  0
  141.8410   77.9130  223.9590 O   0  0  0  0  0  0  0  0  0  0  0  0
  141.2960   79.3340  222.1840 N   0  0  0  0  0  0  0  0  0  0  0  0
  140.5510   79.5110  220.9530 C   0  0  0  0  0  0  0  0  0  0  0  0
  141.2370   80.6040  220.1630 C   0  0  0  0  0  0  0  0  0  0  0  0
  140.7560   81.9530  220.6090 C   0  0  0  0  0  0  0  0  0  0  0  0
  141.4540   82.5040  221.8070 C   0  0  0  0  0  0  0  0  0  0  0  0
  141.4170   81.6310  223.0260 C   0  0  0  0  0  0  0  0  0  0  0  0
  142.1580   80.3200  222.8030 C   0  0  0  0  0  0  0  0  0  0  0  0
  141.5660   73.5740  221.2180 C   0  0  0  0  0  0  0  0  0  0  0  0
  141.1080   72.2960  221.0060 C   0  0  0  0  0  0  0  0  0  0  0  0
  141.8780   71.2690  220.5190 C   0  0  0  0  0  0  0  0  0  0  0  0
  143.2000   71.5570  220.2260 C   0  0  0  0  0  0  0  0  0  0  0  0
  143.9890   70.5390  219.7360 C   0  0  0  0  0  0  0  0  0  0  0  0
  145.2990   70.8260  219.4480 C   0  0  0  0  0  0  0  0  0  0  0  0
  146.3200   69.5460  218.8240 Cl  0  0  0  0  0  0  0  0  0  0  0  0
  145.7790   72.0990  219.6530 C   0  0  0  0  0  0  0  0  0  0  0  0
  144.9880   73.1310  220.1470 C   0  0  0  0  0  0  0  0  0  0  0  0
  143.6600   72.8400  220.4400 C   0  0  0  0  0  0  0  0  0  0  0  0
  142.8640   73.8180  220.9220 N   0  0  0  0  0  0  0  0  0  0  0  0
  142.1890   76.1860  221.4990 H   0  0  0  0  0  0  0  0  0  0  0  0
  139.7033   77.3965  221.5249 H   0  0  0  0  0  0  0  0  0  0  0  0
  139.6920   76.6028  223.1278 H   0  0  0  0  0  0  0  0  0  0  0  0
  140.5496   78.5743  220.3762 H   0  0  0  0  0  0  0  0  0  0  0  0
  139.5066   79.7826  221.1664 H   0  0  0  0  0  0  0  0  0  0  0  0
  142.3237   80.5368  220.3197 H   0  0  0  0  0  0  0  0  0  0  0  0
  140.9999   80.4756  219.0966 H   0  0  0  0  0  0  0  0  0  0  0  0
  140.8970   82.6584  219.7768 H   0  0  0  0  0  0  0  0  0  0  0  0
  139.7022   81.8251  220.8974 H   0  0  0  0  0  0  0  0  0  0  0  0
  142.5079   82.6708  221.5399 H   0  0  0  0  0  0  0  0  0  0  0  0
  140.9173   83.4258  222.0756 H   0  0  0  0  0  0  0  0  0  0  0  0
  141.8868   82.1679  223.8633 H   0  0  0  0  0  0  0  0  0  0  0  0
  140.3654   81.3968  223.2480 H   0  0  0  0  0  0  0  0  0  0  0  0
  143.0230   80.5028  222.1485 H   0  0  0  0  0  0  0  0  0  0  0  0
  142.4872   79.9337  223.7789 H   0  0  0  0  0  0  0  0  0  0  0  0
  140.0552   72.0817  221.2420 H   0  0  0  0  0  0  0  0  0  0  0  0
  141.4628   70.2616  220.3682 H   0  0  0  0  0  0  0  0  0  0  0  0
  143.5815   69.5291  219.5809 H   0  0  0  0  0  0  0  0  0  0  0  0
  146.8324   72.3094  219.4163 H   0  0  0  0  0  0  0  0  0  0  0  0
  145.3978   74.1402  220.3003 H   0  0  0  0  0  0  0  0  0  0  0  0
  1  2  2  0
  2  3  1  0
  3  4  1  0
  4  5  1  0
  5  6  2  0
  5  7  1  0
  7  8  1  0
  8  9  1  0
  9 10  1  0
 10 11  1  0
 11 12  1  0
 12 13  1  0
  2 14  1  0
 14 15  2  0
 15 16  1  0
 16 17  2  0
 17 18  1  0
 18 19  2  0
 19 20  1  0
 19 21  1  0
 21 22  2  0
 22 23  1  0
 23 24  2  0
 13  7  1  0
 24 14  1  0
 23 17  1  0
  3 25  1  0
  4 26  1  0
  4 27  1  0
  8 28  1  0
  8 29  1  0
  9 30  1  0
  9 31  1  0
 10 32  1  0
 10 33  1  0
 11 34  1  0
 11 35  1  0
 12 36  1  0
 12 37  1  0
 13 38  1  0
 13 39  1  0
 15 40  1  0
 16 41  1  0
 18 42  1  0
 21 43  1  0
 22 44  1  0
M  END
>  <smiles>  (21) 
O=C(NCC(=O)N1CCCCCC1)c1ccc2cc(Cl)ccc2n1

>  <score_type>  (21) 
oracle

>  <origin>  (21) 
autodockgpu

>  <m_score__min__energy>  (21) 
-5.8499999999999996

>  <m_primary>  (21) 
energy

>  <rmsd>  (21) 
6.368088713842122

>  <m_score__min__rmsd>  (21) 
6.368088713842122

>  <meeko>  (21) 
{"free_energy": -4.62, "intermolecular_energy": -7.3, "internal_energy": -1.09, "cluster_size": 2, "cluster_id": 5, "rank_in_cluster": 2}

>  <energy>  (21) 
-5.29

>  <cluster_rmsd>  (21) 
0.0

>  <cluster>  (21) 
3

$$$$

     RDKit          3D

 44 46  0  0  0  0  0  0  0  0999 V2000
  138.7570   72.7320  221.0740 O   0  0  0  0  0  0  0  0  0  0  0  0
  139.6280   72.9280  221.9560 C   0  0  0  0  0  0  0  0  0  0  0  0
  140.5090   74.0400  221.9680 N   0  0  0  0  0  0  0  0  0  0  0  0
  140.4020   75.0200  220.8910 C   0  0  0  0  0  0  0  0  0  0  0  0
  139.3050   75.9690  221.2260 C   0  0  0  0  0  0  0  0  0  0  0  0
  138.1510   75.8140  220.7020 O   0  0  0  0  0  0  0  0  0  0  0  0
  139.5400   77.0460  222.1250 N   0  0  0  0  0  0  0  0  0  0  0  0
  140.8600   77.1970  222.7030 C   0  0  0  0  0  0  0  0  0  0  0  0
  141.5630   78.2980  221.9420 C   0  0  0  0  0  0  0  0  0  0  0  0
  141.1980   79.6400  222.5040 C   0  0  0  0  0  0  0  0  0  0  0  0
  139.7580   80.0060  222.3730 C   0  0  0  0  0  0  0  0  0  0  0  0
  138.8110   79.1450  223.1560 C   0  0  0  0  0  0  0  0  0  0  0  0
  138.4000   77.9040  222.3750 C   0  0  0  0  0  0  0  0  0  0  0  0
  139.7410   71.9450  223.0420 C   0  0  0  0  0  0  0  0  0  0  0  0
  139.2510   70.6680  222.9120 C   0  0  0  0  0  0  0  0  0  0  0  0
  139.3270   69.7080  223.8910 C   0  0  0  0  0  0  0  0  0  0  0  0
  139.9400   70.0660  225.0780 C   0  0  0  0  0  0  0  0  0  0  0  0
  140.0260   69.1150  226.0730 C   0  0  0  0  0  0  0  0  0  0  0  0
  140.6330   69.4720  227.2490 C   0  0  0  0  0  0  0  0  0  0  0  0
  140.7530   68.2780  228.5270 Cl  0  0  0  0  0  0  0  0  0  0  0  0
  141.1300   70.7460  227.4010 C   0  0  0  0  0  0  0  0  0  0  0  0
  141.0470   71.7100  226.4020 C   0  0  0  0  0  0  0  0  0  0  0  0
  140.4310   71.3480  225.2090 C   0  0  0  0  0  0  0  0  0  0  0  0
  140.3330   72.2600  224.2170 N   0  0  0  0  0  0  0  0  0  0  0  0
  141.2340   74.1740  222.7300 H   0  0  0  0  0  0  0  0  0  0  0  0
  141.3504   75.5685  220.7923 H   0  0  0  0  0  0  0  0  0  0  0  0
  140.1854   74.5131  219.9391 H   0  0  0  0  0  0  0  0  0  0  0  0
  140.7764   77.4685  223.7657 H   0  0  0  0  0  0  0  0  0  0  0  0
  141.4244   76.2554  222.6341 H   0  0  0  0  0  0  0  0  0  0  0  0
  142.6508   78.1557  222.0217 H   0  0  0  0  0  0  0  0  0  0  0  0
  141.2518   78.2569  220.8877 H   0  0  0  0  0  0  0  0  0  0  0  0
  141.4555   79.6439  223.5734 H   0  0  0  0  0  0  0  0  0  0  0  0
  141.7592   80.3826  221.9178 H   0  0  0  0  0  0  0  0  0  0  0  0
  139.6374   81.0444  222.7152 H   0  0  0  0  0  0  0  0  0  0  0  0
  139.4995   79.8624  221.3135 H   0  0  0  0  0  0  0  0  0  0  0  0
  139.3023   78.8323  224.0892 H   0  0  0  0  0  0  0  0  0  0  0  0
  137.9056   79.7338  223.3649 H   0  0  0  0  0  0  0  0  0  0  0  0
  137.6503   77.3460  222.9551 H   0  0  0  0  0  0  0  0  0  0  0  0
  137.9818   78.2212  221.4083 H   0  0  0  0  0  0  0  0  0  0  0  0
  138.7665   70.3971  221.9623 H   0  0  0  0  0  0  0  0  0  0  0  0
  138.9182   68.6983  223.7378 H   0  0  0  0  0  0  0  0  0  0  0  0
  139.6206   68.1028  225.9276 H   0  0  0  0  0  0  0  0  0  0  0  0
  141.6132   71.0132  228.3524 H   0  0  0  0  0  0  0  0  0  0  0  0
  141.4535   72.7213  226.5500 H   0  0  0  0  0  0  0  0  0  0  0  0
  1  2  2  0
  2  3  1  0
  3  4  1  0
  4  5  1  0
  5  6  2  0
  5  7  1  0
  7  8  1  0
  8  9  1  0
  9 10  1  0
 10 11  1  0
 11 12  1  0
 12 13  1  0
  2 14  1  0
 14 15  2  0
 15 16  1  0
 16 17  2  0
 17 18  1  0
 18 19  2  0
 19 20  1  0
 19 21  1  0
 21 22  2  0
 22 23  1  0
 23 24  2  0
 13  7  1  0
 24 14  1  0
 23 17  1  0
  3 25  1  0
  4 26  1  0
  4 27  1  0
  8 28  1  0
  8 29  1  0
  9 30  1  0
  9 31  1  0
 10 32  1  0
 10 33  1  0
 11 34  1  0
 11 35  1  0
 12 36  1  0
 12 37  1  0
 13 38  1  0
 13 39  1  0
 15 40  1  0
 16 41  1  0
 18 42  1  0
 21 43  1  0
 22 44  1  0
M  END
>  <smiles>  (22) 
O=C(NCC(=O)N1CCCCCC1)c1ccc2cc(Cl)ccc2n1

>  <score_type>  (22) 
oracle

>  <origin>  (22) 
autodockgpu

>  <m_score__min__energy>  (22) 
-5.8499999999999996

>  <m_primary>  (22) 
energy

>  <rmsd>  (22) 
3.306505138078531

>  <m_score__min__rmsd>  (22) 
3.306505138078531

>  <meeko>  (22) 
{"free_energy": -4.52, "intermolecular_energy": -7.2, "internal_energy": -1.14, "cluster_size": 14, "cluster_id": 3, "rank_in_cluster": 13}

>  <energy>  (22) 
-5.27

>  <cluster_rmsd>  (22) 
0.55

>  <cluster>  (22) 
3

$$$$

     RDKit          3D

 44 46  0  0  0  0  0  0  0  0999 V2000
  139.9200   69.8280  222.4870 O   0  0  0  0  0  0  0  0  0  0  0  0
  139.5640   70.9540  222.9090 C   0  0  0  0  0  0  0  0  0  0  0  0
  138.6650   71.1500  223.9890 N   0  0  0  0  0  0  0  0  0  0  0  0
  138.1160   69.9720  224.6550 C   0  0  0  0  0  0  0  0  0  0  0  0
  139.2450   69.0840  225.0460 C   0  0  0  0  0  0  0  0  0  0  0  0
  139.2190   67.8490  224.7230 O   0  0  0  0  0  0  0  0  0  0  0  0
  140.3480   69.6060  225.7760 N   0  0  0  0  0  0  0  0  0  0  0  0
  140.3480   71.0120  226.1280 C   0  0  0  0  0  0  0  0  0  0  0  0
  140.4150   71.1000  227.6360 C   0  0  0  0  0  0  0  0  0  0  0  0
  139.8120   69.8770  228.2600 C   0  0  0  0  0  0  0  0  0  0  0  0
  140.7720   68.7650  228.5200 C   0  0  0  0  0  0  0  0  0  0  0  0
  141.0320   67.8650  227.3570 C   0  0  0  0  0  0  0  0  0  0  0  0
  141.3850   68.6490  226.1010 C   0  0  0  0  0  0  0  0  0  0  0  0
  140.1130   72.1430  222.2430 C   0  0  0  0  0  0  0  0  0  0  0  0
  141.1190   72.0480  221.3120 C   0  0  0  0  0  0  0  0  0  0  0  0
  141.6710   73.1210  220.6580 C   0  0  0  0  0  0  0  0  0  0  0  0
  141.1700   74.3730  220.9670 C   0  0  0  0  0  0  0  0  0  0  0  0
  141.7120   75.4640  220.3210 C   0  0  0  0  0  0  0  0  0  0  0  0
  141.2140   76.7040  220.6300 C   0  0  0  0  0  0  0  0  0  0  0  0
  141.8900   78.1030  219.8190 Cl  0  0  0  0  0  0  0  0  0  0  0  0
  140.2080   76.8220  221.5590 C   0  0  0  0  0  0  0  0  0  0  0  0
  139.6560   75.7260  222.2150 C   0  0  0  0  0  0  0  0  0  0  0  0
  140.1610   74.4690  221.9020 C   0  0  0  0  0  0  0  0  0  0  0  0
  139.6490   73.3830  222.5210 N   0  0  0  0  0  0  0  0  0  0  0  0
  138.3860   72.1180  224.3190 H   0  0  0  0  0  0  0  0  0  0  0  0
  137.5571   70.2788  225.5514 H   0  0  0  0  0  0  0  0  0  0  0  0
  137.4331   69.4387  223.9773 H   0  0  0  0  0  0  0  0  0  0  0  0
  141.2214   71.5111  225.6830 H   0  0  0  0  0  0  0  0  0  0  0  0
  139.4416   71.5073  225.7497 H   0  0  0  0  0  0  0  0  0  0  0  0
  141.4666   71.1844  227.9475 H   0  0  0  0  0  0  0  0  0  0  0  0
  139.8498   71.9839  227.9666 H   0  0  0  0  0  0  0  0  0  0  0  0
  139.3610   70.1702  229.2195 H   0  0  0  0  0  0  0  0  0  0  0  0
  139.0810   69.4897  227.5349 H   0  0  0  0  0  0  0  0  0  0  0  0
  141.7304   69.2079  228.8286 H   0  0  0  0  0  0  0  0  0  0  0  0
  140.3089   68.1366  229.2950 H   0  0  0  0  0  0  0  0  0  0  0  0
  141.8687   67.1955  227.6054 H   0  0  0  0  0  0  0  0  0  0  0  0
  140.1137   67.2938  227.1557 H   0  0  0  0  0  0  0  0  0  0  0  0
  142.3306   69.1861  226.2665 H   0  0  0  0  0  0  0  0  0  0  0  0
  141.4835   67.9423  225.2638 H   0  0  0  0  0  0  0  0  0  0  0  0
  141.5074   71.0464  221.0753 H   0  0  0  0  0  0  0  0  0  0  0  0
  142.4766   72.9912  219.9204 H   0  0  0  0  0  0  0  0  0  0  0  0
  142.5177   75.3437  219.5818 H   0  0  0  0  0  0  0  0  0  0  0  0
  139.8229   77.8253  221.7939 H   0  0  0  0  0  0  0  0  0  0  0  0
  138.8503   75.8495  222.9536 H   0  0  0  0  0  0  0  0  0  0  0  0
  1  2  2  0
  2  3  1  0
  3  4  1  0
  4  5  1  0
  5  6  2  0
  5  7  1  0
  7  8  1  0
  8  9  1  0
  9 10  1  0
 10 11  1  0
 11 12  1  0
 12 13  1  0
  2 14  1  0
 14 15  2  0
 15 16  1  0
 16 17  2  0
 17 18  1  0
 18 19  2  0
 19 20  1  0
 19 21  1  0
 21 22  2  0
 22 23  1  0
 23 24  2  0
 13  7  1  0
 24 14  1  0
 23 17  1  0
  3 25  1  0
  4 26  1  0
  4 27  1  0
  8 28  1  0
  8 29  1  0
  9 30  1  0
  9 31  1  0
 10 32  1  0
 10 33  1  0
 11 34  1  0
 11 35  1  0
 12 36  1  0
 12 37  1  0
 13 38  1  0
 13 39  1  0
 15 40  1  0
 16 41  1  0
 18 42  1  0
 21 43  1  0
 22 44  1  0
M  END
>  <smiles>  (23) 
O=C(NCC(=O)N1CCCCCC1)c1ccc2cc(Cl)ccc2n1

>  <score_type>  (23) 
oracle

>  <origin>  (23) 
autodockgpu

>  <m_score__min__energy>  (23) 
-5.8499999999999996

>  <m_primary>  (23) 
energy

>  <rmsd>  (23) 
8.20088565777422

>  <m_score__min__rmsd>  (23) 
8.20088565777422

>  <meeko>  (23) 
{"free_energy": -5.37, "intermolecular_energy": -8.05, "internal_energy": -1.11, "cluster_size": 6, "cluster_id": 2, "rank_in_cluster": 2}

>  <energy>  (23) 
-5.26

>  <cluster_rmsd>  (23) 
1.41

>  <cluster>  (23) 
3

$$$$

     RDKit          3D

 44 46  0  0  0  0  0  0  0  0999 V2000
  135.5120   68.5700  224.2900 O   0  0  0  0  0  0  0  0  0  0  0  0
  135.9940   69.6500  224.7120 C   0  0  0  0  0  0  0  0  0  0  0  0
  137.3720   69.9830  224.6460 N   0  0  0  0  0  0  0  0  0  0  0  0
  138.2910   69.0170  224.0540 C   0  0  0  0  0  0  0  0  0  0  0  0
  139.1630   68.4740  225.1310 C   0  0  0  0  0  0  0  0  0  0  0  0
  138.8480   67.3800  225.7090 O   0  0  0  0  0  0  0  0  0  0  0  0
  140.3410   69.1700  225.5170 N   0  0  0  0  0  0  0  0  0  0  0  0
  140.6720   70.4100  224.8430 C   0  0  0  0  0  0  0  0  0  0  0  0
  140.2670   71.5430  225.7590 C   0  0  0  0  0  0  0  0  0  0  0  0
  140.7950   71.3130  227.1440 C   0  0  0  0  0  0  0  0  0  0  0  0
  140.0210   70.3280  227.9550 C   0  0  0  0  0  0  0  0  0  0  0  0
  140.5660   68.9340  227.9450 C   0  0  0  0  0  0  0  0  0  0  0  0
  141.1100   68.5480  226.5760 C   0  0  0  0  0  0  0  0  0  0  0  0
  135.0740   70.6260  225.3090 C   0  0  0  0  0  0  0  0  0  0  0  0
  134.1400   70.2570  226.2480 C   0  0  0  0  0  0  0  0  0  0  0  0
  133.2550   71.1240  226.8400 C   0  0  0  0  0  0  0  0  0  0  0  0
  133.3220   72.4520  226.4570 C   0  0  0  0  0  0  0  0  0  0  0  0
  132.4410   73.3370  227.0400 C   0  0  0  0  0  0  0  0  0  0  0  0
  132.5080   74.6530  226.6590 C   0  0  0  0  0  0  0  0  0  0  0  0
  131.3970   75.7950  227.3890 Cl  0  0  0  0  0  0  0  0  0  0  0  0
  133.4350   75.0440  225.7210 C   0  0  0  0  0  0  0  0  0  0  0  0
  134.3260   74.1560  225.1280 C   0  0  0  0  0  0  0  0  0  0  0  0
  134.2580   72.8220  225.5150 C   0  0  0  0  0  0  0  0  0  0  0  0
  135.1090   71.9330  224.9590 N   0  0  0  0  0  0  0  0  0  0  0  0
  137.7440   70.9060  225.0130 H   0  0  0  0  0  0  0  0  0  0  0  0
  137.7210   68.1986  223.5900 H   0  0  0  0  0  0  0  0  0  0  0  0
  138.9045   69.5044  223.2819 H   0  0  0  0  0  0  0  0  0  0  0  0
  141.7533   70.4539  224.6456 H   0  0  0  0  0  0  0  0  0  0  0  0
  140.1458   70.4816  223.8797 H   0  0  0  0  0  0  0  0  0  0  0  0
  140.6741   72.4874  225.3686 H   0  0  0  0  0  0  0  0  0  0  0  0
  139.1689   71.5919  225.8004 H   0  0  0  0  0  0  0  0  0  0  0  0
  141.8294   70.9485  227.0594 H   0  0  0  0  0  0  0  0  0  0  0  0
  140.7149   72.2763  227.6691 H   0  0  0  0  0  0  0  0  0  0  0  0
  140.0053   70.6809  228.9967 H   0  0  0  0  0  0  0  0  0  0  0  0
  139.0219   70.2710  227.4984 H   0  0  0  0  0  0  0  0  0  0  0  0
  141.3784   68.8643  228.6833 H   0  0  0  0  0  0  0  0  0  0  0  0
  139.7453   68.2448  228.1930 H   0  0  0  0  0  0  0  0  0  0  0  0
  142.1574   68.8754  226.4998 H   0  0  0  0  0  0  0  0  0  0  0  0
  141.0384   67.4559  226.4658 H   0  0  0  0  0  0  0  0  0  0  0  0
  134.0990   69.1984  226.5443 H   0  0  0  0  0  0  0  0  0  0  0  0
  132.5246   70.7780  227.5862 H   0  0  0  0  0  0  0  0  0  0  0  0
  131.7076   72.9989  227.7869 H   0  0  0  0  0  0  0  0  0  0  0  0
  133.4732   76.1035  225.4276 H   0  0  0  0  0  0  0  0  0  0  0  0
  135.0576   74.4963  224.3804 H   0  0  0  0  0  0  0  0  0  0  0  0
  1  2  2  0
  2  3  1  0
  3  4  1  0
  4  5  1  0
  5  6  2  0
  5  7  1  0
  7  8  1  0
  8  9  1  0
  9 10  1  0
 10 11  1  0
 11 12  1  0
 12 13  1  0
  2 14  1  0
 14 15  2  0
 15 16  1  0
 16 17  2  0
 17 18  1  0
 18 19  2  0
 19 20  1  0
 19 21  1  0
 21 22  2  0
 22 23  1  0
 23 24  2  0
 13  7  1  0
 24 14  1  0
 23 17  1  0
  3 25  1  0
  4 26  1  0
  4 27  1  0
  8 28  1  0
  8 29  1  0
  9 30  1  0
  9 31  1  0
 10 32  1  0
 10 33  1  0
 11 34  1  0
 11 35  1  0
 12 36  1  0
 12 37  1  0
 13 38  1  0
 13 39  1  0
 15 40  1  0
 16 41  1  0
 18 42  1  0
 21 43  1  0
 22 44  1  0
M  END
>  <smiles>  (24) 
O=C(NCC(=O)N1CCCCCC1)c1ccc2cc(Cl)ccc2n1

>  <score_type>  (24) 
oracle

>  <origin>  (24) 
autodockgpu

>  <m_score__min__energy>  (24) 
-5.8499999999999996

>  <m_primary>  (24) 
energy

>  <rmsd>  (24) 
8.22455406222796

>  <m_score__min__rmsd>  (24) 
8.22455406222796

>  <meeko>  (24) 
{"free_energy": -5.64, "intermolecular_energy": -8.32, "internal_energy": -1.2, "cluster_size": 14, "cluster_id": 1, "rank_in_cluster": 2}

>  <energy>  (24) 
-5.14

>  <cluster_rmsd>  (24) 
1.18

>  <cluster>  (24) 
3

$$$$

     RDKit          3D

 44 46  0  0  0  0  0  0  0  0999 V2000
  136.4320   69.2590  223.8550 O   0  0  0  0  0  0  0  0  0  0  0  0
  136.8750   70.4060  224.1060 C   0  0  0  0  0  0  0  0  0  0  0  0
  138.2450   70.7660  224.0090 N   0  0  0  0  0  0  0  0  0  0  0  0
  139.2010   69.7450  223.5940 C   0  0  0  0  0  0  0  0  0  0  0  0
  139.4480   68.8360  224.7470 C   0  0  0  0  0  0  0  0  0  0  0  0
  138.8020   67.7390  224.8370 O   0  0  0  0  0  0  0  0  0  0  0  0
  140.4000   69.1860  225.7440 N   0  0  0  0  0  0  0  0  0  0  0  0
  141.1170   70.4390  225.6150 C   0  0  0  0  0  0  0  0  0  0  0  0
  140.3700   71.4730  226.4260 C   0  0  0  0  0  0  0  0  0  0  0  0
  140.7600   71.3870  227.8720 C   0  0  0  0  0  0  0  0  0  0  0  0
  141.3560   70.0840  228.2860 C   0  0  0  0  0  0  0  0  0  0  0  0
  140.4440   68.9020  228.1770 C   0  0  0  0  0  0  0  0  0  0  0  0
  140.5550   68.2250  226.8170 C   0  0  0  0  0  0  0  0  0  0  0  0
  135.9170   71.4370  224.5240 C   0  0  0  0  0  0  0  0  0  0  0  0
  135.9210   72.6940  223.9660 C   0  0  0  0  0  0  0  0  0  0  0  0
  135.0510   73.6970  224.3160 C   0  0  0  0  0  0  0  0  0  0  0  0
  134.1160   73.4080  225.2940 C   0  0  0  0  0  0  0  0  0  0  0  0
  133.2340   74.4030  225.6580 C   0  0  0  0  0  0  0  0  0  0  0  0
  132.3080   74.1150  226.6280 C   0  0  0  0  0  0  0  0  0  0  0  0
  131.1780   75.3660  227.1060 Cl  0  0  0  0  0  0  0  0  0  0  0  0
  132.2870   72.8640  227.1990 C   0  0  0  0  0  0  0  0  0  0  0  0
  133.1730   71.8550  226.8370 C   0  0  0  0  0  0  0  0  0  0  0  0
  134.1120   72.1470  225.8530 C   0  0  0  0  0  0  0  0  0  0  0  0
  134.9880   71.1910  225.4770 N   0  0  0  0  0  0  0  0  0  0  0  0
  138.5840   71.7460  224.2290 H   0  0  0  0  0  0  0  0  0  0  0  0
  138.7893   69.1716  222.7504 H   0  0  0  0  0  0  0  0  0  0  0  0
  140.1427   70.2161  223.2757 H   0  0  0  0  0  0  0  0  0  0  0  0
  142.1413   70.3274  226.0001 H   0  0  0  0  0  0  0  0  0  0  0  0
  141.1794   70.7439  224.5599 H   0  0  0  0  0  0  0  0  0  0  0  0
  140.6116   72.4761  226.0447 H   0  0  0  0  0  0  0  0  0  0  0  0
  139.2901   71.2839  226.3364 H   0  0  0  0  0  0  0  0  0  0  0  0
  141.4959   72.1790  228.0750 H   0  0  0  0  0  0  0  0  0  0  0  0
  139.8301   71.4977  228.4491 H   0  0  0  0  0  0  0  0  0  0  0  0
  142.2349   69.8952  227.6520 H   0  0  0  0  0  0  0  0  0  0  0  0
  141.5980   70.1850  229.3543 H   0  0  0  0  0  0  0  0  0  0  0  0
  140.7083   68.1751  228.9591 H   0  0  0  0  0  0  0  0  0  0  0  0
  139.4097   69.2559  228.2992 H   0  0  0  0  0  0  0  0  0  0  0  0
  141.5424   67.7476  226.7324 H   0  0  0  0  0  0  0  0  0  0  0  0
  139.7553   67.4743  226.7331 H   0  0  0  0  0  0  0  0  0  0  0  0
  136.6694   72.9098  223.1893 H   0  0  0  0  0  0  0  0  0  0  0  0
  135.0955   74.6874  223.8394 H   0  0  0  0  0  0  0  0  0  0  0  0
  133.2716   75.3958  225.1858 H   0  0  0  0  0  0  0  0  0  0  0  0
  131.5371   72.6524  227.9755 H   0  0  0  0  0  0  0  0  0  0  0  0
  133.1328   70.8632  227.3110 H   0  0  0  0  0  0  0  0  0  0  0  0
  1  2  2  0
  2  3  1  0
  3  4  1  0
  4  5  1  0
  5  6  2  0
  5  7  1  0
  7  8  1  0
  8  9  1  0
  9 10  1  0
 10 11  1  0
 11 12  1  0
 12 13  1  0
  2 14  1  0
 14 15  2  0
 15 16  1  0
 16 17  2  0
 17 18  1  0
 18 19  2  0
 19 20  1  0
 19 21  1  0
 21 22  2  0
 22 23  1  0
 23 24  2  0
 13  7  1  0
 24 14  1  0
 23 17  1  0
  3 25  1  0
  4 26  1  0
  4 27  1  0
  8 28  1  0
  8 29  1  0
  9 30  1  0
  9 31  1  0
 10 32  1  0
 10 33  1  0
 11 34  1  0
 11 35  1  0
 12 36  1  0
 12 37  1  0
 13 38  1  0
 13 39  1  0
 15 40  1  0
 16 41  1  0
 18 42  1  0
 21 43  1  0
 22 44  1  0
M  END
>  <smiles>  (25) 
O=C(NCC(=O)N1CCCCCC1)c1ccc2cc(Cl)ccc2n1

>  <score_type>  (25) 
oracle

>  <origin>  (25) 
autodockgpu

>  <m_score__min__energy>  (25) 
-5.8499999999999996

>  <m_primary>  (25) 
energy

>  <rmsd>  (25) 
8.275214068924711

>  <m_score__min__rmsd>  (25) 
8.275214068924711

>  <meeko>  (25) 
{"free_energy": -5.22, "intermolecular_energy": -7.9, "internal_energy": -1.04, "cluster_size": 14, "cluster_id": 1, "rank_in_cluster": 5}

>  <energy>  (25) 
-5.09

>  <cluster_rmsd>  (25) 
1.03

>  <cluster>  (25) 
3

$$$$

     RDKit          3D

 44 46  0  0  0  0  0  0  0  0999 V2000
  136.1120   77.5720  222.5310 O   0  0  0  0  0  0  0  0  0  0  0  0
  136.5620   76.4360  222.8210 C   0  0  0  0  0  0  0  0  0  0  0  0
  137.8470   75.9700  222.4390 N   0  0  0  0  0  0  0  0  0  0  0  0
  138.7030   76.8600  221.6600 C   0  0  0  0  0  0  0  0  0  0  0  0
  139.9910   77.0300  222.3860 C   0  0  0  0  0  0  0  0  0  0  0  0
  140.6810   76.0030  222.7000 O   0  0  0  0  0  0  0  0  0  0  0  0
  140.4520   78.3300  222.7320 N   0  0  0  0  0  0  0  0  0  0  0  0
  139.6470   79.4770  222.3630 C   0  0  0  0  0  0  0  0  0  0  0  0
  139.7910   80.5040  223.4640 C   0  0  0  0  0  0  0  0  0  0  0  0
  140.9700   81.3930  223.2010 C   0  0  0  0  0  0  0  0  0  0  0  0
  142.2940   80.8030  223.5560 C   0  0  0  0  0  0  0  0  0  0  0  0
  142.6030   79.4910  222.9050 C   0  0  0  0  0  0  0  0  0  0  0  0
  141.7170   78.3720  223.4370 C   0  0  0  0  0  0  0  0  0  0  0  0
  135.7060   75.5370  223.6040 C   0  0  0  0  0  0  0  0  0  0  0  0
  135.7370   74.1740  223.4270 C   0  0  0  0  0  0  0  0  0  0  0  0
  134.9610   73.2850  224.1280 C   0  0  0  0  0  0  0  0  0  0  0  0
  134.0970   73.8110  225.0730 C   0  0  0  0  0  0  0  0  0  0  0  0
  133.3100   72.9340  225.7870 C   0  0  0  0  0  0  0  0  0  0  0  0
  132.4540   73.4570  226.7220 C   0  0  0  0  0  0  0  0  0  0  0  0
  131.4440   72.3580  227.6420 Cl  0  0  0  0  0  0  0  0  0  0  0  0
  132.4060   74.8180  226.9170 C   0  0  0  0  0  0  0  0  0  0  0  0
  133.1980   75.7090  226.1990 C   0  0  0  0  0  0  0  0  0  0  0  0
  134.0660   75.1780  225.2510 C   0  0  0  0  0  0  0  0  0  0  0  0
  134.8480   76.0150  224.5360 N   0  0  0  0  0  0  0  0  0  0  0  0
  138.1940   75.0040  222.7020 H   0  0  0  0  0  0  0  0  0  0  0  0
  138.8906   76.4211  220.6690 H   0  0  0  0  0  0  0  0  0  0  0  0
  138.2124   77.8357  221.5286 H   0  0  0  0  0  0  0  0  0  0  0  0
  140.0030   79.8952  221.4099 H   0  0  0  0  0  0  0  0  0  0  0  0
  138.5932   79.1876  222.2374 H   0  0  0  0  0  0  0  0  0  0  0  0
  138.8785   81.1166  223.5094 H   0  0  0  0  0  0  0  0  0  0  0  0
  139.9448   79.9820  224.4200 H   0  0  0  0  0  0  0  0  0  0  0  0
  140.9813   81.6371  222.1285 H   0  0  0  0  0  0  0  0  0  0  0  0
  140.8419   82.2741  223.8470 H   0  0  0  0  0  0  0  0  0  0  0  0
  143.0753   81.5201  223.2638 H   0  0  0  0  0  0  0  0  0  0  0  0
  142.2600   80.6062  224.6377 H   0  0  0  0  0  0  0  0  0  0  0  0
  142.4442   79.5856  221.8206 H   0  0  0  0  0  0  0  0  0  0  0  0
  143.6487   79.2354  223.1311 H   0  0  0  0  0  0  0  0  0  0  0  0
  142.2343   77.4103  223.3048 H   0  0  0  0  0  0  0  0  0  0  0  0
  141.5178   78.5600  224.5023 H   0  0  0  0  0  0  0  0  0  0  0  0
  136.4293   73.7693  222.6740 H   0  0  0  0  0  0  0  0  0  0  0  0
  135.0230   72.2018  223.9468 H   0  0  0  0  0  0  0  0  0  0  0  0
  133.3665   71.8494  225.6127 H   0  0  0  0  0  0  0  0  0  0  0  0
  131.7130   75.2185  227.6716 H   0  0  0  0  0  0  0  0  0  0  0  0
  133.1396   76.7933  226.3748 H   0  0  0  0  0  0  0  0  0  0  0  0
  1  2  2  0
  2  3  1  0
  3  4  1  0
  4  5  1  0
  5  6  2  0
  5  7  1  0
  7  8  1  0
  8  9  1  0
  9 10  1  0
 10 11  1  0
 11 12  1  0
 12 13  1  0
  2 14  1  0
 14 15  2  0
 15 16  1  0
 16 17  2  0
 17 18  1  0
 18 19  2  0
 19 20  1  0
 19 21  1  0
 21 22  2  0
 22 23  1  0
 23 24  2  0
 13  7  1  0
 24 14  1  0
 23 17  1  0
  3 25  1  0
  4 26  1  0
  4 27  1  0
  8 28  1  0
  8 29  1  0
  9 30  1  0
  9 31  1  0
 10 32  1  0
 10 33  1  0
 11 34  1  0
 11 35  1  0
 12 36  1  0
 12 37  1  0
 13 38  1  0
 13 39  1  0
 15 40  1  0
 16 41  1  0
 18 42  1  0
 21 43  1  0
 22 44  1  0
M  END
>  <smiles>  (26) 
O=C(NCC(=O)N1CCCCCC1)c1ccc2cc(Cl)ccc2n1

>  <score_type>  (26) 
oracle

>  <origin>  (26) 
autodockgpu

>  <m_score__min__energy>  (26) 
-5.8499999999999996

>  <m_primary>  (26) 
energy

>  <rmsd>  (26) 
6.54844952200371

>  <m_score__min__rmsd>  (26) 
6.54844952200371

>  <meeko>  (26) 
{"free_energy": -4.79, "intermolecular_energy": -7.47, "internal_energy": -0.99, "cluster_size": 2, "cluster_id": 6, "rank_in_cluster": 1}

>  <energy>  (26) 
-5.08

>  <cluster_rmsd>  (26) 
0.99

>  <cluster>  (26) 
3

$$$$

     RDKit          3D

 44 46  0  0  0  0  0  0  0  0999 V2000
  138.8410   71.7090  220.8600 O   0  0  0  0  0  0  0  0  0  0  0  0
  139.1470   72.2270  221.9610 C   0  0  0  0  0  0  0  0  0  0  0  0
  139.2610   73.6250  222.1760 N   0  0  0  0  0  0  0  0  0  0  0  0
  139.0090   74.5210  221.0520 C   0  0  0  0  0  0  0  0  0  0  0  0
  140.1870   75.4170  220.8910 C   0  0  0  0  0  0  0  0  0  0  0  0
  140.1560   76.5970  221.3780 O   0  0  0  0  0  0  0  0  0  0  0  0
  141.3430   74.9630  220.1980 N   0  0  0  0  0  0  0  0  0  0  0  0
  141.3480   73.6190  219.6550 C   0  0  0  0  0  0  0  0  0  0  0  0
  142.1260   72.7480  220.6170 C   0  0  0  0  0  0  0  0  0  0  0  0
  143.5970   72.8460  220.3410 C   0  0  0  0  0  0  0  0  0  0  0  0
  144.1860   74.2010  220.5470 C   0  0  0  0  0  0  0  0  0  0  0  0
  143.7000   75.2580  219.6020 C   0  0  0  0  0  0  0  0  0  0  0  0
  142.4250   75.9210  220.1040 C   0  0  0  0  0  0  0  0  0  0  0  0
  139.4010   71.3310  223.0960 C   0  0  0  0  0  0  0  0  0  0  0  0
  139.0900   69.9930  223.0420 C   0  0  0  0  0  0  0  0  0  0  0  0
  139.3040   69.1080  224.0700 C   0  0  0  0  0  0  0  0  0  0  0  0
  139.8720   69.6110  225.2270 C   0  0  0  0  0  0  0  0  0  0  0  0
  140.0940   68.7370  226.2700 C   0  0  0  0  0  0  0  0  0  0  0  0
  140.6560   69.2370  227.4160 C   0  0  0  0  0  0  0  0  0  0  0  0
  140.9480   68.1430  228.7540 Cl  0  0  0  0  0  0  0  0  0  0  0  0
  140.9750   70.5730  227.4920 C   0  0  0  0  0  0  0  0  0  0  0  0
  140.7530   71.4610  226.4440 C   0  0  0  0  0  0  0  0  0  0  0  0
  140.1830   70.9530  225.2810 C   0  0  0  0  0  0  0  0  0  0  0  0
  139.9540   71.7870  224.2440 N   0  0  0  0  0  0  0  0  0  0  0  0
  139.5210   74.0280  223.1210 H   0  0  0  0  0  0  0  0  0  0  0  0
  138.8615   73.9330  220.1342 H   0  0  0  0  0  0  0  0  0  0  0  0
  138.1039   75.1173  221.2400 H   0  0  0  0  0  0  0  0  0  0  0  0
  140.3170   73.2474  219.5603 H   0  0  0  0  0  0  0  0  0  0  0  0
  141.8089   73.6042  218.6563 H   0  0  0  0  0  0  0  0  0  0  0  0
  141.9279   73.0795  221.6470 H   0  0  0  0  0  0  0  0  0  0  0  0
  141.8083   71.7028  220.4878 H   0  0  0  0  0  0  0  0  0  0  0  0
  144.1173   72.1424  221.0075 H   0  0  0  0  0  0  0  0  0  0  0  0
  143.7268   72.6122  219.2740 H   0  0  0  0  0  0  0  0  0  0  0  0
  143.9470   74.5239  221.5710 H   0  0  0  0  0  0  0  0  0  0  0  0
  145.2650   74.0967  220.3599 H   0  0  0  0  0  0  0  0  0  0  0  0
  144.4811   76.0248  219.4930 H   0  0  0  0  0  0  0  0  0  0  0  0
  143.4794   74.7789  218.6367 H   0  0  0  0  0  0  0  0  0  0  0  0
  142.6114   76.3516  221.0989 H   0  0  0  0  0  0  0  0  0  0  0  0
  142.1354   76.7073  219.3913 H   0  0  0  0  0  0  0  0  0  0  0  0
  138.6407   69.6063  222.1154 H   0  0  0  0  0  0  0  0  0  0  0  0
  139.0355   68.0453  223.9776 H   0  0  0  0  0  0  0  0  0  0  0  0
  139.8287   67.6728  226.1853 H   0  0  0  0  0  0  0  0  0  0  0  0
  141.4245   70.9554  228.4203 H   0  0  0  0  0  0  0  0  0  0  0  0
  141.0183   72.5249  226.5318 H   0  0  0  0  0  0  0  0  0  0  0  0
  1  2  2  0
  2  3  1  0
  3  4  1  0
  4  5  1  0
  5  6  2  0
  5  7  1  0
  7  8  1  0
  8  9  1  0
  9 10  1  0
 10 11  1  0
 11 12  1  0
 12 13  1  0
  2 14  1  0
 14 15  2  0
 15 16  1  0
 16 17  2  0
 17 18  1  0
 18 19  2  0
 19 20  1  0
 19 21  1  0
 21 22  2  0
 22 23  1  0
 23 24  2  0
 13  7  1  0
 24 14  1  0
 23 17  1  0
  3 25  1  0
  4 26  1  0
  4 27  1  0
  8 28  1  0
  8 29  1  0
  9 30  1  0
  9 31  1  0
 10 32  1  0
 10 33  1  0
 11 34  1  0
 11 35  1  0
 12 36  1  0
 12 37  1  0
 13 38  1  0
 13 39  1  0
 15 40  1  0
 16 41  1  0
 18 42  1  0
 21 43  1  0
 22 44  1  0
M  END
>  <smiles>  (27) 
O=C(NCC(=O)N1CCCCCC1)c1ccc2cc(Cl)ccc2n1

>  <score_type>  (27) 
oracle

>  <origin>  (27) 
autodockgpu

>  <m_score__min__energy>  (27) 
-5.8499999999999996

>  <m_primary>  (27) 
energy

>  <rmsd>  (27) 
2.68023222561025

>  <m_score__min__rmsd>  (27) 
2.68023222561025

>  <meeko>  (27) 
{"free_energy": -5.13, "intermolecular_energy": -7.81, "internal_energy": -1.45, "cluster_size": 6, "cluster_id": 4, "rank_in_cluster": 1}

>  <energy>  (27) 
-4.9

>  <cluster_rmsd>  (27) 
1.4

>  <cluster>  (27) 
3

$$$$

     RDKit          3D

 44 46  0  0  0  0  0  0  0  0999 V2000
  139.0420   72.3110  220.5970 O   0  0  0  0  0  0  0  0  0  0  0  0
  139.6360   72.7230  221.6220 C   0  0  0  0  0  0  0  0  0  0  0  0
  140.3030   73.9730  221.7050 N   0  0  0  0  0  0  0  0  0  0  0  0
  140.3040   74.8370  220.5280 C   0  0  0  0  0  0  0  0  0  0  0  0
  141.7010   75.2830  220.2730 C   0  0  0  0  0  0  0  0  0  0  0  0
  141.9600   76.5300  220.1840 O   0  0  0  0  0  0  0  0  0  0  0  0
  142.7440   74.3270  220.1290 N   0  0  0  0  0  0  0  0  0  0  0  0
  142.4180   72.9190  220.2360 C   0  0  0  0  0  0  0  0  0  0  0  0
  143.4270   72.1580  219.4050 C   0  0  0  0  0  0  0  0  0  0  0  0
  144.6560   71.8630  220.2130 C   0  0  0  0  0  0  0  0  0  0  0  0
  145.6390   72.9830  220.2940 C   0  0  0  0  0  0  0  0  0  0  0  0
  145.0910   74.2730  220.8280 C   0  0  0  0  0  0  0  0  0  0  0  0
  144.0610   74.8780  219.8840 C   0  0  0  0  0  0  0  0  0  0  0  0
  139.6380   71.8590  222.8090 C   0  0  0  0  0  0  0  0  0  0  0  0
  138.9230   70.6850  222.8490 C   0  0  0  0  0  0  0  0  0  0  0  0
  138.8870   69.8380  223.9280 C   0  0  0  0  0  0  0  0  0  0  0  0
  139.6240   70.2030  225.0410 C   0  0  0  0  0  0  0  0  0  0  0  0
  139.6010   69.3650  226.1350 C   0  0  0  0  0  0  0  0  0  0  0  0
  140.3310   69.7290  227.2370 C   0  0  0  0  0  0  0  0  0  0  0  0
  140.3140   68.6770  228.6390 Cl  0  0  0  0  0  0  0  0  0  0  0  0
  141.0530   70.8990  227.2200 C   0  0  0  0  0  0  0  0  0  0  0  0
  141.0820   71.7500  226.1190 C   0  0  0  0  0  0  0  0  0  0  0  0
  140.3410   71.3810  225.0020 C   0  0  0  0  0  0  0  0  0  0  0  0
  140.3460   72.1840  223.9160 N   0  0  0  0  0  0  0  0  0  0  0  0
  140.7950   74.2890  222.5900 H   0  0  0  0  0  0  0  0  0  0  0  0
  139.9274   74.2795  219.6577 H   0  0  0  0  0  0  0  0  0  0  0  0
  139.6546   75.7083  220.6985 H   0  0  0  0  0  0  0  0  0  0  0  0
  142.4770   72.5979  221.2864 H   0  0  0  0  0  0  0  0  0  0  0  0
  141.3957   72.7281  219.8774 H   0  0  0  0  0  0  0  0  0  0  0  0
  142.9789   71.2114  219.0686 H   0  0  0  0  0  0  0  0  0  0  0  0
  143.7100   72.7724  218.5376 H   0  0  0  0  0  0  0  0  0  0  0  0
  144.3399   71.6112  221.2361 H   0  0  0  0  0  0  0  0  0  0  0  0
  145.1711   71.0372  219.7005 H   0  0  0  0  0  0  0  0  0  0  0  0
  146.4637   72.6659  220.9492 H   0  0  0  0  0  0  0  0  0  0  0  0
  145.9549   73.1887  219.2606 H   0  0  0  0  0  0  0  0  0  0  0  0
  144.6150   74.0829  221.8013 H   0  0  0  0  0  0  0  0  0  0  0  0
  145.9237   74.9844  220.9302 H   0  0  0  0  0  0  0  0  0  0  0  0
  144.0293   75.9669  220.0367 H   0  0  0  0  0  0  0  0  0  0  0  0
  144.3525   74.6416  218.8500 H   0  0  0  0  0  0  0  0  0  0  0  0
  138.3418   70.4066  221.9575 H   0  0  0  0  0  0  0  0  0  0  0  0
  138.2979   68.9092  223.9091 H   0  0  0  0  0  0  0  0  0  0  0  0
  139.0156   68.4338  226.1243 H   0  0  0  0  0  0  0  0  0  0  0  0
  141.6319   71.1740  228.1140 H   0  0  0  0  0  0  0  0  0  0  0  0
  141.6694   72.6800  226.1321 H   0  0  0  0  0  0  0  0  0  0  0  0
  1  2  2  0
  2  3  1  0
  3  4  1  0
  4  5  1  0
  5  6  2  0
  5  7  1  0
  7  8  1  0
  8  9  1  0
  9 10  1  0
 10 11  1  0
 11 12  1  0
 12 13  1  0
  2 14  1  0
 14 15  2  0
 15 16  1  0
 16 17  2  0
 17 18  1  0
 18 19  2  0
 19 20  1  0
 19 21  1  0
 21 22  2  0
 22 23  1  0
 23 24  2  0
 13  7  1  0
 24 14  1  0
 23 17  1  0
  3 25  1  0
  4 26  1  0
  4 27  1  0
  8 28  1  0
  8 29  1  0
  9 30  1  0
  9 31  1  0
 10 32  1  0
 10 33  1  0
 11 34  1  0
 11 35  1  0
 12 36  1  0
 12 37  1  0
 13 38  1  0
 13 39  1  0
 15 40  1  0
 16 41  1  0
 18 42  1  0
 21 43  1  0
 22 44  1  0
M  END
>  <smiles>  (28) 
O=C(NCC(=O)N1CCCCCC1)c1ccc2cc(Cl)ccc2n1

>  <score_type>  (28) 
oracle

>  <origin>  (28) 
autodockgpu

>  <m_score__min__energy>  (28) 
-5.8499999999999996

>  <m_primary>  (28) 
energy

>  <rmsd>  (28) 
3.439847566960189

>  <m_score__min__rmsd>  (28) 
3.439847566960189

>  <meeko>  (28) 
{"free_energy": -4.26, "intermolecular_energy": -6.95, "internal_energy": -1.15, "cluster_size": 6, "cluster_id": 4, "rank_in_cluster": 6}

>  <energy>  (28) 
-4.9

>  <cluster_rmsd>  (28) 
1.37

>  <cluster>  (28) 
3

$$$$

     RDKit          3D

 44 46  0  0  0  0  0  0  0  0999 V2000
  139.5130   74.0540  220.3350 O   0  0  0  0  0  0  0  0  0  0  0  0
  139.4890   74.1370  221.5870 C   0  0  0  0  0  0  0  0  0  0  0  0
  139.4420   75.3630  222.3000 N   0  0  0  0  0  0  0  0  0  0  0  0
  139.4220   76.6080  221.5370 C   0  0  0  0  0  0  0  0  0  0  0  0
  140.7190   77.3080  221.7430 C   0  0  0  0  0  0  0  0  0  0  0  0
  141.7490   76.9380  221.0850 O   0  0  0  0  0  0  0  0  0  0  0  0
  140.8130   78.3830  222.6690 N   0  0  0  0  0  0  0  0  0  0  0  0
  139.6270   78.7800  223.4010 C   0  0  0  0  0  0  0  0  0  0  0  0
  138.9060   79.8140  222.5660 C   0  0  0  0  0  0  0  0  0  0  0  0
  139.6100   81.1360  222.6460 C   0  0  0  0  0  0  0  0  0  0  0  0
  141.0150   81.1320  222.1430 C   0  0  0  0  0  0  0  0  0  0  0  0
  142.0160   80.4830  223.0480 C   0  0  0  0  0  0  0  0  0  0  0  0
  142.1250   78.9870  222.7860 C   0  0  0  0  0  0  0  0  0  0  0  0
  139.5100   72.8890  222.3590 C   0  0  0  0  0  0  0  0  0  0  0  0
  138.7760   71.7910  221.9760 C   0  0  0  0  0  0  0  0  0  0  0  0
  138.7560   70.5990  222.6580 C   0  0  0  0  0  0  0  0  0  0  0  0
  139.5300   70.5130  223.8010 C   0  0  0  0  0  0  0  0  0  0  0  0
  139.5230   69.3240  224.4980 C   0  0  0  0  0  0  0  0  0  0  0  0
  140.2900   69.2410  225.6310 C   0  0  0  0  0  0  0  0  0  0  0  0
  140.2940   67.7380  226.5330 Cl  0  0  0  0  0  0  0  0  0  0  0  0
  141.0320   70.3270  226.0330 C   0  0  0  0  0  0  0  0  0  0  0  0
  141.0450   71.5300  225.3340 C   0  0  0  0  0  0  0  0  0  0  0  0
  140.2660   71.6140  224.1850 C   0  0  0  0  0  0  0  0  0  0  0  0
  140.2550   72.7680  223.4830 N   0  0  0  0  0  0  0  0  0  0  0  0
  139.4230   75.3950  223.3590 H   0  0  0  0  0  0  0  0  0  0  0  0
  139.2855   76.3862  220.4683 H   0  0  0  0  0  0  0  0  0  0  0  0
  138.5916   77.2449  221.8759 H   0  0  0  0  0  0  0  0  0  0  0  0
  138.9764   77.9082  223.5642 H   0  0  0  0  0  0  0  0  0  0  0  0
  139.8972   79.1937  224.3838 H   0  0  0  0  0  0  0  0  0  0  0  0
  138.8807   79.4799  221.5183 H   0  0  0  0  0  0  0  0  0  0  0  0
  137.8822   79.9317  222.9507 H   0  0  0  0  0  0  0  0  0  0  0  0
  139.0371   81.8644  222.0534 H   0  0  0  0  0  0  0  0  0  0  0  0
  139.6660   81.3911  223.7145 H   0  0  0  0  0  0  0  0  0  0  0  0
  141.0302   80.5986  221.1811 H   0  0  0  0  0  0  0  0  0  0  0  0
  141.3138   82.1878  222.0658 H   0  0  0  0  0  0  0  0  0  0  0  0
  142.9997   80.9466  222.8823 H   0  0  0  0  0  0  0  0  0  0  0  0
  141.6829   80.6260  224.0866 H   0  0  0  0  0  0  0  0  0  0  0  0
  142.6801   78.8253  221.8502 H   0  0  0  0  0  0  0  0  0  0  0  0
  142.6512   78.5206  223.6319 H   0  0  0  0  0  0  0  0  0  0  0  0
  138.1655   71.8726  221.0646 H   0  0  0  0  0  0  0  0  0  0  0  0
  138.1504   69.7492  222.3101 H   0  0  0  0  0  0  0  0  0  0  0  0
  138.9212   68.4691  224.1560 H   0  0  0  0  0  0  0  0  0  0  0  0
  141.6406   70.2409  226.9453 H   0  0  0  0  0  0  0  0  0  0  0  0
  141.6489   72.3828  225.6774 H   0  0  0  0  0  0  0  0  0  0  0  0
  1  2  2  0
  2  3  1  0
  3  4  1  0
  4  5  1  0
  5  6  2  0
  5  7  1  0
  7  8  1  0
  8  9  1  0
  9 10  1  0
 10 11  1  0
 11 12  1  0
 12 13  1  0
  2 14  1  0
 14 15  2  0
 15 16  1  0
 16 17  2  0
 17 18  1  0
 18 19  2  0
 19 20  1  0
 19 21  1  0
 21 22  2  0
 22 23  1  0
 23 24  2  0
 13  7  1  0
 24 14  1  0
 23 17  1  0
  3 25  1  0
  4 26  1  0
  4 27  1  0
  8 28  1  0
  8 29  1  0
  9 30  1  0
  9 31  1  0
 10 32  1  0
 10 33  1  0
 11 34  1  0
 11 35  1  0
 12 36  1  0
 12 37  1  0
 13 38  1  0
 13 39  1  0
 15 40  1  0
 16 41  1  0
 18 42  1  0
 21 43  1  0
 22 44  1  0
M  END
>  <smiles>  (29) 
O=C(NCC(=O)N1CCCCCC1)c1ccc2cc(Cl)ccc2n1

>  <score_type>  (29) 
oracle

>  <origin>  (29) 
autodockgpu

>  <m_score__min__energy>  (29) 
-5.8499999999999996

>  <m_primary>  (29) 
energy

>  <rmsd>  (29) 
4.223350795441858

>  <m_score__min__rmsd>  (29) 
4.223350795441858

>  <meeko>  (29) 
{"free_energy": -4.78, "intermolecular_energy": -7.47, "internal_energy": -0.98, "cluster_size": 14, "cluster_id": 3, "rank_in_cluster": 11}

>  <energy>  (29) 
-4.8

>  <cluster_rmsd>  (29) 
0.76

>  <cluster>  (29) 
3

$$$$

     RDKit          3D

 44 46  0  0  0  0  0  0  0  0999 V2000
  139.5990   74.4100  222.1020 O   0  0  0  0  0  0  0  0  0  0  0  0
  140.7490   74.7240  221.7110 C   0  0  0  0  0  0  0  0  0  0  0  0
  141.2660   76.0460  221.7420 N   0  0  0  0  0  0  0  0  0  0  0  0
  140.4120   77.1100  222.2590 C   0  0  0  0  0  0  0  0  0  0  0  0
  140.4960   78.2730  221.3330 C   0  0  0  0  0  0  0  0  0  0  0  0
  139.6590   78.3820  220.3760 O   0  0  0  0  0  0  0  0  0  0  0  0
  141.5060   79.2590  221.5120 N   0  0  0  0  0  0  0  0  0  0  0  0
  142.4420   79.1080  222.6080 C   0  0  0  0  0  0  0  0  0  0  0  0
  141.8200   79.7540  223.8250 C   0  0  0  0  0  0  0  0  0  0  0  0
  141.8700   81.2490  223.7090 C   0  0  0  0  0  0  0  0  0  0  0  0
  141.1300   81.8130  222.5420 C   0  0  0  0  0  0  0  0  0  0  0  0
  141.8200   81.6700  221.2200 C   0  0  0  0  0  0  0  0  0  0  0  0
  141.4910   80.3430  220.5510 C   0  0  0  0  0  0  0  0  0  0  0  0
  141.6120   73.6570  221.1900 C   0  0  0  0  0  0  0  0  0  0  0  0
  141.1340   72.3880  220.9630 C   0  0  0  0  0  0  0  0  0  0  0  0
  141.8930   71.3510  220.4780 C   0  0  0  0  0  0  0  0  0  0  0  0
  143.2230   71.6180  220.2040 C   0  0  0  0  0  0  0  0  0  0  0  0
  144.0010   70.5900  219.7170 C   0  0  0  0  0  0  0  0  0  0  0  0
  145.3180   70.8550  219.4470 C   0  0  0  0  0  0  0  0  0  0  0  0
  146.3240   69.5610  218.8260 Cl  0  0  0  0  0  0  0  0  0  0  0  0
  145.8180   72.1170  219.6670 C   0  0  0  0  0  0  0  0  0  0  0  0
  145.0390   73.1600  220.1590 C   0  0  0  0  0  0  0  0  0  0  0  0
  143.7030   72.8900  220.4330 C   0  0  0  0  0  0  0  0  0  0  0  0
  142.9180   73.8790  220.9110 N   0  0  0  0  0  0  0  0  0  0  0  0
  142.2440   76.2730  221.4030 H   0  0  0  0  0  0  0  0  0  0  0  0
  139.3721   76.7562  222.3174 H   0  0  0  0  0  0  0  0  0  0  0  0
  140.7431   77.4043  223.2658 H   0  0  0  0  0  0  0  0  0  0  0  0
  142.6259   78.0408  222.8013 H   0  0  0  0  0  0  0  0  0  0  0  0
  143.4044   79.5822  222.3654 H   0  0  0  0  0  0  0  0  0  0  0  0
  140.7715   79.4322  223.9097 H   0  0  0  0  0  0  0  0  0  0  0  0
  142.3839   79.4472  224.7183 H   0  0  0  0  0  0  0  0  0  0  0  0
  141.4398   81.6776  224.6262 H   0  0  0  0  0  0  0  0  0  0  0  0
  142.9277   81.5121  223.5605 H   0  0  0  0  0  0  0  0  0  0  0  0
  140.1583   81.3018  222.4758 H   0  0  0  0  0  0  0  0  0  0  0  0
  141.0459   82.8940  222.7272 H   0  0  0  0  0  0  0  0  0  0  0  0
  141.4997   82.4902  220.5607 H   0  0  0  0  0  0  0  0  0  0  0  0
  142.9054   81.7045  221.3954 H   0  0  0  0  0  0  0  0  0  0  0  0
  140.4912   80.4073  220.0969 H   0  0  0  0  0  0  0  0  0  0  0  0
  142.2512   80.1402  219.7823 H   0  0  0  0  0  0  0  0  0  0  0  0
  140.0748   72.1903  221.1842 H   0  0  0  0  0  0  0  0  0  0  0  0
  141.4625   70.3520  220.3145 H   0  0  0  0  0  0  0  0  0  0  0  0
  143.5781   69.5883  219.5503 H   0  0  0  0  0  0  0  0  0  0  0  0
  146.8779   72.3101  219.4448 H   0  0  0  0  0  0  0  0  0  0  0  0
  145.4645   74.1607  220.3249 H   0  0  0  0  0  0  0  0  0  0  0  0
  1  2  2  0
  2  3  1  0
  3  4  1  0
  4  5  1  0
  5  6  2  0
  5  7  1  0
  7  8  1  0
  8  9  1  0
  9 10  1  0
 10 11  1  0
 11 12  1  0
 12 13  1  0
  2 14  1  0
 14 15  2  0
 15 16  1  0
 16 17  2  0
 17 18  1  0
 18 19  2  0
 19 20  1  0
 19 21  1  0
 21 22  2  0
 22 23  1  0
 23 24  2  0
 13  7  1  0
 24 14  1  0
 23 17  1  0
  3 25  1  0
  4 26  1  0
  4 27  1  0
  8 28  1  0
  8 29  1  0
  9 30  1  0
  9 31  1  0
 10 32  1  0
 10 33  1  0
 11 34  1  0
 11 35  1  0
 12 36  1  0
 12 37  1  0
 13 38  1  0
 13 39  1  0
 15 40  1  0
 16 41  1  0
 18 42  1  0
 21 43  1  0
 22 44  1  0
M  END
>  <smiles>  (30) 
O=C(NCC(=O)N1CCCCCC1)c1ccc2cc(Cl)ccc2n1

>  <score_type>  (30) 
oracle

>  <origin>  (30) 
autodockgpu

>  <m_score__min__energy>  (30) 
-5.8499999999999996

>  <m_primary>  (30) 
energy

>  <rmsd>  (30) 
6.338010614683528

>  <m_score__min__rmsd>  (30) 
6.338010614683528

>  <meeko>  (30) 
{"free_energy": -4.84, "intermolecular_energy": -7.52, "internal_energy": -1.13, "cluster_size": 2, "cluster_id": 5, "rank_in_cluster": 1}

>  <energy>  (30) 
-4.79

>  <cluster_rmsd>  (30) 
1.64

>  <cluster>  (30) 
3

$$$$

     RDKit          3D

 44 46  0  0  0  0  0  0  0  0999 V2000
  140.8760   71.2260  221.4190 O   0  0  0  0  0  0  0  0  0  0  0  0
  140.7470   72.2170  222.1770 C   0  0  0  0  0  0  0  0  0  0  0  0
  140.3360   72.1320  223.5330 N   0  0  0  0  0  0  0  0  0  0  0  0
  140.0450   70.8130  224.0860 C   0  0  0  0  0  0  0  0  0  0  0  0
  140.0890   70.9050  225.5710 C   0  0  0  0  0  0  0  0  0  0  0  0
  140.6250   71.9220  226.1270 O   0  0  0  0  0  0  0  0  0  0  0  0
  139.5360   69.8660  226.3700 N   0  0  0  0  0  0  0  0  0  0  0  0
  138.9340   68.7240  225.7110 C   0  0  0  0  0  0  0  0  0  0  0  0
  139.4740   67.4800  226.3800 C   0  0  0  0  0  0  0  0  0  0  0  0
  140.9220   67.6590  226.7300 C   0  0  0  0  0  0  0  0  0  0  0  0
  141.1780   68.1250  228.1240 C   0  0  0  0  0  0  0  0  0  0  0  0
  140.9890   69.5960  228.3240 C   0  0  0  0  0  0  0  0  0  0  0  0
  139.6370   70.0640  227.8010 C   0  0  0  0  0  0  0  0  0  0  0  0
  141.0390   73.5470  221.6260 C   0  0  0  0  0  0  0  0  0  0  0  0
  141.7640   73.7040  220.4690 C   0  0  0  0  0  0  0  0  0  0  0  0
  142.0670   74.9200  219.9070 C   0  0  0  0  0  0  0  0  0  0  0  0
  141.6060   76.0490  220.5590 C   0  0  0  0  0  0  0  0  0  0  0  0
  141.9010   77.2780  220.0100 C   0  0  0  0  0  0  0  0  0  0  0  0
  141.4430   78.3960  220.6580 C   0  0  0  0  0  0  0  0  0  0  0  0
  141.8070   79.9690  219.9760 Cl  0  0  0  0  0  0  0  0  0  0  0  0
  140.7160   78.2620  221.8180 C   0  0  0  0  0  0  0  0  0  0  0  0
  140.4140   77.0250  222.3780 C   0  0  0  0  0  0  0  0  0  0  0  0
  140.8780   75.8910  221.7200 C   0  0  0  0  0  0  0  0  0  0  0  0
  140.6040   74.6740  222.2370 N   0  0  0  0  0  0  0  0  0  0  0  0
  140.2380   72.9920  224.1440 H   0  0  0  0  0  0  0  0  0  0  0  0
  139.0449   70.4876  223.7636 H   0  0  0  0  0  0  0  0  0  0  0  0
  140.7869   70.0826  223.7308 H   0  0  0  0  0  0  0  0  0  0  0  0
  137.8397   68.7628  225.8163 H   0  0  0  0  0  0  0  0  0  0  0  0
  139.1744   68.7235  224.6376 H   0  0  0  0  0  0  0  0  0  0  0  0
  138.9009   67.2849  227.2984 H   0  0  0  0  0  0  0  0  0  0  0  0
  139.3776   66.6320  225.6860 H   0  0  0  0  0  0  0  0  0  0  0  0
  141.4284   66.6920  226.5945 H   0  0  0  0  0  0  0  0  0  0  0  0
  141.3049   68.4477  226.0657 H   0  0  0  0  0  0  0  0  0  0  0  0
  140.4888   67.5941  228.7972 H   0  0  0  0  0  0  0  0  0  0  0  0
  142.2350   67.9101  228.3398 H   0  0  0  0  0  0  0  0  0  0  0  0
  141.0534   69.8213  229.3988 H   0  0  0  0  0  0  0  0  0  0  0  0
  141.7756   70.1232  227.7642 H   0  0  0  0  0  0  0  0  0  0  0  0
  138.8409   69.4921  228.3001 H   0  0  0  0  0  0  0  0  0  0  0  0
  139.5322   71.1381  228.0139 H   0  0  0  0  0  0  0  0  0  0  0  0
  142.1247   72.7977  219.9605 H   0  0  0  0  0  0  0  0  0  0  0  0
  142.6514   74.9927  218.9779 H   0  0  0  0  0  0  0  0  0  0  0  0
  142.4853   77.3594  219.0815 H   0  0  0  0  0  0  0  0  0  0  0  0
  140.3585   79.1710  222.3239 H   0  0  0  0  0  0  0  0  0  0  0  0
  139.8299   76.9466  223.3068 H   0  0  0  0  0  0  0  0  0  0  0  0
  1  2  2  0
  2  3  1  0
  3  4  1  0
  4  5  1  0
  5  6  2  0
  5  7  1  0
  7  8  1  0
  8  9  1  0
  9 10  1  0
 10 11  1  0
 11 12  1  0
 12 13  1  0
  2 14  1  0
 14 15  2  0
 15 16  1  0
 16 17  2  0
 17 18  1  0
 18 19  2  0
 19 20  1  0
 19 21  1  0
 21 22  2  0
 22 23  1  0
 23 24  2  0
 13  7  1  0
 24 14  1  0
 23 17  1  0
  3 25  1  0
  4 26  1  0
  4 27  1  0
  8 28  1  0
  8 29  1  0
  9 30  1  0
  9 31  1  0
 10 32  1  0
 10 33  1  0
 11 34  1  0
 11 35  1  0
 12 36  1  0
 12 37  1  0
 13 38  1  0
 13 39  1  0
 15 40  1  0
 16 41  1  0
 18 42  1  0
 21 43  1  0
 22 44  1  0
M  END
>  <smiles>  (31) 
O=C(NCC(=O)N1CCCCCC1)c1ccc2cc(Cl)ccc2n1

>  <score_type>  (31) 
oracle

>  <origin>  (31) 
autodockgpu

>  <m_score__min__energy>  (31) 
-5.8499999999999996

>  <m_primary>  (31) 
energy

>  <rmsd>  (31) 
9.008664935832181

>  <m_score__min__rmsd>  (31) 
9.008664935832181

>  <meeko>  (31) 
{"free_energy": -4.25, "intermolecular_energy": -6.93, "internal_energy": -1.57, "cluster_size": 6, "cluster_id": 2, "rank_in_cluster": 5}

>  <energy>  (31) 
-4.78

>  <cluster_rmsd>  (31) 
1.34

>  <cluster>  (31) 
3

$$$$

     RDKit          3D

 44 46  0  0  0  0  0  0  0  0999 V2000
  140.8740   72.7990  221.1670 O   0  0  0  0  0  0  0  0  0  0  0  0
  139.9360   72.8670  221.9990 C   0  0  0  0  0  0  0  0  0  0  0  0
  138.8720   73.8030  221.9190 N   0  0  0  0  0  0  0  0  0  0  0  0
  138.8600   74.7460  220.8060 C   0  0  0  0  0  0  0  0  0  0  0  0
  138.1530   75.9810  221.2420 C   0  0  0  0  0  0  0  0  0  0  0  0
  136.9940   76.2440  220.7770 O   0  0  0  0  0  0  0  0  0  0  0  0
  138.7650   76.8660  222.1730 N   0  0  0  0  0  0  0  0  0  0  0  0
  140.0820   76.5400  222.6820 C   0  0  0  0  0  0  0  0  0  0  0  0
  141.0830   77.3730  221.9130 C   0  0  0  0  0  0  0  0  0  0  0  0
  141.2080   78.7380  222.5220 C   0  0  0  0  0  0  0  0  0  0  0  0
  139.9660   79.5630  222.4760 C   0  0  0  0  0  0  0  0  0  0  0  0
  138.8250   79.0420  223.2960 C   0  0  0  0  0  0  0  0  0  0  0  0
  137.9840   78.0340  222.5230 C   0  0  0  0  0  0  0  0  0  0  0  0
  139.9430   71.9210  223.1210 C   0  0  0  0  0  0  0  0  0  0  0  0
  139.3610   70.6790  223.0220 C   0  0  0  0  0  0  0  0  0  0  0  0
  139.3360   69.7540  224.0350 C   0  0  0  0  0  0  0  0  0  0  0  0
  139.9400   70.1090  225.2280 C   0  0  0  0  0  0  0  0  0  0  0  0
  139.9250   69.1930  226.2580 C   0  0  0  0  0  0  0  0  0  0  0  0
  140.5230   69.5470  227.4400 C   0  0  0  0  0  0  0  0  0  0  0  0
  140.5150   68.3960  228.7620 Cl  0  0  0  0  0  0  0  0  0  0  0  0
  141.1110   70.7840  227.5620 C   0  0  0  0  0  0  0  0  0  0  0  0
  141.1300   71.7140  226.5270 C   0  0  0  0  0  0  0  0  0  0  0  0
  140.5230   71.3550  225.3290 C   0  0  0  0  0  0  0  0  0  0  0  0
  140.5230   72.2330  224.3030 N   0  0  0  0  0  0  0  0  0  0  0  0
  138.0960   73.8310  222.6410 H   0  0  0  0  0  0  0  0  0  0  0  0
  139.8924   74.9918  220.5166 H   0  0  0  0  0  0  0  0  0  0  0  0
  138.3454   74.3021  219.9411 H   0  0  0  0  0  0  0  0  0  0  0  0
  140.1400   76.7777  223.7545 H   0  0  0  0  0  0  0  0  0  0  0  0
  140.2920   75.4674  222.5574 H   0  0  0  0  0  0  0  0  0  0  0  0
  142.0633   76.8746  221.9371 H   0  0  0  0  0  0  0  0  0  0  0  0
  140.7362   77.4771  220.8743 H   0  0  0  0  0  0  0  0  0  0  0  0
  141.4985   78.6165  223.5760 H   0  0  0  0  0  0  0  0  0  0  0  0
  141.9575   79.2755  221.9226 H   0  0  0  0  0  0  0  0  0  0  0  0
  140.2134   80.5716  222.8387 H   0  0  0  0  0  0  0  0  0  0  0  0
  139.6249   79.5444  221.4304 H   0  0  0  0  0  0  0  0  0  0  0  0
  139.2275   78.5537  224.1958 H   0  0  0  0  0  0  0  0  0  0  0  0
  138.1796   79.8923  223.5615 H   0  0  0  0  0  0  0  0  0  0  0  0
  137.1321   77.7236  223.1458 H   0  0  0  0  0  0  0  0  0  0  0  0
  137.6309   78.5099  221.5962 H   0  0  0  0  0  0  0  0  0  0  0  0
  138.8842   70.4094  222.0681 H   0  0  0  0  0  0  0  0  0  0  0  0
  138.8565   68.7727  223.9043 H   0  0  0  0  0  0  0  0  0  0  0  0
  139.4484   68.2092  226.1355 H   0  0  0  0  0  0  0  0  0  0  0  0
  141.5863   71.0496  228.5178 H   0  0  0  0  0  0  0  0  0  0  0  0
  141.6077   72.6969  226.6522 H   0  0  0  0  0  0  0  0  0  0  0  0
  1  2  2  0
  2  3  1  0
  3  4  1  0
  4  5  1  0
  5  6  2  0
  5  7  1  0
  7  8  1  0
  8  9  1  0
  9 10  1  0
 10 11  1  0
 11 12  1  0
 12 13  1  0
  2 14  1  0
 14 15  2  0
 15 16  1  0
 16 17  2  0
 17 18  1  0
 18 19  2  0
 19 20  1  0
 19 21  1  0
 21 22  2  0
 22 23  1  0
 23 24  2  0
 13  7  1  0
 24 14  1  0
 23 17  1  0
  3 25  1  0
  4 26  1  0
  4 27  1  0
  8 28  1  0
  8 29  1  0
  9 30  1  0
  9 31  1  0
 10 32  1  0
 10 33  1  0
 11 34  1  0
 11 35  1  0
 12 36  1  0
 12 37  1  0
 13 38  1  0
 13 39  1  0
 15 40  1  0
 16 41  1  0
 18 42  1  0
 21 43  1  0
 22 44  1  0
M  END
>  <smiles>  (32) 
O=C(NCC(=O)N1CCCCCC1)c1ccc2cc(Cl)ccc2n1

>  <score_type>  (32) 
oracle

>  <origin>  (32) 
autodockgpu

>  <m_score__min__energy>  (32) 
-5.8499999999999996

>  <m_primary>  (32) 
energy

>  <rmsd>  (32) 
3.254891965527008

>  <m_score__min__rmsd>  (32) 
3.254891965527008

>  <meeko>  (32) 
{"free_energy": -5.14, "intermolecular_energy": -7.83, "internal_energy": -0.97, "cluster_size": 14, "cluster_id": 3, "rank_in_cluster": 4}

>  <energy>  (32) 
-4.75

>  <cluster_rmsd>  (32) 
1.42

>  <cluster>  (32) 
3

$$$$

     RDKit          3D

 44 46  0  0  0  0  0  0  0  0999 V2000
  138.5150   72.5240  222.6290 O   0  0  0  0  0  0  0  0  0  0  0  0
  139.5790   71.8620  222.5630 C   0  0  0  0  0  0  0  0  0  0  0  0
  139.8750   70.7510  223.3950 N   0  0  0  0  0  0  0  0  0  0  0  0
  138.8870   70.3480  224.3910 C   0  0  0  0  0  0  0  0  0  0  0  0
  139.3980   69.1430  225.1000 C   0  0  0  0  0  0  0  0  0  0  0  0
  138.8210   68.0180  224.9310 O   0  0  0  0  0  0  0  0  0  0  0  0
  140.5240   69.2440  225.9640 N   0  0  0  0  0  0  0  0  0  0  0  0
  141.1570   70.5360  226.1360 C   0  0  0  0  0  0  0  0  0  0  0  0
  140.9780   70.9370  227.5830 C   0  0  0  0  0  0  0  0  0  0  0  0
  139.7230   70.3370  228.1420 C   0  0  0  0  0  0  0  0  0  0  0  0
  139.8680   68.9450  228.6600 C   0  0  0  0  0  0  0  0  0  0  0  0
  141.0310   68.1770  228.1090 C   0  0  0  0  0  0  0  0  0  0  0  0
  140.9300   68.0080  226.5990 C   0  0  0  0  0  0  0  0  0  0  0  0
  140.5760   72.2620  221.5620 C   0  0  0  0  0  0  0  0  0  0  0  0
  140.3810   73.3490  220.7440 C   0  0  0  0  0  0  0  0  0  0  0  0
  141.2760   73.7700  219.7920 C   0  0  0  0  0  0  0  0  0  0  0  0
  142.4460   73.0430  219.6610 C   0  0  0  0  0  0  0  0  0  0  0  0
  143.3570   73.4500  218.7110 C   0  0  0  0  0  0  0  0  0  0  0  0
  144.5160   72.7280  218.5820 C   0  0  0  0  0  0  0  0  0  0  0  0
  145.6870   73.2300  217.3790 Cl  0  0  0  0  0  0  0  0  0  0  0  0
  144.7320   71.6370  219.3910 C   0  0  0  0  0  0  0  0  0  0  0  0
  143.8170   71.2200  220.3520 C   0  0  0  0  0  0  0  0  0  0  0  0
  142.6420   71.9520  220.4820 C   0  0  0  0  0  0  0  0  0  0  0  0
  141.7320   71.5750  221.4050 N   0  0  0  0  0  0  0  0  0  0  0  0
  140.7850   70.2140  223.3100 H   0  0  0  0  0  0  0  0  0  0  0  0
  138.7314   71.1646  225.1114 H   0  0  0  0  0  0  0  0  0  0  0  0
  137.9286   70.1201  223.9015 H   0  0  0  0  0  0  0  0  0  0  0  0
  142.2279   70.4653  225.8950 H   0  0  0  0  0  0  0  0  0  0  0  0
  140.7048   71.2827  225.4668 H   0  0  0  0  0  0  0  0  0  0  0  0
  141.8402   70.5819  228.1665 H   0  0  0  0  0  0  0  0  0  0  0  0
  140.9058   72.0330  227.6424 H   0  0  0  0  0  0  0  0  0  0  0  0
  139.3783   70.9751  228.9691 H   0  0  0  0  0  0  0  0  0  0  0  0
  139.0090   70.2824  227.3070 H   0  0  0  0  0  0  0  0  0  0  0  0
  139.9827   68.9987  229.7527 H   0  0  0  0  0  0  0  0  0  0  0  0
  138.9655   68.4043  228.3390 H   0  0  0  0  0  0  0  0  0  0  0  0
  141.9594   68.7174  228.3459 H   0  0  0  0  0  0  0  0  0  0  0  0
  141.0292   67.1768  228.5668 H   0  0  0  0  0  0  0  0  0  0  0  0
  141.9115   67.7065  226.2044 H   0  0  0  0  0  0  0  0  0  0  0  0
  140.1744   67.2385  226.3825 H   0  0  0  0  0  0  0  0  0  0  0  0
  139.4471   73.9187  220.8596 H   0  0  0  0  0  0  0  0  0  0  0  0
  141.0719   74.6473  219.1607 H   0  0  0  0  0  0  0  0  0  0  0  0
  143.1610   74.3265  218.0759 H   0  0  0  0  0  0  0  0  0  0  0  0
  145.6675   71.0705  219.2731 H   0  0  0  0  0  0  0  0  0  0  0  0
  144.0157   70.3433  220.9859 H   0  0  0  0  0  0  0  0  0  0  0  0
  1  2  2  0
  2  3  1  0
  3  4  1  0
  4  5  1  0
  5  6  2  0
  5  7  1  0
  7  8  1  0
  8  9  1  0
  9 10  1  0
 10 11  1  0
 11 12  1  0
 12 13  1  0
  2 14  1  0
 14 15  2  0
 15 16  1  0
 16 17  2  0
 17 18  1  0
 18 19  2  0
 19 20  1  0
 19 21  1  0
 21 22  2  0
 22 23  1  0
 23 24  2  0
 13  7  1  0
 24 14  1  0
 23 17  1  0
  3 25  1  0
  4 26  1  0
  4 27  1  0
  8 28  1  0
  8 29  1  0
  9 30  1  0
  9 31  1  0
 10 32  1  0
 10 33  1  0
 11 34  1  0
 11 35  1  0
 12 36  1  0
 12 37  1  0
 13 38  1  0
 13 39  1  0
 15 40  1  0
 16 41  1  0
 18 42  1  0
 21 43  1  0
 22 44  1  0
M  END
>  <smiles>  (33) 
O=C(NCC(=O)N1CCCCCC1)c1ccc2cc(Cl)ccc2n1

>  <score_type>  (33) 
oracle

>  <origin>  (33) 
autodockgpu

>  <m_score__min__energy>  (33) 
-5.8499999999999996

>  <m_primary>  (33) 
energy

>  <rmsd>  (33) 
8.558522260407383

>  <m_score__min__rmsd>  (33) 
8.558522260407383

>  <meeko>  (33) 
{"free_energy": -4.43, "intermolecular_energy": -7.11, "internal_energy": -1.2, "cluster_size": 2, "cluster_id": 7, "rank_in_cluster": 2}

>  <energy>  (33) 
-4.52

>  <cluster_rmsd>  (33) 
1.2

>  <cluster>  (33) 
3

$$$$

     RDKit          3D

 44 46  0  0  0  0  0  0  0  0999 V2000
  139.0350   71.9890  221.7010 O   0  0  0  0  0  0  0  0  0  0  0  0
  139.8800   72.6830  222.3180 C   0  0  0  0  0  0  0  0  0  0  0  0
  140.4300   72.3290  223.5780 N   0  0  0  0  0  0  0  0  0  0  0  0
  139.9910   71.0840  224.2000 C   0  0  0  0  0  0  0  0  0  0  0  0
  140.3650   71.1200  225.6400 C   0  0  0  0  0  0  0  0  0  0  0  0
  141.2370   71.9590  226.0470 O   0  0  0  0  0  0  0  0  0  0  0  0
  139.7570   70.2230  226.5610 N   0  0  0  0  0  0  0  0  0  0  0  0
  138.7710   69.2810  226.0700 C   0  0  0  0  0  0  0  0  0  0  0  0
  139.5220   68.1330  225.4310 C   0  0  0  0  0  0  0  0  0  0  0  0
  140.6580   67.6980  226.3090 C   0  0  0  0  0  0  0  0  0  0  0  0
  140.4180   67.8580  227.7730 C   0  0  0  0  0  0  0  0  0  0  0  0
  140.9710   69.1130  228.3750 C   0  0  0  0  0  0  0  0  0  0  0  0
  140.2000   70.3490  227.9350 C   0  0  0  0  0  0  0  0  0  0  0  0
  140.3250   73.9370  221.6970 C   0  0  0  0  0  0  0  0  0  0  0  0
  141.0020   73.9480  220.5010 C   0  0  0  0  0  0  0  0  0  0  0  0
  141.4430   75.0870  219.8740 C   0  0  0  0  0  0  0  0  0  0  0  0
  141.1790   76.2940  220.4980 C   0  0  0  0  0  0  0  0  0  0  0  0
  141.6130   77.4480  219.8830 C   0  0  0  0  0  0  0  0  0  0  0  0
  141.3520   78.6420  220.5040 C   0  0  0  0  0  0  0  0  0  0  0  0
  141.8960   80.1220  219.7380 Cl  0  0  0  0  0  0  0  0  0  0  0  0
  140.6750   78.6540  221.7020 C   0  0  0  0  0  0  0  0  0  0  0  0
  140.2340   77.4930  222.3280 C   0  0  0  0  0  0  0  0  0  0  0  0
  140.4990   76.2820  221.6980 C   0  0  0  0  0  0  0  0  0  0  0  0
  140.0850   75.1350  222.2790 N   0  0  0  0  0  0  0  0  0  0  0  0
  141.1420   72.9410  224.0710 H   0  0  0  0  0  0  0  0  0  0  0  0
  138.8999   70.9845  224.1021 H   0  0  0  0  0  0  0  0  0  0  0  0
  140.4706   70.2258  223.7066 H   0  0  0  0  0  0  0  0  0  0  0  0
  138.1566   68.9107  226.9039 H   0  0  0  0  0  0  0  0  0  0  0  0
  138.1029   69.7623  225.3407 H   0  0  0  0  0  0  0  0  0  0  0  0
  138.8340   67.2876  225.2830 H   0  0  0  0  0  0  0  0  0  0  0  0
  139.9260   68.4655  224.4634 H   0  0  0  0  0  0  0  0  0  0  0  0
  140.8561   66.6345  226.1095 H   0  0  0  0  0  0  0  0  0  0  0  0
  141.5066   68.3530  226.0623 H   0  0  0  0  0  0  0  0  0  0  0  0
  139.3312   67.8489  227.9430 H   0  0  0  0  0  0  0  0  0  0  0  0
  140.9455   67.0259  228.2622 H   0  0  0  0  0  0  0  0  0  0  0  0
  140.9179   69.0337  229.4708 H   0  0  0  0  0  0  0  0  0  0  0  0
  142.0103   69.2230  228.0318 H   0  0  0  0  0  0  0  0  0  0  0  0
  139.3223   70.4760  228.5857 H   0  0  0  0  0  0  0  0  0  0  0  0
  140.8650   71.2220  228.0101 H   0  0  0  0  0  0  0  0  0  0  0  0
  141.2035   72.9821  220.0148 H   0  0  0  0  0  0  0  0  0  0  0  0
  141.9830   75.0423  218.9167 H   0  0  0  0  0  0  0  0  0  0  0  0
  142.1516   77.4124  218.9245 H   0  0  0  0  0  0  0  0  0  0  0  0
  140.4743   79.6219  222.1845 H   0  0  0  0  0  0  0  0  0  0  0  0
  139.6953   77.5313  223.2863 H   0  0  0  0  0  0  0  0  0  0  0  0
  1  2  2  0
  2  3  1  0
  3  4  1  0
  4  5  1  0
  5  6  2  0
  5  7  1  0
  7  8  1  0
  8  9  1  0
  9 10  1  0
 10 11  1  0
 11 12  1  0
 12 13  1  0
  2 14  1  0
 14 15  2  0
 15 16  1  0
 16 17  2  0
 17 18  1  0
 18 19  2  0
 19 20  1  0
 19 21  1  0
 21 22  2  0
 22 23  1  0
 23 24  2  0
 13  7  1  0
 24 14  1  0
 23 17  1  0
  3 25  1  0
  4 26  1  0
  4 27  1  0
  8 28  1  0
  8 29  1  0
  9 30  1  0
  9 31  1  0
 10 32  1  0
 10 33  1  0
 11 34  1  0
 11 35  1  0
 12 36  1  0
 12 37  1  0
 13 38  1  0
 13 39  1  0
 15 40  1  0
 16 41  1  0
 18 42  1  0
 21 43  1  0
 22 44  1  0
M  END
>  <smiles>  (34) 
O=C(NCC(=O)N1CCCCCC1)c1ccc2cc(Cl)ccc2n1

>  <score_type>  (34) 
oracle

>  <origin>  (34) 
autodockgpu

>  <m_score__min__energy>  (34) 
-5.8499999999999996

>  <m_primary>  (34) 
energy

>  <rmsd>  (34) 
8.92422279821052

>  <m_score__min__rmsd>  (34) 
8.92422279821052

>  <meeko>  (34) 
{"free_energy": -4.36, "intermolecular_energy": -7.04, "internal_energy": -1.44, "cluster_size": 6, "cluster_id": 2, "rank_in_cluster": 4}

>  <energy>  (34) 
-4.27

>  <cluster_rmsd>  (34) 
1.25

>  <cluster>  (34) 
3

$$$$

     RDKit          3D

 44 46  0  0  0  0  0  0  0  0999 V2000
  140.4290   71.1150  221.2650 O   0  0  0  0  0  0  0  0  0  0  0  0
  140.5340   72.1200  222.0090 C   0  0  0  0  0  0  0  0  0  0  0  0
  140.3830   72.0820  223.4200 N   0  0  0  0  0  0  0  0  0  0  0  0
  140.0850   70.8000  224.0500 C   0  0  0  0  0  0  0  0  0  0  0  0
  140.3860   70.9090  225.5040 C   0  0  0  0  0  0  0  0  0  0  0  0
  141.1970   71.8030  225.9170 O   0  0  0  0  0  0  0  0  0  0  0  0
  139.7730   70.0200  226.4310 N   0  0  0  0  0  0  0  0  0  0  0  0
  138.8560   69.0150  225.9310 C   0  0  0  0  0  0  0  0  0  0  0  0
  139.6280   67.7200  225.8130 C   0  0  0  0  0  0  0  0  0  0  0  0
  140.9700   67.8470  226.4690 C   0  0  0  0  0  0  0  0  0  0  0  0
  140.9430   67.8520  227.9610 C   0  0  0  0  0  0  0  0  0  0  0  0
  140.0950   68.9080  228.5890 C   0  0  0  0  0  0  0  0  0  0  0  0
  140.1410   70.2200  227.8170 C   0  0  0  0  0  0  0  0  0  0  0  0
  140.8340   73.4130  221.3810 C   0  0  0  0  0  0  0  0  0  0  0  0
  141.4020   73.4940  220.1320 C   0  0  0  0  0  0  0  0  0  0  0  0
  141.7050   74.6720  219.4950 C   0  0  0  0  0  0  0  0  0  0  0  0
  141.4100   75.8450  220.1670 C   0  0  0  0  0  0  0  0  0  0  0  0
  141.7060   77.0380  219.5430 C   0  0  0  0  0  0  0  0  0  0  0  0
  141.4150   78.2000  220.2110 C   0  0  0  0  0  0  0  0  0  0  0  0
  141.7830   79.7280  219.4350 Cl  0  0  0  0  0  0  0  0  0  0  0  0
  140.8460   78.1420  221.4620 C   0  0  0  0  0  0  0  0  0  0  0  0
  140.5440   76.9420  222.0970 C   0  0  0  0  0  0  0  0  0  0  0  0
  140.8400   75.7640  221.4200 C   0  0  0  0  0  0  0  0  0  0  0  0
  140.5610   74.5810  222.0080 N   0  0  0  0  0  0  0  0  0  0  0  0
  140.4790   72.9520  224.0180 H   0  0  0  0  0  0  0  0  0  0  0  0
  139.0222   70.5546  223.9081 H   0  0  0  0  0  0  0  0  0  0  0  0
  140.6955   70.0053  223.5965 H   0  0  0  0  0  0  0  0  0  0  0  0
  138.0164   68.8902  226.6307 H   0  0  0  0  0  0  0  0  0  0  0  0
  138.4455   69.3137  224.9552 H   0  0  0  0  0  0  0  0  0  0  0  0
  139.0607   66.9145  226.3023 H   0  0  0  0  0  0  0  0  0  0  0  0
  139.7734   67.4884  224.7475 H   0  0  0  0  0  0  0  0  0  0  0  0
  141.5917   67.0007  226.1415 H   0  0  0  0  0  0  0  0  0  0  0  0
  141.3703   68.8254  226.1648 H   0  0  0  0  0  0  0  0  0  0  0  0
  140.5676   66.8737  228.2956 H   0  0  0  0  0  0  0  0  0  0  0  0
  141.9739   68.0665  228.2791 H   0  0  0  0  0  0  0  0  0  0  0  0
  139.0544   68.5531  228.6219 H   0  0  0  0  0  0  0  0  0  0  0  0
  140.4865   69.0977  229.5993 H   0  0  0  0  0  0  0  0  0  0  0  0
  139.4397   70.9323  228.2762 H   0  0  0  0  0  0  0  0  0  0  0  0
  141.1680   70.6122  227.8537 H   0  0  0  0  0  0  0  0  0  0  0  0
  141.6287   72.5535  219.6085 H   0  0  0  0  0  0  0  0  0  0  0  0
  142.1621   74.6827  218.4945 H   0  0  0  0  0  0  0  0  0  0  0  0
  142.1609   77.0574  218.5417 H   0  0  0  0  0  0  0  0  0  0  0  0
  140.6203   79.0846  221.9822 H   0  0  0  0  0  0  0  0  0  0  0  0
  140.0879   76.9254  223.0978 H   0  0  0  0  0  0  0  0  0  0  0  0
  1  2  2  0
  2  3  1  0
  3  4  1  0
  4  5  1  0
  5  6  2  0
  5  7  1  0
  7  8  1  0
  8  9  1  0
  9 10  1  0
 10 11  1  0
 11 12  1  0
 12 13  1  0
  2 14  1  0
 14 15  2  0
 15 16  1  0
 16 17  2  0
 17 18  1  0
 18 19  2  0
 19 20  1  0
 19 21  1  0
 21 22  2  0
 22 23  1  0
 23 24  2  0
 13  7  1  0
 24 14  1  0
 23 17  1  0
  3 25  1  0
  4 26  1  0
  4 27  1  0
  8 28  1  0
  8 29  1  0
  9 30  1  0
  9 31  1  0
 10 32  1  0
 10 33  1  0
 11 34  1  0
 11 35  1  0
 12 36  1  0
 12 37  1  0
 13 38  1  0
 13 39  1  0
 15 40  1  0
 16 41  1  0
 18 42  1  0
 21 43  1  0
 22 44  1  0
M  END
>  <smiles>  (35) 
O=C(NCC(=O)N1CCCCCC1)c1ccc2cc(Cl)ccc2n1

>  <score_type>  (35) 
oracle

>  <origin>  (35) 
autodockgpu

>  <m_score__min__energy>  (35) 
-5.8499999999999996

>  <m_primary>  (35) 
energy

>  <rmsd>  (35) 
8.94397511373687

>  <m_score__min__rmsd>  (35) 
8.94397511373687

>  <meeko>  (35) 
{"free_energy": -4.38, "intermolecular_energy": -7.06, "internal_energy": -1.48, "cluster_size": 6, "cluster_id": 2, "rank_in_cluster": 3}

>  <energy>  (35) 
-5.13

>  <cluster_rmsd>  (35) 
0.0

>  <cluster>  (35) 
4

$$$$

     RDKit          3D

 44 46  0  0  0  0  0  0  0  0999 V2000
  139.9680   72.6060  223.2160 O   0  0  0  0  0  0  0  0  0  0  0  0
  140.2910   71.5560  222.6090 C   0  0  0  0  0  0  0  0  0  0  0  0
  139.8150   70.2630  222.9490 N   0  0  0  0  0  0  0  0  0  0  0  0
  138.8940   70.1390  224.0750 C   0  0  0  0  0  0  0  0  0  0  0  0
  139.3780   69.0470  224.9620 C   0  0  0  0  0  0  0  0  0  0  0  0
  138.7750   67.9220  224.9680 O   0  0  0  0  0  0  0  0  0  0  0  0
  140.5090   69.2530  225.8000 N   0  0  0  0  0  0  0  0  0  0  0  0
  141.1730   70.5410  225.7710 C   0  0  0  0  0  0  0  0  0  0  0  0
  140.3760   71.4790  226.6500 C   0  0  0  0  0  0  0  0  0  0  0  0
  140.2720   70.9320  228.0420 C   0  0  0  0  0  0  0  0  0  0  0  0
  141.2600   69.8640  228.3730 C   0  0  0  0  0  0  0  0  0  0  0  0
  140.8050   68.4640  228.1000 C   0  0  0  0  0  0  0  0  0  0  0  0
  140.8880   68.1200  226.6190 C   0  0  0  0  0  0  0  0  0  0  0  0
  141.2180   71.6750  221.4760 C   0  0  0  0  0  0  0  0  0  0  0  0
  141.1030   70.8770  220.3620 C   0  0  0  0  0  0  0  0  0  0  0  0
  141.9380   70.9420  219.2750 C   0  0  0  0  0  0  0  0  0  0  0  0
  142.9570   71.8780  219.3180 C   0  0  0  0  0  0  0  0  0  0  0  0
  143.8060   71.9580  218.2350 C   0  0  0  0  0  0  0  0  0  0  0  0
  144.8150   72.8850  218.2790 C   0  0  0  0  0  0  0  0  0  0  0  0
  145.9060   73.0040  216.9120 Cl  0  0  0  0  0  0  0  0  0  0  0  0
  144.9490   73.6940  219.3830 C   0  0  0  0  0  0  0  0  0  0  0  0
  144.0960   73.6190  220.4800 C   0  0  0  0  0  0  0  0  0  0  0  0
  143.0730   72.6780  220.4350 C   0  0  0  0  0  0  0  0  0  0  0  0
  142.2270   72.5780  221.4820 N   0  0  0  0  0  0  0  0  0  0  0  0
  140.1100   69.3980  222.4130 H   0  0  0  0  0  0  0  0  0  0  0  0
  138.8626   71.0854  224.6347 H   0  0  0  0  0  0  0  0  0  0  0  0
  137.8820   69.9084  223.7108 H   0  0  0  0  0  0  0  0  0  0  0  0
  142.1986   70.4443  226.1567 H   0  0  0  0  0  0  0  0  0  0  0  0
  141.2300   70.9262  224.7422 H   0  0  0  0  0  0  0  0  0  0  0  0
  140.8765   72.4580  226.6821 H   0  0  0  0  0  0  0  0  0  0  0  0
  139.3638   71.5844  226.2324 H   0  0  0  0  0  0  0  0  0  0  0  0
  140.4182   71.7632  228.7475 H   0  0  0  0  0  0  0  0  0  0  0  0
  139.2781   70.4667  228.1171 H   0  0  0  0  0  0  0  0  0  0  0  0
  142.1692   70.0472  227.7816 H   0  0  0  0  0  0  0  0  0  0  0  0
  141.4209   69.9249  229.4595 H   0  0  0  0  0  0  0  0  0  0  0  0
  141.4420   67.7665  228.6636 H   0  0  0  0  0  0  0  0  0  0  0  0
  139.7534   68.3798  228.4117 H   0  0  0  0  0  0  0  0  0  0  0  0
  141.9203   67.8291  226.3748 H   0  0  0  0  0  0  0  0  0  0  0  0
  140.1946   67.2914  226.4127 H   0  0  0  0  0  0  0  0  0  0  0  0
  140.2883   70.1382  220.3409 H   0  0  0  0  0  0  0  0  0  0  0  0
  141.8035   70.2793  218.4074 H   0  0  0  0  0  0  0  0  0  0  0  0
  143.6780   71.2992  217.3635 H   0  0  0  0  0  0  0  0  0  0  0  0
  145.7649   74.4316  219.3996 H   0  0  0  0  0  0  0  0  0  0  0  0
  144.2260   74.2793  221.3501 H   0  0  0  0  0  0  0  0  0  0  0  0
  1  2  2  0
  2  3  1  0
  3  4  1  0
  4  5  1  0
  5  6  2  0
  5  7  1  0
  7  8  1  0
  8  9  1  0
  9 10  1  0
 10 11  1  0
 11 12  1  0
 12 13  1  0
  2 14  1  0
 14 15  2  0
 15 16  1  0
 16 17  2  0
 17 18  1  0
 18 19  2  0
 19 20  1  0
 19 21  1  0
 21 22  2  0
 22 23  1  0
 23 24  2  0
 13  7  1  0
 24 14  1  0
 23 17  1  0
  3 25  1  0
  4 26  1  0
  4 27  1  0
  8 28  1  0
  8 29  1  0
  9 30  1  0
  9 31  1  0
 10 32  1  0
 10 33  1  0
 11 34  1  0
 11 35  1  0
 12 36  1  0
 12 37  1  0
 13 38  1  0
 13 39  1  0
 15 40  1  0
 16 41  1  0
 18 42  1  0
 21 43  1  0
 22 44  1  0
M  END
>  <smiles>  (36) 
O=C(NCC(=O)N1CCCCCC1)c1ccc2cc(Cl)ccc2n1

>  <score_type>  (36) 
oracle

>  <origin>  (36) 
autodockgpu

>  <m_score__min__energy>  (36) 
-5.8499999999999996

>  <m_primary>  (36) 
energy

>  <rmsd>  (36) 
8.327027525287896

>  <m_score__min__rmsd>  (36) 
8.327027525287896

>  <meeko>  (36) 
{"free_energy": -4.71, "intermolecular_energy": -7.39, "internal_energy": -1.02, "cluster_size": 2, "cluster_id": 7, "rank_in_cluster": 1}

>  <energy>  (36) 
-5.09

>  <cluster_rmsd>  (36) 
0.67

>  <cluster>  (36) 
4

$$$$

     RDKit          3D

 44 46  0  0  0  0  0  0  0  0999 V2000
  140.8260   72.6680  220.9780 O   0  0  0  0  0  0  0  0  0  0  0  0
  140.0930   72.8780  221.9740 C   0  0  0  0  0  0  0  0  0  0  0  0
  139.2450   74.0080  222.1120 N   0  0  0  0  0  0  0  0  0  0  0  0
  139.2200   74.9900  221.0320 C   0  0  0  0  0  0  0  0  0  0  0  0
  140.3570   75.9310  221.2250 C   0  0  0  0  0  0  0  0  0  0  0  0
  141.4690   75.7080  220.6400 O   0  0  0  0  0  0  0  0  0  0  0  0
  140.2070   77.0740  222.0580 N   0  0  0  0  0  0  0  0  0  0  0  0
  138.9320   77.3010  222.7090 C   0  0  0  0  0  0  0  0  0  0  0  0
  138.2570   78.4500  221.9930 C   0  0  0  0  0  0  0  0  0  0  0  0
  138.6960   79.7600  222.5750 C   0  0  0  0  0  0  0  0  0  0  0  0
  140.1410   80.0810  222.3840 C   0  0  0  0  0  0  0  0  0  0  0  0
  141.0970   79.1320  223.0440 C   0  0  0  0  0  0  0  0  0  0  0  0
  141.3790   77.9170  222.1710 C   0  0  0  0  0  0  0  0  0  0  0  0
  140.1140   71.8940  223.0640 C   0  0  0  0  0  0  0  0  0  0  0  0
  139.6300   70.6190  222.8940 C   0  0  0  0  0  0  0  0  0  0  0  0
  139.6240   69.6570  223.8740 C   0  0  0  0  0  0  0  0  0  0  0  0
  140.1430   70.0100  225.1070 C   0  0  0  0  0  0  0  0  0  0  0  0
  140.1450   69.0580  226.1030 C   0  0  0  0  0  0  0  0  0  0  0  0
  140.6590   69.4100  227.3250 C   0  0  0  0  0  0  0  0  0  0  0  0
  140.6700   68.2140  228.6060 Cl  0  0  0  0  0  0  0  0  0  0  0  0
  141.1480   70.6810  227.5180 C   0  0  0  0  0  0  0  0  0  0  0  0
  141.1490   71.6470  226.5160 C   0  0  0  0  0  0  0  0  0  0  0  0
  140.6280   71.2900  225.2780 C   0  0  0  0  0  0  0  0  0  0  0  0
  140.6130   72.2030  224.2830 N   0  0  0  0  0  0  0  0  0  0  0  0
  138.6390   74.1530  222.9690 H   0  0  0  0  0  0  0  0  0  0  0  0
  139.3212   74.4791  220.0631 H   0  0  0  0  0  0  0  0  0  0  0  0
  138.2679   75.5407  221.0444 H   0  0  0  0  0  0  0  0  0  0  0  0
  138.3087   76.3972  222.6407 H   0  0  0  0  0  0  0  0  0  0  0  0
  139.0760   77.5375  223.7736 H   0  0  0  0  0  0  0  0  0  0  0  0
  138.5246   78.4196  220.9265 H   0  0  0  0  0  0  0  0  0  0  0  0
  137.1678   78.3540  222.1128 H   0  0  0  0  0  0  0  0  0  0  0  0
  138.1037   80.5585  222.1042 H   0  0  0  0  0  0  0  0  0  0  0  0
  138.5386   79.6828  223.6609 H   0  0  0  0  0  0  0  0  0  0  0  0
  140.3505   80.0794  221.3041 H   0  0  0  0  0  0  0  0  0  0  0  0
  140.3028   81.0591  222.8606 H   0  0  0  0  0  0  0  0  0  0  0  0
  142.0433   79.6578  223.2391 H   0  0  0  0  0  0  0  0  0  0  0  0
  140.6395   78.7816  223.9810 H   0  0  0  0  0  0  0  0  0  0  0  0
  141.6757   78.2564  221.1676 H   0  0  0  0  0  0  0  0  0  0  0  0
  142.1868   77.3325  222.6355 H   0  0  0  0  0  0  0  0  0  0  0  0
  139.2207   70.3516  221.9086 H   0  0  0  0  0  0  0  0  0  0  0  0
  139.2239   68.6496  223.6868 H   0  0  0  0  0  0  0  0  0  0  0  0
  139.7472   68.0482  225.9240 H   0  0  0  0  0  0  0  0  0  0  0  0
  141.5552   70.9450  228.5052 H   0  0  0  0  0  0  0  0  0  0  0  0
  141.5476   72.6561  226.6973 H   0  0  0  0  0  0  0  0  0  0  0  0
  1  2  2  0
  2  3  1  0
  3  4  1  0
  4  5  1  0
  5  6  2  0
  5  7  1  0
  7  8  1  0
  8  9  1  0
  9 10  1  0
 10 11  1  0
 11 12  1  0
 12 13  1  0
  2 14  1  0
 14 15  2  0
 15 16  1  0
 16 17  2  0
 17 18  1  0
 18 19  2  0
 19 20  1  0
 19 21  1  0
 21 22  2  0
 22 23  1  0
 23 24  2  0
 13  7  1  0
 24 14  1  0
 23 17  1  0
  3 25  1  0
  4 26  1  0
  4 27  1  0
  8 28  1  0
  8 29  1  0
  9 30  1  0
  9 31  1  0
 10 32  1  0
 10 33  1  0
 11 34  1  0
 11 35  1  0
 12 36  1  0
 12 37  1  0
 13 38  1  0
 13 39  1  0
 15 40  1  0
 16 41  1  0
 18 42  1  0
 21 43  1  0
 22 44  1  0
M  END
>  <smiles>  (37) 
O=C(NCC(=O)N1CCCCCC1)c1ccc2cc(Cl)ccc2n1

>  <score_type>  (37) 
oracle

>  <origin>  (37) 
autodockgpu

>  <m_score__min__energy>  (37) 
-5.8499999999999996

>  <m_primary>  (37) 
energy

>  <rmsd>  (37) 
3.3457168089385223

>  <m_score__min__rmsd>  (37) 
3.3457168089385223

>  <meeko>  (37) 
{"free_energy": -5.29, "intermolecular_energy": -7.98, "internal_energy": -0.92, "cluster_size": 14, "cluster_id": 3, "rank_in_cluster": 1}

>  <energy>  (37) 
-4.95

>  <cluster_rmsd>  (37) 
0.15

>  <cluster>  (37) 
4

$$$$

     RDKit          3D

 44 46  0  0  0  0  0  0  0  0999 V2000
  140.5320   73.4420  220.4130 O   0  0  0  0  0  0  0  0  0  0  0  0
  140.0350   73.5690  221.5580 C   0  0  0  0  0  0  0  0  0  0  0  0
  139.6270   74.8100  222.1130 N   0  0  0  0  0  0  0  0  0  0  0  0
  139.7940   76.0170  221.3080 C   0  0  0  0  0  0  0  0  0  0  0  0
  139.3300   77.1830  222.1080 C   0  0  0  0  0  0  0  0  0  0  0  0
  138.4020   77.0300  222.9700 O   0  0  0  0  0  0  0  0  0  0  0  0
  139.9170   78.4640  221.9120 N   0  0  0  0  0  0  0  0  0  0  0  0
  140.9690   78.6070  220.9250 C   0  0  0  0  0  0  0  0  0  0  0  0
  141.8780   79.7210  221.3930 C   0  0  0  0  0  0  0  0  0  0  0  0
  142.5410   79.3500  222.6860 C   0  0  0  0  0  0  0  0  0  0  0  0
  141.6040   79.0510  223.8090 C   0  0  0  0  0  0  0  0  0  0  0  0
  140.3690   79.9020  223.8430 C   0  0  0  0  0  0  0  0  0  0  0  0
  139.3850   79.5230  222.7450 C   0  0  0  0  0  0  0  0  0  0  0  0
  139.8650   72.3590  222.3720 C   0  0  0  0  0  0  0  0  0  0  0  0
  139.2300   71.2430  221.8810 C   0  0  0  0  0  0  0  0  0  0  0  0
  139.0410   70.0850  222.5940 C   0  0  0  0  0  0  0  0  0  0  0  0
  139.5290   70.0550  223.8890 C   0  0  0  0  0  0  0  0  0  0  0  0
  139.3500   68.9010  224.6200 C   0  0  0  0  0  0  0  0  0  0  0  0
  139.8340   68.8730  225.9030 C   0  0  0  0  0  0  0  0  0  0  0  0
  139.6150   67.4140  226.8500 Cl  0  0  0  0  0  0  0  0  0  0  0  0
  140.4730   69.9780  226.4140 C   0  0  0  0  0  0  0  0  0  0  0  0
  140.6580   71.1470  225.6820 C   0  0  0  0  0  0  0  0  0  0  0  0
  140.1670   71.1750  224.3810 C   0  0  0  0  0  0  0  0  0  0  0  0
  140.3290   72.2930  223.6420 N   0  0  0  0  0  0  0  0  0  0  0  0
  139.2110   74.8800  223.0850 H   0  0  0  0  0  0  0  0  0  0  0  0
  140.8546   76.1448  221.0457 H   0  0  0  0  0  0  0  0  0  0  0  0
  139.2074   75.9372  220.3809 H   0  0  0  0  0  0  0  0  0  0  0  0
  141.5365   77.6684  220.8414 H   0  0  0  0  0  0  0  0  0  0  0  0
  140.5459   78.8396  219.9366 H   0  0  0  0  0  0  0  0  0  0  0  0
  142.6492   79.9035  220.6301 H   0  0  0  0  0  0  0  0  0  0  0  0
  141.2767   80.6288  221.5493 H   0  0  0  0  0  0  0  0  0  0  0  0
  143.1589   78.4572  222.5095 H   0  0  0  0  0  0  0  0  0  0  0  0
  143.1250   80.2288  222.9968 H   0  0  0  0  0  0  0  0  0  0  0  0
  141.2925   77.9995  223.7237 H   0  0  0  0  0  0  0  0  0  0  0  0
  142.1542   79.2675  224.7366 H   0  0  0  0  0  0  0  0  0  0  0  0
  139.8777   79.7761  224.8191 H   0  0  0  0  0  0  0  0  0  0  0  0
  140.6719   80.9471  223.6819 H   0  0  0  0  0  0  0  0  0  0  0  0
  138.4466   79.1808  223.2057 H   0  0  0  0  0  0  0  0  0  0  0  0
  139.2061   80.4070  222.1152 H   0  0  0  0  0  0  0  0  0  0  0  0
  138.8485   71.2802  220.8499 H   0  0  0  0  0  0  0  0  0  0  0  0
  138.5242   69.2187  222.1552 H   0  0  0  0  0  0  0  0  0  0  0  0
  138.8353   68.0299  224.1884 H   0  0  0  0  0  0  0  0  0  0  0  0
  140.8541   69.9362  227.4450 H   0  0  0  0  0  0  0  0  0  0  0  0
  141.1733   72.0165  226.1162 H   0  0  0  0  0  0  0  0  0  0  0  0
  1  2  2  0
  2  3  1  0
  3  4  1  0
  4  5  1  0
  5  6  2  0
  5  7  1  0
  7  8  1  0
  8  9  1  0
  9 10  1  0
 10 11  1  0
 11 12  1  0
 12 13  1  0
  2 14  1  0
 14 15  2  0
 15 16  1  0
 16 17  2  0
 17 18  1  0
 18 19  2  0
 19 20  1  0
 19 21  1  0
 21 22  2  0
 22 23  1  0
 23 24  2  0
 13  7  1  0
 24 14  1  0
 23 17  1  0
  3 25  1  0
  4 26  1  0
  4 27  1  0
  8 28  1  0
  8 29  1  0
  9 30  1  0
  9 31  1  0
 10 32  1  0
 10 33  1  0
 11 34  1  0
 11 35  1  0
 12 36  1  0
 12 37  1  0
 13 38  1  0
 13 39  1  0
 15 40  1  0
 16 41  1  0
 18 42  1  0
 21 43  1  0
 22 44  1  0
M  END
>  <smiles>  (38) 
O=C(NCC(=O)N1CCCCCC1)c1ccc2cc(Cl)ccc2n1

>  <score_type>  (38) 
oracle

>  <origin>  (38) 
autodockgpu

>  <m_score__min__energy>  (38) 
-5.8499999999999996

>  <m_primary>  (38) 
energy

>  <rmsd>  (38) 
3.8662138347620765

>  <m_score__min__rmsd>  (38) 
3.8662138347620765

>  <meeko>  (38) 
{"free_energy": -4.9, "intermolecular_energy": -7.58, "internal_energy": -1.41, "cluster_size": 14, "cluster_id": 3, "rank_in_cluster": 8}

>  <energy>  (38) 
-4.87

>  <cluster_rmsd>  (38) 
1.39

>  <cluster>  (38) 
4

$$$$

     RDKit          3D

 44 46  0  0  0  0  0  0  0  0999 V2000
  139.6470   71.7320  220.7080 O   0  0  0  0  0  0  0  0  0  0  0  0
  139.7180   72.2800  221.8340 C   0  0  0  0  0  0  0  0  0  0  0  0
  139.7220   73.6850  222.0340 N   0  0  0  0  0  0  0  0  0  0  0  0
  139.6410   74.5520  220.8630 C   0  0  0  0  0  0  0  0  0  0  0  0
  140.9480   75.2450  220.6980 C   0  0  0  0  0  0  0  0  0  0  0  0
  141.0890   76.4390  221.1280 O   0  0  0  0  0  0  0  0  0  0  0  0
  142.0360   74.5820  220.0650 N   0  0  0  0  0  0  0  0  0  0  0  0
  141.8440   73.2270  219.5880 C   0  0  0  0  0  0  0  0  0  0  0  0
  142.7550   72.3310  220.3980 C   0  0  0  0  0  0  0  0  0  0  0  0
  144.0870   72.1900  219.7230 C   0  0  0  0  0  0  0  0  0  0  0  0
  144.8460   73.4650  219.5590 C   0  0  0  0  0  0  0  0  0  0  0  0
  144.4480   74.5680  220.4910 C   0  0  0  0  0  0  0  0  0  0  0  0
  143.2560   75.3550  219.9610 C   0  0  0  0  0  0  0  0  0  0  0  0
  139.8000   71.4140  223.0170 C   0  0  0  0  0  0  0  0  0  0  0  0
  139.3130   70.1280  223.0050 C   0  0  0  0  0  0  0  0  0  0  0  0
  139.3610   69.2730  224.0780 C   0  0  0  0  0  0  0  0  0  0  0  0
  139.9420   69.7510  225.2390 C   0  0  0  0  0  0  0  0  0  0  0  0
  140.0000   68.9070  226.3270 C   0  0  0  0  0  0  0  0  0  0  0  0
  140.5750   69.3820  227.4770 C   0  0  0  0  0  0  0  0  0  0  0  0
  140.6590   68.3250  228.8720 Cl  0  0  0  0  0  0  0  0  0  0  0  0
  141.0690   70.6660  227.5120 C   0  0  0  0  0  0  0  0  0  0  0  0
  141.0140   71.5230  226.4180 C   0  0  0  0  0  0  0  0  0  0  0  0
  140.4310   71.0410  225.2510 C   0  0  0  0  0  0  0  0  0  0  0  0
  140.3600   71.8470  224.1700 N   0  0  0  0  0  0  0  0  0  0  0  0
  139.7830   74.1140  223.0020 H   0  0  0  0  0  0  0  0  0  0  0  0
  139.4252   73.9488  219.9688 H   0  0  0  0  0  0  0  0  0  0  0  0
  138.8366   75.2905  220.9954 H   0  0  0  0  0  0  0  0  0  0  0  0
  140.7960   72.9236  219.7282 H   0  0  0  0  0  0  0  0  0  0  0  0
  142.0797   73.1547  218.5160 H   0  0  0  0  0  0  0  0  0  0  0  0
  142.8996   72.7691  221.3966 H   0  0  0  0  0  0  0  0  0  0  0  0
  142.2922   71.3368  220.4841 H   0  0  0  0  0  0  0  0  0  0  0  0
  144.7017   71.5007  220.3205 H   0  0  0  0  0  0  0  0  0  0  0  0
  143.8810   71.8205  218.7076 H   0  0  0  0  0  0  0  0  0  0  0  0
  145.9123   73.2497  219.7221 H   0  0  0  0  0  0  0  0  0  0  0  0
  144.6210   73.8261  218.5446 H   0  0  0  0  0  0  0  0  0  0  0  0
  144.1819   74.1321  221.4653 H   0  0  0  0  0  0  0  0  0  0  0  0
  145.2987   75.2589  220.5856 H   0  0  0  0  0  0  0  0  0  0  0  0
  143.1467   76.2800  220.5462 H   0  0  0  0  0  0  0  0  0  0  0  0
  143.4336   75.5884  218.9008 H   0  0  0  0  0  0  0  0  0  0  0  0
  138.8551   69.7604  222.0749 H   0  0  0  0  0  0  0  0  0  0  0  0
  138.9552   68.2524  224.0173 H   0  0  0  0  0  0  0  0  0  0  0  0
  139.5976   67.8846  226.2741 H   0  0  0  0  0  0  0  0  0  0  0  0
  141.5264   71.0296  228.4440 H   0  0  0  0  0  0  0  0  0  0  0  0
  141.4170   72.5450  226.4738 H   0  0  0  0  0  0  0  0  0  0  0  0
  1  2  2  0
  2  3  1  0
  3  4  1  0
  4  5  1  0
  5  6  2  0
  5  7  1  0
  7  8  1  0
  8  9  1  0
  9 10  1  0
 10 11  1  0
 11 12  1  0
 12 13  1  0
  2 14  1  0
 14 15  2  0
 15 16  1  0
 16 17  2  0
 17 18  1  0
 18 19  2  0
 19 20  1  0
 19 21  1  0
 21 22  2  0
 22 23  1  0
 23 24  2  0
 13  7  1  0
 24 14  1  0
 23 17  1  0
  3 25  1  0
  4 26  1  0
  4 27  1  0
  8 28  1  0
  8 29  1  0
  9 30  1  0
  9 31  1  0
 10 32  1  0
 10 33  1  0
 11 34  1  0
 11 35  1  0
 12 36  1  0
 12 37  1  0
 13 38  1  0
 13 39  1  0
 15 40  1  0
 16 41  1  0
 18 42  1  0
 21 43  1  0
 22 44  1  0
M  END
>  <smiles>  (39) 
O=C(NCC(=O)N1CCCCCC1)c1ccc2cc(Cl)ccc2n1

>  <score_type>  (39) 
oracle

>  <origin>  (39) 
autodockgpu

>  <m_score__min__energy>  (39) 
-5.8499999999999996

>  <m_primary>  (39) 
energy

>  <rmsd>  (39) 
3.0420498207104343

>  <m_score__min__rmsd>  (39) 
3.0420498207104343

>  <meeko>  (39) 
{"free_energy": -5.09, "intermolecular_energy": -7.78, "internal_energy": -1.31, "cluster_size": 6, "cluster_id": 4, "rank_in_cluster": 2}

>  <energy>  (39) 
-4.42

>  <cluster_rmsd>  (39) 
1.54

>  <cluster>  (39) 
4

$$$$

     RDKit          3D

 44 46  0  0  0  0  0  0  0  0999 V2000
  139.8370   69.8780  222.4230 O   0  0  0  0  0  0  0  0  0  0  0  0
  139.4390   71.0220  222.7520 C   0  0  0  0  0  0  0  0  0  0  0  0
  138.4420   71.2640  223.7330 N   0  0  0  0  0  0  0  0  0  0  0  0
  137.8380   70.1160  224.4030 C   0  0  0  0  0  0  0  0  0  0  0  0
  138.9280   69.2560  224.9400 C   0  0  0  0  0  0  0  0  0  0  0  0
  138.9070   67.9990  224.7220 O   0  0  0  0  0  0  0  0  0  0  0  0
  139.9900   69.8320  225.6910 N   0  0  0  0  0  0  0  0  0  0  0  0
  139.9860   71.2630  225.9210 C   0  0  0  0  0  0  0  0  0  0  0  0
  141.2490   71.6010  226.6810 C   0  0  0  0  0  0  0  0  0  0  0  0
  141.1200   71.1960  228.1200 C   0  0  0  0  0  0  0  0  0  0  0  0
  140.3550   69.9360  228.3510 C   0  0  0  0  0  0  0  0  0  0  0  0
  140.9080   68.7210  227.6720 C   0  0  0  0  0  0  0  0  0  0  0  0
  140.9930   68.8980  226.1620 C   0  0  0  0  0  0  0  0  0  0  0  0
  140.0430   72.1800  222.0810 C   0  0  0  0  0  0  0  0  0  0  0  0
  140.9740   72.0290  221.0810 C   0  0  0  0  0  0  0  0  0  0  0  0
  141.5730   73.0720  220.4190 C   0  0  0  0  0  0  0  0  0  0  0  0
  141.2020   74.3520  220.7930 C   0  0  0  0  0  0  0  0  0  0  0  0
  141.7920   75.4120  220.1390 C   0  0  0  0  0  0  0  0  0  0  0  0
  141.4250   76.6790  220.5120 C   0  0  0  0  0  0  0  0  0  0  0  0
  142.1630   78.0420  219.6930 Cl  0  0  0  0  0  0  0  0  0  0  0  0
  140.4940   76.8540  221.5100 C   0  0  0  0  0  0  0  0  0  0  0  0
  139.8950   75.7880  222.1740 C   0  0  0  0  0  0  0  0  0  0  0  0
  140.2680   74.5030  221.7960 C   0  0  0  0  0  0  0  0  0  0  0  0
  139.7060   73.4460  222.4200 N   0  0  0  0  0  0  0  0  0  0  0  0
  138.1300   72.2450  223.9860 H   0  0  0  0  0  0  0  0  0  0  0  0
  137.1978   70.4622  225.2278 H   0  0  0  0  0  0  0  0  0  0  0  0
  137.2227   69.5451  223.6920 H   0  0  0  0  0  0  0  0  0  0  0  0
  139.9703   71.7984  224.9602 H   0  0  0  0  0  0  0  0  0  0  0  0
  139.0957   71.5625  226.4934 H   0  0  0  0  0  0  0  0  0  0  0  0
  142.0976   71.0665  226.2291 H   0  0  0  0  0  0  0  0  0  0  0  0
  141.4150   72.6872  226.6304 H   0  0  0  0  0  0  0  0  0  0  0  0
  142.1321   71.0614  228.5293 H   0  0  0  0  0  0  0  0  0  0  0  0
  140.5529   71.9971  228.6167 H   0  0  0  0  0  0  0  0  0  0  0  0
  140.3371   69.7423  229.4337 H   0  0  0  0  0  0  0  0  0  0  0  0
  139.3574   70.1006  227.9176 H   0  0  0  0  0  0  0  0  0  0  0  0
  141.9170   68.5241  228.0635 H   0  0  0  0  0  0  0  0  0  0  0  0
  140.2295   67.8798  227.8770 H   0  0  0  0  0  0  0  0  0  0  0  0
  141.9909   69.2796  225.9002 H   0  0  0  0  0  0  0  0  0  0  0  0
  140.8155   67.9231  225.6845 H   0  0  0  0  0  0  0  0  0  0  0  0
  141.2575   71.0061  220.7924 H   0  0  0  0  0  0  0  0  0  0  0  0
  142.3153   72.8981  219.6261 H   0  0  0  0  0  0  0  0  0  0  0  0
  142.5335   75.2467  219.3434 H   0  0  0  0  0  0  0  0  0  0  0  0
  140.2118   77.8784  221.7945 H   0  0  0  0  0  0  0  0  0  0  0  0
  139.1534   75.9558  222.9689 H   0  0  0  0  0  0  0  0  0  0  0  0
  1  2  2  0
  2  3  1  0
  3  4  1  0
  4  5  1  0
  5  6  2  0
  5  7  1  0
  7  8  1  0
  8  9  1  0
  9 10  1  0
 10 11  1  0
 11 12  1  0
 12 13  1  0
  2 14  1  0
 14 15  2  0
 15 16  1  0
 16 17  2  0
 17 18  1  0
 18 19  2  0
 19 20  1  0
 19 21  1  0
 21 22  2  0
 22 23  1  0
 23 24  2  0
 13  7  1  0
 24 14  1  0
 23 17  1  0
  3 25  1  0
  4 26  1  0
  4 27  1  0
  8 28  1  0
  8 29  1  0
  9 30  1  0
  9 31  1  0
 10 32  1  0
 10 33  1  0
 11 34  1  0
 11 35  1  0
 12 36  1  0
 12 37  1  0
 13 38  1  0
 13 39  1  0
 15 40  1  0
 16 41  1  0
 18 42  1  0
 21 43  1  0
 22 44  1  0
M  END
>  <smiles>  (40) 
O=C(NCC(=O)N1CCCCCC1)c1ccc2cc(Cl)ccc2n1

>  <score_type>  (40) 
oracle

>  <origin>  (40) 
autodockgpu

>  <m_score__min__energy>  (40) 
-5.8499999999999996

>  <m_primary>  (40) 
energy

>  <rmsd>  (40) 
7.945661424097617

>  <m_score__min__rmsd>  (40) 
7.945661424097617

>  <meeko>  (40) 
{"free_energy": -5.43, "intermolecular_energy": -8.11, "internal_energy": -1.09, "cluster_size": 6, "cluster_id": 2, "rank_in_cluster": 1}

>  <energy>  (40) 
-4.26

>  <cluster_rmsd>  (40) 
1.13

>  <cluster>  (40) 
4

$$$$

     RDKit          3D

 44 46  0  0  0  0  0  0  0  0999 V2000
  140.8880   73.7260  220.6370 O   0  0  0  0  0  0  0  0  0  0  0  0
  140.1890   73.8220  221.6750 C   0  0  0  0  0  0  0  0  0  0  0  0
  139.6080   75.0340  222.1300 N   0  0  0  0  0  0  0  0  0  0  0  0
  139.8330   76.2470  221.3490 C   0  0  0  0  0  0  0  0  0  0  0  0
  139.2960   77.4050  222.1140 C   0  0  0  0  0  0  0  0  0  0  0  0
  138.4300   77.2120  223.0320 O   0  0  0  0  0  0  0  0  0  0  0  0
  139.7450   78.7240  221.8250 N   0  0  0  0  0  0  0  0  0  0  0  0
  140.7280   78.9120  220.7770 C   0  0  0  0  0  0  0  0  0  0  0  0
  141.8030   79.8240  221.3250 C   0  0  0  0  0  0  0  0  0  0  0  0
  142.2900   79.3230  222.6520 C   0  0  0  0  0  0  0  0  0  0  0  0
  141.3570   79.5580  223.7930 C   0  0  0  0  0  0  0  0  0  0  0  0
  140.2070   80.4660  223.4830 C   0  0  0  0  0  0  0  0  0  0  0  0
  139.1530   79.7710  222.6320 C   0  0  0  0  0  0  0  0  0  0  0  0
  139.9600   72.6060  222.4640 C   0  0  0  0  0  0  0  0  0  0  0  0
  139.0340   71.6640  222.0850 C   0  0  0  0  0  0  0  0  0  0  0  0
  138.7760   70.5090  222.7820 C   0  0  0  0  0  0  0  0  0  0  0  0
  139.5050   70.2940  223.9380 C   0  0  0  0  0  0  0  0  0  0  0  0
  139.2600   69.1410  224.6510 C   0  0  0  0  0  0  0  0  0  0  0  0
  139.9830   68.9300  225.7970 C   0  0  0  0  0  0  0  0  0  0  0  0
  139.6870   67.4690  226.7190 Cl  0  0  0  0  0  0  0  0  0  0  0  0
  140.9150   69.8600  226.1960 C   0  0  0  0  0  0  0  0  0  0  0  0
  141.1670   71.0260  225.4810 C   0  0  0  0  0  0  0  0  0  0  0  0
  140.4340   71.2400  224.3190 C   0  0  0  0  0  0  0  0  0  0  0  0
  140.6530   72.3620  223.6010 N   0  0  0  0  0  0  0  0  0  0  0  0
  139.0230   75.0780  223.0130 H   0  0  0  0  0  0  0  0  0  0  0  0
  140.9108   76.3833  221.1768 H   0  0  0  0  0  0  0  0  0  0  0  0
  139.3260   76.1693  220.3759 H   0  0  0  0  0  0  0  0  0  0  0  0
  141.1652   77.9433  220.4932 H   0  0  0  0  0  0  0  0  0  0  0  0
  140.2633   79.3524  219.8825 H   0  0  0  0  0  0  0  0  0  0  0  0
  142.6456   79.8558  220.6186 H   0  0  0  0  0  0  0  0  0  0  0  0
  141.3815   80.8313  221.4577 H   0  0  0  0  0  0  0  0  0  0  0  0
  142.4597   78.2395  222.5669 H   0  0  0  0  0  0  0  0  0  0  0  0
  143.2046   79.8903  222.8793 H   0  0  0  0  0  0  0  0  0  0  0  0
  140.9507   78.5860  224.1094 H   0  0  0  0  0  0  0  0  0  0  0  0
  141.9446   80.0570  224.5777 H   0  0  0  0  0  0  0  0  0  0  0  0
  139.7452   80.7911  224.4270 H   0  0  0  0  0  0  0  0  0  0  0  0
  140.5928   81.3258  222.9157 H   0  0  0  0  0  0  0  0  0  0  0  0
  138.3917   79.3295  223.2919 H   0  0  0  0  0  0  0  0  0  0  0  0
  138.6975   80.5148  221.9617 H   0  0  0  0  0  0  0  0  0  0  0  0
  138.4621   71.8469  221.1633 H   0  0  0  0  0  0  0  0  0  0  0  0
  138.0224   69.7862  222.4361 H   0  0  0  0  0  0  0  0  0  0  0  0
  138.5084   68.4129  224.3119 H   0  0  0  0  0  0  0  0  0  0  0  0
  141.4843   69.6737  227.1186 H   0  0  0  0  0  0  0  0  0  0  0  0
  141.9190   71.7526  225.8224 H   0  0  0  0  0  0  0  0  0  0  0  0
  1  2  2  0
  2  3  1  0
  3  4  1  0
  4  5  1  0
  5  6  2  0
  5  7  1  0
  7  8  1  0
  8  9  1  0
  9 10  1  0
 10 11  1  0
 11 12  1  0
 12 13  1  0
  2 14  1  0
 14 15  2  0
 15 16  1  0
 16 17  2  0
 17 18  1  0
 18 19  2  0
 19 20  1  0
 19 21  1  0
 21 22  2  0
 22 23  1  0
 23 24  2  0
 13  7  1  0
 24 14  1  0
 23 17  1  0
  3 25  1  0
  4 26  1  0
  4 27  1  0
  8 28  1  0
  8 29  1  0
  9 30  1  0
  9 31  1  0
 10 32  1  0
 10 33  1  0
 11 34  1  0
 11 35  1  0
 12 36  1  0
 12 37  1  0
 13 38  1  0
 13 39  1  0
 15 40  1  0
 16 41  1  0
 18 42  1  0
 21 43  1  0
 22 44  1  0
M  END
>  <smiles>  (41) 
O=C(NCC(=O)N1CCCCCC1)c1ccc2cc(Cl)ccc2n1

>  <score_type>  (41) 
oracle

>  <origin>  (41) 
autodockgpu

>  <m_score__min__energy>  (41) 
-5.8499999999999996

>  <m_primary>  (41) 
energy

>  <rmsd>  (41) 
4.006226246626775

>  <m_score__min__rmsd>  (41) 
4.006226246626775

>  <meeko>  (41) 
{"free_energy": -4.75, "intermolecular_energy": -7.43, "internal_energy": -1.46, "cluster_size": 14, "cluster_id": 3, "rank_in_cluster": 12}

>  <energy>  (41) 
-4.84

>  <cluster_rmsd>  (41) 
0.0

>  <cluster>  (41) 
5

$$$$

     RDKit          3D

 44 46  0  0  0  0  0  0  0  0999 V2000
  139.9030   72.2960  220.7060 O   0  0  0  0  0  0  0  0  0  0  0  0
  139.7210   72.7390  221.8660 C   0  0  0  0  0  0  0  0  0  0  0  0
  139.4340   74.0970  222.1620 N   0  0  0  0  0  0  0  0  0  0  0  0
  139.3440   75.0430  221.0540 C   0  0  0  0  0  0  0  0  0  0  0  0
  140.5720   75.8840  221.0530 C   0  0  0  0  0  0  0  0  0  0  0  0
  141.7150   75.3360  221.2040 O   0  0  0  0  0  0  0  0  0  0  0  0
  140.4740   77.2930  220.8850 N   0  0  0  0  0  0  0  0  0  0  0  0
  139.1630   77.8860  220.7170 C   0  0  0  0  0  0  0  0  0  0  0  0
  139.0240   78.9780  221.7550 C   0  0  0  0  0  0  0  0  0  0  0  0
  139.5310   78.5050  223.0850 C   0  0  0  0  0  0  0  0  0  0  0  0
  141.0150   78.5370  223.2390 C   0  0  0  0  0  0  0  0  0  0  0  0
  141.7720   79.0220  222.0370 C   0  0  0  0  0  0  0  0  0  0  0  0
  141.7340   78.0080  220.9020 C   0  0  0  0  0  0  0  0  0  0  0  0
  139.8100   71.7920  222.9850 C   0  0  0  0  0  0  0  0  0  0  0  0
  139.3910   70.4880  222.8620 C   0  0  0  0  0  0  0  0  0  0  0  0
  139.4490   69.5590  223.8710 C   0  0  0  0  0  0  0  0  0  0  0  0
  139.9680   69.9770  225.0840 C   0  0  0  0  0  0  0  0  0  0  0  0
  140.0350   69.0590  226.1090 C   0  0  0  0  0  0  0  0  0  0  0  0
  140.5480   69.4750  227.3100 C   0  0  0  0  0  0  0  0  0  0  0  0
  140.6420   68.3220  228.6270 Cl  0  0  0  0  0  0  0  0  0  0  0  0
  140.9740   70.7750  227.4550 C   0  0  0  0  0  0  0  0  0  0  0  0
  140.9100   71.7070  226.4250 C   0  0  0  0  0  0  0  0  0  0  0  0
  140.3890   71.2850  225.2070 C   0  0  0  0  0  0  0  0  0  0  0  0
  140.3110   72.1650  224.1860 N   0  0  0  0  0  0  0  0  0  0  0  0
  139.2850   74.4350  223.1560 H   0  0  0  0  0  0  0  0  0  0  0  0
  139.2682   74.4952  220.1031 H   0  0  0  0  0  0  0  0  0  0  0  0
  138.4523   75.6766  221.1696 H   0  0  0  0  0  0  0  0  0  0  0  0
  139.0700   78.3128  219.7075 H   0  0  0  0  0  0  0  0  0  0  0  0
  138.3752   77.1286  220.8422 H   0  0  0  0  0  0  0  0  0  0  0  0
  139.6055   79.8559  221.4371 H   0  0  0  0  0  0  0  0  0  0  0  0
  137.9609   79.2430  221.8529 H   0  0  0  0  0  0  0  0  0  0  0  0
  139.0926   79.1448  223.8651 H   0  0  0  0  0  0  0  0  0  0  0  0
  139.2346   77.4492  223.1705 H   0  0  0  0  0  0  0  0  0  0  0  0
  141.2553   79.2003  224.0829 H   0  0  0  0  0  0  0  0  0  0  0  0
  141.3281   77.4943  223.3966 H   0  0  0  0  0  0  0  0  0  0  0  0
  141.3230   79.9640  221.6889 H   0  0  0  0  0  0  0  0  0  0  0  0
  142.8219   79.1708  222.3295 H   0  0  0  0  0  0  0  0  0  0  0  0
  141.8613   78.5349  219.9448 H   0  0  0  0  0  0  0  0  0  0  0  0
  142.5463   77.2820  221.0540 H   0  0  0  0  0  0  0  0  0  0  0  0
  138.9828   70.1685  221.8918 H   0  0  0  0  0  0  0  0  0  0  0  0
  139.0982   68.5272  223.7219 H   0  0  0  0  0  0  0  0  0  0  0  0
  139.6878   68.0248  225.9680 H   0  0  0  0  0  0  0  0  0  0  0  0
  141.3824   71.0904  228.4265 H   0  0  0  0  0  0  0  0  0  0  0  0
  141.2588   72.7403  226.5686 H   0  0  0  0  0  0  0  0  0  0  0  0
  1  2  2  0
  2  3  1  0
  3  4  1  0
  4  5  1  0
  5  6  2  0
  5  7  1  0
  7  8  1  0
  8  9  1  0
  9 10  1  0
 10 11  1  0
 11 12  1  0
 12 13  1  0
  2 14  1  0
 14 15  2  0
 15 16  1  0
 16 17  2  0
 17 18  1  0
 18 19  2  0
 19 20  1  0
 19 21  1  0
 21 22  2  0
 22 23  1  0
 23 24  2  0
 13  7  1  0
 24 14  1  0
 23 17  1  0
  3 25  1  0
  4 26  1  0
  4 27  1  0
  8 28  1  0
  8 29  1  0
  9 30  1  0
  9 31  1  0
 10 32  1  0
 10 33  1  0
 11 34  1  0
 11 35  1  0
 12 36  1  0
 12 37  1  0
 13 38  1  0
 13 39  1  0
 15 40  1  0
 16 41  1  0
 18 42  1  0
 21 43  1  0
 22 44  1  0
M  END
>  <smiles>  (42) 
O=C(NCC(=O)N1CCCCCC1)c1ccc2cc(Cl)ccc2n1

>  <score_type>  (42) 
oracle

>  <origin>  (42) 
autodockgpu

>  <m_score__min__energy>  (42) 
-5.8499999999999996

>  <m_primary>  (42) 
energy

>  <rmsd>  (42) 
3.016034721524333

>  <m_score__min__rmsd>  (42) 
3.016034721524333

>  <meeko>  (42) 
{"free_energy": -4.8, "intermolecular_energy": -7.49, "internal_energy": -1.1, "cluster_size": 14, "cluster_id": 3, "rank_in_cluster": 9}

>  <energy>  (42) 
-4.62

>  <cluster_rmsd>  (42) 
1.05

>  <cluster>  (42) 
5

$$$$

     RDKit          3D

 44 46  0  0  0  0  0  0  0  0999 V2000
  140.7400   72.5890  221.0370 O   0  0  0  0  0  0  0  0  0  0  0  0
  140.0380   72.8240  222.0510 C   0  0  0  0  0  0  0  0  0  0  0  0
  139.2140   73.9700  222.1980 N   0  0  0  0  0  0  0  0  0  0  0  0
  139.1780   74.9410  221.1090 C   0  0  0  0  0  0  0  0  0  0  0  0
  140.4510   75.7120  221.1220 C   0  0  0  0  0  0  0  0  0  0  0  0
  141.1470   75.7660  222.1910 O   0  0  0  0  0  0  0  0  0  0  0  0
  140.8920   76.3870  219.9500 N   0  0  0  0  0  0  0  0  0  0  0  0
  140.0800   76.3070  218.7520 C   0  0  0  0  0  0  0  0  0  0  0  0
  140.9660   75.7940  217.6400 C   0  0  0  0  0  0  0  0  0  0  0  0
  141.9670   76.8380  217.2420 C   0  0  0  0  0  0  0  0  0  0  0  0
  143.3010   76.7130  217.9000 C   0  0  0  0  0  0  0  0  0  0  0  0
  143.2690   76.3770  219.3590 C   0  0  0  0  0  0  0  0  0  0  0  0
  142.1440   77.1040  220.0820 C   0  0  0  0  0  0  0  0  0  0  0  0
  140.0710   71.8510  223.1500 C   0  0  0  0  0  0  0  0  0  0  0  0
  139.6170   70.5630  222.9880 C   0  0  0  0  0  0  0  0  0  0  0  0
  139.6230   69.6120  223.9770 C   0  0  0  0  0  0  0  0  0  0  0  0
  140.1220   69.9880  225.2120 C   0  0  0  0  0  0  0  0  0  0  0  0
  140.1360   69.0460  226.2170 C   0  0  0  0  0  0  0  0  0  0  0  0
  140.6310   69.4210  227.4400 C   0  0  0  0  0  0  0  0  0  0  0  0
  140.6570   68.2380  228.7330 Cl  0  0  0  0  0  0  0  0  0  0  0  0
  141.0900   70.7040  227.6250 C   0  0  0  0  0  0  0  0  0  0  0  0
  141.0790   71.6600  226.6140 C   0  0  0  0  0  0  0  0  0  0  0  0
  140.5770   71.2800  225.3740 C   0  0  0  0  0  0  0  0  0  0  0  0
  140.5520   72.1830  224.3710 N   0  0  0  0  0  0  0  0  0  0  0  0
  138.6340   74.1360  223.0700 H   0  0  0  0  0  0  0  0  0  0  0  0
  139.0714   74.4169  220.1478 H   0  0  0  0  0  0  0  0  0  0  0  0
  138.3236   75.6216  221.2387 H   0  0  0  0  0  0  0  0  0  0  0  0
  139.2396   75.6156  218.9127 H   0  0  0  0  0  0  0  0  0  0  0  0
  139.6666   77.2937  218.4959 H   0  0  0  0  0  0  0  0  0  0  0  0
  141.4981   74.8957  217.9863 H   0  0  0  0  0  0  0  0  0  0  0  0
  140.3395   75.5514  216.7690 H   0  0  0  0  0  0  0  0  0  0  0  0
  142.1151   76.7721  216.1540 H   0  0  0  0  0  0  0  0  0  0  0  0
  141.5518   77.8033  217.5673 H   0  0  0  0  0  0  0  0  0  0  0  0
  143.8621   75.9214  217.3818 H   0  0  0  0  0  0  0  0  0  0  0  0
  143.7685   77.7061  217.8280 H   0  0  0  0  0  0  0  0  0  0  0  0
  143.1223   75.2926  219.4715 H   0  0  0  0  0  0  0  0  0  0  0  0
  144.2233   76.6952  219.8041 H   0  0  0  0  0  0  0  0  0  0  0  0
  142.3985   77.1897  221.1487 H   0  0  0  0  0  0  0  0  0  0  0  0
  142.0256   78.1008  219.6322 H   0  0  0  0  0  0  0  0  0  0  0  0
  139.2235   70.2766  222.0015 H   0  0  0  0  0  0  0  0  0  0  0  0
  139.2472   68.5941  223.7961 H   0  0  0  0  0  0  0  0  0  0  0  0
  139.7623   68.0259  226.0443 H   0  0  0  0  0  0  0  0  0  0  0  0
  141.4821   70.9863  228.6132 H   0  0  0  0  0  0  0  0  0  0  0  0
  141.4537   72.6793  226.7892 H   0  0  0  0  0  0  0  0  0  0  0  0
  1  2  2  0
  2  3  1  0
  3  4  1  0
  4  5  1  0
  5  6  2  0
  5  7  1  0
  7  8  1  0
  8  9  1  0
  9 10  1  0
 10 11  1  0
 11 12  1  0
 12 13  1  0
  2 14  1  0
 14 15  2  0
 15 16  1  0
 16 17  2  0
 17 18  1  0
 18 19  2  0
 19 20  1  0
 19 21  1  0
 21 22  2  0
 22 23  1  0
 23 24  2  0
 13  7  1  0
 24 14  1  0
 23 17  1  0
  3 25  1  0
  4 26  1  0
  4 27  1  0
  8 28  1  0
  8 29  1  0
  9 30  1  0
  9 31  1  0
 10 32  1  0
 10 33  1  0
 11 34  1  0
 11 35  1  0
 12 36  1  0
 12 37  1  0
 13 38  1  0
 13 39  1  0
 15 40  1  0
 16 41  1  0
 18 42  1  0
 21 43  1  0
 22 44  1  0
M  END
>  <smiles>  (43) 
O=C(NCC(=O)N1CCCCCC1)c1ccc2cc(Cl)ccc2n1

>  <score_type>  (43) 
oracle

>  <origin>  (43) 
autodockgpu

>  <m_score__min__energy>  (43) 
-5.8499999999999996

>  <m_primary>  (43) 
energy

>  <rmsd>  (43) 
2.200545300519338

>  <m_score__min__rmsd>  (43) 
2.200545300519338

>  <meeko>  (43) 
{"free_energy": -4.87, "intermolecular_energy": -7.55, "internal_energy": -1.04, "cluster_size": 6, "cluster_id": 4, "rank_in_cluster": 4}

>  <energy>  (43) 
-4.79

>  <cluster_rmsd>  (43) 
0.0

>  <cluster>  (43) 
6

$$$$

     RDKit          3D

 44 46  0  0  0  0  0  0  0  0999 V2000
  137.6180   71.4360  222.4000 O   0  0  0  0  0  0  0  0  0  0  0  0
  137.1490   71.1690  223.5330 C   0  0  0  0  0  0  0  0  0  0  0  0
  137.5710   70.0730  224.3290 N   0  0  0  0  0  0  0  0  0  0  0  0
  138.6130   69.1960  223.8030 C   0  0  0  0  0  0  0  0  0  0  0  0
  139.3560   68.6080  224.9510 C   0  0  0  0  0  0  0  0  0  0  0  0
  139.1020   67.4140  225.3240 O   0  0  0  0  0  0  0  0  0  0  0  0
  140.3460   69.3710  225.6300 N   0  0  0  0  0  0  0  0  0  0  0  0
  140.6120   70.7240  225.1830 C   0  0  0  0  0  0  0  0  0  0  0  0
  141.4500   71.3940  226.2490 C   0  0  0  0  0  0  0  0  0  0  0  0
  140.6260   71.6640  227.4720 C   0  0  0  0  0  0  0  0  0  0  0  0
  139.7800   70.5220  227.9250 C   0  0  0  0  0  0  0  0  0  0  0  0
  140.4970   69.2130  228.0700 C   0  0  0  0  0  0  0  0  0  0  0  0
  141.0020   68.6950  226.7300 C   0  0  0  0  0  0  0  0  0  0  0  0
  136.1000   72.0480  224.0660 C   0  0  0  0  0  0  0  0  0  0  0  0
  135.9020   73.3160  223.5740 C   0  0  0  0  0  0  0  0  0  0  0  0
  134.9390   74.1810  224.0330 C   0  0  0  0  0  0  0  0  0  0  0  0
  134.1240   73.7310  225.0570 C   0  0  0  0  0  0  0  0  0  0  0  0
  133.1510   74.5860  225.5300 C   0  0  0  0  0  0  0  0  0  0  0  0
  132.3440   74.1390  226.5450 C   0  0  0  0  0  0  0  0  0  0  0  0
  131.1020   75.2100  227.1610 Cl  0  0  0  0  0  0  0  0  0  0  0  0
  132.5260   72.8740  227.0530 C   0  0  0  0  0  0  0  0  0  0  0  0
  133.5050   72.0060  226.5800 C   0  0  0  0  0  0  0  0  0  0  0  0
  134.3230   72.4590  225.5500 C   0  0  0  0  0  0  0  0  0  0  0  0
  135.2840   71.6430  225.0680 N   0  0  0  0  0  0  0  0  0  0  0  0
  137.1520   69.8780  225.2830 H   0  0  0  0  0  0  0  0  0  0  0  0
  138.1563   68.3931  223.2057 H   0  0  0  0  0  0  0  0  0  0  0  0
  139.2997   69.7676  223.1613 H   0  0  0  0  0  0  0  0  0  0  0  0
  141.1609   70.7044  224.2299 H   0  0  0  0  0  0  0  0  0  0  0  0
  139.6722   71.2733  225.0244 H   0  0  0  0  0  0  0  0  0  0  0  0
  142.2897   70.7356  226.5163 H   0  0  0  0  0  0  0  0  0  0  0  0
  141.8276   72.3496  225.8563 H   0  0  0  0  0  0  0  0  0  0  0  0
  141.3091   71.9295  228.2923 H   0  0  0  0  0  0  0  0  0  0  0  0
  139.9320   72.4740  227.2033 H   0  0  0  0  0  0  0  0  0  0  0  0
  139.3499   70.7843  228.9029 H   0  0  0  0  0  0  0  0  0  0  0  0
  139.0257   70.3709  227.1388 H   0  0  0  0  0  0  0  0  0  0  0  0
  141.3545   69.3493  228.7454 H   0  0  0  0  0  0  0  0  0  0  0  0
  139.7876   68.4771  228.4764 H   0  0  0  0  0  0  0  0  0  0  0  0
  142.0862   68.8683  226.6631 H   0  0  0  0  0  0  0  0  0  0  0  0
  140.7780   67.6201  226.6636 H   0  0  0  0  0  0  0  0  0  0  0  0
  136.5571   73.6602  222.7601 H   0  0  0  0  0  0  0  0  0  0  0  0
  134.8207   75.1875  223.6054 H   0  0  0  0  0  0  0  0  0  0  0  0
  133.0261   75.5937  225.1071 H   0  0  0  0  0  0  0  0  0  0  0  0
  131.8698   72.5341  227.8678 H   0  0  0  0  0  0  0  0  0  0  0  0
  133.6277   70.9988  227.0048 H   0  0  0  0  0  0  0  0  0  0  0  0
  1  2  2  0
  2  3  1  0
  3  4  1  0
  4  5  1  0
  5  6  2  0
  5  7  1  0
  7  8  1  0
  8  9  1  0
  9 10  1  0
 10 11  1  0
 11 12  1  0
 12 13  1  0
  2 14  1  0
 14 15  2  0
 15 16  1  0
 16 17  2  0
 17 18  1  0
 18 19  2  0
 19 20  1  0
 19 21  1  0
 21 22  2  0
 22 23  1  0
 23 24  2  0
 13  7  1  0
 24 14  1  0
 23 17  1  0
  3 25  1  0
  4 26  1  0
  4 27  1  0
  8 28  1  0
  8 29  1  0
  9 30  1  0
  9 31  1  0
 10 32  1  0
 10 33  1  0
 11 34  1  0
 11 35  1  0
 12 36  1  0
 12 37  1  0
 13 38  1  0
 13 39  1  0
 15 40  1  0
 16 41  1  0
 18 42  1  0
 21 43  1  0
 22 44  1  0
M  END
>  <smiles>  (44) 
O=C(NCC(=O)N1CCCCCC1)c1ccc2cc(Cl)ccc2n1

>  <score_type>  (44) 
oracle

>  <origin>  (44) 
autodockgpu

>  <m_score__min__energy>  (44) 
-5.8499999999999996

>  <m_primary>  (44) 
energy

>  <rmsd>  (44) 
8.203193871438563

>  <m_score__min__rmsd>  (44) 
8.203193871438563

>  <meeko>  (44) 
{"free_energy": -5.02, "intermolecular_energy": -7.71, "internal_energy": -1.33, "cluster_size": 14, "cluster_id": 1, "rank_in_cluster": 7}

>  <energy>  (44) 
-4.22

>  <cluster_rmsd>  (44) 
0.78

>  <cluster>  (44) 
6

$$$$

     RDKit          3D

 44 46  0  0  0  0  0  0  0  0999 V2000
  135.0410   70.1140  224.4260 O   0  0  0  0  0  0  0  0  0  0  0  0
  135.3930   71.3110  224.5580 C   0  0  0  0  0  0  0  0  0  0  0  0
  136.6160   71.8370  224.0660 N   0  0  0  0  0  0  0  0  0  0  0  0
  137.5240   70.9360  223.3630 C   0  0  0  0  0  0  0  0  0  0  0  0
  138.9020   71.1560  223.8840 C   0  0  0  0  0  0  0  0  0  0  0  0
  139.6800   71.9750  223.2900 O   0  0  0  0  0  0  0  0  0  0  0  0
  139.3510   70.4570  225.0380 N   0  0  0  0  0  0  0  0  0  0  0  0
  138.4450   69.5330  225.6910 C   0  0  0  0  0  0  0  0  0  0  0  0
  138.9020   68.1330  225.3460 C   0  0  0  0  0  0  0  0  0  0  0  0
  139.9500   67.6710  226.3140 C   0  0  0  0  0  0  0  0  0  0  0  0
  141.2290   68.4390  226.2700 C   0  0  0  0  0  0  0  0  0  0  0  0
  141.1140   69.8910  226.6410 C   0  0  0  0  0  0  0  0  0  0  0  0
  140.7080   70.7500  225.4520 C   0  0  0  0  0  0  0  0  0  0  0  0
  134.4840   72.2220  225.2640 C   0  0  0  0  0  0  0  0  0  0  0  0
  133.3480   71.7650  225.8900 C   0  0  0  0  0  0  0  0  0  0  0  0
  132.4610   72.5680  226.5640 C   0  0  0  0  0  0  0  0  0  0  0  0
  132.7440   73.9220  226.6090 C   0  0  0  0  0  0  0  0  0  0  0  0
  131.8660   74.7430  227.2810 C   0  0  0  0  0  0  0  0  0  0  0  0
  132.1480   76.0850  227.3240 C   0  0  0  0  0  0  0  0  0  0  0  0
  131.0430   77.1470  228.1740 Cl  0  0  0  0  0  0  0  0  0  0  0  0
  133.2790   76.5630  226.7050 C   0  0  0  0  0  0  0  0  0  0  0  0
  134.1700   75.7400  226.0240 C   0  0  0  0  0  0  0  0  0  0  0  0
  133.8840   74.3790  225.9810 C   0  0  0  0  0  0  0  0  0  0  0  0
  134.7270   73.5520  225.3290 N   0  0  0  0  0  0  0  0  0  0  0  0
  136.8810   72.8550  224.1960 H   0  0  0  0  0  0  0  0  0  0  0  0
  137.2224   69.8929  223.5392 H   0  0  0  0  0  0  0  0  0  0  0  0
  137.4925   71.1358  222.2818 H   0  0  0  0  0  0  0  0  0  0  0  0
  138.4771   69.6814  226.7805 H   0  0  0  0  0  0  0  0  0  0  0  0
  137.4111   69.6986  225.3539 H   0  0  0  0  0  0  0  0  0  0  0  0
  138.0412   67.4496  225.3905 H   0  0  0  0  0  0  0  0  0  0  0  0
  139.3298   68.1372  224.3326 H   0  0  0  0  0  0  0  0  0  0  0  0
  139.5367   67.7536  227.3301 H   0  0  0  0  0  0  0  0  0  0  0  0
  140.2002   66.6387  226.0280 H   0  0  0  0  0  0  0  0  0  0  0  0
  141.9357   67.9643  226.9666 H   0  0  0  0  0  0  0  0  0  0  0  0
  141.5642   68.4161  225.2226 H   0  0  0  0  0  0  0  0  0  0  0  0
  140.3566   69.9972  227.4316 H   0  0  0  0  0  0  0  0  0  0  0  0
  142.1001   70.2334  226.9881 H   0  0  0  0  0  0  0  0  0  0  0  0
  140.7765   71.8108  225.7348 H   0  0  0  0  0  0  0  0  0  0  0  0
  141.3851   70.5297  224.6135 H   0  0  0  0  0  0  0  0  0  0  0  0
  133.1361   70.6864  225.8481 H   0  0  0  0  0  0  0  0  0  0  0  0
  131.5642   72.1529  227.0473 H   0  0  0  0  0  0  0  0  0  0  0  0
  130.9674   74.3359  227.7677 H   0  0  0  0  0  0  0  0  0  0  0  0
  133.4881   77.6420  226.7503 H   0  0  0  0  0  0  0  0  0  0  0  0
  135.0674   76.1499  225.5375 H   0  0  0  0  0  0  0  0  0  0  0  0
  1  2  2  0
  2  3  1  0
  3  4  1  0
  4  5  1  0
  5  6  2  0
  5  7  1  0
  7  8  1  0
  8  9  1  0
  9 10  1  0
 10 11  1  0
 11 12  1  0
 12 13  1  0
  2 14  1  0
 14 15  2  0
 15 16  1  0
 16 17  2  0
 17 18  1  0
 18 19  2  0
 19 20  1  0
 19 21  1  0
 21 22  2  0
 22 23  1  0
 23 24  2  0
 13  7  1  0
 24 14  1  0
 23 17  1  0
  3 25  1  0
  4 26  1  0
  4 27  1  0
  8 28  1  0
  8 29  1  0
  9 30  1  0
  9 31  1  0
 10 32  1  0
 10 33  1  0
 11 34  1  0
 11 35  1  0
 12 36  1  0
 12 37  1  0
 13 38  1  0
 13 39  1  0
 15 40  1  0
 16 41  1  0
 18 42  1  0
 21 43  1  0
 22 44  1  0
M  END
>  <smiles>  (45) 
O=C(NCC(=O)N1CCCCCC1)c1ccc2cc(Cl)ccc2n1

>  <score_type>  (45) 
oracle

>  <origin>  (45) 
autodockgpu

>  <m_score__min__energy>  (45) 
-5.8499999999999996

>  <m_primary>  (45) 
energy

>  <rmsd>  (45) 
8.307304096720618

>  <m_score__min__rmsd>  (45) 
8.307304096720618

>  <meeko>  (45) 
{"free_energy": -4.23, "intermolecular_energy": -6.92, "internal_energy": -1.25, "cluster_size": 14, "cluster_id": 1, "rank_in_cluster": 12}

>  <energy>  (45) 
-4.71

>  <cluster_rmsd>  (45) 
0.0

>  <cluster>  (45) 
7

$$$$

     RDKit          3D

 44 46  0  0  0  0  0  0  0  0999 V2000
  136.3070   78.0840  222.4330 O   0  0  0  0  0  0  0  0  0  0  0  0
  136.6420   76.9740  222.9140 C   0  0  0  0  0  0  0  0  0  0  0  0
  137.8820   76.3360  222.6500 N   0  0  0  0  0  0  0  0  0  0  0  0
  138.8310   77.0060  221.7660 C   0  0  0  0  0  0  0  0  0  0  0  0
  140.1270   77.1450  222.4860 C   0  0  0  0  0  0  0  0  0  0  0  0
  140.8830   76.1270  222.6310 O   0  0  0  0  0  0  0  0  0  0  0  0
  140.5230   78.4060  223.0100 N   0  0  0  0  0  0  0  0  0  0  0  0
  139.6430   79.5440  222.8300 C   0  0  0  0  0  0  0  0  0  0  0  0
  140.4400   80.6240  222.1330 C   0  0  0  0  0  0  0  0  0  0  0  0
  141.2470   81.4050  223.1260 C   0  0  0  0  0  0  0  0  0  0  0  0
  142.5620   80.7970  223.4850 C   0  0  0  0  0  0  0  0  0  0  0  0
  142.7670   79.3870  223.0170 C   0  0  0  0  0  0  0  0  0  0  0  0
  141.8020   78.4210  223.6900 C   0  0  0  0  0  0  0  0  0  0  0  0
  135.6910   76.2960  223.8040 C   0  0  0  0  0  0  0  0  0  0  0  0
  134.7300   76.9920  224.4980 C   0  0  0  0  0  0  0  0  0  0  0  0
  133.8160   76.4130  225.3430 C   0  0  0  0  0  0  0  0  0  0  0  0
  133.8780   75.0390  225.4940 C   0  0  0  0  0  0  0  0  0  0  0  0
  132.9680   74.4400  226.3380 C   0  0  0  0  0  0  0  0  0  0  0  0
  133.0320   73.0780  226.4870 C   0  0  0  0  0  0  0  0  0  0  0  0
  131.8840   72.2970  227.5560 Cl  0  0  0  0  0  0  0  0  0  0  0  0
  133.9860   72.3620  225.8020 C   0  0  0  0  0  0  0  0  0  0  0  0
  134.9070   72.9600  224.9480 C   0  0  0  0  0  0  0  0  0  0  0  0
  134.8420   74.3410  224.7970 C   0  0  0  0  0  0  0  0  0  0  0  0
  135.7220   74.9540  223.9770 N   0  0  0  0  0  0  0  0  0  0  0  0
  138.1310   75.3970  223.0750 H   0  0  0  0  0  0  0  0  0  0  0  0
  138.9750   76.4081  220.8540 H   0  0  0  0  0  0  0  0  0  0  0  0
  138.4481   77.9975  221.4825 H   0  0  0  0  0  0  0  0  0  0  0  0
  138.7783   79.2572  222.2135 H   0  0  0  0  0  0  0  0  0  0  0  0
  139.2670   79.9023  223.7997 H   0  0  0  0  0  0  0  0  0  0  0  0
  141.1175   80.1590  221.4018 H   0  0  0  0  0  0  0  0  0  0  0  0
  139.7441   81.3073  221.6243 H   0  0  0  0  0  0  0  0  0  0  0  0
  141.4360   82.4028  222.7033 H   0  0  0  0  0  0  0  0  0  0  0  0
  140.6553   81.4294  224.0530 H   0  0  0  0  0  0  0  0  0  0  0  0
  143.3552   81.4194  223.0452 H   0  0  0  0  0  0  0  0  0  0  0  0
  142.5888   80.7589  224.5840 H   0  0  0  0  0  0  0  0  0  0  0  0
  142.6099   79.3468  221.9290 H   0  0  0  0  0  0  0  0  0  0  0  0
  143.7915   79.0853  223.2805 H   0  0  0  0  0  0  0  0  0  0  0  0
  142.2327   77.4090  223.6684 H   0  0  0  0  0  0  0  0  0  0  0  0
  141.6432   78.7505  224.7274 H   0  0  0  0  0  0  0  0  0  0  0  0
  134.6908   78.0836  224.3679 H   0  0  0  0  0  0  0  0  0  0  0  0
  133.0665   77.0155  225.8771 H   0  0  0  0  0  0  0  0  0  0  0  0
  132.2146   75.0350  226.8749 H   0  0  0  0  0  0  0  0  0  0  0  0
  134.0222   71.2707  225.9351 H   0  0  0  0  0  0  0  0  0  0  0  0
  135.6590   72.3625  224.4118 H   0  0  0  0  0  0  0  0  0  0  0  0
  1  2  2  0
  2  3  1  0
  3  4  1  0
  4  5  1  0
  5  6  2  0
  5  7  1  0
  7  8  1  0
  8  9  1  0
  9 10  1  0
 10 11  1  0
 11 12  1  0
 12 13  1  0
  2 14  1  0
 14 15  2  0
 15 16  1  0
 16 17  2  0
 17 18  1  0
 18 19  2  0
 19 20  1  0
 19 21  1  0
 21 22  2  0
 22 23  1  0
 23 24  2  0
 13  7  1  0
 24 14  1  0
 23 17  1  0
  3 25  1  0
  4 26  1  0
  4 27  1  0
  8 28  1  0
  8 29  1  0
  9 30  1  0
  9 31  1  0
 10 32  1  0
 10 33  1  0
 11 34  1  0
 11 35  1  0
 12 36  1  0
 12 37  1  0
 13 38  1  0
 13 39  1  0
 15 40  1  0
 16 41  1  0
 18 42  1  0
 21 43  1  0
 22 44  1  0
M  END
>  <smiles>  (46) 
O=C(NCC(=O)N1CCCCCC1)c1ccc2cc(Cl)ccc2n1

>  <score_type>  (46) 
oracle

>  <origin>  (46) 
autodockgpu

>  <m_score__min__energy>  (46) 
-5.8499999999999996

>  <m_primary>  (46) 
energy

>  <rmsd>  (46) 
6.817842887026946

>  <m_score__min__rmsd>  (46) 
6.817842887026946

>  <meeko>  (46) 
{"free_energy": -4.22, "intermolecular_energy": -6.9, "internal_energy": -1.17, "cluster_size": 2, "cluster_id": 6, "rank_in_cluster": 2}

>  <energy>  (46) 
-4.43

>  <cluster_rmsd>  (46) 
1.07

>  <cluster>  (46) 
7

$$$$

     RDKit          3D

 44 46  0  0  0  0  0  0  0  0999 V2000
  135.1290   70.1490  224.5370 O   0  0  0  0  0  0  0  0  0  0  0  0
  135.4730   71.3500  224.6590 C   0  0  0  0  0  0  0  0  0  0  0  0
  136.6730   71.8900  224.1260 N   0  0  0  0  0  0  0  0  0  0  0  0
  137.5660   71.0000  223.3910 C   0  0  0  0  0  0  0  0  0  0  0  0
  138.9430   71.1660  223.9300 C   0  0  0  0  0  0  0  0  0  0  0  0
  139.6950   72.0910  223.4720 O   0  0  0  0  0  0  0  0  0  0  0  0
  139.4230   70.2980  224.9500 N   0  0  0  0  0  0  0  0  0  0  0  0
  138.5460   69.2570  225.4490 C   0  0  0  0  0  0  0  0  0  0  0  0
  139.4150   68.0780  225.8260 C   0  0  0  0  0  0  0  0  0  0  0  0
  139.8920   68.2100  227.2420 C   0  0  0  0  0  0  0  0  0  0  0  0
  141.0590   69.1220  227.4300 C   0  0  0  0  0  0  0  0  0  0  0  0
  140.8670   70.5270  226.9150 C   0  0  0  0  0  0  0  0  0  0  0  0
  140.7770   70.5540  225.3950 C   0  0  0  0  0  0  0  0  0  0  0  0
  134.5780   72.2500  225.3970 C   0  0  0  0  0  0  0  0  0  0  0  0
  133.4730   71.7800  226.0650 C   0  0  0  0  0  0  0  0  0  0  0  0
  132.6010   72.5720  226.7710 C   0  0  0  0  0  0  0  0  0  0  0  0
  132.8680   73.9300  226.8030 C   0  0  0  0  0  0  0  0  0  0  0  0
  132.0050   74.7410  227.5070 C   0  0  0  0  0  0  0  0  0  0  0  0
  132.2700   76.0860  227.5370 C   0  0  0  0  0  0  0  0  0  0  0  0
  131.1840   77.1360  228.4260 Cl  0  0  0  0  0  0  0  0  0  0  0  0
  133.3710   76.5780  226.8750 C   0  0  0  0  0  0  0  0  0  0  0  0
  134.2470   75.7650  226.1630 C   0  0  0  0  0  0  0  0  0  0  0  0
  133.9770   74.4010  226.1320 C   0  0  0  0  0  0  0  0  0  0  0  0
  134.8070   73.5830  225.4500 N   0  0  0  0  0  0  0  0  0  0  0  0
  136.9310   72.9110  224.2480 H   0  0  0  0  0  0  0  0  0  0  0  0
  137.2399   69.9574  223.5198 H   0  0  0  0  0  0  0  0  0  0  0  0
  137.5474   71.2469  222.3192 H   0  0  0  0  0  0  0  0  0  0  0  0
  137.9979   69.6179  226.3318 H   0  0  0  0  0  0  0  0  0  0  0  0
  137.8097   68.9689  224.6842 H   0  0  0  0  0  0  0  0  0  0  0  0
  138.8314   67.1510  225.7253 H   0  0  0  0  0  0  0  0  0  0  0  0
  140.2878   68.0504  225.1571 H   0  0  0  0  0  0  0  0  0  0  0  0
  139.0583   68.5924  227.8491 H   0  0  0  0  0  0  0  0  0  0  0  0
  140.2304   67.2091  227.5480 H   0  0  0  0  0  0  0  0  0  0  0  0
  141.2745   69.1810  228.5071 H   0  0  0  0  0  0  0  0  0  0  0  0
  141.8810   68.6907  226.8399 H   0  0  0  0  0  0  0  0  0  0  0  0
  139.9378   70.9387  227.3359 H   0  0  0  0  0  0  0  0  0  0  0  0
  141.7348   71.1297  227.2212 H   0  0  0  0  0  0  0  0  0  0  0  0
  141.0932   71.5436  225.0336 H   0  0  0  0  0  0  0  0  0  0  0  0
  141.4326   69.7683  224.9914 H   0  0  0  0  0  0  0  0  0  0  0  0
  133.2739   70.6987  226.0321 H   0  0  0  0  0  0  0  0  0  0  0  0
  131.7287   72.1460  227.2883 H   0  0  0  0  0  0  0  0  0  0  0  0
  131.1313   74.3229  228.0284 H   0  0  0  0  0  0  0  0  0  0  0  0
  133.5670   77.6598  226.9101 H   0  0  0  0  0  0  0  0  0  0  0  0
  135.1209   76.1854  225.6437 H   0  0  0  0  0  0  0  0  0  0  0  0
  1  2  2  0
  2  3  1  0
  3  4  1  0
  4  5  1  0
  5  6  2  0
  5  7  1  0
  7  8  1  0
  8  9  1  0
  9 10  1  0
 10 11  1  0
 11 12  1  0
 12 13  1  0
  2 14  1  0
 14 15  2  0
 15 16  1  0
 16 17  2  0
 17 18  1  0
 18 19  2  0
 19 20  1  0
 19 21  1  0
 21 22  2  0
 22 23  1  0
 23 24  2  0
 13  7  1  0
 24 14  1  0
 23 17  1  0
  3 25  1  0
  4 26  1  0
  4 27  1  0
  8 28  1  0
  8 29  1  0
  9 30  1  0
  9 31  1  0
 10 32  1  0
 10 33  1  0
 11 34  1  0
 11 35  1  0
 12 36  1  0
 12 37  1  0
 13 38  1  0
 13 39  1  0
 15 40  1  0
 16 41  1  0
 18 42  1  0
 21 43  1  0
 22 44  1  0
M  END
>  <smiles>  (47) 
O=C(NCC(=O)N1CCCCCC1)c1ccc2cc(Cl)ccc2n1

>  <score_type>  (47) 
oracle

>  <origin>  (47) 
autodockgpu

>  <m_score__min__energy>  (47) 
-5.8499999999999996

>  <m_primary>  (47) 
energy

>  <rmsd>  (47) 
8.32513276723838

>  <m_score__min__rmsd>  (47) 
8.32513276723838

>  <meeko>  (47) 
{"free_energy": -4.23, "intermolecular_energy": -6.91, "internal_energy": -1.23, "cluster_size": 14, "cluster_id": 1, "rank_in_cluster": 13}

>  <energy>  (47) 
-4.05

>  <cluster_rmsd>  (47) 
0.0

>  <cluster>  (47) 
8

$$$$

     RDKit          3D

 44 46  0  0  0  0  0  0  0  0999 V2000
  135.9490   69.4630  224.0000 O   0  0  0  0  0  0  0  0  0  0  0  0
  136.3070   70.5570  224.4990 C   0  0  0  0  0  0  0  0  0  0  0  0
  137.6480   71.0200  224.5200 N   0  0  0  0  0  0  0  0  0  0  0  0
  138.6810   70.1750  223.9290 C   0  0  0  0  0  0  0  0  0  0  0  0
  139.0870   69.1540  224.9350 C   0  0  0  0  0  0  0  0  0  0  0  0
  138.2780   68.2170  225.2460 O   0  0  0  0  0  0  0  0  0  0  0  0
  140.3690   69.2220  225.5470 N   0  0  0  0  0  0  0  0  0  0  0  0
  141.2640   70.2990  225.1740 C   0  0  0  0  0  0  0  0  0  0  0  0
  140.8480   71.5240  225.9560 C   0  0  0  0  0  0  0  0  0  0  0  0
  140.2750   71.1280  227.2850 C   0  0  0  0  0  0  0  0  0  0  0  0
  141.0730   70.1150  228.0360 C   0  0  0  0  0  0  0  0  0  0  0  0
  140.5670   68.7070  227.9340 C   0  0  0  0  0  0  0  0  0  0  0  0
  140.6520   68.1770  226.5090 C   0  0  0  0  0  0  0  0  0  0  0  0
  135.2710   71.4110  225.0950 C   0  0  0  0  0  0  0  0  0  0  0  0
  134.1860   70.8800  225.7500 C   0  0  0  0  0  0  0  0  0  0  0  0
  133.1890   71.6270  226.3260 C   0  0  0  0  0  0  0  0  0  0  0  0
  133.2980   73.0030  226.2320 C   0  0  0  0  0  0  0  0  0  0  0  0
  132.3060   73.7700  226.8050 C   0  0  0  0  0  0  0  0  0  0  0  0
  132.4160   75.1330  226.7110 C   0  0  0  0  0  0  0  0  0  0  0  0
  131.1640   76.1270  227.4320 Cl  0  0  0  0  0  0  0  0  0  0  0  0
  133.4930   75.6870  226.0590 C   0  0  0  0  0  0  0  0  0  0  0  0
  134.4980   74.9190  225.4800 C   0  0  0  0  0  0  0  0  0  0  0  0
  134.3870   73.5370  225.5750 C   0  0  0  0  0  0  0  0  0  0  0  0
  135.3440   72.7610  225.0230 N   0  0  0  0  0  0  0  0  0  0  0  0
  137.9130   71.9520  224.9510 H   0  0  0  0  0  0  0  0  0  0  0  0
  138.2845   69.6759  223.0325 H   0  0  0  0  0  0  0  0  0  0  0  0
  139.5488   70.7860  223.6397 H   0  0  0  0  0  0  0  0  0  0  0  0
  142.3011   70.0289  225.4220 H   0  0  0  0  0  0  0  0  0  0  0  0
  141.2099   70.4919  224.0924 H   0  0  0  0  0  0  0  0  0  0  0  0
  141.7263   72.1664  226.1171 H   0  0  0  0  0  0  0  0  0  0  0  0
  140.0809   72.0677  225.3850 H   0  0  0  0  0  0  0  0  0  0  0  0
  140.1979   72.0320  227.9070 H   0  0  0  0  0  0  0  0  0  0  0  0
  139.3019   70.6603  227.0746 H   0  0  0  0  0  0  0  0  0  0  0  0
  142.1025   70.1365  227.6491 H   0  0  0  0  0  0  0  0  0  0  0  0
  140.9997   70.3918  229.0981 H   0  0  0  0  0  0  0  0  0  0  0  0
  141.1713   68.0631  228.5899 H   0  0  0  0  0  0  0  0  0  0  0  0
  139.5100   68.7008  228.2385 H   0  0  0  0  0  0  0  0  0  0  0  0
  141.6654   67.7885  226.3299 H   0  0  0  0  0  0  0  0  0  0  0  0
  139.9052   67.3785  226.3878 H   0  0  0  0  0  0  0  0  0  0  0  0
  134.1116   69.7846  225.8171 H   0  0  0  0  0  0  0  0  0  0  0  0
  132.3402   71.1523  226.8400 H   0  0  0  0  0  0  0  0  0  0  0  0
  131.4539   73.3033  227.3208 H   0  0  0  0  0  0  0  0  0  0  0  0
  133.5625   76.7828  225.9927 H   0  0  0  0  0  0  0  0  0  0  0  0
  135.3495   75.3885  224.9657 H   0  0  0  0  0  0  0  0  0  0  0  0
  1  2  2  0
  2  3  1  0
  3  4  1  0
  4  5  1  0
  5  6  2  0
  5  7  1  0
  7  8  1  0
  8  9  1  0
  9 10  1  0
 10 11  1  0
 11 12  1  0
 12 13  1  0
  2 14  1  0
 14 15  2  0
 15 16  1  0
 16 17  2  0
 17 18  1  0
 18 19  2  0
 19 20  1  0
 19 21  1  0
 21 22  2  0
 22 23  1  0
 23 24  2  0
 13  7  1  0
 24 14  1  0
 23 17  1  0
  3 25  1  0
  4 26  1  0
  4 27  1  0
  8 28  1  0
  8 29  1  0
  9 30  1  0
  9 31  1  0
 10 32  1  0
 10 33  1  0
 11 34  1  0
 11 35  1  0
 12 36  1  0
 12 37  1  0
 13 38  1  0
 13 39  1  0
 15 40  1  0
 16 41  1  0
 18 42  1  0
 21 43  1  0
 22 44  1  0
M  END
>  <smiles>  (48) 
O=C(NCC(=O)N1CCCCCC1)c1ccc2cc(Cl)ccc2n1

>  <score_type>  (48) 
oracle

>  <origin>  (48) 
autodockgpu

>  <m_score__min__energy>  (48) 
-5.8499999999999996

>  <m_primary>  (48) 
energy

>  <rmsd>  (48) 
8.20976640291827

>  <m_score__min__rmsd>  (48) 
8.20976640291827

>  <meeko>  (48) 
{"free_energy": -4.71, "intermolecular_energy": -7.4, "internal_energy": -1.16, "cluster_size": 14, "cluster_id": 1, "rank_in_cluster": 11}

>  <energy>  (48) 
-3.72

>  <cluster_rmsd>  (48) 
0.7

>  <cluster>  (48) 
8

$$$$

     RDKit          3D

 44 46  0  0  0  0  0  0  0  0999 V2000
  140.6100   72.5920  220.8870 O   0  0  0  0  0  0  0  0  0  0  0  0
  140.0000   72.8670  221.9490 C   0  0  0  0  0  0  0  0  0  0  0  0
  139.2760   74.0700  222.1600 N   0  0  0  0  0  0  0  0  0  0  0  0
  139.2380   75.0530  221.0820 C   0  0  0  0  0  0  0  0  0  0  0  0
  138.5910   76.2910  221.5960 C   0  0  0  0  0  0  0  0  0  0  0  0
  137.3370   76.4650  221.4310 O   0  0  0  0  0  0  0  0  0  0  0  0
  139.3640   77.2760  222.2690 N   0  0  0  0  0  0  0  0  0  0  0  0
  140.7850   77.0500  222.4420 C   0  0  0  0  0  0  0  0  0  0  0  0
  141.5110   78.1290  221.6700 C   0  0  0  0  0  0  0  0  0  0  0  0
  141.7630   79.3200  222.5460 C   0  0  0  0  0  0  0  0  0  0  0  0
  140.5350   80.0260  223.0160 C   0  0  0  0  0  0  0  0  0  0  0  0
  139.2840   79.7240  222.2430 C   0  0  0  0  0  0  0  0  0  0  0  0
  138.6280   78.4370  222.7250 C   0  0  0  0  0  0  0  0  0  0  0  0
  140.0350   71.8820  223.0370 C   0  0  0  0  0  0  0  0  0  0  0  0
  139.5690   70.6000  222.8650 C   0  0  0  0  0  0  0  0  0  0  0  0
  139.5770   69.6370  223.8440 C   0  0  0  0  0  0  0  0  0  0  0  0
  140.0910   69.9960  225.0780 C   0  0  0  0  0  0  0  0  0  0  0  0
  140.1070   69.0430  226.0730 C   0  0  0  0  0  0  0  0  0  0  0  0
  140.6160   69.4010  227.2950 C   0  0  0  0  0  0  0  0  0  0  0  0
  140.6450   68.2040  228.5740 Cl  0  0  0  0  0  0  0  0  0  0  0  0
  141.0870   70.6790  227.4890 C   0  0  0  0  0  0  0  0  0  0  0  0
  141.0740   71.6460  226.4890 C   0  0  0  0  0  0  0  0  0  0  0  0
  140.5580   71.2820  225.2500 C   0  0  0  0  0  0  0  0  0  0  0  0
  140.5300   72.1970  224.2570 N   0  0  0  0  0  0  0  0  0  0  0  0
  138.7720   74.2680  223.0710 H   0  0  0  0  0  0  0  0  0  0  0  0
  140.2619   75.2796  220.7499 H   0  0  0  0  0  0  0  0  0  0  0  0
  138.6684   74.6558  220.2289 H   0  0  0  0  0  0  0  0  0  0  0  0
  141.0481   77.1088  223.5085 H   0  0  0  0  0  0  0  0  0  0  0  0
  141.0675   76.0523  222.0748 H   0  0  0  0  0  0  0  0  0  0  0  0
  142.4726   77.7332  221.3112 H   0  0  0  0  0  0  0  0  0  0  0  0
  140.8878   78.4385  220.8181 H   0  0  0  0  0  0  0  0  0  0  0  0
  142.3220   78.9812  223.4307 H   0  0  0  0  0  0  0  0  0  0  0  0
  142.3180   80.0434  221.9307 H   0  0  0  0  0  0  0  0  0  0  0  0
  140.3621   79.7445  224.0652 H   0  0  0  0  0  0  0  0  0  0  0  0
  140.7285   81.0994  222.8729 H   0  0  0  0  0  0  0  0  0  0  0  0
  138.5755   80.5558  222.3701 H   0  0  0  0  0  0  0  0  0  0  0  0
  139.5541   79.5985  221.1841 H   0  0  0  0  0  0  0  0  0  0  0  0
  138.6016   78.4369  223.8247 H   0  0  0  0  0  0  0  0  0  0  0  0
  137.6086   78.3887  222.3146 H   0  0  0  0  0  0  0  0  0  0  0  0
  139.1635   70.3280  221.8793 H   0  0  0  0  0  0  0  0  0  0  0  0
  139.1916   68.6241  223.6556 H   0  0  0  0  0  0  0  0  0  0  0  0
  139.7238   68.0277  225.8929 H   0  0  0  0  0  0  0  0  0  0  0  0
  141.4909   70.9475  228.4763 H   0  0  0  0  0  0  0  0  0  0  0  0
  141.4576   72.6607  226.6715 H   0  0  0  0  0  0  0  0  0  0  0  0
  1  2  2  0
  2  3  1  0
  3  4  1  0
  4  5  1  0
  5  6  2  0
  5  7  1  0
  7  8  1  0
  8  9  1  0
  9 10  1  0
 10 11  1  0
 11 12  1  0
 12 13  1  0
  2 14  1  0
 14 15  2  0
 15 16  1  0
 16 17  2  0
 17 18  1  0
 18 19  2  0
 19 20  1  0
 19 21  1  0
 21 22  2  0
 22 23  1  0
 23 24  2  0
 13  7  1  0
 24 14  1  0
 23 17  1  0
  3 25  1  0
  4 26  1  0
  4 27  1  0
  8 28  1  0
  8 29  1  0
  9 30  1  0
  9 31  1  0
 10 32  1  0
 10 33  1  0
 11 34  1  0
 11 35  1  0
 12 36  1  0
 12 37  1  0
 13 38  1  0
 13 39  1  0
 15 40  1  0
 16 41  1  0
 18 42  1  0
 21 43  1  0
 22 44  1  0
M  END
>  <smiles>  (49) 
O=C(NCC(=O)N1CCCCCC1)c1ccc2cc(Cl)ccc2n1

>  <score_type>  (49) 
oracle

>  <origin>  (49) 
autodockgpu

>  <m_score__min__energy>  (49) 
-5.8499999999999996

>  <m_primary>  (49) 
energy

>  <rmsd>  (49) 
3.2625563093548653

>  <m_score__min__rmsd>  (49) 
3.2625563093548653

>  <meeko>  (49) 
{"free_energy": -5.09, "intermolecular_energy": -7.77, "internal_energy": -0.94, "cluster_size": 14, "cluster_id": 3, "rank_in_cluster": 5}

>  <energy>  (49) 
-3.86

>  <cluster_rmsd>  (49) 
0.0

>  <cluster>  (49) 
9

$$$$

     RDKit          3D

 44 46  0  0  0  0  0  0  0  0999 V2000
  140.9750   72.7230  221.1090 O   0  0  0  0  0  0  0  0  0  0  0  0
  140.2580   72.9510  222.1130 C   0  0  0  0  0  0  0  0  0  0  0  0
  139.4600   74.1140  222.2710 N   0  0  0  0  0  0  0  0  0  0  0  0
  139.4700   75.1100  221.2040 C   0  0  0  0  0  0  0  0  0  0  0  0
  139.0550   76.4190  221.7780 C   0  0  0  0  0  0  0  0  0  0  0  0
  138.2430   76.4500  222.7630 O   0  0  0  0  0  0  0  0  0  0  0  0
  139.5600   77.6320  221.2340 N   0  0  0  0  0  0  0  0  0  0  0  0
  140.4800   77.5660  220.1170 C   0  0  0  0  0  0  0  0  0  0  0  0
  141.7920   78.1620  220.5760 C   0  0  0  0  0  0  0  0  0  0  0  0
  141.8130   79.6400  220.3250 C   0  0  0  0  0  0  0  0  0  0  0  0
  140.8830   80.4360  221.1790 C   0  0  0  0  0  0  0  0  0  0  0  0
  139.4370   80.0710  221.0450 C   0  0  0  0  0  0  0  0  0  0  0  0
  139.0870   78.8430  221.8730 C   0  0  0  0  0  0  0  0  0  0  0  0
  140.2440   71.9530  223.1900 C   0  0  0  0  0  0  0  0  0  0  0  0
  139.7280   70.6930  222.9990 C   0  0  0  0  0  0  0  0  0  0  0  0
  139.6880   69.7190  223.9660 C   0  0  0  0  0  0  0  0  0  0  0  0
  140.2060   70.0430  225.2080 C   0  0  0  0  0  0  0  0  0  0  0  0
  140.1740   69.0780  226.1920 C   0  0  0  0  0  0  0  0  0  0  0  0
  140.6870   69.4000  227.4220 C   0  0  0  0  0  0  0  0  0  0  0  0
  140.6570   68.1870  228.6870 Cl  0  0  0  0  0  0  0  0  0  0  0  0
  141.2090   70.6550  227.6350 C   0  0  0  0  0  0  0  0  0  0  0  0
  141.2440   71.6330  226.6470 C   0  0  0  0  0  0  0  0  0  0  0  0
  140.7230   71.3060  225.3990 C   0  0  0  0  0  0  0  0  0  0  0  0
  140.7410   72.2330  224.4170 N   0  0  0  0  0  0  0  0  0  0  0  0
  138.8650   74.2740  223.1340 H   0  0  0  0  0  0  0  0  0  0  0  0
  140.4830   75.1934  220.7834 H   0  0  0  0  0  0  0  0  0  0  0  0
  138.7772   74.8123  220.4031 H   0  0  0  0  0  0  0  0  0  0  0  0
  140.6283   76.5192  219.8134 H   0  0  0  0  0  0  0  0  0  0  0  0
  140.0829   78.1197  219.2534 H   0  0  0  0  0  0  0  0  0  0  0  0
  141.9173   77.9758  221.6529 H   0  0  0  0  0  0  0  0  0  0  0  0
  142.6124   77.6935  220.0125 H   0  0  0  0  0  0  0  0  0  0  0  0
  142.8360   80.0025  220.5041 H   0  0  0  0  0  0  0  0  0  0  0  0
  141.4762   79.7814  219.2874 H   0  0  0  0  0  0  0  0  0  0  0  0
  141.1759   80.2922  222.2295 H   0  0  0  0  0  0  0  0  0  0  0  0
  140.9707   81.4794  220.8418 H   0  0  0  0  0  0  0  0  0  0  0  0
  138.8227   80.9175  221.3857 H   0  0  0  0  0  0  0  0  0  0  0  0
  139.2384   79.8397  219.9881 H   0  0  0  0  0  0  0  0  0  0  0  0
  139.5551   78.9326  222.8644 H   0  0  0  0  0  0  0  0  0  0  0  0
  137.9925   78.7846  221.9665 H   0  0  0  0  0  0  0  0  0  0  0  0
  139.3206   70.4493  222.0067 H   0  0  0  0  0  0  0  0  0  0  0  0
  139.2630   68.7250  223.7626 H   0  0  0  0  0  0  0  0  0  0  0  0
  139.7505   68.0818  225.9966 H   0  0  0  0  0  0  0  0  0  0  0  0
  141.6157   70.8949  228.6285 H   0  0  0  0  0  0  0  0  0  0  0  0
  141.6680   72.6285  226.8449 H   0  0  0  0  0  0  0  0  0  0  0  0
  1  2  2  0
  2  3  1  0
  3  4  1  0
  4  5  1  0
  5  6  2  0
  5  7  1  0
  7  8  1  0
  8  9  1  0
  9 10  1  0
 10 11  1  0
 11 12  1  0
 12 13  1  0
  2 14  1  0
 14 15  2  0
 15 16  1  0
 16 17  2  0
 17 18  1  0
 18 19  2  0
 19 20  1  0
 19 21  1  0
 21 22  2  0
 22 23  1  0
 23 24  2  0
 13  7  1  0
 24 14  1  0
 23 17  1  0
  3 25  1  0
  4 26  1  0
  4 27  1  0
  8 28  1  0
  8 29  1  0
  9 30  1  0
  9 31  1  0
 10 32  1  0
 10 33  1  0
 11 34  1  0
 11 35  1  0
 12 36  1  0
 12 37  1  0
 13 38  1  0
 13 39  1  0
 15 40  1  0
 16 41  1  0
 18 42  1  0
 21 43  1  0
 22 44  1  0
M  END
>  <smiles>  (50) 
O=C(NCC(=O)N1CCCCCC1)c1ccc2cc(Cl)ccc2n1

>  <score_type>  (50) 
oracle

>  <origin>  (50) 
autodockgpu

>  <m_score__min__energy>  (50) 
-5.8499999999999996

>  <m_primary>  (50) 
energy

>  <rmsd>  (50) 
2.967232918287623

>  <m_score__min__rmsd>  (50) 
2.967232918287623

>  <meeko>  (50) 
{"free_energy": -4.27, "intermolecular_energy": -6.96, "internal_energy": -1.32, "cluster_size": 14, "cluster_id": 3, "rank_in_cluster": 14}

>  <energy>  (50) 
-3.58

>  <cluster_rmsd>  (50) 
0.65

>  <cluster>  (50) 
9

$$$$
