
     RDKit          3D

 48 51  0  0  0  0  0  0  0  0999 V2000
  140.3880   71.6760  220.9770 O   0  0  0  0  0  0  0  0  0  0  0  0
  139.9910   72.1890  222.0600 C   0  0  0  0  0  0  0  0  0  0  0  0
  139.5210   73.5270  222.1600 N   0  0  0  0  0  0  0  0  0  0  0  0
  139.4690   74.3950  220.9990 C   0  0  0  0  0  0  0  0  0  0  0  0
  140.7550   75.1400  220.8990 C   0  0  0  0  0  0  0  0  0  0  0  0
  141.4440   75.2070  221.9530 O   0  0  0  0  0  0  0  0  0  0  0  0
  141.1580   75.7340  219.6690 N   0  0  0  0  0  0  0  0  0  0  0  0
  140.5670   77.0240  219.2820 C   0  0  0  0  0  0  0  0  0  0  0  0
  141.6540   78.0550  219.0660 C   0  0  0  0  0  0  0  0  0  0  0  0
  142.9670   77.4370  218.6830 C   0  0  0  0  0  0  0  0  0  0  0  0
  142.8390   76.0910  218.0350 C   0  0  0  0  0  0  0  0  0  0  0  0
  142.1310   75.0510  218.8450 C   0  0  1  0  0  0  0  0  0  0  0  0
  143.1170   74.3000  219.6680 C   0  0  0  0  0  0  0  0  0  0  0  0
  144.3330   74.7570  220.0800 N   0  0  0  0  0  0  0  0  0  0  0  0
  144.9390   73.7980  220.8020 C   0  0  0  0  0  0  0  0  0  0  0  0
  144.0610   72.7410  220.8200 C   0  0  0  0  0  0  0  0  0  0  0  0
  142.9370   73.0500  220.1220 N   0  0  0  0  0  0  0  0  0  0  0  0
  140.0110   71.3760  223.2820 C   0  0  0  0  0  0  0  0  0  0  0  0
  139.5630   70.0730  223.2920 C   0  0  0  0  0  0  0  0  0  0  0  0
  139.5710   69.2940  224.4140 C   0  0  0  0  0  0  0  0  0  0  0  0
  140.0510   69.8350  225.6020 C   0  0  0  0  0  0  0  0  0  0  0  0
  140.0970   69.1350  226.7720 C   0  0  0  0  0  0  0  0  0  0  0  0
  140.5850   69.7100  227.9420 C   0  0  0  0  0  0  0  0  0  0  0  0
  140.5970   68.9500  229.0570 F   0  0  0  0  0  0  0  0  0  0  0  0
  141.0330   71.0200  227.9240 C   0  0  0  0  0  0  0  0  0  0  0  0
  140.9900   71.7420  226.7410 C   0  0  0  0  0  0  0  0  0  0  0  0
  140.4980   71.1460  225.5800 C   0  0  0  0  0  0  0  0  0  0  0  0
  140.4750   71.8790  224.4600 N   0  0  0  0  0  0  0  0  0  0  0  0
  139.2060   73.8820  223.1120 H   0  0  0  0  0  0  0  0  0  0  0  0
  139.3202   73.7907  220.0919 H   0  0  0  0  0  0  0  0  0  0  0  0
  138.6334   75.1033  221.0989 H   0  0  0  0  0  0  0  0  0  0  0  0
  139.9967   76.8970  218.3500 H   0  0  0  0  0  0  0  0  0  0  0  0
  139.9010   77.3688  220.0868 H   0  0  0  0  0  0  0  0  0  0  0  0
  141.3381   78.7372  218.2630 H   0  0  0  0  0  0  0  0  0  0  0  0
  141.8013   78.5884  220.0167 H   0  0  0  0  0  0  0  0  0  0  0  0
  143.4759   78.1128  217.9800 H   0  0  0  0  0  0  0  0  0  0  0  0
  143.5345   77.2905  219.6139 H   0  0  0  0  0  0  0  0  0  0  0  0
  142.2873   76.2199  217.0921 H   0  0  0  0  0  0  0  0  0  0  0  0
  143.8663   75.7215  217.9006 H   0  0  0  0  0  0  0  0  0  0  0  0
  141.6193   74.3192  218.2026 H   0  0  0  0  0  0  0  0  0  0  0  0
  145.9293   73.8489  221.2781 H   0  0  0  0  0  0  0  0  0  0  0  0
  144.2423   71.7818  221.3271 H   0  0  0  0  0  0  0  0  0  0  0  0
  142.1600   72.3820  220.0220 H   0  0  0  0  0  0  0  0  0  0  0  0
  139.1820   69.6410  222.3549 H   0  0  0  0  0  0  0  0  0  0  0  0
  139.2044   68.2575  224.3786 H   0  0  0  0  0  0  0  0  0  0  0  0
  139.7410   68.0944  226.7913 H   0  0  0  0  0  0  0  0  0  0  0  0
  141.4206   71.4850  228.8424 H   0  0  0  0  0  0  0  0  0  0  0  0
  141.3435   72.7834  226.7182 H   0  0  0  0  0  0  0  0  0  0  0  0
  1  2  2  0
  2  3  1  0
  3  4  1  0
  4  5  1  0
  5  6  2  0
  5  7  1  0
  7  8  1  0
  8  9  1  0
  9 10  1  0
 10 11  1  0
 11 12  1  0
 12 13  1  0
 13 14  2  0
 14 15  1  0
 15 16  2  0
 16 17  1  0
  2 18  1  0
 18 19  2  0
 19 20  1  0
 20 21  2  0
 21 22  1  0
 22 23  2  0
 23 24  1  0
 23 25  1  0
 25 26  2  0
 26 27  1  0
 27 28  2  0
 12  7  1  0
 17 13  1  0
 28 18  1  0
 27 21  1  0
  3 29  1  0
  4 30  1  0
  4 31  1  0
  8 32  1  0
  8 33  1  0
  9 34  1  0
  9 35  1  0
 10 36  1  0
 10 37  1  0
 11 38  1  0
 11 39  1  0
 12 40  1  6
 15 41  1  0
 16 42  1  0
 17 43  1  0
 19 44  1  0
 20 45  1  0
 22 46  1  0
 25 47  1  0
 26 48  1  0
M  END
>  <smiles>  (1) 
O=C(NCC(=O)N1CCCC[C@H]1c1ncc[nH]1)c1ccc2cc(F)ccc2n1

>  <score_type>  (1) 
oracle

>  <origin>  (1) 
autodockgpu

>  <m_score__min__energy>  (1) 
-7.8799999999999999

>  <m_primary>  (1) 
energy

>  <rmsd>  (1) 
3.16848995977571

>  <m_score__min__rmsd>  (1) 
3.16848995977571

>  <meeko>  (1) 
{"free_energy": -7.26, "intermolecular_energy": -8.75, "internal_energy": -2.51, "cluster_size": 15, "cluster_id": 3, "rank_in_cluster": 5}

>  <energy>  (1) 
-7.88

>  <cluster_rmsd>  (1) 
0.0

>  <cluster>  (1) 
1

$$$$

     RDKit          3D

 48 51  0  0  0  0  0  0  0  0999 V2000
  139.9440   73.6790  222.4160 O   0  0  0  0  0  0  0  0  0  0  0  0
  140.2490   72.4660  222.2390 C   0  0  0  0  0  0  0  0  0  0  0  0
  140.6650   71.9440  220.9840 N   0  0  0  0  0  0  0  0  0  0  0  0
  140.7660   72.7930  219.8120 C   0  0  0  0  0  0  0  0  0  0  0  0
  142.0840   72.5570  219.1610 C   0  0  0  0  0  0  0  0  0  0  0  0
  142.0640   72.3610  217.9150 O   0  0  0  0  0  0  0  0  0  0  0  0
  143.2850   72.5560  219.9270 N   0  0  0  0  0  0  0  0  0  0  0  0
  144.1410   71.3600  219.8960 C   0  0  0  0  0  0  0  0  0  0  0  0
  145.5340   71.7250  219.4300 C   0  0  0  0  0  0  0  0  0  0  0  0
  145.8800   73.1570  219.7150 C   0  0  0  0  0  0  0  0  0  0  0  0
  145.1090   73.7540  220.8540 C   0  0  0  0  0  0  0  0  0  0  0  0
  143.6200   73.7260  220.7080 C   0  0  1  0  0  0  0  0  0  0  0  0
  143.1580   74.9770  220.0480 C   0  0  0  0  0  0  0  0  0  0  0  0
  142.1180   75.7610  220.4490 N   0  0  0  0  0  0  0  0  0  0  0  0
  142.0040   76.8020  219.6070 C   0  0  0  0  0  0  0  0  0  0  0  0
  143.0030   76.6350  218.6770 C   0  0  0  0  0  0  0  0  0  0  0  0
  143.7140   75.5100  218.9500 N   0  0  0  0  0  0  0  0  0  0  0  0
  140.1730   71.5410  223.3760 C   0  0  0  0  0  0  0  0  0  0  0  0
  139.6090   70.2890  223.2540 C   0  0  0  0  0  0  0  0  0  0  0  0
  139.5260   69.4080  224.2950 C   0  0  0  0  0  0  0  0  0  0  0  0
  140.0320   69.7860  225.5340 C   0  0  0  0  0  0  0  0  0  0  0  0
  139.9930   68.9740  226.6300 C   0  0  0  0  0  0  0  0  0  0  0  0
  140.5090   69.3860  227.8550 C   0  0  0  0  0  0  0  0  0  0  0  0
  140.4330   68.5240  228.8900 F   0  0  0  0  0  0  0  0  0  0  0  0
  141.0740   70.6450  227.9700 C   0  0  0  0  0  0  0  0  0  0  0  0
  141.1190   71.4790  226.8630 C   0  0  0  0  0  0  0  0  0  0  0  0
  140.5960   71.0460  225.6450 C   0  0  0  0  0  0  0  0  0  0  0  0
  140.6600   71.8830  224.6020 N   0  0  0  0  0  0  0  0  0  0  0  0
  140.9030   70.9090  220.9220 H   0  0  0  0  0  0  0  0  0  0  0  0
  139.9569   72.5490  219.1079 H   0  0  0  0  0  0  0  0  0  0  0  0
  140.6784   73.8491  220.1068 H   0  0  0  0  0  0  0  0  0  0  0  0
  144.1975   70.9276  220.9059 H   0  0  0  0  0  0  0  0  0  0  0  0
  143.7094   70.6282  219.1972 H   0  0  0  0  0  0  0  0  0  0  0  0
  146.2590   71.0779  219.9454 H   0  0  0  0  0  0  0  0  0  0  0  0
  145.5686   71.5841  218.3396 H   0  0  0  0  0  0  0  0  0  0  0  0
  146.9519   73.2129  219.9556 H   0  0  0  0  0  0  0  0  0  0  0  0
  145.6180   73.7335  218.8156 H   0  0  0  0  0  0  0  0  0  0  0  0
  145.3705   73.2001  221.7677 H   0  0  0  0  0  0  0  0  0  0  0  0
  145.3898   74.8171  220.8848 H   0  0  0  0  0  0  0  0  0  0  0  0
  143.1200   73.6704  221.6862 H   0  0  0  0  0  0  0  0  0  0  0  0
  141.2663   77.6168  219.6522 H   0  0  0  0  0  0  0  0  0  0  0  0
  143.1983   77.3141  217.8339 H   0  0  0  0  0  0  0  0  0  0  0  0
  144.5070   75.2140  218.3620 H   0  0  0  0  0  0  0  0  0  0  0  0
  139.2081   69.9860  222.2755 H   0  0  0  0  0  0  0  0  0  0  0  0
  139.0674   68.4179  224.1557 H   0  0  0  0  0  0  0  0  0  0  0  0
  139.5445   67.9733  226.5434 H   0  0  0  0  0  0  0  0  0  0  0  0
  141.4846   70.9814  228.9335 H   0  0  0  0  0  0  0  0  0  0  0  0
  141.5665   72.4805  226.9456 H   0  0  0  0  0  0  0  0  0  0  0  0
  1  2  2  0
  2  3  1  0
  3  4  1  0
  4  5  1  0
  5  6  2  0
  5  7  1  0
  7  8  1  0
  8  9  1  0
  9 10  1  0
 10 11  1  0
 11 12  1  0
 12 13  1  0
 13 14  2  0
 14 15  1  0
 15 16  2  0
 16 17  1  0
  2 18  1  0
 18 19  2  0
 19 20  1  0
 20 21  2  0
 21 22  1  0
 22 23  2  0
 23 24  1  0
 23 25  1  0
 25 26  2  0
 26 27  1  0
 27 28  2  0
 12  7  1  0
 17 13  1  0
 28 18  1  0
 27 21  1  0
  3 29  1  0
  4 30  1  0
  4 31  1  0
  8 32  1  0
  8 33  1  0
  9 34  1  0
  9 35  1  0
 10 36  1  0
 10 37  1  0
 11 38  1  0
 11 39  1  0
 12 40  1  1
 15 41  1  0
 16 42  1  0
 17 43  1  0
 19 44  1  0
 20 45  1  0
 22 46  1  0
 25 47  1  0
 26 48  1  0
M  END
>  <smiles>  (2) 
O=C(NCC(=O)N1CCCC[C@H]1c1ncc[nH]1)c1ccc2cc(F)ccc2n1

>  <score_type>  (2) 
oracle

>  <origin>  (2) 
autodockgpu

>  <m_score__min__energy>  (2) 
-7.8799999999999999

>  <m_primary>  (2) 
energy

>  <rmsd>  (2) 
4.0704056190335836

>  <m_score__min__rmsd>  (2) 
4.0704056190335836

>  <meeko>  (2) 
{"free_energy": -7.79, "intermolecular_energy": -9.28, "internal_energy": -1.68, "cluster_size": 3, "cluster_id": 2, "rank_in_cluster": 1}

>  <energy>  (2) 
-7.77

>  <cluster_rmsd>  (2) 
0.27

>  <cluster>  (2) 
1

$$$$

     RDKit          3D

 48 51  0  0  0  0  0  0  0  0999 V2000
  139.4640   71.2350  221.0440 O   0  0  0  0  0  0  0  0  0  0  0  0
  139.5500   71.8240  222.1570 C   0  0  0  0  0  0  0  0  0  0  0  0
  139.5000   73.2380  222.2940 N   0  0  0  0  0  0  0  0  0  0  0  0
  139.3430   74.1010  221.1390 C   0  0  0  0  0  0  0  0  0  0  0  0
  140.3870   75.1620  221.1880 C   0  0  0  0  0  0  0  0  0  0  0  0
  140.7940   75.4910  222.3350 O   0  0  0  0  0  0  0  0  0  0  0  0
  140.8780   75.7550  219.9900 N   0  0  0  0  0  0  0  0  0  0  0  0
  140.5660   77.1680  219.7230 C   0  0  0  0  0  0  0  0  0  0  0  0
  141.8430   77.9600  219.5400 C   0  0  0  0  0  0  0  0  0  0  0  0
  142.9850   77.1130  219.0610 C   0  0  0  0  0  0  0  0  0  0  0  0
  142.5590   75.8810  218.3210 C   0  0  0  0  0  0  0  0  0  0  0  0
  141.6640   74.9510  219.0800 C   0  0  1  0  0  0  0  0  0  0  0  0
  142.4860   73.9460  219.8050 C   0  0  0  0  0  0  0  0  0  0  0  0
  143.7940   74.0850  220.1630 N   0  0  0  0  0  0  0  0  0  0  0  0
  144.1940   72.9720  220.8020 C   0  0  0  0  0  0  0  0  0  0  0  0
  143.0950   72.1460  220.8250 C   0  0  0  0  0  0  0  0  0  0  0  0
  142.0430   72.7470  220.2110 N   0  0  0  0  0  0  0  0  0  0  0  0
  139.7100   71.0220  223.3760 C   0  0  0  0  0  0  0  0  0  0  0  0
  139.3670   69.6880  223.4150 C   0  0  0  0  0  0  0  0  0  0  0  0
  139.5050   68.9180  224.5350 C   0  0  0  0  0  0  0  0  0  0  0  0
  140.0150   69.5020  225.6890 C   0  0  0  0  0  0  0  0  0  0  0  0
  140.1890   68.8140  226.8550 C   0  0  0  0  0  0  0  0  0  0  0  0
  140.7030   69.4310  227.9910 C   0  0  0  0  0  0  0  0  0  0  0  0
  140.8450   68.6810  229.1040 F   0  0  0  0  0  0  0  0  0  0  0  0
  141.0460   70.7720  227.9450 C   0  0  0  0  0  0  0  0  0  0  0  0
  140.8730   71.4820  226.7660 C   0  0  0  0  0  0  0  0  0  0  0  0
  140.3570   70.8430  225.6390 C   0  0  0  0  0  0  0  0  0  0  0  0
  140.2070   71.5660  224.5220 N   0  0  0  0  0  0  0  0  0  0  0  0
  139.5800   73.6540  223.2700 H   0  0  0  0  0  0  0  0  0  0  0  0
  139.4585   73.5108  220.2180 H   0  0  0  0  0  0  0  0  0  0  0  0
  138.3431   74.5594  221.1478 H   0  0  0  0  0  0  0  0  0  0  0  0
  139.9598   77.2396  218.8079 H   0  0  0  0  0  0  0  0  0  0  0  0
  140.0076   77.5797  220.5767 H   0  0  0  0  0  0  0  0  0  0  0  0
  141.6612   78.7556  218.8025 H   0  0  0  0  0  0  0  0  0  0  0  0
  142.1227   78.3715  220.5210 H   0  0  0  0  0  0  0  0  0  0  0  0
  143.6098   77.7212  218.3903 H   0  0  0  0  0  0  0  0  0  0  0  0
  143.5295   76.7759  219.9554 H   0  0  0  0  0  0  0  0  0  0  0  0
  142.0260   76.1984  217.4126 H   0  0  0  0  0  0  0  0  0  0  0  0
  143.4808   75.3158  218.1191 H   0  0  0  0  0  0  0  0  0  0  0  0
  140.9933   74.3974  218.4064 H   0  0  0  0  0  0  0  0  0  0  0  0
  145.1908   72.7655  221.2188 H   0  0  0  0  0  0  0  0  0  0  0  0
  143.0712   71.1429  221.2758 H   0  0  0  0  0  0  0  0  0  0  0  0
  141.1270   72.2830  220.1270 H   0  0  0  0  0  0  0  0  0  0  0  0
  138.9641   69.2223  222.5036 H   0  0  0  0  0  0  0  0  0  0  0  0
  139.2181   67.8561  224.5240 H   0  0  0  0  0  0  0  0  0  0  0  0
  139.9170   67.7490  226.8973 H   0  0  0  0  0  0  0  0  0  0  0  0
  141.4528   71.2706  228.8372 H   0  0  0  0  0  0  0  0  0  0  0  0
  141.1424   72.5475  226.7201 H   0  0  0  0  0  0  0  0  0  0  0  0
  1  2  2  0
  2  3  1  0
  3  4  1  0
  4  5  1  0
  5  6  2  0
  5  7  1  0
  7  8  1  0
  8  9  1  0
  9 10  1  0
 10 11  1  0
 11 12  1  0
 12 13  1  0
 13 14  2  0
 14 15  1  0
 15 16  2  0
 16 17  1  0
  2 18  1  0
 18 19  2  0
 19 20  1  0
 20 21  2  0
 21 22  1  0
 22 23  2  0
 23 24  1  0
 23 25  1  0
 25 26  2  0
 26 27  1  0
 27 28  2  0
 12  7  1  0
 17 13  1  0
 28 18  1  0
 27 21  1  0
  3 29  1  0
  4 30  1  0
  4 31  1  0
  8 32  1  0
  8 33  1  0
  9 34  1  0
  9 35  1  0
 10 36  1  0
 10 37  1  0
 11 38  1  0
 11 39  1  0
 12 40  1  6
 15 41  1  0
 16 42  1  0
 17 43  1  0
 19 44  1  0
 20 45  1  0
 22 46  1  0
 25 47  1  0
 26 48  1  0
M  END
>  <smiles>  (3) 
O=C(NCC(=O)N1CCCC[C@H]1c1ncc[nH]1)c1ccc2cc(F)ccc2n1

>  <score_type>  (3) 
oracle

>  <origin>  (3) 
autodockgpu

>  <m_score__min__energy>  (3) 
-7.8799999999999999

>  <m_primary>  (3) 
energy

>  <rmsd>  (3) 
3.2475074380142996

>  <m_score__min__rmsd>  (3) 
3.2475074380142996

>  <meeko>  (3) 
{"free_energy": -6.91, "intermolecular_energy": -8.41, "internal_energy": -2.96, "cluster_size": 15, "cluster_id": 3, "rank_in_cluster": 15}

>  <energy>  (3) 
-7.41

>  <cluster_rmsd>  (3) 
1.3

>  <cluster>  (3) 
1

$$$$

     RDKit          3D

 48 51  0  0  0  0  0  0  0  0999 V2000
  139.5040   71.1980  221.0180 O   0  0  0  0  0  0  0  0  0  0  0  0
  139.5550   71.7950  222.1300 C   0  0  0  0  0  0  0  0  0  0  0  0
  139.5330   73.2110  222.2540 N   0  0  0  0  0  0  0  0  0  0  0  0
  139.4480   74.0670  221.0870 C   0  0  0  0  0  0  0  0  0  0  0  0
  140.5890   75.0240  221.1100 C   0  0  0  0  0  0  0  0  0  0  0  0
  141.0460   75.3200  222.2480 O   0  0  0  0  0  0  0  0  0  0  0  0
  141.1150   75.5580  219.8990 N   0  0  0  0  0  0  0  0  0  0  0  0
  140.8710   76.9760  219.5900 C   0  0  0  0  0  0  0  0  0  0  0  0
  142.1840   77.7030  219.3950 C   0  0  0  0  0  0  0  0  0  0  0  0
  143.2880   76.7900  218.9480 C   0  0  0  0  0  0  0  0  0  0  0  0
  142.8090   75.5580  218.2400 C   0  0  0  0  0  0  0  0  0  0  0  0
  141.8680   74.6930  219.0190 C   0  0  1  0  0  0  0  0  0  0  0  0
  142.6390   73.6730  219.7780 C   0  0  0  0  0  0  0  0  0  0  0  0
  143.9340   73.7830  220.1860 N   0  0  0  0  0  0  0  0  0  0  0  0
  144.2840   72.6630  220.8430 C   0  0  0  0  0  0  0  0  0  0  0  0
  143.1660   71.8630  220.8260 C   0  0  0  0  0  0  0  0  0  0  0  0
  142.1520   72.4850  220.1700 N   0  0  0  0  0  0  0  0  0  0  0  0
  139.6420   70.9990  223.3600 C   0  0  0  0  0  0  0  0  0  0  0  0
  139.1890   69.6990  223.4150 C   0  0  0  0  0  0  0  0  0  0  0  0
  139.2580   68.9360  224.5470 C   0  0  0  0  0  0  0  0  0  0  0  0
  139.8070   69.4920  225.6970 C   0  0  0  0  0  0  0  0  0  0  0  0
  139.9170   68.8080  226.8720 C   0  0  0  0  0  0  0  0  0  0  0  0
  140.4730   69.3980  228.0040 C   0  0  0  0  0  0  0  0  0  0  0  0
  140.5470   68.6540  229.1280 F   0  0  0  0  0  0  0  0  0  0  0  0
  140.9250   70.7050  227.9420 C   0  0  0  0  0  0  0  0  0  0  0  0
  140.8190   71.4100  226.7520 C   0  0  0  0  0  0  0  0  0  0  0  0
  140.2580   70.8000  225.6300 C   0  0  0  0  0  0  0  0  0  0  0  0
  140.1750   71.5170  224.5030 N   0  0  0  0  0  0  0  0  0  0  0  0
  139.5800   73.6320  223.2300 H   0  0  0  0  0  0  0  0  0  0  0  0
  139.4975   73.4544  220.1747 H   0  0  0  0  0  0  0  0  0  0  0  0
  138.4967   74.6191  221.0968 H   0  0  0  0  0  0  0  0  0  0  0  0
  140.2749   77.0495  218.6685 H   0  0  0  0  0  0  0  0  0  0  0  0
  140.3270   77.4369  220.4276 H   0  0  0  0  0  0  0  0  0  0  0  0
  142.0441   78.4853  218.6345 H   0  0  0  0  0  0  0  0  0  0  0  0
  142.4765   78.1291  220.3660 H   0  0  0  0  0  0  0  0  0  0  0  0
  143.9443   77.3489  218.2647 H   0  0  0  0  0  0  0  0  0  0  0  0
  143.8110   76.4536  219.8554 H   0  0  0  0  0  0  0  0  0  0  0  0
  142.2962   75.8737  217.3195 H   0  0  0  0  0  0  0  0  0  0  0  0
  143.7046   74.9451  218.0601 H   0  0  0  0  0  0  0  0  0  0  0  0
  141.1760   74.1513  218.3574 H   0  0  0  0  0  0  0  0  0  0  0  0
  145.2592   72.4350  221.2981 H   0  0  0  0  0  0  0  0  0  0  0  0
  143.1018   70.8626  221.2788 H   0  0  0  0  0  0  0  0  0  0  0  0
  141.2300   72.0420  220.0520 H   0  0  0  0  0  0  0  0  0  0  0  0
  138.7525   69.2555  222.5079 H   0  0  0  0  0  0  0  0  0  0  0  0
  138.8859   67.9008  224.5481 H   0  0  0  0  0  0  0  0  0  0  0  0
  139.5592   67.7692  226.9263 H   0  0  0  0  0  0  0  0  0  0  0  0
  141.3653   71.1813  228.8304 H   0  0  0  0  0  0  0  0  0  0  0  0
  141.1768   72.4485  226.6933 H   0  0  0  0  0  0  0  0  0  0  0  0
  1  2  2  0
  2  3  1  0
  3  4  1  0
  4  5  1  0
  5  6  2  0
  5  7  1  0
  7  8  1  0
  8  9  1  0
  9 10  1  0
 10 11  1  0
 11 12  1  0
 12 13  1  0
 13 14  2  0
 14 15  1  0
 15 16  2  0
 16 17  1  0
  2 18  1  0
 18 19  2  0
 19 20  1  0
 20 21  2  0
 21 22  1  0
 22 23  2  0
 23 24  1  0
 23 25  1  0
 25 26  2  0
 26 27  1  0
 27 28  2  0
 12  7  1  0
 17 13  1  0
 28 18  1  0
 27 21  1  0
  3 29  1  0
  4 30  1  0
  4 31  1  0
  8 32  1  0
  8 33  1  0
  9 34  1  0
  9 35  1  0
 10 36  1  0
 10 37  1  0
 11 38  1  0
 11 39  1  0
 12 40  1  6
 15 41  1  0
 16 42  1  0
 17 43  1  0
 19 44  1  0
 20 45  1  0
 22 46  1  0
 25 47  1  0
 26 48  1  0
M  END
>  <smiles>  (4) 
O=C(NCC(=O)N1CCCC[C@H]1c1ncc[nH]1)c1ccc2cc(F)ccc2n1

>  <score_type>  (4) 
oracle

>  <origin>  (4) 
autodockgpu

>  <m_score__min__energy>  (4) 
-7.8799999999999999

>  <m_primary>  (4) 
energy

>  <rmsd>  (4) 
3.365691856590597

>  <m_score__min__rmsd>  (4) 
3.365691856590597

>  <meeko>  (4) 
{"free_energy": -6.92, "intermolecular_energy": -8.42, "internal_energy": -2.91, "cluster_size": 15, "cluster_id": 3, "rank_in_cluster": 12}

>  <energy>  (4) 
-7.33

>  <cluster_rmsd>  (4) 
1.55

>  <cluster>  (4) 
1

$$$$

     RDKit          3D

 48 51  0  0  0  0  0  0  0  0999 V2000
  138.0670   70.9250  221.7650 O   0  0  0  0  0  0  0  0  0  0  0  0
  138.8060   71.3830  222.6820 C   0  0  0  0  0  0  0  0  0  0  0  0
  139.3300   72.7040  222.6720 N   0  0  0  0  0  0  0  0  0  0  0  0
  139.0380   73.6210  221.5870 C   0  0  0  0  0  0  0  0  0  0  0  0
  139.8650   74.8480  221.7600 C   0  0  0  0  0  0  0  0  0  0  0  0
  140.9800   74.6930  222.3290 O   0  0  0  0  0  0  0  0  0  0  0  0
  139.3970   76.1110  221.2990 N   0  0  0  0  0  0  0  0  0  0  0  0
  138.5380   76.9110  222.1870 C   0  0  0  0  0  0  0  0  0  0  0  0
  139.1580   78.2700  222.4300 C   0  0  0  0  0  0  0  0  0  0  0  0
  140.0640   78.7000  221.3130 C   0  0  0  0  0  0  0  0  0  0  0  0
  139.7480   78.0600  219.9940 C   0  0  0  0  0  0  0  0  0  0  0  0
  139.7800   76.5640  219.9800 C   0  0  1  0  0  0  0  0  0  0  0  0
  141.1430   76.0960  219.6140 C   0  0  0  0  0  0  0  0  0  0  0  0
  141.5470   75.6860  218.3780 N   0  0  0  0  0  0  0  0  0  0  0  0
  142.8450   75.3380  218.4350 C   0  0  0  0  0  0  0  0  0  0  0  0
  143.2250   75.5470  219.7400 C   0  0  0  0  0  0  0  0  0  0  0  0
  142.1760   76.0140  220.4660 N   0  0  0  0  0  0  0  0  0  0  0  0
  139.1490   70.5180  223.8170 C   0  0  0  0  0  0  0  0  0  0  0  0
  138.8540   69.1720  223.8160 C   0  0  0  0  0  0  0  0  0  0  0  0
  139.1610   68.3440  224.8590 C   0  0  0  0  0  0  0  0  0  0  0  0
  139.8000   68.8780  225.9730 C   0  0  0  0  0  0  0  0  0  0  0  0
  140.1450   68.1310  227.0600 C   0  0  0  0  0  0  0  0  0  0  0  0
  140.7840   68.7010  228.1580 C   0  0  0  0  0  0  0  0  0  0  0  0
  141.0930   67.8930  229.1940 F   0  0  0  0  0  0  0  0  0  0  0  0
  141.0770   70.0540  228.1520 C   0  0  0  0  0  0  0  0  0  0  0  0
  140.7300   70.8240  227.0520 C   0  0  0  0  0  0  0  0  0  0  0  0
  140.0910   70.2330  225.9630 C   0  0  0  0  0  0  0  0  0  0  0  0
  139.7740   71.0130  224.9220 N   0  0  0  0  0  0  0  0  0  0  0  0
  139.9450   73.0090  223.4840 H   0  0  0  0  0  0  0  0  0  0  0  0
  139.2796   73.1448  220.6253 H   0  0  0  0  0  0  0  0  0  0  0  0
  137.9703   73.8852  221.5980 H   0  0  0  0  0  0  0  0  0  0  0  0
  137.5514   77.0405  221.7180 H   0  0  0  0  0  0  0  0  0  0  0  0
  138.4313   76.3883  223.1490 H   0  0  0  0  0  0  0  0  0  0  0  0
  138.3520   79.0112  222.5348 H   0  0  0  0  0  0  0  0  0  0  0  0
  139.7664   78.1997  223.3437 H   0  0  0  0  0  0  0  0  0  0  0  0
  139.9786   79.7906  221.1981 H   0  0  0  0  0  0  0  0  0  0  0  0
  141.0811   78.3826  221.5865 H   0  0  0  0  0  0  0  0  0  0  0  0
  138.7390   78.3802  219.6949 H   0  0  0  0  0  0  0  0  0  0  0  0
  140.5395   78.3856  219.3029 H   0  0  0  0  0  0  0  0  0  0  0  0
  139.0835   76.1534  219.2341 H   0  0  0  0  0  0  0  0  0  0  0  0
  143.4709   74.9647  217.6110 H   0  0  0  0  0  0  0  0  0  0  0  0
  144.2335   75.3625  220.1387 H   0  0  0  0  0  0  0  0  0  0  0  0
  142.2650   76.2310  221.4690 H   0  0  0  0  0  0  0  0  0  0  0  0
  138.3491   68.7451  222.9369 H   0  0  0  0  0  0  0  0  0  0  0  0
  138.9073   67.2744  224.8182 H   0  0  0  0  0  0  0  0  0  0  0  0
  139.9138   67.0556  227.0698 H   0  0  0  0  0  0  0  0  0  0  0  0
  141.5816   70.5152  229.0138 H   0  0  0  0  0  0  0  0  0  0  0  0
  140.9587   71.8999  227.0388 H   0  0  0  0  0  0  0  0  0  0  0  0
  1  2  2  0
  2  3  1  0
  3  4  1  0
  4  5  1  0
  5  6  2  0
  5  7  1  0
  7  8  1  0
  8  9  1  0
  9 10  1  0
 10 11  1  0
 11 12  1  0
 12 13  1  0
 13 14  2  0
 14 15  1  0
 15 16  2  0
 16 17  1  0
  2 18  1  0
 18 19  2  0
 19 20  1  0
 20 21  2  0
 21 22  1  0
 22 23  2  0
 23 24  1  0
 23 25  1  0
 25 26  2  0
 26 27  1  0
 27 28  2  0
 12  7  1  0
 17 13  1  0
 28 18  1  0
 27 21  1  0
  3 29  1  0
  4 30  1  0
  4 31  1  0
  8 32  1  0
  8 33  1  0
  9 34  1  0
  9 35  1  0
 10 36  1  0
 10 37  1  0
 11 38  1  0
 11 39  1  0
 12 40  1  6
 15 41  1  0
 16 42  1  0
 17 43  1  0
 19 44  1  0
 20 45  1  0
 22 46  1  0
 25 47  1  0
 26 48  1  0
M  END
>  <smiles>  (5) 
O=C(NCC(=O)N1CCCC[C@H]1c1ncc[nH]1)c1ccc2cc(F)ccc2n1

>  <score_type>  (5) 
oracle

>  <origin>  (5) 
autodockgpu

>  <m_score__min__energy>  (5) 
-7.8799999999999999

>  <m_primary>  (5) 
energy

>  <rmsd>  (5) 
3.022838152555072

>  <m_score__min__rmsd>  (5) 
3.022838152555072

>  <meeko>  (5) 
{"free_energy": -7.06, "intermolecular_energy": -8.55, "internal_energy": -2.61, "cluster_size": 19, "cluster_id": 1, "rank_in_cluster": 13}

>  <energy>  (5) 
-7.17

>  <cluster_rmsd>  (5) 
1.81

>  <cluster>  (5) 
1

$$$$

     RDKit          3D

 48 51  0  0  0  0  0  0  0  0999 V2000
  139.4080   71.1180  220.9390 O   0  0  0  0  0  0  0  0  0  0  0  0
  139.5020   71.7320  222.0380 C   0  0  0  0  0  0  0  0  0  0  0  0
  139.5270   73.1500  222.1370 N   0  0  0  0  0  0  0  0  0  0  0  0
  139.4420   73.9880  220.9570 C   0  0  0  0  0  0  0  0  0  0  0  0
  140.2610   75.2130  221.1780 C   0  0  0  0  0  0  0  0  0  0  0  0
  140.7060   75.3820  222.3460 O   0  0  0  0  0  0  0  0  0  0  0  0
  140.5090   76.1240  220.1120 N   0  0  0  0  0  0  0  0  0  0  0  0
  139.8580   77.4430  220.1450 C   0  0  0  0  0  0  0  0  0  0  0  0
  140.8980   78.5410  220.0930 C   0  0  0  0  0  0  0  0  0  0  0  0
  142.1670   78.1040  219.4210 C   0  0  0  0  0  0  0  0  0  0  0  0
  141.9840   76.9690  218.4580 C   0  0  0  0  0  0  0  0  0  0  0  0
  141.3900   75.7230  219.0370 C   0  0  1  0  0  0  0  0  0  0  0  0
  142.4750   74.8290  219.5210 C   0  0  0  0  0  0  0  0  0  0  0  0
  143.1230   73.8800  218.7870 N   0  0  0  0  0  0  0  0  0  0  0  0
  144.0390   73.2750  219.5630 C   0  0  0  0  0  0  0  0  0  0  0  0
  143.9340   73.8790  220.7930 C   0  0  0  0  0  0  0  0  0  0  0  0
  142.9710   74.8370  220.7670 N   0  0  0  0  0  0  0  0  0  0  0  0
  139.5930   70.9570  223.2810 C   0  0  0  0  0  0  0  0  0  0  0  0
  139.1680   69.6470  223.3500 C   0  0  0  0  0  0  0  0  0  0  0  0
  139.2410   68.9030  224.4930 C   0  0  0  0  0  0  0  0  0  0  0  0
  139.7660   69.4860  225.6410 C   0  0  0  0  0  0  0  0  0  0  0  0
  139.8780   68.8220  226.8270 C   0  0  0  0  0  0  0  0  0  0  0  0
  140.4090   69.4390  227.9560 C   0  0  0  0  0  0  0  0  0  0  0  0
  140.4860   68.7130  229.0910 F   0  0  0  0  0  0  0  0  0  0  0  0
  140.8330   70.7550  227.8800 C   0  0  0  0  0  0  0  0  0  0  0  0
  140.7240   71.4410  226.6790 C   0  0  0  0  0  0  0  0  0  0  0  0
  140.1890   70.8030  225.5600 C   0  0  0  0  0  0  0  0  0  0  0  0
  140.1020   71.5020  224.4220 N   0  0  0  0  0  0  0  0  0  0  0  0
  139.6100   73.5880  223.1030 H   0  0  0  0  0  0  0  0  0  0  0  0
  139.8264   73.4386  220.0850 H   0  0  0  0  0  0  0  0  0  0  0  0
  138.3943   74.2673  220.7716 H   0  0  0  0  0  0  0  0  0  0  0  0
  139.1858   77.5381  219.2795 H   0  0  0  0  0  0  0  0  0  0  0  0
  139.2840   77.5365  221.0787 H   0  0  0  0  0  0  0  0  0  0  0  0
  140.4815   79.3945  219.5380 H   0  0  0  0  0  0  0  0  0  0  0  0
  141.1469   78.8129  221.1294 H   0  0  0  0  0  0  0  0  0  0  0  0
  142.5809   78.9619  218.8708 H   0  0  0  0  0  0  0  0  0  0  0  0
  142.8411   77.7457  220.2130 H   0  0  0  0  0  0  0  0  0  0  0  0
  141.3245   77.3144  217.6482 H   0  0  0  0  0  0  0  0  0  0  0  0
  142.9938   76.6936  218.1198 H   0  0  0  0  0  0  0  0  0  0  0  0
  140.8182   75.1613  218.2836 H   0  0  0  0  0  0  0  0  0  0  0  0
  144.7273   72.4670  219.2744 H   0  0  0  0  0  0  0  0  0  0  0  0
  144.5427   73.6233  221.6728 H   0  0  0  0  0  0  0  0  0  0  0  0
  142.7450   75.4010  221.5990 H   0  0  0  0  0  0  0  0  0  0  0  0
  138.7519   69.1808  222.4447 H   0  0  0  0  0  0  0  0  0  0  0  0
  138.8905   67.8604  224.5052 H   0  0  0  0  0  0  0  0  0  0  0  0
  139.5416   67.7768  226.8927 H   0  0  0  0  0  0  0  0  0  0  0  0
  141.2534   71.2532  228.7660 H   0  0  0  0  0  0  0  0  0  0  0  0
  141.0590   72.4864  226.6094 H   0  0  0  0  0  0  0  0  0  0  0  0
  1  2  2  0
  2  3  1  0
  3  4  1  0
  4  5  1  0
  5  6  2  0
  5  7  1  0
  7  8  1  0
  8  9  1  0
  9 10  1  0
 10 11  1  0
 11 12  1  0
 12 13  1  0
 13 14  2  0
 14 15  1  0
 15 16  2  0
 16 17  1  0
  2 18  1  0
 18 19  2  0
 19 20  1  0
 20 21  2  0
 21 22  1  0
 22 23  2  0
 23 24  1  0
 23 25  1  0
 25 26  2  0
 26 27  1  0
 27 28  2  0
 12  7  1  0
 17 13  1  0
 28 18  1  0
 27 21  1  0
  3 29  1  0
  4 30  1  0
  4 31  1  0
  8 32  1  0
  8 33  1  0
  9 34  1  0
  9 35  1  0
 10 36  1  0
 10 37  1  0
 11 38  1  0
 11 39  1  0
 12 40  1  6
 15 41  1  0
 16 42  1  0
 17 43  1  0
 19 44  1  0
 20 45  1  0
 22 46  1  0
 25 47  1  0
 26 48  1  0
M  END
>  <smiles>  (6) 
O=C(NCC(=O)N1CCCC[C@H]1c1ncc[nH]1)c1ccc2cc(F)ccc2n1

>  <score_type>  (6) 
oracle

>  <origin>  (6) 
autodockgpu

>  <m_score__min__energy>  (6) 
-7.8799999999999999

>  <m_primary>  (6) 
energy

>  <rmsd>  (6) 
2.958172454308942

>  <m_score__min__rmsd>  (6) 
2.958172454308942

>  <meeko>  (6) 
{"free_energy": -7.13, "intermolecular_energy": -8.62, "internal_energy": -2.77, "cluster_size": 19, "cluster_id": 1, "rank_in_cluster": 8}

>  <energy>  (6) 
-7.14

>  <cluster_rmsd>  (6) 
1.59

>  <cluster>  (6) 
1

$$$$

     RDKit          3D

 48 51  0  0  0  0  0  0  0  0999 V2000
  139.4430   71.2530  221.0500 O   0  0  0  0  0  0  0  0  0  0  0  0
  139.5080   71.8310  222.1700 C   0  0  0  0  0  0  0  0  0  0  0  0
  139.4910   73.2440  222.3190 N   0  0  0  0  0  0  0  0  0  0  0  0
  139.3950   74.1210  221.1680 C   0  0  0  0  0  0  0  0  0  0  0  0
  140.5490   75.0630  221.1840 C   0  0  0  0  0  0  0  0  0  0  0  0
  141.0290   75.3360  222.3180 O   0  0  0  0  0  0  0  0  0  0  0  0
  141.0590   75.6080  219.9720 N   0  0  0  0  0  0  0  0  0  0  0  0
  140.8090   77.0280  219.6770 C   0  0  0  0  0  0  0  0  0  0  0  0
  142.1180   77.7590  219.4730 C   0  0  0  0  0  0  0  0  0  0  0  0
  143.2190   76.8530  219.0070 C   0  0  0  0  0  0  0  0  0  0  0  0
  142.7350   75.6260  218.2950 C   0  0  0  0  0  0  0  0  0  0  0  0
  141.8050   74.7520  219.0760 C   0  0  1  0  0  0  0  0  0  0  0  0
  142.5860   73.7270  219.8190 C   0  0  0  0  0  0  0  0  0  0  0  0
  143.8870   73.8350  220.2100 N   0  0  0  0  0  0  0  0  0  0  0  0
  144.2460   72.7110  220.8550 C   0  0  0  0  0  0  0  0  0  0  0  0
  143.1280   71.9110  220.8480 C   0  0  0  0  0  0  0  0  0  0  0  0
  142.1050   72.5370  220.2090 N   0  0  0  0  0  0  0  0  0  0  0  0
  139.6070   71.0140  223.3860 C   0  0  0  0  0  0  0  0  0  0  0  0
  139.1580   69.7120  223.4220 C   0  0  0  0  0  0  0  0  0  0  0  0
  139.2370   68.9300  224.5390 C   0  0  0  0  0  0  0  0  0  0  0  0
  139.7960   69.4660  225.6940 C   0  0  0  0  0  0  0  0  0  0  0  0
  139.9170   68.7630  226.8570 C   0  0  0  0  0  0  0  0  0  0  0  0
  140.4810   69.3340  227.9940 C   0  0  0  0  0  0  0  0  0  0  0  0
  140.5650   68.5710  229.1040 F   0  0  0  0  0  0  0  0  0  0  0  0
  140.9300   70.6430  227.9510 C   0  0  0  0  0  0  0  0  0  0  0  0
  140.8110   71.3680  226.7750 C   0  0  0  0  0  0  0  0  0  0  0  0
  140.2430   70.7770  225.6470 C   0  0  0  0  0  0  0  0  0  0  0  0
  140.1480   71.5130  224.5330 N   0  0  0  0  0  0  0  0  0  0  0  0
  139.5500   73.6490  223.3010 H   0  0  0  0  0  0  0  0  0  0  0  0
  139.4186   73.5233  220.2449 H   0  0  0  0  0  0  0  0  0  0  0  0
  138.4516   74.6854  221.2061 H   0  0  0  0  0  0  0  0  0  0  0  0
  140.2024   77.1076  218.7629 H   0  0  0  0  0  0  0  0  0  0  0  0
  140.2737   77.4812  220.5244 H   0  0  0  0  0  0  0  0  0  0  0  0
  141.9678   78.5468  218.7201 H   0  0  0  0  0  0  0  0  0  0  0  0
  142.4202   78.1778  220.4442 H   0  0  0  0  0  0  0  0  0  0  0  0
  143.8663   77.4190  218.3209 H   0  0  0  0  0  0  0  0  0  0  0  0
  143.7532   76.5110  219.9057 H   0  0  0  0  0  0  0  0  0  0  0  0
  142.2114   75.9480  217.3828 H   0  0  0  0  0  0  0  0  0  0  0  0
  143.6302   75.0168  218.1012 H   0  0  0  0  0  0  0  0  0  0  0  0
  141.1081   74.2141  218.4165 H   0  0  0  0  0  0  0  0  0  0  0  0
  145.2273   72.4803  221.2953 H   0  0  0  0  0  0  0  0  0  0  0  0
  143.0699   70.9079  221.2956 H   0  0  0  0  0  0  0  0  0  0  0  0
  141.1810   72.0940  220.1020 H   0  0  0  0  0  0  0  0  0  0  0  0
  138.7162   69.2831  222.5105 H   0  0  0  0  0  0  0  0  0  0  0  0
  138.8651   67.8949  224.5252 H   0  0  0  0  0  0  0  0  0  0  0  0
  139.5613   67.7229  226.8968 H   0  0  0  0  0  0  0  0  0  0  0  0
  141.3779   71.1046  228.8434 H   0  0  0  0  0  0  0  0  0  0  0  0
  141.1645   72.4088  226.7320 H   0  0  0  0  0  0  0  0  0  0  0  0
  1  2  2  0
  2  3  1  0
  3  4  1  0
  4  5  1  0
  5  6  2  0
  5  7  1  0
  7  8  1  0
  8  9  1  0
  9 10  1  0
 10 11  1  0
 11 12  1  0
 12 13  1  0
 13 14  2  0
 14 15  1  0
 15 16  2  0
 16 17  1  0
  2 18  1  0
 18 19  2  0
 19 20  1  0
 20 21  2  0
 21 22  1  0
 22 23  2  0
 23 24  1  0
 23 25  1  0
 25 26  2  0
 26 27  1  0
 27 28  2  0
 12  7  1  0
 17 13  1  0
 28 18  1  0
 27 21  1  0
  3 29  1  0
  4 30  1  0
  4 31  1  0
  8 32  1  0
  8 33  1  0
  9 34  1  0
  9 35  1  0
 10 36  1  0
 10 37  1  0
 11 38  1  0
 11 39  1  0
 12 40  1  6
 15 41  1  0
 16 42  1  0
 17 43  1  0
 19 44  1  0
 20 45  1  0
 22 46  1  0
 25 47  1  0
 26 48  1  0
M  END
>  <smiles>  (7) 
O=C(NCC(=O)N1CCCC[C@H]1c1ncc[nH]1)c1ccc2cc(F)ccc2n1

>  <score_type>  (7) 
oracle

>  <origin>  (7) 
autodockgpu

>  <m_score__min__energy>  (7) 
-7.8799999999999999

>  <m_primary>  (7) 
energy

>  <rmsd>  (7) 
3.3402671968484396

>  <m_score__min__rmsd>  (7) 
3.3402671968484396

>  <meeko>  (7) 
{"free_energy": -6.92, "intermolecular_energy": -8.42, "internal_energy": -2.91, "cluster_size": 15, "cluster_id": 3, "rank_in_cluster": 11}

>  <energy>  (7) 
-7.13

>  <cluster_rmsd>  (7) 
1.57

>  <cluster>  (7) 
1

$$$$

     RDKit          3D

 48 51  0  0  0  0  0  0  0  0999 V2000
  138.5650   75.2780  221.7220 O   0  0  0  0  0  0  0  0  0  0  0  0
  139.7670   75.6550  221.8000 C   0  0  0  0  0  0  0  0  0  0  0  0
  140.8630   74.8480  221.3900 N   0  0  0  0  0  0  0  0  0  0  0  0
  140.6580   73.5190  220.8470 C   0  0  0  0  0  0  0  0  0  0  0  0
  141.7620   73.2130  219.8960 C   0  0  0  0  0  0  0  0  0  0  0  0
  141.4340   73.0810  218.6850 O   0  0  0  0  0  0  0  0  0  0  0  0
  143.1030   73.0820  220.3560 N   0  0  0  0  0  0  0  0  0  0  0  0
  143.6550   71.7310  220.5450 C   0  0  0  0  0  0  0  0  0  0  0  0
  144.9050   71.5540  219.7100 C   0  0  0  0  0  0  0  0  0  0  0  0
  145.6000   72.8540  219.4290 C   0  0  0  0  0  0  0  0  0  0  0  0
  145.3180   73.9250  220.4400 C   0  0  0  0  0  0  0  0  0  0  0  0
  143.8750   74.2770  220.6210 C   0  0  1  0  0  0  0  0  0  0  0  0
  143.5100   75.3820  219.6950 C   0  0  0  0  0  0  0  0  0  0  0  0
  143.6920   75.3930  218.3450 N   0  0  0  0  0  0  0  0  0  0  0  0
  143.2400   76.5600  217.8510 C   0  0  0  0  0  0  0  0  0  0  0  0
  142.7760   77.2630  218.9370 C   0  0  0  0  0  0  0  0  0  0  0  0
  142.9420   76.5370  220.0730 N   0  0  0  0  0  0  0  0  0  0  0  0
  140.0610   76.9880  222.3380 C   0  0  0  0  0  0  0  0  0  0  0  0
  139.0670   77.8060  222.8290 C   0  0  0  0  0  0  0  0  0  0  0  0
  139.3110   79.0510  223.3360 C   0  0  0  0  0  0  0  0  0  0  0  0
  140.6210   79.5180  223.3600 C   0  0  0  0  0  0  0  0  0  0  0  0
  140.9620   80.7470  223.8460 C   0  0  0  0  0  0  0  0  0  0  0  0
  142.2850   81.1810  223.8550 C   0  0  0  0  0  0  0  0  0  0  0  0
  142.5390   82.4090  224.3530 F   0  0  0  0  0  0  0  0  0  0  0  0
  143.2790   80.3540  223.3600 C   0  0  0  0  0  0  0  0  0  0  0  0
  142.9440   79.1030  222.8630 C   0  0  0  0  0  0  0  0  0  0  0  0
  141.6130   78.6880  222.8640 C   0  0  0  0  0  0  0  0  0  0  0  0
  141.3340   77.4740  222.3750 N   0  0  0  0  0  0  0  0  0  0  0  0
  141.8460   75.2420  221.4910 H   0  0  0  0  0  0  0  0  0  0  0  0
  140.6587   72.7820  221.6636 H   0  0  0  0  0  0  0  0  0  0  0  0
  139.6914   73.4743  220.3239 H   0  0  0  0  0  0  0  0  0  0  0  0
  143.9039   71.5857  221.6066 H   0  0  0  0  0  0  0  0  0  0  0  0
  142.9055   70.9903  220.2295 H   0  0  0  0  0  0  0  0  0  0  0  0
  145.5989   70.8931  220.2502 H   0  0  0  0  0  0  0  0  0  0  0  0
  144.6024   71.1224  218.7445 H   0  0  0  0  0  0  0  0  0  0  0  0
  146.6844   72.6704  219.4124 H   0  0  0  0  0  0  0  0  0  0  0  0
  145.2183   73.2179  218.4637 H   0  0  0  0  0  0  0  0  0  0  0  0
  145.7083   73.5856  221.4108 H   0  0  0  0  0  0  0  0  0  0  0  0
  145.8051   74.8349  220.0594 H   0  0  0  0  0  0  0  0  0  0  0  0
  143.6704   74.6278  221.6433 H   0  0  0  0  0  0  0  0  0  0  0  0
  143.2415   76.8833  216.7996 H   0  0  0  0  0  0  0  0  0  0  0  0
  142.3337   78.2692  218.8926 H   0  0  0  0  0  0  0  0  0  0  0  0
  142.6530   76.8980  220.9940 H   0  0  0  0  0  0  0  0  0  0  0  0
  138.0298   77.4401  222.8120 H   0  0  0  0  0  0  0  0  0  0  0  0
  138.4874   79.6721  223.7179 H   0  0  0  0  0  0  0  0  0  0  0  0
  140.1755   81.4082  224.2386 H   0  0  0  0  0  0  0  0  0  0  0  0
  144.3275   80.6868  223.3608 H   0  0  0  0  0  0  0  0  0  0  0  0
  143.7275   78.4392  222.4686 H   0  0  0  0  0  0  0  0  0  0  0  0
  1  2  2  0
  2  3  1  0
  3  4  1  0
  4  5  1  0
  5  6  2  0
  5  7  1  0
  7  8  1  0
  8  9  1  0
  9 10  1  0
 10 11  1  0
 11 12  1  0
 12 13  1  0
 13 14  2  0
 14 15  1  0
 15 16  2  0
 16 17  1  0
  2 18  1  0
 18 19  2  0
 19 20  1  0
 20 21  2  0
 21 22  1  0
 22 23  2  0
 23 24  1  0
 23 25  1  0
 25 26  2  0
 26 27  1  0
 27 28  2  0
 12  7  1  0
 17 13  1  0
 28 18  1  0
 27 21  1  0
  3 29  1  0
  4 30  1  0
  4 31  1  0
  8 32  1  0
  8 33  1  0
  9 34  1  0
  9 35  1  0
 10 36  1  0
 10 37  1  0
 11 38  1  0
 11 39  1  0
 12 40  1  1
 15 41  1  0
 16 42  1  0
 17 43  1  0
 19 44  1  0
 20 45  1  0
 22 46  1  0
 25 47  1  0
 26 48  1  0
M  END
>  <smiles>  (8) 
O=C(NCC(=O)N1CCCC[C@H]1c1ncc[nH]1)c1ccc2cc(F)ccc2n1

>  <score_type>  (8) 
oracle

>  <origin>  (8) 
autodockgpu

>  <m_score__min__energy>  (8) 
-7.8799999999999999

>  <m_primary>  (8) 
energy

>  <rmsd>  (8) 
7.560893252509133

>  <m_score__min__rmsd>  (8) 
7.560893252509133

>  <meeko>  (8) 
{"free_energy": -6.87, "intermolecular_energy": -8.36, "internal_energy": -2.91, "cluster_size": 4, "cluster_id": 5, "rank_in_cluster": 1}

>  <energy>  (8) 
-7.13

>  <cluster_rmsd>  (8) 
1.58

>  <cluster>  (8) 
1

$$$$

     RDKit          3D

 48 51  0  0  0  0  0  0  0  0999 V2000
  138.8520   71.1570  221.1700 O   0  0  0  0  0  0  0  0  0  0  0  0
  139.2200   71.7220  222.2370 C   0  0  0  0  0  0  0  0  0  0  0  0
  139.4530   73.1210  222.3360 N   0  0  0  0  0  0  0  0  0  0  0  0
  139.2750   73.9960  221.1940 C   0  0  0  0  0  0  0  0  0  0  0  0
  140.2910   75.0830  221.2600 C   0  0  0  0  0  0  0  0  0  0  0  0
  140.9350   75.1800  222.3410 O   0  0  0  0  0  0  0  0  0  0  0  0
  140.5020   75.9500  220.1500 N   0  0  0  0  0  0  0  0  0  0  0  0
  139.8350   77.2620  220.1440 C   0  0  0  0  0  0  0  0  0  0  0  0
  140.8590   78.3690  220.0180 C   0  0  0  0  0  0  0  0  0  0  0  0
  142.1160   77.9180  219.3340 C   0  0  0  0  0  0  0  0  0  0  0  0
  141.9240   76.7410  218.4250 C   0  0  0  0  0  0  0  0  0  0  0  0
  141.3600   75.5140  219.0710 C   0  0  1  0  0  0  0  0  0  0  0  0
  142.4690   74.6540  219.5650 C   0  0  0  0  0  0  0  0  0  0  0  0
  143.0370   73.6120  218.8960 N   0  0  0  0  0  0  0  0  0  0  0  0
  144.0050   73.0760  219.6590 C   0  0  0  0  0  0  0  0  0  0  0  0
  144.0150   73.8190  220.8160 C   0  0  0  0  0  0  0  0  0  0  0  0
  143.0680   74.7920  220.7580 N   0  0  0  0  0  0  0  0  0  0  0  0
  139.4230   70.9060  223.4400 C   0  0  0  0  0  0  0  0  0  0  0  0
  139.0540   69.5790  223.4850 C   0  0  0  0  0  0  0  0  0  0  0  0
  139.2310   68.7960  224.5910 C   0  0  0  0  0  0  0  0  0  0  0  0
  139.8080   69.3590  225.7240 C   0  0  0  0  0  0  0  0  0  0  0  0
  140.0230   68.6570  226.8740 C   0  0  0  0  0  0  0  0  0  0  0  0
  140.6030   69.2540  227.9900 C   0  0  0  0  0  0  0  0  0  0  0  0
  140.7830   68.4910  229.0880 F   0  0  0  0  0  0  0  0  0  0  0  0
  140.9700   70.5880  227.9380 C   0  0  0  0  0  0  0  0  0  0  0  0
  140.7560   71.3120  226.7740 C   0  0  0  0  0  0  0  0  0  0  0  0
  140.1740   70.6940  225.6680 C   0  0  0  0  0  0  0  0  0  0  0  0
  139.9850   71.4290  224.5660 N   0  0  0  0  0  0  0  0  0  0  0  0
  139.7620   73.5160  223.2750 H   0  0  0  0  0  0  0  0  0  0  0  0
  139.4068   73.4225  220.2646 H   0  0  0  0  0  0  0  0  0  0  0  0
  138.2635   74.4281  221.2080 H   0  0  0  0  0  0  0  0  0  0  0  0
  139.1395   77.3120  219.2932 H   0  0  0  0  0  0  0  0  0  0  0  0
  139.2842   77.3886  221.0877 H   0  0  0  0  0  0  0  0  0  0  0  0
  140.4179   79.1923  219.4370 H   0  0  0  0  0  0  0  0  0  0  0  0
  141.1299   78.6892  221.0349 H   0  0  0  0  0  0  0  0  0  0  0  0
  142.5058   78.7562  218.7378 H   0  0  0  0  0  0  0  0  0  0  0  0
  142.8133   77.6014  220.1236 H   0  0  0  0  0  0  0  0  0  0  0  0
  141.2407   77.0438  217.6179 H   0  0  0  0  0  0  0  0  0  0  0  0
  142.9287   76.4631  218.0738 H   0  0  0  0  0  0  0  0  0  0  0  0
  140.7763   74.9144  218.3570 H   0  0  0  0  0  0  0  0  0  0  0  0
  144.6529   72.2226  219.4102 H   0  0  0  0  0  0  0  0  0  0  0  0
  144.6922   73.6501  221.6662 H   0  0  0  0  0  0  0  0  0  0  0  0
  142.9210   75.4530  221.5340 H   0  0  0  0  0  0  0  0  0  0  0  0
  138.5967   69.1301  222.5910 H   0  0  0  0  0  0  0  0  0  0  0  0
  138.9228   67.7401  224.5851 H   0  0  0  0  0  0  0  0  0  0  0  0
  139.7320   67.5972  226.9204 H   0  0  0  0  0  0  0  0  0  0  0  0
  141.4282   71.0707  228.8138 H   0  0  0  0  0  0  0  0  0  0  0  0
  141.0451   72.3721  226.7238 H   0  0  0  0  0  0  0  0  0  0  0  0
  1  2  2  0
  2  3  1  0
  3  4  1  0
  4  5  1  0
  5  6  2  0
  5  7  1  0
  7  8  1  0
  8  9  1  0
  9 10  1  0
 10 11  1  0
 11 12  1  0
 12 13  1  0
 13 14  2  0
 14 15  1  0
 15 16  2  0
 16 17  1  0
  2 18  1  0
 18 19  2  0
 19 20  1  0
 20 21  2  0
 21 22  1  0
 22 23  2  0
 23 24  1  0
 23 25  1  0
 25 26  2  0
 26 27  1  0
 27 28  2  0
 12  7  1  0
 17 13  1  0
 28 18  1  0
 27 21  1  0
  3 29  1  0
  4 30  1  0
  4 31  1  0
  8 32  1  0
  8 33  1  0
  9 34  1  0
  9 35  1  0
 10 36  1  0
 10 37  1  0
 11 38  1  0
 11 39  1  0
 12 40  1  6
 15 41  1  0
 16 42  1  0
 17 43  1  0
 19 44  1  0
 20 45  1  0
 22 46  1  0
 25 47  1  0
 26 48  1  0
M  END
>  <smiles>  (9) 
O=C(NCC(=O)N1CCCC[C@H]1c1ncc[nH]1)c1ccc2cc(F)ccc2n1

>  <score_type>  (9) 
oracle

>  <origin>  (9) 
autodockgpu

>  <m_score__min__energy>  (9) 
-7.8799999999999999

>  <m_primary>  (9) 
energy

>  <rmsd>  (9) 
2.952104265593732

>  <m_score__min__rmsd>  (9) 
2.952104265593732

>  <meeko>  (9) 
{"free_energy": -7.02, "intermolecular_energy": -8.51, "internal_energy": -2.82, "cluster_size": 19, "cluster_id": 1, "rank_in_cluster": 15}

>  <energy>  (9) 
-7.12

>  <cluster_rmsd>  (9) 
1.62

>  <cluster>  (9) 
1

$$$$

     RDKit          3D

 48 51  0  0  0  0  0  0  0  0999 V2000
  139.9130   73.6110  222.3850 O   0  0  0  0  0  0  0  0  0  0  0  0
  140.2120   74.5110  221.5520 C   0  0  0  0  0  0  0  0  0  0  0  0
  140.6750   74.2310  220.2370 N   0  0  0  0  0  0  0  0  0  0  0  0
  140.8310   72.8670  219.7690 C   0  0  0  0  0  0  0  0  0  0  0  0
  142.1710   72.7280  219.1360 C   0  0  0  0  0  0  0  0  0  0  0  0
  142.1850   72.6060  217.8800 O   0  0  0  0  0  0  0  0  0  0  0  0
  143.3550   72.7340  219.9280 N   0  0  0  0  0  0  0  0  0  0  0  0
  144.0710   71.4650  220.1350 C   0  0  0  0  0  0  0  0  0  0  0  0
  145.5020   71.5870  219.6570 C   0  0  0  0  0  0  0  0  0  0  0  0
  146.0040   73.0010  219.6950 C   0  0  0  0  0  0  0  0  0  0  0  0
  145.2920   73.8730  220.6850 C   0  0  0  0  0  0  0  0  0  0  0  0
  143.8110   73.9820  220.4990 C   0  0  1  0  0  0  0  0  0  0  0  0
  143.5010   75.1360  219.6140 C   0  0  0  0  0  0  0  0  0  0  0  0
  143.7010   75.1930  218.2670 N   0  0  0  0  0  0  0  0  0  0  0  0
  143.3020   76.3940  217.8140 C   0  0  0  0  0  0  0  0  0  0  0  0
  142.8520   77.0730  218.9220 C   0  0  0  0  0  0  0  0  0  0  0  0
  142.9740   76.2970  220.0310 N   0  0  0  0  0  0  0  0  0  0  0  0
  140.0810   75.9180  221.9470 C   0  0  0  0  0  0  0  0  0  0  0  0
  138.8680   76.4550  222.3220 C   0  0  0  0  0  0  0  0  0  0  0  0
  138.7180   77.7610  222.6940 C   0  0  0  0  0  0  0  0  0  0  0  0
  139.8350   78.5900  222.6970 C   0  0  0  0  0  0  0  0  0  0  0  0
  139.7820   79.9060  223.0520 C   0  0  0  0  0  0  0  0  0  0  0  0
  140.9210   80.7050  223.0430 C   0  0  0  0  0  0  0  0  0  0  0  0
  140.7850   81.9970  223.4090 F   0  0  0  0  0  0  0  0  0  0  0  0
  142.1360   80.1600  222.6650 C   0  0  0  0  0  0  0  0  0  0  0  0
  142.2020   78.8230  222.3010 C   0  0  0  0  0  0  0  0  0  0  0  0
  141.0480   78.0400  222.3180 C   0  0  0  0  0  0  0  0  0  0  0  0
  141.1570   76.7550  221.9590 N   0  0  0  0  0  0  0  0  0  0  0  0
  140.9050   75.0490  219.5980 H   0  0  0  0  0  0  0  0  0  0  0  0
  140.7495   72.1729  220.6185 H   0  0  0  0  0  0  0  0  0  0  0  0
  140.0450   72.6307  219.0366 H   0  0  0  0  0  0  0  0  0  0  0  0
  144.0660   71.2158  221.2064 H   0  0  0  0  0  0  0  0  0  0  0  0
  143.5680   70.6720  219.5621 H   0  0  0  0  0  0  0  0  0  0  0  0
  146.1430   70.9680  220.3020 H   0  0  0  0  0  0  0  0  0  0  0  0
  145.5339   71.2499  218.6104 H   0  0  0  0  0  0  0  0  0  0  0  0
  147.0724   72.9821  219.9559 H   0  0  0  0  0  0  0  0  0  0  0  0
  145.8193   73.4318  218.6999 H   0  0  0  0  0  0  0  0  0  0  0  0
  145.4784   73.4668  221.6901 H   0  0  0  0  0  0  0  0  0  0  0  0
  145.6907   74.8873  220.5359 H   0  0  0  0  0  0  0  0  0  0  0  0
  143.2966   74.1584  221.4552 H   0  0  0  0  0  0  0  0  0  0  0  0
  143.3296   76.7571  216.7760 H   0  0  0  0  0  0  0  0  0  0  0  0
  142.4509   78.0972  218.9121 H   0  0  0  0  0  0  0  0  0  0  0  0
  142.6890   76.6330  220.9620 H   0  0  0  0  0  0  0  0  0  0  0  0
  137.9818   75.8033  222.3217 H   0  0  0  0  0  0  0  0  0  0  0  0
  137.7314   78.1501  222.9860 H   0  0  0  0  0  0  0  0  0  0  0  0
  138.8188   80.3446  223.3516 H   0  0  0  0  0  0  0  0  0  0  0  0
  143.0427   80.7827  222.6533 H   0  0  0  0  0  0  0  0  0  0  0  0
  143.1631   78.3810  221.9994 H   0  0  0  0  0  0  0  0  0  0  0  0
  1  2  2  0
  2  3  1  0
  3  4  1  0
  4  5  1  0
  5  6  2  0
  5  7  1  0
  7  8  1  0
  8  9  1  0
  9 10  1  0
 10 11  1  0
 11 12  1  0
 12 13  1  0
 13 14  2  0
 14 15  1  0
 15 16  2  0
 16 17  1  0
  2 18  1  0
 18 19  2  0
 19 20  1  0
 20 21  2  0
 21 22  1  0
 22 23  2  0
 23 24  1  0
 23 25  1  0
 25 26  2  0
 26 27  1  0
 27 28  2  0
 12  7  1  0
 17 13  1  0
 28 18  1  0
 27 21  1  0
  3 29  1  0
  4 30  1  0
  4 31  1  0
  8 32  1  0
  8 33  1  0
  9 34  1  0
  9 35  1  0
 10 36  1  0
 10 37  1  0
 11 38  1  0
 11 39  1  0
 12 40  1  1
 15 41  1  0
 16 42  1  0
 17 43  1  0
 19 44  1  0
 20 45  1  0
 22 46  1  0
 25 47  1  0
 26 48  1  0
M  END
>  <smiles>  (10) 
O=C(NCC(=O)N1CCCC[C@H]1c1ncc[nH]1)c1ccc2cc(F)ccc2n1

>  <score_type>  (10) 
oracle

>  <origin>  (10) 
autodockgpu

>  <m_score__min__energy>  (10) 
-7.8799999999999999

>  <m_primary>  (10) 
energy

>  <rmsd>  (10) 
7.345368480515237

>  <m_score__min__rmsd>  (10) 
7.345368480515237

>  <meeko>  (10) 
{"free_energy": -6.58, "intermolecular_energy": -8.07, "internal_energy": -2.77, "cluster_size": 4, "cluster_id": 5, "rank_in_cluster": 4}

>  <energy>  (10) 
-7.11

>  <cluster_rmsd>  (10) 
1.6

>  <cluster>  (10) 
1

$$$$

     RDKit          3D

 48 51  0  0  0  0  0  0  0  0999 V2000
  139.4630   71.0430  220.9340 O   0  0  0  0  0  0  0  0  0  0  0  0
  139.5260   71.6640  222.0320 C   0  0  0  0  0  0  0  0  0  0  0  0
  139.5360   73.0820  222.1250 N   0  0  0  0  0  0  0  0  0  0  0  0
  139.4710   73.9140  220.9380 C   0  0  0  0  0  0  0  0  0  0  0  0
  140.2670   75.1500  221.1760 C   0  0  0  0  0  0  0  0  0  0  0  0
  140.7130   75.3110  222.3450 O   0  0  0  0  0  0  0  0  0  0  0  0
  140.4950   76.0820  220.1230 N   0  0  0  0  0  0  0  0  0  0  0  0
  139.8090   77.3830  220.1720 C   0  0  0  0  0  0  0  0  0  0  0  0
  140.8200   78.5090  220.1380 C   0  0  0  0  0  0  0  0  0  0  0  0
  142.1020   78.1140  219.4640 C   0  0  0  0  0  0  0  0  0  0  0  0
  141.9520   76.9880  218.4860 C   0  0  0  0  0  0  0  0  0  0  0  0
  141.3890   75.7190  219.0460 C   0  0  1  0  0  0  0  0  0  0  0  0
  142.4960   74.8470  219.5210 C   0  0  0  0  0  0  0  0  0  0  0  0
  143.1610   73.9160  218.7810 N   0  0  0  0  0  0  0  0  0  0  0  0
  144.0940   73.3280  219.5500 C   0  0  0  0  0  0  0  0  0  0  0  0
  143.9810   73.9240  220.7840 C   0  0  0  0  0  0  0  0  0  0  0  0
  142.9970   74.8610  220.7660 N   0  0  0  0  0  0  0  0  0  0  0  0
  139.5940   70.8950  223.2800 C   0  0  0  0  0  0  0  0  0  0  0  0
  139.1420   69.5950  223.3550 C   0  0  0  0  0  0  0  0  0  0  0  0
  139.1930   68.8560  224.5040 C   0  0  0  0  0  0  0  0  0  0  0  0
  139.7240   69.4370  225.6500 C   0  0  0  0  0  0  0  0  0  0  0  0
  139.8160   68.7780  226.8420 C   0  0  0  0  0  0  0  0  0  0  0  0
  140.3530   69.3920  227.9690 C   0  0  0  0  0  0  0  0  0  0  0  0
  140.4100   68.6720  229.1090 F   0  0  0  0  0  0  0  0  0  0  0  0
  140.8050   70.6980  227.8870 C   0  0  0  0  0  0  0  0  0  0  0  0
  140.7170   71.3780  226.6810 C   0  0  0  0  0  0  0  0  0  0  0  0
  140.1750   70.7440  225.5640 C   0  0  0  0  0  0  0  0  0  0  0  0
  140.1080   71.4370  224.4200 N   0  0  0  0  0  0  0  0  0  0  0  0
  139.5920   73.5250  223.0900 H   0  0  0  0  0  0  0  0  0  0  0  0
  139.8860   73.3663  220.0791 H   0  0  0  0  0  0  0  0  0  0  0  0
  138.4251   74.1779  220.7226 H   0  0  0  0  0  0  0  0  0  0  0  0
  139.1368   77.4721  219.3059 H   0  0  0  0  0  0  0  0  0  0  0  0
  139.2302   77.4485  221.1051 H   0  0  0  0  0  0  0  0  0  0  0  0
  140.3828   79.3586  219.5931 H   0  0  0  0  0  0  0  0  0  0  0  0
  141.0587   78.7738  221.1786 H   0  0  0  0  0  0  0  0  0  0  0  0
  142.4948   78.9896  218.9265 H   0  0  0  0  0  0  0  0  0  0  0  0
  142.7828   77.7628  220.2534 H   0  0  0  0  0  0  0  0  0  0  0  0
  141.2863   77.3268  217.6785 H   0  0  0  0  0  0  0  0  0  0  0  0
  142.9699   76.7437  218.1481 H   0  0  0  0  0  0  0  0  0  0  0  0
  140.8341   75.1529  218.2834 H   0  0  0  0  0  0  0  0  0  0  0  0
  144.7990   72.5370  219.2544 H   0  0  0  0  0  0  0  0  0  0  0  0
  144.5987   73.6776  221.6602 H   0  0  0  0  0  0  0  0  0  0  0  0
  142.7620   75.4160  221.6010 H   0  0  0  0  0  0  0  0  0  0  0  0
  138.7216   69.1316  222.4502 H   0  0  0  0  0  0  0  0  0  0  0  0
  138.8208   67.8210  224.5215 H   0  0  0  0  0  0  0  0  0  0  0  0
  139.4582   67.7402  226.9128 H   0  0  0  0  0  0  0  0  0  0  0  0
  141.2310   71.1931  228.7721 H   0  0  0  0  0  0  0  0  0  0  0  0
  141.0743   72.4157  226.6063 H   0  0  0  0  0  0  0  0  0  0  0  0
  1  2  2  0
  2  3  1  0
  3  4  1  0
  4  5  1  0
  5  6  2  0
  5  7  1  0
  7  8  1  0
  8  9  1  0
  9 10  1  0
 10 11  1  0
 11 12  1  0
 12 13  1  0
 13 14  2  0
 14 15  1  0
 15 16  2  0
 16 17  1  0
  2 18  1  0
 18 19  2  0
 19 20  1  0
 20 21  2  0
 21 22  1  0
 22 23  2  0
 23 24  1  0
 23 25  1  0
 25 26  2  0
 26 27  1  0
 27 28  2  0
 12  7  1  0
 17 13  1  0
 28 18  1  0
 27 21  1  0
  3 29  1  0
  4 30  1  0
  4 31  1  0
  8 32  1  0
  8 33  1  0
  9 34  1  0
  9 35  1  0
 10 36  1  0
 10 37  1  0
 11 38  1  0
 11 39  1  0
 12 40  1  6
 15 41  1  0
 16 42  1  0
 17 43  1  0
 19 44  1  0
 20 45  1  0
 22 46  1  0
 25 47  1  0
 26 48  1  0
M  END
>  <smiles>  (11) 
O=C(NCC(=O)N1CCCC[C@H]1c1ncc[nH]1)c1ccc2cc(F)ccc2n1

>  <score_type>  (11) 
oracle

>  <origin>  (11) 
autodockgpu

>  <m_score__min__energy>  (11) 
-7.8799999999999999

>  <m_primary>  (11) 
energy

>  <rmsd>  (11) 
2.9457430072158703

>  <m_score__min__rmsd>  (11) 
2.9457430072158703

>  <meeko>  (11) 
{"free_energy": -7.13, "intermolecular_energy": -8.63, "internal_energy": -2.75, "cluster_size": 19, "cluster_id": 1, "rank_in_cluster": 7}

>  <energy>  (11) 
-7.09

>  <cluster_rmsd>  (11) 
1.73

>  <cluster>  (11) 
1

$$$$

     RDKit          3D

 48 51  0  0  0  0  0  0  0  0999 V2000
  139.0570   71.1690  221.0770 O   0  0  0  0  0  0  0  0  0  0  0  0
  139.3310   71.7520  222.1620 C   0  0  0  0  0  0  0  0  0  0  0  0
  139.4920   73.1600  222.2700 N   0  0  0  0  0  0  0  0  0  0  0  0
  139.3460   74.0250  221.1150 C   0  0  0  0  0  0  0  0  0  0  0  0
  140.3150   75.1500  221.2320 C   0  0  0  0  0  0  0  0  0  0  0  0
  140.8980   75.2700  222.3440 O   0  0  0  0  0  0  0  0  0  0  0  0
  140.5480   76.0260  220.1340 N   0  0  0  0  0  0  0  0  0  0  0  0
  139.8990   77.3460  220.1350 C   0  0  0  0  0  0  0  0  0  0  0  0
  140.9380   78.4410  220.0330 C   0  0  0  0  0  0  0  0  0  0  0  0
  142.1970   77.9810  219.3570 C   0  0  0  0  0  0  0  0  0  0  0  0
  142.0000   76.8160  218.4340 C   0  0  0  0  0  0  0  0  0  0  0  0
  141.4130   75.5900  219.0600 C   0  0  1  0  0  0  0  0  0  0  0  0
  142.5050   74.7110  219.5570 C   0  0  0  0  0  0  0  0  0  0  0  0
  143.0860   73.6860  218.8720 N   0  0  0  0  0  0  0  0  0  0  0  0
  144.0320   73.1230  219.6440 C   0  0  0  0  0  0  0  0  0  0  0  0
  144.0150   73.8320  220.8220 C   0  0  0  0  0  0  0  0  0  0  0  0
  143.0740   74.8110  220.7680 N   0  0  0  0  0  0  0  0  0  0  0  0
  139.4950   70.9480  223.3800 C   0  0  0  0  0  0  0  0  0  0  0  0
  139.0940   69.6310  223.4360 C   0  0  0  0  0  0  0  0  0  0  0  0
  139.2340   68.8600  224.5550 C   0  0  0  0  0  0  0  0  0  0  0  0
  139.8060   69.4240  225.6900 C   0  0  0  0  0  0  0  0  0  0  0  0
  139.9870   68.7340  226.8530 C   0  0  0  0  0  0  0  0  0  0  0  0
  140.5630   69.3320  227.9700 C   0  0  0  0  0  0  0  0  0  0  0  0
  140.7070   68.5810  229.0810 F   0  0  0  0  0  0  0  0  0  0  0  0
  140.9620   70.6560  227.9060 C   0  0  0  0  0  0  0  0  0  0  0  0
  140.7840   71.3690  226.7290 C   0  0  0  0  0  0  0  0  0  0  0  0
  140.2040   70.7500  225.6220 C   0  0  0  0  0  0  0  0  0  0  0  0
  140.0510   71.4740  224.5070 N   0  0  0  0  0  0  0  0  0  0  0  0
  139.7230   73.5710  223.2240 H   0  0  0  0  0  0  0  0  0  0  0  0
  139.5513   73.4542  220.1974 H   0  0  0  0  0  0  0  0  0  0  0  0
  138.3199   74.4188  221.0705 H   0  0  0  0  0  0  0  0  0  0  0  0
  139.2140   77.4144  219.2770 H   0  0  0  0  0  0  0  0  0  0  0  0
  139.3395   77.4694  221.0740 H   0  0  0  0  0  0  0  0  0  0  0  0
  140.5139   79.2766  219.4569 H   0  0  0  0  0  0  0  0  0  0  0  0
  141.2018   78.7464  221.0563 H   0  0  0  0  0  0  0  0  0  0  0  0
  142.6034   78.8203  218.7735 H   0  0  0  0  0  0  0  0  0  0  0  0
  142.8820   77.6475  220.1505 H   0  0  0  0  0  0  0  0  0  0  0  0
  141.3299   77.1361  217.6225 H   0  0  0  0  0  0  0  0  0  0  0  0
  143.0051   76.5286  218.0918 H   0  0  0  0  0  0  0  0  0  0  0  0
  140.8298   75.0054  218.3333 H   0  0  0  0  0  0  0  0  0  0  0  0
  144.6826   72.2740  219.3872 H   0  0  0  0  0  0  0  0  0  0  0  0
  144.6691   73.6351  221.6842 H   0  0  0  0  0  0  0  0  0  0  0  0
  142.9110   75.4500  221.5590 H   0  0  0  0  0  0  0  0  0  0  0  0
  138.6412   69.1806  222.5404 H   0  0  0  0  0  0  0  0  0  0  0  0
  138.9002   67.8119  224.5581 H   0  0  0  0  0  0  0  0  0  0  0  0
  139.6707   67.6819  226.9091 H   0  0  0  0  0  0  0  0  0  0  0  0
  141.4173   71.1398  228.7827 H   0  0  0  0  0  0  0  0  0  0  0  0
  141.0999   72.4210  226.6692 H   0  0  0  0  0  0  0  0  0  0  0  0
  1  2  2  0
  2  3  1  0
  3  4  1  0
  4  5  1  0
  5  6  2  0
  5  7  1  0
  7  8  1  0
  8  9  1  0
  9 10  1  0
 10 11  1  0
 11 12  1  0
 12 13  1  0
 13 14  2  0
 14 15  1  0
 15 16  2  0
 16 17  1  0
  2 18  1  0
 18 19  2  0
 19 20  1  0
 20 21  2  0
 21 22  1  0
 22 23  2  0
 23 24  1  0
 23 25  1  0
 25 26  2  0
 26 27  1  0
 27 28  2  0
 12  7  1  0
 17 13  1  0
 28 18  1  0
 27 21  1  0
  3 29  1  0
  4 30  1  0
  4 31  1  0
  8 32  1  0
  8 33  1  0
  9 34  1  0
  9 35  1  0
 10 36  1  0
 10 37  1  0
 11 38  1  0
 11 39  1  0
 12 40  1  6
 15 41  1  0
 16 42  1  0
 17 43  1  0
 19 44  1  0
 20 45  1  0
 22 46  1  0
 25 47  1  0
 26 48  1  0
M  END
>  <smiles>  (12) 
O=C(NCC(=O)N1CCCC[C@H]1c1ncc[nH]1)c1ccc2cc(F)ccc2n1

>  <score_type>  (12) 
oracle

>  <origin>  (12) 
autodockgpu

>  <m_score__min__energy>  (12) 
-7.8799999999999999

>  <m_primary>  (12) 
energy

>  <rmsd>  (12) 
2.9631248688194485

>  <m_score__min__rmsd>  (12) 
2.9631248688194485

>  <meeko>  (12) 
{"free_energy": -7.07, "intermolecular_energy": -8.56, "internal_energy": -2.8, "cluster_size": 19, "cluster_id": 1, "rank_in_cluster": 12}

>  <energy>  (12) 
-7.07

>  <cluster_rmsd>  (12) 
1.64

>  <cluster>  (12) 
1

$$$$

     RDKit          3D

 48 51  0  0  0  0  0  0  0  0999 V2000
  140.4370   71.6200  220.9960 O   0  0  0  0  0  0  0  0  0  0  0  0
  140.0180   72.1340  222.0700 C   0  0  0  0  0  0  0  0  0  0  0  0
  139.5250   73.4640  222.1560 N   0  0  0  0  0  0  0  0  0  0  0  0
  139.4750   74.3250  220.9890 C   0  0  0  0  0  0  0  0  0  0  0  0
  140.7220   75.1370  220.9390 C   0  0  0  0  0  0  0  0  0  0  0  0
  141.3660   75.2380  222.0180 O   0  0  0  0  0  0  0  0  0  0  0  0
  141.1380   75.7560  219.7250 N   0  0  0  0  0  0  0  0  0  0  0  0
  140.5570   77.0580  219.3620 C   0  0  0  0  0  0  0  0  0  0  0  0
  141.6520   78.0860  219.1780 C   0  0  0  0  0  0  0  0  0  0  0  0
  142.9650   77.4690  218.7920 C   0  0  0  0  0  0  0  0  0  0  0  0
  142.8350   76.1390  218.1130 C   0  0  0  0  0  0  0  0  0  0  0  0
  142.1140   75.0850  218.8950 C   0  0  1  0  0  0  0  0  0  0  0  0
  143.0880   74.3110  219.7080 C   0  0  0  0  0  0  0  0  0  0  0  0
  144.3110   74.7450  220.1260 N   0  0  0  0  0  0  0  0  0  0  0  0
  144.9030   73.7690  220.8370 C   0  0  0  0  0  0  0  0  0  0  0  0
  144.0090   72.7250  220.8430 C   0  0  0  0  0  0  0  0  0  0  0  0
  142.8910   73.0590  220.1470 N   0  0  0  0  0  0  0  0  0  0  0  0
  140.0350   71.3280  223.2970 C   0  0  0  0  0  0  0  0  0  0  0  0
  139.5760   70.0290  223.3170 C   0  0  0  0  0  0  0  0  0  0  0  0
  139.5800   69.2570  224.4440 C   0  0  0  0  0  0  0  0  0  0  0  0
  140.0680   69.8010  225.6270 C   0  0  0  0  0  0  0  0  0  0  0  0
  140.1110   69.1080  226.8010 C   0  0  0  0  0  0  0  0  0  0  0  0
  140.6070   69.6870  227.9660 C   0  0  0  0  0  0  0  0  0  0  0  0
  140.6160   68.9340  229.0860 F   0  0  0  0  0  0  0  0  0  0  0  0
  141.0660   70.9920  227.9390 C   0  0  0  0  0  0  0  0  0  0  0  0
  141.0270   71.7080  226.7510 C   0  0  0  0  0  0  0  0  0  0  0  0
  140.5260   71.1090  225.5960 C   0  0  0  0  0  0  0  0  0  0  0  0
  140.5060   71.8350  224.4710 N   0  0  0  0  0  0  0  0  0  0  0  0
  139.1910   73.8190  223.1010 H   0  0  0  0  0  0  0  0  0  0  0  0
  139.3967   73.7111  220.0796 H   0  0  0  0  0  0  0  0  0  0  0  0
  138.5992   74.9878  221.0504 H   0  0  0  0  0  0  0  0  0  0  0  0
  139.9936   76.9553  218.4229 H   0  0  0  0  0  0  0  0  0  0  0  0
  139.8860   77.3889  220.1684 H   0  0  0  0  0  0  0  0  0  0  0  0
  141.3469   78.7879  218.3879 H   0  0  0  0  0  0  0  0  0  0  0  0
  141.7946   78.5966  220.1418 H   0  0  0  0  0  0  0  0  0  0  0  0
  143.4836   78.1575  218.1086 H   0  0  0  0  0  0  0  0  0  0  0  0
  143.5238   77.2983  219.7240 H   0  0  0  0  0  0  0  0  0  0  0  0
  142.2917   76.2919  217.1688 H   0  0  0  0  0  0  0  0  0  0  0  0
  143.8612   75.7667  217.9780 H   0  0  0  0  0  0  0  0  0  0  0  0
  141.6033   74.3699  218.2333 H   0  0  0  0  0  0  0  0  0  0  0  0
  145.8940   73.7997  221.3134 H   0  0  0  0  0  0  0  0  0  0  0  0
  144.1749   71.7578  221.3400 H   0  0  0  0  0  0  0  0  0  0  0  0
  142.1040   72.4030  220.0390 H   0  0  0  0  0  0  0  0  0  0  0  0
  139.1890   69.5941  222.3837 H   0  0  0  0  0  0  0  0  0  0  0  0
  139.2040   68.2236  224.4162 H   0  0  0  0  0  0  0  0  0  0  0  0
  139.7464   68.0705  226.8279 H   0  0  0  0  0  0  0  0  0  0  0  0
  141.4595   71.4591  228.8538 H   0  0  0  0  0  0  0  0  0  0  0  0
  141.3905   72.7458  226.7206 H   0  0  0  0  0  0  0  0  0  0  0  0
  1  2  2  0
  2  3  1  0
  3  4  1  0
  4  5  1  0
  5  6  2  0
  5  7  1  0
  7  8  1  0
  8  9  1  0
  9 10  1  0
 10 11  1  0
 11 12  1  0
 12 13  1  0
 13 14  2  0
 14 15  1  0
 15 16  2  0
 16 17  1  0
  2 18  1  0
 18 19  2  0
 19 20  1  0
 20 21  2  0
 21 22  1  0
 22 23  2  0
 23 24  1  0
 23 25  1  0
 25 26  2  0
 26 27  1  0
 27 28  2  0
 12  7  1  0
 17 13  1  0
 28 18  1  0
 27 21  1  0
  3 29  1  0
  4 30  1  0
  4 31  1  0
  8 32  1  0
  8 33  1  0
  9 34  1  0
  9 35  1  0
 10 36  1  0
 10 37  1  0
 11 38  1  0
 11 39  1  0
 12 40  1  6
 15 41  1  0
 16 42  1  0
 17 43  1  0
 19 44  1  0
 20 45  1  0
 22 46  1  0
 25 47  1  0
 26 48  1  0
M  END
>  <smiles>  (13) 
O=C(NCC(=O)N1CCCC[C@H]1c1ncc[nH]1)c1ccc2cc(F)ccc2n1

>  <score_type>  (13) 
oracle

>  <origin>  (13) 
autodockgpu

>  <m_score__min__energy>  (13) 
-7.8799999999999999

>  <m_primary>  (13) 
energy

>  <rmsd>  (13) 
3.1655557756948265

>  <m_score__min__rmsd>  (13) 
3.1655557756948265

>  <meeko>  (13) 
{"free_energy": -7.27, "intermolecular_energy": -8.76, "internal_energy": -2.53, "cluster_size": 15, "cluster_id": 3, "rank_in_cluster": 4}

>  <energy>  (13) 
-7.06

>  <cluster_rmsd>  (13) 
1.37

>  <cluster>  (13) 
1

$$$$

     RDKit          3D

 48 51  0  0  0  0  0  0  0  0999 V2000
  139.6860   71.0110  220.9990 O   0  0  0  0  0  0  0  0  0  0  0  0
  139.6200   71.6150  222.1050 C   0  0  0  0  0  0  0  0  0  0  0  0
  139.4720   73.0250  222.2140 N   0  0  0  0  0  0  0  0  0  0  0  0
  139.3860   73.8650  221.0360 C   0  0  0  0  0  0  0  0  0  0  0  0
  140.3690   74.9770  221.1660 C   0  0  0  0  0  0  0  0  0  0  0  0
  140.7070   75.2870  222.3410 O   0  0  0  0  0  0  0  0  0  0  0  0
  140.8810   75.6350  220.0120 N   0  0  0  0  0  0  0  0  0  0  0  0
  140.5190   77.0430  219.7840 C   0  0  0  0  0  0  0  0  0  0  0  0
  141.7660   77.8950  219.6830 C   0  0  0  0  0  0  0  0  0  0  0  0
  142.9610   77.1150  219.2200 C   0  0  0  0  0  0  0  0  0  0  0  0
  142.6180   75.8950  218.4190 C   0  0  0  0  0  0  0  0  0  0  0  0
  141.7360   74.9000  219.1060 C   0  0  1  0  0  0  0  0  0  0  0  0
  142.5720   73.9040  219.8270 C   0  0  0  0  0  0  0  0  0  0  0  0
  143.8710   74.0680  220.2060 N   0  0  0  0  0  0  0  0  0  0  0  0
  144.2890   72.9540  220.8320 C   0  0  0  0  0  0  0  0  0  0  0  0
  143.2100   72.1020  220.8270 C   0  0  0  0  0  0  0  0  0  0  0  0
  142.1520   72.6880  220.2070 N   0  0  0  0  0  0  0  0  0  0  0  0
  139.6990   70.8360  223.3470 C   0  0  0  0  0  0  0  0  0  0  0  0
  139.2190   69.5470  223.4240 C   0  0  0  0  0  0  0  0  0  0  0  0
  139.2790   68.7990  224.5660 C   0  0  0  0  0  0  0  0  0  0  0  0
  139.8500   69.3590  225.7040 C   0  0  0  0  0  0  0  0  0  0  0  0
  139.9540   68.6910  226.8880 C   0  0  0  0  0  0  0  0  0  0  0  0
  140.5320   69.2840  228.0070 C   0  0  0  0  0  0  0  0  0  0  0  0
  140.5980   68.5550  229.1410 F   0  0  0  0  0  0  0  0  0  0  0  0
  141.0120   70.5790  227.9220 C   0  0  0  0  0  0  0  0  0  0  0  0
  140.9120   71.2700  226.7230 C   0  0  0  0  0  0  0  0  0  0  0  0
  140.3290   70.6560  225.6150 C   0  0  0  0  0  0  0  0  0  0  0  0
  140.2520   71.3580  224.4780 N   0  0  0  0  0  0  0  0  0  0  0  0
  139.4250   73.4540  223.1860 H   0  0  0  0  0  0  0  0  0  0  0  0
  139.6172   73.2701  220.1401 H   0  0  0  0  0  0  0  0  0  0  0  0
  138.3692   74.2742  220.9424 H   0  0  0  0  0  0  0  0  0  0  0  0
  139.9472   77.1239  218.8478 H   0  0  0  0  0  0  0  0  0  0  0  0
  139.9101   77.3977  220.6286 H   0  0  0  0  0  0  0  0  0  0  0  0
  141.5789   78.7102  218.9686 H   0  0  0  0  0  0  0  0  0  0  0  0
  141.9888   78.2805  220.6888 H   0  0  0  0  0  0  0  0  0  0  0  0
  143.5845   77.7737  218.5976 H   0  0  0  0  0  0  0  0  0  0  0  0
  143.4841   76.7670  220.1229 H   0  0  0  0  0  0  0  0  0  0  0  0
  142.1074   76.2242  217.5020 H   0  0  0  0  0  0  0  0  0  0  0  0
  143.5708   75.3772  218.2345 H   0  0  0  0  0  0  0  0  0  0  0  0
  141.1172   74.3445  218.3859 H   0  0  0  0  0  0  0  0  0  0  0  0
  145.2850   72.7641  221.2585 H   0  0  0  0  0  0  0  0  0  0  0  0
  143.2039   71.0917  221.2621 H   0  0  0  0  0  0  0  0  0  0  0  0
  141.2490   72.2040  220.1040 H   0  0  0  0  0  0  0  0  0  0  0  0
  138.7673   69.1000  222.5262 H   0  0  0  0  0  0  0  0  0  0  0  0
  138.8830   67.7729  224.5850 H   0  0  0  0  0  0  0  0  0  0  0  0
  139.5731   67.6616  226.9606 H   0  0  0  0  0  0  0  0  0  0  0  0
  141.4702   71.0579  228.7999 H   0  0  0  0  0  0  0  0  0  0  0  0
  141.2917   72.2996  226.6466 H   0  0  0  0  0  0  0  0  0  0  0  0
  1  2  2  0
  2  3  1  0
  3  4  1  0
  4  5  1  0
  5  6  2  0
  5  7  1  0
  7  8  1  0
  8  9  1  0
  9 10  1  0
 10 11  1  0
 11 12  1  0
 12 13  1  0
 13 14  2  0
 14 15  1  0
 15 16  2  0
 16 17  1  0
  2 18  1  0
 18 19  2  0
 19 20  1  0
 20 21  2  0
 21 22  1  0
 22 23  2  0
 23 24  1  0
 23 25  1  0
 25 26  2  0
 26 27  1  0
 27 28  2  0
 12  7  1  0
 17 13  1  0
 28 18  1  0
 27 21  1  0
  3 29  1  0
  4 30  1  0
  4 31  1  0
  8 32  1  0
  8 33  1  0
  9 34  1  0
  9 35  1  0
 10 36  1  0
 10 37  1  0
 11 38  1  0
 11 39  1  0
 12 40  1  6
 15 41  1  0
 16 42  1  0
 17 43  1  0
 19 44  1  0
 20 45  1  0
 22 46  1  0
 25 47  1  0
 26 48  1  0
M  END
>  <smiles>  (14) 
O=C(NCC(=O)N1CCCC[C@H]1c1ncc[nH]1)c1ccc2cc(F)ccc2n1

>  <score_type>  (14) 
oracle

>  <origin>  (14) 
autodockgpu

>  <m_score__min__energy>  (14) 
-7.8799999999999999

>  <m_primary>  (14) 
energy

>  <rmsd>  (14) 
3.255037867132368

>  <m_score__min__rmsd>  (14) 
3.255037867132368

>  <meeko>  (14) 
{"free_energy": -6.98, "intermolecular_energy": -8.47, "internal_energy": -2.86, "cluster_size": 15, "cluster_id": 3, "rank_in_cluster": 10}

>  <energy>  (14) 
-7.05

>  <cluster_rmsd>  (14) 
1.75

>  <cluster>  (14) 
1

$$$$

     RDKit          3D

 48 51  0  0  0  0  0  0  0  0999 V2000
  138.8820   70.6970  221.4660 O   0  0  0  0  0  0  0  0  0  0  0  0
  139.1760   71.2410  222.5670 C   0  0  0  0  0  0  0  0  0  0  0  0
  139.3170   72.6460  222.7280 N   0  0  0  0  0  0  0  0  0  0  0  0
  139.1280   73.5530  221.6130 C   0  0  0  0  0  0  0  0  0  0  0  0
  140.2420   74.5430  221.6050 C   0  0  0  0  0  0  0  0  0  0  0  0
  141.3700   74.1140  221.9710 O   0  0  0  0  0  0  0  0  0  0  0  0
  140.0150   75.8900  221.2020 N   0  0  0  0  0  0  0  0  0  0  0  0
  139.2630   76.7780  222.1030 C   0  0  0  0  0  0  0  0  0  0  0  0
  140.0920   77.9960  222.4480 C   0  0  0  0  0  0  0  0  0  0  0  0
  141.1080   78.3220  221.3930 C   0  0  0  0  0  0  0  0  0  0  0  0
  140.7500   77.8150  220.0280 C   0  0  0  0  0  0  0  0  0  0  0  0
  140.5310   76.3370  219.9270 C   0  0  1  0  0  0  0  0  0  0  0  0
  141.8120   75.6630  219.5850 C   0  0  0  0  0  0  0  0  0  0  0  0
  142.1760   75.2080  218.3540 N   0  0  0  0  0  0  0  0  0  0  0  0
  143.4010   74.6580  218.4350 C   0  0  0  0  0  0  0  0  0  0  0  0
  143.7760   74.7890  219.7510 C   0  0  0  0  0  0  0  0  0  0  0  0
  142.7970   75.4090  220.4590 N   0  0  0  0  0  0  0  0  0  0  0  0
  139.3830   70.3920  223.7470 C   0  0  0  0  0  0  0  0  0  0  0  0
  139.0040   69.0670  223.7600 C   0  0  0  0  0  0  0  0  0  0  0  0
  139.1850   68.2540  224.8430 C   0  0  0  0  0  0  0  0  0  0  0  0
  139.7780   68.7820  225.9850 C   0  0  0  0  0  0  0  0  0  0  0  0
  139.9990   68.0480  227.1140 C   0  0  0  0  0  0  0  0  0  0  0  0
  140.5960   68.6110  228.2380 C   0  0  0  0  0  0  0  0  0  0  0  0
  140.7810   67.8170  229.3140 F   0  0  0  0  0  0  0  0  0  0  0  0
  140.9750   69.9420  228.2180 C   0  0  0  0  0  0  0  0  0  0  0  0
  140.7540   70.6980  227.0760 C   0  0  0  0  0  0  0  0  0  0  0  0
  140.1550   70.1150  225.9600 C   0  0  0  0  0  0  0  0  0  0  0  0
  139.9610   70.8800  224.8800 N   0  0  0  0  0  0  0  0  0  0  0  0
  139.5670   73.0210  223.6910 H   0  0  0  0  0  0  0  0  0  0  0  0
  139.1307   72.9858  220.6705 H   0  0  0  0  0  0  0  0  0  0  0  0
  138.1650   74.0748  221.7148 H   0  0  0  0  0  0  0  0  0  0  0  0
  138.3354   77.0986  221.6063 H   0  0  0  0  0  0  0  0  0  0  0  0
  139.0245   76.2324  223.0279 H   0  0  0  0  0  0  0  0  0  0  0  0
  139.4189   78.8579  222.5667 H   0  0  0  0  0  0  0  0  0  0  0  0
  140.6371   77.7748  223.3775 H   0  0  0  0  0  0  0  0  0  0  0  0
  141.2134   79.4156  221.3397 H   0  0  0  0  0  0  0  0  0  0  0  0
  142.0432   77.8215  221.6846 H   0  0  0  0  0  0  0  0  0  0  0  0
  139.8239   78.3174  219.7119 H   0  0  0  0  0  0  0  0  0  0  0  0
  141.6155   78.0369  219.3864 H   0  0  0  0  0  0  0  0  0  0  0  0
  139.8120   76.0887  219.1324 H   0  0  0  0  0  0  0  0  0  0  0  0
  143.9805   74.2000  217.6199 H   0  0  0  0  0  0  0  0  0  0  0  0
  144.7317   74.4416  220.1703 H   0  0  0  0  0  0  0  0  0  0  0  0
  142.8940   75.5980  221.4670 H   0  0  0  0  0  0  0  0  0  0  0  0
  138.5351   68.6454  222.8587 H   0  0  0  0  0  0  0  0  0  0  0  0
  138.8676   67.2012  224.8124 H   0  0  0  0  0  0  0  0  0  0  0  0
  139.6992   66.9899  227.1361 H   0  0  0  0  0  0  0  0  0  0  0  0
  141.4479   70.3969  229.1009 H   0  0  0  0  0  0  0  0  0  0  0  0
  141.0512   71.7568  227.0509 H   0  0  0  0  0  0  0  0  0  0  0  0
  1  2  2  0
  2  3  1  0
  3  4  1  0
  4  5  1  0
  5  6  2  0
  5  7  1  0
  7  8  1  0
  8  9  1  0
  9 10  1  0
 10 11  1  0
 11 12  1  0
 12 13  1  0
 13 14  2  0
 14 15  1  0
 15 16  2  0
 16 17  1  0
  2 18  1  0
 18 19  2  0
 19 20  1  0
 20 21  2  0
 21 22  1  0
 22 23  2  0
 23 24  1  0
 23 25  1  0
 25 26  2  0
 26 27  1  0
 27 28  2  0
 12  7  1  0
 17 13  1  0
 28 18  1  0
 27 21  1  0
  3 29  1  0
  4 30  1  0
  4 31  1  0
  8 32  1  0
  8 33  1  0
  9 34  1  0
  9 35  1  0
 10 36  1  0
 10 37  1  0
 11 38  1  0
 11 39  1  0
 12 40  1  6
 15 41  1  0
 16 42  1  0
 17 43  1  0
 19 44  1  0
 20 45  1  0
 22 46  1  0
 25 47  1  0
 26 48  1  0
M  END
>  <smiles>  (15) 
O=C(NCC(=O)N1CCCC[C@H]1c1ncc[nH]1)c1ccc2cc(F)ccc2n1

>  <score_type>  (15) 
oracle

>  <origin>  (15) 
autodockgpu

>  <m_score__min__energy>  (15) 
-7.8799999999999999

>  <m_primary>  (15) 
energy

>  <rmsd>  (15) 
3.1176809070209823

>  <m_score__min__rmsd>  (15) 
3.1176809070209823

>  <meeko>  (15) 
{"free_energy": -7.41, "intermolecular_energy": -8.9, "internal_energy": -2.09, "cluster_size": 19, "cluster_id": 1, "rank_in_cluster": 3}

>  <energy>  (15) 
-7.02

>  <cluster_rmsd>  (15) 
1.67

>  <cluster>  (15) 
1

$$$$

     RDKit          3D

 48 51  0  0  0  0  0  0  0  0999 V2000
  140.2480   71.5480  220.9720 O   0  0  0  0  0  0  0  0  0  0  0  0
  139.9200   72.0940  222.0620 C   0  0  0  0  0  0  0  0  0  0  0  0
  139.5120   73.4520  222.1600 N   0  0  0  0  0  0  0  0  0  0  0  0
  139.4470   74.3040  220.9890 C   0  0  0  0  0  0  0  0  0  0  0  0
  140.6340   75.2040  220.9830 C   0  0  0  0  0  0  0  0  0  0  0  0
  141.2140   75.3690  222.0910 O   0  0  0  0  0  0  0  0  0  0  0  0
  141.0670   75.8290  219.7790 N   0  0  0  0  0  0  0  0  0  0  0  0
  140.5330   77.1580  219.4430 C   0  0  0  0  0  0  0  0  0  0  0  0
  141.6640   78.1490  219.2720 C   0  0  0  0  0  0  0  0  0  0  0  0
  142.9510   77.4920  218.8670 C   0  0  0  0  0  0  0  0  0  0  0  0
  142.7690   76.1800  218.1650 C   0  0  0  0  0  0  0  0  0  0  0  0
  142.0140   75.1390  218.9300 C   0  0  1  0  0  0  0  0  0  0  0  0
  142.9630   74.3140  219.7240 C   0  0  0  0  0  0  0  0  0  0  0  0
  144.1980   74.6990  220.1530 N   0  0  0  0  0  0  0  0  0  0  0  0
  144.7590   73.6880  220.8390 C   0  0  0  0  0  0  0  0  0  0  0  0
  143.8330   72.6720  220.8180 C   0  0  0  0  0  0  0  0  0  0  0  0
  142.7270   73.0580  220.1310 N   0  0  0  0  0  0  0  0  0  0  0  0
  139.9590   71.2990  223.2960 C   0  0  0  0  0  0  0  0  0  0  0  0
  139.5200   69.9930  223.3290 C   0  0  0  0  0  0  0  0  0  0  0  0
  139.5440   69.2310  224.4620 C   0  0  0  0  0  0  0  0  0  0  0  0
  140.0330   69.7920  225.6370 C   0  0  0  0  0  0  0  0  0  0  0  0
  140.0960   69.1090  226.8160 C   0  0  0  0  0  0  0  0  0  0  0  0
  140.5920   69.7040  227.9730 C   0  0  0  0  0  0  0  0  0  0  0  0
  140.6220   68.9610  229.0990 F   0  0  0  0  0  0  0  0  0  0  0  0
  141.0310   71.0170  227.9320 C   0  0  0  0  0  0  0  0  0  0  0  0
  140.9720   71.7210  226.7390 C   0  0  0  0  0  0  0  0  0  0  0  0
  140.4720   71.1060  225.5920 C   0  0  0  0  0  0  0  0  0  0  0  0
  140.4320   71.8220  224.4620 N   0  0  0  0  0  0  0  0  0  0  0  0
  139.2530   73.8340  223.1190 H   0  0  0  0  0  0  0  0  0  0  0  0
  139.4486   73.6841  220.0803 H   0  0  0  0  0  0  0  0  0  0  0  0
  138.5245   74.9026  221.0134 H   0  0  0  0  0  0  0  0  0  0  0  0
  139.9619   77.0934  218.5051 H   0  0  0  0  0  0  0  0  0  0  0  0
  139.8786   77.4982  220.2591 H   0  0  0  0  0  0  0  0  0  0  0  0
  141.3808   78.8765  218.4971 H   0  0  0  0  0  0  0  0  0  0  0  0
  141.8301   78.6358  220.2443 H   0  0  0  0  0  0  0  0  0  0  0  0
  143.4905   78.1735  218.1929 H   0  0  0  0  0  0  0  0  0  0  0  0
  143.5083   77.2842  219.7924 H   0  0  0  0  0  0  0  0  0  0  0  0
  142.2275   76.3701  217.2266 H   0  0  0  0  0  0  0  0  0  0  0  0
  143.7804   75.7730  218.0189 H   0  0  0  0  0  0  0  0  0  0  0  0
  141.4746   74.4565  218.2568 H   0  0  0  0  0  0  0  0  0  0  0  0
  145.7499   73.6762  221.3164 H   0  0  0  0  0  0  0  0  0  0  0  0
  143.9685   71.6877  221.2899 H   0  0  0  0  0  0  0  0  0  0  0  0
  141.9200   72.4300  220.0070 H   0  0  0  0  0  0  0  0  0  0  0  0
  139.1333   69.5447  222.4019 H   0  0  0  0  0  0  0  0  0  0  0  0
  139.1830   68.1920  224.4456 H   0  0  0  0  0  0  0  0  0  0  0  0
  139.7476   68.0663  226.8535 H   0  0  0  0  0  0  0  0  0  0  0  0
  141.4239   71.4980  228.8399 H   0  0  0  0  0  0  0  0  0  0  0  0
  141.3194   72.7639  226.6975 H   0  0  0  0  0  0  0  0  0  0  0  0
  1  2  2  0
  2  3  1  0
  3  4  1  0
  4  5  1  0
  5  6  2  0
  5  7  1  0
  7  8  1  0
  8  9  1  0
  9 10  1  0
 10 11  1  0
 11 12  1  0
 12 13  1  0
 13 14  2  0
 14 15  1  0
 15 16  2  0
 16 17  1  0
  2 18  1  0
 18 19  2  0
 19 20  1  0
 20 21  2  0
 21 22  1  0
 22 23  2  0
 23 24  1  0
 23 25  1  0
 25 26  2  0
 26 27  1  0
 27 28  2  0
 12  7  1  0
 17 13  1  0
 28 18  1  0
 27 21  1  0
  3 29  1  0
  4 30  1  0
  4 31  1  0
  8 32  1  0
  8 33  1  0
  9 34  1  0
  9 35  1  0
 10 36  1  0
 10 37  1  0
 11 38  1  0
 11 39  1  0
 12 40  1  6
 15 41  1  0
 16 42  1  0
 17 43  1  0
 19 44  1  0
 20 45  1  0
 22 46  1  0
 25 47  1  0
 26 48  1  0
M  END
>  <smiles>  (16) 
O=C(NCC(=O)N1CCCC[C@H]1c1ncc[nH]1)c1ccc2cc(F)ccc2n1

>  <score_type>  (16) 
oracle

>  <origin>  (16) 
autodockgpu

>  <m_score__min__energy>  (16) 
-7.8799999999999999

>  <m_primary>  (16) 
energy

>  <rmsd>  (16) 
3.1618234575153537

>  <m_score__min__rmsd>  (16) 
3.1618234575153537

>  <meeko>  (16) 
{"free_energy": -7.17, "intermolecular_energy": -8.67, "internal_energy": -2.61, "cluster_size": 15, "cluster_id": 3, "rank_in_cluster": 6}

>  <energy>  (16) 
-7.0

>  <cluster_rmsd>  (16) 
1.76

>  <cluster>  (16) 
1

$$$$

     RDKit          3D

 48 51  0  0  0  0  0  0  0  0999 V2000
  139.8990   73.3580  222.7920 O   0  0  0  0  0  0  0  0  0  0  0  0
  140.2150   72.1460  222.6320 C   0  0  0  0  0  0  0  0  0  0  0  0
  140.7040   71.6260  221.4030 N   0  0  0  0  0  0  0  0  0  0  0  0
  140.8710   72.4750  220.2390 C   0  0  0  0  0  0  0  0  0  0  0  0
  141.8610   73.5410  220.5620 C   0  0  0  0  0  0  0  0  0  0  0  0
  141.3900   74.6890  220.7870 O   0  0  0  0  0  0  0  0  0  0  0  0
  143.2540   73.2510  220.6060 N   0  0  0  0  0  0  0  0  0  0  0  0
  143.6780   71.8550  220.7990 C   0  0  0  0  0  0  0  0  0  0  0  0
  144.5660   71.4150  219.6550 C   0  0  0  0  0  0  0  0  0  0  0  0
  145.2800   72.5630  219.0040 C   0  0  0  0  0  0  0  0  0  0  0  0
  145.4610   73.7520  219.8990 C   0  0  0  0  0  0  0  0  0  0  0  0
  144.2020   74.3330  220.4600 C   0  0  1  0  0  0  0  0  0  0  0  0
  143.6900   75.3920  219.5500 C   0  0  0  0  0  0  0  0  0  0  0  0
  143.9030   75.4680  218.2060 N   0  0  0  0  0  0  0  0  0  0  0  0
  143.2850   76.5620  217.7250 C   0  0  0  0  0  0  0  0  0  0  0  0
  142.6880   77.1540  218.8130 C   0  0  0  0  0  0  0  0  0  0  0  0
  142.9370   76.4330  219.9370 N   0  0  0  0  0  0  0  0  0  0  0  0
  140.0750   71.2190  223.7610 C   0  0  0  0  0  0  0  0  0  0  0  0
  139.4020   70.0230  223.6370 C   0  0  0  0  0  0  0  0  0  0  0  0
  139.2570   69.1420  224.6710 C   0  0  0  0  0  0  0  0  0  0  0  0
  139.8110   69.4610  225.9060 C   0  0  0  0  0  0  0  0  0  0  0  0
  139.7180   68.6450  226.9950 C   0  0  0  0  0  0  0  0  0  0  0  0
  140.2860   68.9980  228.2160 C   0  0  0  0  0  0  0  0  0  0  0  0
  140.1500   68.1350  229.2450 F   0  0  0  0  0  0  0  0  0  0  0  0
  140.9610   70.2010  228.3330 C   0  0  0  0  0  0  0  0  0  0  0  0
  141.0630   71.0390  227.2330 C   0  0  0  0  0  0  0  0  0  0  0  0
  140.4860   70.6660  226.0190 C   0  0  0  0  0  0  0  0  0  0  0  0
  140.6080   71.5040  224.9830 N   0  0  0  0  0  0  0  0  0  0  0  0
  140.9470   70.5910  221.3530 H   0  0  0  0  0  0  0  0  0  0  0  0
  141.2365   71.8748  219.3927 H   0  0  0  0  0  0  0  0  0  0  0  0
  139.9073   72.9295  219.9657 H   0  0  0  0  0  0  0  0  0  0  0  0
  144.2350   71.7718  221.7439 H   0  0  0  0  0  0  0  0  0  0  0  0
  142.7871   71.2105  220.8299 H   0  0  0  0  0  0  0  0  0  0  0  0
  145.3148   70.7083  220.0420 H   0  0  0  0  0  0  0  0  0  0  0  0
  143.9227   70.9485  218.8944 H   0  0  0  0  0  0  0  0  0  0  0  0
  146.2735   72.2161  218.6837 H   0  0  0  0  0  0  0  0  0  0  0  0
  144.6549   72.8907  218.1603 H   0  0  0  0  0  0  0  0  0  0  0  0
  146.0989   73.4477  220.7419 H   0  0  0  0  0  0  0  0  0  0  0  0
  145.9029   74.5390  219.2702 H   0  0  0  0  0  0  0  0  0  0  0  0
  144.3769   74.8024  221.4393 H   0  0  0  0  0  0  0  0  0  0  0  0
  143.2622   76.9095  216.6816 H   0  0  0  0  0  0  0  0  0  0  0  0
  142.0938   78.0791  218.7782 H   0  0  0  0  0  0  0  0  0  0  0  0
  142.5720   76.7190  220.8560 H   0  0  0  0  0  0  0  0  0  0  0  0
  138.9619   69.7662  222.6621 H   0  0  0  0  0  0  0  0  0  0  0  0
  138.7118   68.1972  224.5292 H   0  0  0  0  0  0  0  0  0  0  0  0
  139.1830   67.6879  226.9066 H   0  0  0  0  0  0  0  0  0  0  0  0
  141.4137   70.4903  229.2929 H   0  0  0  0  0  0  0  0  0  0  0  0
  141.5981   71.9964  227.3175 H   0  0  0  0  0  0  0  0  0  0  0  0
  1  2  2  0
  2  3  1  0
  3  4  1  0
  4  5  1  0
  5  6  2  0
  5  7  1  0
  7  8  1  0
  8  9  1  0
  9 10  1  0
 10 11  1  0
 11 12  1  0
 12 13  1  0
 13 14  2  0
 14 15  1  0
 15 16  2  0
 16 17  1  0
  2 18  1  0
 18 19  2  0
 19 20  1  0
 20 21  2  0
 21 22  1  0
 22 23  2  0
 23 24  1  0
 23 25  1  0
 25 26  2  0
 26 27  1  0
 27 28  2  0
 12  7  1  0
 17 13  1  0
 28 18  1  0
 27 21  1  0
  3 29  1  0
  4 30  1  0
  4 31  1  0
  8 32  1  0
  8 33  1  0
  9 34  1  0
  9 35  1  0
 10 36  1  0
 10 37  1  0
 11 38  1  0
 11 39  1  0
 12 40  1  1
 15 41  1  0
 16 42  1  0
 17 43  1  0
 19 44  1  0
 20 45  1  0
 22 46  1  0
 25 47  1  0
 26 48  1  0
M  END
>  <smiles>  (17) 
O=C(NCC(=O)N1CCCC[C@H]1c1ncc[nH]1)c1ccc2cc(F)ccc2n1

>  <score_type>  (17) 
oracle

>  <origin>  (17) 
autodockgpu

>  <m_score__min__energy>  (17) 
-7.8799999999999999

>  <m_primary>  (17) 
energy

>  <rmsd>  (17) 
3.9071341130992763

>  <m_score__min__rmsd>  (17) 
3.9071341130992763

>  <meeko>  (17) 
{"free_energy": -7.75, "intermolecular_energy": -9.24, "internal_energy": -1.54, "cluster_size": 3, "cluster_id": 2, "rank_in_cluster": 2}

>  <energy>  (17) 
-6.98

>  <cluster_rmsd>  (17) 
1.7

>  <cluster>  (17) 
1

$$$$

     RDKit          3D

 48 51  0  0  0  0  0  0  0  0999 V2000
  139.5010   71.0900  221.0030 O   0  0  0  0  0  0  0  0  0  0  0  0
  139.5450   71.6850  222.1150 C   0  0  0  0  0  0  0  0  0  0  0  0
  139.5300   73.1010  222.2420 N   0  0  0  0  0  0  0  0  0  0  0  0
  139.4600   73.9590  221.0750 C   0  0  0  0  0  0  0  0  0  0  0  0
  140.5600   74.9610  221.1510 C   0  0  0  0  0  0  0  0  0  0  0  0
  140.9620   75.2620  222.3080 O   0  0  0  0  0  0  0  0  0  0  0  0
  141.1070   75.5310  219.9660 N   0  0  0  0  0  0  0  0  0  0  0  0
  140.8740   76.9590  219.6980 C   0  0  0  0  0  0  0  0  0  0  0  0
  142.1930   77.6850  219.5460 C   0  0  0  0  0  0  0  0  0  0  0  0
  143.3010   76.7820  219.0890 C   0  0  0  0  0  0  0  0  0  0  0  0
  142.8280   75.5750  218.3350 C   0  0  0  0  0  0  0  0  0  0  0  0
  141.8710   74.6900  219.0700 C   0  0  1  0  0  0  0  0  0  0  0  0
  142.6250   73.6430  219.8090 C   0  0  0  0  0  0  0  0  0  0  0  0
  143.9240   73.7220  220.2140 N   0  0  0  0  0  0  0  0  0  0  0  0
  144.2540   72.5840  220.8510 C   0  0  0  0  0  0  0  0  0  0  0  0
  143.1220   71.8060  220.8240 C   0  0  0  0  0  0  0  0  0  0  0  0
  142.1170   72.4580  220.1830 N   0  0  0  0  0  0  0  0  0  0  0  0
  139.6160   70.8870  223.3460 C   0  0  0  0  0  0  0  0  0  0  0  0
  139.1660   69.5860  223.3920 C   0  0  0  0  0  0  0  0  0  0  0  0
  139.2200   68.8210  224.5220 C   0  0  0  0  0  0  0  0  0  0  0  0
  139.7520   69.3760  225.6810 C   0  0  0  0  0  0  0  0  0  0  0  0
  139.8470   68.6900  226.8570 C   0  0  0  0  0  0  0  0  0  0  0  0
  140.3860   69.2790  227.9980 C   0  0  0  0  0  0  0  0  0  0  0  0
  140.4450   68.5330  229.1210 F   0  0  0  0  0  0  0  0  0  0  0  0
  140.8360   70.5870  227.9440 C   0  0  0  0  0  0  0  0  0  0  0  0
  140.7450   71.2940  226.7540 C   0  0  0  0  0  0  0  0  0  0  0  0
  140.2020   70.6850  225.6240 C   0  0  0  0  0  0  0  0  0  0  0  0
  140.1320   71.4040  224.4970 N   0  0  0  0  0  0  0  0  0  0  0  0
  139.5700   73.5210  223.2180 H   0  0  0  0  0  0  0  0  0  0  0  0
  139.5732   73.3538  220.1635 H   0  0  0  0  0  0  0  0  0  0  0  0
  138.4875   74.4722  221.0454 H   0  0  0  0  0  0  0  0  0  0  0  0
  140.2924   77.0643  218.7702 H   0  0  0  0  0  0  0  0  0  0  0  0
  140.3191   77.3962  220.5412 H   0  0  0  0  0  0  0  0  0  0  0  0
  142.0683   78.4907  218.8076 H   0  0  0  0  0  0  0  0  0  0  0  0
  142.4715   78.0791  220.5345 H   0  0  0  0  0  0  0  0  0  0  0  0
  143.9706   77.3591  218.4344 H   0  0  0  0  0  0  0  0  0  0  0  0
  143.8083   76.4154  219.9936 H   0  0  0  0  0  0  0  0  0  0  0  0
  142.3316   75.9221  217.4168 H   0  0  0  0  0  0  0  0  0  0  0  0
  143.7239   74.9638  218.1511 H   0  0  0  0  0  0  0  0  0  0  0  0
  141.1881   74.1728  218.3800 H   0  0  0  0  0  0  0  0  0  0  0  0
  145.2258   72.3298  221.2992 H   0  0  0  0  0  0  0  0  0  0  0  0
  143.0409   70.7990  221.2592 H   0  0  0  0  0  0  0  0  0  0  0  0
  141.1860   72.0350  220.0610 H   0  0  0  0  0  0  0  0  0  0  0  0
  138.7442   69.1433  222.4776 H   0  0  0  0  0  0  0  0  0  0  0  0
  138.8497   67.7852  224.5156 H   0  0  0  0  0  0  0  0  0  0  0  0
  139.4905   67.6505  226.9046 H   0  0  0  0  0  0  0  0  0  0  0  0
  141.2631   71.0628  228.8391 H   0  0  0  0  0  0  0  0  0  0  0  0
  141.1008   72.3336  226.7023 H   0  0  0  0  0  0  0  0  0  0  0  0
  1  2  2  0
  2  3  1  0
  3  4  1  0
  4  5  1  0
  5  6  2  0
  5  7  1  0
  7  8  1  0
  8  9  1  0
  9 10  1  0
 10 11  1  0
 11 12  1  0
 12 13  1  0
 13 14  2  0
 14 15  1  0
 15 16  2  0
 16 17  1  0
  2 18  1  0
 18 19  2  0
 19 20  1  0
 20 21  2  0
 21 22  1  0
 22 23  2  0
 23 24  1  0
 23 25  1  0
 25 26  2  0
 26 27  1  0
 27 28  2  0
 12  7  1  0
 17 13  1  0
 28 18  1  0
 27 21  1  0
  3 29  1  0
  4 30  1  0
  4 31  1  0
  8 32  1  0
  8 33  1  0
  9 34  1  0
  9 35  1  0
 10 36  1  0
 10 37  1  0
 11 38  1  0
 11 39  1  0
 12 40  1  6
 15 41  1  0
 16 42  1  0
 17 43  1  0
 19 44  1  0
 20 45  1  0
 22 46  1  0
 25 47  1  0
 26 48  1  0
M  END
>  <smiles>  (18) 
O=C(NCC(=O)N1CCCC[C@H]1c1ncc[nH]1)c1ccc2cc(F)ccc2n1

>  <score_type>  (18) 
oracle

>  <origin>  (18) 
autodockgpu

>  <m_score__min__energy>  (18) 
-7.8799999999999999

>  <m_primary>  (18) 
energy

>  <rmsd>  (18) 
3.3822767647496628

>  <m_score__min__rmsd>  (18) 
3.3822767647496628

>  <meeko>  (18) 
{"free_energy": -6.92, "intermolecular_energy": -8.41, "internal_energy": -2.92, "cluster_size": 15, "cluster_id": 3, "rank_in_cluster": 13}

>  <energy>  (18) 
-6.97

>  <cluster_rmsd>  (18) 
1.77

>  <cluster>  (18) 
1

$$$$

     RDKit          3D

 48 51  0  0  0  0  0  0  0  0999 V2000
  137.6800   70.9410  222.1750 O   0  0  0  0  0  0  0  0  0  0  0  0
  138.5880   71.3600  222.9460 C   0  0  0  0  0  0  0  0  0  0  0  0
  139.2160   72.6260  222.7920 N   0  0  0  0  0  0  0  0  0  0  0  0
  138.8410   73.5270  221.7190 C   0  0  0  0  0  0  0  0  0  0  0  0
  140.0690   74.1920  221.2000 C   0  0  0  0  0  0  0  0  0  0  0  0
  141.0540   74.2350  221.9860 O   0  0  0  0  0  0  0  0  0  0  0  0
  140.0990   74.7410  219.8860 N   0  0  0  0  0  0  0  0  0  0  0  0
  139.5520   73.9440  218.7770 C   0  0  0  0  0  0  0  0  0  0  0  0
  138.4550   74.7120  218.0720 C   0  0  0  0  0  0  0  0  0  0  0  0
  138.6080   76.1980  218.2140 C   0  0  0  0  0  0  0  0  0  0  0  0
  140.0160   76.6420  218.4720 C   0  0  0  0  0  0  0  0  0  0  0  0
  140.6630   76.0580  219.6880 C   0  0  1  0  0  0  0  0  0  0  0  0
  140.4190   76.9420  220.8590 C   0  0  0  0  0  0  0  0  0  0  0  0
  139.5060   77.9510  220.9270 N   0  0  0  0  0  0  0  0  0  0  0  0
  139.5770   78.5240  222.1420 C   0  0  0  0  0  0  0  0  0  0  0  0
  140.5580   77.8380  222.8160 C   0  0  0  0  0  0  0  0  0  0  0  0
  141.0770   76.8620  222.0250 N   0  0  0  0  0  0  0  0  0  0  0  0
  139.0250   70.5080  224.0580 C   0  0  0  0  0  0  0  0  0  0  0  0
  138.8210   69.1460  224.0500 C   0  0  0  0  0  0  0  0  0  0  0  0
  139.2170   68.3290  225.0710 C   0  0  0  0  0  0  0  0  0  0  0  0
  139.8560   68.8930  226.1700 C   0  0  0  0  0  0  0  0  0  0  0  0
  140.2870   68.1590  227.2360 C   0  0  0  0  0  0  0  0  0  0  0  0
  140.9240   68.7590  228.3190 C   0  0  0  0  0  0  0  0  0  0  0  0
  141.3200   67.9630  229.3340 F   0  0  0  0  0  0  0  0  0  0  0  0
  141.1260   70.1280  228.3200 C   0  0  0  0  0  0  0  0  0  0  0  0
  140.6920   70.8850  227.2420 C   0  0  0  0  0  0  0  0  0  0  0  0
  140.0570   70.2640  226.1670 C   0  0  0  0  0  0  0  0  0  0  0  0
  139.6540   71.0320  225.1480 N   0  0  0  0  0  0  0  0  0  0  0  0
  139.9730   72.9020  223.4870 H   0  0  0  0  0  0  0  0  0  0  0  0
  138.3585   72.9585  220.9103 H   0  0  0  0  0  0  0  0  0  0  0  0
  138.1365   74.2835  222.0949 H   0  0  0  0  0  0  0  0  0  0  0  0
  140.3558   73.7187  218.0606 H   0  0  0  0  0  0  0  0  0  0  0  0
  139.1340   73.0093  219.1791 H   0  0  0  0  0  0  0  0  0  0  0  0
  138.4773   74.4562  217.0024 H   0  0  0  0  0  0  0  0  0  0  0  0
  137.4989   74.4296  218.5369 H   0  0  0  0  0  0  0  0  0  0  0  0
  138.2602   76.6723  217.2845 H   0  0  0  0  0  0  0  0  0  0  0  0
  138.0134   76.4978  219.0895 H   0  0  0  0  0  0  0  0  0  0  0  0
  140.6242   76.3648  217.5983 H   0  0  0  0  0  0  0  0  0  0  0  0
  139.9630   77.7263  218.6494 H   0  0  0  0  0  0  0  0  0  0  0  0
  141.7530   75.9761  219.5649 H   0  0  0  0  0  0  0  0  0  0  0  0
  138.9757   79.3653  222.5171 H   0  0  0  0  0  0  0  0  0  0  0  0
  140.8775   78.0483  223.8474 H   0  0  0  0  0  0  0  0  0  0  0  0
  141.8280   76.2390  222.3550 H   0  0  0  0  0  0  0  0  0  0  0  0
  138.3165   68.6956  223.1825 H   0  0  0  0  0  0  0  0  0  0  0  0
  139.0338   67.2454  225.0246 H   0  0  0  0  0  0  0  0  0  0  0  0
  140.1280   67.0706  227.2401 H   0  0  0  0  0  0  0  0  0  0  0  0
  141.6277   70.6128  229.1705 H   0  0  0  0  0  0  0  0  0  0  0  0
  140.8485   71.9738  227.2350 H   0  0  0  0  0  0  0  0  0  0  0  0
  1  2  2  0
  2  3  1  0
  3  4  1  0
  4  5  1  0
  5  6  2  0
  5  7  1  0
  7  8  1  0
  8  9  1  0
  9 10  1  0
 10 11  1  0
 11 12  1  0
 12 13  1  0
 13 14  2  0
 14 15  1  0
 15 16  2  0
 16 17  1  0
  2 18  1  0
 18 19  2  0
 19 20  1  0
 20 21  2  0
 21 22  1  0
 22 23  2  0
 23 24  1  0
 23 25  1  0
 25 26  2  0
 26 27  1  0
 27 28  2  0
 12  7  1  0
 17 13  1  0
 28 18  1  0
 27 21  1  0
  3 29  1  0
  4 30  1  0
  4 31  1  0
  8 32  1  0
  8 33  1  0
  9 34  1  0
  9 35  1  0
 10 36  1  0
 10 37  1  0
 11 38  1  0
 11 39  1  0
 12 40  1  6
 15 41  1  0
 16 42  1  0
 17 43  1  0
 19 44  1  0
 20 45  1  0
 22 46  1  0
 25 47  1  0
 26 48  1  0
M  END
>  <smiles>  (19) 
O=C(NCC(=O)N1CCCC[C@H]1c1ncc[nH]1)c1ccc2cc(F)ccc2n1

>  <score_type>  (19) 
oracle

>  <origin>  (19) 
autodockgpu

>  <m_score__min__energy>  (19) 
-7.8799999999999999

>  <m_primary>  (19) 
energy

>  <rmsd>  (19) 
1.4826128258197706

>  <m_score__min__rmsd>  (19) 
1.4826128258197706

>  <meeko>  (19) 
{"free_energy": -6.47, "intermolecular_energy": -7.96, "internal_energy": -2.63, "cluster_size": 1, "cluster_id": 7, "rank_in_cluster": 1}

>  <energy>  (19) 
-6.9

>  <cluster_rmsd>  (19) 
1.5

>  <cluster>  (19) 
1

$$$$

     RDKit          3D

 48 51  0  0  0  0  0  0  0  0999 V2000
  139.8720   71.6310  221.0200 O   0  0  0  0  0  0  0  0  0  0  0  0
  139.7380   72.1820  222.1480 C   0  0  0  0  0  0  0  0  0  0  0  0
  139.4880   73.5720  222.3100 N   0  0  0  0  0  0  0  0  0  0  0  0
  139.3690   74.4540  221.1650 C   0  0  0  0  0  0  0  0  0  0  0  0
  140.5750   75.3260  221.1040 C   0  0  0  0  0  0  0  0  0  0  0  0
  141.1800   75.5180  222.1950 O   0  0  0  0  0  0  0  0  0  0  0  0
  140.9980   75.8970  219.8700 N   0  0  0  0  0  0  0  0  0  0  0  0
  140.5400   77.2530  219.5280 C   0  0  0  0  0  0  0  0  0  0  0  0
  141.7260   78.1620  219.2900 C   0  0  0  0  0  0  0  0  0  0  0  0
  142.9480   77.4120  218.8480 C   0  0  0  0  0  0  0  0  0  0  0  0
  142.6510   76.1020  218.1820 C   0  0  0  0  0  0  0  0  0  0  0  0
  141.8600   75.1290  219.0000 C   0  0  1  0  0  0  0  0  0  0  0  0
  142.7850   74.2580  219.7730 C   0  0  0  0  0  0  0  0  0  0  0  0
  144.0480   74.5800  220.1710 N   0  0  0  0  0  0  0  0  0  0  0  0
  144.5740   73.5420  220.8450 C   0  0  0  0  0  0  0  0  0  0  0  0
  143.5970   72.5740  220.8490 C   0  0  0  0  0  0  0  0  0  0  0  0
  142.4950   73.0160  220.1880 N   0  0  0  0  0  0  0  0  0  0  0  0
  139.8430   71.3580  223.3580 C   0  0  0  0  0  0  0  0  0  0  0  0
  139.4660   70.0320  223.3670 C   0  0  0  0  0  0  0  0  0  0  0  0
  139.5540   69.2430  224.4780 C   0  0  0  0  0  0  0  0  0  0  0  0
  140.0450   69.7960  225.6560 C   0  0  0  0  0  0  0  0  0  0  0  0
  140.1680   69.0870  226.8150 C   0  0  0  0  0  0  0  0  0  0  0  0
  140.6640   69.6750  227.9750 C   0  0  0  0  0  0  0  0  0  0  0  0
  140.7560   68.9050  229.0790 F   0  0  0  0  0  0  0  0  0  0  0  0
  141.0410   71.0070  227.9590 C   0  0  0  0  0  0  0  0  0  0  0  0
  140.9190   71.7390  226.7870 C   0  0  0  0  0  0  0  0  0  0  0  0
  140.4200   71.1300  225.6360 C   0  0  0  0  0  0  0  0  0  0  0  0
  140.3200   71.8720  224.5270 N   0  0  0  0  0  0  0  0  0  0  0  0
  139.3880   73.9550  223.2980 H   0  0  0  0  0  0  0  0  0  0  0  0
  139.2976   73.8568  220.2440 H   0  0  0  0  0  0  0  0  0  0  0  0
  138.4647   75.0727  221.2620 H   0  0  0  0  0  0  0  0  0  0  0  0
  139.9267   77.2099  218.6158 H   0  0  0  0  0  0  0  0  0  0  0  0
  139.9449   77.6515  220.3629 H   0  0  0  0  0  0  0  0  0  0  0  0
  141.4598   78.8920  218.5114 H   0  0  0  0  0  0  0  0  0  0  0  0
  141.9645   78.6552  220.2438 H   0  0  0  0  0  0  0  0  0  0  0  0
  143.5034   78.0429  218.1384 H   0  0  0  0  0  0  0  0  0  0  0  0
  143.5273   77.1842  219.7549 H   0  0  0  0  0  0  0  0  0  0  0  0
  142.0854   76.3100  217.2618 H   0  0  0  0  0  0  0  0  0  0  0  0
  143.6262   75.6251  218.0042 H   0  0  0  0  0  0  0  0  0  0  0  0
  141.2483   74.4715  218.3648 H   0  0  0  0  0  0  0  0  0  0  0  0
  145.5746   73.4802  221.2977 H   0  0  0  0  0  0  0  0  0  0  0  0
  143.6937   71.5844  221.3195 H   0  0  0  0  0  0  0  0  0  0  0  0
  141.6540   72.4300  220.0840 H   0  0  0  0  0  0  0  0  0  0  0  0
  139.0770   69.5899  222.4379 H   0  0  0  0  0  0  0  0  0  0  0  0
  139.2421   68.1888  224.4420 H   0  0  0  0  0  0  0  0  0  0  0  0
  139.8690   68.0286  226.8332 H   0  0  0  0  0  0  0  0  0  0  0  0
  141.4347   71.4818  228.8698 H   0  0  0  0  0  0  0  0  0  0  0  0
  141.2154   72.7981  226.7656 H   0  0  0  0  0  0  0  0  0  0  0  0
  1  2  2  0
  2  3  1  0
  3  4  1  0
  4  5  1  0
  5  6  2  0
  5  7  1  0
  7  8  1  0
  8  9  1  0
  9 10  1  0
 10 11  1  0
 11 12  1  0
 12 13  1  0
 13 14  2  0
 14 15  1  0
 15 16  2  0
 16 17  1  0
  2 18  1  0
 18 19  2  0
 19 20  1  0
 20 21  2  0
 21 22  1  0
 22 23  2  0
 23 24  1  0
 23 25  1  0
 25 26  2  0
 26 27  1  0
 27 28  2  0
 12  7  1  0
 17 13  1  0
 28 18  1  0
 27 21  1  0
  3 29  1  0
  4 30  1  0
  4 31  1  0
  8 32  1  0
  8 33  1  0
  9 34  1  0
  9 35  1  0
 10 36  1  0
 10 37  1  0
 11 38  1  0
 11 39  1  0
 12 40  1  6
 15 41  1  0
 16 42  1  0
 17 43  1  0
 19 44  1  0
 20 45  1  0
 22 46  1  0
 25 47  1  0
 26 48  1  0
M  END
>  <smiles>  (20) 
O=C(NCC(=O)N1CCCC[C@H]1c1ncc[nH]1)c1ccc2cc(F)ccc2n1

>  <score_type>  (20) 
oracle

>  <origin>  (20) 
autodockgpu

>  <m_score__min__energy>  (20) 
-7.8799999999999999

>  <m_primary>  (20) 
energy

>  <rmsd>  (20) 
3.172075253607625

>  <m_score__min__rmsd>  (20) 
3.172075253607625

>  <meeko>  (20) 
{"free_energy": -7.04, "intermolecular_energy": -8.53, "internal_energy": -2.72, "cluster_size": 15, "cluster_id": 3, "rank_in_cluster": 7}

>  <energy>  (20) 
-7.79

>  <cluster_rmsd>  (20) 
0.0

>  <cluster>  (20) 
2

$$$$

     RDKit          3D

 48 51  0  0  0  0  0  0  0  0999 V2000
  139.8640   70.9850  221.2340 O   0  0  0  0  0  0  0  0  0  0  0  0
  139.8780   71.5510  222.3630 C   0  0  0  0  0  0  0  0  0  0  0  0
  139.9320   72.9620  222.5250 N   0  0  0  0  0  0  0  0  0  0  0  0
  139.9740   73.8500  221.3790 C   0  0  0  0  0  0  0  0  0  0  0  0
  141.2670   74.5890  221.3920 C   0  0  0  0  0  0  0  0  0  0  0  0
  141.2540   75.7240  221.9420 O   0  0  0  0  0  0  0  0  0  0  0  0
  142.4350   74.0220  220.8070 N   0  0  0  0  0  0  0  0  0  0  0  0
  142.6030   72.5610  220.8430 C   0  0  0  0  0  0  0  0  0  0  0  0
  142.7620   72.0170  219.4400 C   0  0  0  0  0  0  0  0  0  0  0  0
  143.3210   73.0330  218.4870 C   0  0  0  0  0  0  0  0  0  0  0  0
  144.1290   74.1080  219.1500 C   0  0  0  0  0  0  0  0  0  0  0  0
  143.4120   74.8990  220.2000 C   0  0  1  0  0  0  0  0  0  0  0  0
  142.7720   76.0890  219.5790 C   0  0  0  0  0  0  0  0  0  0  0  0
  142.4890   76.2510  218.2560 N   0  0  0  0  0  0  0  0  0  0  0  0
  141.9130   77.4530  218.0750 C   0  0  0  0  0  0  0  0  0  0  0  0
  141.8510   78.0230  219.3250 C   0  0  0  0  0  0  0  0  0  0  0  0
  142.3800   77.1820  220.2520 N   0  0  0  0  0  0  0  0  0  0  0  0
  139.8370   70.7230  223.5740 C   0  0  0  0  0  0  0  0  0  0  0  0
  139.2450   69.4790  223.5810 C   0  0  0  0  0  0  0  0  0  0  0  0
  139.1930   68.6870  224.6930 C   0  0  0  0  0  0  0  0  0  0  0  0
  139.7620   69.1530  225.8730 C   0  0  0  0  0  0  0  0  0  0  0  0
  139.7580   68.4350  227.0330 C   0  0  0  0  0  0  0  0  0  0  0  0
  140.3370   68.9330  228.1960 C   0  0  0  0  0  0  0  0  0  0  0  0
  140.2930   68.1600  229.3020 F   0  0  0  0  0  0  0  0  0  0  0  0
  140.9310   70.1840  228.1830 C   0  0  0  0  0  0  0  0  0  0  0  0
  140.9400   70.9240  227.0090 C   0  0  0  0  0  0  0  0  0  0  0  0
  140.3540   70.4050  225.8550 C   0  0  0  0  0  0  0  0  0  0  0  0
  140.3860   71.1520  224.7450 N   0  0  0  0  0  0  0  0  0  0  0  0
  139.9400   73.3570  223.5130 H   0  0  0  0  0  0  0  0  0  0  0  0
  139.8933   73.2623  220.4527 H   0  0  0  0  0  0  0  0  0  0  0  0
  139.1363   74.5613  221.4263 H   0  0  0  0  0  0  0  0  0  0  0  0
  143.4981   72.3129  221.4322 H   0  0  0  0  0  0  0  0  0  0  0  0
  141.7121   72.1092  221.3036 H   0  0  0  0  0  0  0  0  0  0  0  0
  143.4417   71.1527  219.4722 H   0  0  0  0  0  0  0  0  0  0  0  0
  141.7629   71.7341  219.0771 H   0  0  0  0  0  0  0  0  0  0  0  0
  143.9653   72.5117  217.7638 H   0  0  0  0  0  0  0  0  0  0  0  0
  142.4630   73.5278  218.0084 H   0  0  0  0  0  0  0  0  0  0  0  0
  145.0026   73.6336  219.6208 H   0  0  0  0  0  0  0  0  0  0  0  0
  144.3872   74.8244  218.3562 H   0  0  0  0  0  0  0  0  0  0  0  0
  144.1039   75.2679  220.9715 H   0  0  0  0  0  0  0  0  0  0  0  0
  141.5648   77.8884  217.1267 H   0  0  0  0  0  0  0  0  0  0  0  0
  141.4332   79.0169  219.5431 H   0  0  0  0  0  0  0  0  0  0  0  0
  142.4240   77.4330  221.2500 H   0  0  0  0  0  0  0  0  0  0  0  0
  138.7939   69.1067  222.6494 H   0  0  0  0  0  0  0  0  0  0  0  0
  138.7101   67.6994  224.6555 H   0  0  0  0  0  0  0  0  0  0  0  0
  139.2869   67.4411  227.0492 H   0  0  0  0  0  0  0  0  0  0  0  0
  141.3922   70.5880  229.0963 H   0  0  0  0  0  0  0  0  0  0  0  0
  141.4089   71.9189  226.9888 H   0  0  0  0  0  0  0  0  0  0  0  0
  1  2  2  0
  2  3  1  0
  3  4  1  0
  4  5  1  0
  5  6  2  0
  5  7  1  0
  7  8  1  0
  8  9  1  0
  9 10  1  0
 10 11  1  0
 11 12  1  0
 12 13  1  0
 13 14  2  0
 14 15  1  0
 15 16  2  0
 16 17  1  0
  2 18  1  0
 18 19  2  0
 19 20  1  0
 20 21  2  0
 21 22  1  0
 22 23  2  0
 23 24  1  0
 23 25  1  0
 25 26  2  0
 26 27  1  0
 27 28  2  0
 12  7  1  0
 17 13  1  0
 28 18  1  0
 27 21  1  0
  3 29  1  0
  4 30  1  0
  4 31  1  0
  8 32  1  0
  8 33  1  0
  9 34  1  0
  9 35  1  0
 10 36  1  0
 10 37  1  0
 11 38  1  0
 11 39  1  0
 12 40  1  1
 15 41  1  0
 16 42  1  0
 17 43  1  0
 19 44  1  0
 20 45  1  0
 22 46  1  0
 25 47  1  0
 26 48  1  0
M  END
>  <smiles>  (21) 
O=C(NCC(=O)N1CCCC[C@H]1c1ncc[nH]1)c1ccc2cc(F)ccc2n1

>  <score_type>  (21) 
oracle

>  <origin>  (21) 
autodockgpu

>  <m_score__min__energy>  (21) 
-7.8799999999999999

>  <m_primary>  (21) 
energy

>  <rmsd>  (21) 
3.0306639619625875

>  <m_score__min__rmsd>  (21) 
3.0306639619625875

>  <meeko>  (21) 
{"free_energy": -7.17, "intermolecular_energy": -8.66, "internal_energy": -2.17, "cluster_size": 19, "cluster_id": 1, "rank_in_cluster": 5}

>  <energy>  (21) 
-7.75

>  <cluster_rmsd>  (21) 
1.19

>  <cluster>  (21) 
2

$$$$

     RDKit          3D

 48 51  0  0  0  0  0  0  0  0999 V2000
  138.8800   71.2270  221.1720 O   0  0  0  0  0  0  0  0  0  0  0  0
  139.2740   71.7970  222.2280 C   0  0  0  0  0  0  0  0  0  0  0  0
  139.5420   73.1910  222.3070 N   0  0  0  0  0  0  0  0  0  0  0  0
  139.3730   74.0550  221.1550 C   0  0  0  0  0  0  0  0  0  0  0  0
  140.4430   75.0910  221.1710 C   0  0  0  0  0  0  0  0  0  0  0  0
  141.0700   75.2270  222.2570 O   0  0  0  0  0  0  0  0  0  0  0  0
  140.7190   75.8700  220.0110 N   0  0  0  0  0  0  0  0  0  0  0  0
  140.1500   77.2230  219.9190 C   0  0  0  0  0  0  0  0  0  0  0  0
  141.2520   78.2440  219.7330 C   0  0  0  0  0  0  0  0  0  0  0  0
  142.4750   77.6610  219.0870 C   0  0  0  0  0  0  0  0  0  0  0  0
  142.2010   76.4470  218.2520 C   0  0  0  0  0  0  0  0  0  0  0  0
  141.5480   75.3060  218.9680 C   0  0  1  0  0  0  0  0  0  0  0  0
  142.5890   74.4010  219.5230 C   0  0  0  0  0  0  0  0  0  0  0  0
  143.0880   73.2850  218.9200 N   0  0  0  0  0  0  0  0  0  0  0  0
  144.0110   72.7280  219.7240 C   0  0  0  0  0  0  0  0  0  0  0  0
  144.0630   73.5340  220.8370 C   0  0  0  0  0  0  0  0  0  0  0  0
  143.1870   74.5650  220.7130 N   0  0  0  0  0  0  0  0  0  0  0  0
  139.4700   70.9920  223.4400 C   0  0  0  0  0  0  0  0  0  0  0  0
  139.0750   69.6730  223.5040 C   0  0  0  0  0  0  0  0  0  0  0  0
  139.2450   68.9010  224.6180 C   0  0  0  0  0  0  0  0  0  0  0  0
  139.8430   69.4650  225.7390 C   0  0  0  0  0  0  0  0  0  0  0  0
  140.0540   68.7730  226.8960 C   0  0  0  0  0  0  0  0  0  0  0  0
  140.6560   69.3720  227.9990 C   0  0  0  0  0  0  0  0  0  0  0  0
  140.8290   68.6190  229.1060 F   0  0  0  0  0  0  0  0  0  0  0  0
  141.0500   70.6970  227.9280 C   0  0  0  0  0  0  0  0  0  0  0  0
  140.8400   71.4110  226.7570 C   0  0  0  0  0  0  0  0  0  0  0  0
  140.2360   70.7920  225.6640 C   0  0  0  0  0  0  0  0  0  0  0  0
  140.0520   71.5170  224.5540 N   0  0  0  0  0  0  0  0  0  0  0  0
  139.8710   73.5900  223.2360 H   0  0  0  0  0  0  0  0  0  0  0  0
  139.4480   73.4603  220.2327 H   0  0  0  0  0  0  0  0  0  0  0  0
  138.3851   74.5374  221.1913 H   0  0  0  0  0  0  0  0  0  0  0  0
  139.4628   77.2703  219.0614 H   0  0  0  0  0  0  0  0  0  0  0  0
  139.6072   77.4473  220.8491 H   0  0  0  0  0  0  0  0  0  0  0  0
  140.8735   79.0596  219.0993 H   0  0  0  0  0  0  0  0  0  0  0  0
  141.5423   78.6067  220.7301 H   0  0  0  0  0  0  0  0  0  0  0  0
  142.9261   78.4299  218.4426 H   0  0  0  0  0  0  0  0  0  0  0  0
  143.1452   77.3446  219.8999 H   0  0  0  0  0  0  0  0  0  0  0  0
  141.5436   76.7474  217.4228 H   0  0  0  0  0  0  0  0  0  0  0  0
  143.1842   76.0762  217.9266 H   0  0  0  0  0  0  0  0  0  0  0  0
  140.9258   74.7059  218.2878 H   0  0  0  0  0  0  0  0  0  0  0  0
  144.6002   71.8192  219.5318 H   0  0  0  0  0  0  0  0  0  0  0  0
  144.7198   73.3677  221.7036 H   0  0  0  0  0  0  0  0  0  0  0  0
  143.0820   75.2780  221.4480 H   0  0  0  0  0  0  0  0  0  0  0  0
  138.6021   69.2222  222.6190 H   0  0  0  0  0  0  0  0  0  0  0  0
  138.9146   67.8518  224.6278 H   0  0  0  0  0  0  0  0  0  0  0  0
  139.7419   67.7200  226.9584 H   0  0  0  0  0  0  0  0  0  0  0  0
  141.5262   71.1805  228.7937 H   0  0  0  0  0  0  0  0  0  0  0  0
  141.1498   72.4644  226.6913 H   0  0  0  0  0  0  0  0  0  0  0  0
  1  2  2  0
  2  3  1  0
  3  4  1  0
  4  5  1  0
  5  6  2  0
  5  7  1  0
  7  8  1  0
  8  9  1  0
  9 10  1  0
 10 11  1  0
 11 12  1  0
 12 13  1  0
 13 14  2  0
 14 15  1  0
 15 16  2  0
 16 17  1  0
  2 18  1  0
 18 19  2  0
 19 20  1  0
 20 21  2  0
 21 22  1  0
 22 23  2  0
 23 24  1  0
 23 25  1  0
 25 26  2  0
 26 27  1  0
 27 28  2  0
 12  7  1  0
 17 13  1  0
 28 18  1  0
 27 21  1  0
  3 29  1  0
  4 30  1  0
  4 31  1  0
  8 32  1  0
  8 33  1  0
  9 34  1  0
  9 35  1  0
 10 36  1  0
 10 37  1  0
 11 38  1  0
 11 39  1  0
 12 40  1  6
 15 41  1  0
 16 42  1  0
 17 43  1  0
 19 44  1  0
 20 45  1  0
 22 46  1  0
 25 47  1  0
 26 48  1  0
M  END
>  <smiles>  (22) 
O=C(NCC(=O)N1CCCC[C@H]1c1ncc[nH]1)c1ccc2cc(F)ccc2n1

>  <score_type>  (22) 
oracle

>  <origin>  (22) 
autodockgpu

>  <m_score__min__energy>  (22) 
-7.8799999999999999

>  <m_primary>  (22) 
energy

>  <rmsd>  (22) 
3.045106648783186

>  <m_score__min__rmsd>  (22) 
3.045106648783186

>  <meeko>  (22) 
{"free_energy": -6.97, "intermolecular_energy": -8.47, "internal_energy": -2.83, "cluster_size": 19, "cluster_id": 1, "rank_in_cluster": 18}

>  <energy>  (22) 
-7.31

>  <cluster_rmsd>  (22) 
1.01

>  <cluster>  (22) 
2

$$$$

     RDKit          3D

 48 51  0  0  0  0  0  0  0  0999 V2000
  140.4210   73.7440  222.3370 O   0  0  0  0  0  0  0  0  0  0  0  0
  140.4310   72.4960  222.1440 C   0  0  0  0  0  0  0  0  0  0  0  0
  140.6040   71.9090  220.8610 N   0  0  0  0  0  0  0  0  0  0  0  0
  140.7830   72.7280  219.6770 C   0  0  0  0  0  0  0  0  0  0  0  0
  142.1070   72.4140  219.0720 C   0  0  0  0  0  0  0  0  0  0  0  0
  142.1220   72.2410  217.8220 O   0  0  0  0  0  0  0  0  0  0  0  0
  143.2730   72.3200  219.8830 N   0  0  0  0  0  0  0  0  0  0  0  0
  144.1240   71.1250  219.7590 C   0  0  0  0  0  0  0  0  0  0  0  0
  145.5370   71.5240  219.3940 C   0  0  0  0  0  0  0  0  0  0  0  0
  145.8790   72.9140  219.8440 C   0  0  0  0  0  0  0  0  0  0  0  0
  145.0640   73.3940  221.0070 C   0  0  0  0  0  0  0  0  0  0  0  0
  143.5820   73.3970  220.7970 C   0  0  1  0  0  0  0  0  0  0  0  0
  143.1550   74.7150  220.2560 C   0  0  0  0  0  0  0  0  0  0  0  0
  143.6270   75.3100  219.1240 N   0  0  0  0  0  0  0  0  0  0  0  0
  143.0060   76.4920  218.9590 C   0  0  0  0  0  0  0  0  0  0  0  0
  142.1420   76.6040  220.0220 C   0  0  0  0  0  0  0  0  0  0  0  0
  142.2330   75.5090  220.8210 N   0  0  0  0  0  0  0  0  0  0  0  0
  140.2580   71.5970  223.2910 C   0  0  0  0  0  0  0  0  0  0  0  0
  139.6360   70.3740  223.1640 C   0  0  0  0  0  0  0  0  0  0  0  0
  139.4610   69.5180  224.2140 C   0  0  0  0  0  0  0  0  0  0  0  0
  139.9290   69.8920  225.4690 C   0  0  0  0  0  0  0  0  0  0  0  0
  139.7990   69.1050  226.5760 C   0  0  0  0  0  0  0  0  0  0  0  0
  140.2800   69.5130  227.8160 C   0  0  0  0  0  0  0  0  0  0  0  0
  140.1130   68.6760  228.8610 F   0  0  0  0  0  0  0  0  0  0  0  0
  140.9030   70.7440  227.9360 C   0  0  0  0  0  0  0  0  0  0  0  0
  141.0410   71.5540  226.8190 C   0  0  0  0  0  0  0  0  0  0  0  0
  140.5520   71.1250  225.5850 C   0  0  0  0  0  0  0  0  0  0  0  0
  140.7050   71.9370  224.5330 N   0  0  0  0  0  0  0  0  0  0  0  0
  140.6000   70.8480  220.7860 H   0  0  0  0  0  0  0  0  0  0  0  0
  139.9845   72.5101  218.9525 H   0  0  0  0  0  0  0  0  0  0  0  0
  140.7395   73.7929  219.9491 H   0  0  0  0  0  0  0  0  0  0  0  0
  144.1351   70.5860  220.7178 H   0  0  0  0  0  0  0  0  0  0  0  0
  143.7188   70.4770  218.9679 H   0  0  0  0  0  0  0  0  0  0  0  0
  146.2357   70.8186  219.8675 H   0  0  0  0  0  0  0  0  0  0  0  0
  145.6170   71.4999  218.2972 H   0  0  0  0  0  0  0  0  0  0  0  0
  146.9401   72.9331  220.1333 H   0  0  0  0  0  0  0  0  0  0  0  0
  145.6588   73.5856  219.0011 H   0  0  0  0  0  0  0  0  0  0  0  0
  145.2833   72.7432  221.8663 H   0  0  0  0  0  0  0  0  0  0  0  0
  145.3493   74.4448  221.1629 H   0  0  0  0  0  0  0  0  0  0  0  0
  143.0413   73.2430  221.7425 H   0  0  0  0  0  0  0  0  0  0  0  0
  143.1577   77.2161  218.1450 H   0  0  0  0  0  0  0  0  0  0  0  0
  141.4724   77.4583  220.2004 H   0  0  0  0  0  0  0  0  0  0  0  0
  141.6610   75.4090  221.6720 H   0  0  0  0  0  0  0  0  0  0  0  0
  139.2640   70.0738  222.1733 H   0  0  0  0  0  0  0  0  0  0  0  0
  138.9588   68.5501  224.0694 H   0  0  0  0  0  0  0  0  0  0  0  0
  139.3033   68.1271  226.4861 H   0  0  0  0  0  0  0  0  0  0  0  0
  141.2862   71.0773  228.9118 H   0  0  0  0  0  0  0  0  0  0  0  0
  141.5351   72.5329  226.9058 H   0  0  0  0  0  0  0  0  0  0  0  0
  1  2  2  0
  2  3  1  0
  3  4  1  0
  4  5  1  0
  5  6  2  0
  5  7  1  0
  7  8  1  0
  8  9  1  0
  9 10  1  0
 10 11  1  0
 11 12  1  0
 12 13  1  0
 13 14  2  0
 14 15  1  0
 15 16  2  0
 16 17  1  0
  2 18  1  0
 18 19  2  0
 19 20  1  0
 20 21  2  0
 21 22  1  0
 22 23  2  0
 23 24  1  0
 23 25  1  0
 25 26  2  0
 26 27  1  0
 27 28  2  0
 12  7  1  0
 17 13  1  0
 28 18  1  0
 27 21  1  0
  3 29  1  0
  4 30  1  0
  4 31  1  0
  8 32  1  0
  8 33  1  0
  9 34  1  0
  9 35  1  0
 10 36  1  0
 10 37  1  0
 11 38  1  0
 11 39  1  0
 12 40  1  1
 15 41  1  0
 16 42  1  0
 17 43  1  0
 19 44  1  0
 20 45  1  0
 22 46  1  0
 25 47  1  0
 26 48  1  0
M  END
>  <smiles>  (23) 
O=C(NCC(=O)N1CCCC[C@H]1c1ncc[nH]1)c1ccc2cc(F)ccc2n1

>  <score_type>  (23) 
oracle

>  <origin>  (23) 
autodockgpu

>  <m_score__min__energy>  (23) 
-7.8799999999999999

>  <m_primary>  (23) 
energy

>  <rmsd>  (23) 
4.062720986074853

>  <m_score__min__rmsd>  (23) 
4.062720986074853

>  <meeko>  (23) 
{"free_energy": -7.31, "intermolecular_energy": -8.8, "internal_energy": -2.34, "cluster_size": 3, "cluster_id": 2, "rank_in_cluster": 3}

>  <energy>  (23) 
-7.42

>  <cluster_rmsd>  (23) 
0.0

>  <cluster>  (23) 
3

$$$$

     RDKit          3D

 48 51  0  0  0  0  0  0  0  0999 V2000
  139.4980   74.3560  222.0910 O   0  0  0  0  0  0  0  0  0  0  0  0
  140.6470   74.7180  221.7140 C   0  0  0  0  0  0  0  0  0  0  0  0
  141.0950   76.0660  221.7700 N   0  0  0  0  0  0  0  0  0  0  0  0
  140.2400   77.1230  222.2740 C   0  0  0  0  0  0  0  0  0  0  0  0
  140.5190   78.3710  221.5100 C   0  0  0  0  0  0  0  0  0  0  0  0
  141.5330   78.3500  220.7600 O   0  0  0  0  0  0  0  0  0  0  0  0
  139.6720   79.5080  221.6400 N   0  0  0  0  0  0  0  0  0  0  0  0
  138.2150   79.3100  221.6010 C   0  0  0  0  0  0  0  0  0  0  0  0
  137.5790   79.8490  222.8650 C   0  0  0  0  0  0  0  0  0  0  0  0
  138.3920   80.9380  223.5010 C   0  0  0  0  0  0  0  0  0  0  0  0
  139.2860   81.6670  222.5430 C   0  0  0  0  0  0  0  0  0  0  0  0
  140.2710   80.8140  221.8060 C   0  0  1  0  0  0  0  0  0  0  0  0
  141.5430   80.7420  222.5720 C   0  0  0  0  0  0  0  0  0  0  0  0
  141.7250   81.1300  223.8660 N   0  0  0  0  0  0  0  0  0  0  0  0
  143.0070   80.9140  224.2120 C   0  0  0  0  0  0  0  0  0  0  0  0
  143.6050   80.3830  223.0940 C   0  0  0  0  0  0  0  0  0  0  0  0
  142.7030   80.2770  222.0840 N   0  0  0  0  0  0  0  0  0  0  0  0
  141.5750   73.7080  221.1910 C   0  0  0  0  0  0  0  0  0  0  0  0
  141.1830   72.4030  220.9840 C   0  0  0  0  0  0  0  0  0  0  0  0
  142.0250   71.4430  220.4990 C   0  0  0  0  0  0  0  0  0  0  0  0
  143.3360   71.7920  220.1980 C   0  0  0  0  0  0  0  0  0  0  0  0
  144.2490   70.9030  219.7100 C   0  0  0  0  0  0  0  0  0  0  0  0
  145.5540   71.2900  219.4210 C   0  0  0  0  0  0  0  0  0  0  0  0
  146.3950   70.3500  218.9400 F   0  0  0  0  0  0  0  0  0  0  0  0
  145.9410   72.6020  219.6310 C   0  0  0  0  0  0  0  0  0  0  0  0
  145.0230   73.5150  220.1280 C   0  0  0  0  0  0  0  0  0  0  0  0
  143.7200   73.1070  220.4110 C   0  0  0  0  0  0  0  0  0  0  0  0
  142.8660   74.0200  220.8880 N   0  0  0  0  0  0  0  0  0  0  0  0
  142.0800   76.2850  221.4310 H   0  0  0  0  0  0  0  0  0  0  0  0
  139.1853   76.8385  222.1451 H   0  0  0  0  0  0  0  0  0  0  0  0
  140.4389   77.2869  223.3434 H   0  0  0  0  0  0  0  0  0  0  0  0
  137.7997   79.8398  220.7311 H   0  0  0  0  0  0  0  0  0  0  0  0
  138.0014   78.2338  221.5230 H   0  0  0  0  0  0  0  0  0  0  0  0
  136.5857   80.2506  222.6160 H   0  0  0  0  0  0  0  0  0  0  0  0
  137.5126   79.0195  223.5844 H   0  0  0  0  0  0  0  0  0  0  0  0
  137.7024   81.6658  223.9535 H   0  0  0  0  0  0  0  0  0  0  0  0
  139.0450   80.4567  224.2439 H   0  0  0  0  0  0  0  0  0  0  0  0
  138.6491   82.1688  221.7997 H   0  0  0  0  0  0  0  0  0  0  0  0
  139.8833   82.3596  223.1541 H   0  0  0  0  0  0  0  0  0  0  0  0
  140.5104   81.2359  220.8187 H   0  0  0  0  0  0  0  0  0  0  0  0
  143.4776   81.1191  225.1848 H   0  0  0  0  0  0  0  0  0  0  0  0
  144.6622   80.0865  223.0269 H   0  0  0  0  0  0  0  0  0  0  0  0
  142.9640   79.9000  221.1610 H   0  0  0  0  0  0  0  0  0  0  0  0
  140.1460   72.1221  221.2198 H   0  0  0  0  0  0  0  0  0  0  0  0
  141.6716   70.4121  220.3494 H   0  0  0  0  0  0  0  0  0  0  0  0
  143.9471   69.8587  219.5416 H   0  0  0  0  0  0  0  0  0  0  0  0
  146.9700   72.9186  219.4052 H   0  0  0  0  0  0  0  0  0  0  0  0
  145.3224   74.5596  220.2987 H   0  0  0  0  0  0  0  0  0  0  0  0
  1  2  2  0
  2  3  1  0
  3  4  1  0
  4  5  1  0
  5  6  2  0
  5  7  1  0
  7  8  1  0
  8  9  1  0
  9 10  1  0
 10 11  1  0
 11 12  1  0
 12 13  1  0
 13 14  2  0
 14 15  1  0
 15 16  2  0
 16 17  1  0
  2 18  1  0
 18 19  2  0
 19 20  1  0
 20 21  2  0
 21 22  1  0
 22 23  2  0
 23 24  1  0
 23 25  1  0
 25 26  2  0
 26 27  1  0
 27 28  2  0
 12  7  1  0
 17 13  1  0
 28 18  1  0
 27 21  1  0
  3 29  1  0
  4 30  1  0
  4 31  1  0
  8 32  1  0
  8 33  1  0
  9 34  1  0
  9 35  1  0
 10 36  1  0
 10 37  1  0
 11 38  1  0
 11 39  1  0
 12 40  1  6
 15 41  1  0
 16 42  1  0
 17 43  1  0
 19 44  1  0
 20 45  1  0
 22 46  1  0
 25 47  1  0
 26 48  1  0
M  END
>  <smiles>  (24) 
O=C(NCC(=O)N1CCCC[C@H]1c1ncc[nH]1)c1ccc2cc(F)ccc2n1

>  <score_type>  (24) 
oracle

>  <origin>  (24) 
autodockgpu

>  <m_score__min__energy>  (24) 
-7.8799999999999999

>  <m_primary>  (24) 
energy

>  <rmsd>  (24) 
6.159356706778375

>  <m_score__min__rmsd>  (24) 
6.159356706778375

>  <meeko>  (24) 
{"free_energy": -6.94, "intermolecular_energy": -8.43, "internal_energy": -2.73, "cluster_size": 6, "cluster_id": 4, "rank_in_cluster": 4}

>  <energy>  (24) 
-7.4

>  <cluster_rmsd>  (24) 
0.05

>  <cluster>  (24) 
3

$$$$

     RDKit          3D

 48 51  0  0  0  0  0  0  0  0999 V2000
  140.7500   71.8840  221.2020 O   0  0  0  0  0  0  0  0  0  0  0  0
  140.0610   72.2800  222.1830 C   0  0  0  0  0  0  0  0  0  0  0  0
  139.3480   73.5100  222.1870 N   0  0  0  0  0  0  0  0  0  0  0  0
  139.3720   74.3970  221.0400 C   0  0  0  0  0  0  0  0  0  0  0  0
  140.7180   75.0280  220.9490 C   0  0  0  0  0  0  0  0  0  0  0  0
  141.4500   74.9300  221.9720 O   0  0  0  0  0  0  0  0  0  0  0  0
  141.1290   75.6980  219.7610 N   0  0  0  0  0  0  0  0  0  0  0  0
  140.5190   76.9980  219.4380 C   0  0  0  0  0  0  0  0  0  0  0  0
  141.5890   78.0590  219.3000 C   0  0  0  0  0  0  0  0  0  0  0  0
  142.9200   77.4880  218.9050 C   0  0  0  0  0  0  0  0  0  0  0  0
  142.8290   76.1790  218.1790 C   0  0  0  0  0  0  0  0  0  0  0  0
  142.1280   75.0810  218.9170 C   0  0  1  0  0  0  0  0  0  0  0  0
  143.1150   74.3040  219.7120 C   0  0  0  0  0  0  0  0  0  0  0  0
  144.3180   74.7560  220.1650 N   0  0  0  0  0  0  0  0  0  0  0  0
  144.9300   73.7700  220.8440 C   0  0  0  0  0  0  0  0  0  0  0  0
  144.0690   72.7000  220.7940 C   0  0  0  0  0  0  0  0  0  0  0  0
  142.9500   73.0290  220.0970 N   0  0  0  0  0  0  0  0  0  0  0  0
  139.9850   71.4400  223.3840 C   0  0  0  0  0  0  0  0  0  0  0  0
  139.3580   70.2120  223.3690 C   0  0  0  0  0  0  0  0  0  0  0  0
  139.2720   69.4100  224.4710 C   0  0  0  0  0  0  0  0  0  0  0  0
  139.8410   69.8460  225.6630 C   0  0  0  0  0  0  0  0  0  0  0  0
  139.8040   69.1140  226.8140 C   0  0  0  0  0  0  0  0  0  0  0  0
  140.3850   69.5830  227.9890 C   0  0  0  0  0  0  0  0  0  0  0  0
  140.3060   68.7990  229.0850 F   0  0  0  0  0  0  0  0  0  0  0  0
  141.0120   70.8170  227.9970 C   0  0  0  0  0  0  0  0  0  0  0  0
  141.0550   71.5700  226.8330 C   0  0  0  0  0  0  0  0  0  0  0  0
  140.4670   71.0810  225.6660 C   0  0  0  0  0  0  0  0  0  0  0  0
  140.5320   71.8400  224.5660 N   0  0  0  0  0  0  0  0  0  0  0  0
  138.7910   73.7680  223.0550 H   0  0  0  0  0  0  0  0  0  0  0  0
  139.1705   73.8223  220.1240 H   0  0  0  0  0  0  0  0  0  0  0  0
  138.6018   75.1743  221.1526 H   0  0  0  0  0  0  0  0  0  0  0  0
  139.9663   76.9144  218.4906 H   0  0  0  0  0  0  0  0  0  0  0  0
  139.8336   77.2837  220.2495 H   0  0  0  0  0  0  0  0  0  0  0  0
  141.2731   78.7803  218.5320 H   0  0  0  0  0  0  0  0  0  0  0  0
  141.7106   78.5395  220.2820 H   0  0  0  0  0  0  0  0  0  0  0  0
  143.4270   78.2123  218.2506 H   0  0  0  0  0  0  0  0  0  0  0  0
  143.4748   77.2987  219.8358 H   0  0  0  0  0  0  0  0  0  0  0  0
  142.2902   76.3512  217.2356 H   0  0  0  0  0  0  0  0  0  0  0  0
  143.8653   75.8370  218.0411 H   0  0  0  0  0  0  0  0  0  0  0  0
  141.6407   74.3772  218.2262 H   0  0  0  0  0  0  0  0  0  0  0  0
  145.9130   73.8111  221.3360 H   0  0  0  0  0  0  0  0  0  0  0  0
  144.2585   71.7182  221.2524 H   0  0  0  0  0  0  0  0  0  0  0  0
  142.1840   72.3550  219.9510 H   0  0  0  0  0  0  0  0  0  0  0  0
  138.9073   69.8631  222.4282 H   0  0  0  0  0  0  0  0  0  0  0  0
  138.7620   68.4369  224.4169 H   0  0  0  0  0  0  0  0  0  0  0  0
  139.3051   68.1336  226.8134 H   0  0  0  0  0  0  0  0  0  0  0  0
  141.4730   71.1979  228.9202 H   0  0  0  0  0  0  0  0  0  0  0  0
  141.5520   72.5513  226.8299 H   0  0  0  0  0  0  0  0  0  0  0  0
  1  2  2  0
  2  3  1  0
  3  4  1  0
  4  5  1  0
  5  6  2  0
  5  7  1  0
  7  8  1  0
  8  9  1  0
  9 10  1  0
 10 11  1  0
 11 12  1  0
 12 13  1  0
 13 14  2  0
 14 15  1  0
 15 16  2  0
 16 17  1  0
  2 18  1  0
 18 19  2  0
 19 20  1  0
 20 21  2  0
 21 22  1  0
 22 23  2  0
 23 24  1  0
 23 25  1  0
 25 26  2  0
 26 27  1  0
 27 28  2  0
 12  7  1  0
 17 13  1  0
 28 18  1  0
 27 21  1  0
  3 29  1  0
  4 30  1  0
  4 31  1  0
  8 32  1  0
  8 33  1  0
  9 34  1  0
  9 35  1  0
 10 36  1  0
 10 37  1  0
 11 38  1  0
 11 39  1  0
 12 40  1  6
 15 41  1  0
 16 42  1  0
 17 43  1  0
 19 44  1  0
 20 45  1  0
 22 46  1  0
 25 47  1  0
 26 48  1  0
M  END
>  <smiles>  (25) 
O=C(NCC(=O)N1CCCC[C@H]1c1ncc[nH]1)c1ccc2cc(F)ccc2n1

>  <score_type>  (25) 
oracle

>  <origin>  (25) 
autodockgpu

>  <m_score__min__energy>  (25) 
-7.8799999999999999

>  <m_primary>  (25) 
energy

>  <rmsd>  (25) 
3.183471771300741

>  <m_score__min__rmsd>  (25) 
3.183471771300741

>  <meeko>  (25) 
{"free_energy": -7.42, "intermolecular_energy": -8.91, "internal_energy": -2.32, "cluster_size": 15, "cluster_id": 3, "rank_in_cluster": 1}

>  <energy>  (25) 
-7.39

>  <cluster_rmsd>  (25) 
0.11

>  <cluster>  (25) 
3

$$$$

     RDKit          3D

 48 51  0  0  0  0  0  0  0  0999 V2000
  139.6420   71.3460  221.0580 O   0  0  0  0  0  0  0  0  0  0  0  0
  139.6480   71.9160  222.1840 C   0  0  0  0  0  0  0  0  0  0  0  0
  139.5380   73.3240  222.3450 N   0  0  0  0  0  0  0  0  0  0  0  0
  139.4080   74.2040  221.1990 C   0  0  0  0  0  0  0  0  0  0  0  0
  140.5500   75.1600  221.1970 C   0  0  0  0  0  0  0  0  0  0  0  0
  141.0680   75.4120  222.3200 O   0  0  0  0  0  0  0  0  0  0  0  0
  141.0090   75.7430  219.9820 N   0  0  0  0  0  0  0  0  0  0  0  0
  140.6520   77.1400  219.6900 C   0  0  0  0  0  0  0  0  0  0  0  0
  141.9020   77.9660  219.4760 C   0  0  0  0  0  0  0  0  0  0  0  0
  143.0630   77.1430  219.0000 C   0  0  0  0  0  0  0  0  0  0  0  0
  142.6650   75.8840  218.2900 C   0  0  0  0  0  0  0  0  0  0  0  0
  141.8070   74.9440  219.0780 C   0  0  1  0  0  0  0  0  0  0  0  0
  142.6680   73.9780  219.8130 C   0  0  0  0  0  0  0  0  0  0  0  0
  143.9660   74.1750  220.1780 N   0  0  0  0  0  0  0  0  0  0  0  0
  144.4100   73.0820  220.8240 C   0  0  0  0  0  0  0  0  0  0  0  0
  143.3470   72.2100  220.8440 C   0  0  0  0  0  0  0  0  0  0  0  0
  142.2730   72.7630  220.2220 N   0  0  0  0  0  0  0  0  0  0  0  0
  139.7750   71.0960  223.3950 C   0  0  0  0  0  0  0  0  0  0  0  0
  139.3940   69.7720  223.4160 C   0  0  0  0  0  0  0  0  0  0  0  0
  139.5010   68.9850  224.5280 C   0  0  0  0  0  0  0  0  0  0  0  0
  140.0180   69.5410  225.6930 C   0  0  0  0  0  0  0  0  0  0  0  0
  140.1630   68.8350  226.8520 C   0  0  0  0  0  0  0  0  0  0  0  0
  140.6840   69.4250  228.0000 C   0  0  0  0  0  0  0  0  0  0  0  0
  140.7960   68.6580  229.1050 F   0  0  0  0  0  0  0  0  0  0  0  0
  141.0660   70.7550  227.9720 C   0  0  0  0  0  0  0  0  0  0  0  0
  140.9230   71.4830  226.8000 C   0  0  0  0  0  0  0  0  0  0  0  0
  140.3980   70.8730  225.6610 C   0  0  0  0  0  0  0  0  0  0  0  0
  140.2780   71.6120  224.5520 N   0  0  0  0  0  0  0  0  0  0  0  0
  139.5520   73.7220  223.3310 H   0  0  0  0  0  0  0  0  0  0  0  0
  139.4213   73.6101  220.2732 H   0  0  0  0  0  0  0  0  0  0  0  0
  138.4582   74.7559  221.2570 H   0  0  0  0  0  0  0  0  0  0  0  0
  140.0338   77.1745  218.7808 H   0  0  0  0  0  0  0  0  0  0  0  0
  140.0912   77.5523  220.5418 H   0  0  0  0  0  0  0  0  0  0  0  0
  141.6880   78.7408  218.7251 H   0  0  0  0  0  0  0  0  0  0  0  0
  142.1805   78.4060  220.4449 H   0  0  0  0  0  0  0  0  0  0  0  0
  143.6617   77.7554  218.3097 H   0  0  0  0  0  0  0  0  0  0  0  0
  143.6275   76.8403  219.8942 H   0  0  0  0  0  0  0  0  0  0  0  0
  142.1123   76.1671  217.3820 H   0  0  0  0  0  0  0  0  0  0  0  0
  143.6007   75.3421  218.0883 H   0  0  0  0  0  0  0  0  0  0  0  0
  141.1447   74.3577  218.4241 H   0  0  0  0  0  0  0  0  0  0  0  0
  145.4123   72.9199  221.2472 H   0  0  0  0  0  0  0  0  0  0  0  0
  143.3637   71.2084  221.2984 H   0  0  0  0  0  0  0  0  0  0  0  0
  141.3790   72.2600  220.1350 H   0  0  0  0  0  0  0  0  0  0  0  0
  138.9852   69.3285  222.4961 H   0  0  0  0  0  0  0  0  0  0  0  0
  139.1843   67.9319  224.5020 H   0  0  0  0  0  0  0  0  0  0  0  0
  139.8618   67.7774  226.8795 H   0  0  0  0  0  0  0  0  0  0  0  0
  141.4801   71.2314  228.8729 H   0  0  0  0  0  0  0  0  0  0  0  0
  141.2235   72.5407  226.7690 H   0  0  0  0  0  0  0  0  0  0  0  0
  1  2  2  0
  2  3  1  0
  3  4  1  0
  4  5  1  0
  5  6  2  0
  5  7  1  0
  7  8  1  0
  8  9  1  0
  9 10  1  0
 10 11  1  0
 11 12  1  0
 12 13  1  0
 13 14  2  0
 14 15  1  0
 15 16  2  0
 16 17  1  0
  2 18  1  0
 18 19  2  0
 19 20  1  0
 20 21  2  0
 21 22  1  0
 22 23  2  0
 23 24  1  0
 23 25  1  0
 25 26  2  0
 26 27  1  0
 27 28  2  0
 12  7  1  0
 17 13  1  0
 28 18  1  0
 27 21  1  0
  3 29  1  0
  4 30  1  0
  4 31  1  0
  8 32  1  0
  8 33  1  0
  9 34  1  0
  9 35  1  0
 10 36  1  0
 10 37  1  0
 11 38  1  0
 11 39  1  0
 12 40  1  6
 15 41  1  0
 16 42  1  0
 17 43  1  0
 19 44  1  0
 20 45  1  0
 22 46  1  0
 25 47  1  0
 26 48  1  0
M  END
>  <smiles>  (26) 
O=C(NCC(=O)N1CCCC[C@H]1c1ncc[nH]1)c1ccc2cc(F)ccc2n1

>  <score_type>  (26) 
oracle

>  <origin>  (26) 
autodockgpu

>  <m_score__min__energy>  (26) 
-7.8799999999999999

>  <m_primary>  (26) 
energy

>  <rmsd>  (26) 
3.256568077657076

>  <m_score__min__rmsd>  (26) 
3.256568077657076

>  <meeko>  (26) 
{"free_energy": -6.99, "intermolecular_energy": -8.48, "internal_energy": -2.86, "cluster_size": 15, "cluster_id": 3, "rank_in_cluster": 9}

>  <energy>  (26) 
-7.27

>  <cluster_rmsd>  (26) 
0.21

>  <cluster>  (26) 
3

$$$$

     RDKit          3D

 48 51  0  0  0  0  0  0  0  0999 V2000
  139.5860   74.4380  222.1620 O   0  0  0  0  0  0  0  0  0  0  0  0
  140.7250   74.7940  221.7480 C   0  0  0  0  0  0  0  0  0  0  0  0
  141.1750   76.1420  221.7750 N   0  0  0  0  0  0  0  0  0  0  0  0
  140.3360   77.2060  222.2900 C   0  0  0  0  0  0  0  0  0  0  0  0
  140.4450   78.3840  221.3850 C   0  0  0  0  0  0  0  0  0  0  0  0
  141.3070   78.3050  220.4680 O   0  0  0  0  0  0  0  0  0  0  0  0
  139.6090   79.5220  221.5690 N   0  0  0  0  0  0  0  0  0  0  0  0
  138.1500   79.3420  221.5120 C   0  0  0  0  0  0  0  0  0  0  0  0
  137.5130   79.8220  222.7990 C   0  0  0  0  0  0  0  0  0  0  0  0
  138.3330   80.8680  223.4940 C   0  0  0  0  0  0  0  0  0  0  0  0
  139.2410   81.6360  222.5800 C   0  0  0  0  0  0  0  0  0  0  0  0
  140.2210   80.8110  221.8040 C   0  0  1  0  0  0  0  0  0  0  0  0
  141.4880   80.6860  222.5730 C   0  0  0  0  0  0  0  0  0  0  0  0
  141.7080   81.1400  223.8390 N   0  0  0  0  0  0  0  0  0  0  0  0
  142.9700   80.8440  224.1970 C   0  0  0  0  0  0  0  0  0  0  0  0
  143.5170   80.1970  223.1140 C   0  0  0  0  0  0  0  0  0  0  0  0
  142.6030   80.1000  222.1140 N   0  0  0  0  0  0  0  0  0  0  0  0
  141.6360   73.7760  221.2110 C   0  0  0  0  0  0  0  0  0  0  0  0
  141.2310   72.4740  221.0120 C   0  0  0  0  0  0  0  0  0  0  0  0
  142.0580   71.5080  220.5140 C   0  0  0  0  0  0  0  0  0  0  0  0
  143.3670   71.8470  220.1910 C   0  0  0  0  0  0  0  0  0  0  0  0
  144.2640   70.9510  219.6890 C   0  0  0  0  0  0  0  0  0  0  0  0
  145.5680   71.3270  219.3770 C   0  0  0  0  0  0  0  0  0  0  0  0
  146.3940   70.3810  218.8840 F   0  0  0  0  0  0  0  0  0  0  0  0
  145.9680   72.6370  219.5800 C   0  0  0  0  0  0  0  0  0  0  0  0
  145.0650   73.5570  220.0910 C   0  0  0  0  0  0  0  0  0  0  0  0
  143.7630   73.1590  220.3960 C   0  0  0  0  0  0  0  0  0  0  0  0
  142.9240   74.0790  220.8860 N   0  0  0  0  0  0  0  0  0  0  0  0
  142.1500   76.3560  221.4060 H   0  0  0  0  0  0  0  0  0  0  0  0
  139.2906   76.8660  222.3300 H   0  0  0  0  0  0  0  0  0  0  0  0
  140.6624   77.4819  223.3036 H   0  0  0  0  0  0  0  0  0  0  0  0
  137.7452   79.9205  220.6685 H   0  0  0  0  0  0  0  0  0  0  0  0
  137.9253   78.2737  221.3770 H   0  0  0  0  0  0  0  0  0  0  0  0
  136.5251   80.2461  222.5662 H   0  0  0  0  0  0  0  0  0  0  0  0
  137.4347   78.9573  223.4744 H   0  0  0  0  0  0  0  0  0  0  0  0
  137.6481   81.5790  223.9791 H   0  0  0  0  0  0  0  0  0  0  0  0
  138.9764   80.3421  224.2147 H   0  0  0  0  0  0  0  0  0  0  0  0
  138.6141   82.1835  221.8608 H   0  0  0  0  0  0  0  0  0  0  0  0
  139.8426   82.2887  223.2297 H   0  0  0  0  0  0  0  0  0  0  0  0
  140.4702   81.2797  220.8406 H   0  0  0  0  0  0  0  0  0  0  0  0
  143.4612   81.0715  225.1546 H   0  0  0  0  0  0  0  0  0  0  0  0
  144.5467   79.8132  223.0646 H   0  0  0  0  0  0  0  0  0  0  0  0
  142.8280   79.6450  221.2170 H   0  0  0  0  0  0  0  0  0  0  0  0
  140.1961   72.2007  221.2654 H   0  0  0  0  0  0  0  0  0  0  0  0
  141.6947   70.4796  220.3710 H   0  0  0  0  0  0  0  0  0  0  0  0
  143.9509   69.9090  219.5271 H   0  0  0  0  0  0  0  0  0  0  0  0
  146.9955   72.9459  219.3375 H   0  0  0  0  0  0  0  0  0  0  0  0
  145.3749   74.5995  220.2557 H   0  0  0  0  0  0  0  0  0  0  0  0
  1  2  2  0
  2  3  1  0
  3  4  1  0
  4  5  1  0
  5  6  2  0
  5  7  1  0
  7  8  1  0
  8  9  1  0
  9 10  1  0
 10 11  1  0
 11 12  1  0
 12 13  1  0
 13 14  2  0
 14 15  1  0
 15 16  2  0
 16 17  1  0
  2 18  1  0
 18 19  2  0
 19 20  1  0
 20 21  2  0
 21 22  1  0
 22 23  2  0
 23 24  1  0
 23 25  1  0
 25 26  2  0
 26 27  1  0
 27 28  2  0
 12  7  1  0
 17 13  1  0
 28 18  1  0
 27 21  1  0
  3 29  1  0
  4 30  1  0
  4 31  1  0
  8 32  1  0
  8 33  1  0
  9 34  1  0
  9 35  1  0
 10 36  1  0
 10 37  1  0
 11 38  1  0
 11 39  1  0
 12 40  1  6
 15 41  1  0
 16 42  1  0
 17 43  1  0
 19 44  1  0
 20 45  1  0
 22 46  1  0
 25 47  1  0
 26 48  1  0
M  END
>  <smiles>  (27) 
O=C(NCC(=O)N1CCCC[C@H]1c1ncc[nH]1)c1ccc2cc(F)ccc2n1

>  <score_type>  (27) 
oracle

>  <origin>  (27) 
autodockgpu

>  <m_score__min__energy>  (27) 
-7.8799999999999999

>  <m_primary>  (27) 
energy

>  <rmsd>  (27) 
6.190324600867261

>  <m_score__min__rmsd>  (27) 
6.190324600867261

>  <meeko>  (27) 
{"free_energy": -6.97, "intermolecular_energy": -8.46, "internal_energy": -2.68, "cluster_size": 6, "cluster_id": 4, "rank_in_cluster": 1}

>  <energy>  (27) 
-7.26

>  <cluster_rmsd>  (27) 
0.22

>  <cluster>  (27) 
3

$$$$

     RDKit          3D

 48 51  0  0  0  0  0  0  0  0999 V2000
  140.6000   71.5990  221.1150 O   0  0  0  0  0  0  0  0  0  0  0  0
  139.9770   72.0160  222.1310 C   0  0  0  0  0  0  0  0  0  0  0  0
  139.2730   73.2500  222.1600 N   0  0  0  0  0  0  0  0  0  0  0  0
  139.2280   74.1180  220.9990 C   0  0  0  0  0  0  0  0  0  0  0  0
  140.2120   75.2210  221.1860 C   0  0  0  0  0  0  0  0  0  0  0  0
  140.7630   75.2900  222.3180 O   0  0  0  0  0  0  0  0  0  0  0  0
  140.4950   76.1310  220.1280 N   0  0  0  0  0  0  0  0  0  0  0  0
  139.8700   77.4630  220.1580 C   0  0  0  0  0  0  0  0  0  0  0  0
  140.9330   78.5400  220.1260 C   0  0  0  0  0  0  0  0  0  0  0  0
  142.2020   78.0800  219.4700 C   0  0  0  0  0  0  0  0  0  0  0  0
  142.0100   76.9530  218.4990 C   0  0  0  0  0  0  0  0  0  0  0  0
  141.3820   75.7170  219.0640 C   0  0  1  0  0  0  0  0  0  0  0  0
  142.4420   74.7980  219.5590 C   0  0  0  0  0  0  0  0  0  0  0  0
  143.0230   73.7870  218.8530 N   0  0  0  0  0  0  0  0  0  0  0  0
  143.9360   73.1790  219.6310 C   0  0  0  0  0  0  0  0  0  0  0  0
  143.8980   73.8450  220.8330 C   0  0  0  0  0  0  0  0  0  0  0  0
  142.9770   74.8430  220.7880 N   0  0  0  0  0  0  0  0  0  0  0  0
  139.9730   71.1960  223.3480 C   0  0  0  0  0  0  0  0  0  0  0  0
  139.5020   69.9000  223.3470 C   0  0  0  0  0  0  0  0  0  0  0  0
  139.4870   69.1150  224.4640 C   0  0  0  0  0  0  0  0  0  0  0  0
  139.9660   69.6400  225.6590 C   0  0  0  0  0  0  0  0  0  0  0  0
  139.9900   68.9330  226.8250 C   0  0  0  0  0  0  0  0  0  0  0  0
  140.4770   69.4920  228.0030 C   0  0  0  0  0  0  0  0  0  0  0  0
  140.4670   68.7260  229.1140 F   0  0  0  0  0  0  0  0  0  0  0  0
  140.9470   70.7940  227.9980 C   0  0  0  0  0  0  0  0  0  0  0  0
  140.9280   71.5240  226.8180 C   0  0  0  0  0  0  0  0  0  0  0  0
  140.4360   70.9440  225.6490 C   0  0  0  0  0  0  0  0  0  0  0  0
  140.4350   71.6830  224.5340 N   0  0  0  0  0  0  0  0  0  0  0  0
  138.7740   73.5260  223.0580 H   0  0  0  0  0  0  0  0  0  0  0  0
  139.4844   73.5428  220.0971 H   0  0  0  0  0  0  0  0  0  0  0  0
  138.2167   74.5349  220.8829 H   0  0  0  0  0  0  0  0  0  0  0  0
  139.2123   77.5755  219.2835 H   0  0  0  0  0  0  0  0  0  0  0  0
  139.2845   77.5640  221.0837 H   0  0  0  0  0  0  0  0  0  0  0  0
  140.5420   79.4043  219.5692 H   0  0  0  0  0  0  0  0  0  0  0  0
  141.1726   78.8023  221.1671 H   0  0  0  0  0  0  0  0  0  0  0  0
  142.6411   78.9317  218.9298 H   0  0  0  0  0  0  0  0  0  0  0  0
  142.8571   77.7043  220.2699 H   0  0  0  0  0  0  0  0  0  0  0  0
  141.3697   77.3153  217.6812 H   0  0  0  0  0  0  0  0  0  0  0  0
  143.0188   76.6584  218.1741 H   0  0  0  0  0  0  0  0  0  0  0  0
  140.8091   75.1709  218.3001 H   0  0  0  0  0  0  0  0  0  0  0  0
  144.5784   72.3275  219.3620 H   0  0  0  0  0  0  0  0  0  0  0  0
  144.5231   73.6046  221.7056 H   0  0  0  0  0  0  0  0  0  0  0  0
  142.8030   75.4570  221.5970 H   0  0  0  0  0  0  0  0  0  0  0  0
  139.1214   69.4799  222.4043 H   0  0  0  0  0  0  0  0  0  0  0  0
  139.1027   68.0853  224.4193 H   0  0  0  0  0  0  0  0  0  0  0  0
  139.6164   67.8985  226.8347 H   0  0  0  0  0  0  0  0  0  0  0  0
  141.3330   71.2469  228.9231 H   0  0  0  0  0  0  0  0  0  0  0  0
  141.3005   72.5589  226.8047 H   0  0  0  0  0  0  0  0  0  0  0  0
  1  2  2  0
  2  3  1  0
  3  4  1  0
  4  5  1  0
  5  6  2  0
  5  7  1  0
  7  8  1  0
  8  9  1  0
  9 10  1  0
 10 11  1  0
 11 12  1  0
 12 13  1  0
 13 14  2  0
 14 15  1  0
 15 16  2  0
 16 17  1  0
  2 18  1  0
 18 19  2  0
 19 20  1  0
 20 21  2  0
 21 22  1  0
 22 23  2  0
 23 24  1  0
 23 25  1  0
 25 26  2  0
 26 27  1  0
 27 28  2  0
 12  7  1  0
 17 13  1  0
 28 18  1  0
 27 21  1  0
  3 29  1  0
  4 30  1  0
  4 31  1  0
  8 32  1  0
  8 33  1  0
  9 34  1  0
  9 35  1  0
 10 36  1  0
 10 37  1  0
 11 38  1  0
 11 39  1  0
 12 40  1  6
 15 41  1  0
 16 42  1  0
 17 43  1  0
 19 44  1  0
 20 45  1  0
 22 46  1  0
 25 47  1  0
 26 48  1  0
M  END
>  <smiles>  (28) 
O=C(NCC(=O)N1CCCC[C@H]1c1ncc[nH]1)c1ccc2cc(F)ccc2n1

>  <score_type>  (28) 
oracle

>  <origin>  (28) 
autodockgpu

>  <m_score__min__energy>  (28) 
-7.8799999999999999

>  <m_primary>  (28) 
energy

>  <rmsd>  (28) 
2.9867731697960913

>  <m_score__min__rmsd>  (28) 
2.9867731697960913

>  <meeko>  (28) 
{"free_energy": -7.33, "intermolecular_energy": -8.83, "internal_energy": -2.34, "cluster_size": 19, "cluster_id": 1, "rank_in_cluster": 4}

>  <energy>  (28) 
-7.17

>  <cluster_rmsd>  (28) 
0.26

>  <cluster>  (28) 
3

$$$$

     RDKit          3D

 48 51  0  0  0  0  0  0  0  0999 V2000
  138.9860   75.9490  220.2470 O   0  0  0  0  0  0  0  0  0  0  0  0
  139.9040   75.9780  221.1130 C   0  0  0  0  0  0  0  0  0  0  0  0
  140.7090   74.8490  221.4300 N   0  0  0  0  0  0  0  0  0  0  0  0
  140.5170   73.5760  220.7620 C   0  0  0  0  0  0  0  0  0  0  0  0
  141.6610   73.3420  219.8390 C   0  0  0  0  0  0  0  0  0  0  0  0
  141.3760   73.2280  218.6150 O   0  0  0  0  0  0  0  0  0  0  0  0
  142.9920   73.2540  220.3380 N   0  0  0  0  0  0  0  0  0  0  0  0
  143.5620   71.9220  220.5960 C   0  0  0  0  0  0  0  0  0  0  0  0
  144.8350   71.7330  219.8010 C   0  0  0  0  0  0  0  0  0  0  0  0
  145.5160   73.0330  219.4840 C   0  0  0  0  0  0  0  0  0  0  0  0
  145.1900   74.1390  220.4420 C   0  0  0  0  0  0  0  0  0  0  0  0
  143.7360   74.4720  220.5720 C   0  0  1  0  0  0  0  0  0  0  0  0
  143.3760   75.5320  219.5920 C   0  0  0  0  0  0  0  0  0  0  0  0
  143.3670   75.4030  218.2360 N   0  0  0  0  0  0  0  0  0  0  0  0
  142.9900   76.5710  217.6870 C   0  0  0  0  0  0  0  0  0  0  0  0
  142.7690   77.4200  218.7460 C   0  0  0  0  0  0  0  0  0  0  0  0
  143.0070   76.7790  219.9200 N   0  0  0  0  0  0  0  0  0  0  0  0
  140.1630   77.2290  221.8340 C   0  0  0  0  0  0  0  0  0  0  0  0
  139.1490   77.9390  222.4410 C   0  0  0  0  0  0  0  0  0  0  0  0
  139.3620   79.1060  223.1180 C   0  0  0  0  0  0  0  0  0  0  0  0
  140.6570   79.6050  223.2030 C   0  0  0  0  0  0  0  0  0  0  0  0
  140.9660   80.7610  223.8570 C   0  0  0  0  0  0  0  0  0  0  0  0
  142.2750   81.2300  223.9210 C   0  0  0  0  0  0  0  0  0  0  0  0
  142.4980   82.3820  224.5880 F   0  0  0  0  0  0  0  0  0  0  0  0
  143.2890   80.5130  223.3090 C   0  0  0  0  0  0  0  0  0  0  0  0
  142.9870   79.3350  222.6400 C   0  0  0  0  0  0  0  0  0  0  0  0
  141.6690   78.8840  222.5890 C   0  0  0  0  0  0  0  0  0  0  0  0
  141.4220   77.7430  221.9330 N   0  0  0  0  0  0  0  0  0  0  0  0
  141.4620   74.9590  222.1730 H   0  0  0  0  0  0  0  0  0  0  0  0
  140.4733   72.7694  221.5087 H   0  0  0  0  0  0  0  0  0  0  0  0
  139.5750   73.5899  220.1941 H   0  0  0  0  0  0  0  0  0  0  0  0
  143.7861   71.8247  221.6685 H   0  0  0  0  0  0  0  0  0  0  0  0
  142.8333   71.1559  220.2924 H   0  0  0  0  0  0  0  0  0  0  0  0
  145.5255   71.1068  220.3851 H   0  0  0  0  0  0  0  0  0  0  0  0
  144.5644   71.2572  218.8468 H   0  0  0  0  0  0  0  0  0  0  0  0
  146.6034   72.8679  219.5027 H   0  0  0  0  0  0  0  0  0  0  0  0
  145.1539   73.3502  218.4949 H   0  0  0  0  0  0  0  0  0  0  0  0
  145.5609   73.8469  221.4356 H   0  0  0  0  0  0  0  0  0  0  0  0
  145.6712   75.0412  220.0365 H   0  0  0  0  0  0  0  0  0  0  0  0
  143.4990   74.8606  221.5734 H   0  0  0  0  0  0  0  0  0  0  0  0
  142.8813   76.7993  216.6165 H   0  0  0  0  0  0  0  0  0  0  0  0
  142.4459   78.4676  218.6556 H   0  0  0  0  0  0  0  0  0  0  0  0
  142.8950   77.2520  220.8280 H   0  0  0  0  0  0  0  0  0  0  0  0
  138.1227   77.5482  222.3772 H   0  0  0  0  0  0  0  0  0  0  0  0
  138.5238   79.6416  223.5877 H   0  0  0  0  0  0  0  0  0  0  0  0
  140.1640   81.3349  224.3442 H   0  0  0  0  0  0  0  0  0  0  0  0
  144.3270   80.8745  223.3527 H   0  0  0  0  0  0  0  0  0  0  0  0
  143.7861   78.7585  222.1510 H   0  0  0  0  0  0  0  0  0  0  0  0
  1  2  2  0
  2  3  1  0
  3  4  1  0
  4  5  1  0
  5  6  2  0
  5  7  1  0
  7  8  1  0
  8  9  1  0
  9 10  1  0
 10 11  1  0
 11 12  1  0
 12 13  1  0
 13 14  2  0
 14 15  1  0
 15 16  2  0
 16 17  1  0
  2 18  1  0
 18 19  2  0
 19 20  1  0
 20 21  2  0
 21 22  1  0
 22 23  2  0
 23 24  1  0
 23 25  1  0
 25 26  2  0
 26 27  1  0
 27 28  2  0
 12  7  1  0
 17 13  1  0
 28 18  1  0
 27 21  1  0
  3 29  1  0
  4 30  1  0
  4 31  1  0
  8 32  1  0
  8 33  1  0
  9 34  1  0
  9 35  1  0
 10 36  1  0
 10 37  1  0
 11 38  1  0
 11 39  1  0
 12 40  1  1
 15 41  1  0
 16 42  1  0
 17 43  1  0
 19 44  1  0
 20 45  1  0
 22 46  1  0
 25 47  1  0
 26 48  1  0
M  END
>  <smiles>  (29) 
O=C(NCC(=O)N1CCCC[C@H]1c1ncc[nH]1)c1ccc2cc(F)ccc2n1

>  <score_type>  (29) 
oracle

>  <origin>  (29) 
autodockgpu

>  <m_score__min__energy>  (29) 
-7.8799999999999999

>  <m_primary>  (29) 
energy

>  <rmsd>  (29) 
7.59178715329065

>  <m_score__min__rmsd>  (29) 
7.59178715329065

>  <meeko>  (29) 
{"free_energy": -6.6, "intermolecular_energy": -8.09, "internal_energy": -2.79, "cluster_size": 4, "cluster_id": 5, "rank_in_cluster": 3}

>  <energy>  (29) 
-7.04

>  <cluster_rmsd>  (29) 
0.38

>  <cluster>  (29) 
3

$$$$

     RDKit          3D

 48 51  0  0  0  0  0  0  0  0999 V2000
  140.0270   71.5560  220.9650 O   0  0  0  0  0  0  0  0  0  0  0  0
  139.8870   72.1240  222.0830 C   0  0  0  0  0  0  0  0  0  0  0  0
  139.6660   73.5220  222.2240 N   0  0  0  0  0  0  0  0  0  0  0  0
  139.5860   74.3910  221.0660 C   0  0  0  0  0  0  0  0  0  0  0  0
  140.8450   75.1800  220.9710 C   0  0  0  0  0  0  0  0  0  0  0  0
  141.4650   75.3740  222.0520 O   0  0  0  0  0  0  0  0  0  0  0  0
  141.3000   75.6770  219.7160 N   0  0  0  0  0  0  0  0  0  0  0  0
  140.8960   77.0310  219.3060 C   0  0  0  0  0  0  0  0  0  0  0  0
  142.1180   77.8830  219.0370 C   0  0  0  0  0  0  0  0  0  0  0  0
  143.3150   77.0680  218.6430 C   0  0  0  0  0  0  0  0  0  0  0  0
  142.9720   75.7400  218.0360 C   0  0  0  0  0  0  0  0  0  0  0  0
  142.1390   74.8370  218.8910 C   0  0  1  0  0  0  0  0  0  0  0  0
  143.0240   73.9690  219.7120 C   0  0  0  0  0  0  0  0  0  0  0  0
  144.2810   74.2780  220.1400 N   0  0  0  0  0  0  0  0  0  0  0  0
  144.7660   73.2480  220.8560 C   0  0  0  0  0  0  0  0  0  0  0  0
  143.7710   72.2990  220.8540 C   0  0  0  0  0  0  0  0  0  0  0  0
  142.6980   72.7440  220.1500 N   0  0  0  0  0  0  0  0  0  0  0  0
  139.9540   71.3150  223.3060 C   0  0  0  0  0  0  0  0  0  0  0  0
  139.5480   69.9980  223.3250 C   0  0  0  0  0  0  0  0  0  0  0  0
  139.6000   69.2210  224.4480 C   0  0  0  0  0  0  0  0  0  0  0  0
  140.0830   69.7790  225.6270 C   0  0  0  0  0  0  0  0  0  0  0  0
  140.1710   69.0830  226.7960 C   0  0  0  0  0  0  0  0  0  0  0  0
  140.6600   69.6760  227.9570 C   0  0  0  0  0  0  0  0  0  0  0  0
  140.7160   68.9180  229.0730 F   0  0  0  0  0  0  0  0  0  0  0  0
  141.0660   70.9990  227.9310 C   0  0  0  0  0  0  0  0  0  0  0  0
  140.9800   71.7170  226.7470 C   0  0  0  0  0  0  0  0  0  0  0  0
  140.4880   71.1040  225.5960 C   0  0  0  0  0  0  0  0  0  0  0  0
  140.4220   71.8340  224.4760 N   0  0  0  0  0  0  0  0  0  0  0  0
  139.5590   73.9200  223.2040 H   0  0  0  0  0  0  0  0  0  0  0  0
  139.4600   73.7848  220.1568 H   0  0  0  0  0  0  0  0  0  0  0  0
  138.7261   75.0696  221.1663 H   0  0  0  0  0  0  0  0  0  0  0  0
  140.2889   76.9674  218.3909 H   0  0  0  0  0  0  0  0  0  0  0  0
  140.3094   77.4906  220.1151 H   0  0  0  0  0  0  0  0  0  0  0  0
  141.8858   78.5845  218.2222 H   0  0  0  0  0  0  0  0  0  0  0  0
  142.3671   78.4115  219.9690 H   0  0  0  0  0  0  0  0  0  0  0  0
  143.8999   77.6432  217.9102 H   0  0  0  0  0  0  0  0  0  0  0  0
  143.8789   76.8621  219.5647 H   0  0  0  0  0  0  0  0  0  0  0  0
  142.4209   75.9262  217.1024 H   0  0  0  0  0  0  0  0  0  0  0  0
  143.9294   75.2186  217.8891 H   0  0  0  0  0  0  0  0  0  0  0  0
  141.5077   74.1736  218.2816 H   0  0  0  0  0  0  0  0  0  0  0  0
  145.7509   73.1793  221.3409 H   0  0  0  0  0  0  0  0  0  0  0  0
  143.8348   71.3199  221.3512 H   0  0  0  0  0  0  0  0  0  0  0  0
  141.8490   72.1710  220.0350 H   0  0  0  0  0  0  0  0  0  0  0  0
  139.1651   69.5526  222.3949 H   0  0  0  0  0  0  0  0  0  0  0  0
  139.2660   68.1733  224.4200 H   0  0  0  0  0  0  0  0  0  0  0  0
  139.8491   68.0315  226.8225 H   0  0  0  0  0  0  0  0  0  0  0  0
  141.4539   71.4776  228.8423 H   0  0  0  0  0  0  0  0  0  0  0  0
  141.2998   72.7691  226.7167 H   0  0  0  0  0  0  0  0  0  0  0  0
  1  2  2  0
  2  3  1  0
  3  4  1  0
  4  5  1  0
  5  6  2  0
  5  7  1  0
  7  8  1  0
  8  9  1  0
  9 10  1  0
 10 11  1  0
 11 12  1  0
 12 13  1  0
 13 14  2  0
 14 15  1  0
 15 16  2  0
 16 17  1  0
  2 18  1  0
 18 19  2  0
 19 20  1  0
 20 21  2  0
 21 22  1  0
 22 23  2  0
 23 24  1  0
 23 25  1  0
 25 26  2  0
 26 27  1  0
 27 28  2  0
 12  7  1  0
 17 13  1  0
 28 18  1  0
 27 21  1  0
  3 29  1  0
  4 30  1  0
  4 31  1  0
  8 32  1  0
  8 33  1  0
  9 34  1  0
  9 35  1  0
 10 36  1  0
 10 37  1  0
 11 38  1  0
 11 39  1  0
 12 40  1  6
 15 41  1  0
 16 42  1  0
 17 43  1  0
 19 44  1  0
 20 45  1  0
 22 46  1  0
 25 47  1  0
 26 48  1  0
M  END
>  <smiles>  (30) 
O=C(NCC(=O)N1CCCC[C@H]1c1ncc[nH]1)c1ccc2cc(F)ccc2n1

>  <score_type>  (30) 
oracle

>  <origin>  (30) 
autodockgpu

>  <m_score__min__energy>  (30) 
-7.8799999999999999

>  <m_primary>  (30) 
energy

>  <rmsd>  (30) 
3.3105003594328055

>  <m_score__min__rmsd>  (30) 
3.3105003594328055

>  <meeko>  (30) 
{"free_energy": -7.01, "intermolecular_energy": -8.5, "internal_energy": -2.72, "cluster_size": 15, "cluster_id": 3, "rank_in_cluster": 8}

>  <energy>  (30) 
-7.01

>  <cluster_rmsd>  (30) 
0.41

>  <cluster>  (30) 
3

$$$$

     RDKit          3D

 48 51  0  0  0  0  0  0  0  0999 V2000
  139.3960   71.1340  220.9440 O   0  0  0  0  0  0  0  0  0  0  0  0
  139.4830   71.7460  222.0450 C   0  0  0  0  0  0  0  0  0  0  0  0
  139.5040   73.1630  222.1480 N   0  0  0  0  0  0  0  0  0  0  0  0
  139.4240   74.0050  220.9700 C   0  0  0  0  0  0  0  0  0  0  0  0
  140.2790   75.2070  221.1800 C   0  0  0  0  0  0  0  0  0  0  0  0
  140.7450   75.3630  222.3410 O   0  0  0  0  0  0  0  0  0  0  0  0
  140.5360   76.1120  220.1110 N   0  0  0  0  0  0  0  0  0  0  0  0
  139.8820   77.4290  220.1300 C   0  0  0  0  0  0  0  0  0  0  0  0
  140.9200   78.5300  220.0820 C   0  0  0  0  0  0  0  0  0  0  0  0
  142.1960   78.0920  219.4260 C   0  0  0  0  0  0  0  0  0  0  0  0
  142.0270   76.9510  218.4690 C   0  0  0  0  0  0  0  0  0  0  0  0
  141.4300   75.7070  219.0480 C   0  0  1  0  0  0  0  0  0  0  0  0
  142.5120   74.8180  219.5490 C   0  0  0  0  0  0  0  0  0  0  0  0
  143.1530   73.8510  218.8340 N   0  0  0  0  0  0  0  0  0  0  0  0
  144.0680   73.2590  219.6210 C   0  0  0  0  0  0  0  0  0  0  0  0
  143.9690   73.8890  220.8390 C   0  0  0  0  0  0  0  0  0  0  0  0
  143.0100   74.8500  220.7940 N   0  0  0  0  0  0  0  0  0  0  0  0
  139.5670   70.9660  223.2860 C   0  0  0  0  0  0  0  0  0  0  0  0
  139.1410   69.6570  223.3490 C   0  0  0  0  0  0  0  0  0  0  0  0
  139.2080   68.9090  224.4900 C   0  0  0  0  0  0  0  0  0  0  0  0
  139.7280   69.4890  225.6420 C   0  0  0  0  0  0  0  0  0  0  0  0
  139.8340   68.8220  226.8270 C   0  0  0  0  0  0  0  0  0  0  0  0
  140.3610   69.4350  227.9600 C   0  0  0  0  0  0  0  0  0  0  0  0
  140.4320   68.7060  229.0930 F   0  0  0  0  0  0  0  0  0  0  0  0
  140.7860   70.7510  227.8890 C   0  0  0  0  0  0  0  0  0  0  0  0
  140.6830   71.4400  226.6900 C   0  0  0  0  0  0  0  0  0  0  0  0
  140.1530   70.8060  225.5670 C   0  0  0  0  0  0  0  0  0  0  0  0
  140.0720   71.5080  224.4300 N   0  0  0  0  0  0  0  0  0  0  0  0
  139.5800   73.5980  223.1160 H   0  0  0  0  0  0  0  0  0  0  0  0
  139.7803   73.4468  220.0917 H   0  0  0  0  0  0  0  0  0  0  0  0
  138.3816   74.3128  220.8007 H   0  0  0  0  0  0  0  0  0  0  0  0
  139.2181   77.5175  219.2574 H   0  0  0  0  0  0  0  0  0  0  0  0
  139.2988   77.5263  221.0576 H   0  0  0  0  0  0  0  0  0  0  0  0
  140.5071   79.3790  219.5175 H   0  0  0  0  0  0  0  0  0  0  0  0
  141.1575   78.8092  221.1191 H   0  0  0  0  0  0  0  0  0  0  0  0
  142.6132   78.9475  218.8746 H   0  0  0  0  0  0  0  0  0  0  0  0
  142.8623   77.7402  220.2274 H   0  0  0  0  0  0  0  0  0  0  0  0
  141.3759   77.2896  217.6496 H   0  0  0  0  0  0  0  0  0  0  0  0
  143.0416   76.6762  218.1448 H   0  0  0  0  0  0  0  0  0  0  0  0
  140.8681   75.1396  218.2915 H   0  0  0  0  0  0  0  0  0  0  0  0
  144.7522   72.4421  219.3479 H   0  0  0  0  0  0  0  0  0  0  0  0
  144.5786   73.6494  221.7227 H   0  0  0  0  0  0  0  0  0  0  0  0
  142.7890   75.4330  221.6140 H   0  0  0  0  0  0  0  0  0  0  0  0
  138.7288   69.1940  222.4403 H   0  0  0  0  0  0  0  0  0  0  0  0
  138.8569   67.8666  224.4975 H   0  0  0  0  0  0  0  0  0  0  0  0
  139.4957   67.7771  226.8886 H   0  0  0  0  0  0  0  0  0  0  0  0
  141.2027   71.2467  228.7782 H   0  0  0  0  0  0  0  0  0  0  0  0
  141.0190   72.4854  226.6250 H   0  0  0  0  0  0  0  0  0  0  0  0
  1  2  2  0
  2  3  1  0
  3  4  1  0
  4  5  1  0
  5  6  2  0
  5  7  1  0
  7  8  1  0
  8  9  1  0
  9 10  1  0
 10 11  1  0
 11 12  1  0
 12 13  1  0
 13 14  2  0
 14 15  1  0
 15 16  2  0
 16 17  1  0
  2 18  1  0
 18 19  2  0
 19 20  1  0
 20 21  2  0
 21 22  1  0
 22 23  2  0
 23 24  1  0
 23 25  1  0
 25 26  2  0
 26 27  1  0
 27 28  2  0
 12  7  1  0
 17 13  1  0
 28 18  1  0
 27 21  1  0
  3 29  1  0
  4 30  1  0
  4 31  1  0
  8 32  1  0
  8 33  1  0
  9 34  1  0
  9 35  1  0
 10 36  1  0
 10 37  1  0
 11 38  1  0
 11 39  1  0
 12 40  1  6
 15 41  1  0
 16 42  1  0
 17 43  1  0
 19 44  1  0
 20 45  1  0
 22 46  1  0
 25 47  1  0
 26 48  1  0
M  END
>  <smiles>  (31) 
O=C(NCC(=O)N1CCCC[C@H]1c1ncc[nH]1)c1ccc2cc(F)ccc2n1

>  <score_type>  (31) 
oracle

>  <origin>  (31) 
autodockgpu

>  <m_score__min__energy>  (31) 
-7.8799999999999999

>  <m_primary>  (31) 
energy

>  <rmsd>  (31) 
2.954877936052845

>  <m_score__min__rmsd>  (31) 
2.954877936052845

>  <meeko>  (31) 
{"free_energy": -7.14, "intermolecular_energy": -8.63, "internal_energy": -2.76, "cluster_size": 19, "cluster_id": 1, "rank_in_cluster": 6}

>  <energy>  (31) 
-6.99

>  <cluster_rmsd>  (31) 
0.53

>  <cluster>  (31) 
3

$$$$

     RDKit          3D

 48 51  0  0  0  0  0  0  0  0999 V2000
  139.9570   71.7650  221.0220 O   0  0  0  0  0  0  0  0  0  0  0  0
  139.8190   72.2920  222.1610 C   0  0  0  0  0  0  0  0  0  0  0  0
  139.6180   73.6860  222.3540 N   0  0  0  0  0  0  0  0  0  0  0  0
  139.5560   74.6000  221.2300 C   0  0  0  0  0  0  0  0  0  0  0  0
  140.7300   75.5160  221.2920 C   0  0  0  0  0  0  0  0  0  0  0  0
  141.8660   74.9680  221.2700 O   0  0  0  0  0  0  0  0  0  0  0  0
  140.5490   76.9260  221.3710 N   0  0  0  0  0  0  0  0  0  0  0  0
  140.1530   77.5150  222.6590 C   0  0  0  0  0  0  0  0  0  0  0  0
  141.1650   78.5530  223.0940 C   0  0  0  0  0  0  0  0  0  0  0  0
  141.9010   79.1610  221.9370 C   0  0  0  0  0  0  0  0  0  0  0  0
  141.1520   79.1000  220.6390 C   0  0  0  0  0  0  0  0  0  0  0  0
  140.7600   77.7280  220.1860 C   0  0  1  0  0  0  0  0  0  0  0  0
  141.8310   77.1620  219.3230 C   0  0  0  0  0  0  0  0  0  0  0  0
  141.8200   77.1040  217.9620 N   0  0  0  0  0  0  0  0  0  0  0  0
  142.9580   76.5250  217.5380 C   0  0  0  0  0  0  0  0  0  0  0  0
  143.6660   76.2290  218.6790 C   0  0  0  0  0  0  0  0  0  0  0  0
  142.9720   76.6220  219.7790 N   0  0  0  0  0  0  0  0  0  0  0  0
  139.8690   71.4350  223.3520 C   0  0  0  0  0  0  0  0  0  0  0  0
  139.4500   70.1220  223.3160 C   0  0  0  0  0  0  0  0  0  0  0  0
  139.4850   69.3030  224.4090 C   0  0  0  0  0  0  0  0  0  0  0  0
  139.9630   69.8100  225.6120 C   0  0  0  0  0  0  0  0  0  0  0  0
  140.0350   69.0680  226.7540 C   0  0  0  0  0  0  0  0  0  0  0  0
  140.5200   69.6100  227.9410 C   0  0  0  0  0  0  0  0  0  0  0  0
  140.5590   68.8090  229.0270 F   0  0  0  0  0  0  0  0  0  0  0  0
  140.9390   70.9290  227.9690 C   0  0  0  0  0  0  0  0  0  0  0  0
  140.8700   71.6940  226.8140 C   0  0  0  0  0  0  0  0  0  0  0  0
  140.3810   71.1310  225.6360 C   0  0  0  0  0  0  0  0  0  0  0  0
  140.3320   71.9040  224.5440 N   0  0  0  0  0  0  0  0  0  0  0  0
  139.5110   74.0480  223.3490 H   0  0  0  0  0  0  0  0  0  0  0  0
  139.5800   74.0311  220.2888 H   0  0  0  0  0  0  0  0  0  0  0  0
  138.6240   75.1827  221.2725 H   0  0  0  0  0  0  0  0  0  0  0  0
  139.1672   77.9913  222.5526 H   0  0  0  0  0  0  0  0  0  0  0  0
  140.1068   76.7197  223.4175 H   0  0  0  0  0  0  0  0  0  0  0  0
  140.6389   79.3525  223.6362 H   0  0  0  0  0  0  0  0  0  0  0  0
  141.9056   78.0493  223.7325 H   0  0  0  0  0  0  0  0  0  0  0  0
  142.1023   80.2168  222.1711 H   0  0  0  0  0  0  0  0  0  0  0  0
  142.8219   78.5748  221.8015 H   0  0  0  0  0  0  0  0  0  0  0  0
  140.2340   79.6960  220.7489 H   0  0  0  0  0  0  0  0  0  0  0  0
  141.8415   79.4857  219.8736 H   0  0  0  0  0  0  0  0  0  0  0  0
  139.8370   77.7485  219.5880 H   0  0  0  0  0  0  0  0  0  0  0  0
  143.2586   76.3296  216.4981 H   0  0  0  0  0  0  0  0  0  0  0  0
  144.6529   75.7436  218.6984 H   0  0  0  0  0  0  0  0  0  0  0  0
  143.3410   76.4840  220.7300 H   0  0  0  0  0  0  0  0  0  0  0  0
  139.0712   69.7163  222.3663 H   0  0  0  0  0  0  0  0  0  0  0  0
  139.1410   68.2606  224.3384 H   0  0  0  0  0  0  0  0  0  0  0  0
  139.7029   68.0195  226.7368 H   0  0  0  0  0  0  0  0  0  0  0  0
  141.3242   71.3677  228.9013 H   0  0  0  0  0  0  0  0  0  0  0  0
  141.2005   72.7431  226.8274 H   0  0  0  0  0  0  0  0  0  0  0  0
  1  2  2  0
  2  3  1  0
  3  4  1  0
  4  5  1  0
  5  6  2  0
  5  7  1  0
  7  8  1  0
  8  9  1  0
  9 10  1  0
 10 11  1  0
 11 12  1  0
 12 13  1  0
 13 14  2  0
 14 15  1  0
 15 16  2  0
 16 17  1  0
  2 18  1  0
 18 19  2  0
 19 20  1  0
 20 21  2  0
 21 22  1  0
 22 23  2  0
 23 24  1  0
 23 25  1  0
 25 26  2  0
 26 27  1  0
 27 28  2  0
 12  7  1  0
 17 13  1  0
 28 18  1  0
 27 21  1  0
  3 29  1  0
  4 30  1  0
  4 31  1  0
  8 32  1  0
  8 33  1  0
  9 34  1  0
  9 35  1  0
 10 36  1  0
 10 37  1  0
 11 38  1  0
 11 39  1  0
 12 40  1  6
 15 41  1  0
 16 42  1  0
 17 43  1  0
 19 44  1  0
 20 45  1  0
 22 46  1  0
 25 47  1  0
 26 48  1  0
M  END
>  <smiles>  (32) 
O=C(NCC(=O)N1CCCC[C@H]1c1ncc[nH]1)c1ccc2cc(F)ccc2n1

>  <score_type>  (32) 
oracle

>  <origin>  (32) 
autodockgpu

>  <m_score__min__energy>  (32) 
-7.8799999999999999

>  <m_primary>  (32) 
energy

>  <rmsd>  (32) 
3.3700078084271974

>  <m_score__min__rmsd>  (32) 
3.3700078084271974

>  <meeko>  (32) 
{"free_energy": -7.77, "intermolecular_energy": -9.26, "internal_energy": -1.98, "cluster_size": 19, "cluster_id": 1, "rank_in_cluster": 2}

>  <energy>  (32) 
-6.98

>  <cluster_rmsd>  (32) 
0.64

>  <cluster>  (32) 
3

$$$$

     RDKit          3D

 48 51  0  0  0  0  0  0  0  0999 V2000
  138.8940   71.1870  221.0800 O   0  0  0  0  0  0  0  0  0  0  0  0
  139.2810   71.7700  222.1310 C   0  0  0  0  0  0  0  0  0  0  0  0
  139.5620   73.1630  222.1890 N   0  0  0  0  0  0  0  0  0  0  0  0
  139.4150   74.0090  221.0210 C   0  0  0  0  0  0  0  0  0  0  0  0
  140.2440   75.2320  221.2080 C   0  0  0  0  0  0  0  0  0  0  0  0
  140.8090   75.3570  222.3290 O   0  0  0  0  0  0  0  0  0  0  0  0
  140.3740   76.1900  220.1620 N   0  0  0  0  0  0  0  0  0  0  0  0
  139.6570   77.4690  220.2850 C   0  0  0  0  0  0  0  0  0  0  0  0
  140.6310   78.6250  220.2060 C   0  0  0  0  0  0  0  0  0  0  0  0
  141.8740   78.2810  219.4400 C   0  0  0  0  0  0  0  0  0  0  0  0
  141.6910   77.1700  218.4510 C   0  0  0  0  0  0  0  0  0  0  0  0
  141.2030   75.8740  219.0200 C   0  0  1  0  0  0  0  0  0  0  0  0
  142.3640   75.0270  219.4010 C   0  0  0  0  0  0  0  0  0  0  0  0
  142.9870   74.1120  218.6060 N   0  0  0  0  0  0  0  0  0  0  0  0
  143.9920   73.5440  219.2960 C   0  0  0  0  0  0  0  0  0  0  0  0
  143.9660   74.1350  220.5370 C   0  0  0  0  0  0  0  0  0  0  0  0
  142.9630   75.0500  220.6010 N   0  0  0  0  0  0  0  0  0  0  0  0
  139.4540   70.9840  223.3580 C   0  0  0  0  0  0  0  0  0  0  0  0
  139.0870   69.6570  223.4260 C   0  0  0  0  0  0  0  0  0  0  0  0
  139.2370   68.9020  224.5540 C   0  0  0  0  0  0  0  0  0  0  0  0
  139.7840   69.4930  225.6880 C   0  0  0  0  0  0  0  0  0  0  0  0
  139.9720   68.8190  226.8590 C   0  0  0  0  0  0  0  0  0  0  0  0
  140.5230   69.4440  227.9740 C   0  0  0  0  0  0  0  0  0  0  0  0
  140.6760   68.7080  229.0950 F   0  0  0  0  0  0  0  0  0  0  0  0
  140.8900   70.7770  227.8990 C   0  0  0  0  0  0  0  0  0  0  0  0
  140.7030   71.4720  226.7140 C   0  0  0  0  0  0  0  0  0  0  0  0
  140.1500   70.8270  225.6090 C   0  0  0  0  0  0  0  0  0  0  0  0
  139.9870   71.5350  224.4850 N   0  0  0  0  0  0  0  0  0  0  0  0
  139.8840   73.5740  223.1160 H   0  0  0  0  0  0  0  0  0  0  0  0
  139.7533   73.4661  220.1261 H   0  0  0  0  0  0  0  0  0  0  0  0
  138.3590   74.2889  220.8922 H   0  0  0  0  0  0  0  0  0  0  0  0
  138.9246   77.5547  219.4688 H   0  0  0  0  0  0  0  0  0  0  0  0
  139.1424   77.4995  221.2567 H   0  0  0  0  0  0  0  0  0  0  0  0
  140.1339   79.4711  219.7091 H   0  0  0  0  0  0  0  0  0  0  0  0
  140.9321   78.8776  221.2334 H   0  0  0  0  0  0  0  0  0  0  0  0
  142.2046   79.1779  218.8958 H   0  0  0  0  0  0  0  0  0  0  0  0
  142.6158   77.9349  220.1748 H   0  0  0  0  0  0  0  0  0  0  0  0
  140.9634   77.5042  217.6967 H   0  0  0  0  0  0  0  0  0  0  0  0
  142.6907   76.9626  218.0417 H   0  0  0  0  0  0  0  0  0  0  0  0
  140.6140   75.3060  218.2849 H   0  0  0  0  0  0  0  0  0  0  0  0
  144.6883   72.7695  218.9419 H   0  0  0  0  0  0  0  0  0  0  0  0
  144.6575   73.9010  221.3598 H   0  0  0  0  0  0  0  0  0  0  0  0
  142.7840   75.5980  221.4540 H   0  0  0  0  0  0  0  0  0  0  0  0
  138.6540   69.1851  222.5317 H   0  0  0  0  0  0  0  0  0  0  0  0
  138.9307   67.8456  224.5655 H   0  0  0  0  0  0  0  0  0  0  0  0
  139.6822   67.7598  226.9234 H   0  0  0  0  0  0  0  0  0  0  0  0
  141.3269   71.2811  228.7736 H   0  0  0  0  0  0  0  0  0  0  0  0
  140.9908   72.5315  226.6459 H   0  0  0  0  0  0  0  0  0  0  0  0
  1  2  2  0
  2  3  1  0
  3  4  1  0
  4  5  1  0
  5  6  2  0
  5  7  1  0
  7  8  1  0
  8  9  1  0
  9 10  1  0
 10 11  1  0
 11 12  1  0
 12 13  1  0
 13 14  2  0
 14 15  1  0
 15 16  2  0
 16 17  1  0
  2 18  1  0
 18 19  2  0
 19 20  1  0
 20 21  2  0
 21 22  1  0
 22 23  2  0
 23 24  1  0
 23 25  1  0
 25 26  2  0
 26 27  1  0
 27 28  2  0
 12  7  1  0
 17 13  1  0
 28 18  1  0
 27 21  1  0
  3 29  1  0
  4 30  1  0
  4 31  1  0
  8 32  1  0
  8 33  1  0
  9 34  1  0
  9 35  1  0
 10 36  1  0
 10 37  1  0
 11 38  1  0
 11 39  1  0
 12 40  1  6
 15 41  1  0
 16 42  1  0
 17 43  1  0
 19 44  1  0
 20 45  1  0
 22 46  1  0
 25 47  1  0
 26 48  1  0
M  END
>  <smiles>  (33) 
O=C(NCC(=O)N1CCCC[C@H]1c1ncc[nH]1)c1ccc2cc(F)ccc2n1

>  <score_type>  (33) 
oracle

>  <origin>  (33) 
autodockgpu

>  <m_score__min__energy>  (33) 
-7.8799999999999999

>  <m_primary>  (33) 
energy

>  <rmsd>  (33) 
2.9265302902025914

>  <m_score__min__rmsd>  (33) 
2.9265302902025914

>  <meeko>  (33) 
{"free_energy": -6.9, "intermolecular_energy": -8.39, "internal_energy": -2.85, "cluster_size": 19, "cluster_id": 1, "rank_in_cluster": 19}

>  <energy>  (33) 
-6.92

>  <cluster_rmsd>  (33) 
0.65

>  <cluster>  (33) 
3

$$$$

     RDKit          3D

 48 51  0  0  0  0  0  0  0  0999 V2000
  140.1600   71.6530  220.9740 O   0  0  0  0  0  0  0  0  0  0  0  0
  139.9360   72.2090  222.0850 C   0  0  0  0  0  0  0  0  0  0  0  0
  139.7320   73.6090  222.2270 N   0  0  0  0  0  0  0  0  0  0  0  0
  139.7700   74.4950  221.0800 C   0  0  0  0  0  0  0  0  0  0  0  0
  140.9900   75.3460  221.1710 C   0  0  0  0  0  0  0  0  0  0  0  0
  141.4210   75.5790  222.3330 O   0  0  0  0  0  0  0  0  0  0  0  0
  141.6130   75.8530  219.9950 N   0  0  0  0  0  0  0  0  0  0  0  0
  141.6310   75.0110  218.7880 C   0  0  0  0  0  0  0  0  0  0  0  0
  140.9730   75.7360  217.6340 C   0  0  0  0  0  0  0  0  0  0  0  0
  141.0410   77.2280  217.7750 C   0  0  0  0  0  0  0  0  0  0  0  0
  142.1770   77.7070  218.6290 C   0  0  0  0  0  0  0  0  0  0  0  0
  142.2020   77.1730  220.0270 C   0  0  1  0  0  0  0  0  0  0  0  0
  141.4500   78.0890  220.9250 C   0  0  0  0  0  0  0  0  0  0  0  0
  140.5560   79.0410  220.5370 N   0  0  0  0  0  0  0  0  0  0  0  0
  140.0820   79.6690  221.6280 C   0  0  0  0  0  0  0  0  0  0  0  0
  140.7110   79.0740  222.6960 C   0  0  0  0  0  0  0  0  0  0  0  0
  141.5540   78.1000  222.2630 N   0  0  0  0  0  0  0  0  0  0  0  0
  139.8810   71.3820  223.2960 C   0  0  0  0  0  0  0  0  0  0  0  0
  139.3760   70.0990  223.2740 C   0  0  0  0  0  0  0  0  0  0  0  0
  139.3130   69.3070  224.3850 C   0  0  0  0  0  0  0  0  0  0  0  0
  139.7770   69.8120  225.5950 C   0  0  0  0  0  0  0  0  0  0  0  0
  139.7550   69.0970  226.7560 C   0  0  0  0  0  0  0  0  0  0  0  0
  140.2280   69.6360  227.9490 C   0  0  0  0  0  0  0  0  0  0  0  0
  140.1720   68.8630  229.0540 F   0  0  0  0  0  0  0  0  0  0  0  0
  140.7340   70.9250  227.9640 C   0  0  0  0  0  0  0  0  0  0  0  0
  140.7620   71.6620  226.7890 C   0  0  0  0  0  0  0  0  0  0  0  0
  140.2820   71.1030  225.6050 C   0  0  0  0  0  0  0  0  0  0  0  0
  140.3280   71.8490  224.4950 N   0  0  0  0  0  0  0  0  0  0  0  0
  139.5500   73.9960  223.2010 H   0  0  0  0  0  0  0  0  0  0  0  0
  139.8018   73.9009  220.1548 H   0  0  0  0  0  0  0  0  0  0  0  0
  138.8716   75.1296  221.0679 H   0  0  0  0  0  0  0  0  0  0  0  0
  142.6729   74.7776  218.5235 H   0  0  0  0  0  0  0  0  0  0  0  0
  141.0773   74.0823  218.9904 H   0  0  0  0  0  0  0  0  0  0  0  0
  141.4799   75.4469  216.7015 H   0  0  0  0  0  0  0  0  0  0  0  0
  139.9107   75.4507  217.6240 H   0  0  0  0  0  0  0  0  0  0  0  0
  141.1532   77.6658  216.7721 H   0  0  0  0  0  0  0  0  0  0  0  0
  140.1123   77.5441  218.2726 H   0  0  0  0  0  0  0  0  0  0  0  0
  143.1169   77.4148  218.1378 H   0  0  0  0  0  0  0  0  0  0  0  0
  142.0457   78.7950  218.7237 H   0  0  0  0  0  0  0  0  0  0  0  0
  143.2288   77.1069  220.4160 H   0  0  0  0  0  0  0  0  0  0  0  0
  139.3463   80.4862  221.6592 H   0  0  0  0  0  0  0  0  0  0  0  0
  140.5543   79.3472  223.7500 H   0  0  0  0  0  0  0  0  0  0  0  0
  142.1170   77.5400  222.9180 H   0  0  0  0  0  0  0  0  0  0  0  0
  139.0076   69.6955  222.3193 H   0  0  0  0  0  0  0  0  0  0  0  0
  138.9027   68.2882  224.3239 H   0  0  0  0  0  0  0  0  0  0  0  0
  139.3549   68.0724  226.7496 H   0  0  0  0  0  0  0  0  0  0  0  0
  141.1110   71.3613  228.9008 H   0  0  0  0  0  0  0  0  0  0  0  0
  141.1625   72.6865  226.7913 H   0  0  0  0  0  0  0  0  0  0  0  0
  1  2  2  0
  2  3  1  0
  3  4  1  0
  4  5  1  0
  5  6  2  0
  5  7  1  0
  7  8  1  0
  8  9  1  0
  9 10  1  0
 10 11  1  0
 11 12  1  0
 12 13  1  0
 13 14  2  0
 14 15  1  0
 15 16  2  0
 16 17  1  0
  2 18  1  0
 18 19  2  0
 19 20  1  0
 20 21  2  0
 21 22  1  0
 22 23  2  0
 23 24  1  0
 23 25  1  0
 25 26  2  0
 26 27  1  0
 27 28  2  0
 12  7  1  0
 17 13  1  0
 28 18  1  0
 27 21  1  0
  3 29  1  0
  4 30  1  0
  4 31  1  0
  8 32  1  0
  8 33  1  0
  9 34  1  0
  9 35  1  0
 10 36  1  0
 10 37  1  0
 11 38  1  0
 11 39  1  0
 12 40  1  1
 15 41  1  0
 16 42  1  0
 17 43  1  0
 19 44  1  0
 20 45  1  0
 22 46  1  0
 25 47  1  0
 26 48  1  0
M  END
>  <smiles>  (34) 
O=C(NCC(=O)N1CCCC[C@H]1c1ncc[nH]1)c1ccc2cc(F)ccc2n1

>  <score_type>  (34) 
oracle

>  <origin>  (34) 
autodockgpu

>  <m_score__min__energy>  (34) 
-7.8799999999999999

>  <m_primary>  (34) 
energy

>  <rmsd>  (34) 
1.6003168825384473

>  <m_score__min__rmsd>  (34) 
1.6003168825384473

>  <meeko>  (34) 
{"free_energy": -7.0, "intermolecular_energy": -8.49, "internal_energy": -2.2, "cluster_size": 19, "cluster_id": 1, "rank_in_cluster": 16}

>  <energy>  (34) 
-6.92

>  <cluster_rmsd>  (34) 
0.65

>  <cluster>  (34) 
3

$$$$

     RDKit          3D

 48 51  0  0  0  0  0  0  0  0999 V2000
  139.1900   71.1690  221.0080 O   0  0  0  0  0  0  0  0  0  0  0  0
  139.3620   71.7650  222.1080 C   0  0  0  0  0  0  0  0  0  0  0  0
  139.4400   73.1800  222.2220 N   0  0  0  0  0  0  0  0  0  0  0  0
  139.3240   74.0370  221.0580 C   0  0  0  0  0  0  0  0  0  0  0  0
  140.2550   75.1890  221.2150 C   0  0  0  0  0  0  0  0  0  0  0  0
  140.8000   75.3150  222.3450 O   0  0  0  0  0  0  0  0  0  0  0  0
  140.4960   76.0820  220.1320 N   0  0  0  0  0  0  0  0  0  0  0  0
  139.8350   77.3960  220.1420 C   0  0  0  0  0  0  0  0  0  0  0  0
  140.8660   78.5010  220.0690 C   0  0  0  0  0  0  0  0  0  0  0  0
  142.1380   78.0620  219.4050 C   0  0  0  0  0  0  0  0  0  0  0  0
  141.9650   76.9080  218.4630 C   0  0  0  0  0  0  0  0  0  0  0  0
  141.3800   75.6680  219.0650 C   0  0  1  0  0  0  0  0  0  0  0  0
  142.4730   74.7920  219.5650 C   0  0  0  0  0  0  0  0  0  0  0  0
  143.0830   73.7920  218.8690 N   0  0  0  0  0  0  0  0  0  0  0  0
  144.0200   73.2240  219.6490 C   0  0  0  0  0  0  0  0  0  0  0  0
  143.9670   73.9040  220.8420 C   0  0  0  0  0  0  0  0  0  0  0  0
  143.0130   74.8700  220.7900 N   0  0  0  0  0  0  0  0  0  0  0  0
  139.4880   70.9700  223.3350 C   0  0  0  0  0  0  0  0  0  0  0  0
  139.0730   69.6570  223.3930 C   0  0  0  0  0  0  0  0  0  0  0  0
  139.1790   68.8940  224.5220 C   0  0  0  0  0  0  0  0  0  0  0  0
  139.7300   69.4630  225.6650 C   0  0  0  0  0  0  0  0  0  0  0  0
  139.8760   68.7800  226.8370 C   0  0  0  0  0  0  0  0  0  0  0  0
  140.4310   69.3820  227.9620 C   0  0  0  0  0  0  0  0  0  0  0  0
  140.5420   68.6380  229.0830 F   0  0  0  0  0  0  0  0  0  0  0  0
  140.8460   70.7020  227.8970 C   0  0  0  0  0  0  0  0  0  0  0  0
  140.7020   71.4060  226.7110 C   0  0  0  0  0  0  0  0  0  0  0  0
  140.1430   70.7830  225.5960 C   0  0  0  0  0  0  0  0  0  0  0  0
  140.0230   71.5000  224.4710 N   0  0  0  0  0  0  0  0  0  0  0  0
  139.5870   73.6010  223.1880 H   0  0  0  0  0  0  0  0  0  0  0  0
  139.5875   73.4694  220.1533 H   0  0  0  0  0  0  0  0  0  0  0  0
  138.2905   74.4019  220.9642 H   0  0  0  0  0  0  0  0  0  0  0  0
  139.1611   77.4702  219.2757 H   0  0  0  0  0  0  0  0  0  0  0  0
  139.2614   77.5018  221.0746 H   0  0  0  0  0  0  0  0  0  0  0  0
  140.4425   79.3406  219.4982 H   0  0  0  0  0  0  0  0  0  0  0  0
  141.1130   78.7942  221.1000 H   0  0  0  0  0  0  0  0  0  0  0  0
  142.5448   78.9130  218.8391 H   0  0  0  0  0  0  0  0  0  0  0  0
  142.8146   77.7236  220.2035 H   0  0  0  0  0  0  0  0  0  0  0  0
  141.3036   77.2331  217.6464 H   0  0  0  0  0  0  0  0  0  0  0  0
  142.9773   76.6344  218.1307 H   0  0  0  0  0  0  0  0  0  0  0  0
  140.8120   75.0878  218.3229 H   0  0  0  0  0  0  0  0  0  0  0  0
  144.6882   72.3904  219.3871 H   0  0  0  0  0  0  0  0  0  0  0  0
  144.6051   73.6961  221.7136 H   0  0  0  0  0  0  0  0  0  0  0  0
  142.8230   75.4880  221.5930 H   0  0  0  0  0  0  0  0  0  0  0  0
  138.6372   69.2031  222.4908 H   0  0  0  0  0  0  0  0  0  0  0  0
  138.8349   67.8492  224.5264 H   0  0  0  0  0  0  0  0  0  0  0  0
  139.5481   67.7315  226.8937 H   0  0  0  0  0  0  0  0  0  0  0  0
  141.2866   71.1883  228.7798 H   0  0  0  0  0  0  0  0  0  0  0  0
  141.0284   72.4547  226.6500 H   0  0  0  0  0  0  0  0  0  0  0  0
  1  2  2  0
  2  3  1  0
  3  4  1  0
  4  5  1  0
  5  6  2  0
  5  7  1  0
  7  8  1  0
  8  9  1  0
  9 10  1  0
 10 11  1  0
 11 12  1  0
 12 13  1  0
 13 14  2  0
 14 15  1  0
 15 16  2  0
 16 17  1  0
  2 18  1  0
 18 19  2  0
 19 20  1  0
 20 21  2  0
 21 22  1  0
 22 23  2  0
 23 24  1  0
 23 25  1  0
 25 26  2  0
 26 27  1  0
 27 28  2  0
 12  7  1  0
 17 13  1  0
 28 18  1  0
 27 21  1  0
  3 29  1  0
  4 30  1  0
  4 31  1  0
  8 32  1  0
  8 33  1  0
  9 34  1  0
  9 35  1  0
 10 36  1  0
 10 37  1  0
 11 38  1  0
 11 39  1  0
 12 40  1  6
 15 41  1  0
 16 42  1  0
 17 43  1  0
 19 44  1  0
 20 45  1  0
 22 46  1  0
 25 47  1  0
 26 48  1  0
M  END
>  <smiles>  (35) 
O=C(NCC(=O)N1CCCC[C@H]1c1ncc[nH]1)c1ccc2cc(F)ccc2n1

>  <score_type>  (35) 
oracle

>  <origin>  (35) 
autodockgpu

>  <m_score__min__energy>  (35) 
-7.8799999999999999

>  <m_primary>  (35) 
energy

>  <rmsd>  (35) 
2.9391899648653217

>  <m_score__min__rmsd>  (35) 
2.9391899648653217

>  <meeko>  (35) 
{"free_energy": -7.11, "intermolecular_energy": -8.61, "internal_energy": -2.77, "cluster_size": 19, "cluster_id": 1, "rank_in_cluster": 10}

>  <energy>  (35) 
-6.92

>  <cluster_rmsd>  (35) 
0.71

>  <cluster>  (35) 
3

$$$$

     RDKit          3D

 48 51  0  0  0  0  0  0  0  0999 V2000
  140.8400   76.9920  217.9570 O   0  0  0  0  0  0  0  0  0  0  0  0
  142.0000   77.0610  218.4500 C   0  0  0  0  0  0  0  0  0  0  0  0
  142.5780   78.2750  218.9140 N   0  0  0  0  0  0  0  0  0  0  0  0
  141.8510   79.5280  218.8460 C   0  0  0  0  0  0  0  0  0  0  0  0
  140.9270   79.6100  220.0110 C   0  0  0  0  0  0  0  0  0  0  0  0
  139.7000   79.4580  219.7620 O   0  0  0  0  0  0  0  0  0  0  0  0
  141.4290   79.8490  221.3230 N   0  0  0  0  0  0  0  0  0  0  0  0
  141.5310   81.2380  221.7970 C   0  0  0  0  0  0  0  0  0  0  0  0
  140.7360   81.4150  223.0720 C   0  0  0  0  0  0  0  0  0  0  0  0
  140.5890   80.1360  223.8440 C   0  0  0  0  0  0  0  0  0  0  0  0
  141.6710   79.1350  223.5710 C   0  0  0  0  0  0  0  0  0  0  0  0
  141.8210   78.7220  222.1400 C   0  0  1  0  0  0  0  0  0  0  0  0
  140.9740   77.5290  221.8730 C   0  0  0  0  0  0  0  0  0  0  0  0
  139.6180   77.4620  221.9930 N   0  0  0  0  0  0  0  0  0  0  0  0
  139.2090   76.2230  221.6670 C   0  0  0  0  0  0  0  0  0  0  0  0
  140.3520   75.5320  221.3440 C   0  0  0  0  0  0  0  0  0  0  0  0
  141.4400   76.3370  221.4700 N   0  0  0  0  0  0  0  0  0  0  0  0
  142.8020   75.8360  218.5550 C   0  0  0  0  0  0  0  0  0  0  0  0
  142.7050   74.8250  217.6230 C   0  0  0  0  0  0  0  0  0  0  0  0
  143.4380   73.6750  217.6960 C   0  0  0  0  0  0  0  0  0  0  0  0
  144.3260   73.5130  218.7550 C   0  0  0  0  0  0  0  0  0  0  0  0
  145.0990   72.4000  218.9110 C   0  0  0  0  0  0  0  0  0  0  0  0
  145.9770   72.2720  219.9840 C   0  0  0  0  0  0  0  0  0  0  0  0
  146.7070   71.1410  220.0660 F   0  0  0  0  0  0  0  0  0  0  0  0
  146.0700   73.2920  220.9160 C   0  0  0  0  0  0  0  0  0  0  0  0
  145.2880   74.4280  220.7680 C   0  0  0  0  0  0  0  0  0  0  0  0
  144.4150   74.5350  219.6850 C   0  0  0  0  0  0  0  0  0  0  0  0
  143.6790   75.6480  219.5810 N   0  0  0  0  0  0  0  0  0  0  0  0
  143.5620   78.2440  219.3150 H   0  0  0  0  0  0  0  0  0  0  0  0
  142.5596   80.3688  218.8761 H   0  0  0  0  0  0  0  0  0  0  0  0
  141.2767   79.5768  217.9091 H   0  0  0  0  0  0  0  0  0  0  0  0
  142.5866   81.4792  221.9906 H   0  0  0  0  0  0  0  0  0  0  0  0
  141.1272   81.9108  221.0261 H   0  0  0  0  0  0  0  0  0  0  0  0
  141.2485   82.1527  223.7070 H   0  0  0  0  0  0  0  0  0  0  0  0
  139.7272   81.7519  222.7911 H   0  0  0  0  0  0  0  0  0  0  0  0
  140.6016   80.3758  224.9175 H   0  0  0  0  0  0  0  0  0  0  0  0
  139.6413   79.6773  223.5253 H   0  0  0  0  0  0  0  0  0  0  0  0
  142.6262   79.5703  223.9000 H   0  0  0  0  0  0  0  0  0  0  0  0
  141.3859   78.2251  224.1195 H   0  0  0  0  0  0  0  0  0  0  0  0
  142.8591   78.4428  221.9067 H   0  0  0  0  0  0  0  0  0  0  0  0
  138.1768   75.8428  221.6603 H   0  0  0  0  0  0  0  0  0  0  0  0
  140.3822   74.4786  221.0287 H   0  0  0  0  0  0  0  0  0  0  0  0
  142.3920   75.9970  221.2710 H   0  0  0  0  0  0  0  0  0  0  0  0
  142.0060   74.9501  216.7829 H   0  0  0  0  0  0  0  0  0  0  0  0
  143.3285   72.8914  216.9318 H   0  0  0  0  0  0  0  0  0  0  0  0
  145.0272   71.5867  218.1738 H   0  0  0  0  0  0  0  0  0  0  0  0
  146.7596   73.2019  221.7682 H   0  0  0  0  0  0  0  0  0  0  0  0
  145.3560   75.2432  221.5034 H   0  0  0  0  0  0  0  0  0  0  0  0
  1  2  2  0
  2  3  1  0
  3  4  1  0
  4  5  1  0
  5  6  2  0
  5  7  1  0
  7  8  1  0
  8  9  1  0
  9 10  1  0
 10 11  1  0
 11 12  1  0
 12 13  1  0
 13 14  2  0
 14 15  1  0
 15 16  2  0
 16 17  1  0
  2 18  1  0
 18 19  2  0
 19 20  1  0
 20 21  2  0
 21 22  1  0
 22 23  2  0
 23 24  1  0
 23 25  1  0
 25 26  2  0
 26 27  1  0
 27 28  2  0
 12  7  1  0
 17 13  1  0
 28 18  1  0
 27 21  1  0
  3 29  1  0
  4 30  1  0
  4 31  1  0
  8 32  1  0
  8 33  1  0
  9 34  1  0
  9 35  1  0
 10 36  1  0
 10 37  1  0
 11 38  1  0
 11 39  1  0
 12 40  1  1
 15 41  1  0
 16 42  1  0
 17 43  1  0
 19 44  1  0
 20 45  1  0
 22 46  1  0
 25 47  1  0
 26 48  1  0
M  END
>  <smiles>  (36) 
O=C(NCC(=O)N1CCCC[C@H]1c1ncc[nH]1)c1ccc2cc(F)ccc2n1

>  <score_type>  (36) 
oracle

>  <origin>  (36) 
autodockgpu

>  <m_score__min__energy>  (36) 
-7.8799999999999999

>  <m_primary>  (36) 
energy

>  <rmsd>  (36) 
7.52924332829164

>  <m_score__min__rmsd>  (36) 
7.52924332829164

>  <meeko>  (36) 
{"free_energy": -6.52, "intermolecular_energy": -8.01, "internal_energy": -2.98, "cluster_size": 1, "cluster_id": 6, "rank_in_cluster": 1}

>  <energy>  (36) 
-6.92

>  <cluster_rmsd>  (36) 
0.77

>  <cluster>  (36) 
3

$$$$

     RDKit          3D

 48 51  0  0  0  0  0  0  0  0999 V2000
  140.7150   71.8880  221.1630 O   0  0  0  0  0  0  0  0  0  0  0  0
  140.0540   72.2980  222.1580 C   0  0  0  0  0  0  0  0  0  0  0  0
  139.3640   73.5410  222.1750 N   0  0  0  0  0  0  0  0  0  0  0  0
  139.3790   74.4260  221.0260 C   0  0  0  0  0  0  0  0  0  0  0  0
  140.7180   75.0730  220.9370 C   0  0  0  0  0  0  0  0  0  0  0  0
  141.4430   74.9960  221.9660 O   0  0  0  0  0  0  0  0  0  0  0  0
  141.1280   75.7340  219.7440 N   0  0  0  0  0  0  0  0  0  0  0  0
  140.5190   77.0310  219.4120 C   0  0  0  0  0  0  0  0  0  0  0  0
  141.5890   78.0900  219.2650 C   0  0  0  0  0  0  0  0  0  0  0  0
  142.9200   77.5160  218.8740 C   0  0  0  0  0  0  0  0  0  0  0  0
  142.8280   76.2020  218.1580 C   0  0  0  0  0  0  0  0  0  0  0  0
  142.1270   75.1100  218.9040 C   0  0  1  0  0  0  0  0  0  0  0  0
  143.1140   74.3380  219.7050 C   0  0  0  0  0  0  0  0  0  0  0  0
  144.3240   74.7890  220.1410 N   0  0  0  0  0  0  0  0  0  0  0  0
  144.9340   73.8090  220.8320 C   0  0  0  0  0  0  0  0  0  0  0  0
  144.0640   72.7450  220.8060 C   0  0  0  0  0  0  0  0  0  0  0  0
  142.9420   73.0710  220.1120 N   0  0  0  0  0  0  0  0  0  0  0  0
  139.9870   71.4610  223.3620 C   0  0  0  0  0  0  0  0  0  0  0  0
  139.3990   70.2140  223.3450 C   0  0  0  0  0  0  0  0  0  0  0  0
  139.3230   69.4140  224.4500 C   0  0  0  0  0  0  0  0  0  0  0  0
  139.8630   69.8720  225.6470 C   0  0  0  0  0  0  0  0  0  0  0  0
  139.8340   69.1450  226.8010 C   0  0  0  0  0  0  0  0  0  0  0  0
  140.3840   69.6370  227.9810 C   0  0  0  0  0  0  0  0  0  0  0  0
  140.3160   68.8550  229.0790 F   0  0  0  0  0  0  0  0  0  0  0  0
  140.9740   70.8900  227.9910 C   0  0  0  0  0  0  0  0  0  0  0  0
  141.0080   71.6390  226.8240 C   0  0  0  0  0  0  0  0  0  0  0  0
  140.4510   71.1270  225.6520 C   0  0  0  0  0  0  0  0  0  0  0  0
  140.5060   71.8830  224.5490 N   0  0  0  0  0  0  0  0  0  0  0  0
  138.8300   73.8100  223.0550 H   0  0  0  0  0  0  0  0  0  0  0  0
  139.1863   73.8471  220.1107 H   0  0  0  0  0  0  0  0  0  0  0  0
  138.5989   75.1939  221.1350 H   0  0  0  0  0  0  0  0  0  0  0  0
  139.9653   76.9405  218.4658 H   0  0  0  0  0  0  0  0  0  0  0  0
  139.8346   77.3233  220.2221 H   0  0  0  0  0  0  0  0  0  0  0  0
  141.2728   78.8052  218.4913 H   0  0  0  0  0  0  0  0  0  0  0  0
  141.7112   78.5780  220.2432 H   0  0  0  0  0  0  0  0  0  0  0  0
  143.4270   78.2353  218.2141 H   0  0  0  0  0  0  0  0  0  0  0  0
  143.4754   77.3338  219.8058 H   0  0  0  0  0  0  0  0  0  0  0  0
  142.2889   76.3676  217.2136 H   0  0  0  0  0  0  0  0  0  0  0  0
  143.8642   75.8585  218.0224 H   0  0  0  0  0  0  0  0  0  0  0  0
  141.6395   74.4013  218.2184 H   0  0  0  0  0  0  0  0  0  0  0  0
  145.9210   73.8504  221.3159 H   0  0  0  0  0  0  0  0  0  0  0  0
  144.2494   71.7694  221.2792 H   0  0  0  0  0  0  0  0  0  0  0  0
  142.1700   72.4010  219.9830 H   0  0  0  0  0  0  0  0  0  0  0  0
  138.9722   69.8469  222.4000 H   0  0  0  0  0  0  0  0  0  0  0  0
  138.8434   68.4256  224.3939 H   0  0  0  0  0  0  0  0  0  0  0  0
  139.3663   68.1494  226.7988 H   0  0  0  0  0  0  0  0  0  0  0  0
  141.4125   71.2884  228.9178 H   0  0  0  0  0  0  0  0  0  0  0  0
  141.4736   72.6356  226.8227 H   0  0  0  0  0  0  0  0  0  0  0  0
  1  2  2  0
  2  3  1  0
  3  4  1  0
  4  5  1  0
  5  6  2  0
  5  7  1  0
  7  8  1  0
  8  9  1  0
  9 10  1  0
 10 11  1  0
 11 12  1  0
 12 13  1  0
 13 14  2  0
 14 15  1  0
 15 16  2  0
 16 17  1  0
  2 18  1  0
 18 19  2  0
 19 20  1  0
 20 21  2  0
 21 22  1  0
 22 23  2  0
 23 24  1  0
 23 25  1  0
 25 26  2  0
 26 27  1  0
 27 28  2  0
 12  7  1  0
 17 13  1  0
 28 18  1  0
 27 21  1  0
  3 29  1  0
  4 30  1  0
  4 31  1  0
  8 32  1  0
  8 33  1  0
  9 34  1  0
  9 35  1  0
 10 36  1  0
 10 37  1  0
 11 38  1  0
 11 39  1  0
 12 40  1  6
 15 41  1  0
 16 42  1  0
 17 43  1  0
 19 44  1  0
 20 45  1  0
 22 46  1  0
 25 47  1  0
 26 48  1  0
M  END
>  <smiles>  (37) 
O=C(NCC(=O)N1CCCC[C@H]1c1ncc[nH]1)c1ccc2cc(F)ccc2n1

>  <score_type>  (37) 
oracle

>  <origin>  (37) 
autodockgpu

>  <m_score__min__energy>  (37) 
-7.8799999999999999

>  <m_primary>  (37) 
energy

>  <rmsd>  (37) 
3.1724374490347444

>  <m_score__min__rmsd>  (37) 
3.1724374490347444

>  <meeko>  (37) 
{"free_energy": -7.4, "intermolecular_energy": -8.9, "internal_energy": -2.35, "cluster_size": 15, "cluster_id": 3, "rank_in_cluster": 2}

>  <energy>  (37) 
-6.91

>  <cluster_rmsd>  (37) 
0.64

>  <cluster>  (37) 
3

$$$$

     RDKit          3D

 48 51  0  0  0  0  0  0  0  0999 V2000
  139.6220   74.4470  222.2090 O   0  0  0  0  0  0  0  0  0  0  0  0
  140.7520   74.8020  221.7740 C   0  0  0  0  0  0  0  0  0  0  0  0
  141.2010   76.1510  221.7830 N   0  0  0  0  0  0  0  0  0  0  0  0
  140.3690   77.2170  222.3050 C   0  0  0  0  0  0  0  0  0  0  0  0
  140.4300   78.3750  221.3700 C   0  0  0  0  0  0  0  0  0  0  0  0
  141.2530   78.2800  220.4190 O   0  0  0  0  0  0  0  0  0  0  0  0
  139.5950   79.5120  221.5640 N   0  0  0  0  0  0  0  0  0  0  0  0
  138.1360   79.3310  221.5110 C   0  0  0  0  0  0  0  0  0  0  0  0
  137.5030   79.8030  222.8030 C   0  0  0  0  0  0  0  0  0  0  0  0
  138.3260   80.8450  223.5020 C   0  0  0  0  0  0  0  0  0  0  0  0
  139.2300   81.6180  222.5900 C   0  0  0  0  0  0  0  0  0  0  0  0
  140.2070   80.7990  221.8060 C   0  0  1  0  0  0  0  0  0  0  0  0
  141.4770   80.6700  222.5690 C   0  0  0  0  0  0  0  0  0  0  0  0
  141.7130   81.1470  223.8230 N   0  0  0  0  0  0  0  0  0  0  0  0
  142.9720   80.8380  224.1800 C   0  0  0  0  0  0  0  0  0  0  0  0
  143.5010   80.1580  223.1090 C   0  0  0  0  0  0  0  0  0  0  0  0
  142.5790   80.0540  222.1160 N   0  0  0  0  0  0  0  0  0  0  0  0
  141.6560   73.7820  221.2290 C   0  0  0  0  0  0  0  0  0  0  0  0
  141.2510   72.4770  221.0490 C   0  0  0  0  0  0  0  0  0  0  0  0
  142.0710   71.5080  220.5440 C   0  0  0  0  0  0  0  0  0  0  0  0
  143.3730   71.8480  220.1940 C   0  0  0  0  0  0  0  0  0  0  0  0
  144.2640   70.9500  219.6830 C   0  0  0  0  0  0  0  0  0  0  0  0
  145.5600   71.3260  219.3440 C   0  0  0  0  0  0  0  0  0  0  0  0
  146.3790   70.3780  218.8430 F   0  0  0  0  0  0  0  0  0  0  0  0
  145.9600   72.6390  219.5270 C   0  0  0  0  0  0  0  0  0  0  0  0
  145.0640   73.5610  220.0470 C   0  0  0  0  0  0  0  0  0  0  0  0
  143.7700   73.1620  220.3790 C   0  0  0  0  0  0  0  0  0  0  0  0
  142.9380   74.0850  220.8770 N   0  0  0  0  0  0  0  0  0  0  0  0
  142.1690   76.3630  221.3970 H   0  0  0  0  0  0  0  0  0  0  0  0
  139.3300   76.8663  222.3919 H   0  0  0  0  0  0  0  0  0  0  0  0
  140.7295   77.5199  223.2991 H   0  0  0  0  0  0  0  0  0  0  0  0
  137.7278   79.9140  220.6723 H   0  0  0  0  0  0  0  0  0  0  0  0
  137.9118   78.2633  221.3707 H   0  0  0  0  0  0  0  0  0  0  0  0
  136.5145   80.2288  222.5760 H   0  0  0  0  0  0  0  0  0  0  0  0
  137.4264   78.9342  223.4733 H   0  0  0  0  0  0  0  0  0  0  0  0
  137.6430   81.5530  223.9941 H   0  0  0  0  0  0  0  0  0  0  0  0
  138.9720   80.3146  224.2171 H   0  0  0  0  0  0  0  0  0  0  0  0
  138.6004   82.1695  221.8763 H   0  0  0  0  0  0  0  0  0  0  0  0
  139.8338   82.2666  223.2417 H   0  0  0  0  0  0  0  0  0  0  0  0
  140.4527   81.2742  220.8448 H   0  0  0  0  0  0  0  0  0  0  0  0
  143.4731   81.0787  225.1292 H   0  0  0  0  0  0  0  0  0  0  0  0
  144.5238   79.7557  223.0623 H   0  0  0  0  0  0  0  0  0  0  0  0
  142.7900   79.5750  221.2290 H   0  0  0  0  0  0  0  0  0  0  0  0
  140.2217   72.2035  221.3242 H   0  0  0  0  0  0  0  0  0  0  0  0
  141.7078   70.4775  220.4166 H   0  0  0  0  0  0  0  0  0  0  0  0
  143.9509   69.9058  219.5358 H   0  0  0  0  0  0  0  0  0  0  0  0
  146.9816   72.9487  219.2617 H   0  0  0  0  0  0  0  0  0  0  0  0
  145.3738   74.6057  220.1973 H   0  0  0  0  0  0  0  0  0  0  0  0
  1  2  2  0
  2  3  1  0
  3  4  1  0
  4  5  1  0
  5  6  2  0
  5  7  1  0
  7  8  1  0
  8  9  1  0
  9 10  1  0
 10 11  1  0
 11 12  1  0
 12 13  1  0
 13 14  2  0
 14 15  1  0
 15 16  2  0
 16 17  1  0
  2 18  1  0
 18 19  2  0
 19 20  1  0
 20 21  2  0
 21 22  1  0
 22 23  2  0
 23 24  1  0
 23 25  1  0
 25 26  2  0
 26 27  1  0
 27 28  2  0
 12  7  1  0
 17 13  1  0
 28 18  1  0
 27 21  1  0
  3 29  1  0
  4 30  1  0
  4 31  1  0
  8 32  1  0
  8 33  1  0
  9 34  1  0
  9 35  1  0
 10 36  1  0
 10 37  1  0
 11 38  1  0
 11 39  1  0
 12 40  1  6
 15 41  1  0
 16 42  1  0
 17 43  1  0
 19 44  1  0
 20 45  1  0
 22 46  1  0
 25 47  1  0
 26 48  1  0
M  END
>  <smiles>  (38) 
O=C(NCC(=O)N1CCCC[C@H]1c1ncc[nH]1)c1ccc2cc(F)ccc2n1

>  <score_type>  (38) 
oracle

>  <origin>  (38) 
autodockgpu

>  <m_score__min__energy>  (38) 
-7.8799999999999999

>  <m_primary>  (38) 
energy

>  <rmsd>  (38) 
6.198704565389058

>  <m_score__min__rmsd>  (38) 
6.198704565389058

>  <meeko>  (38) 
{"free_energy": -6.96, "intermolecular_energy": -8.46, "internal_energy": -2.65, "cluster_size": 6, "cluster_id": 4, "rank_in_cluster": 2}

>  <energy>  (38) 
-6.97

>  <cluster_rmsd>  (38) 
0.0

>  <cluster>  (38) 
4

$$$$

     RDKit          3D

 48 51  0  0  0  0  0  0  0  0999 V2000
  139.2990   71.2180  221.0360 O   0  0  0  0  0  0  0  0  0  0  0  0
  139.4580   71.8140  222.1370 C   0  0  0  0  0  0  0  0  0  0  0  0
  139.5060   73.2300  222.2550 N   0  0  0  0  0  0  0  0  0  0  0  0
  139.3720   74.0870  221.0920 C   0  0  0  0  0  0  0  0  0  0  0  0
  140.3830   75.1770  221.1810 C   0  0  0  0  0  0  0  0  0  0  0  0
  140.9310   75.3390  222.3060 O   0  0  0  0  0  0  0  0  0  0  0  0
  140.6930   75.9760  220.0440 N   0  0  0  0  0  0  0  0  0  0  0  0
  140.1660   77.3490  219.9820 C   0  0  0  0  0  0  0  0  0  0  0  0
  141.3010   78.3390  219.8300 C   0  0  0  0  0  0  0  0  0  0  0  0
  142.5100   77.7350  219.1790 C   0  0  0  0  0  0  0  0  0  0  0  0
  142.2060   76.5510  218.3110 C   0  0  0  0  0  0  0  0  0  0  0  0
  141.5120   75.4140  218.9930 C   0  0  1  0  0  0  0  0  0  0  0  0
  142.5200   74.4630  219.5320 C   0  0  0  0  0  0  0  0  0  0  0  0
  143.0290   73.3780  218.8830 N   0  0  0  0  0  0  0  0  0  0  0  0
  143.9130   72.7610  219.6870 C   0  0  0  0  0  0  0  0  0  0  0  0
  143.9320   73.4990  220.8470 C   0  0  0  0  0  0  0  0  0  0  0  0
  143.0740   74.5480  220.7510 N   0  0  0  0  0  0  0  0  0  0  0  0
  139.6010   71.0190  223.3620 C   0  0  0  0  0  0  0  0  0  0  0  0
  139.1850   69.7070  223.4260 C   0  0  0  0  0  0  0  0  0  0  0  0
  139.3060   68.9430  224.5530 C   0  0  0  0  0  0  0  0  0  0  0  0
  139.8730   69.5110  225.6880 C   0  0  0  0  0  0  0  0  0  0  0  0
  140.0350   68.8280  226.8580 C   0  0  0  0  0  0  0  0  0  0  0  0
  140.6070   69.4300  227.9750 C   0  0  0  0  0  0  0  0  0  0  0  0
  140.7320   68.6860  229.0940 F   0  0  0  0  0  0  0  0  0  0  0  0
  141.0220   70.7490  227.9040 C   0  0  0  0  0  0  0  0  0  0  0  0
  140.8630   71.4530  226.7200 C   0  0  0  0  0  0  0  0  0  0  0  0
  140.2870   70.8310  225.6130 C   0  0  0  0  0  0  0  0  0  0  0  0
  140.1520   71.5480  224.4910 N   0  0  0  0  0  0  0  0  0  0  0  0
  139.6430   73.6520  223.2220 H   0  0  0  0  0  0  0  0  0  0  0  0
  139.5415   73.4991  220.1779 H   0  0  0  0  0  0  0  0  0  0  0  0
  138.3601   74.5171  221.0588 H   0  0  0  0  0  0  0  0  0  0  0  0
  139.4876   77.4391  219.1208 H   0  0  0  0  0  0  0  0  0  0  0  0
  139.6224   77.5669  220.9131 H   0  0  0  0  0  0  0  0  0  0  0  0
  140.9534   79.1817  219.2144 H   0  0  0  0  0  0  0  0  0  0  0  0
  141.5943   78.6669  220.8382 H   0  0  0  0  0  0  0  0  0  0  0  0
  142.9899   78.5055  218.5578 H   0  0  0  0  0  0  0  0  0  0  0  0
  143.1630   77.3775  219.9887 H   0  0  0  0  0  0  0  0  0  0  0  0
  141.5655   76.8922  217.4843 H   0  0  0  0  0  0  0  0  0  0  0  0
  143.1800   76.1581  217.9839 H   0  0  0  0  0  0  0  0  0  0  0  0
  140.8764   74.8518  218.2930 H   0  0  0  0  0  0  0  0  0  0  0  0
  144.4977   71.8564  219.4637 H   0  0  0  0  0  0  0  0  0  0  0  0
  144.5528   73.2726  221.7264 H   0  0  0  0  0  0  0  0  0  0  0  0
  142.9490   75.2180  221.5230 H   0  0  0  0  0  0  0  0  0  0  0  0
  138.7354   69.2541  222.5300 H   0  0  0  0  0  0  0  0  0  0  0  0
  138.9612   67.8985  224.5616 H   0  0  0  0  0  0  0  0  0  0  0  0
  139.7068   67.7799  226.9198 H   0  0  0  0  0  0  0  0  0  0  0  0
  141.4747   71.2351  228.7808 H   0  0  0  0  0  0  0  0  0  0  0  0
  141.1909   72.5009  226.6542 H   0  0  0  0  0  0  0  0  0  0  0  0
  1  2  2  0
  2  3  1  0
  3  4  1  0
  4  5  1  0
  5  6  2  0
  5  7  1  0
  7  8  1  0
  8  9  1  0
  9 10  1  0
 10 11  1  0
 11 12  1  0
 12 13  1  0
 13 14  2  0
 14 15  1  0
 15 16  2  0
 16 17  1  0
  2 18  1  0
 18 19  2  0
 19 20  1  0
 20 21  2  0
 21 22  1  0
 22 23  2  0
 23 24  1  0
 23 25  1  0
 25 26  2  0
 26 27  1  0
 27 28  2  0
 12  7  1  0
 17 13  1  0
 28 18  1  0
 27 21  1  0
  3 29  1  0
  4 30  1  0
  4 31  1  0
  8 32  1  0
  8 33  1  0
  9 34  1  0
  9 35  1  0
 10 36  1  0
 10 37  1  0
 11 38  1  0
 11 39  1  0
 12 40  1  6
 15 41  1  0
 16 42  1  0
 17 43  1  0
 19 44  1  0
 20 45  1  0
 22 46  1  0
 25 47  1  0
 26 48  1  0
M  END
>  <smiles>  (39) 
O=C(NCC(=O)N1CCCC[C@H]1c1ncc[nH]1)c1ccc2cc(F)ccc2n1

>  <score_type>  (39) 
oracle

>  <origin>  (39) 
autodockgpu

>  <m_score__min__energy>  (39) 
-7.8799999999999999

>  <m_primary>  (39) 
energy

>  <rmsd>  (39) 
3.054026780745444

>  <m_score__min__rmsd>  (39) 
3.054026780745444

>  <meeko>  (39) 
{"free_energy": -7.09, "intermolecular_energy": -8.58, "internal_energy": -2.76, "cluster_size": 19, "cluster_id": 1, "rank_in_cluster": 11}

>  <energy>  (39) 
-6.96

>  <cluster_rmsd>  (39) 
0.04

>  <cluster>  (39) 
4

$$$$

     RDKit          3D

 48 51  0  0  0  0  0  0  0  0999 V2000
  139.6470   74.4750  222.0360 O   0  0  0  0  0  0  0  0  0  0  0  0
  140.7830   74.8410  221.6240 C   0  0  0  0  0  0  0  0  0  0  0  0
  141.2120   76.1960  221.6280 N   0  0  0  0  0  0  0  0  0  0  0  0
  140.3520   77.2560  222.1170 C   0  0  0  0  0  0  0  0  0  0  0  0
  140.5510   78.4640  221.2680 C   0  0  0  0  0  0  0  0  0  0  0  0
  141.4980   78.4110  220.4360 O   0  0  0  0  0  0  0  0  0  0  0  0
  139.7050   79.6010  221.4100 N   0  0  0  0  0  0  0  0  0  0  0  0
  138.2510   79.4170  221.2820 C   0  0  0  0  0  0  0  0  0  0  0  0
  137.5500   79.8950  222.5350 C   0  0  0  0  0  0  0  0  0  0  0  0
  138.3330   80.9430  223.2700 C   0  0  0  0  0  0  0  0  0  0  0  0
  139.2830   81.7130  222.4020 C   0  0  0  0  0  0  0  0  0  0  0  0
  140.3010   80.8910  221.6760 C   0  0  1  0  0  0  0  0  0  0  0  0
  141.5290   80.7680  222.5070 C   0  0  0  0  0  0  0  0  0  0  0  0
  141.6730   81.1860  223.7960 N   0  0  0  0  0  0  0  0  0  0  0  0
  142.9210   80.9050  224.2110 C   0  0  0  0  0  0  0  0  0  0  0  0
  143.5380   80.3040  223.1400 C   0  0  0  0  0  0  0  0  0  0  0  0
  142.6800   80.2190  222.0900 N   0  0  0  0  0  0  0  0  0  0  0  0
  141.7140   73.8270  221.1140 C   0  0  0  0  0  0  0  0  0  0  0  0
  141.3060   72.5390  220.8450 C   0  0  0  0  0  0  0  0  0  0  0  0
  142.1500   71.5760  220.3690 C   0  0  0  0  0  0  0  0  0  0  0  0
  143.4830   71.9060  220.1450 C   0  0  0  0  0  0  0  0  0  0  0  0
  144.3990   71.0130  219.6720 C   0  0  0  0  0  0  0  0  0  0  0  0
  145.7250   71.3790  219.4600 C   0  0  0  0  0  0  0  0  0  0  0  0
  146.5690   70.4370  218.9900 F   0  0  0  0  0  0  0  0  0  0  0  0
  146.1290   72.6750  219.7320 C   0  0  0  0  0  0  0  0  0  0  0  0
  145.2060   73.5920  220.2140 C   0  0  0  0  0  0  0  0  0  0  0  0
  143.8820   73.2040  220.4190 C   0  0  0  0  0  0  0  0  0  0  0  0
  143.0250   74.1200  220.8850 N   0  0  0  0  0  0  0  0  0  0  0  0
  142.1870   76.4170  221.2630 H   0  0  0  0  0  0  0  0  0  0  0  0
  139.3014   76.9347  222.0628 H   0  0  0  0  0  0  0  0  0  0  0  0
  140.6018   77.4882  223.1628 H   0  0  0  0  0  0  0  0  0  0  0  0
  137.8865   79.9942  220.4194 H   0  0  0  0  0  0  0  0  0  0  0  0
  138.0365   78.3479  221.1371 H   0  0  0  0  0  0  0  0  0  0  0  0
  136.5740   80.3172  222.2534 H   0  0  0  0  0  0  0  0  0  0  0  0
  137.4396   79.0301  223.2056 H   0  0  0  0  0  0  0  0  0  0  0  0
  137.6236   81.6524  223.7210 H   0  0  0  0  0  0  0  0  0  0  0  0
  138.9413   80.4183  224.0214 H   0  0  0  0  0  0  0  0  0  0  0  0
  138.6911   82.2591  221.6527 H   0  0  0  0  0  0  0  0  0  0  0  0
  139.8503   82.3670  223.0805 H   0  0  0  0  0  0  0  0  0  0  0  0
  140.5962   81.3612  220.7263 H   0  0  0  0  0  0  0  0  0  0  0  0
  143.3564   81.1125  225.1996 H   0  0  0  0  0  0  0  0  0  0  0  0
  144.5772   79.9436  223.1338 H   0  0  0  0  0  0  0  0  0  0  0  0
  142.9610   79.7980  221.1930 H   0  0  0  0  0  0  0  0  0  0  0  0
  140.2531   72.2740  221.0215 H   0  0  0  0  0  0  0  0  0  0  0  0
  141.7827   70.5591  220.1667 H   0  0  0  0  0  0  0  0  0  0  0  0
  144.0832   69.9822  219.4535 H   0  0  0  0  0  0  0  0  0  0  0  0
  147.1742   72.9756  219.5671 H   0  0  0  0  0  0  0  0  0  0  0  0
  145.5180   74.6236  220.4342 H   0  0  0  0  0  0  0  0  0  0  0  0
  1  2  2  0
  2  3  1  0
  3  4  1  0
  4  5  1  0
  5  6  2  0
  5  7  1  0
  7  8  1  0
  8  9  1  0
  9 10  1  0
 10 11  1  0
 11 12  1  0
 12 13  1  0
 13 14  2  0
 14 15  1  0
 15 16  2  0
 16 17  1  0
  2 18  1  0
 18 19  2  0
 19 20  1  0
 20 21  2  0
 21 22  1  0
 22 23  2  0
 23 24  1  0
 23 25  1  0
 25 26  2  0
 26 27  1  0
 27 28  2  0
 12  7  1  0
 17 13  1  0
 28 18  1  0
 27 21  1  0
  3 29  1  0
  4 30  1  0
  4 31  1  0
  8 32  1  0
  8 33  1  0
  9 34  1  0
  9 35  1  0
 10 36  1  0
 10 37  1  0
 11 38  1  0
 11 39  1  0
 12 40  1  6
 15 41  1  0
 16 42  1  0
 17 43  1  0
 19 44  1  0
 20 45  1  0
 22 46  1  0
 25 47  1  0
 26 48  1  0
M  END
>  <smiles>  (40) 
O=C(NCC(=O)N1CCCC[C@H]1c1ncc[nH]1)c1ccc2cc(F)ccc2n1

>  <score_type>  (40) 
oracle

>  <origin>  (40) 
autodockgpu

>  <m_score__min__energy>  (40) 
-7.8799999999999999

>  <m_primary>  (40) 
energy

>  <rmsd>  (40) 
6.202980559477959

>  <m_score__min__rmsd>  (40) 
6.202980559477959

>  <meeko>  (40) 
{"free_energy": -6.92, "intermolecular_energy": -8.41, "internal_energy": -2.73, "cluster_size": 6, "cluster_id": 4, "rank_in_cluster": 5}

>  <energy>  (40) 
-6.96

>  <cluster_rmsd>  (40) 
0.04

>  <cluster>  (40) 
4

$$$$

     RDKit          3D

 48 51  0  0  0  0  0  0  0  0999 V2000
  139.1690   71.2640  221.0920 O   0  0  0  0  0  0  0  0  0  0  0  0
  139.3890   71.8500  222.1890 C   0  0  0  0  0  0  0  0  0  0  0  0
  139.4770   73.2630  222.3120 N   0  0  0  0  0  0  0  0  0  0  0  0
  139.3130   74.1310  221.1620 C   0  0  0  0  0  0  0  0  0  0  0  0
  140.3520   75.1970  221.2120 C   0  0  0  0  0  0  0  0  0  0  0  0
  140.9310   75.3580  222.3220 O   0  0  0  0  0  0  0  0  0  0  0  0
  140.6540   75.9740  220.0580 N   0  0  0  0  0  0  0  0  0  0  0  0
  140.1380   77.3500  219.9800 C   0  0  0  0  0  0  0  0  0  0  0  0
  141.2780   78.3270  219.7970 C   0  0  0  0  0  0  0  0  0  0  0  0
  142.4750   77.7030  219.1410 C   0  0  0  0  0  0  0  0  0  0  0  0
  142.1490   76.5070  218.2970 C   0  0  0  0  0  0  0  0  0  0  0  0
  141.4540   75.3870  219.0060 C   0  0  1  0  0  0  0  0  0  0  0  0
  142.4620   74.4370  219.5480 C   0  0  0  0  0  0  0  0  0  0  0  0
  142.9440   73.3300  218.9160 N   0  0  0  0  0  0  0  0  0  0  0  0
  143.8370   72.7220  219.7170 C   0  0  0  0  0  0  0  0  0  0  0  0
  143.8880   73.4870  220.8580 C   0  0  0  0  0  0  0  0  0  0  0  0
  143.0410   74.5440  220.7540 N   0  0  0  0  0  0  0  0  0  0  0  0
  139.5670   71.0430  223.4020 C   0  0  0  0  0  0  0  0  0  0  0  0
  139.1870   69.7190  223.4530 C   0  0  0  0  0  0  0  0  0  0  0  0
  139.3400   68.9460  224.5690 C   0  0  0  0  0  0  0  0  0  0  0  0
  139.9040   69.5140  225.7060 C   0  0  0  0  0  0  0  0  0  0  0  0
  140.0960   68.8220  226.8650 C   0  0  0  0  0  0  0  0  0  0  0  0
  140.6630   69.4240  227.9840 C   0  0  0  0  0  0  0  0  0  0  0  0
  140.8200   68.6700  229.0920 F   0  0  0  0  0  0  0  0  0  0  0  0
  141.0420   70.7550  227.9260 C   0  0  0  0  0  0  0  0  0  0  0  0
  140.8510   71.4700  226.7530 C   0  0  0  0  0  0  0  0  0  0  0  0
  140.2810   70.8460  225.6430 C   0  0  0  0  0  0  0  0  0  0  0  0
  140.1150   71.5730  224.5320 N   0  0  0  0  0  0  0  0  0  0  0  0
  139.6650   73.6750  223.2750 H   0  0  0  0  0  0  0  0  0  0  0  0
  139.4283   73.5457  220.2378 H   0  0  0  0  0  0  0  0  0  0  0  0
  138.3112   74.5851  221.1768 H   0  0  0  0  0  0  0  0  0  0  0  0
  139.4492   77.4317  219.1263 H   0  0  0  0  0  0  0  0  0  0  0  0
  139.6087   77.5878  220.9145 H   0  0  0  0  0  0  0  0  0  0  0  0
  140.9291   79.1619  219.1716 H   0  0  0  0  0  0  0  0  0  0  0  0
  141.5867   78.6688  220.7960 H   0  0  0  0  0  0  0  0  0  0  0  0
  142.9530   78.4591  218.5008 H   0  0  0  0  0  0  0  0  0  0  0  0
  143.1367   77.3546  219.9477 H   0  0  0  0  0  0  0  0  0  0  0  0
  141.5008   76.8404  217.4732 H   0  0  0  0  0  0  0  0  0  0  0  0
  143.1154   76.1000  217.9647 H   0  0  0  0  0  0  0  0  0  0  0  0
  140.8045   74.8184  218.3242 H   0  0  0  0  0  0  0  0  0  0  0  0
  144.4067   71.8055  219.5040 H   0  0  0  0  0  0  0  0  0  0  0  0
  144.5235   73.2738  221.7302 H   0  0  0  0  0  0  0  0  0  0  0  0
  142.9390   75.2340  221.5120 H   0  0  0  0  0  0  0  0  0  0  0  0
  138.7410   69.2649  222.5558 H   0  0  0  0  0  0  0  0  0  0  0  0
  139.0226   67.8928  224.5681 H   0  0  0  0  0  0  0  0  0  0  0  0
  139.7961   67.7649  226.9165 H   0  0  0  0  0  0  0  0  0  0  0  0
  141.4914   71.2416  228.8042 H   0  0  0  0  0  0  0  0  0  0  0  0
  141.1485   72.5276  226.6980 H   0  0  0  0  0  0  0  0  0  0  0  0
  1  2  2  0
  2  3  1  0
  3  4  1  0
  4  5  1  0
  5  6  2  0
  5  7  1  0
  7  8  1  0
  8  9  1  0
  9 10  1  0
 10 11  1  0
 11 12  1  0
 12 13  1  0
 13 14  2  0
 14 15  1  0
 15 16  2  0
 16 17  1  0
  2 18  1  0
 18 19  2  0
 19 20  1  0
 20 21  2  0
 21 22  1  0
 22 23  2  0
 23 24  1  0
 23 25  1  0
 25 26  2  0
 26 27  1  0
 27 28  2  0
 12  7  1  0
 17 13  1  0
 28 18  1  0
 27 21  1  0
  3 29  1  0
  4 30  1  0
  4 31  1  0
  8 32  1  0
  8 33  1  0
  9 34  1  0
  9 35  1  0
 10 36  1  0
 10 37  1  0
 11 38  1  0
 11 39  1  0
 12 40  1  6
 15 41  1  0
 16 42  1  0
 17 43  1  0
 19 44  1  0
 20 45  1  0
 22 46  1  0
 25 47  1  0
 26 48  1  0
M  END
>  <smiles>  (41) 
O=C(NCC(=O)N1CCCC[C@H]1c1ncc[nH]1)c1ccc2cc(F)ccc2n1

>  <score_type>  (41) 
oracle

>  <origin>  (41) 
autodockgpu

>  <m_score__min__energy>  (41) 
-7.8799999999999999

>  <m_primary>  (41) 
energy

>  <rmsd>  (41) 
3.047991806809755

>  <m_score__min__rmsd>  (41) 
3.047991806809755

>  <meeko>  (41) 
{"free_energy": -7.05, "intermolecular_energy": -8.54, "internal_energy": -2.78, "cluster_size": 19, "cluster_id": 1, "rank_in_cluster": 14}

>  <energy>  (41) 
-6.94

>  <cluster_rmsd>  (41) 
0.13

>  <cluster>  (41) 
4

$$$$

     RDKit          3D

 48 51  0  0  0  0  0  0  0  0999 V2000
  141.0390   76.4250  222.6650 O   0  0  0  0  0  0  0  0  0  0  0  0
  140.7200   75.7620  221.6390 C   0  0  0  0  0  0  0  0  0  0  0  0
  139.5600   76.0380  220.8650 N   0  0  0  0  0  0  0  0  0  0  0  0
  138.6590   77.1180  221.2170 C   0  0  0  0  0  0  0  0  0  0  0  0
  139.1980   78.3920  220.6640 C   0  0  0  0  0  0  0  0  0  0  0  0
  138.8630   78.6720  219.4810 O   0  0  0  0  0  0  0  0  0  0  0  0
  140.0430   79.2260  221.4500 N   0  0  0  0  0  0  0  0  0  0  0  0
  139.6550   79.5130  222.8400 C   0  0  0  0  0  0  0  0  0  0  0  0
  140.7520   79.0830  223.7900 C   0  0  0  0  0  0  0  0  0  0  0  0
  142.1070   79.0800  223.1430 C   0  0  0  0  0  0  0  0  0  0  0  0
  142.2220   80.0050  221.9690 C   0  0  0  0  0  0  0  0  0  0  0  0
  141.2500   79.7600  220.8580 C   0  0  1  0  0  0  0  0  0  0  0  0
  141.8430   78.8170  219.8730 C   0  0  0  0  0  0  0  0  0  0  0  0
  141.9770   79.0320  218.5340 N   0  0  0  0  0  0  0  0  0  0  0  0
  142.5560   77.9560  217.9730 C   0  0  0  0  0  0  0  0  0  0  0  0
  142.7720   77.0740  219.0060 C   0  0  0  0  0  0  0  0  0  0  0  0
  142.3320   77.6050  220.1770 N   0  0  0  0  0  0  0  0  0  0  0  0
  141.5810   74.6520  221.2140 C   0  0  0  0  0  0  0  0  0  0  0  0
  141.1000   73.3640  221.1060 C   0  0  0  0  0  0  0  0  0  0  0  0
  141.8780   72.3120  220.7140 C   0  0  0  0  0  0  0  0  0  0  0  0
  143.2140   72.5450  220.4070 C   0  0  0  0  0  0  0  0  0  0  0  0
  144.0670   71.5580  220.0070 C   0  0  0  0  0  0  0  0  0  0  0  0
  145.4000   71.8290  219.7080 C   0  0  0  0  0  0  0  0  0  0  0  0
  146.1780   70.7970  219.3190 F   0  0  0  0  0  0  0  0  0  0  0  0
  145.8750   73.1240  219.8190 C   0  0  0  0  0  0  0  0  0  0  0  0
  145.0180   74.1360  220.2250 C   0  0  0  0  0  0  0  0  0  0  0  0
  143.6870   73.8420  220.5190 C   0  0  0  0  0  0  0  0  0  0  0  0
  142.8940   74.8490  220.9080 N   0  0  0  0  0  0  0  0  0  0  0  0
  139.3650   75.4300  220.0140 H   0  0  0  0  0  0  0  0  0  0  0  0
  137.6635   76.9223  220.7920 H   0  0  0  0  0  0  0  0  0  0  0  0
  138.5735   77.1919  222.3112 H   0  0  0  0  0  0  0  0  0  0  0  0
  139.4801   80.5932  222.9525 H   0  0  0  0  0  0  0  0  0  0  0  0
  138.7366   78.9563  223.0778 H   0  0  0  0  0  0  0  0  0  0  0  0
  140.7707   79.7764  224.6437 H   0  0  0  0  0  0  0  0  0  0  0  0
  140.5324   78.0533  224.1087 H   0  0  0  0  0  0  0  0  0  0  0  0
  142.8506   79.3814  223.8954 H   0  0  0  0  0  0  0  0  0  0  0  0
  142.2777   78.0613  222.7646 H   0  0  0  0  0  0  0  0  0  0  0  0
  142.0707   81.0326  222.3311 H   0  0  0  0  0  0  0  0  0  0  0  0
  143.2200   79.8278  221.5416 H   0  0  0  0  0  0  0  0  0  0  0  0
  141.0135   80.6882  220.3171 H   0  0  0  0  0  0  0  0  0  0  0  0
  142.8046   77.8115  216.9113 H   0  0  0  0  0  0  0  0  0  0  0  0
  143.2344   76.0816  218.8996 H   0  0  0  0  0  0  0  0  0  0  0  0
  142.4080   77.0920  221.0670 H   0  0  0  0  0  0  0  0  0  0  0  0
  140.0432   73.1756  221.3461 H   0  0  0  0  0  0  0  0  0  0  0  0
  141.4554   71.2989  220.6425 H   0  0  0  0  0  0  0  0  0  0  0  0
  143.6941   70.5269  219.9189 H   0  0  0  0  0  0  0  0  0  0  0  0
  146.9263   73.3494  219.5866 H   0  0  0  0  0  0  0  0  0  0  0  0
  145.3874   75.1682  220.3149 H   0  0  0  0  0  0  0  0  0  0  0  0
  1  2  2  0
  2  3  1  0
  3  4  1  0
  4  5  1  0
  5  6  2  0
  5  7  1  0
  7  8  1  0
  8  9  1  0
  9 10  1  0
 10 11  1  0
 11 12  1  0
 12 13  1  0
 13 14  2  0
 14 15  1  0
 15 16  2  0
 16 17  1  0
  2 18  1  0
 18 19  2  0
 19 20  1  0
 20 21  2  0
 21 22  1  0
 22 23  2  0
 23 24  1  0
 23 25  1  0
 25 26  2  0
 26 27  1  0
 27 28  2  0
 12  7  1  0
 17 13  1  0
 28 18  1  0
 27 21  1  0
  3 29  1  0
  4 30  1  0
  4 31  1  0
  8 32  1  0
  8 33  1  0
  9 34  1  0
  9 35  1  0
 10 36  1  0
 10 37  1  0
 11 38  1  0
 11 39  1  0
 12 40  1  6
 15 41  1  0
 16 42  1  0
 17 43  1  0
 19 44  1  0
 20 45  1  0
 22 46  1  0
 25 47  1  0
 26 48  1  0
M  END
>  <smiles>  (42) 
O=C(NCC(=O)N1CCCC[C@H]1c1ncc[nH]1)c1ccc2cc(F)ccc2n1

>  <score_type>  (42) 
oracle

>  <origin>  (42) 
autodockgpu

>  <m_score__min__energy>  (42) 
-7.8799999999999999

>  <m_primary>  (42) 
energy

>  <rmsd>  (42) 
6.290402546983584

>  <m_score__min__rmsd>  (42) 
6.290402546983584

>  <meeko>  (42) 
{"free_energy": -5.98, "intermolecular_energy": -7.48, "internal_energy": -3.19, "cluster_size": 1, "cluster_id": 8, "rank_in_cluster": 1}

>  <energy>  (42) 
-6.92

>  <cluster_rmsd>  (42) 
0.18

>  <cluster>  (42) 
4

$$$$

     RDKit          3D

 48 51  0  0  0  0  0  0  0  0999 V2000
  139.2380   71.1250  221.0010 O   0  0  0  0  0  0  0  0  0  0  0  0
  139.4010   71.7260  222.0990 C   0  0  0  0  0  0  0  0  0  0  0  0
  139.4760   73.1420  222.2070 N   0  0  0  0  0  0  0  0  0  0  0  0
  139.3650   73.9930  221.0380 C   0  0  0  0  0  0  0  0  0  0  0  0
  140.2810   75.1560  221.2030 C   0  0  0  0  0  0  0  0  0  0  0  0
  140.8070   75.2940  222.3410 O   0  0  0  0  0  0  0  0  0  0  0  0
  140.5300   76.0440  220.1180 N   0  0  0  0  0  0  0  0  0  0  0  0
  139.8760   77.3620  220.1230 C   0  0  0  0  0  0  0  0  0  0  0  0
  140.9130   78.4620  220.0500 C   0  0  0  0  0  0  0  0  0  0  0  0
  142.1840   78.0140  219.3900 C   0  0  0  0  0  0  0  0  0  0  0  0
  142.0070   76.8580  218.4510 C   0  0  0  0  0  0  0  0  0  0  0  0
  141.4140   75.6230  219.0540 C   0  0  1  0  0  0  0  0  0  0  0  0
  142.5010   74.7420  219.5590 C   0  0  0  0  0  0  0  0  0  0  0  0
  143.1150   73.7440  218.8630 N   0  0  0  0  0  0  0  0  0  0  0  0
  144.0440   73.1700  219.6480 C   0  0  0  0  0  0  0  0  0  0  0  0
  143.9810   73.8440  220.8450 C   0  0  0  0  0  0  0  0  0  0  0  0
  143.0310   74.8130  220.7890 N   0  0  0  0  0  0  0  0  0  0  0  0
  139.5220   70.9370  223.3310 C   0  0  0  0  0  0  0  0  0  0  0  0
  139.1010   69.6260  223.3950 C   0  0  0  0  0  0  0  0  0  0  0  0
  139.2020   68.8690  224.5270 C   0  0  0  0  0  0  0  0  0  0  0  0
  139.7530   69.4410  225.6690 C   0  0  0  0  0  0  0  0  0  0  0  0
  139.8940   68.7640  226.8450 C   0  0  0  0  0  0  0  0  0  0  0  0
  140.4510   69.3690  227.9680 C   0  0  0  0  0  0  0  0  0  0  0  0
  140.5560   68.6310  229.0920 F   0  0  0  0  0  0  0  0  0  0  0  0
  140.8710   70.6860  227.8960 C   0  0  0  0  0  0  0  0  0  0  0  0
  140.7330   71.3850  226.7060 C   0  0  0  0  0  0  0  0  0  0  0  0
  140.1730   70.7590  225.5930 C   0  0  0  0  0  0  0  0  0  0  0  0
  140.0580   71.4700  224.4650 N   0  0  0  0  0  0  0  0  0  0  0  0
  139.6160   73.5670  223.1720 H   0  0  0  0  0  0  0  0  0  0  0  0
  139.6466   73.4251  220.1390 H   0  0  0  0  0  0  0  0  0  0  0  0
  138.3288   74.3456  220.9290 H   0  0  0  0  0  0  0  0  0  0  0  0
  139.2048   77.4376  219.2548 H   0  0  0  0  0  0  0  0  0  0  0  0
  139.3009   77.4730  221.0541 H   0  0  0  0  0  0  0  0  0  0  0  0
  140.4953   79.3024  219.4762 H   0  0  0  0  0  0  0  0  0  0  0  0
  141.1589   78.7570  221.0808 H   0  0  0  0  0  0  0  0  0  0  0  0
  142.5966   78.8611  218.8224 H   0  0  0  0  0  0  0  0  0  0  0  0
  142.8569   77.6742  220.1911 H   0  0  0  0  0  0  0  0  0  0  0  0
  141.3495   77.1844  217.6318 H   0  0  0  0  0  0  0  0  0  0  0  0
  143.0188   76.5779  218.1227 H   0  0  0  0  0  0  0  0  0  0  0  0
  140.8448   75.0445  218.3115 H   0  0  0  0  0  0  0  0  0  0  0  0
  144.7133   72.3368  219.3874 H   0  0  0  0  0  0  0  0  0  0  0  0
  144.6096   73.6292  221.7218 H   0  0  0  0  0  0  0  0  0  0  0  0
  142.8350   75.4270  221.5930 H   0  0  0  0  0  0  0  0  0  0  0  0
  138.6644   69.1695  222.4945 H   0  0  0  0  0  0  0  0  0  0  0  0
  138.8539   67.8256  224.5356 H   0  0  0  0  0  0  0  0  0  0  0  0
  139.5604   67.7177  226.9071 H   0  0  0  0  0  0  0  0  0  0  0  0
  141.3115   71.1753  228.7772 H   0  0  0  0  0  0  0  0  0  0  0  0
  141.0649   72.4317  226.6404 H   0  0  0  0  0  0  0  0  0  0  0  0
  1  2  2  0
  2  3  1  0
  3  4  1  0
  4  5  1  0
  5  6  2  0
  5  7  1  0
  7  8  1  0
  8  9  1  0
  9 10  1  0
 10 11  1  0
 11 12  1  0
 12 13  1  0
 13 14  2  0
 14 15  1  0
 15 16  2  0
 16 17  1  0
  2 18  1  0
 18 19  2  0
 19 20  1  0
 20 21  2  0
 21 22  1  0
 22 23  2  0
 23 24  1  0
 23 25  1  0
 25 26  2  0
 26 27  1  0
 27 28  2  0
 12  7  1  0
 17 13  1  0
 28 18  1  0
 27 21  1  0
  3 29  1  0
  4 30  1  0
  4 31  1  0
  8 32  1  0
  8 33  1  0
  9 34  1  0
  9 35  1  0
 10 36  1  0
 10 37  1  0
 11 38  1  0
 11 39  1  0
 12 40  1  6
 15 41  1  0
 16 42  1  0
 17 43  1  0
 19 44  1  0
 20 45  1  0
 22 46  1  0
 25 47  1  0
 26 48  1  0
M  END
>  <smiles>  (43) 
O=C(NCC(=O)N1CCCC[C@H]1c1ncc[nH]1)c1ccc2cc(F)ccc2n1

>  <score_type>  (43) 
oracle

>  <origin>  (43) 
autodockgpu

>  <m_score__min__energy>  (43) 
-7.8799999999999999

>  <m_primary>  (43) 
energy

>  <rmsd>  (43) 
2.9539503445082995

>  <m_score__min__rmsd>  (43) 
2.9539503445082995

>  <meeko>  (43) 
{"free_energy": -7.12, "intermolecular_energy": -8.62, "internal_energy": -2.77, "cluster_size": 19, "cluster_id": 1, "rank_in_cluster": 9}

>  <energy>  (43) 
-6.89

>  <cluster_rmsd>  (43) 
0.72

>  <cluster>  (43) 
4

$$$$

     RDKit          3D

 48 51  0  0  0  0  0  0  0  0999 V2000
  140.3580   74.0840  221.9640 O   0  0  0  0  0  0  0  0  0  0  0  0
  141.3540   74.7020  221.4940 C   0  0  0  0  0  0  0  0  0  0  0  0
  141.4610   76.1200  221.4940 N   0  0  0  0  0  0  0  0  0  0  0  0
  140.4120   76.9530  222.0470 C   0  0  0  0  0  0  0  0  0  0  0  0
  140.3810   78.2430  221.3020 C   0  0  0  0  0  0  0  0  0  0  0  0
  141.1900   78.3510  220.3410 O   0  0  0  0  0  0  0  0  0  0  0  0
  139.4770   79.2780  221.6770 N   0  0  0  0  0  0  0  0  0  0  0  0
  138.0400   78.9720  221.7360 C   0  0  0  0  0  0  0  0  0  0  0  0
  137.4980   79.2690  223.1180 C   0  0  0  0  0  0  0  0  0  0  0  0
  138.2960   80.3160  223.8380 C   0  0  0  0  0  0  0  0  0  0  0  0
  139.0410   81.2450  222.9280 C   0  0  0  0  0  0  0  0  0  0  0  0
  140.0020   80.5900  221.9860 C   0  0  1  0  0  0  0  0  0  0  0  0
  141.3460   80.5090  222.6180 C   0  0  0  0  0  0  0  0  0  0  0  0
  141.6530   80.8540  223.9000 N   0  0  0  0  0  0  0  0  0  0  0  0
  142.9650   80.6450  224.1090 C   0  0  0  0  0  0  0  0  0  0  0  0
  143.4530   80.1620  222.9180 C   0  0  0  0  0  0  0  0  0  0  0  0
  142.4550   80.0780  222.0000 N   0  0  0  0  0  0  0  0  0  0  0  0
  142.4610   73.9310  220.9150 C   0  0  0  0  0  0  0  0  0  0  0  0
  143.6420   74.5320  220.5370 C   0  0  0  0  0  0  0  0  0  0  0  0
  144.6880   73.8390  219.9960 C   0  0  0  0  0  0  0  0  0  0  0  0
  144.5600   72.4660  219.8170 C   0  0  0  0  0  0  0  0  0  0  0  0
  145.5490   71.6910  219.2850 C   0  0  0  0  0  0  0  0  0  0  0  0
  145.3850   70.3190  219.1210 C   0  0  0  0  0  0  0  0  0  0  0  0
  146.4120   69.6230  218.5880 F   0  0  0  0  0  0  0  0  0  0  0  0
  144.1960   69.7210  219.5020 C   0  0  0  0  0  0  0  0  0  0  0  0
  143.1830   70.4990  220.0440 C   0  0  0  0  0  0  0  0  0  0  0  0
  143.3680   71.8720  220.2000 C   0  0  0  0  0  0  0  0  0  0  0  0
  142.3650   72.5840  220.7270 N   0  0  0  0  0  0  0  0  0  0  0  0
  142.3350   76.5600  221.0770 H   0  0  0  0  0  0  0  0  0  0  0  0
  139.4425   76.4434  221.9446 H   0  0  0  0  0  0  0  0  0  0  0  0
  140.6070   77.1414  223.1131 H   0  0  0  0  0  0  0  0  0  0  0  0
  137.5068   79.5877  220.9967 H   0  0  0  0  0  0  0  0  0  0  0  0
  137.8910   77.9050  221.5139 H   0  0  0  0  0  0  0  0  0  0  0  0
  136.4605   79.6214  223.0213 H   0  0  0  0  0  0  0  0  0  0  0  0
  137.5582   78.3413  223.7060 H   0  0  0  0  0  0  0  0  0  0  0  0
  137.6077   80.9130  224.4542 H   0  0  0  0  0  0  0  0  0  0  0  0
  139.0494   79.7857  224.4389 H   0  0  0  0  0  0  0  0  0  0  0  0
  138.3022   81.7975  222.3288 H   0  0  0  0  0  0  0  0  0  0  0  0
  139.6492   81.8863  223.5828 H   0  0  0  0  0  0  0  0  0  0  0  0
  140.1141   81.1687  221.0572 H   0  0  0  0  0  0  0  0  0  0  0  0
  143.5285   80.8229  225.0368 H   0  0  0  0  0  0  0  0  0  0  0  0
  144.5012   79.8835  222.7346 H   0  0  0  0  0  0  0  0  0  0  0  0
  142.6260   79.7370  221.0430 H   0  0  0  0  0  0  0  0  0  0  0  0
  143.7474   75.6180  220.6770 H   0  0  0  0  0  0  0  0  0  0  0  0
  145.6142   74.3576  219.7074 H   0  0  0  0  0  0  0  0  0  0  0  0
  146.4956   72.1606  218.9794 H   0  0  0  0  0  0  0  0  0  0  0  0
  144.0554   68.6373  219.3760 H   0  0  0  0  0  0  0  0  0  0  0  0
  142.2349   70.0329  220.3503 H   0  0  0  0  0  0  0  0  0  0  0  0
  1  2  2  0
  2  3  1  0
  3  4  1  0
  4  5  1  0
  5  6  2  0
  5  7  1  0
  7  8  1  0
  8  9  1  0
  9 10  1  0
 10 11  1  0
 11 12  1  0
 12 13  1  0
 13 14  2  0
 14 15  1  0
 15 16  2  0
 16 17  1  0
  2 18  1  0
 18 19  2  0
 19 20  1  0
 20 21  2  0
 21 22  1  0
 22 23  2  0
 23 24  1  0
 23 25  1  0
 25 26  2  0
 26 27  1  0
 27 28  2  0
 12  7  1  0
 17 13  1  0
 28 18  1  0
 27 21  1  0
  3 29  1  0
  4 30  1  0
  4 31  1  0
  8 32  1  0
  8 33  1  0
  9 34  1  0
  9 35  1  0
 10 36  1  0
 10 37  1  0
 11 38  1  0
 11 39  1  0
 12 40  1  6
 15 41  1  0
 16 42  1  0
 17 43  1  0
 19 44  1  0
 20 45  1  0
 22 46  1  0
 25 47  1  0
 26 48  1  0
M  END
>  <smiles>  (44) 
O=C(NCC(=O)N1CCCC[C@H]1c1ncc[nH]1)c1ccc2cc(F)ccc2n1

>  <score_type>  (44) 
oracle

>  <origin>  (44) 
autodockgpu

>  <m_score__min__energy>  (44) 
-7.8799999999999999

>  <m_primary>  (44) 
energy

>  <rmsd>  (44) 
6.5888328340612645

>  <m_score__min__rmsd>  (44) 
6.5888328340612645

>  <meeko>  (44) 
{"free_energy": -6.89, "intermolecular_energy": -8.39, "internal_energy": -2.41, "cluster_size": 6, "cluster_id": 4, "rank_in_cluster": 6}

>  <energy>  (44) 
-6.87

>  <cluster_rmsd>  (44) 
0.0

>  <cluster>  (44) 
5

$$$$

     RDKit          3D

 48 51  0  0  0  0  0  0  0  0999 V2000
  140.6990   71.8400  221.1150 O   0  0  0  0  0  0  0  0  0  0  0  0
  140.0900   72.2700  222.1340 C   0  0  0  0  0  0  0  0  0  0  0  0
  139.4310   73.5290  222.1720 N   0  0  0  0  0  0  0  0  0  0  0  0
  139.4200   74.4090  221.0190 C   0  0  0  0  0  0  0  0  0  0  0  0
  140.7340   75.1050  220.9340 C   0  0  0  0  0  0  0  0  0  0  0  0
  141.4400   75.0940  221.9800 O   0  0  0  0  0  0  0  0  0  0  0  0
  141.1440   75.7400  219.7270 N   0  0  0  0  0  0  0  0  0  0  0  0
  140.5430   77.0350  219.3720 C   0  0  0  0  0  0  0  0  0  0  0  0
  141.6210   78.0830  219.2000 C   0  0  0  0  0  0  0  0  0  0  0  0
  142.9450   77.4910  218.8140 C   0  0  0  0  0  0  0  0  0  0  0  0
  142.8400   76.1640  218.1250 C   0  0  0  0  0  0  0  0  0  0  0  0
  142.1340   75.0920  218.8950 C   0  0  1  0  0  0  0  0  0  0  0  0
  143.1190   74.3280  219.7060 C   0  0  0  0  0  0  0  0  0  0  0  0
  144.3230   74.7870  220.1500 N   0  0  0  0  0  0  0  0  0  0  0  0
  144.9320   73.8130  220.8490 C   0  0  0  0  0  0  0  0  0  0  0  0
  144.0680   72.7440  220.8210 C   0  0  0  0  0  0  0  0  0  0  0  0
  142.9500   73.0620  220.1170 N   0  0  0  0  0  0  0  0  0  0  0  0
  140.0540   71.4400  223.3440 C   0  0  0  0  0  0  0  0  0  0  0  0
  139.5120   70.1730  223.3360 C   0  0  0  0  0  0  0  0  0  0  0  0
  139.4650   69.3790  224.4470 C   0  0  0  0  0  0  0  0  0  0  0  0
  139.9860   69.8660  225.6400 C   0  0  0  0  0  0  0  0  0  0  0  0
  139.9830   69.1470  226.8000 C   0  0  0  0  0  0  0  0  0  0  0  0
  140.5140   69.6670  227.9770 C   0  0  0  0  0  0  0  0  0  0  0  0
  140.4730   68.8920  229.0800 F   0  0  0  0  0  0  0  0  0  0  0  0
  141.0560   70.9410  227.9770 C   0  0  0  0  0  0  0  0  0  0  0  0
  141.0640   71.6820  226.8050 C   0  0  0  0  0  0  0  0  0  0  0  0
  140.5280   71.1410  225.6370 C   0  0  0  0  0  0  0  0  0  0  0  0
  140.5560   71.8900  224.5280 N   0  0  0  0  0  0  0  0  0  0  0  0
  138.9410   73.8160  223.0720 H   0  0  0  0  0  0  0  0  0  0  0  0
  139.2542   73.8193  220.1054 H   0  0  0  0  0  0  0  0  0  0  0  0
  138.6115   75.1479  221.1204 H   0  0  0  0  0  0  0  0  0  0  0  0
  139.9848   76.9302  218.4300 H   0  0  0  0  0  0  0  0  0  0  0  0
  139.8640   77.3483  220.1787 H   0  0  0  0  0  0  0  0  0  0  0  0
  141.3069   78.7859  218.4143 H   0  0  0  0  0  0  0  0  0  0  0  0
  141.7516   78.5886  220.1681 H   0  0  0  0  0  0  0  0  0  0  0  0
  143.4541   78.1931  218.1373 H   0  0  0  0  0  0  0  0  0  0  0  0
  143.5033   77.3228  219.7467 H   0  0  0  0  0  0  0  0  0  0  0  0
  142.2982   76.3150  217.1797 H   0  0  0  0  0  0  0  0  0  0  0  0
  143.8730   75.8100  217.9925 H   0  0  0  0  0  0  0  0  0  0  0  0
  141.6376   74.3738  218.2258 H   0  0  0  0  0  0  0  0  0  0  0  0
  145.9151   73.8614  221.3401 H   0  0  0  0  0  0  0  0  0  0  0  0
  144.2548   71.7713  221.2996 H   0  0  0  0  0  0  0  0  0  0  0  0
  142.1830   72.3880  219.9840 H   0  0  0  0  0  0  0  0  0  0  0  0
  139.0990   69.7837  222.3937 H   0  0  0  0  0  0  0  0  0  0  0  0
  139.0230   68.3729  224.3982 H   0  0  0  0  0  0  0  0  0  0  0  0
  139.5518   68.1351  226.8050 H   0  0  0  0  0  0  0  0  0  0  0  0
  141.4778   71.3629  228.9012 H   0  0  0  0  0  0  0  0  0  0  0  0
  141.4925   72.6951  226.7967 H   0  0  0  0  0  0  0  0  0  0  0  0
  1  2  2  0
  2  3  1  0
  3  4  1  0
  4  5  1  0
  5  6  2  0
  5  7  1  0
  7  8  1  0
  8  9  1  0
  9 10  1  0
 10 11  1  0
 11 12  1  0
 12 13  1  0
 13 14  2  0
 14 15  1  0
 15 16  2  0
 16 17  1  0
  2 18  1  0
 18 19  2  0
 19 20  1  0
 20 21  2  0
 21 22  1  0
 22 23  2  0
 23 24  1  0
 23 25  1  0
 25 26  2  0
 26 27  1  0
 27 28  2  0
 12  7  1  0
 17 13  1  0
 28 18  1  0
 27 21  1  0
  3 29  1  0
  4 30  1  0
  4 31  1  0
  8 32  1  0
  8 33  1  0
  9 34  1  0
  9 35  1  0
 10 36  1  0
 10 37  1  0
 11 38  1  0
 11 39  1  0
 12 40  1  6
 15 41  1  0
 16 42  1  0
 17 43  1  0
 19 44  1  0
 20 45  1  0
 22 46  1  0
 25 47  1  0
 26 48  1  0
M  END
>  <smiles>  (45) 
O=C(NCC(=O)N1CCCC[C@H]1c1ncc[nH]1)c1ccc2cc(F)ccc2n1

>  <score_type>  (45) 
oracle

>  <origin>  (45) 
autodockgpu

>  <m_score__min__energy>  (45) 
-7.8799999999999999

>  <m_primary>  (45) 
energy

>  <rmsd>  (45) 
3.1737379879031202

>  <m_score__min__rmsd>  (45) 
3.1737379879031202

>  <meeko>  (45) 
{"free_energy": -7.39, "intermolecular_energy": -8.88, "internal_energy": -2.41, "cluster_size": 15, "cluster_id": 3, "rank_in_cluster": 3}

>  <energy>  (45) 
-6.86

>  <cluster_rmsd>  (45) 
0.15

>  <cluster>  (45) 
5

$$$$

     RDKit          3D

 48 51  0  0  0  0  0  0  0  0999 V2000
  138.7490   71.2060  221.2410 O   0  0  0  0  0  0  0  0  0  0  0  0
  139.1850   71.7670  222.2850 C   0  0  0  0  0  0  0  0  0  0  0  0
  139.4730   73.1570  222.3580 N   0  0  0  0  0  0  0  0  0  0  0  0
  139.2780   74.0280  221.2150 C   0  0  0  0  0  0  0  0  0  0  0  0
  140.3040   75.1060  221.2520 C   0  0  0  0  0  0  0  0  0  0  0  0
  140.9450   75.2290  222.3310 O   0  0  0  0  0  0  0  0  0  0  0  0
  140.5270   75.9370  220.1170 N   0  0  0  0  0  0  0  0  0  0  0  0
  139.8790   77.2570  220.0720 C   0  0  0  0  0  0  0  0  0  0  0  0
  140.9190   78.3460  219.9140 C   0  0  0  0  0  0  0  0  0  0  0  0
  142.1700   77.8570  219.2440 C   0  0  0  0  0  0  0  0  0  0  0  0
  141.9610   76.6570  218.3710 C   0  0  0  0  0  0  0  0  0  0  0  0
  141.3800   75.4570  219.0520 C   0  0  1  0  0  0  0  0  0  0  0  0
  142.4760   74.5970  219.5720 C   0  0  0  0  0  0  0  0  0  0  0  0
  143.0320   73.5290  218.9330 N   0  0  0  0  0  0  0  0  0  0  0  0
  143.9920   73.0020  219.7130 C   0  0  0  0  0  0  0  0  0  0  0  0
  144.0090   73.7770  220.8480 C   0  0  0  0  0  0  0  0  0  0  0  0
  143.0750   74.7600  220.7610 N   0  0  0  0  0  0  0  0  0  0  0  0
  139.4100   70.9560  223.4870 C   0  0  0  0  0  0  0  0  0  0  0  0
  139.0500   69.6270  223.5410 C   0  0  0  0  0  0  0  0  0  0  0  0
  139.2470   68.8480  224.6470 C   0  0  0  0  0  0  0  0  0  0  0  0
  139.8380   69.4180  225.7700 C   0  0  0  0  0  0  0  0  0  0  0  0
  140.0750   68.7210  226.9180 C   0  0  0  0  0  0  0  0  0  0  0  0
  140.6680   69.3240  228.0230 C   0  0  0  0  0  0  0  0  0  0  0  0
  140.8690   68.5650  229.1210 F   0  0  0  0  0  0  0  0  0  0  0  0
  141.0270   70.6600  227.9620 C   0  0  0  0  0  0  0  0  0  0  0  0
  140.7910   71.3790  226.8000 C   0  0  0  0  0  0  0  0  0  0  0  0
  140.1950   70.7550  225.7040 C   0  0  0  0  0  0  0  0  0  0  0  0
  139.9860   71.4860  224.6030 N   0  0  0  0  0  0  0  0  0  0  0  0
  139.8380   73.5490  223.2770 H   0  0  0  0  0  0  0  0  0  0  0  0
  139.3843   73.4483  220.2862 H   0  0  0  0  0  0  0  0  0  0  0  0
  138.2710   74.4694  221.2493 H   0  0  0  0  0  0  0  0  0  0  0  0
  139.1844   77.2917  219.2197 H   0  0  0  0  0  0  0  0  0  0  0  0
  139.3300   77.4191  221.0113 H   0  0  0  0  0  0  0  0  0  0  0  0
  140.4896   79.1580  219.3088 H   0  0  0  0  0  0  0  0  0  0  0  0
  141.1942   78.6924  220.9211 H   0  0  0  0  0  0  0  0  0  0  0  0
  142.5716   78.6714  218.6232 H   0  0  0  0  0  0  0  0  0  0  0  0
  142.8630   77.5544  220.0428 H   0  0  0  0  0  0  0  0  0  0  0  0
  141.2817   76.9456  217.5554 H   0  0  0  0  0  0  0  0  0  0  0  0
  142.9618   76.3547  218.0290 H   0  0  0  0  0  0  0  0  0  0  0  0
  140.7890   74.8443  218.3554 H   0  0  0  0  0  0  0  0  0  0  0  0
  144.6294   72.1337  219.4898 H   0  0  0  0  0  0  0  0  0  0  0  0
  144.6823   73.6234  221.7042 H   0  0  0  0  0  0  0  0  0  0  0  0
  142.9370   75.4440  221.5180 H   0  0  0  0  0  0  0  0  0  0  0  0
  138.5833   69.1726  222.6546 H   0  0  0  0  0  0  0  0  0  0  0  0
  138.9439   67.7906  224.6489 H   0  0  0  0  0  0  0  0  0  0  0  0
  139.7913   67.6596  226.9716 H   0  0  0  0  0  0  0  0  0  0  0  0
  141.4961   71.1476  228.8293 H   0  0  0  0  0  0  0  0  0  0  0  0
  141.0735   72.4405  226.7426 H   0  0  0  0  0  0  0  0  0  0  0  0
  1  2  2  0
  2  3  1  0
  3  4  1  0
  4  5  1  0
  5  6  2  0
  5  7  1  0
  7  8  1  0
  8  9  1  0
  9 10  1  0
 10 11  1  0
 11 12  1  0
 12 13  1  0
 13 14  2  0
 14 15  1  0
 15 16  2  0
 16 17  1  0
  2 18  1  0
 18 19  2  0
 19 20  1  0
 20 21  2  0
 21 22  1  0
 22 23  2  0
 23 24  1  0
 23 25  1  0
 25 26  2  0
 26 27  1  0
 27 28  2  0
 12  7  1  0
 17 13  1  0
 28 18  1  0
 27 21  1  0
  3 29  1  0
  4 30  1  0
  4 31  1  0
  8 32  1  0
  8 33  1  0
  9 34  1  0
  9 35  1  0
 10 36  1  0
 10 37  1  0
 11 38  1  0
 11 39  1  0
 12 40  1  6
 15 41  1  0
 16 42  1  0
 17 43  1  0
 19 44  1  0
 20 45  1  0
 22 46  1  0
 25 47  1  0
 26 48  1  0
M  END
>  <smiles>  (46) 
O=C(NCC(=O)N1CCCC[C@H]1c1ncc[nH]1)c1ccc2cc(F)ccc2n1

>  <score_type>  (46) 
oracle

>  <origin>  (46) 
autodockgpu

>  <m_score__min__energy>  (46) 
-7.8799999999999999

>  <m_primary>  (46) 
energy

>  <rmsd>  (46) 
2.96098025372733

>  <m_score__min__rmsd>  (46) 
2.96098025372733

>  <meeko>  (46) 
{"free_energy": -6.98, "intermolecular_energy": -8.47, "internal_energy": -2.85, "cluster_size": 19, "cluster_id": 1, "rank_in_cluster": 17}

>  <energy>  (46) 
-6.6

>  <cluster_rmsd>  (46) 
0.46

>  <cluster>  (46) 
5

$$$$

     RDKit          3D

 48 51  0  0  0  0  0  0  0  0999 V2000
  139.5040   70.9670  220.9960 O   0  0  0  0  0  0  0  0  0  0  0  0
  139.5400   71.5730  222.1030 C   0  0  0  0  0  0  0  0  0  0  0  0
  139.5250   72.9900  222.2150 N   0  0  0  0  0  0  0  0  0  0  0  0
  139.4650   73.8370  221.0400 C   0  0  0  0  0  0  0  0  0  0  0  0
  140.4900   74.9100  221.1680 C   0  0  0  0  0  0  0  0  0  0  0  0
  140.8080   75.2390  222.3440 O   0  0  0  0  0  0  0  0  0  0  0  0
  141.0620   75.5130  220.0110 N   0  0  0  0  0  0  0  0  0  0  0  0
  140.8450   76.9500  219.7850 C   0  0  0  0  0  0  0  0  0  0  0  0
  142.1720   77.6700  219.6790 C   0  0  0  0  0  0  0  0  0  0  0  0
  143.2790   76.7720  219.2110 C   0  0  0  0  0  0  0  0  0  0  0  0
  142.8100   75.5940  218.4110 C   0  0  0  0  0  0  0  0  0  0  0  0
  141.8330   74.6940  219.1020 C   0  0  1  0  0  0  0  0  0  0  0  0
  142.5660   73.6170  219.8190 C   0  0  0  0  0  0  0  0  0  0  0  0
  143.8630   73.6670  220.2350 N   0  0  0  0  0  0  0  0  0  0  0  0
  144.1720   72.5090  220.8450 C   0  0  0  0  0  0  0  0  0  0  0  0
  143.0290   71.7480  220.7900 C   0  0  0  0  0  0  0  0  0  0  0  0
  142.0390   72.4310  220.1590 N   0  0  0  0  0  0  0  0  0  0  0  0
  139.6020   70.7880  223.3420 C   0  0  0  0  0  0  0  0  0  0  0  0
  139.1550   69.4850  223.3960 C   0  0  0  0  0  0  0  0  0  0  0  0
  139.2010   68.7320  224.5350 C   0  0  0  0  0  0  0  0  0  0  0  0
  139.7190   69.3000  225.6940 C   0  0  0  0  0  0  0  0  0  0  0  0
  139.8040   68.6260  226.8770 C   0  0  0  0  0  0  0  0  0  0  0  0
  140.3300   69.2280  228.0170 C   0  0  0  0  0  0  0  0  0  0  0  0
  140.3800   68.4930  229.1480 F   0  0  0  0  0  0  0  0  0  0  0  0
  140.7760   70.5370  227.9560 C   0  0  0  0  0  0  0  0  0  0  0  0
  140.6940   71.2320  226.7580 C   0  0  0  0  0  0  0  0  0  0  0  0
  140.1640   70.6100  225.6280 C   0  0  0  0  0  0  0  0  0  0  0  0
  140.1040   71.3170  224.4930 N   0  0  0  0  0  0  0  0  0  0  0  0
  139.5590   73.4200  223.1880 H   0  0  0  0  0  0  0  0  0  0  0  0
  139.6686   73.2368  220.1410 H   0  0  0  0  0  0  0  0  0  0  0  0
  138.4641   74.2851  220.9534 H   0  0  0  0  0  0  0  0  0  0  0  0
  140.2806   77.0895  218.8512 H   0  0  0  0  0  0  0  0  0  0  0  0
  140.2790   77.3646  220.6322 H   0  0  0  0  0  0  0  0  0  0  0  0
  142.0664   78.5005  218.9655 H   0  0  0  0  0  0  0  0  0  0  0  0
  142.4371   78.0303  220.6839 H   0  0  0  0  0  0  0  0  0  0  0  0
  143.9642   77.3639  218.5864 H   0  0  0  0  0  0  0  0  0  0  0  0
  143.7671   76.3716  220.1118 H   0  0  0  0  0  0  0  0  0  0  0  0
  142.3322   75.9742  217.4960 H   0  0  0  0  0  0  0  0  0  0  0  0
  143.7040   74.9815  218.2224 H   0  0  0  0  0  0  0  0  0  0  0  0
  141.1570   74.2048  218.3853 H   0  0  0  0  0  0  0  0  0  0  0  0
  145.1367   72.2297  221.2936 H   0  0  0  0  0  0  0  0  0  0  0  0
  142.9301   70.7314  221.1984 H   0  0  0  0  0  0  0  0  0  0  0  0
  141.1030   72.0250  220.0200 H   0  0  0  0  0  0  0  0  0  0  0  0
  138.7433   69.0318  222.4821 H   0  0  0  0  0  0  0  0  0  0  0  0
  138.8348   67.6947  224.5354 H   0  0  0  0  0  0  0  0  0  0  0  0
  139.4499   67.5860  226.9314 H   0  0  0  0  0  0  0  0  0  0  0  0
  141.1924   71.0227  228.8508 H   0  0  0  0  0  0  0  0  0  0  0  0
  141.0466   72.2723  226.6996 H   0  0  0  0  0  0  0  0  0  0  0  0
  1  2  2  0
  2  3  1  0
  3  4  1  0
  4  5  1  0
  5  6  2  0
  5  7  1  0
  7  8  1  0
  8  9  1  0
  9 10  1  0
 10 11  1  0
 11 12  1  0
 12 13  1  0
 13 14  2  0
 14 15  1  0
 15 16  2  0
 16 17  1  0
  2 18  1  0
 18 19  2  0
 19 20  1  0
 20 21  2  0
 21 22  1  0
 22 23  2  0
 23 24  1  0
 23 25  1  0
 25 26  2  0
 26 27  1  0
 27 28  2  0
 12  7  1  0
 17 13  1  0
 28 18  1  0
 27 21  1  0
  3 29  1  0
  4 30  1  0
  4 31  1  0
  8 32  1  0
  8 33  1  0
  9 34  1  0
  9 35  1  0
 10 36  1  0
 10 37  1  0
 11 38  1  0
 11 39  1  0
 12 40  1  6
 15 41  1  0
 16 42  1  0
 17 43  1  0
 19 44  1  0
 20 45  1  0
 22 46  1  0
 25 47  1  0
 26 48  1  0
M  END
>  <smiles>  (47) 
O=C(NCC(=O)N1CCCC[C@H]1c1ncc[nH]1)c1ccc2cc(F)ccc2n1

>  <score_type>  (47) 
oracle

>  <origin>  (47) 
autodockgpu

>  <m_score__min__energy>  (47) 
-7.8799999999999999

>  <m_primary>  (47) 
energy

>  <rmsd>  (47) 
3.3962562350129635

>  <m_score__min__rmsd>  (47) 
3.3962562350129635

>  <meeko>  (47) 
{"free_energy": -6.92, "intermolecular_energy": -8.41, "internal_energy": -2.95, "cluster_size": 15, "cluster_id": 3, "rank_in_cluster": 14}

>  <energy>  (47) 
-6.58

>  <cluster_rmsd>  (47) 
1.04

>  <cluster>  (47) 
5

$$$$

     RDKit          3D

 48 51  0  0  0  0  0  0  0  0999 V2000
  140.7250   71.8520  221.1250 O   0  0  0  0  0  0  0  0  0  0  0  0
  140.1610   72.3410  222.1430 C   0  0  0  0  0  0  0  0  0  0  0  0
  139.6580   73.6700  222.1900 N   0  0  0  0  0  0  0  0  0  0  0  0
  139.7680   74.5570  221.0480 C   0  0  0  0  0  0  0  0  0  0  0  0
  140.8990   75.4980  221.2770 C   0  0  0  0  0  0  0  0  0  0  0  0
  142.0470   74.9810  221.3540 O   0  0  0  0  0  0  0  0  0  0  0  0
  140.6680   76.8980  221.4000 N   0  0  0  0  0  0  0  0  0  0  0  0
  140.3110   77.4400  222.7200 C   0  0  0  0  0  0  0  0  0  0  0  0
  141.3010   78.5070  223.1330 C   0  0  0  0  0  0  0  0  0  0  0  0
  141.9580   79.1710  221.9580 C   0  0  0  0  0  0  0  0  0  0  0  0
  141.1510   79.1100  220.6970 C   0  0  0  0  0  0  0  0  0  0  0  0
  140.7920   77.7350  220.2270 C   0  0  1  0  0  0  0  0  0  0  0  0
  141.8410   77.2320  219.3020 C   0  0  0  0  0  0  0  0  0  0  0  0
  141.7860   77.2460  217.9400 N   0  0  0  0  0  0  0  0  0  0  0  0
  142.9170   76.7080  217.4500 C   0  0  0  0  0  0  0  0  0  0  0  0
  143.6670   76.3640  218.5500 C   0  0  0  0  0  0  0  0  0  0  0  0
  143.0040   76.6880  219.6910 N   0  0  0  0  0  0  0  0  0  0  0  0
  140.0100   71.5080  223.3420 C   0  0  0  0  0  0  0  0  0  0  0  0
  139.3560   70.2960  223.3030 C   0  0  0  0  0  0  0  0  0  0  0  0
  139.2010   69.5000  224.4030 C   0  0  0  0  0  0  0  0  0  0  0  0
  139.7250   69.9280  225.6180 C   0  0  0  0  0  0  0  0  0  0  0  0
  139.6190   69.2030  226.7690 C   0  0  0  0  0  0  0  0  0  0  0  0
  140.1570   69.6640  227.9670 C   0  0  0  0  0  0  0  0  0  0  0  0
  140.0100   68.8860  229.0610 F   0  0  0  0  0  0  0  0  0  0  0  0
  140.8120   70.8820  227.9990 C   0  0  0  0  0  0  0  0  0  0  0  0
  140.9260   71.6290  226.8350 C   0  0  0  0  0  0  0  0  0  0  0  0
  140.3800   71.1480  225.6450 C   0  0  0  0  0  0  0  0  0  0  0  0
  140.5120   71.9010  224.5460 N   0  0  0  0  0  0  0  0  0  0  0  0
  139.1960   74.0040  223.0880 H   0  0  0  0  0  0  0  0  0  0  0  0
  139.9564   73.9672  220.1388 H   0  0  0  0  0  0  0  0  0  0  0  0
  138.8323   75.1216  220.9224 H   0  0  0  0  0  0  0  0  0  0  0  0
  139.3033   77.8785  222.6721 H   0  0  0  0  0  0  0  0  0  0  0  0
  140.3321   76.6259  223.4595 H   0  0  0  0  0  0  0  0  0  0  0  0
  140.7704   79.2721  223.7187 H   0  0  0  0  0  0  0  0  0  0  0  0
  142.0900   78.0186  223.7237 H   0  0  0  0  0  0  0  0  0  0  0  0
  142.1294   80.2282  222.2088 H   0  0  0  0  0  0  0  0  0  0  0  0
  142.8937   78.6258  221.7651 H   0  0  0  0  0  0  0  0  0  0  0  0
  140.2165   79.6652  220.8657 H   0  0  0  0  0  0  0  0  0  0  0  0
  141.7875   79.5412  219.9103 H   0  0  0  0  0  0  0  0  0  0  0  0
  139.8424   77.7334  219.6719 H   0  0  0  0  0  0  0  0  0  0  0  0
  143.1856   76.5718  216.3920 H   0  0  0  0  0  0  0  0  0  0  0  0
  144.6608   75.8941  218.5118 H   0  0  0  0  0  0  0  0  0  0  0  0
  143.4060   76.5060  220.6210 H   0  0  0  0  0  0  0  0  0  0  0  0
  138.9401   69.9538  222.3438 H   0  0  0  0  0  0  0  0  0  0  0  0
  138.6716   68.5386  224.3287 H   0  0  0  0  0  0  0  0  0  0  0  0
  139.0978   68.2345  226.7497 H   0  0  0  0  0  0  0  0  0  0  0  0
  141.2397   71.2560  228.9409 H   0  0  0  0  0  0  0  0  0  0  0  0
  141.4458   72.5983  226.8508 H   0  0  0  0  0  0  0  0  0  0  0  0
  1  2  2  0
  2  3  1  0
  3  4  1  0
  4  5  1  0
  5  6  2  0
  5  7  1  0
  7  8  1  0
  8  9  1  0
  9 10  1  0
 10 11  1  0
 11 12  1  0
 12 13  1  0
 13 14  2  0
 14 15  1  0
 15 16  2  0
 16 17  1  0
  2 18  1  0
 18 19  2  0
 19 20  1  0
 20 21  2  0
 21 22  1  0
 22 23  2  0
 23 24  1  0
 23 25  1  0
 25 26  2  0
 26 27  1  0
 27 28  2  0
 12  7  1  0
 17 13  1  0
 28 18  1  0
 27 21  1  0
  3 29  1  0
  4 30  1  0
  4 31  1  0
  8 32  1  0
  8 33  1  0
  9 34  1  0
  9 35  1  0
 10 36  1  0
 10 37  1  0
 11 38  1  0
 11 39  1  0
 12 40  1  6
 15 41  1  0
 16 42  1  0
 17 43  1  0
 19 44  1  0
 20 45  1  0
 22 46  1  0
 25 47  1  0
 26 48  1  0
M  END
>  <smiles>  (48) 
O=C(NCC(=O)N1CCCC[C@H]1c1ncc[nH]1)c1ccc2cc(F)ccc2n1

>  <score_type>  (48) 
oracle

>  <origin>  (48) 
autodockgpu

>  <m_score__min__energy>  (48) 
-7.8799999999999999

>  <m_primary>  (48) 
energy

>  <rmsd>  (48) 
3.414857987396284

>  <m_score__min__rmsd>  (48) 
3.414857987396284

>  <meeko>  (48) 
{"free_energy": -7.88, "intermolecular_energy": -9.37, "internal_energy": -1.93, "cluster_size": 19, "cluster_id": 1, "rank_in_cluster": 1}

>  <energy>  (48) 
-6.52

>  <cluster_rmsd>  (48) 
0.0

>  <cluster>  (48) 
6

$$$$

     RDKit          3D

 48 51  0  0  0  0  0  0  0  0999 V2000
  139.5830   74.4000  222.2020 O   0  0  0  0  0  0  0  0  0  0  0  0
  140.7120   74.7590  221.7660 C   0  0  0  0  0  0  0  0  0  0  0  0
  141.1580   76.1090  221.7780 N   0  0  0  0  0  0  0  0  0  0  0  0
  140.3230   77.1720  222.3020 C   0  0  0  0  0  0  0  0  0  0  0  0
  140.4380   78.3580  221.4080 C   0  0  0  0  0  0  0  0  0  0  0  0
  141.3040   78.2840  220.4940 O   0  0  0  0  0  0  0  0  0  0  0  0
  139.6050   79.4970  221.5990 N   0  0  0  0  0  0  0  0  0  0  0  0
  138.1460   79.3180  221.5600 C   0  0  0  0  0  0  0  0  0  0  0  0
  137.5230   79.8000  222.8520 C   0  0  0  0  0  0  0  0  0  0  0  0
  138.3520   80.8470  223.5360 C   0  0  0  0  0  0  0  0  0  0  0  0
  139.2500   81.6120  222.6110 C   0  0  0  0  0  0  0  0  0  0  0  0
  140.2200   80.7860  221.8260 C   0  0  1  0  0  0  0  0  0  0  0  0
  141.4960   80.6610  222.5800 C   0  0  0  0  0  0  0  0  0  0  0  0
  141.7270   81.1060  223.8480 N   0  0  0  0  0  0  0  0  0  0  0  0
  142.9940   80.8140  224.1900 C   0  0  0  0  0  0  0  0  0  0  0  0
  143.5330   80.1790  223.0970 C   0  0  0  0  0  0  0  0  0  0  0  0
  142.6100   80.0840  222.1050 N   0  0  0  0  0  0  0  0  0  0  0  0
  141.6190   73.7420  221.2190 C   0  0  0  0  0  0  0  0  0  0  0  0
  141.2070   72.4440  221.0060 C   0  0  0  0  0  0  0  0  0  0  0  0
  142.0290   71.4790  220.4980 C   0  0  0  0  0  0  0  0  0  0  0  0
  143.3400   71.8150  220.1790 C   0  0  0  0  0  0  0  0  0  0  0  0
  144.2330   70.9190  219.6680 C   0  0  0  0  0  0  0  0  0  0  0  0
  145.5380   71.2920  219.3610 C   0  0  0  0  0  0  0  0  0  0  0  0
  146.3600   70.3470  218.8580 F   0  0  0  0  0  0  0  0  0  0  0  0
  145.9450   72.5970  219.5770 C   0  0  0  0  0  0  0  0  0  0  0  0
  145.0460   73.5170  220.0970 C   0  0  0  0  0  0  0  0  0  0  0  0
  143.7430   73.1220  220.3980 C   0  0  0  0  0  0  0  0  0  0  0  0
  142.9090   74.0420  220.8980 N   0  0  0  0  0  0  0  0  0  0  0  0
  142.1250   76.3240  221.3910 H   0  0  0  0  0  0  0  0  0  0  0  0
  139.2761   76.8362  222.3378 H   0  0  0  0  0  0  0  0  0  0  0  0
  140.6496   77.4371  223.3184 H   0  0  0  0  0  0  0  0  0  0  0  0
  137.7319   79.8951  220.7201 H   0  0  0  0  0  0  0  0  0  0  0  0
  137.9200   78.2493  221.4307 H   0  0  0  0  0  0  0  0  0  0  0  0
  136.5330   80.2245  222.6291 H   0  0  0  0  0  0  0  0  0  0  0  0
  137.4505   78.9366  223.5298 H   0  0  0  0  0  0  0  0  0  0  0  0
  137.6732   81.5596  224.0273 H   0  0  0  0  0  0  0  0  0  0  0  0
  139.0030   80.3218  224.2504 H   0  0  0  0  0  0  0  0  0  0  0  0
  138.6155   82.1587  221.8979 H   0  0  0  0  0  0  0  0  0  0  0  0
  139.8595   82.2649  223.2530 H   0  0  0  0  0  0  0  0  0  0  0  0
  140.4583   81.2540  220.8595 H   0  0  0  0  0  0  0  0  0  0  0  0
  143.4941   81.0366  225.1441 H   0  0  0  0  0  0  0  0  0  0  0  0
  144.5644   79.8016  223.0344 H   0  0  0  0  0  0  0  0  0  0  0  0
  142.8270   79.6380  221.2030 H   0  0  0  0  0  0  0  0  0  0  0  0
  140.1705   72.1735  221.2562 H   0  0  0  0  0  0  0  0  0  0  0  0
  141.6605   70.4541  220.3439 H   0  0  0  0  0  0  0  0  0  0  0  0
  143.9148   69.8803  219.4951 H   0  0  0  0  0  0  0  0  0  0  0  0
  146.9743   72.9028  219.3380 H   0  0  0  0  0  0  0  0  0  0  0  0
  145.3607   74.5565  220.2716 H   0  0  0  0  0  0  0  0  0  0  0  0
  1  2  2  0
  2  3  1  0
  3  4  1  0
  4  5  1  0
  5  6  2  0
  5  7  1  0
  7  8  1  0
  8  9  1  0
  9 10  1  0
 10 11  1  0
 11 12  1  0
 12 13  1  0
 13 14  2  0
 14 15  1  0
 15 16  2  0
 16 17  1  0
  2 18  1  0
 18 19  2  0
 19 20  1  0
 20 21  2  0
 21 22  1  0
 22 23  2  0
 23 24  1  0
 23 25  1  0
 25 26  2  0
 26 27  1  0
 27 28  2  0
 12  7  1  0
 17 13  1  0
 28 18  1  0
 27 21  1  0
  3 29  1  0
  4 30  1  0
  4 31  1  0
  8 32  1  0
  8 33  1  0
  9 34  1  0
  9 35  1  0
 10 36  1  0
 10 37  1  0
 11 38  1  0
 11 39  1  0
 12 40  1  6
 15 41  1  0
 16 42  1  0
 17 43  1  0
 19 44  1  0
 20 45  1  0
 22 46  1  0
 25 47  1  0
 26 48  1  0
M  END
>  <smiles>  (49) 
O=C(NCC(=O)N1CCCC[C@H]1c1ncc[nH]1)c1ccc2cc(F)ccc2n1

>  <score_type>  (49) 
oracle

>  <origin>  (49) 
autodockgpu

>  <m_score__min__energy>  (49) 
-7.8799999999999999

>  <m_primary>  (49) 
energy

>  <rmsd>  (49) 
6.179785072624146

>  <m_score__min__rmsd>  (49) 
6.179785072624146

>  <meeko>  (49) 
{"free_energy": -6.96, "intermolecular_energy": -8.45, "internal_energy": -2.69, "cluster_size": 6, "cluster_id": 4, "rank_in_cluster": 3}

>  <energy>  (49) 
-6.47

>  <cluster_rmsd>  (49) 
0.0

>  <cluster>  (49) 
7

$$$$

     RDKit          3D

 48 51  0  0  0  0  0  0  0  0999 V2000
  138.6150   75.3080  221.4970 O   0  0  0  0  0  0  0  0  0  0  0  0
  139.8050   75.6210  221.7820 C   0  0  0  0  0  0  0  0  0  0  0  0
  140.9050   74.7370  221.6080 N   0  0  0  0  0  0  0  0  0  0  0  0
  140.7190   73.3990  221.0810 C   0  0  0  0  0  0  0  0  0  0  0  0
  141.7470   73.1490  220.0330 C   0  0  0  0  0  0  0  0  0  0  0  0
  141.3280   73.0880  218.8450 O   0  0  0  0  0  0  0  0  0  0  0  0
  143.1180   72.9900  220.3820 N   0  0  0  0  0  0  0  0  0  0  0  0
  143.6550   71.6280  220.5300 C   0  0  0  0  0  0  0  0  0  0  0  0
  144.8280   71.4230  219.5960 C   0  0  0  0  0  0  0  0  0  0  0  0
  145.5260   72.7080  219.2550 C   0  0  0  0  0  0  0  0  0  0  0  0
  145.3500   73.7860  220.2820 C   0  0  0  0  0  0  0  0  0  0  0  0
  143.9340   74.1680  220.5790 C   0  0  1  0  0  0  0  0  0  0  0  0
  143.5180   75.2800  219.6830 C   0  0  0  0  0  0  0  0  0  0  0  0
  143.6750   75.3240  218.3300 N   0  0  0  0  0  0  0  0  0  0  0  0
  143.1780   76.4850  217.8680 C   0  0  0  0  0  0  0  0  0  0  0  0
  142.7120   77.1510  218.9760 C   0  0  0  0  0  0  0  0  0  0  0  0
  142.9210   76.4090  220.0940 N   0  0  0  0  0  0  0  0  0  0  0  0
  140.0790   76.9590  222.3200 C   0  0  0  0  0  0  0  0  0  0  0  0
  139.0720   77.7590  222.8160 C   0  0  0  0  0  0  0  0  0  0  0  0
  139.2980   79.0080  223.3230 C   0  0  0  0  0  0  0  0  0  0  0  0
  140.6000   79.4970  223.3420 C   0  0  0  0  0  0  0  0  0  0  0  0
  140.9220   80.7310  223.8270 C   0  0  0  0  0  0  0  0  0  0  0  0
  142.2370   81.1880  223.8290 C   0  0  0  0  0  0  0  0  0  0  0  0
  142.4730   82.4190  224.3280 F   0  0  0  0  0  0  0  0  0  0  0  0
  143.2430   80.3780  223.3290 C   0  0  0  0  0  0  0  0  0  0  0  0
  142.9270   79.1220  222.8330 C   0  0  0  0  0  0  0  0  0  0  0  0
  141.6030   78.6840  222.8400 C   0  0  0  0  0  0  0  0  0  0  0  0
  141.3430   77.4660  222.3510 N   0  0  0  0  0  0  0  0  0  0  0  0
  141.8760   75.0810  221.8740 H   0  0  0  0  0  0  0  0  0  0  0  0
  140.8307   72.6636  221.8914 H   0  0  0  0  0  0  0  0  0  0  0  0
  139.7125   73.3046  220.6474 H   0  0  0  0  0  0  0  0  0  0  0  0
  143.9871   71.4794  221.5681 H   0  0  0  0  0  0  0  0  0  0  0  0
  142.8667   70.9028  220.2798 H   0  0  0  0  0  0  0  0  0  0  0  0
  145.5494   70.7477  220.0793 H   0  0  0  0  0  0  0  0  0  0  0  0
  144.4380   70.9971  218.6598 H   0  0  0  0  0  0  0  0  0  0  0  0
  146.6013   72.5010  219.1510 H   0  0  0  0  0  0  0  0  0  0  0  0
  145.0751   73.0786  218.3226 H   0  0  0  0  0  0  0  0  0  0  0  0
  145.8113   73.4401  221.2188 H   0  0  0  0  0  0  0  0  0  0  0  0
  145.8231   74.6850  219.8602 H   0  0  0  0  0  0  0  0  0  0  0  0
  143.8208   74.5236  221.6138 H   0  0  0  0  0  0  0  0  0  0  0  0
  143.1503   76.8290  216.8235 H   0  0  0  0  0  0  0  0  0  0  0  0
  142.2375   78.1433  218.9597 H   0  0  0  0  0  0  0  0  0  0  0  0
  142.6380   76.7420  221.0270 H   0  0  0  0  0  0  0  0  0  0  0  0
  138.0412   77.3753  222.8032 H   0  0  0  0  0  0  0  0  0  0  0  0
  138.4658   79.6151  223.7088 H   0  0  0  0  0  0  0  0  0  0  0  0
  140.1262   81.3780  224.2246 H   0  0  0  0  0  0  0  0  0  0  0  0
  144.2857   80.7285  223.3253 H   0  0  0  0  0  0  0  0  0  0  0  0
  143.7199   78.4720  222.4345 H   0  0  0  0  0  0  0  0  0  0  0  0
  1  2  2  0
  2  3  1  0
  3  4  1  0
  4  5  1  0
  5  6  2  0
  5  7  1  0
  7  8  1  0
  8  9  1  0
  9 10  1  0
 10 11  1  0
 11 12  1  0
 12 13  1  0
 13 14  2  0
 14 15  1  0
 15 16  2  0
 16 17  1  0
  2 18  1  0
 18 19  2  0
 19 20  1  0
 20 21  2  0
 21 22  1  0
 22 23  2  0
 23 24  1  0
 23 25  1  0
 25 26  2  0
 26 27  1  0
 27 28  2  0
 12  7  1  0
 17 13  1  0
 28 18  1  0
 27 21  1  0
  3 29  1  0
  4 30  1  0
  4 31  1  0
  8 32  1  0
  8 33  1  0
  9 34  1  0
  9 35  1  0
 10 36  1  0
 10 37  1  0
 11 38  1  0
 11 39  1  0
 12 40  1  1
 15 41  1  0
 16 42  1  0
 17 43  1  0
 19 44  1  0
 20 45  1  0
 22 46  1  0
 25 47  1  0
 26 48  1  0
M  END
>  <smiles>  (50) 
O=C(NCC(=O)N1CCCC[C@H]1c1ncc[nH]1)c1ccc2cc(F)ccc2n1

>  <score_type>  (50) 
oracle

>  <origin>  (50) 
autodockgpu

>  <m_score__min__energy>  (50) 
-7.8799999999999999

>  <m_primary>  (50) 
energy

>  <rmsd>  (50) 
7.56273344532645

>  <m_score__min__rmsd>  (50) 
7.56273344532645

>  <meeko>  (50) 
{"free_energy": -6.86, "intermolecular_energy": -8.35, "internal_energy": -2.9, "cluster_size": 4, "cluster_id": 5, "rank_in_cluster": 2}

>  <energy>  (50) 
-5.98

>  <cluster_rmsd>  (50) 
0.0

>  <cluster>  (50) 
8

$$$$
