
     RDKit          3D

 54 58  0  0  0  0  0  0  0  0999 V2000
  142.6050   73.6380  220.9220 O   0  0  0  0  0  0  0  0  0  0  0  0
  141.4330   73.7030  221.3700 C   0  0  0  0  0  0  0  0  0  0  0  0
  140.7650   72.4360  221.7420 C   0  0  0  0  0  0  0  0  0  0  0  0
  139.4030   72.7350  222.2400 C   0  0  0  0  0  0  0  0  0  0  0  0
  138.5650   71.6010  222.6630 C   0  0  0  0  0  0  0  0  0  0  0  0
  137.2060   71.5820  222.3440 C   0  0  0  0  0  0  0  0  0  0  0  0
  136.3920   70.5290  222.7280 C   0  0  0  0  0  0  0  0  0  0  0  0
  136.9670   69.4900  223.4420 C   0  0  0  0  0  0  0  0  0  0  0  0
  138.2890   69.4630  223.7800 C   0  0  0  0  0  0  0  0  0  0  0  0
  138.9430   68.4080  224.5240 C   0  0  0  0  0  0  0  0  0  0  0  0
  139.1270   67.3100  223.8960 O   0  0  0  0  0  0  0  0  0  0  0  0
  139.3650   68.5440  225.8570 N   0  0  0  0  0  0  0  0  0  0  0  0
  139.2060   69.7440  226.6550 C   0  0  0  0  0  0  0  0  0  0  0  0
  140.5650   70.1960  227.2010 C   0  0  0  0  0  0  0  0  0  0  0  0
  141.5520   69.2780  226.7760 O   0  0  0  0  0  0  0  0  0  0  0  0
  141.2160   68.0160  227.2720 C   0  0  0  0  0  0  0  0  0  0  0  0
  140.0190   67.4160  226.5220 C   0  0  0  0  0  0  0  0  0  0  0  0
  139.0880   70.5400  223.3780 C   0  0  0  0  0  0  0  0  0  0  0  0
  138.8900   73.8980  222.3340 N   0  0  0  0  0  0  0  0  0  0  0  0
  139.5330   75.1200  221.9770 C   0  0  0  0  0  0  0  0  0  0  0  0
  138.8810   76.3320  222.1190 C   0  0  0  0  0  0  0  0  0  0  0  0
  139.5530   77.4880  221.7560 C   0  0  0  0  0  0  0  0  0  0  0  0
  140.8560   77.4050  221.2620 C   0  0  0  0  0  0  0  0  0  0  0  0
  141.5560   78.5410  220.8890 O   0  0  0  0  0  0  0  0  0  0  0  0
  141.7550   79.5240  221.8380 C   0  0  0  0  0  0  0  0  0  0  0  0
  142.7420   79.3510  222.7600 C   0  0  0  0  0  0  0  0  0  0  0  0
  143.0020   80.2980  223.7490 C   0  0  0  0  0  0  0  0  0  0  0  0
  142.2440   81.4630  223.8160 C   0  0  0  0  0  0  0  0  0  0  0  0
  141.2290   81.6460  222.8720 C   0  0  0  0  0  0  0  0  0  0  0  0
  140.9890   80.6850  221.8940 C   0  0  0  0  0  0  0  0  0  0  0  0
  141.4920   76.1880  221.1250 C   0  0  0  0  0  0  0  0  0  0  0  0
  140.8190   75.0160  221.4900 C   0  0  0  0  0  0  0  0  0  0  0  0
  140.6995   71.7814  220.8604 H   0  0  0  0  0  0  0  0  0  0  0  0
  141.3439   71.9283  222.5276 H   0  0  0  0  0  0  0  0  0  0  0  0
  136.7733   72.4193  221.7768 H   0  0  0  0  0  0  0  0  0  0  0  0
  135.3218   70.5180  222.4739 H   0  0  0  0  0  0  0  0  0  0  0  0
  136.3290   68.6487  223.7504 H   0  0  0  0  0  0  0  0  0  0  0  0
  138.7808   70.5431  226.0300 H   0  0  0  0  0  0  0  0  0  0  0  0
  138.5321   69.5299  227.4976 H   0  0  0  0  0  0  0  0  0  0  0  0
  140.8029   71.1992  226.8176 H   0  0  0  0  0  0  0  0  0  0  0  0
  140.5344   70.2314  228.3000 H   0  0  0  0  0  0  0  0  0  0  0  0
  142.0809   67.3458  227.1588 H   0  0  0  0  0  0  0  0  0  0  0  0
  140.9398   68.1244  228.3312 H   0  0  0  0  0  0  0  0  0  0  0  0
  140.3609   66.6789  225.7805 H   0  0  0  0  0  0  0  0  0  0  0  0
  139.3328   66.8922  227.2037 H   0  0  0  0  0  0  0  0  0  0  0  0
  140.1570   70.5419  223.6372 H   0  0  0  0  0  0  0  0  0  0  0  0
  137.8540   76.3767  222.5106 H   0  0  0  0  0  0  0  0  0  0  0  0
  139.0618   78.4671  221.8566 H   0  0  0  0  0  0  0  0  0  0  0  0
  143.3523   78.4366  222.7232 H   0  0  0  0  0  0  0  0  0  0  0  0
  143.8075   80.1242  224.4776 H   0  0  0  0  0  0  0  0  0  0  0  0
  142.4381   82.2195  224.5907 H   0  0  0  0  0  0  0  0  0  0  0  0
  140.6145   82.5578  222.9024 H   0  0  0  0  0  0  0  0  0  0  0  0
  140.1866   80.8445  221.1586 H   0  0  0  0  0  0  0  0  0  0  0  0
  142.5185   76.1393  220.7326 H   0  0  0  0  0  0  0  0  0  0  0  0
  1  2  2  0
  2  3  1  0
  3  4  1  0
  4  5  1  0
  5  6  2  0
  6  7  1  0
  7  8  2  0
  8  9  1  0
  9 10  1  0
 10 11  2  0
 10 12  1  0
 12 13  1  0
 13 14  1  0
 14 15  1  0
 15 16  1  0
 16 17  1  0
  9 18  2  0
  4 19  2  0
 19 20  1  0
 20 21  2  0
 21 22  1  0
 22 23  2  0
 23 24  1  0
 24 25  1  0
 25 26  2  0
 26 27  1  0
 27 28  2  0
 28 29  1  0
 29 30  2  0
 23 31  1  0
 31 32  2  0
 32  2  1  0
 18  5  1  0
 32 20  1  0
 17 12  1  0
 30 25  1  0
  3 33  1  0
  3 34  1  0
  6 35  1  0
  7 36  1  0
  8 37  1  0
 13 38  1  0
 13 39  1  0
 14 40  1  0
 14 41  1  0
 16 42  1  0
 16 43  1  0
 17 44  1  0
 17 45  1  0
 18 46  1  0
 21 47  1  0
 22 48  1  0
 26 49  1  0
 27 50  1  0
 28 51  1  0
 29 52  1  0
 30 53  1  0
 31 54  1  0
M  END
>  <smiles>  (1) 
O=C1CC(c2cccc(C(=O)N3CCOCC3)c2)=Nc2ccc(Oc3ccccc3)cc21

>  <score_type>  (1) 
oracle

>  <origin>  (1) 
autodockgpu

>  <m_score__min__energy>  (1) 
-8.6400000000000006

>  <m_primary>  (1) 
energy

>  <rmsd>  (1) 
6.137535725855304

>  <m_score__min__rmsd>  (1) 
6.137535725855304

>  <meeko>  (1) 
{"free_energy": -8.4, "intermolecular_energy": -9.59, "internal_energy": -1.13, "cluster_size": 27, "cluster_id": 1, "rank_in_cluster": 23}

>  <energy>  (1) 
-8.64

>  <cluster_rmsd>  (1) 
0.0

>  <cluster>  (1) 
1

$$$$

     RDKit          3D

 54 58  0  0  0  0  0  0  0  0999 V2000
  142.6620   73.5450  220.1960 O   0  0  0  0  0  0  0  0  0  0  0  0
  141.5950   73.6080  220.8560 C   0  0  0  0  0  0  0  0  0  0  0  0
  140.9050   72.3380  221.1750 C   0  0  0  0  0  0  0  0  0  0  0  0
  139.6790   72.6340  221.9490 C   0  0  0  0  0  0  0  0  0  0  0  0
  138.8410   71.4970  222.3670 C   0  0  0  0  0  0  0  0  0  0  0  0
  137.5420   71.3710  221.8720 C   0  0  0  0  0  0  0  0  0  0  0  0
  136.7300   70.3130  222.2460 C   0  0  0  0  0  0  0  0  0  0  0  0
  137.2460   69.3790  223.1290 C   0  0  0  0  0  0  0  0  0  0  0  0
  138.5090   69.4590  223.6410 C   0  0  0  0  0  0  0  0  0  0  0  0
  139.0990   68.5150  224.5660 C   0  0  0  0  0  0  0  0  0  0  0  0
  139.1810   67.3060  224.1590 O   0  0  0  0  0  0  0  0  0  0  0  0
  139.5680   68.8680  225.8430 N   0  0  0  0  0  0  0  0  0  0  0  0
  139.5230   70.2070  226.3980 C   0  0  0  0  0  0  0  0  0  0  0  0
  140.9270   70.6440  226.8300 C   0  0  0  0  0  0  0  0  0  0  0  0
  141.8280   69.5840  226.5780 O   0  0  0  0  0  0  0  0  0  0  0  0
  141.4100   68.4720  227.3110 C   0  0  0  0  0  0  0  0  0  0  0  0
  140.1500   67.8380  226.7040 C   0  0  0  0  0  0  0  0  0  0  0  0
  139.3070   70.5380  223.2460 C   0  0  0  0  0  0  0  0  0  0  0  0
  139.2820   73.7970  222.2870 N   0  0  0  0  0  0  0  0  0  0  0  0
  139.9470   75.0220  221.9820 C   0  0  0  0  0  0  0  0  0  0  0  0
  139.4260   76.2340  222.3990 C   0  0  0  0  0  0  0  0  0  0  0  0
  140.1130   77.3930  222.0740 C   0  0  0  0  0  0  0  0  0  0  0  0
  141.2990   77.3130  221.3420 C   0  0  0  0  0  0  0  0  0  0  0  0
  142.0100   78.4510  221.0000 O   0  0  0  0  0  0  0  0  0  0  0  0
  142.0880   79.4730  221.9240 C   0  0  0  0  0  0  0  0  0  0  0  0
  141.3040   80.5730  221.7490 C   0  0  0  0  0  0  0  0  0  0  0  0
  141.3270   81.6460  222.6380 C   0  0  0  0  0  0  0  0  0  0  0  0
  142.1680   81.6140  223.7460 C   0  0  0  0  0  0  0  0  0  0  0  0
  142.9760   80.4870  223.9320 C   0  0  0  0  0  0  0  0  0  0  0  0
  142.9340   79.4290  223.0290 C   0  0  0  0  0  0  0  0  0  0  0  0
  141.8040   76.0950  220.9330 C   0  0  0  0  0  0  0  0  0  0  0  0
  141.1150   74.9200  221.2580 C   0  0  0  0  0  0  0  0  0  0  0  0
  140.6358   71.8207  220.2423 H   0  0  0  0  0  0  0  0  0  0  0  0
  141.5707   71.6933  221.7677 H   0  0  0  0  0  0  0  0  0  0  0  0
  137.1558   72.1262  221.1716 H   0  0  0  0  0  0  0  0  0  0  0  0
  135.7067   70.2175  221.8538 H   0  0  0  0  0  0  0  0  0  0  0  0
  136.6093   68.5345  223.4314 H   0  0  0  0  0  0  0  0  0  0  0  0
  139.1429   70.9041  225.6367 H   0  0  0  0  0  0  0  0  0  0  0  0
  138.8582   70.2120  227.2743 H   0  0  0  0  0  0  0  0  0  0  0  0
  141.2310   71.5325  226.2572 H   0  0  0  0  0  0  0  0  0  0  0  0
  140.9297   70.8921  227.9016 H   0  0  0  0  0  0  0  0  0  0  0  0
  142.2175   67.7251  227.3188 H   0  0  0  0  0  0  0  0  0  0  0  0
  141.1717   68.8023  228.3328 H   0  0  0  0  0  0  0  0  0  0  0  0
  140.4140   66.9481  226.1138 H   0  0  0  0  0  0  0  0  0  0  0  0
  139.4440   67.5101  227.4813 H   0  0  0  0  0  0  0  0  0  0  0  0
  140.3287   70.6250  223.6442 H   0  0  0  0  0  0  0  0  0  0  0  0
  138.4895   76.2767  222.9744 H   0  0  0  0  0  0  0  0  0  0  0  0
  139.7252   78.3721  222.3916 H   0  0  0  0  0  0  0  0  0  0  0  0
  140.6320   80.6157  220.8792 H   0  0  0  0  0  0  0  0  0  0  0  0
  140.6801   82.5184  222.4637 H   0  0  0  0  0  0  0  0  0  0  0  0
  142.1969   82.4528  224.4571 H   0  0  0  0  0  0  0  0  0  0  0  0
  143.6503   80.4368  224.7996 H   0  0  0  0  0  0  0  0  0  0  0  0
  143.5752   78.5497  223.1897 H   0  0  0  0  0  0  0  0  0  0  0  0
  142.7397   76.0479  220.3567 H   0  0  0  0  0  0  0  0  0  0  0  0
  1  2  2  0
  2  3  1  0
  3  4  1  0
  4  5  1  0
  5  6  2  0
  6  7  1  0
  7  8  2  0
  8  9  1  0
  9 10  1  0
 10 11  2  0
 10 12  1  0
 12 13  1  0
 13 14  1  0
 14 15  1  0
 15 16  1  0
 16 17  1  0
  9 18  2  0
  4 19  2  0
 19 20  1  0
 20 21  2  0
 21 22  1  0
 22 23  2  0
 23 24  1  0
 24 25  1  0
 25 26  2  0
 26 27  1  0
 27 28  2  0
 28 29  1  0
 29 30  2  0
 23 31  1  0
 31 32  2  0
 32  2  1  0
 18  5  1  0
 32 20  1  0
 17 12  1  0
 30 25  1  0
  3 33  1  0
  3 34  1  0
  6 35  1  0
  7 36  1  0
  8 37  1  0
 13 38  1  0
 13 39  1  0
 14 40  1  0
 14 41  1  0
 16 42  1  0
 16 43  1  0
 17 44  1  0
 17 45  1  0
 18 46  1  0
 21 47  1  0
 22 48  1  0
 26 49  1  0
 27 50  1  0
 28 51  1  0
 29 52  1  0
 30 53  1  0
 31 54  1  0
M  END
>  <smiles>  (2) 
O=C1CC(c2cccc(C(=O)N3CCOCC3)c2)=Nc2ccc(Oc3ccccc3)cc21

>  <score_type>  (2) 
oracle

>  <origin>  (2) 
autodockgpu

>  <m_score__min__energy>  (2) 
-8.6400000000000006

>  <m_primary>  (2) 
energy

>  <rmsd>  (2) 
6.14278927818108

>  <m_score__min__rmsd>  (2) 
6.14278927818108

>  <meeko>  (2) 
{"free_energy": -8.51, "intermolecular_energy": -9.7, "internal_energy": -1.09, "cluster_size": 27, "cluster_id": 1, "rank_in_cluster": 12}

>  <energy>  (2) 
-8.62

>  <cluster_rmsd>  (2) 
0.92

>  <cluster>  (2) 
1

$$$$

     RDKit          3D

 54 58  0  0  0  0  0  0  0  0999 V2000
  142.6630   73.4930  220.6930 O   0  0  0  0  0  0  0  0  0  0  0  0
  141.5230   73.5910  221.2100 C   0  0  0  0  0  0  0  0  0  0  0  0
  140.8280   72.3400  221.5880 C   0  0  0  0  0  0  0  0  0  0  0  0
  139.5090   72.6760  222.1720 C   0  0  0  0  0  0  0  0  0  0  0  0
  138.6530   71.5630  222.6160 C   0  0  0  0  0  0  0  0  0  0  0  0
  137.2940   71.5610  222.2990 C   0  0  0  0  0  0  0  0  0  0  0  0
  136.4640   70.5280  222.7020 C   0  0  0  0  0  0  0  0  0  0  0  0
  137.0230   69.4920  223.4320 C   0  0  0  0  0  0  0  0  0  0  0  0
  138.3450   69.4490  223.7680 C   0  0  0  0  0  0  0  0  0  0  0  0
  138.9820   68.3960  224.5280 C   0  0  0  0  0  0  0  0  0  0  0  0
  139.1890   67.2990  223.9030 O   0  0  0  0  0  0  0  0  0  0  0  0
  139.3670   68.5310  225.8720 N   0  0  0  0  0  0  0  0  0  0  0  0
  139.1800   69.7280  226.6680 C   0  0  0  0  0  0  0  0  0  0  0  0
  140.5210   70.1860  227.2510 C   0  0  0  0  0  0  0  0  0  0  0  0
  141.5240   69.2730  226.8530 O   0  0  0  0  0  0  0  0  0  0  0  0
  141.1800   68.0090  227.3370 C   0  0  0  0  0  0  0  0  0  0  0  0
  140.0070   67.4040  226.5530 C   0  0  0  0  0  0  0  0  0  0  0  0
  139.1610   70.5050  223.3470 C   0  0  0  0  0  0  0  0  0  0  0  0
  139.0480   73.8540  222.3240 N   0  0  0  0  0  0  0  0  0  0  0  0
  139.7170   75.0600  221.9610 C   0  0  0  0  0  0  0  0  0  0  0  0
  139.1210   76.2920  222.1700 C   0  0  0  0  0  0  0  0  0  0  0  0
  139.8160   77.4310  221.7970 C   0  0  0  0  0  0  0  0  0  0  0  0
  141.0840   77.3130  221.2260 C   0  0  0  0  0  0  0  0  0  0  0  0
  141.8060   78.4310  220.8420 O   0  0  0  0  0  0  0  0  0  0  0  0
  141.9250   79.4710  221.7420 C   0  0  0  0  0  0  0  0  0  0  0  0
  141.4010   80.6840  221.4120 C   0  0  0  0  0  0  0  0  0  0  0  0
  141.4830   81.7810  222.2670 C   0  0  0  0  0  0  0  0  0  0  0  0
  142.1140   81.6570  223.5010 C   0  0  0  0  0  0  0  0  0  0  0  0
  142.6550   80.4140  223.8460 C   0  0  0  0  0  0  0  0  0  0  0  0
  142.5600   79.3340  222.9730 C   0  0  0  0  0  0  0  0  0  0  0  0
  141.6640   76.0770  221.0230 C   0  0  0  0  0  0  0  0  0  0  0  0
  140.9670   74.9210  221.3970 C   0  0  0  0  0  0  0  0  0  0  0  0
  140.6867   71.7129  220.6954 H   0  0  0  0  0  0  0  0  0  0  0  0
  141.4305   71.7895  222.3255 H   0  0  0  0  0  0  0  0  0  0  0  0
  136.8741   72.3954  221.7182 H   0  0  0  0  0  0  0  0  0  0  0  0
  135.3933   70.5303  222.4499 H   0  0  0  0  0  0  0  0  0  0  0  0
  136.3719   68.6666  223.7556 H   0  0  0  0  0  0  0  0  0  0  0  0
  138.7672   70.5262  226.0336 H   0  0  0  0  0  0  0  0  0  0  0  0
  138.4849   69.5082  227.4918 H   0  0  0  0  0  0  0  0  0  0  0  0
  140.7644   71.1905  226.8746 H   0  0  0  0  0  0  0  0  0  0  0  0
  140.4601   70.2205  228.3488 H   0  0  0  0  0  0  0  0  0  0  0  0
  142.0509   67.3431  227.2470 H   0  0  0  0  0  0  0  0  0  0  0  0
  140.8734   68.1147  228.3881 H   0  0  0  0  0  0  0  0  0  0  0  0
  140.3728   66.6698  225.8201 H   0  0  0  0  0  0  0  0  0  0  0  0
  139.3046   66.8753  227.2141 H   0  0  0  0  0  0  0  0  0  0  0  0
  140.2306   70.4931  223.6034 H   0  0  0  0  0  0  0  0  0  0  0  0
  138.1204   76.3647  222.6211 H   0  0  0  0  0  0  0  0  0  0  0  0
  139.3700   78.4248  221.9503 H   0  0  0  0  0  0  0  0  0  0  0  0
  140.8977   80.8012  220.4409 H   0  0  0  0  0  0  0  0  0  0  0  0
  141.0486   82.7458  221.9663 H   0  0  0  0  0  0  0  0  0  0  0  0
  142.1855   82.5138  224.1871 H   0  0  0  0  0  0  0  0  0  0  0  0
  143.1597   80.2890  224.8153 H   0  0  0  0  0  0  0  0  0  0  0  0
  142.9908   78.3630  223.2587 H   0  0  0  0  0  0  0  0  0  0  0  0
  142.6643   76.0005  220.5717 H   0  0  0  0  0  0  0  0  0  0  0  0
  1  2  2  0
  2  3  1  0
  3  4  1  0
  4  5  1  0
  5  6  2  0
  6  7  1  0
  7  8  2  0
  8  9  1  0
  9 10  1  0
 10 11  2  0
 10 12  1  0
 12 13  1  0
 13 14  1  0
 14 15  1  0
 15 16  1  0
 16 17  1  0
  9 18  2  0
  4 19  2  0
 19 20  1  0
 20 21  2  0
 21 22  1  0
 22 23  2  0
 23 24  1  0
 24 25  1  0
 25 26  2  0
 26 27  1  0
 27 28  2  0
 28 29  1  0
 29 30  2  0
 23 31  1  0
 31 32  2  0
 32  2  1  0
 18  5  1  0
 32 20  1  0
 17 12  1  0
 30 25  1  0
  3 33  1  0
  3 34  1  0
  6 35  1  0
  7 36  1  0
  8 37  1  0
 13 38  1  0
 13 39  1  0
 14 40  1  0
 14 41  1  0
 16 42  1  0
 16 43  1  0
 17 44  1  0
 17 45  1  0
 18 46  1  0
 21 47  1  0
 22 48  1  0
 26 49  1  0
 27 50  1  0
 28 51  1  0
 29 52  1  0
 30 53  1  0
 31 54  1  0
M  END
>  <smiles>  (3) 
O=C1CC(c2cccc(C(=O)N3CCOCC3)c2)=Nc2ccc(Oc3ccccc3)cc21

>  <score_type>  (3) 
oracle

>  <origin>  (3) 
autodockgpu

>  <m_score__min__energy>  (3) 
-8.6400000000000006

>  <m_primary>  (3) 
energy

>  <rmsd>  (3) 
6.163521137396353

>  <m_score__min__rmsd>  (3) 
6.163521137396353

>  <meeko>  (3) 
{"free_energy": -8.57, "intermolecular_energy": -9.77, "internal_energy": -1.13, "cluster_size": 27, "cluster_id": 1, "rank_in_cluster": 4}

>  <energy>  (3) 
-8.58

>  <cluster_rmsd>  (3) 
0.93

>  <cluster>  (3) 
1

$$$$

     RDKit          3D

 54 58  0  0  0  0  0  0  0  0999 V2000
  143.8280   72.4040  220.6630 O   0  0  0  0  0  0  0  0  0  0  0  0
  142.9550   73.3080  220.6470 C   0  0  0  0  0  0  0  0  0  0  0  0
  143.2830   74.5710  219.9490 C   0  0  0  0  0  0  0  0  0  0  0  0
  142.1300   75.4940  220.0500 C   0  0  0  0  0  0  0  0  0  0  0  0
  142.2550   76.8180  219.4160 C   0  0  0  0  0  0  0  0  0  0  0  0
  142.8190   76.9300  218.1440 C   0  0  0  0  0  0  0  0  0  0  0  0
  142.9500   78.1600  217.5230 C   0  0  0  0  0  0  0  0  0  0  0  0
  142.5040   79.2820  218.2020 C   0  0  0  0  0  0  0  0  0  0  0  0
  141.9460   79.2250  219.4460 C   0  0  0  0  0  0  0  0  0  0  0  0
  141.4640   80.3600  220.2020 C   0  0  0  0  0  0  0  0  0  0  0  0
  140.7220   81.1850  219.5650 O   0  0  0  0  0  0  0  0  0  0  0  0
  141.7700   80.5790  221.5560 N   0  0  0  0  0  0  0  0  0  0  0  0
  142.5980   79.7080  222.3660 C   0  0  0  0  0  0  0  0  0  0  0  0
  141.8310   79.2680  223.6170 C   0  0  0  0  0  0  0  0  0  0  0  0
  140.5560   79.8790  223.6040 O   0  0  0  0  0  0  0  0  0  0  0  0
  140.7360   81.2640  223.5970 C   0  0  0  0  0  0  0  0  0  0  0  0
  141.2320   81.7610  222.2320 C   0  0  0  0  0  0  0  0  0  0  0  0
  141.8260   77.9680  220.0500 C   0  0  0  0  0  0  0  0  0  0  0  0
  141.0310   75.2400  220.6430 N   0  0  0  0  0  0  0  0  0  0  0  0
  140.7130   74.0230  221.3150 C   0  0  0  0  0  0  0  0  0  0  0  0
  139.4840   73.8520  221.9290 C   0  0  0  0  0  0  0  0  0  0  0  0
  139.2290   72.6490  222.5680 C   0  0  0  0  0  0  0  0  0  0  0  0
  140.2040   71.6500  222.5790 C   0  0  0  0  0  0  0  0  0  0  0  0
  139.9820   70.4370  223.2090 O   0  0  0  0  0  0  0  0  0  0  0  0
  140.0990   70.3860  224.5840 C   0  0  0  0  0  0  0  0  0  0  0  0
  140.7230   71.4130  225.2250 C   0  0  0  0  0  0  0  0  0  0  0  0
  140.8800   71.4320  226.6090 C   0  0  0  0  0  0  0  0  0  0  0  0
  140.3930   70.3820  227.3810 C   0  0  0  0  0  0  0  0  0  0  0  0
  139.7520   69.3240  226.7290 C   0  0  0  0  0  0  0  0  0  0  0  0
  139.6080   69.3290  225.3440 C   0  0  0  0  0  0  0  0  0  0  0  0
  141.4250   71.8370  221.9630 C   0  0  0  0  0  0  0  0  0  0  0  0
  141.6890   73.0500  221.3150 C   0  0  0  0  0  0  0  0  0  0  0  0
  144.1657   75.0317  220.4166 H   0  0  0  0  0  0  0  0  0  0  0  0
  143.5002   74.3639  218.8907 H   0  0  0  0  0  0  0  0  0  0  0  0
  143.1658   76.0239  217.6256 H   0  0  0  0  0  0  0  0  0  0  0  0
  143.3949   78.2440  216.5205 H   0  0  0  0  0  0  0  0  0  0  0  0
  142.6042   80.2638  217.7162 H   0  0  0  0  0  0  0  0  0  0  0  0
  142.8762   78.8205  221.7786 H   0  0  0  0  0  0  0  0  0  0  0  0
  143.5034   80.2529  222.6714 H   0  0  0  0  0  0  0  0  0  0  0  0
  141.7174   78.1739  223.6161 H   0  0  0  0  0  0  0  0  0  0  0  0
  142.3821   79.5688  224.5202 H   0  0  0  0  0  0  0  0  0  0  0  0
  139.7764   81.7501  223.8271 H   0  0  0  0  0  0  0  0  0  0  0  0
  141.4947   81.5168  224.3523 H   0  0  0  0  0  0  0  0  0  0  0  0
  140.4001   82.1891  221.6535 H   0  0  0  0  0  0  0  0  0  0  0  0
  141.9901   82.5511  222.3368 H   0  0  0  0  0  0  0  0  0  0  0  0
  141.3798   77.8941  221.0527 H   0  0  0  0  0  0  0  0  0  0  0  0
  138.7285   74.6513  221.9101 H   0  0  0  0  0  0  0  0  0  0  0  0
  138.2619   72.4819  223.0647 H   0  0  0  0  0  0  0  0  0  0  0  0
  141.1147   72.2526  224.6321 H   0  0  0  0  0  0  0  0  0  0  0  0
  141.3898   72.2785  227.0923 H   0  0  0  0  0  0  0  0  0  0  0  0
  140.5091   70.3841  228.4749 H   0  0  0  0  0  0  0  0  0  0  0  0
  139.3582   68.4806  227.3152 H   0  0  0  0  0  0  0  0  0  0  0  0
  139.1012   68.4893  224.8460 H   0  0  0  0  0  0  0  0  0  0  0  0
  142.1836   71.0406  221.9809 H   0  0  0  0  0  0  0  0  0  0  0  0
  1  2  2  0
  2  3  1  0
  3  4  1  0
  4  5  1  0
  5  6  2  0
  6  7  1  0
  7  8  2  0
  8  9  1  0
  9 10  1  0
 10 11  2  0
 10 12  1  0
 12 13  1  0
 13 14  1  0
 14 15  1  0
 15 16  1  0
 16 17  1  0
  9 18  2  0
  4 19  2  0
 19 20  1  0
 20 21  2  0
 21 22  1  0
 22 23  2  0
 23 24  1  0
 24 25  1  0
 25 26  2  0
 26 27  1  0
 27 28  2  0
 28 29  1  0
 29 30  2  0
 23 31  1  0
 31 32  2  0
 32  2  1  0
 18  5  1  0
 32 20  1  0
 17 12  1  0
 30 25  1  0
  3 33  1  0
  3 34  1  0
  6 35  1  0
  7 36  1  0
  8 37  1  0
 13 38  1  0
 13 39  1  0
 14 40  1  0
 14 41  1  0
 16 42  1  0
 16 43  1  0
 17 44  1  0
 17 45  1  0
 18 46  1  0
 21 47  1  0
 22 48  1  0
 26 49  1  0
 27 50  1  0
 28 51  1  0
 29 52  1  0
 30 53  1  0
 31 54  1  0
M  END
>  <smiles>  (4) 
O=C1CC(c2cccc(C(=O)N3CCOCC3)c2)=Nc2ccc(Oc3ccccc3)cc21

>  <score_type>  (4) 
oracle

>  <origin>  (4) 
autodockgpu

>  <m_score__min__energy>  (4) 
-8.6400000000000006

>  <m_primary>  (4) 
energy

>  <rmsd>  (4) 
8.396823074203366

>  <m_score__min__rmsd>  (4) 
8.396823074203366

>  <meeko>  (4) 
{"free_energy": -8.43, "intermolecular_energy": -9.62, "internal_energy": -1.04, "cluster_size": 21, "cluster_id": 2, "rank_in_cluster": 19}

>  <energy>  (4) 
-8.57

>  <cluster_rmsd>  (4) 
0.93

>  <cluster>  (4) 
1

$$$$

     RDKit          3D

 54 58  0  0  0  0  0  0  0  0999 V2000
  142.8440   74.2430  219.1020 O   0  0  0  0  0  0  0  0  0  0  0  0
  141.9940   74.0550  220.0070 C   0  0  0  0  0  0  0  0  0  0  0  0
  141.5960   72.6600  220.3010 C   0  0  0  0  0  0  0  0  0  0  0  0
  140.5920   72.6620  221.3890 C   0  0  0  0  0  0  0  0  0  0  0  0
  140.0630   71.3610  221.8330 C   0  0  0  0  0  0  0  0  0  0  0  0
  139.9580   70.3060  220.9260 C   0  0  0  0  0  0  0  0  0  0  0  0
  139.4630   69.0720  221.3140 C   0  0  0  0  0  0  0  0  0  0  0  0
  139.0740   68.9130  222.6340 C   0  0  0  0  0  0  0  0  0  0  0  0
  139.1560   69.9140  223.5580 C   0  0  0  0  0  0  0  0  0  0  0  0
  138.7630   69.8070  224.9460 C   0  0  0  0  0  0  0  0  0  0  0  0
  137.5140   69.9400  225.1880 O   0  0  0  0  0  0  0  0  0  0  0  0
  139.6690   69.5710  225.9940 N   0  0  0  0  0  0  0  0  0  0  0  0
  141.0990   69.4050  225.8270 C   0  0  0  0  0  0  0  0  0  0  0  0
  141.5490   68.0750  226.4400 C   0  0  0  0  0  0  0  0  0  0  0  0
  140.4240   67.4340  227.0070 O   0  0  0  0  0  0  0  0  0  0  0  0
  139.8920   68.2750  227.9880 C   0  0  0  0  0  0  0  0  0  0  0  0
  139.1700   69.4790  227.3680 C   0  0  0  0  0  0  0  0  0  0  0  0
  139.6590   71.1510  223.1390 C   0  0  0  0  0  0  0  0  0  0  0  0
  140.1430   73.6990  221.9770 N   0  0  0  0  0  0  0  0  0  0  0  0
  140.5260   75.0440  221.6950 C   0  0  0  0  0  0  0  0  0  0  0  0
  139.9720   76.1000  222.3980 C   0  0  0  0  0  0  0  0  0  0  0  0
  140.3800   77.3860  222.0820 C   0  0  0  0  0  0  0  0  0  0  0  0
  141.3270   77.5850  221.0760 C   0  0  0  0  0  0  0  0  0  0  0  0
  141.7560   78.8570  220.7350 O   0  0  0  0  0  0  0  0  0  0  0  0
  141.8770   79.7950  221.7410 C   0  0  0  0  0  0  0  0  0  0  0  0
  142.7150   79.5320  222.7820 C   0  0  0  0  0  0  0  0  0  0  0  0
  142.8890   80.4280  223.8340 C   0  0  0  0  0  0  0  0  0  0  0  0
  142.1980   81.6360  223.8430 C   0  0  0  0  0  0  0  0  0  0  0  0
  141.3360   81.9120  222.7770 C   0  0  0  0  0  0  0  0  0  0  0  0
  141.1790   81.0000  221.7380 C   0  0  0  0  0  0  0  0  0  0  0  0
  141.8690   76.5210  220.3840 C   0  0  0  0  0  0  0  0  0  0  0  0
  141.4610   75.2180  220.6980 C   0  0  0  0  0  0  0  0  0  0  0  0
  141.1615   72.2031  219.3996 H   0  0  0  0  0  0  0  0  0  0  0  0
  142.4779   72.0805  220.6115 H   0  0  0  0  0  0  0  0  0  0  0  0
  140.2742   70.4571  219.8833 H   0  0  0  0  0  0  0  0  0  0  0  0
  139.3812   68.2431  220.5955 H   0  0  0  0  0  0  0  0  0  0  0  0
  138.6813   67.9358  222.9517 H   0  0  0  0  0  0  0  0  0  0  0  0
  141.3435   69.4127  224.7545 H   0  0  0  0  0  0  0  0  0  0  0  0
  141.6193   70.2303  226.3350 H   0  0  0  0  0  0  0  0  0  0  0  0
  141.9844   67.4355  225.6581 H   0  0  0  0  0  0  0  0  0  0  0  0
  142.3072   68.2572  227.2158 H   0  0  0  0  0  0  0  0  0  0  0  0
  139.1759   67.7043  228.5976 H   0  0  0  0  0  0  0  0  0  0  0  0
  140.7209   68.6512  228.6056 H   0  0  0  0  0  0  0  0  0  0  0  0
  138.0818   69.3181  227.3716 H   0  0  0  0  0  0  0  0  0  0  0  0
  139.3597   70.4034  227.9333 H   0  0  0  0  0  0  0  0  0  0  0  0
  139.7347   71.9744  223.8644 H   0  0  0  0  0  0  0  0  0  0  0  0
  139.2268   75.9228  223.1874 H   0  0  0  0  0  0  0  0  0  0  0  0
  139.9591   78.2470  222.6220 H   0  0  0  0  0  0  0  0  0  0  0  0
  143.2713   78.5831  222.7922 H   0  0  0  0  0  0  0  0  0  0  0  0
  143.5735   80.1805  224.6588 H   0  0  0  0  0  0  0  0  0  0  0  0
  142.3264   82.3542  224.6663 H   0  0  0  0  0  0  0  0  0  0  0  0
  140.7768   82.8591  222.7597 H   0  0  0  0  0  0  0  0  0  0  0  0
  140.4973   81.2329  220.9067 H   0  0  0  0  0  0  0  0  0  0  0  0
  142.6141   76.6943  219.5936 H   0  0  0  0  0  0  0  0  0  0  0  0
  1  2  2  0
  2  3  1  0
  3  4  1  0
  4  5  1  0
  5  6  2  0
  6  7  1  0
  7  8  2  0
  8  9  1  0
  9 10  1  0
 10 11  2  0
 10 12  1  0
 12 13  1  0
 13 14  1  0
 14 15  1  0
 15 16  1  0
 16 17  1  0
  9 18  2  0
  4 19  2  0
 19 20  1  0
 20 21  2  0
 21 22  1  0
 22 23  2  0
 23 24  1  0
 24 25  1  0
 25 26  2  0
 26 27  1  0
 27 28  2  0
 28 29  1  0
 29 30  2  0
 23 31  1  0
 31 32  2  0
 32  2  1  0
 18  5  1  0
 32 20  1  0
 17 12  1  0
 30 25  1  0
  3 33  1  0
  3 34  1  0
  6 35  1  0
  7 36  1  0
  8 37  1  0
 13 38  1  0
 13 39  1  0
 14 40  1  0
 14 41  1  0
 16 42  1  0
 16 43  1  0
 17 44  1  0
 17 45  1  0
 18 46  1  0
 21 47  1  0
 22 48  1  0
 26 49  1  0
 27 50  1  0
 28 51  1  0
 29 52  1  0
 30 53  1  0
 31 54  1  0
M  END
>  <smiles>  (5) 
O=C1CC(c2cccc(C(=O)N3CCOCC3)c2)=Nc2ccc(Oc3ccccc3)cc21

>  <score_type>  (5) 
oracle

>  <origin>  (5) 
autodockgpu

>  <m_score__min__energy>  (5) 
-8.6400000000000006

>  <m_primary>  (5) 
energy

>  <rmsd>  (5) 
6.7164282966518165

>  <m_score__min__rmsd>  (5) 
6.7164282966518165

>  <meeko>  (5) 
{"free_energy": -8.36, "intermolecular_energy": -9.56, "internal_energy": -1.07, "cluster_size": 27, "cluster_id": 1, "rank_in_cluster": 26}

>  <energy>  (5) 
-8.57

>  <cluster_rmsd>  (5) 
0.75

>  <cluster>  (5) 
1

$$$$

     RDKit          3D

 54 58  0  0  0  0  0  0  0  0999 V2000
  143.8390   72.4070  220.7020 O   0  0  0  0  0  0  0  0  0  0  0  0
  142.9640   73.3090  220.6730 C   0  0  0  0  0  0  0  0  0  0  0  0
  143.2940   74.5670  219.9660 C   0  0  0  0  0  0  0  0  0  0  0  0
  142.1380   75.4880  220.0510 C   0  0  0  0  0  0  0  0  0  0  0  0
  142.2630   76.8060  219.4060 C   0  0  0  0  0  0  0  0  0  0  0  0
  142.7980   76.9030  218.1200 C   0  0  0  0  0  0  0  0  0  0  0  0
  142.9290   78.1290  217.4880 C   0  0  0  0  0  0  0  0  0  0  0  0
  142.5140   79.2600  218.1710 C   0  0  0  0  0  0  0  0  0  0  0  0
  141.9860   79.2170  219.4290 C   0  0  0  0  0  0  0  0  0  0  0  0
  141.5370   80.3630  220.1890 C   0  0  0  0  0  0  0  0  0  0  0  0
  140.8420   81.2240  219.5480 O   0  0  0  0  0  0  0  0  0  0  0  0
  141.8250   80.5540  221.5510 N   0  0  0  0  0  0  0  0  0  0  0  0
  142.6010   79.6390  222.3660 C   0  0  0  0  0  0  0  0  0  0  0  0
  141.7920   79.2180  223.5970 C   0  0  0  0  0  0  0  0  0  0  0  0
  140.5440   79.8810  223.5680 O   0  0  0  0  0  0  0  0  0  0  0  0
  140.7810   81.2580  223.5810 C   0  0  0  0  0  0  0  0  0  0  0  0
  141.3230   81.7490  222.2310 C   0  0  0  0  0  0  0  0  0  0  0  0
  141.8650   77.9660  220.0440 C   0  0  0  0  0  0  0  0  0  0  0  0
  141.0360   75.2360  220.6400 N   0  0  0  0  0  0  0  0  0  0  0  0
  140.7170   74.0250  221.3210 C   0  0  0  0  0  0  0  0  0  0  0  0
  139.4850   73.8570  221.9290 C   0  0  0  0  0  0  0  0  0  0  0  0
  139.2280   72.6590  222.5770 C   0  0  0  0  0  0  0  0  0  0  0  0
  140.2050   71.6630  222.6030 C   0  0  0  0  0  0  0  0  0  0  0  0
  139.9820   70.4550  223.2420 O   0  0  0  0  0  0  0  0  0  0  0  0
  140.1940   70.3890  224.6050 C   0  0  0  0  0  0  0  0  0  0  0  0
  140.6790   71.4910  225.2440 C   0  0  0  0  0  0  0  0  0  0  0  0
  140.9200   71.5020  226.6160 C   0  0  0  0  0  0  0  0  0  0  0  0
  140.6650   70.3660  227.3780 C   0  0  0  0  0  0  0  0  0  0  0  0
  140.1680   69.2310  226.7280 C   0  0  0  0  0  0  0  0  0  0  0  0
  139.9360   69.2460  225.3560 C   0  0  0  0  0  0  0  0  0  0  0  0
  141.4290   71.8460  221.9920 C   0  0  0  0  0  0  0  0  0  0  0  0
  141.6950   73.0540  221.3350 C   0  0  0  0  0  0  0  0  0  0  0  0
  144.1723   75.0340  220.4356 H   0  0  0  0  0  0  0  0  0  0  0  0
  143.5191   74.3512  218.9111 H   0  0  0  0  0  0  0  0  0  0  0  0
  143.1213   75.9896  217.5992 H   0  0  0  0  0  0  0  0  0  0  0  0
  143.3499   78.2018  216.4743 H   0  0  0  0  0  0  0  0  0  0  0  0
  142.6145   80.2378  217.6771 H   0  0  0  0  0  0  0  0  0  0  0  0
  142.8527   78.7472  221.7732 H   0  0  0  0  0  0  0  0  0  0  0  0
  143.5228   80.1414  222.6945 H   0  0  0  0  0  0  0  0  0  0  0  0
  141.6333   78.1296  223.5811 H   0  0  0  0  0  0  0  0  0  0  0  0
  142.3376   79.4865  224.5136 H   0  0  0  0  0  0  0  0  0  0  0  0
  139.8381   81.7808  223.7990 H   0  0  0  0  0  0  0  0  0  0  0  0
  141.5348   81.4710  224.3533 H   0  0  0  0  0  0  0  0  0  0  0  0
  140.5204   82.2173  221.6423 H   0  0  0  0  0  0  0  0  0  0  0  0
  142.1109   82.5058  222.3594 H   0  0  0  0  0  0  0  0  0  0  0  0
  141.4436   77.9042  221.0582 H   0  0  0  0  0  0  0  0  0  0  0  0
  138.7283   74.6548  221.8987 H   0  0  0  0  0  0  0  0  0  0  0  0
  138.2579   72.4941  223.0687 H   0  0  0  0  0  0  0  0  0  0  0  0
  140.8863   72.3990  224.6587 H   0  0  0  0  0  0  0  0  0  0  0  0
  141.3124   72.4098  227.0976 H   0  0  0  0  0  0  0  0  0  0  0  0
  140.8492   70.3604  228.4625 H   0  0  0  0  0  0  0  0  0  0  0  0
  139.9589   68.3191  227.3065 H   0  0  0  0  0  0  0  0  0  0  0  0
  139.5448   68.3455  224.8601 H   0  0  0  0  0  0  0  0  0  0  0  0
  142.1884   71.0507  222.0208 H   0  0  0  0  0  0  0  0  0  0  0  0
  1  2  2  0
  2  3  1  0
  3  4  1  0
  4  5  1  0
  5  6  2  0
  6  7  1  0
  7  8  2  0
  8  9  1  0
  9 10  1  0
 10 11  2  0
 10 12  1  0
 12 13  1  0
 13 14  1  0
 14 15  1  0
 15 16  1  0
 16 17  1  0
  9 18  2  0
  4 19  2  0
 19 20  1  0
 20 21  2  0
 21 22  1  0
 22 23  2  0
 23 24  1  0
 24 25  1  0
 25 26  2  0
 26 27  1  0
 27 28  2  0
 28 29  1  0
 29 30  2  0
 23 31  1  0
 31 32  2  0
 32  2  1  0
 18  5  1  0
 32 20  1  0
 17 12  1  0
 30 25  1  0
  3 33  1  0
  3 34  1  0
  6 35  1  0
  7 36  1  0
  8 37  1  0
 13 38  1  0
 13 39  1  0
 14 40  1  0
 14 41  1  0
 16 42  1  0
 16 43  1  0
 17 44  1  0
 17 45  1  0
 18 46  1  0
 21 47  1  0
 22 48  1  0
 26 49  1  0
 27 50  1  0
 28 51  1  0
 29 52  1  0
 30 53  1  0
 31 54  1  0
M  END
>  <smiles>  (6) 
O=C1CC(c2cccc(C(=O)N3CCOCC3)c2)=Nc2ccc(Oc3ccccc3)cc21

>  <score_type>  (6) 
oracle

>  <origin>  (6) 
autodockgpu

>  <m_score__min__energy>  (6) 
-8.6400000000000006

>  <m_primary>  (6) 
energy

>  <rmsd>  (6) 
8.388468380427515

>  <m_score__min__rmsd>  (6) 
8.388468380427515

>  <meeko>  (6) 
{"free_energy": -8.47, "intermolecular_energy": -9.66, "internal_energy": -1.0, "cluster_size": 21, "cluster_id": 2, "rank_in_cluster": 3}

>  <energy>  (6) 
-8.57

>  <cluster_rmsd>  (6) 
0.92

>  <cluster>  (6) 
1

$$$$

     RDKit          3D

 54 58  0  0  0  0  0  0  0  0999 V2000
  142.6570   73.6170  220.6870 O   0  0  0  0  0  0  0  0  0  0  0  0
  141.5160   73.7050  221.2050 C   0  0  0  0  0  0  0  0  0  0  0  0
  140.8200   72.4480  221.5570 C   0  0  0  0  0  0  0  0  0  0  0  0
  139.5010   72.7730  222.1480 C   0  0  0  0  0  0  0  0  0  0  0  0
  138.6440   71.6510  222.5680 C   0  0  0  0  0  0  0  0  0  0  0  0
  137.2950   71.6350  222.2100 C   0  0  0  0  0  0  0  0  0  0  0  0
  136.4640   70.5950  222.5910 C   0  0  0  0  0  0  0  0  0  0  0  0
  137.0110   69.5660  223.3400 C   0  0  0  0  0  0  0  0  0  0  0  0
  138.3230   69.5370  223.7150 C   0  0  0  0  0  0  0  0  0  0  0  0
  138.9490   68.4920  224.4960 C   0  0  0  0  0  0  0  0  0  0  0  0
  138.9940   67.3350  223.9530 O   0  0  0  0  0  0  0  0  0  0  0  0
  139.4870   68.6960  225.7780 N   0  0  0  0  0  0  0  0  0  0  0  0
  139.4880   69.9640  226.4810 C   0  0  0  0  0  0  0  0  0  0  0  0
  140.9180   70.3400  226.8840 C   0  0  0  0  0  0  0  0  0  0  0  0
  141.7910   69.3100  226.4680 O   0  0  0  0  0  0  0  0  0  0  0  0
  141.3970   68.1250  227.0930 C   0  0  0  0  0  0  0  0  0  0  0  0
  140.1000   67.5710  226.4870 C   0  0  0  0  0  0  0  0  0  0  0  0
  139.1400   70.6010  223.3170 C   0  0  0  0  0  0  0  0  0  0  0  0
  139.0410   73.9480  222.3240 N   0  0  0  0  0  0  0  0  0  0  0  0
  139.7110   75.1610  221.9850 C   0  0  0  0  0  0  0  0  0  0  0  0
  139.1170   76.3880  222.2200 C   0  0  0  0  0  0  0  0  0  0  0  0
  139.8130   77.5350  221.8710 C   0  0  0  0  0  0  0  0  0  0  0  0
  141.0810   77.4270  221.2970 C   0  0  0  0  0  0  0  0  0  0  0  0
  141.8040   78.5520  220.9360 O   0  0  0  0  0  0  0  0  0  0  0  0
  141.8980   79.5860  221.8460 C   0  0  0  0  0  0  0  0  0  0  0  0
  142.7660   79.4620  222.8880 C   0  0  0  0  0  0  0  0  0  0  0  0
  142.9160   80.4610  223.8480 C   0  0  0  0  0  0  0  0  0  0  0  0
  142.1670   81.6310  223.7590 C   0  0  0  0  0  0  0  0  0  0  0  0
  141.2740   81.7640  222.6910 C   0  0  0  0  0  0  0  0  0  0  0  0
  141.1430   80.7510  221.7460 C   0  0  0  0  0  0  0  0  0  0  0  0
  141.6600   76.1950  221.0690 C   0  0  0  0  0  0  0  0  0  0  0  0
  140.9620   75.0320  221.4200 C   0  0  0  0  0  0  0  0  0  0  0  0
  140.6781   71.8396  220.6516 H   0  0  0  0  0  0  0  0  0  0  0  0
  141.4220   71.8820  222.2832 H   0  0  0  0  0  0  0  0  0  0  0  0
  136.8845   72.4637  221.6144 H   0  0  0  0  0  0  0  0  0  0  0  0
  135.4012   70.5862  222.3074 H   0  0  0  0  0  0  0  0  0  0  0  0
  136.3586   68.7350  223.6463 H   0  0  0  0  0  0  0  0  0  0  0  0
  139.0777   70.7449  225.8239 H   0  0  0  0  0  0  0  0  0  0  0  0
  138.8698   69.8748  227.3865 H   0  0  0  0  0  0  0  0  0  0  0  0
  141.2029   71.2853  226.3989 H   0  0  0  0  0  0  0  0  0  0  0  0
  140.9794   70.4657  227.9751 H   0  0  0  0  0  0  0  0  0  0  0  0
  142.1945   67.3767  226.9746 H   0  0  0  0  0  0  0  0  0  0  0  0
  141.2154   68.3406  228.1563 H   0  0  0  0  0  0  0  0  0  0  0  0
  140.3219   66.7512  225.7880 H   0  0  0  0  0  0  0  0  0  0  0  0
  139.4313   67.1622  227.2588 H   0  0  0  0  0  0  0  0  0  0  0  0
  140.2011   70.6016  223.6069 H   0  0  0  0  0  0  0  0  0  0  0  0
  138.1166   76.4520  222.6728 H   0  0  0  0  0  0  0  0  0  0  0  0
  139.3682   78.5258  222.0456 H   0  0  0  0  0  0  0  0  0  0  0  0
  143.3673   78.5450  222.9746 H   0  0  0  0  0  0  0  0  0  0  0  0
  143.6266   80.3249  224.6765 H   0  0  0  0  0  0  0  0  0  0  0  0
  142.2746   82.4291  224.5083 H   0  0  0  0  0  0  0  0  0  0  0  0
  140.6694   82.6781  222.5971 H   0  0  0  0  0  0  0  0  0  0  0  0
  140.4360   80.8721  220.9120 H   0  0  0  0  0  0  0  0  0  0  0  0
  142.6601   76.1269  220.6160 H   0  0  0  0  0  0  0  0  0  0  0  0
  1  2  2  0
  2  3  1  0
  3  4  1  0
  4  5  1  0
  5  6  2  0
  6  7  1  0
  7  8  2  0
  8  9  1  0
  9 10  1  0
 10 11  2  0
 10 12  1  0
 12 13  1  0
 13 14  1  0
 14 15  1  0
 15 16  1  0
 16 17  1  0
  9 18  2  0
  4 19  2  0
 19 20  1  0
 20 21  2  0
 21 22  1  0
 22 23  2  0
 23 24  1  0
 24 25  1  0
 25 26  2  0
 26 27  1  0
 27 28  2  0
 28 29  1  0
 29 30  2  0
 23 31  1  0
 31 32  2  0
 32  2  1  0
 18  5  1  0
 32 20  1  0
 17 12  1  0
 30 25  1  0
  3 33  1  0
  3 34  1  0
  6 35  1  0
  7 36  1  0
  8 37  1  0
 13 38  1  0
 13 39  1  0
 14 40  1  0
 14 41  1  0
 16 42  1  0
 16 43  1  0
 17 44  1  0
 17 45  1  0
 18 46  1  0
 21 47  1  0
 22 48  1  0
 26 49  1  0
 27 50  1  0
 28 51  1  0
 29 52  1  0
 30 53  1  0
 31 54  1  0
M  END
>  <smiles>  (7) 
O=C1CC(c2cccc(C(=O)N3CCOCC3)c2)=Nc2ccc(Oc3ccccc3)cc21

>  <score_type>  (7) 
oracle

>  <origin>  (7) 
autodockgpu

>  <m_score__min__energy>  (7) 
-8.6400000000000006

>  <m_primary>  (7) 
energy

>  <rmsd>  (7) 
6.1240721332621515

>  <m_score__min__rmsd>  (7) 
6.1240721332621515

>  <meeko>  (7) 
{"free_energy": -8.53, "intermolecular_energy": -9.72, "internal_energy": -1.12, "cluster_size": 27, "cluster_id": 1, "rank_in_cluster": 10}

>  <energy>  (7) 
-8.56

>  <cluster_rmsd>  (7) 
0.93

>  <cluster>  (7) 
1

$$$$

     RDKit          3D

 54 58  0  0  0  0  0  0  0  0999 V2000
  143.0160   73.7060  220.2460 O   0  0  0  0  0  0  0  0  0  0  0  0
  141.9040   73.6300  220.8260 C   0  0  0  0  0  0  0  0  0  0  0  0
  141.3470   72.2820  221.0740 C   0  0  0  0  0  0  0  0  0  0  0  0
  140.0410   72.4160  221.7600 C   0  0  0  0  0  0  0  0  0  0  0  0
  139.3150   71.1800  222.0980 C   0  0  0  0  0  0  0  0  0  0  0  0
  138.3410   70.6860  221.2300 C   0  0  0  0  0  0  0  0  0  0  0  0
  137.6410   69.5270  221.5200 C   0  0  0  0  0  0  0  0  0  0  0  0
  137.9360   68.8680  222.7030 C   0  0  0  0  0  0  0  0  0  0  0  0
  138.8790   69.3120  223.5840 C   0  0  0  0  0  0  0  0  0  0  0  0
  139.2280   68.6680  224.8320 C   0  0  0  0  0  0  0  0  0  0  0  0
  139.2020   67.3890  224.8310 O   0  0  0  0  0  0  0  0  0  0  0  0
  139.5820   69.3700  225.9970 N   0  0  0  0  0  0  0  0  0  0  0  0
  139.6440   70.8150  226.1030 C   0  0  0  0  0  0  0  0  0  0  0  0
  141.0310   71.2460  226.5920 C   0  0  0  0  0  0  0  0  0  0  0  0
  141.8120   70.0900  226.8170 O   0  0  0  0  0  0  0  0  0  0  0  0
  141.1690   69.3100  227.7810 C   0  0  0  0  0  0  0  0  0  0  0  0
  139.9200   68.6240  227.2100 C   0  0  0  0  0  0  0  0  0  0  0  0
  139.5710   70.4860  223.2650 C   0  0  0  0  0  0  0  0  0  0  0  0
  139.4880   73.5180  222.0840 N   0  0  0  0  0  0  0  0  0  0  0  0
  140.0250   74.8170  221.8460 C   0  0  0  0  0  0  0  0  0  0  0  0
  139.3360   75.9510  222.2400 C   0  0  0  0  0  0  0  0  0  0  0  0
  139.9050   77.1890  221.9830 C   0  0  0  0  0  0  0  0  0  0  0  0
  141.1410   77.2630  221.3400 C   0  0  0  0  0  0  0  0  0  0  0  0
  141.7370   78.4840  221.0680 O   0  0  0  0  0  0  0  0  0  0  0  0
  141.7970   79.4200  222.0810 C   0  0  0  0  0  0  0  0  0  0  0  0
  142.9700   79.5760  222.7560 C   0  0  0  0  0  0  0  0  0  0  0  0
  143.1080   80.4990  223.7910 C   0  0  0  0  0  0  0  0  0  0  0  0
  142.0300   81.2970  224.1630 C   0  0  0  0  0  0  0  0  0  0  0  0
  140.8230   81.1400  223.4730 C   0  0  0  0  0  0  0  0  0  0  0  0
  140.7110   80.2110  222.4440 C   0  0  0  0  0  0  0  0  0  0  0  0
  141.8140   76.1220  220.9520 C   0  0  0  0  0  0  0  0  0  0  0  0
  141.2460   74.8680  221.2090 C   0  0  0  0  0  0  0  0  0  0  0  0
  141.2081   71.7589  220.1164 H   0  0  0  0  0  0  0  0  0  0  0  0
  142.0394   71.7051  221.7047 H   0  0  0  0  0  0  0  0  0  0  0  0
  138.1249   71.2276  220.2973 H   0  0  0  0  0  0  0  0  0  0  0  0
  136.8741   69.1411  220.8323 H   0  0  0  0  0  0  0  0  0  0  0  0
  137.3857   67.9462  222.9425 H   0  0  0  0  0  0  0  0  0  0  0  0
  139.4508   71.2612  225.1163 H   0  0  0  0  0  0  0  0  0  0  0  0
  138.8853   71.1570  226.8223 H   0  0  0  0  0  0  0  0  0  0  0  0
  141.5130   71.8756  225.8296 H   0  0  0  0  0  0  0  0  0  0  0  0
  140.9372   71.8220  227.5244 H   0  0  0  0  0  0  0  0  0  0  0  0
  141.8668   68.5395  228.1406 H   0  0  0  0  0  0  0  0  0  0  0  0
  140.8545   69.9690  228.6037 H   0  0  0  0  0  0  0  0  0  0  0  0
  140.1361   67.5732  226.9670 H   0  0  0  0  0  0  0  0  0  0  0  0
  139.0900   68.6226  227.9319 H   0  0  0  0  0  0  0  0  0  0  0  0
  140.3359   70.8647  223.9590 H   0  0  0  0  0  0  0  0  0  0  0  0
  138.3616   75.8720  222.7443 H   0  0  0  0  0  0  0  0  0  0  0  0
  139.3839   78.1095  222.2849 H   0  0  0  0  0  0  0  0  0  0  0  0
  143.8337   78.9551  222.4758 H   0  0  0  0  0  0  0  0  0  0  0  0
  144.0703   80.5970  224.3147 H   0  0  0  0  0  0  0  0  0  0  0  0
  142.1244   82.0308  224.9770 H   0  0  0  0  0  0  0  0  0  0  0  0
  139.9545   81.7571  223.7469 H   0  0  0  0  0  0  0  0  0  0  0  0
  139.7547   80.1004  221.9119 H   0  0  0  0  0  0  0  0  0  0  0  0
  142.7876   76.1970  220.4455 H   0  0  0  0  0  0  0  0  0  0  0  0
  1  2  2  0
  2  3  1  0
  3  4  1  0
  4  5  1  0
  5  6  2  0
  6  7  1  0
  7  8  2  0
  8  9  1  0
  9 10  1  0
 10 11  2  0
 10 12  1  0
 12 13  1  0
 13 14  1  0
 14 15  1  0
 15 16  1  0
 16 17  1  0
  9 18  2  0
  4 19  2  0
 19 20  1  0
 20 21  2  0
 21 22  1  0
 22 23  2  0
 23 24  1  0
 24 25  1  0
 25 26  2  0
 26 27  1  0
 27 28  2  0
 28 29  1  0
 29 30  2  0
 23 31  1  0
 31 32  2  0
 32  2  1  0
 18  5  1  0
 32 20  1  0
 17 12  1  0
 30 25  1  0
  3 33  1  0
  3 34  1  0
  6 35  1  0
  7 36  1  0
  8 37  1  0
 13 38  1  0
 13 39  1  0
 14 40  1  0
 14 41  1  0
 16 42  1  0
 16 43  1  0
 17 44  1  0
 17 45  1  0
 18 46  1  0
 21 47  1  0
 22 48  1  0
 26 49  1  0
 27 50  1  0
 28 51  1  0
 29 52  1  0
 30 53  1  0
 31 54  1  0
M  END
>  <smiles>  (8) 
O=C1CC(c2cccc(C(=O)N3CCOCC3)c2)=Nc2ccc(Oc3ccccc3)cc21

>  <score_type>  (8) 
oracle

>  <origin>  (8) 
autodockgpu

>  <m_score__min__energy>  (8) 
-8.6400000000000006

>  <m_primary>  (8) 
energy

>  <rmsd>  (8) 
6.04367792895279

>  <m_score__min__rmsd>  (8) 
6.04367792895279

>  <meeko>  (8) 
{"free_energy": -8.64, "intermolecular_energy": -9.83, "internal_energy": -0.83, "cluster_size": 27, "cluster_id": 1, "rank_in_cluster": 1}

>  <energy>  (8) 
-8.55

>  <cluster_rmsd>  (8) 
0.93

>  <cluster>  (8) 
1

$$$$

     RDKit          3D

 54 58  0  0  0  0  0  0  0  0999 V2000
  142.8610   73.5860  219.9560 O   0  0  0  0  0  0  0  0  0  0  0  0
  141.8060   73.5450  220.6360 C   0  0  0  0  0  0  0  0  0  0  0  0
  141.2060   72.2180  220.8990 C   0  0  0  0  0  0  0  0  0  0  0  0
  139.9790   72.3930  221.7090 C   0  0  0  0  0  0  0  0  0  0  0  0
  139.2260   71.1840  222.0800 C   0  0  0  0  0  0  0  0  0  0  0  0
  138.1870   70.7340  221.2640 C   0  0  0  0  0  0  0  0  0  0  0  0
  137.4600   69.6000  221.5870 C   0  0  0  0  0  0  0  0  0  0  0  0
  137.7940   68.9220  222.7470 C   0  0  0  0  0  0  0  0  0  0  0  0
  138.8000   69.3220  223.5780 C   0  0  0  0  0  0  0  0  0  0  0  0
  139.1930   68.6550  224.8010 C   0  0  0  0  0  0  0  0  0  0  0  0
  139.2060   67.3770  224.7640 O   0  0  0  0  0  0  0  0  0  0  0  0
  139.5460   69.3360  225.9780 N   0  0  0  0  0  0  0  0  0  0  0  0
  139.5650   70.7780  226.1230 C   0  0  0  0  0  0  0  0  0  0  0  0
  140.9460   71.2400  226.6000 C   0  0  0  0  0  0  0  0  0  0  0  0
  141.7670   70.1030  226.7780 O   0  0  0  0  0  0  0  0  0  0  0  0
  141.1670   69.2780  227.7310 C   0  0  0  0  0  0  0  0  0  0  0  0
  139.9290   68.5680  227.1640 C   0  0  0  0  0  0  0  0  0  0  0  0
  139.5190   70.4710  223.2280 C   0  0  0  0  0  0  0  0  0  0  0  0
  139.5160   73.5090  222.1150 N   0  0  0  0  0  0  0  0  0  0  0  0
  140.0940   74.7880  221.8640 C   0  0  0  0  0  0  0  0  0  0  0  0
  139.5050   75.9410  222.3540 C   0  0  0  0  0  0  0  0  0  0  0  0
  140.1090   77.1570  222.0780 C   0  0  0  0  0  0  0  0  0  0  0  0
  141.2820   77.1930  221.3230 C   0  0  0  0  0  0  0  0  0  0  0  0
  141.9110   78.3910  221.0290 O   0  0  0  0  0  0  0  0  0  0  0  0
  141.8830   79.3920  221.9800 C   0  0  0  0  0  0  0  0  0  0  0  0
  142.9140   79.4790  222.8660 C   0  0  0  0  0  0  0  0  0  0  0  0
  142.9570   80.4600  223.8550 C   0  0  0  0  0  0  0  0  0  0  0  0
  141.9270   81.3900  223.9590 C   0  0  0  0  0  0  0  0  0  0  0  0
  140.8650   81.3050  223.0530 C   0  0  0  0  0  0  0  0  0  0  0  0
  140.8470   80.3160  222.0740 C   0  0  0  0  0  0  0  0  0  0  0  0
  141.8560   76.0340  220.8410 C   0  0  0  0  0  0  0  0  0  0  0  0
  141.2520   74.8010  221.1150 C   0  0  0  0  0  0  0  0  0  0  0  0
  140.9515   71.7332  219.9450 H   0  0  0  0  0  0  0  0  0  0  0  0
  141.9239   71.5884  221.4451 H   0  0  0  0  0  0  0  0  0  0  0  0
  137.9409   71.2901  220.3474 H   0  0  0  0  0  0  0  0  0  0  0  0
  136.6418   69.2487  220.9412 H   0  0  0  0  0  0  0  0  0  0  0  0
  137.2225   68.0199  223.0108 H   0  0  0  0  0  0  0  0  0  0  0  0
  139.3403   71.2444  225.1525 H   0  0  0  0  0  0  0  0  0  0  0  0
  138.8092   71.0757  226.8647 H   0  0  0  0  0  0  0  0  0  0  0  0
  141.3939   71.9060  225.8478 H   0  0  0  0  0  0  0  0  0  0  0  0
  140.8513   71.7867  227.5498 H   0  0  0  0  0  0  0  0  0  0  0  0
  141.8951   68.5206  228.0568 H   0  0  0  0  0  0  0  0  0  0  0  0
  140.8474   69.9046  228.5767 H   0  0  0  0  0  0  0  0  0  0  0  0
  140.1730   67.5314  226.8884 H   0  0  0  0  0  0  0  0  0  0  0  0
  139.1131   68.5205  227.9002 H   0  0  0  0  0  0  0  0  0  0  0  0
  140.3352   70.8143  223.8807 H   0  0  0  0  0  0  0  0  0  0  0  0
  138.5803   75.8929  222.9478 H   0  0  0  0  0  0  0  0  0  0  0  0
  139.6653   78.0911  222.4529 H   0  0  0  0  0  0  0  0  0  0  0  0
  143.7376   78.7529  222.7988 H   0  0  0  0  0  0  0  0  0  0  0  0
  143.8056   80.4992  224.5538 H   0  0  0  0  0  0  0  0  0  0  0  0
  141.9476   82.1712  224.7332 H   0  0  0  0  0  0  0  0  0  0  0  0
  140.0367   82.0262  223.1147 H   0  0  0  0  0  0  0  0  0  0  0  0
  140.0054   80.2643  221.3676 H   0  0  0  0  0  0  0  0  0  0  0  0
  142.7804   76.0787  220.2465 H   0  0  0  0  0  0  0  0  0  0  0  0
  1  2  2  0
  2  3  1  0
  3  4  1  0
  4  5  1  0
  5  6  2  0
  6  7  1  0
  7  8  2  0
  8  9  1  0
  9 10  1  0
 10 11  2  0
 10 12  1  0
 12 13  1  0
 13 14  1  0
 14 15  1  0
 15 16  1  0
 16 17  1  0
  9 18  2  0
  4 19  2  0
 19 20  1  0
 20 21  2  0
 21 22  1  0
 22 23  2  0
 23 24  1  0
 24 25  1  0
 25 26  2  0
 26 27  1  0
 27 28  2  0
 28 29  1  0
 29 30  2  0
 23 31  1  0
 31 32  2  0
 32  2  1  0
 18  5  1  0
 32 20  1  0
 17 12  1  0
 30 25  1  0
  3 33  1  0
  3 34  1  0
  6 35  1  0
  7 36  1  0
  8 37  1  0
 13 38  1  0
 13 39  1  0
 14 40  1  0
 14 41  1  0
 16 42  1  0
 16 43  1  0
 17 44  1  0
 17 45  1  0
 18 46  1  0
 21 47  1  0
 22 48  1  0
 26 49  1  0
 27 50  1  0
 28 51  1  0
 29 52  1  0
 30 53  1  0
 31 54  1  0
M  END
>  <smiles>  (9) 
O=C1CC(c2cccc(C(=O)N3CCOCC3)c2)=Nc2ccc(Oc3ccccc3)cc21

>  <score_type>  (9) 
oracle

>  <origin>  (9) 
autodockgpu

>  <m_score__min__energy>  (9) 
-8.6400000000000006

>  <m_primary>  (9) 
energy

>  <rmsd>  (9) 
6.072879424885869

>  <m_score__min__rmsd>  (9) 
6.072879424885869

>  <meeko>  (9) 
{"free_energy": -8.54, "intermolecular_energy": -9.73, "internal_energy": -0.92, "cluster_size": 27, "cluster_id": 1, "rank_in_cluster": 9}

>  <energy>  (9) 
-8.54

>  <cluster_rmsd>  (9) 
0.18

>  <cluster>  (9) 
1

$$$$

     RDKit          3D

 54 58  0  0  0  0  0  0  0  0999 V2000
  142.6830   73.4730  220.6900 O   0  0  0  0  0  0  0  0  0  0  0  0
  141.5430   73.5740  221.2070 C   0  0  0  0  0  0  0  0  0  0  0  0
  140.8440   72.3250  221.5840 C   0  0  0  0  0  0  0  0  0  0  0  0
  139.5270   72.6650  222.1690 C   0  0  0  0  0  0  0  0  0  0  0  0
  138.6680   71.5530  222.6120 C   0  0  0  0  0  0  0  0  0  0  0  0
  137.3090   71.5560  222.2940 C   0  0  0  0  0  0  0  0  0  0  0  0
  136.4750   70.5260  222.6970 C   0  0  0  0  0  0  0  0  0  0  0  0
  137.0310   69.4870  223.4260 C   0  0  0  0  0  0  0  0  0  0  0  0
  138.3530   69.4400  223.7620 C   0  0  0  0  0  0  0  0  0  0  0  0
  138.9870   68.3840  224.5220 C   0  0  0  0  0  0  0  0  0  0  0  0
  139.1940   67.2890  223.8950 O   0  0  0  0  0  0  0  0  0  0  0  0
  139.3680   68.5160  225.8680 N   0  0  0  0  0  0  0  0  0  0  0  0
  139.1800   69.7120  226.6650 C   0  0  0  0  0  0  0  0  0  0  0  0
  140.5200   70.1670  227.2540 C   0  0  0  0  0  0  0  0  0  0  0  0
  141.5220   69.2540  226.8560 O   0  0  0  0  0  0  0  0  0  0  0  0
  141.1760   67.9890  227.3370 C   0  0  0  0  0  0  0  0  0  0  0  0
  140.0050   67.3870  226.5480 C   0  0  0  0  0  0  0  0  0  0  0  0
  139.1720   70.4940  223.3420 C   0  0  0  0  0  0  0  0  0  0  0  0
  139.0690   73.8440  222.3220 N   0  0  0  0  0  0  0  0  0  0  0  0
  139.7420   75.0480  221.9590 C   0  0  0  0  0  0  0  0  0  0  0  0
  139.1500   76.2810  222.1700 C   0  0  0  0  0  0  0  0  0  0  0  0
  139.8480   77.4190  221.7980 C   0  0  0  0  0  0  0  0  0  0  0  0
  141.1160   77.2980  221.2260 C   0  0  0  0  0  0  0  0  0  0  0  0
  141.8410   78.4140  220.8430 O   0  0  0  0  0  0  0  0  0  0  0  0
  141.9320   79.4670  221.7300 C   0  0  0  0  0  0  0  0  0  0  0  0
  141.4050   80.6710  221.3700 C   0  0  0  0  0  0  0  0  0  0  0  0
  141.4590   81.7810  222.2100 C   0  0  0  0  0  0  0  0  0  0  0  0
  142.0650   81.6810  223.4590 C   0  0  0  0  0  0  0  0  0  0  0  0
  142.6090   80.4490  223.8340 C   0  0  0  0  0  0  0  0  0  0  0  0
  142.5410   79.3550  222.9760 C   0  0  0  0  0  0  0  0  0  0  0  0
  141.6920   76.0600  221.0220 C   0  0  0  0  0  0  0  0  0  0  0  0
  140.9920   74.9060  221.3960 C   0  0  0  0  0  0  0  0  0  0  0  0
  140.6999   71.6994  220.6908 H   0  0  0  0  0  0  0  0  0  0  0  0
  141.4451   71.7715  222.3205 H   0  0  0  0  0  0  0  0  0  0  0  0
  136.8925   72.3918  221.7126 H   0  0  0  0  0  0  0  0  0  0  0  0
  135.4041   70.5327  222.4460 H   0  0  0  0  0  0  0  0  0  0  0  0
  136.3775   68.6630  223.7484 H   0  0  0  0  0  0  0  0  0  0  0  0
  138.7710   70.5119  226.0303 H   0  0  0  0  0  0  0  0  0  0  0  0
  138.4814   69.4922  227.4858 H   0  0  0  0  0  0  0  0  0  0  0  0
  140.7660   71.1724  226.8815 H   0  0  0  0  0  0  0  0  0  0  0  0
  140.4559   70.1988  228.3517 H   0  0  0  0  0  0  0  0  0  0  0  0
  142.0467   67.3226  227.2483 H   0  0  0  0  0  0  0  0  0  0  0  0
  140.8668   68.0924  228.3876 H   0  0  0  0  0  0  0  0  0  0  0  0
  140.3724   66.6544  225.8144 H   0  0  0  0  0  0  0  0  0  0  0  0
  139.3002   66.8572  227.2057 H   0  0  0  0  0  0  0  0  0  0  0  0
  140.2415   70.4790  223.5990 H   0  0  0  0  0  0  0  0  0  0  0  0
  138.1499   76.3559  222.6219 H   0  0  0  0  0  0  0  0  0  0  0  0
  139.4048   78.4138  221.9528 H   0  0  0  0  0  0  0  0  0  0  0  0
  140.9224   80.7694  220.3864 H   0  0  0  0  0  0  0  0  0  0  0  0
  141.0224   82.7372  221.8860 H   0  0  0  0  0  0  0  0  0  0  0  0
  142.1146   82.5486  224.1334 H   0  0  0  0  0  0  0  0  0  0  0  0
  143.0948   80.3432  224.8152 H   0  0  0  0  0  0  0  0  0  0  0  0
  142.9731   78.3922  223.2862 H   0  0  0  0  0  0  0  0  0  0  0  0
  142.6916   75.9807  220.5698 H   0  0  0  0  0  0  0  0  0  0  0  0
  1  2  2  0
  2  3  1  0
  3  4  1  0
  4  5  1  0
  5  6  2  0
  6  7  1  0
  7  8  2  0
  8  9  1  0
  9 10  1  0
 10 11  2  0
 10 12  1  0
 12 13  1  0
 13 14  1  0
 14 15  1  0
 15 16  1  0
 16 17  1  0
  9 18  2  0
  4 19  2  0
 19 20  1  0
 20 21  2  0
 21 22  1  0
 22 23  2  0
 23 24  1  0
 24 25  1  0
 25 26  2  0
 26 27  1  0
 27 28  2  0
 28 29  1  0
 29 30  2  0
 23 31  1  0
 31 32  2  0
 32  2  1  0
 18  5  1  0
 32 20  1  0
 17 12  1  0
 30 25  1  0
  3 33  1  0
  3 34  1  0
  6 35  1  0
  7 36  1  0
  8 37  1  0
 13 38  1  0
 13 39  1  0
 14 40  1  0
 14 41  1  0
 16 42  1  0
 16 43  1  0
 17 44  1  0
 17 45  1  0
 18 46  1  0
 21 47  1  0
 22 48  1  0
 26 49  1  0
 27 50  1  0
 28 51  1  0
 29 52  1  0
 30 53  1  0
 31 54  1  0
M  END
>  <smiles>  (10) 
O=C1CC(c2cccc(C(=O)N3CCOCC3)c2)=Nc2ccc(Oc3ccccc3)cc21

>  <score_type>  (10) 
oracle

>  <origin>  (10) 
autodockgpu

>  <m_score__min__energy>  (10) 
-8.6400000000000006

>  <m_primary>  (10) 
energy

>  <rmsd>  (10) 
6.162983548204364

>  <m_score__min__rmsd>  (10) 
6.162983548204364

>  <meeko>  (10) 
{"free_energy": -8.56, "intermolecular_energy": -9.75, "internal_energy": -1.13, "cluster_size": 27, "cluster_id": 1, "rank_in_cluster": 7}

>  <energy>  (10) 
-8.53

>  <cluster_rmsd>  (10) 
0.85

>  <cluster>  (10) 
1

$$$$

     RDKit          3D

 54 58  0  0  0  0  0  0  0  0999 V2000
  143.7900   72.3590  220.6440 O   0  0  0  0  0  0  0  0  0  0  0  0
  142.9280   73.2730  220.6340 C   0  0  0  0  0  0  0  0  0  0  0  0
  143.2630   74.5300  219.9280 C   0  0  0  0  0  0  0  0  0  0  0  0
  142.1220   75.4670  220.0380 C   0  0  0  0  0  0  0  0  0  0  0  0
  142.2560   76.7870  219.3990 C   0  0  0  0  0  0  0  0  0  0  0  0
  142.8290   76.8900  218.1300 C   0  0  0  0  0  0  0  0  0  0  0  0
  142.9690   78.1170  217.5030 C   0  0  0  0  0  0  0  0  0  0  0  0
  142.5220   79.2440  218.1730 C   0  0  0  0  0  0  0  0  0  0  0  0
  141.9550   79.1950  219.4140 C   0  0  0  0  0  0  0  0  0  0  0  0
  141.4720   80.3360  220.1600 C   0  0  0  0  0  0  0  0  0  0  0  0
  140.7500   81.1680  219.5100 O   0  0  0  0  0  0  0  0  0  0  0  0
  141.7550   80.5520  221.5200 N   0  0  0  0  0  0  0  0  0  0  0  0
  142.5590   79.6730  222.3450 C   0  0  0  0  0  0  0  0  0  0  0  0
  141.7640   79.2420  223.5830 C   0  0  0  0  0  0  0  0  0  0  0  0
  140.4960   79.8670  223.5460 O   0  0  0  0  0  0  0  0  0  0  0  0
  140.6910   81.2490  223.5410 C   0  0  0  0  0  0  0  0  0  0  0  0
  141.2170   81.7400  222.1850 C   0  0  0  0  0  0  0  0  0  0  0  0
  141.8260   77.9420  220.0240 C   0  0  0  0  0  0  0  0  0  0  0  0
  141.0270   75.2280  220.6450 N   0  0  0  0  0  0  0  0  0  0  0  0
  140.7030   74.0170  221.3250 C   0  0  0  0  0  0  0  0  0  0  0  0
  139.4790   73.8640  221.9540 C   0  0  0  0  0  0  0  0  0  0  0  0
  139.2170   72.6660  222.6000 C   0  0  0  0  0  0  0  0  0  0  0  0
  140.1800   71.6550  222.6040 C   0  0  0  0  0  0  0  0  0  0  0  0
  139.9500   70.4470  223.2400 O   0  0  0  0  0  0  0  0  0  0  0  0
  140.1680   70.3760  224.6010 C   0  0  0  0  0  0  0  0  0  0  0  0
  140.6480   71.4770  225.2440 C   0  0  0  0  0  0  0  0  0  0  0  0
  140.8950   71.4830  226.6150 C   0  0  0  0  0  0  0  0  0  0  0  0
  140.6500   70.3410  227.3720 C   0  0  0  0  0  0  0  0  0  0  0  0
  140.1580   69.2070  226.7180 C   0  0  0  0  0  0  0  0  0  0  0  0
  139.9200   69.2270  225.3470 C   0  0  0  0  0  0  0  0  0  0  0  0
  141.3950   71.8250  221.9720 C   0  0  0  0  0  0  0  0  0  0  0  0
  141.6670   73.0320  221.3170 C   0  0  0  0  0  0  0  0  0  0  0  0
  144.1560   74.9820  220.3844 H   0  0  0  0  0  0  0  0  0  0  0  0
  143.4662   74.3167  218.8682 H   0  0  0  0  0  0  0  0  0  0  0  0
  143.1757   75.9798  217.6187 H   0  0  0  0  0  0  0  0  0  0  0  0
  143.4214   78.1942  216.5033 H   0  0  0  0  0  0  0  0  0  0  0  0
  142.6287   80.2230  217.6829 H   0  0  0  0  0  0  0  0  0  0  0  0
  142.8382   78.7822  221.7633 H   0  0  0  0  0  0  0  0  0  0  0  0
  143.4647   80.2083  222.6662 H   0  0  0  0  0  0  0  0  0  0  0  0
  141.6385   78.1492  223.5807 H   0  0  0  0  0  0  0  0  0  0  0  0
  142.3017   79.5374  224.4960 H   0  0  0  0  0  0  0  0  0  0  0  0
  139.7327   81.7456  223.7533 H   0  0  0  0  0  0  0  0  0  0  0  0
  141.4389   81.4940  224.3096 H   0  0  0  0  0  0  0  0  0  0  0  0
  140.4003   82.1762  221.5911 H   0  0  0  0  0  0  0  0  0  0  0  0
  141.9811   82.5225  222.3030 H   0  0  0  0  0  0  0  0  0  0  0  0
  141.3720   77.8751  221.0237 H   0  0  0  0  0  0  0  0  0  0  0  0
  138.7335   74.6727  221.9413 H   0  0  0  0  0  0  0  0  0  0  0  0
  138.2535   72.5122  223.1079 H   0  0  0  0  0  0  0  0  0  0  0  0
  140.8467   72.3894  224.6626 H   0  0  0  0  0  0  0  0  0  0  0  0
  141.2839   72.3907  227.0995 H   0  0  0  0  0  0  0  0  0  0  0  0
  140.8383   70.3307  228.4557 H   0  0  0  0  0  0  0  0  0  0  0  0
  139.9573   68.2907  227.2926 H   0  0  0  0  0  0  0  0  0  0  0  0
  139.5323   68.3266  224.8481 H   0  0  0  0  0  0  0  0  0  0  0  0
  142.1434   71.0189  221.9828 H   0  0  0  0  0  0  0  0  0  0  0  0
  1  2  2  0
  2  3  1  0
  3  4  1  0
  4  5  1  0
  5  6  2  0
  6  7  1  0
  7  8  2  0
  8  9  1  0
  9 10  1  0
 10 11  2  0
 10 12  1  0
 12 13  1  0
 13 14  1  0
 14 15  1  0
 15 16  1  0
 16 17  1  0
  9 18  2  0
  4 19  2  0
 19 20  1  0
 20 21  2  0
 21 22  1  0
 22 23  2  0
 23 24  1  0
 24 25  1  0
 25 26  2  0
 26 27  1  0
 27 28  2  0
 28 29  1  0
 29 30  2  0
 23 31  1  0
 31 32  2  0
 32  2  1  0
 18  5  1  0
 32 20  1  0
 17 12  1  0
 30 25  1  0
  3 33  1  0
  3 34  1  0
  6 35  1  0
  7 36  1  0
  8 37  1  0
 13 38  1  0
 13 39  1  0
 14 40  1  0
 14 41  1  0
 16 42  1  0
 16 43  1  0
 17 44  1  0
 17 45  1  0
 18 46  1  0
 21 47  1  0
 22 48  1  0
 26 49  1  0
 27 50  1  0
 28 51  1  0
 29 52  1  0
 30 53  1  0
 31 54  1  0
M  END
>  <smiles>  (11) 
O=C1CC(c2cccc(C(=O)N3CCOCC3)c2)=Nc2ccc(Oc3ccccc3)cc21

>  <score_type>  (11) 
oracle

>  <origin>  (11) 
autodockgpu

>  <m_score__min__energy>  (11) 
-8.6400000000000006

>  <m_primary>  (11) 
energy

>  <rmsd>  (11) 
8.37454472724955

>  <m_score__min__rmsd>  (11) 
8.37454472724955

>  <meeko>  (11) 
{"free_energy": -8.44, "intermolecular_energy": -9.63, "internal_energy": -1.02, "cluster_size": 21, "cluster_id": 2, "rank_in_cluster": 15}

>  <energy>  (11) 
-8.51

>  <cluster_rmsd>  (11) 
0.58

>  <cluster>  (11) 
1

$$$$

     RDKit          3D

 54 58  0  0  0  0  0  0  0  0999 V2000
  143.8380   72.3920  220.6630 O   0  0  0  0  0  0  0  0  0  0  0  0
  142.9680   73.2990  220.6450 C   0  0  0  0  0  0  0  0  0  0  0  0
  143.2990   74.5580  219.9430 C   0  0  0  0  0  0  0  0  0  0  0  0
  142.1480   75.4850  220.0420 C   0  0  0  0  0  0  0  0  0  0  0  0
  142.2760   76.8060  219.4040 C   0  0  0  0  0  0  0  0  0  0  0  0
  142.8160   76.9100  218.1210 C   0  0  0  0  0  0  0  0  0  0  0  0
  142.9490   78.1380  217.4950 C   0  0  0  0  0  0  0  0  0  0  0  0
  142.5300   79.2660  218.1810 C   0  0  0  0  0  0  0  0  0  0  0  0
  141.9970   79.2170  219.4360 C   0  0  0  0  0  0  0  0  0  0  0  0
  141.5440   80.3600  220.2000 C   0  0  0  0  0  0  0  0  0  0  0  0
  140.8490   81.2220  219.5610 O   0  0  0  0  0  0  0  0  0  0  0  0
  141.8290   80.5460  221.5630 N   0  0  0  0  0  0  0  0  0  0  0  0
  142.6050   79.6300  222.3770 C   0  0  0  0  0  0  0  0  0  0  0  0
  141.7930   79.2030  223.6050 C   0  0  0  0  0  0  0  0  0  0  0  0
  140.5440   79.8640  223.5740 O   0  0  0  0  0  0  0  0  0  0  0  0
  140.7790   81.2400  223.5930 C   0  0  0  0  0  0  0  0  0  0  0  0
  141.3230   81.7380  222.2460 C   0  0  0  0  0  0  0  0  0  0  0  0
  141.8740   77.9630  220.0450 C   0  0  0  0  0  0  0  0  0  0  0  0
  141.0500   75.2360  220.6390 N   0  0  0  0  0  0  0  0  0  0  0  0
  140.7300   74.0230  221.3150 C   0  0  0  0  0  0  0  0  0  0  0  0
  139.5020   73.8580  221.9320 C   0  0  0  0  0  0  0  0  0  0  0  0
  139.2440   72.6580  222.5760 C   0  0  0  0  0  0  0  0  0  0  0  0
  140.2160   71.6560  222.5890 C   0  0  0  0  0  0  0  0  0  0  0  0
  139.9910   70.4460  223.2230 O   0  0  0  0  0  0  0  0  0  0  0  0
  140.1790   70.3810  224.5890 C   0  0  0  0  0  0  0  0  0  0  0  0
  139.8160   69.2440  225.2450 C   0  0  0  0  0  0  0  0  0  0  0  0
  139.9720   69.1040  226.6220 C   0  0  0  0  0  0  0  0  0  0  0  0
  140.5150   70.1440  227.3720 C   0  0  0  0  0  0  0  0  0  0  0  0
  140.8890   71.3150  226.7040 C   0  0  0  0  0  0  0  0  0  0  0  0
  140.7210   71.4290  225.3270 C   0  0  0  0  0  0  0  0  0  0  0  0
  141.4360   71.8370  221.9690 C   0  0  0  0  0  0  0  0  0  0  0  0
  141.7030   73.0470  221.3160 C   0  0  0  0  0  0  0  0  0  0  0  0
  144.1833   75.0177  220.4084 H   0  0  0  0  0  0  0  0  0  0  0  0
  143.5149   74.3469  218.8853 H   0  0  0  0  0  0  0  0  0  0  0  0
  143.1420   75.9993  217.5973 H   0  0  0  0  0  0  0  0  0  0  0  0
  143.3745   78.2153  216.4836 H   0  0  0  0  0  0  0  0  0  0  0  0
  142.6316   80.2459  217.6917 H   0  0  0  0  0  0  0  0  0  0  0  0
  142.8603   78.7408  221.7820 H   0  0  0  0  0  0  0  0  0  0  0  0
  143.5249   80.1332  222.7096 H   0  0  0  0  0  0  0  0  0  0  0  0
  141.6364   78.1144  223.5851 H   0  0  0  0  0  0  0  0  0  0  0  0
  142.3354   79.4690  224.5243 H   0  0  0  0  0  0  0  0  0  0  0  0
  139.8350   81.7606  223.8115 H   0  0  0  0  0  0  0  0  0  0  0  0
  141.5313   81.4504  224.3675 H   0  0  0  0  0  0  0  0  0  0  0  0
  140.5208   82.2069  221.6572 H   0  0  0  0  0  0  0  0  0  0  0  0
  142.1087   82.4964  222.3787 H   0  0  0  0  0  0  0  0  0  0  0  0
  141.4477   77.8964  221.0568 H   0  0  0  0  0  0  0  0  0  0  0  0
  138.7491   74.6597  221.9118 H   0  0  0  0  0  0  0  0  0  0  0  0
  138.2771   72.4958  223.0749 H   0  0  0  0  0  0  0  0  0  0  0  0
  139.3864   68.4107  224.6697 H   0  0  0  0  0  0  0  0  0  0  0  0
  139.6659   68.1708  227.1175 H   0  0  0  0  0  0  0  0  0  0  0  0
  140.6463   70.0475  228.4599 H   0  0  0  0  0  0  0  0  0  0  0  0
  141.3196   72.1529  227.2719 H   0  0  0  0  0  0  0  0  0  0  0  0
  141.0196   72.3568  224.8170 H   0  0  0  0  0  0  0  0  0  0  0  0
  142.1918   71.0380  221.9876 H   0  0  0  0  0  0  0  0  0  0  0  0
  1  2  2  0
  2  3  1  0
  3  4  1  0
  4  5  1  0
  5  6  2  0
  6  7  1  0
  7  8  2  0
  8  9  1  0
  9 10  1  0
 10 11  2  0
 10 12  1  0
 12 13  1  0
 13 14  1  0
 14 15  1  0
 15 16  1  0
 16 17  1  0
  9 18  2  0
  4 19  2  0
 19 20  1  0
 20 21  2  0
 21 22  1  0
 22 23  2  0
 23 24  1  0
 24 25  1  0
 25 26  2  0
 26 27  1  0
 27 28  2  0
 28 29  1  0
 29 30  2  0
 23 31  1  0
 31 32  2  0
 32  2  1  0
 18  5  1  0
 32 20  1  0
 17 12  1  0
 30 25  1  0
  3 33  1  0
  3 34  1  0
  6 35  1  0
  7 36  1  0
  8 37  1  0
 13 38  1  0
 13 39  1  0
 14 40  1  0
 14 41  1  0
 16 42  1  0
 16 43  1  0
 17 44  1  0
 17 45  1  0
 18 46  1  0
 21 47  1  0
 22 48  1  0
 26 49  1  0
 27 50  1  0
 28 51  1  0
 29 52  1  0
 30 53  1  0
 31 54  1  0
M  END
>  <smiles>  (12) 
O=C1CC(c2cccc(C(=O)N3CCOCC3)c2)=Nc2ccc(Oc3ccccc3)cc21

>  <score_type>  (12) 
oracle

>  <origin>  (12) 
autodockgpu

>  <m_score__min__energy>  (12) 
-8.6400000000000006

>  <m_primary>  (12) 
energy

>  <rmsd>  (12) 
8.392642762506672

>  <m_score__min__rmsd>  (12) 
8.392642762506672

>  <meeko>  (12) 
{"free_energy": -8.45, "intermolecular_energy": -9.64, "internal_energy": -1.02, "cluster_size": 21, "cluster_id": 2, "rank_in_cluster": 13}

>  <energy>  (12) 
-8.51

>  <cluster_rmsd>  (12) 
0.64

>  <cluster>  (12) 
1

$$$$

     RDKit          3D

 54 58  0  0  0  0  0  0  0  0999 V2000
  142.6740   73.5980  220.1620 O   0  0  0  0  0  0  0  0  0  0  0  0
  141.6000   73.6550  220.8120 C   0  0  0  0  0  0  0  0  0  0  0  0
  140.9110   72.3820  221.1170 C   0  0  0  0  0  0  0  0  0  0  0  0
  139.6760   72.6700  221.8810 C   0  0  0  0  0  0  0  0  0  0  0  0
  138.8390   71.5280  222.2850 C   0  0  0  0  0  0  0  0  0  0  0  0
  137.5700   71.3640  221.7270 C   0  0  0  0  0  0  0  0  0  0  0  0
  136.7590   70.3000  222.0870 C   0  0  0  0  0  0  0  0  0  0  0  0
  137.2440   69.4000  223.0220 C   0  0  0  0  0  0  0  0  0  0  0  0
  138.4770   69.5180  223.5970 C   0  0  0  0  0  0  0  0  0  0  0  0
  139.0350   68.6120  224.5770 C   0  0  0  0  0  0  0  0  0  0  0  0
  139.0570   67.3760  224.2490 O   0  0  0  0  0  0  0  0  0  0  0  0
  139.5330   69.0260  225.8240 N   0  0  0  0  0  0  0  0  0  0  0  0
  139.5550   70.3990  226.2890 C   0  0  0  0  0  0  0  0  0  0  0  0
  140.9820   70.7980  226.6800 C   0  0  0  0  0  0  0  0  0  0  0  0
  141.8310   69.6850  226.4900 O   0  0  0  0  0  0  0  0  0  0  0  0
  141.3720   68.6430  227.2990 C   0  0  0  0  0  0  0  0  0  0  0  0
  140.0780   68.0290  226.7460 C   0  0  0  0  0  0  0  0  0  0  0  0
  139.2750   70.6020  223.2140 C   0  0  0  0  0  0  0  0  0  0  0  0
  139.2720   73.8310  222.2200 N   0  0  0  0  0  0  0  0  0  0  0  0
  139.9360   75.0580  221.9270 C   0  0  0  0  0  0  0  0  0  0  0  0
  139.4060   76.2670  222.3440 C   0  0  0  0  0  0  0  0  0  0  0  0
  140.0930   77.4300  222.0310 C   0  0  0  0  0  0  0  0  0  0  0  0
  141.2860   77.3570  221.3100 C   0  0  0  0  0  0  0  0  0  0  0  0
  141.9970   78.4990  220.9800 O   0  0  0  0  0  0  0  0  0  0  0  0
  142.0150   79.5390  221.8870 C   0  0  0  0  0  0  0  0  0  0  0  0
  142.9040   79.4920  222.9170 C   0  0  0  0  0  0  0  0  0  0  0  0
  142.9830   80.5030  223.8730 C   0  0  0  0  0  0  0  0  0  0  0  0
  142.1370   81.6050  223.7920 C   0  0  0  0  0  0  0  0  0  0  0  0
  141.2210   81.6600  222.7360 C   0  0  0  0  0  0  0  0  0  0  0  0
  141.1640   80.6370  221.7950 C   0  0  0  0  0  0  0  0  0  0  0  0
  141.8000   76.1430  220.9010 C   0  0  0  0  0  0  0  0  0  0  0  0
  141.1120   74.9640  221.2140 C   0  0  0  0  0  0  0  0  0  0  0  0
  140.6525   71.8692  220.1788 H   0  0  0  0  0  0  0  0  0  0  0  0
  141.5728   71.7361  221.7126 H   0  0  0  0  0  0  0  0  0  0  0  0
  137.2072   72.0932  220.9877 H   0  0  0  0  0  0  0  0  0  0  0  0
  135.7602   70.1736  221.6439 H   0  0  0  0  0  0  0  0  0  0  0  0
  136.6071   68.5521  223.3144 H   0  0  0  0  0  0  0  0  0  0  0  0
  139.1988   71.0611  225.4861 H   0  0  0  0  0  0  0  0  0  0  0  0
  138.9005   70.4927  227.1681 H   0  0  0  0  0  0  0  0  0  0  0  0
  141.3192   71.6330  226.0483 H   0  0  0  0  0  0  0  0  0  0  0  0
  141.0078   71.1139  227.7333 H   0  0  0  0  0  0  0  0  0  0  0  0
  142.1452   67.8622  227.3490 H   0  0  0  0  0  0  0  0  0  0  0  0
  141.1609   69.0499  228.2989 H   0  0  0  0  0  0  0  0  0  0  0  0
  140.2948   67.0913  226.2134 H   0  0  0  0  0  0  0  0  0  0  0  0
  139.3671   67.7853  227.5492 H   0  0  0  0  0  0  0  0  0  0  0  0
  140.2724   70.7199  223.6627 H   0  0  0  0  0  0  0  0  0  0  0  0
  138.4633   76.3041  222.9096 H   0  0  0  0  0  0  0  0  0  0  0  0
  139.6994   78.4065  222.3497 H   0  0  0  0  0  0  0  0  0  0  0  0
  143.5812   78.6289  222.9972 H   0  0  0  0  0  0  0  0  0  0  0  0
  143.7141   80.4299  224.6916 H   0  0  0  0  0  0  0  0  0  0  0  0
  142.1872   82.4114  224.5385 H   0  0  0  0  0  0  0  0  0  0  0  0
  140.5400   82.5195  222.6490 H   0  0  0  0  0  0  0  0  0  0  0  0
  140.4391   80.6962  220.9698 H   0  0  0  0  0  0  0  0  0  0  0  0
  142.7418   76.1019  220.3342 H   0  0  0  0  0  0  0  0  0  0  0  0
  1  2  2  0
  2  3  1  0
  3  4  1  0
  4  5  1  0
  5  6  2  0
  6  7  1  0
  7  8  2  0
  8  9  1  0
  9 10  1  0
 10 11  2  0
 10 12  1  0
 12 13  1  0
 13 14  1  0
 14 15  1  0
 15 16  1  0
 16 17  1  0
  9 18  2  0
  4 19  2  0
 19 20  1  0
 20 21  2  0
 21 22  1  0
 22 23  2  0
 23 24  1  0
 24 25  1  0
 25 26  2  0
 26 27  1  0
 27 28  2  0
 28 29  1  0
 29 30  2  0
 23 31  1  0
 31 32  2  0
 32  2  1  0
 18  5  1  0
 32 20  1  0
 17 12  1  0
 30 25  1  0
  3 33  1  0
  3 34  1  0
  6 35  1  0
  7 36  1  0
  8 37  1  0
 13 38  1  0
 13 39  1  0
 14 40  1  0
 14 41  1  0
 16 42  1  0
 16 43  1  0
 17 44  1  0
 17 45  1  0
 18 46  1  0
 21 47  1  0
 22 48  1  0
 26 49  1  0
 27 50  1  0
 28 51  1  0
 29 52  1  0
 30 53  1  0
 31 54  1  0
M  END
>  <smiles>  (13) 
O=C1CC(c2cccc(C(=O)N3CCOCC3)c2)=Nc2ccc(Oc3ccccc3)cc21

>  <score_type>  (13) 
oracle

>  <origin>  (13) 
autodockgpu

>  <m_score__min__energy>  (13) 
-8.6400000000000006

>  <m_primary>  (13) 
energy

>  <rmsd>  (13) 
6.123888635408078

>  <m_score__min__rmsd>  (13) 
6.123888635408078

>  <meeko>  (13) 
{"free_energy": -8.51, "intermolecular_energy": -9.71, "internal_energy": -1.06, "cluster_size": 27, "cluster_id": 1, "rank_in_cluster": 11}

>  <energy>  (13) 
-8.51

>  <cluster_rmsd>  (13) 
1.09

>  <cluster>  (13) 
1

$$$$

     RDKit          3D

 54 58  0  0  0  0  0  0  0  0999 V2000
  143.8310   72.4010  220.6570 O   0  0  0  0  0  0  0  0  0  0  0  0
  142.9630   73.3090  220.6420 C   0  0  0  0  0  0  0  0  0  0  0  0
  143.2940   74.5690  219.9420 C   0  0  0  0  0  0  0  0  0  0  0  0
  142.1450   75.4970  220.0450 C   0  0  0  0  0  0  0  0  0  0  0  0
  142.2740   76.8200  219.4090 C   0  0  0  0  0  0  0  0  0  0  0  0
  142.8120   76.9260  218.1260 C   0  0  0  0  0  0  0  0  0  0  0  0
  142.9470   78.1550  217.5030 C   0  0  0  0  0  0  0  0  0  0  0  0
  142.5300   79.2820  218.1910 C   0  0  0  0  0  0  0  0  0  0  0  0
  141.9980   79.2310  219.4470 C   0  0  0  0  0  0  0  0  0  0  0  0
  141.5470   80.3720  220.2140 C   0  0  0  0  0  0  0  0  0  0  0  0
  140.8460   81.2330  219.5800 O   0  0  0  0  0  0  0  0  0  0  0  0
  141.8400   80.5580  221.5760 N   0  0  0  0  0  0  0  0  0  0  0  0
  142.6230   79.6440  222.3840 C   0  0  0  0  0  0  0  0  0  0  0  0
  141.8200   79.2150  223.6170 C   0  0  0  0  0  0  0  0  0  0  0  0
  140.5690   79.8730  223.5950 O   0  0  0  0  0  0  0  0  0  0  0  0
  140.8010   81.2500  223.6120 C   0  0  0  0  0  0  0  0  0  0  0  0
  141.3360   81.7490  222.2620 C   0  0  0  0  0  0  0  0  0  0  0  0
  141.8740   77.9750  220.0530 C   0  0  0  0  0  0  0  0  0  0  0  0
  141.0470   75.2480  220.6410 N   0  0  0  0  0  0  0  0  0  0  0  0
  140.7260   74.0330  221.3150 C   0  0  0  0  0  0  0  0  0  0  0  0
  139.4980   73.8690  221.9330 C   0  0  0  0  0  0  0  0  0  0  0  0
  139.2390   72.6680  222.5740 C   0  0  0  0  0  0  0  0  0  0  0  0
  140.2100   71.6640  222.5830 C   0  0  0  0  0  0  0  0  0  0  0  0
  139.9840   70.4530  223.2150 O   0  0  0  0  0  0  0  0  0  0  0  0
  140.1590   70.3890  224.5830 C   0  0  0  0  0  0  0  0  0  0  0  0
  139.7760   69.2570  225.2380 C   0  0  0  0  0  0  0  0  0  0  0  0
  139.9190   69.1180  226.6170 C   0  0  0  0  0  0  0  0  0  0  0  0
  140.4670   70.1530  227.3690 C   0  0  0  0  0  0  0  0  0  0  0  0
  140.8620   71.3170  226.7020 C   0  0  0  0  0  0  0  0  0  0  0  0
  140.7080   71.4310  225.3240 C   0  0  0  0  0  0  0  0  0  0  0  0
  141.4300   71.8450  221.9630 C   0  0  0  0  0  0  0  0  0  0  0  0
  141.6980   73.0560  221.3130 C   0  0  0  0  0  0  0  0  0  0  0  0
  144.1799   75.0267  220.4066 H   0  0  0  0  0  0  0  0  0  0  0  0
  143.5074   74.3597  218.8834 H   0  0  0  0  0  0  0  0  0  0  0  0
  143.1350   76.0158  217.5995 H   0  0  0  0  0  0  0  0  0  0  0  0
  143.3728   78.2338  216.4918 H   0  0  0  0  0  0  0  0  0  0  0  0
  142.6321   80.2627  217.7033 H   0  0  0  0  0  0  0  0  0  0  0  0
  142.8764   78.7555  221.7870 H   0  0  0  0  0  0  0  0  0  0  0  0
  143.5441   80.1490  222.7106 H   0  0  0  0  0  0  0  0  0  0  0  0
  141.6658   78.1260  223.5977 H   0  0  0  0  0  0  0  0  0  0  0  0
  142.3679   79.4824  224.5326 H   0  0  0  0  0  0  0  0  0  0  0  0
  139.8570   81.7685  223.8357 H   0  0  0  0  0  0  0  0  0  0  0  0
  141.5574   81.4623  224.3819 H   0  0  0  0  0  0  0  0  0  0  0  0
  140.5295   82.2165  221.6780 H   0  0  0  0  0  0  0  0  0  0  0  0
  142.1211   82.5088  222.3901 H   0  0  0  0  0  0  0  0  0  0  0  0
  141.4484   77.9062  221.0650 H   0  0  0  0  0  0  0  0  0  0  0  0
  138.7465   74.6721  221.9156 H   0  0  0  0  0  0  0  0  0  0  0  0
  138.2726   72.5060  223.0738 H   0  0  0  0  0  0  0  0  0  0  0  0
  139.3408   68.4280  224.6606 H   0  0  0  0  0  0  0  0  0  0  0  0
  139.5985   68.1893  227.1118 H   0  0  0  0  0  0  0  0  0  0  0  0
  140.5862   70.0581  228.4584 H   0  0  0  0  0  0  0  0  0  0  0  0
  141.2986   72.1502  227.2722 H   0  0  0  0  0  0  0  0  0  0  0  0
  141.0233   72.3539  224.8153 H   0  0  0  0  0  0  0  0  0  0  0  0
  142.1849   71.0451  221.9794 H   0  0  0  0  0  0  0  0  0  0  0  0
  1  2  2  0
  2  3  1  0
  3  4  1  0
  4  5  1  0
  5  6  2  0
  6  7  1  0
  7  8  2  0
  8  9  1  0
  9 10  1  0
 10 11  2  0
 10 12  1  0
 12 13  1  0
 13 14  1  0
 14 15  1  0
 15 16  1  0
 16 17  1  0
  9 18  2  0
  4 19  2  0
 19 20  1  0
 20 21  2  0
 21 22  1  0
 22 23  2  0
 23 24  1  0
 24 25  1  0
 25 26  2  0
 26 27  1  0
 27 28  2  0
 28 29  1  0
 29 30  2  0
 23 31  1  0
 31 32  2  0
 32  2  1  0
 18  5  1  0
 32 20  1  0
 17 12  1  0
 30 25  1  0
  3 33  1  0
  3 34  1  0
  6 35  1  0
  7 36  1  0
  8 37  1  0
 13 38  1  0
 13 39  1  0
 14 40  1  0
 14 41  1  0
 16 42  1  0
 16 43  1  0
 17 44  1  0
 17 45  1  0
 18 46  1  0
 21 47  1  0
 22 48  1  0
 26 49  1  0
 27 50  1  0
 28 51  1  0
 29 52  1  0
 30 53  1  0
 31 54  1  0
M  END
>  <smiles>  (14) 
O=C1CC(c2cccc(C(=O)N3CCOCC3)c2)=Nc2ccc(Oc3ccccc3)cc21

>  <score_type>  (14) 
oracle

>  <origin>  (14) 
autodockgpu

>  <m_score__min__energy>  (14) 
-8.6400000000000006

>  <m_primary>  (14) 
energy

>  <rmsd>  (14) 
8.402947367896477

>  <m_score__min__rmsd>  (14) 
8.402947367896477

>  <meeko>  (14) 
{"free_energy": -8.44, "intermolecular_energy": -9.63, "internal_energy": -1.01, "cluster_size": 21, "cluster_id": 2, "rank_in_cluster": 14}

>  <energy>  (14) 
-8.5

>  <cluster_rmsd>  (14) 
0.95

>  <cluster>  (14) 
1

$$$$

     RDKit          3D

 54 58  0  0  0  0  0  0  0  0999 V2000
  143.8450   72.4220  220.6270 O   0  0  0  0  0  0  0  0  0  0  0  0
  142.9780   73.3320  220.6240 C   0  0  0  0  0  0  0  0  0  0  0  0
  143.3050   74.5930  219.9220 C   0  0  0  0  0  0  0  0  0  0  0  0
  142.1580   75.5230  220.0390 C   0  0  0  0  0  0  0  0  0  0  0  0
  142.2830   76.8460  219.4050 C   0  0  0  0  0  0  0  0  0  0  0  0
  142.8200   76.9550  218.1210 C   0  0  0  0  0  0  0  0  0  0  0  0
  142.9510   78.1850  217.4980 C   0  0  0  0  0  0  0  0  0  0  0  0
  142.5310   79.3100  218.1890 C   0  0  0  0  0  0  0  0  0  0  0  0
  142.0010   79.2560  219.4450 C   0  0  0  0  0  0  0  0  0  0  0  0
  141.5470   80.3960  220.2130 C   0  0  0  0  0  0  0  0  0  0  0  0
  140.8480   81.2580  219.5790 O   0  0  0  0  0  0  0  0  0  0  0  0
  141.8370   80.5800  221.5760 N   0  0  0  0  0  0  0  0  0  0  0  0
  142.6180   79.6640  222.3840 C   0  0  0  0  0  0  0  0  0  0  0  0
  141.8130   79.2320  223.6140 C   0  0  0  0  0  0  0  0  0  0  0  0
  140.5620   79.8890  223.5900 O   0  0  0  0  0  0  0  0  0  0  0  0
  140.7920   81.2670  223.6110 C   0  0  0  0  0  0  0  0  0  0  0  0
  141.3310   81.7680  222.2630 C   0  0  0  0  0  0  0  0  0  0  0  0
  141.8800   78.0000  220.0500 C   0  0  0  0  0  0  0  0  0  0  0  0
  141.0660   75.2750  220.6470 N   0  0  0  0  0  0  0  0  0  0  0  0
  140.7500   74.0600  221.3230 C   0  0  0  0  0  0  0  0  0  0  0  0
  139.5290   73.8970  221.9540 C   0  0  0  0  0  0  0  0  0  0  0  0
  139.2750   72.6950  222.5960 C   0  0  0  0  0  0  0  0  0  0  0  0
  140.2430   71.6900  222.5930 C   0  0  0  0  0  0  0  0  0  0  0  0
  140.0220   70.4780  223.2250 O   0  0  0  0  0  0  0  0  0  0  0  0
  140.2090   70.4120  224.5910 C   0  0  0  0  0  0  0  0  0  0  0  0
  140.7910   71.4690  225.2220 C   0  0  0  0  0  0  0  0  0  0  0  0
  141.0140   71.4760  226.5970 C   0  0  0  0  0  0  0  0  0  0  0  0
  140.6380   70.3810  227.3700 C   0  0  0  0  0  0  0  0  0  0  0  0
  140.0400   69.2920  226.7280 C   0  0  0  0  0  0  0  0  0  0  0  0
  139.8290   69.3100  225.3530 C   0  0  0  0  0  0  0  0  0  0  0  0
  141.4570   71.8690  221.9590 C   0  0  0  0  0  0  0  0  0  0  0  0
  141.7200   73.0810  221.3080 C   0  0  0  0  0  0  0  0  0  0  0  0
  144.1966   75.0482  220.3780 H   0  0  0  0  0  0  0  0  0  0  0  0
  143.5076   74.3853  218.8610 H   0  0  0  0  0  0  0  0  0  0  0  0
  143.1455   76.0461  217.5937 H   0  0  0  0  0  0  0  0  0  0  0  0
  143.3752   78.2661  216.4863 H   0  0  0  0  0  0  0  0  0  0  0  0
  142.6294   80.2917  217.7027 H   0  0  0  0  0  0  0  0  0  0  0  0
  142.8727   78.7769  221.7855 H   0  0  0  0  0  0  0  0  0  0  0  0
  143.5381   80.1686  222.7140 H   0  0  0  0  0  0  0  0  0  0  0  0
  141.6597   78.1430  223.5923 H   0  0  0  0  0  0  0  0  0  0  0  0
  142.3586   79.4978  224.5315 H   0  0  0  0  0  0  0  0  0  0  0  0
  139.8466   81.7839  223.8324 H   0  0  0  0  0  0  0  0  0  0  0  0
  141.5448   81.4796  224.3843 H   0  0  0  0  0  0  0  0  0  0  0  0
  140.5260   82.2364  221.6777 H   0  0  0  0  0  0  0  0  0  0  0  0
  142.1160   82.5272  222.3952 H   0  0  0  0  0  0  0  0  0  0  0  0
  141.4545   77.9296  221.0619 H   0  0  0  0  0  0  0  0  0  0  0  0
  138.7787   74.7014  221.9462 H   0  0  0  0  0  0  0  0  0  0  0  0
  138.3138   72.5340  223.1060 H   0  0  0  0  0  0  0  0  0  0  0  0
  141.0942   72.3438  224.6280 H   0  0  0  0  0  0  0  0  0  0  0  0
  141.4877   72.3476  227.0724 H   0  0  0  0  0  0  0  0  0  0  0  0
  140.8068   70.3726  228.4569 H   0  0  0  0  0  0  0  0  0  0  0  0
  139.7338   68.4137  227.3152 H   0  0  0  0  0  0  0  0  0  0  0  0
  139.3574   68.4454  224.8629 H   0  0  0  0  0  0  0  0  0  0  0  0
  142.2102   71.0673  221.9653 H   0  0  0  0  0  0  0  0  0  0  0  0
  1  2  2  0
  2  3  1  0
  3  4  1  0
  4  5  1  0
  5  6  2  0
  6  7  1  0
  7  8  2  0
  8  9  1  0
  9 10  1  0
 10 11  2  0
 10 12  1  0
 12 13  1  0
 13 14  1  0
 14 15  1  0
 15 16  1  0
 16 17  1  0
  9 18  2  0
  4 19  2  0
 19 20  1  0
 20 21  2  0
 21 22  1  0
 22 23  2  0
 23 24  1  0
 24 25  1  0
 25 26  2  0
 26 27  1  0
 27 28  2  0
 28 29  1  0
 29 30  2  0
 23 31  1  0
 31 32  2  0
 32  2  1  0
 18  5  1  0
 32 20  1  0
 17 12  1  0
 30 25  1  0
  3 33  1  0
  3 34  1  0
  6 35  1  0
  7 36  1  0
  8 37  1  0
 13 38  1  0
 13 39  1  0
 14 40  1  0
 14 41  1  0
 16 42  1  0
 16 43  1  0
 17 44  1  0
 17 45  1  0
 18 46  1  0
 21 47  1  0
 22 48  1  0
 26 49  1  0
 27 50  1  0
 28 51  1  0
 29 52  1  0
 30 53  1  0
 31 54  1  0
M  END
>  <smiles>  (15) 
O=C1CC(c2cccc(C(=O)N3CCOCC3)c2)=Nc2ccc(Oc3ccccc3)cc21

>  <score_type>  (15) 
oracle

>  <origin>  (15) 
autodockgpu

>  <m_score__min__energy>  (15) 
-8.6400000000000006

>  <m_primary>  (15) 
energy

>  <rmsd>  (15) 
8.42446264306232

>  <m_score__min__rmsd>  (15) 
8.42446264306232

>  <meeko>  (15) 
{"free_energy": -8.46, "intermolecular_energy": -9.65, "internal_energy": -1.01, "cluster_size": 21, "cluster_id": 2, "rank_in_cluster": 11}

>  <energy>  (15) 
-8.5

>  <cluster_rmsd>  (15) 
0.98

>  <cluster>  (15) 
1

$$$$

     RDKit          3D

 54 58  0  0  0  0  0  0  0  0999 V2000
  142.6000   73.6270  220.9050 O   0  0  0  0  0  0  0  0  0  0  0  0
  141.4300   73.6990  221.3580 C   0  0  0  0  0  0  0  0  0  0  0  0
  140.7640   72.4370  221.7500 C   0  0  0  0  0  0  0  0  0  0  0  0
  139.4050   72.7420  222.2510 C   0  0  0  0  0  0  0  0  0  0  0  0
  138.5690   71.6130  222.6940 C   0  0  0  0  0  0  0  0  0  0  0  0
  137.2030   71.6040  222.4070 C   0  0  0  0  0  0  0  0  0  0  0  0
  136.3910   70.5570  222.8100 C   0  0  0  0  0  0  0  0  0  0  0  0
  136.9750   69.5140  223.5100 C   0  0  0  0  0  0  0  0  0  0  0  0
  138.3050   69.4770  223.8150 C   0  0  0  0  0  0  0  0  0  0  0  0
  138.9690   68.4170  224.5420 C   0  0  0  0  0  0  0  0  0  0  0  0
  139.1920   67.3420  223.8870 O   0  0  0  0  0  0  0  0  0  0  0  0
  139.3610   68.5240  225.8870 N   0  0  0  0  0  0  0  0  0  0  0  0
  139.1570   69.6960  226.7160 C   0  0  0  0  0  0  0  0  0  0  0  0
  140.4930   70.1650  227.3020 C   0  0  0  0  0  0  0  0  0  0  0  0
  141.5100   69.2820  226.8720 O   0  0  0  0  0  0  0  0  0  0  0  0
  141.1950   67.9990  227.3250 C   0  0  0  0  0  0  0  0  0  0  0  0
  140.0280   67.3920  226.5330 C   0  0  0  0  0  0  0  0  0  0  0  0
  139.1020   70.5480  223.3950 C   0  0  0  0  0  0  0  0  0  0  0  0
  138.8920   73.9060  222.3310 N   0  0  0  0  0  0  0  0  0  0  0  0
  139.5330   75.1230  221.9550 C   0  0  0  0  0  0  0  0  0  0  0  0
  138.8810   76.3370  222.0840 C   0  0  0  0  0  0  0  0  0  0  0  0
  139.5520   77.4880  221.7020 C   0  0  0  0  0  0  0  0  0  0  0  0
  140.8520   77.3990  221.2020 C   0  0  0  0  0  0  0  0  0  0  0  0
  141.5500   78.5290  220.8110 O   0  0  0  0  0  0  0  0  0  0  0  0
  141.7530   79.5250  221.7450 C   0  0  0  0  0  0  0  0  0  0  0  0
  141.2320   80.7610  221.5070 C   0  0  0  0  0  0  0  0  0  0  0  0
  141.3960   81.8170  222.4010 C   0  0  0  0  0  0  0  0  0  0  0  0
  142.1090   81.6270  223.5810 C   0  0  0  0  0  0  0  0  0  0  0  0
  142.6480   80.3610  223.8310 C   0  0  0  0  0  0  0  0  0  0  0  0
  142.4700   79.3230  222.9210 C   0  0  0  0  0  0  0  0  0  0  0  0
  141.4870   76.1800  221.0790 C   0  0  0  0  0  0  0  0  0  0  0  0
  140.8160   75.0130  221.4630 C   0  0  0  0  0  0  0  0  0  0  0  0
  140.6940   71.7709  220.8774 H   0  0  0  0  0  0  0  0  0  0  0  0
  141.3471   71.9399  222.5392 H   0  0  0  0  0  0  0  0  0  0  0  0
  136.7631   72.4445  221.8501 H   0  0  0  0  0  0  0  0  0  0  0  0
  135.3151   70.5537  222.5812 H   0  0  0  0  0  0  0  0  0  0  0  0
  136.3383   68.6779  223.8347 H   0  0  0  0  0  0  0  0  0  0  0  0
  138.7241   70.5024  226.1059 H   0  0  0  0  0  0  0  0  0  0  0  0
  138.4727   69.4407  227.5385 H   0  0  0  0  0  0  0  0  0  0  0  0
  140.7142   71.1838  226.9510 H   0  0  0  0  0  0  0  0  0  0  0  0
  140.4399   70.1699  228.4007 H   0  0  0  0  0  0  0  0  0  0  0  0
  142.0781   67.3532  227.2112 H   0  0  0  0  0  0  0  0  0  0  0  0
  140.8947   68.0704  228.3808 H   0  0  0  0  0  0  0  0  0  0  0  0
  140.4026   66.6850  225.7781 H   0  0  0  0  0  0  0  0  0  0  0  0
  139.3410   66.8320  227.1845 H   0  0  0  0  0  0  0  0  0  0  0  0
  140.1770   70.5419  223.6282 H   0  0  0  0  0  0  0  0  0  0  0  0
  137.8559   76.3871  222.4798 H   0  0  0  0  0  0  0  0  0  0  0  0
  139.0616   78.4684  221.7926 H   0  0  0  0  0  0  0  0  0  0  0  0
  140.6642   80.9306  220.5803 H   0  0  0  0  0  0  0  0  0  0  0  0
  140.9615   82.8017  222.1740 H   0  0  0  0  0  0  0  0  0  0  0  0
  142.2449   82.4504  224.2977 H   0  0  0  0  0  0  0  0  0  0  0  0
  143.2178   80.1840  224.7551 H   0  0  0  0  0  0  0  0  0  0  0  0
  142.9002   78.3331  223.1332 H   0  0  0  0  0  0  0  0  0  0  0  0
  142.5117   76.1258  220.6826 H   0  0  0  0  0  0  0  0  0  0  0  0
  1  2  2  0
  2  3  1  0
  3  4  1  0
  4  5  1  0
  5  6  2  0
  6  7  1  0
  7  8  2  0
  8  9  1  0
  9 10  1  0
 10 11  2  0
 10 12  1  0
 12 13  1  0
 13 14  1  0
 14 15  1  0
 15 16  1  0
 16 17  1  0
  9 18  2  0
  4 19  2  0
 19 20  1  0
 20 21  2  0
 21 22  1  0
 22 23  2  0
 23 24  1  0
 24 25  1  0
 25 26  2  0
 26 27  1  0
 27 28  2  0
 28 29  1  0
 29 30  2  0
 23 31  1  0
 31 32  2  0
 32  2  1  0
 18  5  1  0
 32 20  1  0
 17 12  1  0
 30 25  1  0
  3 33  1  0
  3 34  1  0
  6 35  1  0
  7 36  1  0
  8 37  1  0
 13 38  1  0
 13 39  1  0
 14 40  1  0
 14 41  1  0
 16 42  1  0
 16 43  1  0
 17 44  1  0
 17 45  1  0
 18 46  1  0
 21 47  1  0
 22 48  1  0
 26 49  1  0
 27 50  1  0
 28 51  1  0
 29 52  1  0
 30 53  1  0
 31 54  1  0
M  END
>  <smiles>  (16) 
O=C1CC(c2cccc(C(=O)N3CCOCC3)c2)=Nc2ccc(Oc3ccccc3)cc21

>  <score_type>  (16) 
oracle

>  <origin>  (16) 
autodockgpu

>  <m_score__min__energy>  (16) 
-8.6400000000000006

>  <m_primary>  (16) 
energy

>  <rmsd>  (16) 
6.163952615782439

>  <m_score__min__rmsd>  (16) 
6.163952615782439

>  <meeko>  (16) 
{"free_energy": -8.44, "intermolecular_energy": -9.64, "internal_energy": -1.13, "cluster_size": 27, "cluster_id": 1, "rank_in_cluster": 20}

>  <energy>  (16) 
-8.49

>  <cluster_rmsd>  (16) 
0.65

>  <cluster>  (16) 
1

$$$$

     RDKit          3D

 54 58  0  0  0  0  0  0  0  0999 V2000
  142.9130   74.3020  219.0810 O   0  0  0  0  0  0  0  0  0  0  0  0
  142.0700   74.1160  219.9940 C   0  0  0  0  0  0  0  0  0  0  0  0
  141.6640   72.7230  220.2850 C   0  0  0  0  0  0  0  0  0  0  0  0
  140.6720   72.7270  221.3830 C   0  0  0  0  0  0  0  0  0  0  0  0
  140.1360   71.4280  221.8260 C   0  0  0  0  0  0  0  0  0  0  0  0
  140.0380   70.3710  220.9210 C   0  0  0  0  0  0  0  0  0  0  0  0
  139.5380   69.1380  221.3070 C   0  0  0  0  0  0  0  0  0  0  0  0
  139.1350   68.9840  222.6230 C   0  0  0  0  0  0  0  0  0  0  0  0
  139.2100   69.9870  223.5450 C   0  0  0  0  0  0  0  0  0  0  0  0
  138.8040   69.8840  224.9310 C   0  0  0  0  0  0  0  0  0  0  0  0
  137.5540   70.0200  225.1600 O   0  0  0  0  0  0  0  0  0  0  0  0
  139.7000   69.6490  225.9880 N   0  0  0  0  0  0  0  0  0  0  0  0
  141.1310   69.4800  225.8340 C   0  0  0  0  0  0  0  0  0  0  0  0
  141.5720   68.1500  226.4540 C   0  0  0  0  0  0  0  0  0  0  0  0
  140.4400   67.5130  227.0130 O   0  0  0  0  0  0  0  0  0  0  0  0
  139.9010   68.3570  227.9860 C   0  0  0  0  0  0  0  0  0  0  0  0
  139.1880   69.5620  227.3560 C   0  0  0  0  0  0  0  0  0  0  0  0
  139.7200   71.2220  223.1280 C   0  0  0  0  0  0  0  0  0  0  0  0
  140.2380   73.7650  221.9820 N   0  0  0  0  0  0  0  0  0  0  0  0
  140.6290   75.1070  221.7040 C   0  0  0  0  0  0  0  0  0  0  0  0
  140.0920   76.1640  222.4180 C   0  0  0  0  0  0  0  0  0  0  0  0
  140.5070   77.4490  222.1050 C   0  0  0  0  0  0  0  0  0  0  0  0
  141.4450   77.6460  221.0900 C   0  0  0  0  0  0  0  0  0  0  0  0
  141.8810   78.9160  220.7520 O   0  0  0  0  0  0  0  0  0  0  0  0
  141.9850   79.8580  221.7560 C   0  0  0  0  0  0  0  0  0  0  0  0
  142.8170   79.6070  222.8040 C   0  0  0  0  0  0  0  0  0  0  0  0
  142.9740   80.5080  223.8550 C   0  0  0  0  0  0  0  0  0  0  0  0
  142.2690   81.7080  223.8550 C   0  0  0  0  0  0  0  0  0  0  0  0
  141.4130   81.9720  222.7820 C   0  0  0  0  0  0  0  0  0  0  0  0
  141.2740   81.0550  221.7440 C   0  0  0  0  0  0  0  0  0  0  0  0
  141.9700   76.5800  220.3870 C   0  0  0  0  0  0  0  0  0  0  0  0
  141.5550   75.2800  220.6980 C   0  0  0  0  0  0  0  0  0  0  0  0
  141.2165   72.2743  219.3859 H   0  0  0  0  0  0  0  0  0  0  0  0
  142.5445   72.1350  220.5833 H   0  0  0  0  0  0  0  0  0  0  0  0
  140.3640   70.5193  219.8809 H   0  0  0  0  0  0  0  0  0  0  0  0
  139.4634   68.3069  220.5903 H   0  0  0  0  0  0  0  0  0  0  0  0
  138.7363   68.0088  222.9393 H   0  0  0  0  0  0  0  0  0  0  0  0
  141.3852   69.4849  224.7638 H   0  0  0  0  0  0  0  0  0  0  0  0
  141.6488   70.3054  226.3445 H   0  0  0  0  0  0  0  0  0  0  0  0
  142.0124   67.5075  225.6773 H   0  0  0  0  0  0  0  0  0  0  0  0
  142.3240   68.3320  227.2359 H   0  0  0  0  0  0  0  0  0  0  0  0
  139.1775   67.7896  228.5898 H   0  0  0  0  0  0  0  0  0  0  0  0
  140.7248   68.7324  228.6108 H   0  0  0  0  0  0  0  0  0  0  0  0
  138.0994   69.4041  227.3496 H   0  0  0  0  0  0  0  0  0  0  0  0
  139.3747   70.4873  227.9208 H   0  0  0  0  0  0  0  0  0  0  0  0
  139.7913   72.0468  223.8524 H   0  0  0  0  0  0  0  0  0  0  0  0
  139.3538   75.9887  223.2145 H   0  0  0  0  0  0  0  0  0  0  0  0
  140.0988   78.3102  222.6543 H   0  0  0  0  0  0  0  0  0  0  0  0
  143.3827   78.6638  222.8215 H   0  0  0  0  0  0  0  0  0  0  0  0
  143.6555   80.2708  224.6852 H   0  0  0  0  0  0  0  0  0  0  0  0
  142.3824   82.4295  224.6775 H   0  0  0  0  0  0  0  0  0  0  0  0
  140.8440   82.9131  222.7576 H   0  0  0  0  0  0  0  0  0  0  0  0
  140.5963   81.2781  220.9067 H   0  0  0  0  0  0  0  0  0  0  0  0
  142.7080   76.7509  219.5894 H   0  0  0  0  0  0  0  0  0  0  0  0
  1  2  2  0
  2  3  1  0
  3  4  1  0
  4  5  1  0
  5  6  2  0
  6  7  1  0
  7  8  2  0
  8  9  1  0
  9 10  1  0
 10 11  2  0
 10 12  1  0
 12 13  1  0
 13 14  1  0
 14 15  1  0
 15 16  1  0
 16 17  1  0
  9 18  2  0
  4 19  2  0
 19 20  1  0
 20 21  2  0
 21 22  1  0
 22 23  2  0
 23 24  1  0
 24 25  1  0
 25 26  2  0
 26 27  1  0
 27 28  2  0
 28 29  1  0
 29 30  2  0
 23 31  1  0
 31 32  2  0
 32  2  1  0
 18  5  1  0
 32 20  1  0
 17 12  1  0
 30 25  1  0
  3 33  1  0
  3 34  1  0
  6 35  1  0
  7 36  1  0
  8 37  1  0
 13 38  1  0
 13 39  1  0
 14 40  1  0
 14 41  1  0
 16 42  1  0
 16 43  1  0
 17 44  1  0
 17 45  1  0
 18 46  1  0
 21 47  1  0
 22 48  1  0
 26 49  1  0
 27 50  1  0
 28 51  1  0
 29 52  1  0
 30 53  1  0
 31 54  1  0
M  END
>  <smiles>  (17) 
O=C1CC(c2cccc(C(=O)N3CCOCC3)c2)=Nc2ccc(Oc3ccccc3)cc21

>  <score_type>  (17) 
oracle

>  <origin>  (17) 
autodockgpu

>  <m_score__min__energy>  (17) 
-8.6400000000000006

>  <m_primary>  (17) 
energy

>  <rmsd>  (17) 
6.738788530253918

>  <m_score__min__rmsd>  (17) 
6.738788530253918

>  <meeko>  (17) 
{"free_energy": -8.39, "intermolecular_energy": -9.58, "internal_energy": -1.07, "cluster_size": 27, "cluster_id": 1, "rank_in_cluster": 24}

>  <energy>  (17) 
-8.48

>  <cluster_rmsd>  (17) 
1.06

>  <cluster>  (17) 
1

$$$$

     RDKit          3D

 54 58  0  0  0  0  0  0  0  0999 V2000
  142.6310   73.5670  220.8370 O   0  0  0  0  0  0  0  0  0  0  0  0
  141.4710   73.6530  221.3140 C   0  0  0  0  0  0  0  0  0  0  0  0
  140.7950   72.3990  221.7130 C   0  0  0  0  0  0  0  0  0  0  0  0
  139.4500   72.7210  222.2430 C   0  0  0  0  0  0  0  0  0  0  0  0
  138.6070   71.6020  222.6970 C   0  0  0  0  0  0  0  0  0  0  0  0
  137.2390   71.6050  222.4190 C   0  0  0  0  0  0  0  0  0  0  0  0
  136.4210   70.5670  222.8340 C   0  0  0  0  0  0  0  0  0  0  0  0
  137.0000   69.5220  223.5340 C   0  0  0  0  0  0  0  0  0  0  0  0
  138.3310   69.4740  223.8300 C   0  0  0  0  0  0  0  0  0  0  0  0
  138.9900   68.4120  224.5580 C   0  0  0  0  0  0  0  0  0  0  0  0
  139.2100   67.3350  223.9040 O   0  0  0  0  0  0  0  0  0  0  0  0
  139.3820   68.5180  225.9040 N   0  0  0  0  0  0  0  0  0  0  0  0
  139.1810   69.6900  226.7320 C   0  0  0  0  0  0  0  0  0  0  0  0
  140.5180   70.1540  227.3190 C   0  0  0  0  0  0  0  0  0  0  0  0
  141.5330   69.2670  226.8900 O   0  0  0  0  0  0  0  0  0  0  0  0
  141.2120   67.9860  227.3440 C   0  0  0  0  0  0  0  0  0  0  0  0
  140.0440   67.3830  226.5500 C   0  0  0  0  0  0  0  0  0  0  0  0
  139.1350   70.5360  223.4000 C   0  0  0  0  0  0  0  0  0  0  0  0
  138.9560   73.8920  222.3390 N   0  0  0  0  0  0  0  0  0  0  0  0
  139.6080   75.1010  221.9550 C   0  0  0  0  0  0  0  0  0  0  0  0
  138.9760   76.3240  222.1030 C   0  0  0  0  0  0  0  0  0  0  0  0
  139.6560   77.4670  221.7140 C   0  0  0  0  0  0  0  0  0  0  0  0
  140.9440   77.3620  221.1870 C   0  0  0  0  0  0  0  0  0  0  0  0
  141.6510   78.4840  220.7880 O   0  0  0  0  0  0  0  0  0  0  0  0
  141.8080   79.5120  221.6950 C   0  0  0  0  0  0  0  0  0  0  0  0
  142.3210   79.2260  222.9240 C   0  0  0  0  0  0  0  0  0  0  0  0
  142.5080   80.2090  223.8940 C   0  0  0  0  0  0  0  0  0  0  0  0
  142.1690   81.5310  223.6200 C   0  0  0  0  0  0  0  0  0  0  0  0
  141.6410   81.8310  222.3610 C   0  0  0  0  0  0  0  0  0  0  0  0
  141.4640   80.8300  221.4100 C   0  0  0  0  0  0  0  0  0  0  0  0
  141.5590   76.1340  221.0450 C   0  0  0  0  0  0  0  0  0  0  0  0
  140.8790   74.9750  221.4370 C   0  0  0  0  0  0  0  0  0  0  0  0
  140.6980   71.7385  220.8387 H   0  0  0  0  0  0  0  0  0  0  0  0
  141.3865   71.8895  222.4879 H   0  0  0  0  0  0  0  0  0  0  0  0
  136.8029   72.4464  221.8606 H   0  0  0  0  0  0  0  0  0  0  0  0
  135.3433   70.5727  222.6139 H   0  0  0  0  0  0  0  0  0  0  0  0
  136.3579   68.6931  223.8665 H   0  0  0  0  0  0  0  0  0  0  0  0
  138.7516   70.4979  226.1213 H   0  0  0  0  0  0  0  0  0  0  0  0
  138.4947   69.4375  227.5537 H   0  0  0  0  0  0  0  0  0  0  0  0
  140.7432   71.1719  226.9681 H   0  0  0  0  0  0  0  0  0  0  0  0
  140.4638   70.1589  228.4177 H   0  0  0  0  0  0  0  0  0  0  0  0
  142.0927   67.3364  227.2328 H   0  0  0  0  0  0  0  0  0  0  0  0
  140.9100   68.0597  228.3992 H   0  0  0  0  0  0  0  0  0  0  0  0
  140.4172   66.6753  225.7951 H   0  0  0  0  0  0  0  0  0  0  0  0
  139.3543   66.8246  227.2000 H   0  0  0  0  0  0  0  0  0  0  0  0
  140.2113   70.5217  223.6268 H   0  0  0  0  0  0  0  0  0  0  0  0
  137.9596   76.3867  222.5189 H   0  0  0  0  0  0  0  0  0  0  0  0
  139.1821   78.4540  221.8203 H   0  0  0  0  0  0  0  0  0  0  0  0
  142.5962   78.1870  223.1581 H   0  0  0  0  0  0  0  0  0  0  0  0
  142.9236   79.9402  224.8764 H   0  0  0  0  0  0  0  0  0  0  0  0
  142.3128   82.3187  224.3742 H   0  0  0  0  0  0  0  0  0  0  0  0
  141.3628   82.8675  222.1195 H   0  0  0  0  0  0  0  0  0  0  0  0
  141.0482   81.0832  220.4236 H   0  0  0  0  0  0  0  0  0  0  0  0
  142.5745   76.0670  220.6275 H   0  0  0  0  0  0  0  0  0  0  0  0
  1  2  2  0
  2  3  1  0
  3  4  1  0
  4  5  1  0
  5  6  2  0
  6  7  1  0
  7  8  2  0
  8  9  1  0
  9 10  1  0
 10 11  2  0
 10 12  1  0
 12 13  1  0
 13 14  1  0
 14 15  1  0
 15 16  1  0
 16 17  1  0
  9 18  2  0
  4 19  2  0
 19 20  1  0
 20 21  2  0
 21 22  1  0
 22 23  2  0
 23 24  1  0
 24 25  1  0
 25 26  2  0
 26 27  1  0
 27 28  2  0
 28 29  1  0
 29 30  2  0
 23 31  1  0
 31 32  2  0
 32  2  1  0
 18  5  1  0
 32 20  1  0
 17 12  1  0
 30 25  1  0
  3 33  1  0
  3 34  1  0
  6 35  1  0
  7 36  1  0
  8 37  1  0
 13 38  1  0
 13 39  1  0
 14 40  1  0
 14 41  1  0
 16 42  1  0
 16 43  1  0
 17 44  1  0
 17 45  1  0
 18 46  1  0
 21 47  1  0
 22 48  1  0
 26 49  1  0
 27 50  1  0
 28 51  1  0
 29 52  1  0
 30 53  1  0
 31 54  1  0
M  END
>  <smiles>  (18) 
O=C1CC(c2cccc(C(=O)N3CCOCC3)c2)=Nc2ccc(Oc3ccccc3)cc21

>  <score_type>  (18) 
oracle

>  <origin>  (18) 
autodockgpu

>  <m_score__min__energy>  (18) 
-8.6400000000000006

>  <m_primary>  (18) 
energy

>  <rmsd>  (18) 
6.172852201959901

>  <m_score__min__rmsd>  (18) 
6.172852201959901

>  <meeko>  (18) 
{"free_energy": -8.5, "intermolecular_energy": -9.69, "internal_energy": -1.13, "cluster_size": 27, "cluster_id": 1, "rank_in_cluster": 15}

>  <energy>  (18) 
-8.46

>  <cluster_rmsd>  (18) 
1.0

>  <cluster>  (18) 
1

$$$$

     RDKit          3D

 54 58  0  0  0  0  0  0  0  0999 V2000
  142.6200   73.5480  220.8720 O   0  0  0  0  0  0  0  0  0  0  0  0
  141.4510   73.6340  221.3270 C   0  0  0  0  0  0  0  0  0  0  0  0
  140.7740   72.3810  221.7280 C   0  0  0  0  0  0  0  0  0  0  0  0
  139.4190   72.7020  222.2290 C   0  0  0  0  0  0  0  0  0  0  0  0
  138.5730   71.5830  222.6810 C   0  0  0  0  0  0  0  0  0  0  0  0
  137.2040   71.5930  222.4110 C   0  0  0  0  0  0  0  0  0  0  0  0
  136.3830   70.5570  222.8230 C   0  0  0  0  0  0  0  0  0  0  0  0
  136.9620   69.5050  223.5130 C   0  0  0  0  0  0  0  0  0  0  0  0
  138.2940   69.4490  223.8020 C   0  0  0  0  0  0  0  0  0  0  0  0
  138.9530   68.3790  224.5190 C   0  0  0  0  0  0  0  0  0  0  0  0
  139.1760   67.3100  223.8520 O   0  0  0  0  0  0  0  0  0  0  0  0
  139.3410   68.4690  225.8670 N   0  0  0  0  0  0  0  0  0  0  0  0
  139.1360   69.6320  226.7080 C   0  0  0  0  0  0  0  0  0  0  0  0
  140.4710   70.0900  227.3040 C   0  0  0  0  0  0  0  0  0  0  0  0
  141.4880   69.2100  226.8680 O   0  0  0  0  0  0  0  0  0  0  0  0
  141.1680   67.9230  227.3050 C   0  0  0  0  0  0  0  0  0  0  0  0
  140.0020   67.3280  226.5020 C   0  0  0  0  0  0  0  0  0  0  0  0
  139.1000   70.5100  223.3740 C   0  0  0  0  0  0  0  0  0  0  0  0
  138.9170   73.8710  222.3030 N   0  0  0  0  0  0  0  0  0  0  0  0
  139.5690   75.0790  221.9180 C   0  0  0  0  0  0  0  0  0  0  0  0
  138.9280   76.3000  222.0400 C   0  0  0  0  0  0  0  0  0  0  0  0
  139.6090   77.4430  221.6500 C   0  0  0  0  0  0  0  0  0  0  0  0
  140.9070   77.3380  221.1480 C   0  0  0  0  0  0  0  0  0  0  0  0
  141.6150   78.4590  220.7490 O   0  0  0  0  0  0  0  0  0  0  0  0
  141.7970   79.4750  221.6660 C   0  0  0  0  0  0  0  0  0  0  0  0
  142.3150   79.1680  222.8870 C   0  0  0  0  0  0  0  0  0  0  0  0
  142.5270   80.1370  223.8650 C   0  0  0  0  0  0  0  0  0  0  0  0
  142.2090   81.4680  223.6080 C   0  0  0  0  0  0  0  0  0  0  0  0
  141.6760   81.7900  222.3560 C   0  0  0  0  0  0  0  0  0  0  0  0
  141.4740   80.8020  221.3970 C   0  0  0  0  0  0  0  0  0  0  0  0
  141.5310   76.1120  221.0320 C   0  0  0  0  0  0  0  0  0  0  0  0
  140.8500   74.9540  221.4250 C   0  0  0  0  0  0  0  0  0  0  0  0
  140.6964   71.7101  220.8598 H   0  0  0  0  0  0  0  0  0  0  0  0
  141.3536   71.8834  222.5194 H   0  0  0  0  0  0  0  0  0  0  0  0
  136.7688   72.4400  221.8604 H   0  0  0  0  0  0  0  0  0  0  0  0
  135.3041   70.5691  222.6089 H   0  0  0  0  0  0  0  0  0  0  0  0
  136.3182   68.6765  223.8432 H   0  0  0  0  0  0  0  0  0  0  0  0
  138.7078   70.4464  226.1052 H   0  0  0  0  0  0  0  0  0  0  0  0
  138.4471   69.3700  227.5246 H   0  0  0  0  0  0  0  0  0  0  0  0
  140.6960   71.1122  226.9658 H   0  0  0  0  0  0  0  0  0  0  0  0
  140.4135   70.0813  228.4025 H   0  0  0  0  0  0  0  0  0  0  0  0
  142.0498   67.2761  227.1869 H   0  0  0  0  0  0  0  0  0  0  0  0
  140.8641   67.9832  228.3605 H   0  0  0  0  0  0  0  0  0  0  0  0
  140.3773   66.6286  225.7404 H   0  0  0  0  0  0  0  0  0  0  0  0
  139.3112   66.7623  227.1445 H   0  0  0  0  0  0  0  0  0  0  0  0
  140.1775   70.4893  223.5943 H   0  0  0  0  0  0  0  0  0  0  0  0
  137.9038   76.3618  222.4365 H   0  0  0  0  0  0  0  0  0  0  0  0
  139.1282   78.4286  221.7359 H   0  0  0  0  0  0  0  0  0  0  0  0
  142.5742   78.1221  223.1081 H   0  0  0  0  0  0  0  0  0  0  0  0
  142.9459   79.8505  224.8409 H   0  0  0  0  0  0  0  0  0  0  0  0
  142.3726   82.2451  224.3692 H   0  0  0  0  0  0  0  0  0  0  0  0
  141.4140   82.8335  222.1271 H   0  0  0  0  0  0  0  0  0  0  0  0
  141.0549   81.0724  220.4166 H   0  0  0  0  0  0  0  0  0  0  0  0
  142.5544   76.0458  220.6342 H   0  0  0  0  0  0  0  0  0  0  0  0
  1  2  2  0
  2  3  1  0
  3  4  1  0
  4  5  1  0
  5  6  2  0
  6  7  1  0
  7  8  2  0
  8  9  1  0
  9 10  1  0
 10 11  2  0
 10 12  1  0
 12 13  1  0
 13 14  1  0
 14 15  1  0
 15 16  1  0
 16 17  1  0
  9 18  2  0
  4 19  2  0
 19 20  1  0
 20 21  2  0
 21 22  1  0
 22 23  2  0
 23 24  1  0
 24 25  1  0
 25 26  2  0
 26 27  1  0
 27 28  2  0
 28 29  1  0
 29 30  2  0
 23 31  1  0
 31 32  2  0
 32  2  1  0
 18  5  1  0
 32 20  1  0
 17 12  1  0
 30 25  1  0
  3 33  1  0
  3 34  1  0
  6 35  1  0
  7 36  1  0
  8 37  1  0
 13 38  1  0
 13 39  1  0
 14 40  1  0
 14 41  1  0
 16 42  1  0
 16 43  1  0
 17 44  1  0
 17 45  1  0
 18 46  1  0
 21 47  1  0
 22 48  1  0
 26 49  1  0
 27 50  1  0
 28 51  1  0
 29 52  1  0
 30 53  1  0
 31 54  1  0
M  END
>  <smiles>  (19) 
O=C1CC(c2cccc(C(=O)N3CCOCC3)c2)=Nc2ccc(Oc3ccccc3)cc21

>  <score_type>  (19) 
oracle

>  <origin>  (19) 
autodockgpu

>  <m_score__min__energy>  (19) 
-8.6400000000000006

>  <m_primary>  (19) 
energy

>  <rmsd>  (19) 
6.166528391091251

>  <m_score__min__rmsd>  (19) 
6.166528391091251

>  <meeko>  (19) 
{"free_energy": -8.46, "intermolecular_energy": -9.65, "internal_energy": -1.13, "cluster_size": 27, "cluster_id": 1, "rank_in_cluster": 18}

>  <energy>  (19) 
-8.45

>  <cluster_rmsd>  (19) 
1.17

>  <cluster>  (19) 
1

$$$$

     RDKit          3D

 54 58  0  0  0  0  0  0  0  0999 V2000
  143.0080   74.1820  219.5690 O   0  0  0  0  0  0  0  0  0  0  0  0
  142.0430   74.0090  220.3550 C   0  0  0  0  0  0  0  0  0  0  0  0
  141.6230   72.6190  220.6350 C   0  0  0  0  0  0  0  0  0  0  0  0
  140.4790   72.6390  221.5750 C   0  0  0  0  0  0  0  0  0  0  0  0
  139.9050   71.3450  221.9830 C   0  0  0  0  0  0  0  0  0  0  0  0
  139.6940   70.3460  221.0310 C   0  0  0  0  0  0  0  0  0  0  0  0
  139.1560   69.1200  221.3840 C   0  0  0  0  0  0  0  0  0  0  0  0
  138.8320   68.9110  222.7140 C   0  0  0  0  0  0  0  0  0  0  0  0
  139.0190   69.8550  223.6820 C   0  0  0  0  0  0  0  0  0  0  0  0
  138.6990   69.6940  225.0840 C   0  0  0  0  0  0  0  0  0  0  0  0
  137.4560   69.7160  225.3820 O   0  0  0  0  0  0  0  0  0  0  0  0
  139.6680   69.5190  226.0870 N   0  0  0  0  0  0  0  0  0  0  0  0
  141.0980   69.4770  225.8550 C   0  0  0  0  0  0  0  0  0  0  0  0
  141.6850   68.1800  226.4220 C   0  0  0  0  0  0  0  0  0  0  0  0
  140.6430   67.4380  227.0250 O   0  0  0  0  0  0  0  0  0  0  0  0
  140.0880   68.2150  228.0440 C   0  0  0  0  0  0  0  0  0  0  0  0
  139.2410   69.3640  227.4780 C   0  0  0  0  0  0  0  0  0  0  0  0
  139.5640   71.0850  223.2970 C   0  0  0  0  0  0  0  0  0  0  0  0
  139.9430   73.6870  222.0640 N   0  0  0  0  0  0  0  0  0  0  0  0
  140.3480   75.0270  221.7950 C   0  0  0  0  0  0  0  0  0  0  0  0
  139.6930   76.0970  222.3820 C   0  0  0  0  0  0  0  0  0  0  0  0
  140.1290   77.3780  222.0850 C   0  0  0  0  0  0  0  0  0  0  0  0
  141.2030   77.5600  221.2120 C   0  0  0  0  0  0  0  0  0  0  0  0
  141.6630   78.8270  220.8940 O   0  0  0  0  0  0  0  0  0  0  0  0
  141.8130   79.7420  221.9170 C   0  0  0  0  0  0  0  0  0  0  0  0
  142.9170   79.6600  222.7100 C   0  0  0  0  0  0  0  0  0  0  0  0
  143.1390   80.5450  223.7620 C   0  0  0  0  0  0  0  0  0  0  0  0
  142.2180   81.5530  224.0300 C   0  0  0  0  0  0  0  0  0  0  0  0
  141.0810   81.6430  223.2200 C   0  0  0  0  0  0  0  0  0  0  0  0
  140.8840   80.7460  222.1750 C   0  0  0  0  0  0  0  0  0  0  0  0
  141.8440   76.4830  220.6350 C   0  0  0  0  0  0  0  0  0  0  0  0
  141.4100   75.1850  220.9310 C   0  0  0  0  0  0  0  0  0  0  0  0
  141.3209   72.1294  219.6974 H   0  0  0  0  0  0  0  0  0  0  0  0
  142.4598   72.0616  221.0812 H   0  0  0  0  0  0  0  0  0  0  0  0
  139.9601   70.5364  219.9808 H   0  0  0  0  0  0  0  0  0  0  0  0
  138.9909   68.3357  220.6306 H   0  0  0  0  0  0  0  0  0  0  0  0
  138.4044   67.9398  223.0037 H   0  0  0  0  0  0  0  0  0  0  0  0
  141.2927   69.5222  224.7733 H   0  0  0  0  0  0  0  0  0  0  0  0
  141.5697   70.3352  226.3561 H   0  0  0  0  0  0  0  0  0  0  0  0
  142.1366   67.5916  225.6097 H   0  0  0  0  0  0  0  0  0  0  0  0
  142.4599   68.4129  227.1672 H   0  0  0  0  0  0  0  0  0  0  0  0
  139.4499   67.5768  228.6729 H   0  0  0  0  0  0  0  0  0  0  0  0
  140.9092   68.6494  228.6330 H   0  0  0  0  0  0  0  0  0  0  0  0
  138.1713   69.1121  227.5255 H   0  0  0  0  0  0  0  0  0  0  0  0
  139.3785   70.2923  228.0520 H   0  0  0  0  0  0  0  0  0  0  0  0
  139.7248   71.8631  224.0578 H   0  0  0  0  0  0  0  0  0  0  0  0
  138.8478   75.9337  223.0668 H   0  0  0  0  0  0  0  0  0  0  0  0
  139.6305   78.2489  222.5356 H   0  0  0  0  0  0  0  0  0  0  0  0
  143.6567   78.8699  222.5134 H   0  0  0  0  0  0  0  0  0  0  0  0
  144.0428   80.4472  224.3813 H   0  0  0  0  0  0  0  0  0  0  0  0
  142.3797   82.2603  224.8568 H   0  0  0  0  0  0  0  0  0  0  0  0
  140.3363   82.4298  223.4110 H   0  0  0  0  0  0  0  0  0  0  0  0
  139.9853   80.8310  221.5464 H   0  0  0  0  0  0  0  0  0  0  0  0
  142.6885   76.6426  219.9485 H   0  0  0  0  0  0  0  0  0  0  0  0
  1  2  2  0
  2  3  1  0
  3  4  1  0
  4  5  1  0
  5  6  2  0
  6  7  1  0
  7  8  2  0
  8  9  1  0
  9 10  1  0
 10 11  2  0
 10 12  1  0
 12 13  1  0
 13 14  1  0
 14 15  1  0
 15 16  1  0
 16 17  1  0
  9 18  2  0
  4 19  2  0
 19 20  1  0
 20 21  2  0
 21 22  1  0
 22 23  2  0
 23 24  1  0
 24 25  1  0
 25 26  2  0
 26 27  1  0
 27 28  2  0
 28 29  1  0
 29 30  2  0
 23 31  1  0
 31 32  2  0
 32  2  1  0
 18  5  1  0
 32 20  1  0
 17 12  1  0
 30 25  1  0
  3 33  1  0
  3 34  1  0
  6 35  1  0
  7 36  1  0
  8 37  1  0
 13 38  1  0
 13 39  1  0
 14 40  1  0
 14 41  1  0
 16 42  1  0
 16 43  1  0
 17 44  1  0
 17 45  1  0
 18 46  1  0
 21 47  1  0
 22 48  1  0
 26 49  1  0
 27 50  1  0
 28 51  1  0
 29 52  1  0
 30 53  1  0
 31 54  1  0
M  END
>  <smiles>  (20) 
O=C1CC(c2cccc(C(=O)N3CCOCC3)c2)=Nc2ccc(Oc3ccccc3)cc21

>  <score_type>  (20) 
oracle

>  <origin>  (20) 
autodockgpu

>  <m_score__min__energy>  (20) 
-8.6400000000000006

>  <m_primary>  (20) 
energy

>  <rmsd>  (20) 
6.597067195782268

>  <m_score__min__rmsd>  (20) 
6.597067195782268

>  <meeko>  (20) 
{"free_energy": -8.4, "intermolecular_energy": -9.59, "internal_energy": -1.08, "cluster_size": 27, "cluster_id": 1, "rank_in_cluster": 22}

>  <energy>  (20) 
-8.44

>  <cluster_rmsd>  (20) 
0.98

>  <cluster>  (20) 
1

$$$$

     RDKit          3D

 54 58  0  0  0  0  0  0  0  0999 V2000
  142.6560   73.5030  220.7120 O   0  0  0  0  0  0  0  0  0  0  0  0
  141.5150   73.5990  221.2290 C   0  0  0  0  0  0  0  0  0  0  0  0
  140.8200   72.3490  221.6060 C   0  0  0  0  0  0  0  0  0  0  0  0
  139.5010   72.6840  222.1900 C   0  0  0  0  0  0  0  0  0  0  0  0
  138.6460   71.5700  222.6320 C   0  0  0  0  0  0  0  0  0  0  0  0
  137.2860   71.5690  222.3160 C   0  0  0  0  0  0  0  0  0  0  0  0
  136.4560   70.5360  222.7190 C   0  0  0  0  0  0  0  0  0  0  0  0
  137.0150   69.4990  223.4470 C   0  0  0  0  0  0  0  0  0  0  0  0
  138.3380   69.4550  223.7810 C   0  0  0  0  0  0  0  0  0  0  0  0
  138.9760   68.4000  224.5400 C   0  0  0  0  0  0  0  0  0  0  0  0
  139.1820   67.3050  223.9130 O   0  0  0  0  0  0  0  0  0  0  0  0
  139.3610   68.5330  225.8840 N   0  0  0  0  0  0  0  0  0  0  0  0
  139.1730   69.7290  226.6820 C   0  0  0  0  0  0  0  0  0  0  0  0
  140.5140   70.1860  227.2660 C   0  0  0  0  0  0  0  0  0  0  0  0
  141.5170   69.2740  226.8660 O   0  0  0  0  0  0  0  0  0  0  0  0
  141.1740   68.0090  227.3480 C   0  0  0  0  0  0  0  0  0  0  0  0
  140.0010   67.4050  226.5630 C   0  0  0  0  0  0  0  0  0  0  0  0
  139.1530   70.5110  223.3620 C   0  0  0  0  0  0  0  0  0  0  0  0
  139.0400   73.8620  222.3410 N   0  0  0  0  0  0  0  0  0  0  0  0
  139.7080   75.0680  221.9790 C   0  0  0  0  0  0  0  0  0  0  0  0
  139.1120   76.2990  222.1890 C   0  0  0  0  0  0  0  0  0  0  0  0
  139.8070   77.4390  221.8160 C   0  0  0  0  0  0  0  0  0  0  0  0
  141.0750   77.3220  221.2450 C   0  0  0  0  0  0  0  0  0  0  0  0
  141.7960   78.4400  220.8620 O   0  0  0  0  0  0  0  0  0  0  0  0
  141.9210   79.4770  221.7650 C   0  0  0  0  0  0  0  0  0  0  0  0
  141.3750   80.6850  221.4520 C   0  0  0  0  0  0  0  0  0  0  0  0
  141.4610   81.7790  222.3110 C   0  0  0  0  0  0  0  0  0  0  0  0
  142.1170   81.6570  223.5320 C   0  0  0  0  0  0  0  0  0  0  0  0
  142.6790   80.4190  223.8600 C   0  0  0  0  0  0  0  0  0  0  0  0
  142.5800   79.3420  222.9840 C   0  0  0  0  0  0  0  0  0  0  0  0
  141.6550   76.0860  221.0420 C   0  0  0  0  0  0  0  0  0  0  0  0
  140.9590   74.9300  221.4160 C   0  0  0  0  0  0  0  0  0  0  0  0
  140.6788   71.7225  220.7129 H   0  0  0  0  0  0  0  0  0  0  0  0
  141.4224   71.7985  222.3436 H   0  0  0  0  0  0  0  0  0  0  0  0
  136.8659   72.4041  221.7362 H   0  0  0  0  0  0  0  0  0  0  0  0
  135.3849   70.5392  222.4683 H   0  0  0  0  0  0  0  0  0  0  0  0
  136.3638   68.6737  223.7707 H   0  0  0  0  0  0  0  0  0  0  0  0
  138.7602   70.5282  226.0488 H   0  0  0  0  0  0  0  0  0  0  0  0
  138.4774   69.5081  227.5050 H   0  0  0  0  0  0  0  0  0  0  0  0
  140.7573   71.1914  226.8918 H   0  0  0  0  0  0  0  0  0  0  0  0
  140.4531   70.2183  228.3638 H   0  0  0  0  0  0  0  0  0  0  0  0
  142.0452   67.3437  227.2566 H   0  0  0  0  0  0  0  0  0  0  0  0
  140.8679   68.1124  228.3995 H   0  0  0  0  0  0  0  0  0  0  0  0
  140.3669   66.6721  225.8289 H   0  0  0  0  0  0  0  0  0  0  0  0
  139.2987   66.8750  227.2232 H   0  0  0  0  0  0  0  0  0  0  0  0
  140.2225   70.4989  223.6191 H   0  0  0  0  0  0  0  0  0  0  0  0
  138.1116   76.3712  222.6407 H   0  0  0  0  0  0  0  0  0  0  0  0
  139.3605   78.4325  221.9696 H   0  0  0  0  0  0  0  0  0  0  0  0
  140.8503   80.8005  220.4921 H   0  0  0  0  0  0  0  0  0  0  0  0
  141.0097   82.7401  222.0234 H   0  0  0  0  0  0  0  0  0  0  0  0
  142.1916   82.5114  224.2208 H   0  0  0  0  0  0  0  0  0  0  0  0
  143.2039   80.2954  224.8188 H   0  0  0  0  0  0  0  0  0  0  0  0
  143.0268   78.3747  223.2574 H   0  0  0  0  0  0  0  0  0  0  0  0
  142.6551   76.0098  220.5904 H   0  0  0  0  0  0  0  0  0  0  0  0
  1  2  2  0
  2  3  1  0
  3  4  1  0
  4  5  1  0
  5  6  2  0
  6  7  1  0
  7  8  2  0
  8  9  1  0
  9 10  1  0
 10 11  2  0
 10 12  1  0
 12 13  1  0
 13 14  1  0
 14 15  1  0
 15 16  1  0
 16 17  1  0
  9 18  2  0
  4 19  2  0
 19 20  1  0
 20 21  2  0
 21 22  1  0
 22 23  2  0
 23 24  1  0
 24 25  1  0
 25 26  2  0
 26 27  1  0
 27 28  2  0
 28 29  1  0
 29 30  2  0
 23 31  1  0
 31 32  2  0
 32  2  1  0
 18  5  1  0
 32 20  1  0
 17 12  1  0
 30 25  1  0
  3 33  1  0
  3 34  1  0
  6 35  1  0
  7 36  1  0
  8 37  1  0
 13 38  1  0
 13 39  1  0
 14 40  1  0
 14 41  1  0
 16 42  1  0
 16 43  1  0
 17 44  1  0
 17 45  1  0
 18 46  1  0
 21 47  1  0
 22 48  1  0
 26 49  1  0
 27 50  1  0
 28 51  1  0
 29 52  1  0
 30 53  1  0
 31 54  1  0
M  END
>  <smiles>  (21) 
O=C1CC(c2cccc(C(=O)N3CCOCC3)c2)=Nc2ccc(Oc3ccccc3)cc21

>  <score_type>  (21) 
oracle

>  <origin>  (21) 
autodockgpu

>  <m_score__min__energy>  (21) 
-8.6400000000000006

>  <m_primary>  (21) 
energy

>  <rmsd>  (21) 
6.162408817340056

>  <m_score__min__rmsd>  (21) 
6.162408817340056

>  <meeko>  (21) 
{"free_energy": -8.58, "intermolecular_energy": -9.77, "internal_energy": -1.13, "cluster_size": 27, "cluster_id": 1, "rank_in_cluster": 3}

>  <energy>  (21) 
-8.42

>  <cluster_rmsd>  (21) 
1.11

>  <cluster>  (21) 
1

$$$$

     RDKit          3D

 54 58  0  0  0  0  0  0  0  0999 V2000
  143.0650   74.3260  219.4630 O   0  0  0  0  0  0  0  0  0  0  0  0
  142.1090   74.1280  220.2530 C   0  0  0  0  0  0  0  0  0  0  0  0
  141.7330   72.7260  220.5420 C   0  0  0  0  0  0  0  0  0  0  0  0
  140.5920   72.7150  221.4860 C   0  0  0  0  0  0  0  0  0  0  0  0
  140.0610   71.4060  221.9030 C   0  0  0  0  0  0  0  0  0  0  0  0
  139.9490   70.3720  220.9730 C   0  0  0  0  0  0  0  0  0  0  0  0
  139.4540   69.1300  221.3350 C   0  0  0  0  0  0  0  0  0  0  0  0
  139.0700   68.9430  222.6530 C   0  0  0  0  0  0  0  0  0  0  0  0
  139.1590   69.9230  223.5990 C   0  0  0  0  0  0  0  0  0  0  0  0
  138.7740   69.7850  224.9870 C   0  0  0  0  0  0  0  0  0  0  0  0
  137.5230   69.8870  225.2340 O   0  0  0  0  0  0  0  0  0  0  0  0
  139.6880   69.5530  226.0280 N   0  0  0  0  0  0  0  0  0  0  0  0
  141.1210   69.4210  225.8550 C   0  0  0  0  0  0  0  0  0  0  0  0
  141.6010   68.0910  226.4450 C   0  0  0  0  0  0  0  0  0  0  0  0
  140.4920   67.4180  227.0050 O   0  0  0  0  0  0  0  0  0  0  0  0
  139.9460   68.2300  228.0010 C   0  0  0  0  0  0  0  0  0  0  0  0
  139.1950   69.4290  227.4010 C   0  0  0  0  0  0  0  0  0  0  0  0
  139.6640   71.1670  223.2050 C   0  0  0  0  0  0  0  0  0  0  0  0
  140.0250   73.7490  221.9690 N   0  0  0  0  0  0  0  0  0  0  0  0
  140.3860   75.1000  221.6920 C   0  0  0  0  0  0  0  0  0  0  0  0
  139.6990   76.1510  222.2740 C   0  0  0  0  0  0  0  0  0  0  0  0
  140.0930   77.4440  221.9680 C   0  0  0  0  0  0  0  0  0  0  0  0
  141.1580   77.6550  221.0910 C   0  0  0  0  0  0  0  0  0  0  0  0
  141.5760   78.9340  220.7630 O   0  0  0  0  0  0  0  0  0  0  0  0
  141.8240   79.8220  221.7910 C   0  0  0  0  0  0  0  0  0  0  0  0
  141.2440   81.0530  221.7440 C   0  0  0  0  0  0  0  0  0  0  0  0
  141.4470   82.0040  222.7420 C   0  0  0  0  0  0  0  0  0  0  0  0
  142.2620   81.7080  223.8310 C   0  0  0  0  0  0  0  0  0  0  0  0
  142.8610   80.4450  223.8850 C   0  0  0  0  0  0  0  0  0  0  0  0
  142.6420   79.5140  222.8740 C   0  0  0  0  0  0  0  0  0  0  0  0
  141.8320   76.5950  220.5180 C   0  0  0  0  0  0  0  0  0  0  0  0
  141.4400   75.2860  220.8230 C   0  0  0  0  0  0  0  0  0  0  0  0
  141.4432   72.2223  219.6080 H   0  0  0  0  0  0  0  0  0  0  0  0
  142.5883   72.1974  220.9883 H   0  0  0  0  0  0  0  0  0  0  0  0
  140.2598   70.5464  219.9323 H   0  0  0  0  0  0  0  0  0  0  0  0
  139.3684   68.3172  220.5988 H   0  0  0  0  0  0  0  0  0  0  0  0
  138.6755   67.9602  222.9506 H   0  0  0  0  0  0  0  0  0  0  0  0
  141.3625   69.4517  224.7823 H   0  0  0  0  0  0  0  0  0  0  0  0
  141.6248   70.2490  226.3753 H   0  0  0  0  0  0  0  0  0  0  0  0
  142.0469   67.4734  225.6515 H   0  0  0  0  0  0  0  0  0  0  0  0
  142.3582   68.2765  227.2211 H   0  0  0  0  0  0  0  0  0  0  0  0
  139.2447   67.6341  228.6035 H   0  0  0  0  0  0  0  0  0  0  0  0
  140.7682   68.6137  228.6229 H   0  0  0  0  0  0  0  0  0  0  0  0
  138.1106   69.2442  227.4048 H   0  0  0  0  0  0  0  0  0  0  0  0
  139.3658   70.3484  227.9802 H   0  0  0  0  0  0  0  0  0  0  0  0
  139.7469   71.9733  223.9487 H   0  0  0  0  0  0  0  0  0  0  0  0
  138.8613   75.9648  222.9622 H   0  0  0  0  0  0  0  0  0  0  0  0
  139.5681   78.3012  222.4149 H   0  0  0  0  0  0  0  0  0  0  0  0
  140.5953   81.3045  220.8920 H   0  0  0  0  0  0  0  0  0  0  0  0
  140.9630   82.9891  222.6693 H   0  0  0  0  0  0  0  0  0  0  0  0
  142.4305   82.4475  224.6277 H   0  0  0  0  0  0  0  0  0  0  0  0
  143.5107   80.1855  224.7338 H   0  0  0  0  0  0  0  0  0  0  0  0
  143.1201   78.5250  222.9315 H   0  0  0  0  0  0  0  0  0  0  0  0
  142.6692   76.7772  219.8282 H   0  0  0  0  0  0  0  0  0  0  0  0
  1  2  2  0
  2  3  1  0
  3  4  1  0
  4  5  1  0
  5  6  2  0
  6  7  1  0
  7  8  2  0
  8  9  1  0
  9 10  1  0
 10 11  2  0
 10 12  1  0
 12 13  1  0
 13 14  1  0
 14 15  1  0
 15 16  1  0
 16 17  1  0
  9 18  2  0
  4 19  2  0
 19 20  1  0
 20 21  2  0
 21 22  1  0
 22 23  2  0
 23 24  1  0
 24 25  1  0
 25 26  2  0
 26 27  1  0
 27 28  2  0
 28 29  1  0
 29 30  2  0
 23 31  1  0
 31 32  2  0
 32  2  1  0
 18  5  1  0
 32 20  1  0
 17 12  1  0
 30 25  1  0
  3 33  1  0
  3 34  1  0
  6 35  1  0
  7 36  1  0
  8 37  1  0
 13 38  1  0
 13 39  1  0
 14 40  1  0
 14 41  1  0
 16 42  1  0
 16 43  1  0
 17 44  1  0
 17 45  1  0
 18 46  1  0
 21 47  1  0
 22 48  1  0
 26 49  1  0
 27 50  1  0
 28 51  1  0
 29 52  1  0
 30 53  1  0
 31 54  1  0
M  END
>  <smiles>  (22) 
O=C1CC(c2cccc(C(=O)N3CCOCC3)c2)=Nc2ccc(Oc3ccccc3)cc21

>  <score_type>  (22) 
oracle

>  <origin>  (22) 
autodockgpu

>  <m_score__min__energy>  (22) 
-8.6400000000000006

>  <m_primary>  (22) 
energy

>  <rmsd>  (22) 
6.68197539950344

>  <m_score__min__rmsd>  (22) 
6.68197539950344

>  <meeko>  (22) 
{"free_energy": -8.45, "intermolecular_energy": -9.64, "internal_energy": -1.09, "cluster_size": 27, "cluster_id": 1, "rank_in_cluster": 19}

>  <energy>  (22) 
-8.4

>  <cluster_rmsd>  (22) 
1.07

>  <cluster>  (22) 
1

$$$$

     RDKit          3D

 54 58  0  0  0  0  0  0  0  0999 V2000
  142.6080   73.3800  220.2100 O   0  0  0  0  0  0  0  0  0  0  0  0
  141.5410   73.4450  220.8710 C   0  0  0  0  0  0  0  0  0  0  0  0
  140.8480   72.1760  221.1870 C   0  0  0  0  0  0  0  0  0  0  0  0
  139.6230   72.4740  221.9630 C   0  0  0  0  0  0  0  0  0  0  0  0
  138.7830   71.3380  222.3790 C   0  0  0  0  0  0  0  0  0  0  0  0
  137.4880   71.2090  221.8750 C   0  0  0  0  0  0  0  0  0  0  0  0
  136.6740   70.1520  222.2480 C   0  0  0  0  0  0  0  0  0  0  0  0
  137.1840   69.2220  223.1390 C   0  0  0  0  0  0  0  0  0  0  0  0
  138.4430   69.3060  223.6610 C   0  0  0  0  0  0  0  0  0  0  0  0
  139.0270   68.3670  224.5940 C   0  0  0  0  0  0  0  0  0  0  0  0
  139.1980   67.1770  224.1600 O   0  0  0  0  0  0  0  0  0  0  0  0
  139.3980   68.7060  225.9070 N   0  0  0  0  0  0  0  0  0  0  0  0
  139.2470   70.0230  226.4940 C   0  0  0  0  0  0  0  0  0  0  0  0
  140.5970   70.5190  227.0230 C   0  0  0  0  0  0  0  0  0  0  0  0
  141.5680   69.5170  226.7980 O   0  0  0  0  0  0  0  0  0  0  0  0
  141.1670   68.3620  227.4740 C   0  0  0  0  0  0  0  0  0  0  0  0
  139.9820   67.6820  226.7740 C   0  0  0  0  0  0  0  0  0  0  0  0
  139.2430   70.3840  223.2670 C   0  0  0  0  0  0  0  0  0  0  0  0
  139.2290   73.6380  222.3020 N   0  0  0  0  0  0  0  0  0  0  0  0
  139.8960   74.8610  221.9980 C   0  0  0  0  0  0  0  0  0  0  0  0
  139.3780   76.0740  222.4170 C   0  0  0  0  0  0  0  0  0  0  0  0
  140.0670   77.2320  222.0930 C   0  0  0  0  0  0  0  0  0  0  0  0
  141.2530   77.1500  221.3610 C   0  0  0  0  0  0  0  0  0  0  0  0
  141.9660   78.2870  221.0200 O   0  0  0  0  0  0  0  0  0  0  0  0
  142.0080   79.3260  221.9270 C   0  0  0  0  0  0  0  0  0  0  0  0
  141.0920   80.3280  221.8170 C   0  0  0  0  0  0  0  0  0  0  0  0
  141.0710   81.4100  222.6930 C   0  0  0  0  0  0  0  0  0  0  0  0
  142.0050   81.4920  223.7220 C   0  0  0  0  0  0  0  0  0  0  0  0
  142.9500   80.4670  223.8410 C   0  0  0  0  0  0  0  0  0  0  0  0
  142.9480   79.3960  222.9520 C   0  0  0  0  0  0  0  0  0  0  0  0
  141.7560   75.9320  220.9500 C   0  0  0  0  0  0  0  0  0  0  0  0
  141.0640   74.7580  221.2740 C   0  0  0  0  0  0  0  0  0  0  0  0
  140.5767   71.6619  220.2531 H   0  0  0  0  0  0  0  0  0  0  0  0
  141.5123   71.5276  221.7772 H   0  0  0  0  0  0  0  0  0  0  0  0
  137.1065   71.9607  221.1683 H   0  0  0  0  0  0  0  0  0  0  0  0
  135.6537   70.0541  221.8488 H   0  0  0  0  0  0  0  0  0  0  0  0
  136.5461   68.3778  223.4396 H   0  0  0  0  0  0  0  0  0  0  0  0
  138.8761   70.7220  225.7299 H   0  0  0  0  0  0  0  0  0  0  0  0
  138.5312   69.9670  227.3274 H   0  0  0  0  0  0  0  0  0  0  0  0
  140.8859   71.4396  226.4947 H   0  0  0  0  0  0  0  0  0  0  0  0
  140.5219   70.7330  228.0994 H   0  0  0  0  0  0  0  0  0  0  0  0
  142.0117   67.6583  227.5111 H   0  0  0  0  0  0  0  0  0  0  0  0
  140.8504   68.6483  228.4878 H   0  0  0  0  0  0  0  0  0  0  0  0
  140.3284   66.8254  226.1772 H   0  0  0  0  0  0  0  0  0  0  0  0
  139.2494   67.2943  227.4972 H   0  0  0  0  0  0  0  0  0  0  0  0
  140.2612   70.4744  223.6732 H   0  0  0  0  0  0  0  0  0  0  0  0
  138.4421   76.1179  222.9933 H   0  0  0  0  0  0  0  0  0  0  0  0
  139.6810   78.2117  222.4113 H   0  0  0  0  0  0  0  0  0  0  0  0
  140.3453   80.2809  221.0107 H   0  0  0  0  0  0  0  0  0  0  0  0
  140.3158   82.2006  222.5719 H   0  0  0  0  0  0  0  0  0  0  0  0
  142.0002   82.3399  224.4228 H   0  0  0  0  0  0  0  0  0  0  0  0
  143.7008   80.5079  224.6439 H   0  0  0  0  0  0  0  0  0  0  0  0
  143.6963   78.5971  223.0602 H   0  0  0  0  0  0  0  0  0  0  0  0
  142.6915   75.8838  220.3734 H   0  0  0  0  0  0  0  0  0  0  0  0
  1  2  2  0
  2  3  1  0
  3  4  1  0
  4  5  1  0
  5  6  2  0
  6  7  1  0
  7  8  2  0
  8  9  1  0
  9 10  1  0
 10 11  2  0
 10 12  1  0
 12 13  1  0
 13 14  1  0
 14 15  1  0
 15 16  1  0
 16 17  1  0
  9 18  2  0
  4 19  2  0
 19 20  1  0
 20 21  2  0
 21 22  1  0
 22 23  2  0
 23 24  1  0
 24 25  1  0
 25 26  2  0
 26 27  1  0
 27 28  2  0
 28 29  1  0
 29 30  2  0
 23 31  1  0
 31 32  2  0
 32  2  1  0
 18  5  1  0
 32 20  1  0
 17 12  1  0
 30 25  1  0
  3 33  1  0
  3 34  1  0
  6 35  1  0
  7 36  1  0
  8 37  1  0
 13 38  1  0
 13 39  1  0
 14 40  1  0
 14 41  1  0
 16 42  1  0
 16 43  1  0
 17 44  1  0
 17 45  1  0
 18 46  1  0
 21 47  1  0
 22 48  1  0
 26 49  1  0
 27 50  1  0
 28 51  1  0
 29 52  1  0
 30 53  1  0
 31 54  1  0
M  END
>  <smiles>  (23) 
O=C1CC(c2cccc(C(=O)N3CCOCC3)c2)=Nc2ccc(Oc3ccccc3)cc21

>  <score_type>  (23) 
oracle

>  <origin>  (23) 
autodockgpu

>  <m_score__min__energy>  (23) 
-8.6400000000000006

>  <m_primary>  (23) 
energy

>  <rmsd>  (23) 
6.126167136515211

>  <m_score__min__rmsd>  (23) 
6.126167136515211

>  <meeko>  (23) 
{"free_energy": -8.49, "intermolecular_energy": -9.68, "internal_energy": -1.08, "cluster_size": 27, "cluster_id": 1, "rank_in_cluster": 16}

>  <energy>  (23) 
-8.4

>  <cluster_rmsd>  (23) 
0.92

>  <cluster>  (23) 
1

$$$$

     RDKit          3D

 54 58  0  0  0  0  0  0  0  0999 V2000
  143.8480   72.3950  220.6820 O   0  0  0  0  0  0  0  0  0  0  0  0
  142.9760   73.2990  220.6590 C   0  0  0  0  0  0  0  0  0  0  0  0
  143.3050   74.5570  219.9530 C   0  0  0  0  0  0  0  0  0  0  0  0
  142.1520   75.4810  220.0460 C   0  0  0  0  0  0  0  0  0  0  0  0
  142.2790   76.8000  219.4040 C   0  0  0  0  0  0  0  0  0  0  0  0
  142.8210   76.9010  218.1220 C   0  0  0  0  0  0  0  0  0  0  0  0
  142.9530   78.1270  217.4920 C   0  0  0  0  0  0  0  0  0  0  0  0
  142.5300   79.2570  218.1730 C   0  0  0  0  0  0  0  0  0  0  0  0
  141.9940   79.2110  219.4280 C   0  0  0  0  0  0  0  0  0  0  0  0
  141.5380   80.3550  220.1870 C   0  0  0  0  0  0  0  0  0  0  0  0
  140.8350   81.2090  219.5450 O   0  0  0  0  0  0  0  0  0  0  0  0
  141.8260   80.5500  221.5480 N   0  0  0  0  0  0  0  0  0  0  0  0
  142.6090   79.6430  222.3640 C   0  0  0  0  0  0  0  0  0  0  0  0
  141.8050   79.2170  223.5970 C   0  0  0  0  0  0  0  0  0  0  0  0
  140.5520   79.8710  223.5670 O   0  0  0  0  0  0  0  0  0  0  0  0
  140.7780   81.2490  223.5780 C   0  0  0  0  0  0  0  0  0  0  0  0
  141.3160   81.7420  222.2260 C   0  0  0  0  0  0  0  0  0  0  0  0
  141.8720   77.9580  220.0400 C   0  0  0  0  0  0  0  0  0  0  0  0
  141.0530   75.2310  220.6400 N   0  0  0  0  0  0  0  0  0  0  0  0
  140.7330   74.0190  221.3190 C   0  0  0  0  0  0  0  0  0  0  0  0
  139.5040   73.8530  221.9330 C   0  0  0  0  0  0  0  0  0  0  0  0
  139.2470   72.6550  222.5800 C   0  0  0  0  0  0  0  0  0  0  0  0
  140.2220   71.6550  222.5990 C   0  0  0  0  0  0  0  0  0  0  0  0
  139.9980   70.4460  223.2370 O   0  0  0  0  0  0  0  0  0  0  0  0
  140.2050   70.3810  224.6000 C   0  0  0  0  0  0  0  0  0  0  0  0
  140.7220   71.4690  225.2350 C   0  0  0  0  0  0  0  0  0  0  0  0
  140.9610   71.4790  226.6080 C   0  0  0  0  0  0  0  0  0  0  0  0
  140.6670   70.3550  227.3740 C   0  0  0  0  0  0  0  0  0  0  0  0
  140.1360   69.2340  226.7280 C   0  0  0  0  0  0  0  0  0  0  0  0
  139.9080   69.2500  225.3550 C   0  0  0  0  0  0  0  0  0  0  0  0
  141.4430   71.8370  221.9830 C   0  0  0  0  0  0  0  0  0  0  0  0
  141.7090   73.0450  221.3270 C   0  0  0  0  0  0  0  0  0  0  0  0
  144.1871   75.0208  220.4186 H   0  0  0  0  0  0  0  0  0  0  0  0
  143.5235   74.3426  218.8965 H   0  0  0  0  0  0  0  0  0  0  0  0
  143.1497   75.9891  217.6019 H   0  0  0  0  0  0  0  0  0  0  0  0
  143.3808   78.2015  216.4813 H   0  0  0  0  0  0  0  0  0  0  0  0
  142.6305   80.2354  217.6804 H   0  0  0  0  0  0  0  0  0  0  0  0
  142.8673   78.7523  221.7725 H   0  0  0  0  0  0  0  0  0  0  0  0
  143.5266   80.1539  222.6912 H   0  0  0  0  0  0  0  0  0  0  0  0
  141.6546   78.1274  223.5830 H   0  0  0  0  0  0  0  0  0  0  0  0
  142.3493   79.4900  224.5131 H   0  0  0  0  0  0  0  0  0  0  0  0
  139.8311   81.7648  223.7955 H   0  0  0  0  0  0  0  0  0  0  0  0
  141.5301   81.4693  224.3499 H   0  0  0  0  0  0  0  0  0  0  0  0
  140.5097   82.2035  221.6370 H   0  0  0  0  0  0  0  0  0  0  0  0
  142.0984   82.5047  222.3526 H   0  0  0  0  0  0  0  0  0  0  0  0
  141.4422   77.8933  221.0505 H   0  0  0  0  0  0  0  0  0  0  0  0
  138.7493   74.6529  221.9080 H   0  0  0  0  0  0  0  0  0  0  0  0
  138.2791   72.4921  223.0766 H   0  0  0  0  0  0  0  0  0  0  0  0
  140.9583   72.3676  224.6462 H   0  0  0  0  0  0  0  0  0  0  0  0
  141.3821   72.3756  227.0863 H   0  0  0  0  0  0  0  0  0  0  0  0
  140.8475   70.3484  228.4591 H   0  0  0  0  0  0  0  0  0  0  0  0
  139.8965   68.3318  227.3100 H   0  0  0  0  0  0  0  0  0  0  0  0
  139.4891   68.3604  224.8619 H   0  0  0  0  0  0  0  0  0  0  0  0
  142.2008   71.0401  222.0070 H   0  0  0  0  0  0  0  0  0  0  0  0
  1  2  2  0
  2  3  1  0
  3  4  1  0
  4  5  1  0
  5  6  2  0
  6  7  1  0
  7  8  2  0
  8  9  1  0
  9 10  1  0
 10 11  2  0
 10 12  1  0
 12 13  1  0
 13 14  1  0
 14 15  1  0
 15 16  1  0
 16 17  1  0
  9 18  2  0
  4 19  2  0
 19 20  1  0
 20 21  2  0
 21 22  1  0
 22 23  2  0
 23 24  1  0
 24 25  1  0
 25 26  2  0
 26 27  1  0
 27 28  2  0
 28 29  1  0
 29 30  2  0
 23 31  1  0
 31 32  2  0
 32  2  1  0
 18  5  1  0
 32 20  1  0
 17 12  1  0
 30 25  1  0
  3 33  1  0
  3 34  1  0
  6 35  1  0
  7 36  1  0
  8 37  1  0
 13 38  1  0
 13 39  1  0
 14 40  1  0
 14 41  1  0
 16 42  1  0
 16 43  1  0
 17 44  1  0
 17 45  1  0
 18 46  1  0
 21 47  1  0
 22 48  1  0
 26 49  1  0
 27 50  1  0
 28 51  1  0
 29 52  1  0
 30 53  1  0
 31 54  1  0
M  END
>  <smiles>  (24) 
O=C1CC(c2cccc(C(=O)N3CCOCC3)c2)=Nc2ccc(Oc3ccccc3)cc21

>  <score_type>  (24) 
oracle

>  <origin>  (24) 
autodockgpu

>  <m_score__min__energy>  (24) 
-8.6400000000000006

>  <m_primary>  (24) 
energy

>  <rmsd>  (24) 
8.390249719590948

>  <m_score__min__rmsd>  (24) 
8.390249719590948

>  <meeko>  (24) 
{"free_energy": -8.47, "intermolecular_energy": -9.66, "internal_energy": -1.0, "cluster_size": 21, "cluster_id": 2, "rank_in_cluster": 5}

>  <energy>  (24) 
-8.39

>  <cluster_rmsd>  (24) 
1.23

>  <cluster>  (24) 
1

$$$$

     RDKit          3D

 54 58  0  0  0  0  0  0  0  0999 V2000
  142.6880   73.4930  220.4650 O   0  0  0  0  0  0  0  0  0  0  0  0
  141.5790   73.5810  221.0500 C   0  0  0  0  0  0  0  0  0  0  0  0
  140.8820   72.3240  221.3990 C   0  0  0  0  0  0  0  0  0  0  0  0
  139.6040   72.6500  222.0740 C   0  0  0  0  0  0  0  0  0  0  0  0
  138.7520   71.5290  222.5050 C   0  0  0  0  0  0  0  0  0  0  0  0
  137.4230   71.4630  222.0830 C   0  0  0  0  0  0  0  0  0  0  0  0
  136.5970   70.4220  222.4720 C   0  0  0  0  0  0  0  0  0  0  0  0
  137.1290   69.4420  223.2950 C   0  0  0  0  0  0  0  0  0  0  0  0
  138.4210   69.4630  223.7340 C   0  0  0  0  0  0  0  0  0  0  0  0
  139.0300   68.4710  224.5930 C   0  0  0  0  0  0  0  0  0  0  0  0
  139.2240   67.3190  224.0720 O   0  0  0  0  0  0  0  0  0  0  0  0
  139.4010   68.7190  225.9260 N   0  0  0  0  0  0  0  0  0  0  0  0
  139.2270   69.9860  226.6080 C   0  0  0  0  0  0  0  0  0  0  0  0
  140.5690   70.4700  227.1670 C   0  0  0  0  0  0  0  0  0  0  0  0
  141.5590   69.5070  226.8650 O   0  0  0  0  0  0  0  0  0  0  0  0
  141.1870   68.2980  227.4560 C   0  0  0  0  0  0  0  0  0  0  0  0
  140.0120   67.6460  226.7130 C   0  0  0  0  0  0  0  0  0  0  0  0
  139.2340   70.5270  223.3260 C   0  0  0  0  0  0  0  0  0  0  0  0
  139.1760   73.8260  222.3140 N   0  0  0  0  0  0  0  0  0  0  0  0
  139.8470   75.0380  221.9780 C   0  0  0  0  0  0  0  0  0  0  0  0
  139.2890   76.2670  222.2860 C   0  0  0  0  0  0  0  0  0  0  0  0
  139.9850   77.4130  221.9360 C   0  0  0  0  0  0  0  0  0  0  0  0
  141.2170   77.3050  221.2880 C   0  0  0  0  0  0  0  0  0  0  0  0
  141.9380   78.4290  220.9240 O   0  0  0  0  0  0  0  0  0  0  0  0
  141.9970   79.4820  221.8150 C   0  0  0  0  0  0  0  0  0  0  0  0
  142.8630   79.4030  222.8630 C   0  0  0  0  0  0  0  0  0  0  0  0
  142.9790   80.4240  223.8050 C   0  0  0  0  0  0  0  0  0  0  0  0
  142.1970   81.5690  223.6900 C   0  0  0  0  0  0  0  0  0  0  0  0
  141.3050   81.6570  222.6160 C   0  0  0  0  0  0  0  0  0  0  0  0
  141.2080   80.6230  221.6900 C   0  0  0  0  0  0  0  0  0  0  0  0
  141.7590   76.0720  220.9870 C   0  0  0  0  0  0  0  0  0  0  0  0
  141.0620   74.9090  221.3390 C   0  0  0  0  0  0  0  0  0  0  0  0
  140.6789   71.7489  220.4835 H   0  0  0  0  0  0  0  0  0  0  0  0
  141.5136   71.7241  222.0707 H   0  0  0  0  0  0  0  0  0  0  0  0
  137.0245   72.2528  221.4292 H   0  0  0  0  0  0  0  0  0  0  0  0
  135.5501   70.3743  222.1379 H   0  0  0  0  0  0  0  0  0  0  0  0
  136.4810   68.6102  223.6083 H   0  0  0  0  0  0  0  0  0  0  0  0
  138.8382   70.7311  225.8983 H   0  0  0  0  0  0  0  0  0  0  0  0
  138.5170   69.8544  227.4378 H   0  0  0  0  0  0  0  0  0  0  0  0
  140.8363   71.4327  226.7067 H   0  0  0  0  0  0  0  0  0  0  0  0
  140.4954   70.6032  228.2564 H   0  0  0  0  0  0  0  0  0  0  0  0
  142.0465   67.6118  227.4374 H   0  0  0  0  0  0  0  0  0  0  0  0
  140.8709   68.5022  228.4896 H   0  0  0  0  0  0  0  0  0  0  0  0
  140.3727   66.8432  226.0532 H   0  0  0  0  0  0  0  0  0  0  0  0
  139.2921   67.1906  227.4090 H   0  0  0  0  0  0  0  0  0  0  0  0
  140.2793   70.5665  223.6662 H   0  0  0  0  0  0  0  0  0  0  0  0
  138.3167   76.3322  222.7962 H   0  0  0  0  0  0  0  0  0  0  0  0
  139.5683   78.4043  222.1679 H   0  0  0  0  0  0  0  0  0  0  0  0
  143.4904   78.5058  222.9695 H   0  0  0  0  0  0  0  0  0  0  0  0
  143.6889   80.3244  224.6393 H   0  0  0  0  0  0  0  0  0  0  0  0
  142.2781   82.3838  224.4245 H   0  0  0  0  0  0  0  0  0  0  0  0
  140.6748   82.5514  222.5025 H   0  0  0  0  0  0  0  0  0  0  0  0
  140.5014   80.7075  220.8512 H   0  0  0  0  0  0  0  0  0  0  0  0
  142.7301   76.0031  220.4750 H   0  0  0  0  0  0  0  0  0  0  0  0
  1  2  2  0
  2  3  1  0
  3  4  1  0
  4  5  1  0
  5  6  2  0
  6  7  1  0
  7  8  2  0
  8  9  1  0
  9 10  1  0
 10 11  2  0
 10 12  1  0
 12 13  1  0
 13 14  1  0
 14 15  1  0
 15 16  1  0
 16 17  1  0
  9 18  2  0
  4 19  2  0
 19 20  1  0
 20 21  2  0
 21 22  1  0
 22 23  2  0
 23 24  1  0
 24 25  1  0
 25 26  2  0
 26 27  1  0
 27 28  2  0
 28 29  1  0
 29 30  2  0
 23 31  1  0
 31 32  2  0
 32  2  1  0
 18  5  1  0
 32 20  1  0
 17 12  1  0
 30 25  1  0
  3 33  1  0
  3 34  1  0
  6 35  1  0
  7 36  1  0
  8 37  1  0
 13 38  1  0
 13 39  1  0
 14 40  1  0
 14 41  1  0
 16 42  1  0
 16 43  1  0
 17 44  1  0
 17 45  1  0
 18 46  1  0
 21 47  1  0
 22 48  1  0
 26 49  1  0
 27 50  1  0
 28 51  1  0
 29 52  1  0
 30 53  1  0
 31 54  1  0
M  END
>  <smiles>  (25) 
O=C1CC(c2cccc(C(=O)N3CCOCC3)c2)=Nc2ccc(Oc3ccccc3)cc21

>  <score_type>  (25) 
oracle

>  <origin>  (25) 
autodockgpu

>  <m_score__min__energy>  (25) 
-8.6400000000000006

>  <m_primary>  (25) 
energy

>  <rmsd>  (25) 
6.15418063527489

>  <m_score__min__rmsd>  (25) 
6.15418063527489

>  <meeko>  (25) 
{"free_energy": -8.57, "intermolecular_energy": -9.77, "internal_energy": -1.12, "cluster_size": 27, "cluster_id": 1, "rank_in_cluster": 5}

>  <energy>  (25) 
-8.38

>  <cluster_rmsd>  (25) 
1.12

>  <cluster>  (25) 
1

$$$$

     RDKit          3D

 54 58  0  0  0  0  0  0  0  0999 V2000
  143.0910   74.1030  219.5000 O   0  0  0  0  0  0  0  0  0  0  0  0
  142.1250   73.9460  220.2870 C   0  0  0  0  0  0  0  0  0  0  0  0
  141.6920   72.5610  220.5790 C   0  0  0  0  0  0  0  0  0  0  0  0
  140.5480   72.5990  221.5180 C   0  0  0  0  0  0  0  0  0  0  0  0
  139.9630   71.3140  221.9370 C   0  0  0  0  0  0  0  0  0  0  0  0
  139.7570   70.3040  220.9960 C   0  0  0  0  0  0  0  0  0  0  0  0
  139.2090   69.0850  221.3590 C   0  0  0  0  0  0  0  0  0  0  0  0
  138.8680   68.8960  222.6880 C   0  0  0  0  0  0  0  0  0  0  0  0
  139.0490   69.8520  223.6450 C   0  0  0  0  0  0  0  0  0  0  0  0
  138.7120   69.7110  225.0450 C   0  0  0  0  0  0  0  0  0  0  0  0
  137.4660   69.7630  225.3300 O   0  0  0  0  0  0  0  0  0  0  0  0
  139.6660   69.5270  226.0590 N   0  0  0  0  0  0  0  0  0  0  0  0
  141.0970   69.4530  225.8420 C   0  0  0  0  0  0  0  0  0  0  0  0
  141.6510   68.1500  226.4280 C   0  0  0  0  0  0  0  0  0  0  0  0
  140.5880   67.4360  227.0280 O   0  0  0  0  0  0  0  0  0  0  0  0
  140.0390   68.2340  228.0330 C   0  0  0  0  0  0  0  0  0  0  0  0
  139.2210   69.3940  227.4480 C   0  0  0  0  0  0  0  0  0  0  0  0
  139.6050   71.0740  223.2500 C   0  0  0  0  0  0  0  0  0  0  0  0
  140.0220   73.6560  221.9980 N   0  0  0  0  0  0  0  0  0  0  0  0
  140.4390   74.9910  221.7180 C   0  0  0  0  0  0  0  0  0  0  0  0
  139.7940   76.0710  222.2960 C   0  0  0  0  0  0  0  0  0  0  0  0
  140.2400   77.3460  221.9880 C   0  0  0  0  0  0  0  0  0  0  0  0
  141.3160   77.5110  221.1140 C   0  0  0  0  0  0  0  0  0  0  0  0
  141.7880   78.7710  220.7860 O   0  0  0  0  0  0  0  0  0  0  0  0
  141.9520   79.6910  221.8020 C   0  0  0  0  0  0  0  0  0  0  0  0
  141.1890   80.8190  221.7910 C   0  0  0  0  0  0  0  0  0  0  0  0
  141.2990   81.7940  222.7810 C   0  0  0  0  0  0  0  0  0  0  0  0
  142.2080   81.6310  223.8220 C   0  0  0  0  0  0  0  0  0  0  0  0
  142.9950   80.4750  223.8380 C   0  0  0  0  0  0  0  0  0  0  0  0
  142.8660   79.5160  222.8370 C   0  0  0  0  0  0  0  0  0  0  0  0
  141.9480   76.4230  220.5460 C   0  0  0  0  0  0  0  0  0  0  0  0
  141.5020   75.1320  220.8520 C   0  0  0  0  0  0  0  0  0  0  0  0
  141.3860   72.0662  219.6454 H   0  0  0  0  0  0  0  0  0  0  0  0
  142.5236   72.0001  221.0305 H   0  0  0  0  0  0  0  0  0  0  0  0
  140.0351   70.4795  219.9463 H   0  0  0  0  0  0  0  0  0  0  0  0
  139.0494   68.2911  220.6145 H   0  0  0  0  0  0  0  0  0  0  0  0
  138.4313   67.9313  222.9858 H   0  0  0  0  0  0  0  0  0  0  0  0
  141.3034   69.4830  224.7619 H   0  0  0  0  0  0  0  0  0  0  0  0
  141.5815   70.3063  226.3391 H   0  0  0  0  0  0  0  0  0  0  0  0
  142.0982   67.5440  225.6263 H   0  0  0  0  0  0  0  0  0  0  0  0
  142.4231   68.3745  227.1786 H   0  0  0  0  0  0  0  0  0  0  0  0
  139.3821   67.6150  228.6618 H   0  0  0  0  0  0  0  0  0  0  0  0
  140.8633   68.6579  228.6254 H   0  0  0  0  0  0  0  0  0  0  0  0
  138.1460   69.1639  227.4867 H   0  0  0  0  0  0  0  0  0  0  0  0
  139.3707   70.3248  228.0148 H   0  0  0  0  0  0  0  0  0  0  0  0
  139.7606   71.8616  224.0020 H   0  0  0  0  0  0  0  0  0  0  0  0
  138.9482   75.9205  222.9830 H   0  0  0  0  0  0  0  0  0  0  0  0
  139.7482   78.2249  222.4304 H   0  0  0  0  0  0  0  0  0  0  0  0
  140.4642   80.9650  220.9765 H   0  0  0  0  0  0  0  0  0  0  0  0
  140.6667   82.6931  222.7394 H   0  0  0  0  0  0  0  0  0  0  0  0
  142.3049   82.3911  224.6112 H   0  0  0  0  0  0  0  0  0  0  0  0
  143.7225   80.3221  224.6488 H   0  0  0  0  0  0  0  0  0  0  0  0
  143.4920   78.6119  222.8643 H   0  0  0  0  0  0  0  0  0  0  0  0
  142.7946   76.5693  219.8590 H   0  0  0  0  0  0  0  0  0  0  0  0
  1  2  2  0
  2  3  1  0
  3  4  1  0
  4  5  1  0
  5  6  2  0
  6  7  1  0
  7  8  2  0
  8  9  1  0
  9 10  1  0
 10 11  2  0
 10 12  1  0
 12 13  1  0
 13 14  1  0
 14 15  1  0
 15 16  1  0
 16 17  1  0
  9 18  2  0
  4 19  2  0
 19 20  1  0
 20 21  2  0
 21 22  1  0
 22 23  2  0
 23 24  1  0
 24 25  1  0
 25 26  2  0
 26 27  1  0
 27 28  2  0
 28 29  1  0
 29 30  2  0
 23 31  1  0
 31 32  2  0
 32  2  1  0
 18  5  1  0
 32 20  1  0
 17 12  1  0
 30 25  1  0
  3 33  1  0
  3 34  1  0
  6 35  1  0
  7 36  1  0
  8 37  1  0
 13 38  1  0
 13 39  1  0
 14 40  1  0
 14 41  1  0
 16 42  1  0
 16 43  1  0
 17 44  1  0
 17 45  1  0
 18 46  1  0
 21 47  1  0
 22 48  1  0
 26 49  1  0
 27 50  1  0
 28 51  1  0
 29 52  1  0
 30 53  1  0
 31 54  1  0
M  END
>  <smiles>  (26) 
O=C1CC(c2cccc(C(=O)N3CCOCC3)c2)=Nc2ccc(Oc3ccccc3)cc21

>  <score_type>  (26) 
oracle

>  <origin>  (26) 
autodockgpu

>  <m_score__min__energy>  (26) 
-8.6400000000000006

>  <m_primary>  (26) 
energy

>  <rmsd>  (26) 
6.6131963108078775

>  <m_score__min__rmsd>  (26) 
6.6131963108078775

>  <meeko>  (26) 
{"free_energy": -8.42, "intermolecular_energy": -9.62, "internal_energy": -1.09, "cluster_size": 27, "cluster_id": 1, "rank_in_cluster": 21}

>  <energy>  (26) 
-8.36

>  <cluster_rmsd>  (26) 
1.19

>  <cluster>  (26) 
1

$$$$

     RDKit          3D

 54 58  0  0  0  0  0  0  0  0999 V2000
  142.6690   73.4710  220.6100 O   0  0  0  0  0  0  0  0  0  0  0  0
  141.5450   73.5800  221.1590 C   0  0  0  0  0  0  0  0  0  0  0  0
  140.8380   72.3350  221.5370 C   0  0  0  0  0  0  0  0  0  0  0  0
  139.5430   72.6850  222.1620 C   0  0  0  0  0  0  0  0  0  0  0  0
  138.6790   71.5790  222.6110 C   0  0  0  0  0  0  0  0  0  0  0  0
  137.3180   71.5900  222.3040 C   0  0  0  0  0  0  0  0  0  0  0  0
  136.4810   70.5660  222.7130 C   0  0  0  0  0  0  0  0  0  0  0  0
  137.0350   69.5240  223.4390 C   0  0  0  0  0  0  0  0  0  0  0  0
  138.3590   69.4680  223.7650 C   0  0  0  0  0  0  0  0  0  0  0  0
  138.9920   68.4080  224.5200 C   0  0  0  0  0  0  0  0  0  0  0  0
  139.1870   67.3110  223.8920 O   0  0  0  0  0  0  0  0  0  0  0  0
  139.3860   68.5390  225.8620 N   0  0  0  0  0  0  0  0  0  0  0  0
  139.2120   69.7360  226.6610 C   0  0  0  0  0  0  0  0  0  0  0  0
  140.5600   70.1820  227.2380 C   0  0  0  0  0  0  0  0  0  0  0  0
  141.5530   69.2620  226.8320 O   0  0  0  0  0  0  0  0  0  0  0  0
  141.2020   68.0000  227.3170 C   0  0  0  0  0  0  0  0  0  0  0  0
  140.0200   67.4050  226.5380 C   0  0  0  0  0  0  0  0  0  0  0  0
  139.1820   70.5170  223.3390 C   0  0  0  0  0  0  0  0  0  0  0  0
  139.1060   73.8680  222.3440 N   0  0  0  0  0  0  0  0  0  0  0  0
  139.7860   75.0680  221.9810 C   0  0  0  0  0  0  0  0  0  0  0  0
  139.2180   76.3060  222.2260 C   0  0  0  0  0  0  0  0  0  0  0  0
  139.9230   77.4390  221.8520 C   0  0  0  0  0  0  0  0  0  0  0  0
  141.1730   77.3090  221.2440 C   0  0  0  0  0  0  0  0  0  0  0  0
  141.9030   78.4200  220.8580 O   0  0  0  0  0  0  0  0  0  0  0  0
  141.9510   79.4990  221.7170 C   0  0  0  0  0  0  0  0  0  0  0  0
  142.5590   79.3450  222.9260 C   0  0  0  0  0  0  0  0  0  0  0  0
  142.6460   80.3870  223.8470 C   0  0  0  0  0  0  0  0  0  0  0  0
  142.1030   81.6320  223.5450 C   0  0  0  0  0  0  0  0  0  0  0  0
  141.4760   81.7970  222.3050 C   0  0  0  0  0  0  0  0  0  0  0  0
  141.4030   80.7400  221.4030 C   0  0  0  0  0  0  0  0  0  0  0  0
  141.7250   76.0660  221.0060 C   0  0  0  0  0  0  0  0  0  0  0  0
  141.0180   74.9170  221.3820 C   0  0  0  0  0  0  0  0  0  0  0  0
  140.6608   71.7247  220.6391 H   0  0  0  0  0  0  0  0  0  0  0  0
  141.4505   71.7621  222.2488 H   0  0  0  0  0  0  0  0  0  0  0  0
  136.9021   72.4284  221.7259 H   0  0  0  0  0  0  0  0  0  0  0  0
  135.4085   70.5792  222.4690 H   0  0  0  0  0  0  0  0  0  0  0  0
  136.3781   68.7051  223.7674 H   0  0  0  0  0  0  0  0  0  0  0  0
  138.8024   70.5386  226.0301 H   0  0  0  0  0  0  0  0  0  0  0  0
  138.5190   69.5206  227.4877 H   0  0  0  0  0  0  0  0  0  0  0  0
  140.8095   71.1855  226.8629 H   0  0  0  0  0  0  0  0  0  0  0  0
  140.5055   70.2145  228.3362 H   0  0  0  0  0  0  0  0  0  0  0  0
  142.0672   67.3275  227.2219 H   0  0  0  0  0  0  0  0  0  0  0  0
  140.9020   68.1067  228.3699 H   0  0  0  0  0  0  0  0  0  0  0  0
  140.3761   66.6690  225.8021 H   0  0  0  0  0  0  0  0  0  0  0  0
  139.3167   66.8805  227.2015 H   0  0  0  0  0  0  0  0  0  0  0  0
  140.2530   70.4958  223.5891 H   0  0  0  0  0  0  0  0  0  0  0  0
  138.2315   76.3886  222.7056 H   0  0  0  0  0  0  0  0  0  0  0  0
  139.4990   78.4376  222.0336 H   0  0  0  0  0  0  0  0  0  0  0  0
  142.9947   78.3682  223.1832 H   0  0  0  0  0  0  0  0  0  0  0  0
  143.1446   80.2251  224.8141 H   0  0  0  0  0  0  0  0  0  0  0  0
  142.1650   82.4641  224.2617 H   0  0  0  0  0  0  0  0  0  0  0  0
  141.0371   82.7705  222.0410 H   0  0  0  0  0  0  0  0  0  0  0  0
  140.9073   80.8862  220.4320 H   0  0  0  0  0  0  0  0  0  0  0  0
  142.7107   75.9790  220.5256 H   0  0  0  0  0  0  0  0  0  0  0  0
  1  2  2  0
  2  3  1  0
  3  4  1  0
  4  5  1  0
  5  6  2  0
  6  7  1  0
  7  8  2  0
  8  9  1  0
  9 10  1  0
 10 11  2  0
 10 12  1  0
 12 13  1  0
 13 14  1  0
 14 15  1  0
 15 16  1  0
 16 17  1  0
  9 18  2  0
  4 19  2  0
 19 20  1  0
 20 21  2  0
 21 22  1  0
 22 23  2  0
 23 24  1  0
 24 25  1  0
 25 26  2  0
 26 27  1  0
 27 28  2  0
 28 29  1  0
 29 30  2  0
 23 31  1  0
 31 32  2  0
 32  2  1  0
 18  5  1  0
 32 20  1  0
 17 12  1  0
 30 25  1  0
  3 33  1  0
  3 34  1  0
  6 35  1  0
  7 36  1  0
  8 37  1  0
 13 38  1  0
 13 39  1  0
 14 40  1  0
 14 41  1  0
 16 42  1  0
 16 43  1  0
 17 44  1  0
 17 45  1  0
 18 46  1  0
 21 47  1  0
 22 48  1  0
 26 49  1  0
 27 50  1  0
 28 51  1  0
 29 52  1  0
 30 53  1  0
 31 54  1  0
M  END
>  <smiles>  (27) 
O=C1CC(c2cccc(C(=O)N3CCOCC3)c2)=Nc2ccc(Oc3ccccc3)cc21

>  <score_type>  (27) 
oracle

>  <origin>  (27) 
autodockgpu

>  <m_score__min__energy>  (27) 
-8.6400000000000006

>  <m_primary>  (27) 
energy

>  <rmsd>  (27) 
6.17338064945488

>  <m_score__min__rmsd>  (27) 
6.17338064945488

>  <meeko>  (27) 
{"free_energy": -8.62, "intermolecular_energy": -9.81, "internal_energy": -1.12, "cluster_size": 27, "cluster_id": 1, "rank_in_cluster": 2}

>  <energy>  (27) 
-8.23

>  <cluster_rmsd>  (27) 
0.9

>  <cluster>  (27) 
1

$$$$

     RDKit          3D

 54 58  0  0  0  0  0  0  0  0999 V2000
  143.3240   74.3120  220.0140 O   0  0  0  0  0  0  0  0  0  0  0  0
  142.2490   74.1110  220.6340 C   0  0  0  0  0  0  0  0  0  0  0  0
  141.8700   72.7100  220.9200 C   0  0  0  0  0  0  0  0  0  0  0  0
  140.5810   72.6970  221.6490 C   0  0  0  0  0  0  0  0  0  0  0  0
  140.0230   71.3880  222.0300 C   0  0  0  0  0  0  0  0  0  0  0  0
  139.8590   70.3940  221.0640 C   0  0  0  0  0  0  0  0  0  0  0  0
  139.3370   69.1530  221.3910 C   0  0  0  0  0  0  0  0  0  0  0  0
  138.9810   68.9250  222.7100 C   0  0  0  0  0  0  0  0  0  0  0  0
  139.1210   69.8650  223.6900 C   0  0  0  0  0  0  0  0  0  0  0  0
  138.7660   69.6840  225.0810 C   0  0  0  0  0  0  0  0  0  0  0  0
  137.5160   69.7140  225.3500 O   0  0  0  0  0  0  0  0  0  0  0  0
  139.7080   69.4840  226.1050 N   0  0  0  0  0  0  0  0  0  0  0  0
  141.1430   69.4330  225.9060 C   0  0  0  0  0  0  0  0  0  0  0  0
  141.7040   68.1210  226.4660 C   0  0  0  0  0  0  0  0  0  0  0  0
  140.6420   67.3790  227.0320 O   0  0  0  0  0  0  0  0  0  0  0  0
  140.0680   68.1450  228.0500 C   0  0  0  0  0  0  0  0  0  0  0  0
  139.2450   69.3110  227.4830 C   0  0  0  0  0  0  0  0  0  0  0  0
  139.6510   71.1090  223.3320 C   0  0  0  0  0  0  0  0  0  0  0  0
  139.9080   73.7280  221.9770 N   0  0  0  0  0  0  0  0  0  0  0  0
  140.2730   75.0790  221.7020 C   0  0  0  0  0  0  0  0  0  0  0  0
  139.4650   76.1270  222.1050 C   0  0  0  0  0  0  0  0  0  0  0  0
  139.8680   77.4200  221.8110 C   0  0  0  0  0  0  0  0  0  0  0  0
  141.0640   77.6330  221.1240 C   0  0  0  0  0  0  0  0  0  0  0  0
  141.4960   78.9120  220.8140 O   0  0  0  0  0  0  0  0  0  0  0  0
  141.7830   79.7730  221.8540 C   0  0  0  0  0  0  0  0  0  0  0  0
  141.2640   81.0320  221.8210 C   0  0  0  0  0  0  0  0  0  0  0  0
  141.5090   81.9580  222.8330 C   0  0  0  0  0  0  0  0  0  0  0  0
  142.3050   81.6090  223.9200 C   0  0  0  0  0  0  0  0  0  0  0  0
  142.8410   80.3180  223.9590 C   0  0  0  0  0  0  0  0  0  0  0  0
  142.5810   79.4120  222.9360 C   0  0  0  0  0  0  0  0  0  0  0  0
  141.8590   76.5760  220.7290 C   0  0  0  0  0  0  0  0  0  0  0  0
  141.4580   75.2670  221.0230 C   0  0  0  0  0  0  0  0  0  0  0  0
  141.7647   72.1565  219.9753 H   0  0  0  0  0  0  0  0  0  0  0  0
  142.6483   72.2330  221.5338 H   0  0  0  0  0  0  0  0  0  0  0  0
  140.1497   70.5998  220.0233 H   0  0  0  0  0  0  0  0  0  0  0  0
  139.2092   68.3726  220.6264 H   0  0  0  0  0  0  0  0  0  0  0  0
  138.5669   67.9424  222.9800 H   0  0  0  0  0  0  0  0  0  0  0  0
  141.3639   69.4937  224.8301 H   0  0  0  0  0  0  0  0  0  0  0  0
  141.6105   70.2788  226.4314 H   0  0  0  0  0  0  0  0  0  0  0  0
  142.1695   67.5415  225.6552 H   0  0  0  0  0  0  0  0  0  0  0  0
  142.4625   68.3350  227.2334 H   0  0  0  0  0  0  0  0  0  0  0  0
  139.4090   67.5023  228.6523 H   0  0  0  0  0  0  0  0  0  0  0  0
  140.8783   68.5625  228.6657 H   0  0  0  0  0  0  0  0  0  0  0  0
  138.1722   69.0684  227.5003 H   0  0  0  0  0  0  0  0  0  0  0  0
  139.3760   70.2286  228.0754 H   0  0  0  0  0  0  0  0  0  0  0  0
  139.7746   71.8829  224.1039 H   0  0  0  0  0  0  0  0  0  0  0  0
  138.5257   75.9387  222.6455 H   0  0  0  0  0  0  0  0  0  0  0  0
  139.2477   78.2750  222.1179 H   0  0  0  0  0  0  0  0  0  0  0  0
  140.6325   81.3265  220.9699 H   0  0  0  0  0  0  0  0  0  0  0  0
  141.0728   82.9660  222.7727 H   0  0  0  0  0  0  0  0  0  0  0  0
  142.5070   82.3292  224.7266 H   0  0  0  0  0  0  0  0  0  0  0  0
  143.4741   80.0162  224.8064 H   0  0  0  0  0  0  0  0  0  0  0  0
  143.0102   78.4003  222.9825 H   0  0  0  0  0  0  0  0  0  0  0  0
  142.7990   76.7603  220.1882 H   0  0  0  0  0  0  0  0  0  0  0  0
  1  2  2  0
  2  3  1  0
  3  4  1  0
  4  5  1  0
  5  6  2  0
  6  7  1  0
  7  8  2  0
  8  9  1  0
  9 10  1  0
 10 11  2  0
 10 12  1  0
 12 13  1  0
 13 14  1  0
 14 15  1  0
 15 16  1  0
 16 17  1  0
  9 18  2  0
  4 19  2  0
 19 20  1  0
 20 21  2  0
 21 22  1  0
 22 23  2  0
 23 24  1  0
 24 25  1  0
 25 26  2  0
 26 27  1  0
 27 28  2  0
 28 29  1  0
 29 30  2  0
 23 31  1  0
 31 32  2  0
 32  2  1  0
 18  5  1  0
 32 20  1  0
 17 12  1  0
 30 25  1  0
  3 33  1  0
  3 34  1  0
  6 35  1  0
  7 36  1  0
  8 37  1  0
 13 38  1  0
 13 39  1  0
 14 40  1  0
 14 41  1  0
 16 42  1  0
 16 43  1  0
 17 44  1  0
 17 45  1  0
 18 46  1  0
 21 47  1  0
 22 48  1  0
 26 49  1  0
 27 50  1  0
 28 51  1  0
 29 52  1  0
 30 53  1  0
 31 54  1  0
M  END
>  <smiles>  (28) 
O=C1CC(c2cccc(C(=O)N3CCOCC3)c2)=Nc2ccc(Oc3ccccc3)cc21

>  <score_type>  (28) 
oracle

>  <origin>  (28) 
autodockgpu

>  <m_score__min__energy>  (28) 
-8.6400000000000006

>  <m_primary>  (28) 
energy

>  <rmsd>  (28) 
6.593461224907718

>  <m_score__min__rmsd>  (28) 
6.593461224907718

>  <meeko>  (28) 
{"free_energy": -8.38, "intermolecular_energy": -9.58, "internal_energy": -1.1, "cluster_size": 27, "cluster_id": 1, "rank_in_cluster": 25}

>  <energy>  (28) 
-8.48

>  <cluster_rmsd>  (28) 
0.0

>  <cluster>  (28) 
2

$$$$

     RDKit          3D

 54 58  0  0  0  0  0  0  0  0999 V2000
  143.8260   72.3760  220.7000 O   0  0  0  0  0  0  0  0  0  0  0  0
  142.9610   73.2860  220.6780 C   0  0  0  0  0  0  0  0  0  0  0  0
  143.2960   74.5390  219.9660 C   0  0  0  0  0  0  0  0  0  0  0  0
  142.1500   75.4720  220.0620 C   0  0  0  0  0  0  0  0  0  0  0  0
  142.2820   76.7880  219.4140 C   0  0  0  0  0  0  0  0  0  0  0  0
  142.8280   76.8810  218.1330 C   0  0  0  0  0  0  0  0  0  0  0  0
  142.9660   78.1040  217.4980 C   0  0  0  0  0  0  0  0  0  0  0  0
  142.5450   79.2380  218.1730 C   0  0  0  0  0  0  0  0  0  0  0  0
  142.0070   79.1990  219.4270 C   0  0  0  0  0  0  0  0  0  0  0  0
  141.5520   80.3480  220.1800 C   0  0  0  0  0  0  0  0  0  0  0  0
  140.8530   81.2020  219.5330 O   0  0  0  0  0  0  0  0  0  0  0  0
  141.8390   80.5490  221.5400 N   0  0  0  0  0  0  0  0  0  0  0  0
  142.6190   79.6440  222.3620 C   0  0  0  0  0  0  0  0  0  0  0  0
  141.8120   79.2270  223.5960 C   0  0  0  0  0  0  0  0  0  0  0  0
  140.5610   79.8840  223.5610 O   0  0  0  0  0  0  0  0  0  0  0  0
  140.7910   81.2610  223.5650 C   0  0  0  0  0  0  0  0  0  0  0  0
  141.3310   81.7460  222.2130 C   0  0  0  0  0  0  0  0  0  0  0  0
  141.8790   77.9500  220.0450 C   0  0  0  0  0  0  0  0  0  0  0  0
  141.0520   75.2320  220.6620 N   0  0  0  0  0  0  0  0  0  0  0  0
  140.7270   74.0250  221.3480 C   0  0  0  0  0  0  0  0  0  0  0  0
  139.5000   73.8700  221.9690 C   0  0  0  0  0  0  0  0  0  0  0  0
  139.2380   72.6760  222.6220 C   0  0  0  0  0  0  0  0  0  0  0  0
  140.2050   71.6700  222.6390 C   0  0  0  0  0  0  0  0  0  0  0  0
  139.9770   70.4650  223.2820 O   0  0  0  0  0  0  0  0  0  0  0  0
  140.2120   70.3960  224.6410 C   0  0  0  0  0  0  0  0  0  0  0  0
  139.9720   69.2210  225.2870 C   0  0  0  0  0  0  0  0  0  0  0  0
  140.1840   69.0740  226.6560 C   0  0  0  0  0  0  0  0  0  0  0  0
  140.6560   70.1470  227.4070 C   0  0  0  0  0  0  0  0  0  0  0  0
  140.9040   71.3560  226.7500 C   0  0  0  0  0  0  0  0  0  0  0  0
  140.6840   71.4770  225.3810 C   0  0  0  0  0  0  0  0  0  0  0  0
  141.4250   71.8400  222.0150 C   0  0  0  0  0  0  0  0  0  0  0  0
  141.6960   73.0440  221.3540 C   0  0  0  0  0  0  0  0  0  0  0  0
  144.1839   74.9977  220.4255 H   0  0  0  0  0  0  0  0  0  0  0  0
  143.5077   74.3195  218.9091 H   0  0  0  0  0  0  0  0  0  0  0  0
  143.1549   75.9656  217.6180 H   0  0  0  0  0  0  0  0  0  0  0  0
  143.3969   78.1728  216.4882 H   0  0  0  0  0  0  0  0  0  0  0  0
  142.6489   80.2139  217.6762 H   0  0  0  0  0  0  0  0  0  0  0  0
  142.8758   78.7494  221.7756 H   0  0  0  0  0  0  0  0  0  0  0  0
  143.5377   80.1539  222.6876 H   0  0  0  0  0  0  0  0  0  0  0  0
  141.6587   78.1378  223.5876 H   0  0  0  0  0  0  0  0  0  0  0  0
  142.3558   79.5037  224.5113 H   0  0  0  0  0  0  0  0  0  0  0  0
  139.8453   81.7805  223.7791 H   0  0  0  0  0  0  0  0  0  0  0  0
  141.5435   81.4825  224.3362 H   0  0  0  0  0  0  0  0  0  0  0  0
  140.5265   82.2071  221.6212 H   0  0  0  0  0  0  0  0  0  0  0  0
  142.1154   82.5071  222.3372 H   0  0  0  0  0  0  0  0  0  0  0  0
  141.4481   77.8916  221.0554 H   0  0  0  0  0  0  0  0  0  0  0  0
  138.7508   74.6750  221.9449 H   0  0  0  0  0  0  0  0  0  0  0  0
  138.2718   72.5219  223.1248 H   0  0  0  0  0  0  0  0  0  0  0  0
  139.5993   68.3618  224.7100 H   0  0  0  0  0  0  0  0  0  0  0  0
  139.9784   68.1097  227.1438 H   0  0  0  0  0  0  0  0  0  0  0  0
  140.8292   70.0463  228.4886 H   0  0  0  0  0  0  0  0  0  0  0  0
  141.2765   72.2197  227.3204 H   0  0  0  0  0  0  0  0  0  0  0  0
  140.8848   72.4351  224.8792 H   0  0  0  0  0  0  0  0  0  0  0  0
  142.1767   71.0372  222.0370 H   0  0  0  0  0  0  0  0  0  0  0  0
  1  2  2  0
  2  3  1  0
  3  4  1  0
  4  5  1  0
  5  6  2  0
  6  7  1  0
  7  8  2  0
  8  9  1  0
  9 10  1  0
 10 11  2  0
 10 12  1  0
 12 13  1  0
 13 14  1  0
 14 15  1  0
 15 16  1  0
 16 17  1  0
  9 18  2  0
  4 19  2  0
 19 20  1  0
 20 21  2  0
 21 22  1  0
 22 23  2  0
 23 24  1  0
 24 25  1  0
 25 26  2  0
 26 27  1  0
 27 28  2  0
 28 29  1  0
 29 30  2  0
 23 31  1  0
 31 32  2  0
 32  2  1  0
 18  5  1  0
 32 20  1  0
 17 12  1  0
 30 25  1  0
  3 33  1  0
  3 34  1  0
  6 35  1  0
  7 36  1  0
  8 37  1  0
 13 38  1  0
 13 39  1  0
 14 40  1  0
 14 41  1  0
 16 42  1  0
 16 43  1  0
 17 44  1  0
 17 45  1  0
 18 46  1  0
 21 47  1  0
 22 48  1  0
 26 49  1  0
 27 50  1  0
 28 51  1  0
 29 52  1  0
 30 53  1  0
 31 54  1  0
M  END
>  <smiles>  (29) 
O=C1CC(c2cccc(C(=O)N3CCOCC3)c2)=Nc2ccc(Oc3ccccc3)cc21

>  <score_type>  (29) 
oracle

>  <origin>  (29) 
autodockgpu

>  <m_score__min__energy>  (29) 
-8.6400000000000006

>  <m_primary>  (29) 
energy

>  <rmsd>  (29) 
8.380731009966198

>  <m_score__min__rmsd>  (29) 
8.380731009966198

>  <meeko>  (29) 
{"free_energy": -8.43, "intermolecular_energy": -9.63, "internal_energy": -1.01, "cluster_size": 21, "cluster_id": 2, "rank_in_cluster": 18}

>  <energy>  (29) 
-8.48

>  <cluster_rmsd>  (29) 
0.06

>  <cluster>  (29) 
2

$$$$

     RDKit          3D

 54 58  0  0  0  0  0  0  0  0999 V2000
  143.8240   72.3820  220.6750 O   0  0  0  0  0  0  0  0  0  0  0  0
  142.9530   73.2880  220.6560 C   0  0  0  0  0  0  0  0  0  0  0  0
  143.2830   74.5470  219.9510 C   0  0  0  0  0  0  0  0  0  0  0  0
  142.1320   75.4720  220.0480 C   0  0  0  0  0  0  0  0  0  0  0  0
  142.2590   76.7930  219.4080 C   0  0  0  0  0  0  0  0  0  0  0  0
  142.8060   76.8950  218.1280 C   0  0  0  0  0  0  0  0  0  0  0  0
  142.9390   78.1220  217.5000 C   0  0  0  0  0  0  0  0  0  0  0  0
  142.5110   79.2510  218.1800 C   0  0  0  0  0  0  0  0  0  0  0  0
  141.9700   79.2020  219.4320 C   0  0  0  0  0  0  0  0  0  0  0  0
  141.5080   80.3450  220.1900 C   0  0  0  0  0  0  0  0  0  0  0  0
  140.8010   81.1960  219.5480 O   0  0  0  0  0  0  0  0  0  0  0  0
  141.7960   80.5430  221.5510 N   0  0  0  0  0  0  0  0  0  0  0  0
  142.5840   79.6410  222.3680 C   0  0  0  0  0  0  0  0  0  0  0  0
  141.7820   79.2130  223.6010 C   0  0  0  0  0  0  0  0  0  0  0  0
  140.5260   79.8600  223.5720 O   0  0  0  0  0  0  0  0  0  0  0  0
  140.7460   81.2390  223.5810 C   0  0  0  0  0  0  0  0  0  0  0  0
  141.2800   81.7340  222.2290 C   0  0  0  0  0  0  0  0  0  0  0  0
  141.8480   77.9490  220.0430 C   0  0  0  0  0  0  0  0  0  0  0  0
  141.0330   75.2240  220.6440 N   0  0  0  0  0  0  0  0  0  0  0  0
  140.7140   74.0110  221.3230 C   0  0  0  0  0  0  0  0  0  0  0  0
  139.4860   73.8460  221.9400 C   0  0  0  0  0  0  0  0  0  0  0  0
  139.2290   72.6470  222.5860 C   0  0  0  0  0  0  0  0  0  0  0  0
  140.2020   71.6460  222.6000 C   0  0  0  0  0  0  0  0  0  0  0  0
  139.9780   70.4370  223.2370 O   0  0  0  0  0  0  0  0  0  0  0  0
  140.1300   70.3840  224.6080 C   0  0  0  0  0  0  0  0  0  0  0  0
  140.7120   71.4390  225.2410 C   0  0  0  0  0  0  0  0  0  0  0  0
  140.9020   71.4600  226.6210 C   0  0  0  0  0  0  0  0  0  0  0  0
  140.4910   70.3800  227.3970 C   0  0  0  0  0  0  0  0  0  0  0  0
  139.8930   69.2920  226.7530 C   0  0  0  0  0  0  0  0  0  0  0  0
  139.7150   69.2970  225.3720 C   0  0  0  0  0  0  0  0  0  0  0  0
  141.4220   71.8270  221.9810 C   0  0  0  0  0  0  0  0  0  0  0  0
  141.6880   73.0360  221.3260 C   0  0  0  0  0  0  0  0  0  0  0  0
  144.1668   75.0086  220.4156 H   0  0  0  0  0  0  0  0  0  0  0  0
  143.4994   74.3341  218.8937 H   0  0  0  0  0  0  0  0  0  0  0  0
  143.1376   75.9839  217.6085 H   0  0  0  0  0  0  0  0  0  0  0  0
  143.3715   78.1982  216.4915 H   0  0  0  0  0  0  0  0  0  0  0  0
  142.6118   80.2301  217.6889 H   0  0  0  0  0  0  0  0  0  0  0  0
  142.8469   78.7508  221.7777 H   0  0  0  0  0  0  0  0  0  0  0  0
  143.4992   80.1566  222.6943 H   0  0  0  0  0  0  0  0  0  0  0  0
  141.6370   78.1227  223.5880 H   0  0  0  0  0  0  0  0  0  0  0  0
  142.3254   79.4906  224.5162 H   0  0  0  0  0  0  0  0  0  0  0  0
  139.7970   81.7507  223.7992 H   0  0  0  0  0  0  0  0  0  0  0  0
  141.4985   81.4628  224.3514 H   0  0  0  0  0  0  0  0  0  0  0  0
  140.4709   82.1910  221.6403 H   0  0  0  0  0  0  0  0  0  0  0  0
  142.0584   82.5010  222.3544 H   0  0  0  0  0  0  0  0  0  0  0  0
  141.4149   77.8830  221.0520 H   0  0  0  0  0  0  0  0  0  0  0  0
  138.7324   74.6470  221.9182 H   0  0  0  0  0  0  0  0  0  0  0  0
  138.2625   72.4848  223.0855 H   0  0  0  0  0  0  0  0  0  0  0  0
  141.0427   72.3020  224.6444 H   0  0  0  0  0  0  0  0  0  0  0  0
  141.3769   72.3303  227.0975 H   0  0  0  0  0  0  0  0  0  0  0  0
  140.6328   70.3822  228.4878 H   0  0  0  0  0  0  0  0  0  0  0  0
  139.5605   68.4249  227.3425 H   0  0  0  0  0  0  0  0  0  0  0  0
  139.2421   68.4341  224.8803 H   0  0  0  0  0  0  0  0  0  0  0  0
  142.1787   71.0289  222.0018 H   0  0  0  0  0  0  0  0  0  0  0  0
  1  2  2  0
  2  3  1  0
  3  4  1  0
  4  5  1  0
  5  6  2  0
  6  7  1  0
  7  8  2  0
  8  9  1  0
  9 10  1  0
 10 11  2  0
 10 12  1  0
 12 13  1  0
 13 14  1  0
 14 15  1  0
 15 16  1  0
 16 17  1  0
  9 18  2  0
  4 19  2  0
 19 20  1  0
 20 21  2  0
 21 22  1  0
 22 23  2  0
 23 24  1  0
 24 25  1  0
 25 26  2  0
 26 27  1  0
 27 28  2  0
 28 29  1  0
 29 30  2  0
 23 31  1  0
 31 32  2  0
 32  2  1  0
 18  5  1  0
 32 20  1  0
 17 12  1  0
 30 25  1  0
  3 33  1  0
  3 34  1  0
  6 35  1  0
  7 36  1  0
  8 37  1  0
 13 38  1  0
 13 39  1  0
 14 40  1  0
 14 41  1  0
 16 42  1  0
 16 43  1  0
 17 44  1  0
 17 45  1  0
 18 46  1  0
 21 47  1  0
 22 48  1  0
 26 49  1  0
 27 50  1  0
 28 51  1  0
 29 52  1  0
 30 53  1  0
 31 54  1  0
M  END
>  <smiles>  (30) 
O=C1CC(c2cccc(C(=O)N3CCOCC3)c2)=Nc2ccc(Oc3ccccc3)cc21

>  <score_type>  (30) 
oracle

>  <origin>  (30) 
autodockgpu

>  <m_score__min__energy>  (30) 
-8.6400000000000006

>  <m_primary>  (30) 
energy

>  <rmsd>  (30) 
8.37710532296477

>  <m_score__min__rmsd>  (30) 
8.37710532296477

>  <meeko>  (30) 
{"free_energy": -8.46, "intermolecular_energy": -9.65, "internal_energy": -1.01, "cluster_size": 21, "cluster_id": 2, "rank_in_cluster": 9}

>  <energy>  (30) 
-8.47

>  <cluster_rmsd>  (30) 
0.07

>  <cluster>  (30) 
2

$$$$

     RDKit          3D

 54 58  0  0  0  0  0  0  0  0999 V2000
  142.6320   73.5800  220.8340 O   0  0  0  0  0  0  0  0  0  0  0  0
  141.4740   73.6580  221.3140 C   0  0  0  0  0  0  0  0  0  0  0  0
  140.7990   72.3970  221.6940 C   0  0  0  0  0  0  0  0  0  0  0  0
  139.4550   72.7100  222.2310 C   0  0  0  0  0  0  0  0  0  0  0  0
  138.6140   71.5830  222.6690 C   0  0  0  0  0  0  0  0  0  0  0  0
  137.2520   71.5720  222.3650 C   0  0  0  0  0  0  0  0  0  0  0  0
  136.4350   70.5270  222.7640 C   0  0  0  0  0  0  0  0  0  0  0  0
  137.0100   69.4880  223.4750 C   0  0  0  0  0  0  0  0  0  0  0  0
  138.3360   69.4520  223.7980 C   0  0  0  0  0  0  0  0  0  0  0  0
  138.9910   68.3960  224.5380 C   0  0  0  0  0  0  0  0  0  0  0  0
  139.2000   67.3080  223.8980 O   0  0  0  0  0  0  0  0  0  0  0  0
  139.3880   68.5180  225.8800 N   0  0  0  0  0  0  0  0  0  0  0  0
  139.1990   69.7040  226.6920 C   0  0  0  0  0  0  0  0  0  0  0  0
  140.5420   70.1670  227.2680 C   0  0  0  0  0  0  0  0  0  0  0  0
  141.5480   69.2670  226.8480 O   0  0  0  0  0  0  0  0  0  0  0  0
  141.2210   67.9950  227.3200 C   0  0  0  0  0  0  0  0  0  0  0  0
  140.0450   67.3890  226.5410 C   0  0  0  0  0  0  0  0  0  0  0  0
  139.1380   70.5210  223.3820 C   0  0  0  0  0  0  0  0  0  0  0  0
  138.9600   73.8780  222.3470 N   0  0  0  0  0  0  0  0  0  0  0  0
  139.6100   75.0940  221.9820 C   0  0  0  0  0  0  0  0  0  0  0  0
  138.9780   76.3140  222.1500 C   0  0  0  0  0  0  0  0  0  0  0  0
  139.6550   77.4640  221.7770 C   0  0  0  0  0  0  0  0  0  0  0  0
  140.9430   77.3680  221.2470 C   0  0  0  0  0  0  0  0  0  0  0  0
  141.6480   78.4960  220.8640 O   0  0  0  0  0  0  0  0  0  0  0  0
  141.8440   79.4910  221.8010 C   0  0  0  0  0  0  0  0  0  0  0  0
  141.4080   80.7500  221.5170 C   0  0  0  0  0  0  0  0  0  0  0  0
  141.5700   81.8070  222.4100 C   0  0  0  0  0  0  0  0  0  0  0  0
  142.1920   81.5940  223.6370 C   0  0  0  0  0  0  0  0  0  0  0  0
  142.6420   80.3030  223.9340 C   0  0  0  0  0  0  0  0  0  0  0  0
  142.4680   79.2650  223.0240 C   0  0  0  0  0  0  0  0  0  0  0  0
  141.5590   76.1430  221.0850 C   0  0  0  0  0  0  0  0  0  0  0  0
  140.8800   74.9770  221.4590 C   0  0  0  0  0  0  0  0  0  0  0  0
  140.7009   71.7506  220.8094 H   0  0  0  0  0  0  0  0  0  0  0  0
  141.3919   71.8753  222.4597 H   0  0  0  0  0  0  0  0  0  0  0  0
  136.8190   72.4091  221.7977 H   0  0  0  0  0  0  0  0  0  0  0  0
  135.3617   70.5230  222.5231 H   0  0  0  0  0  0  0  0  0  0  0  0
  136.3692   68.6529  223.7945 H   0  0  0  0  0  0  0  0  0  0  0  0
  138.7734   70.5061  226.0711 H   0  0  0  0  0  0  0  0  0  0  0  0
  138.5140   69.4684  227.5198 H   0  0  0  0  0  0  0  0  0  0  0  0
  140.7732   71.1782  226.9019 H   0  0  0  0  0  0  0  0  0  0  0  0
  140.4921   70.1882  228.3667 H   0  0  0  0  0  0  0  0  0  0  0  0
  142.0968   67.3382  227.2126 H   0  0  0  0  0  0  0  0  0  0  0  0
  140.9250   68.0850  228.3756 H   0  0  0  0  0  0  0  0  0  0  0  0
  140.4095   66.6667  225.7957 H   0  0  0  0  0  0  0  0  0  0  0  0
  139.3542   66.8465  227.2032 H   0  0  0  0  0  0  0  0  0  0  0  0
  140.2101   70.5159  223.6281 H   0  0  0  0  0  0  0  0  0  0  0  0
  137.9627   76.3692  222.5696 H   0  0  0  0  0  0  0  0  0  0  0  0
  139.1796   78.4485  221.8980 H   0  0  0  0  0  0  0  0  0  0  0  0
  140.9128   80.9378  220.5529 H   0  0  0  0  0  0  0  0  0  0  0  0
  141.2061   82.8107  222.1453 H   0  0  0  0  0  0  0  0  0  0  0  0
  142.3260   82.4180  224.3533 H   0  0  0  0  0  0  0  0  0  0  0  0
  143.1380   80.1068  224.8960 H   0  0  0  0  0  0  0  0  0  0  0  0
  142.8273   78.2558  223.2738 H   0  0  0  0  0  0  0  0  0  0  0  0
  142.5743   76.0836  220.6658 H   0  0  0  0  0  0  0  0  0  0  0  0
  1  2  2  0
  2  3  1  0
  3  4  1  0
  4  5  1  0
  5  6  2  0
  6  7  1  0
  7  8  2  0
  8  9  1  0
  9 10  1  0
 10 11  2  0
 10 12  1  0
 12 13  1  0
 13 14  1  0
 14 15  1  0
 15 16  1  0
 16 17  1  0
  9 18  2  0
  4 19  2  0
 19 20  1  0
 20 21  2  0
 21 22  1  0
 22 23  2  0
 23 24  1  0
 24 25  1  0
 25 26  2  0
 26 27  1  0
 27 28  2  0
 28 29  1  0
 29 30  2  0
 23 31  1  0
 31 32  2  0
 32  2  1  0
 18  5  1  0
 32 20  1  0
 17 12  1  0
 30 25  1  0
  3 33  1  0
  3 34  1  0
  6 35  1  0
  7 36  1  0
  8 37  1  0
 13 38  1  0
 13 39  1  0
 14 40  1  0
 14 41  1  0
 16 42  1  0
 16 43  1  0
 17 44  1  0
 17 45  1  0
 18 46  1  0
 21 47  1  0
 22 48  1  0
 26 49  1  0
 27 50  1  0
 28 51  1  0
 29 52  1  0
 30 53  1  0
 31 54  1  0
M  END
>  <smiles>  (31) 
O=C1CC(c2cccc(C(=O)N3CCOCC3)c2)=Nc2ccc(Oc3ccccc3)cc21

>  <score_type>  (31) 
oracle

>  <origin>  (31) 
autodockgpu

>  <m_score__min__energy>  (31) 
-8.6400000000000006

>  <m_primary>  (31) 
energy

>  <rmsd>  (31) 
6.158624838590896

>  <m_score__min__rmsd>  (31) 
6.158624838590896

>  <meeko>  (31) 
{"free_energy": -8.5, "intermolecular_energy": -9.7, "internal_energy": -1.13, "cluster_size": 27, "cluster_id": 1, "rank_in_cluster": 14}

>  <energy>  (31) 
-8.47

>  <cluster_rmsd>  (31) 
0.07

>  <cluster>  (31) 
2

$$$$

     RDKit          3D

 54 58  0  0  0  0  0  0  0  0999 V2000
  142.5950   73.7050  221.0780 O   0  0  0  0  0  0  0  0  0  0  0  0
  141.4030   73.7300  221.4750 C   0  0  0  0  0  0  0  0  0  0  0  0
  140.7650   72.4410  221.8230 C   0  0  0  0  0  0  0  0  0  0  0  0
  139.3730   72.6920  222.2610 C   0  0  0  0  0  0  0  0  0  0  0  0
  138.5590   71.5290  222.6540 C   0  0  0  0  0  0  0  0  0  0  0  0
  137.2110   71.4710  222.2960 C   0  0  0  0  0  0  0  0  0  0  0  0
  136.4200   70.3920  222.6500 C   0  0  0  0  0  0  0  0  0  0  0  0
  137.0060   69.3660  223.3730 C   0  0  0  0  0  0  0  0  0  0  0  0
  138.3180   69.3760  223.7470 C   0  0  0  0  0  0  0  0  0  0  0  0
  138.9830   68.3360  224.5020 C   0  0  0  0  0  0  0  0  0  0  0  0
  139.1930   67.2390  223.8800 O   0  0  0  0  0  0  0  0  0  0  0  0
  139.3890   68.4850  225.8390 N   0  0  0  0  0  0  0  0  0  0  0  0
  139.2000   69.6840  226.6310 C   0  0  0  0  0  0  0  0  0  0  0  0
  140.5450   70.1630  227.1880 C   0  0  0  0  0  0  0  0  0  0  0  0
  141.5520   69.2610  226.7780 O   0  0  0  0  0  0  0  0  0  0  0  0
  141.2340   67.9950  227.2750 C   0  0  0  0  0  0  0  0  0  0  0  0
  140.0560   67.3700  226.5150 C   0  0  0  0  0  0  0  0  0  0  0  0
  139.0950   70.4800  223.3760 C   0  0  0  0  0  0  0  0  0  0  0  0
  138.8160   73.8360  222.3280 N   0  0  0  0  0  0  0  0  0  0  0  0
  139.4300   75.0790  221.9940 C   0  0  0  0  0  0  0  0  0  0  0  0
  138.7290   76.2680  222.1030 C   0  0  0  0  0  0  0  0  0  0  0  0
  139.3740   77.4460  221.7640 C   0  0  0  0  0  0  0  0  0  0  0  0
  140.6990   77.4090  221.3250 C   0  0  0  0  0  0  0  0  0  0  0  0
  141.3740   78.5670  220.9790 O   0  0  0  0  0  0  0  0  0  0  0  0
  141.6640   79.4760  221.9770 C   0  0  0  0  0  0  0  0  0  0  0  0
  142.9200   79.4900  222.5020 C   0  0  0  0  0  0  0  0  0  0  0  0
  143.2890   80.3760  223.5120 C   0  0  0  0  0  0  0  0  0  0  0  0
  142.3620   81.2850  224.0140 C   0  0  0  0  0  0  0  0  0  0  0  0
  141.0700   81.2750  223.4790 C   0  0  0  0  0  0  0  0  0  0  0  0
  140.7270   80.3790  222.4710 C   0  0  0  0  0  0  0  0  0  0  0  0
  141.3840   76.2150  221.2220 C   0  0  0  0  0  0  0  0  0  0  0  0
  140.7380   75.0200  221.5630 C   0  0  0  0  0  0  0  0  0  0  0  0
  140.7608   71.7824  220.9420 H   0  0  0  0  0  0  0  0  0  0  0  0
  141.3273   71.9565  222.6348 H   0  0  0  0  0  0  0  0  0  0  0  0
  136.7691   72.2986  221.7217 H   0  0  0  0  0  0  0  0  0  0  0  0
  135.3581   70.3504  222.3658 H   0  0  0  0  0  0  0  0  0  0  0  0
  136.3853   68.5040  223.6586 H   0  0  0  0  0  0  0  0  0  0  0  0
  138.7658   70.4729  225.9993 H   0  0  0  0  0  0  0  0  0  0  0  0
  138.5222   69.4602  227.4679 H   0  0  0  0  0  0  0  0  0  0  0  0
  140.7688   71.1683  226.8016 H   0  0  0  0  0  0  0  0  0  0  0  0
  140.5027   70.2036  228.2864 H   0  0  0  0  0  0  0  0  0  0  0  0
  142.1122   67.3405  227.1733 H   0  0  0  0  0  0  0  0  0  0  0  0
  140.9446   68.1022  228.3308 H   0  0  0  0  0  0  0  0  0  0  0  0
  140.4188   66.6366  225.7798 H   0  0  0  0  0  0  0  0  0  0  0  0
  139.3724   66.8356  227.1910 H   0  0  0  0  0  0  0  0  0  0  0  0
  140.1556   70.5130  223.6658 H   0  0  0  0  0  0  0  0  0  0  0  0
  137.6853   76.2769  222.4503 H   0  0  0  0  0  0  0  0  0  0  0  0
  138.8444   78.4071  221.8404 H   0  0  0  0  0  0  0  0  0  0  0  0
  143.6666   78.7799  222.1169 H   0  0  0  0  0  0  0  0  0  0  0  0
  144.3132   80.3572  223.9128 H   0  0  0  0  0  0  0  0  0  0  0  0
  142.6383   81.9921  224.8101 H   0  0  0  0  0  0  0  0  0  0  0  0
  140.3177   81.9821  223.8586 H   0  0  0  0  0  0  0  0  0  0  0  0
  139.7063   80.3844  222.0609 H   0  0  0  0  0  0  0  0  0  0  0  0
  142.4278   76.2022  220.8752 H   0  0  0  0  0  0  0  0  0  0  0  0
  1  2  2  0
  2  3  1  0
  3  4  1  0
  4  5  1  0
  5  6  2  0
  6  7  1  0
  7  8  2  0
  8  9  1  0
  9 10  1  0
 10 11  2  0
 10 12  1  0
 12 13  1  0
 13 14  1  0
 14 15  1  0
 15 16  1  0
 16 17  1  0
  9 18  2  0
  4 19  2  0
 19 20  1  0
 20 21  2  0
 21 22  1  0
 22 23  2  0
 23 24  1  0
 24 25  1  0
 25 26  2  0
 26 27  1  0
 27 28  2  0
 28 29  1  0
 29 30  2  0
 23 31  1  0
 31 32  2  0
 32  2  1  0
 18  5  1  0
 32 20  1  0
 17 12  1  0
 30 25  1  0
  3 33  1  0
  3 34  1  0
  6 35  1  0
  7 36  1  0
  8 37  1  0
 13 38  1  0
 13 39  1  0
 14 40  1  0
 14 41  1  0
 16 42  1  0
 16 43  1  0
 17 44  1  0
 17 45  1  0
 18 46  1  0
 21 47  1  0
 22 48  1  0
 26 49  1  0
 27 50  1  0
 28 51  1  0
 29 52  1  0
 30 53  1  0
 31 54  1  0
M  END
>  <smiles>  (32) 
O=C1CC(c2cccc(C(=O)N3CCOCC3)c2)=Nc2ccc(Oc3ccccc3)cc21

>  <score_type>  (32) 
oracle

>  <origin>  (32) 
autodockgpu

>  <m_score__min__energy>  (32) 
-8.6400000000000006

>  <m_primary>  (32) 
energy

>  <rmsd>  (32) 
6.112542998573125

>  <m_score__min__rmsd>  (32) 
6.112542998573125

>  <meeko>  (32) 
{"free_energy": -8.23, "intermolecular_energy": -9.43, "internal_energy": -1.11, "cluster_size": 27, "cluster_id": 1, "rank_in_cluster": 27}

>  <energy>  (32) 
-8.47

>  <cluster_rmsd>  (32) 
0.06

>  <cluster>  (32) 
2

$$$$

     RDKit          3D

 54 58  0  0  0  0  0  0  0  0999 V2000
  143.8520   72.4270  220.7260 O   0  0  0  0  0  0  0  0  0  0  0  0
  142.9750   73.3260  220.6820 C   0  0  0  0  0  0  0  0  0  0  0  0
  143.3110   74.5830  219.9780 C   0  0  0  0  0  0  0  0  0  0  0  0
  142.1510   75.5010  220.0450 C   0  0  0  0  0  0  0  0  0  0  0  0
  142.2820   76.8180  219.4000 C   0  0  0  0  0  0  0  0  0  0  0  0
  142.8020   76.9120  218.1080 C   0  0  0  0  0  0  0  0  0  0  0  0
  142.9380   78.1370  217.4760 C   0  0  0  0  0  0  0  0  0  0  0  0
  142.5410   79.2710  218.1640 C   0  0  0  0  0  0  0  0  0  0  0  0
  142.0280   79.2320  219.4280 C   0  0  0  0  0  0  0  0  0  0  0  0
  141.5990   80.3810  220.1950 C   0  0  0  0  0  0  0  0  0  0  0  0
  140.9400   81.2700  219.5540 O   0  0  0  0  0  0  0  0  0  0  0  0
  141.8700   80.5480  221.5640 N   0  0  0  0  0  0  0  0  0  0  0  0
  142.6050   79.6020  222.3800 C   0  0  0  0  0  0  0  0  0  0  0  0
  141.7640   79.1900  223.5930 C   0  0  0  0  0  0  0  0  0  0  0  0
  140.5360   79.8890  223.5510 O   0  0  0  0  0  0  0  0  0  0  0  0
  140.8120   81.2580  223.5840 C   0  0  0  0  0  0  0  0  0  0  0  0
  141.3910   81.7490  222.2500 C   0  0  0  0  0  0  0  0  0  0  0  0
  141.9020   77.9810  220.0430 C   0  0  0  0  0  0  0  0  0  0  0  0
  141.0410   75.2460  220.6180 N   0  0  0  0  0  0  0  0  0  0  0  0
  140.7160   74.0350  221.2960 C   0  0  0  0  0  0  0  0  0  0  0  0
  139.4760   73.8640  221.8860 C   0  0  0  0  0  0  0  0  0  0  0  0
  139.2140   72.6660  222.5320 C   0  0  0  0  0  0  0  0  0  0  0  0
  140.1930   71.6730  222.5740 C   0  0  0  0  0  0  0  0  0  0  0  0
  139.9640   70.4650  223.2120 O   0  0  0  0  0  0  0  0  0  0  0  0
  140.1290   70.4100  224.5810 C   0  0  0  0  0  0  0  0  0  0  0  0
  139.7270   69.2890  225.2430 C   0  0  0  0  0  0  0  0  0  0  0  0
  139.8590   69.1590  226.6240 C   0  0  0  0  0  0  0  0  0  0  0  0
  140.4170   70.1930  227.3710 C   0  0  0  0  0  0  0  0  0  0  0  0
  140.8310   71.3470  226.6980 C   0  0  0  0  0  0  0  0  0  0  0  0
  140.6880   71.4510  225.3170 C   0  0  0  0  0  0  0  0  0  0  0  0
  141.4260   71.8600  221.9810 C   0  0  0  0  0  0  0  0  0  0  0  0
  141.6970   73.0670  221.3260 C   0  0  0  0  0  0  0  0  0  0  0  0
  144.1812   75.0534  220.4591 H   0  0  0  0  0  0  0  0  0  0  0  0
  143.5516   74.3660  218.9268 H   0  0  0  0  0  0  0  0  0  0  0  0
  143.1095   75.9962  217.5820 H   0  0  0  0  0  0  0  0  0  0  0  0
  143.3491   78.2068  216.4581 H   0  0  0  0  0  0  0  0  0  0  0  0
  142.6438   80.2480  217.6692 H   0  0  0  0  0  0  0  0  0  0  0  0
  142.8407   78.7103  221.7806 H   0  0  0  0  0  0  0  0  0  0  0  0
  143.5352   80.0738  222.7296 H   0  0  0  0  0  0  0  0  0  0  0  0
  141.5748   78.1069  223.5616 H   0  0  0  0  0  0  0  0  0  0  0  0
  142.3016   79.4319  224.5217 H   0  0  0  0  0  0  0  0  0  0  0  0
  139.8807   81.8052  223.7921 H   0  0  0  0  0  0  0  0  0  0  0  0
  141.5583   81.4400  224.3713 H   0  0  0  0  0  0  0  0  0  0  0  0
  140.6126   82.2474  221.6536 H   0  0  0  0  0  0  0  0  0  0  0  0
  142.1980   82.4811  222.4010 H   0  0  0  0  0  0  0  0  0  0  0  0
  141.4910   77.9221  221.0616 H   0  0  0  0  0  0  0  0  0  0  0  0
  138.7171   74.6591  221.8434 H   0  0  0  0  0  0  0  0  0  0  0  0
  138.2375   72.4988  223.0099 H   0  0  0  0  0  0  0  0  0  0  0  0
  139.2846   68.4611  224.6695 H   0  0  0  0  0  0  0  0  0  0  0  0
  139.5222   68.2391  227.1243 H   0  0  0  0  0  0  0  0  0  0  0  0
  140.5293   70.1046  228.4617 H   0  0  0  0  0  0  0  0  0  0  0  0
  141.2734   72.1796  227.2646 H   0  0  0  0  0  0  0  0  0  0  0  0
  141.0200   72.3648  224.8024 H   0  0  0  0  0  0  0  0  0  0  0  0
  142.1881   71.0679  222.0230 H   0  0  0  0  0  0  0  0  0  0  0  0
  1  2  2  0
  2  3  1  0
  3  4  1  0
  4  5  1  0
  5  6  2  0
  6  7  1  0
  7  8  2  0
  8  9  1  0
  9 10  1  0
 10 11  2  0
 10 12  1  0
 12 13  1  0
 13 14  1  0
 14 15  1  0
 15 16  1  0
 16 17  1  0
  9 18  2  0
  4 19  2  0
 19 20  1  0
 20 21  2  0
 21 22  1  0
 22 23  2  0
 23 24  1  0
 24 25  1  0
 25 26  2  0
 26 27  1  0
 27 28  2  0
 28 29  1  0
 29 30  2  0
 23 31  1  0
 31 32  2  0
 32  2  1  0
 18  5  1  0
 32 20  1  0
 17 12  1  0
 30 25  1  0
  3 33  1  0
  3 34  1  0
  6 35  1  0
  7 36  1  0
  8 37  1  0
 13 38  1  0
 13 39  1  0
 14 40  1  0
 14 41  1  0
 16 42  1  0
 16 43  1  0
 17 44  1  0
 17 45  1  0
 18 46  1  0
 21 47  1  0
 22 48  1  0
 26 49  1  0
 27 50  1  0
 28 51  1  0
 29 52  1  0
 30 53  1  0
 31 54  1  0
M  END
>  <smiles>  (33) 
O=C1CC(c2cccc(C(=O)N3CCOCC3)c2)=Nc2ccc(Oc3ccccc3)cc21

>  <score_type>  (33) 
oracle

>  <origin>  (33) 
autodockgpu

>  <m_score__min__energy>  (33) 
-8.6400000000000006

>  <m_primary>  (33) 
energy

>  <rmsd>  (33) 
8.398694742667908

>  <m_score__min__rmsd>  (33) 
8.398694742667908

>  <meeko>  (33) 
{"free_energy": -8.46, "intermolecular_energy": -9.65, "internal_energy": -0.99, "cluster_size": 21, "cluster_id": 2, "rank_in_cluster": 8}

>  <energy>  (33) 
-8.47

>  <cluster_rmsd>  (33) 
0.07

>  <cluster>  (33) 
2

$$$$

     RDKit          3D

 54 58  0  0  0  0  0  0  0  0999 V2000
  143.8020   72.3760  220.6130 O   0  0  0  0  0  0  0  0  0  0  0  0
  142.9400   73.2890  220.6180 C   0  0  0  0  0  0  0  0  0  0  0  0
  143.2700   74.5520  219.9210 C   0  0  0  0  0  0  0  0  0  0  0  0
  142.1290   75.4880  220.0470 C   0  0  0  0  0  0  0  0  0  0  0  0
  142.2580   76.8130  219.4180 C   0  0  0  0  0  0  0  0  0  0  0  0
  142.8030   76.9260  218.1380 C   0  0  0  0  0  0  0  0  0  0  0  0
  142.9370   78.1590  217.5210 C   0  0  0  0  0  0  0  0  0  0  0  0
  142.5130   79.2820  218.2120 C   0  0  0  0  0  0  0  0  0  0  0  0
  141.9750   79.2230  219.4650 C   0  0  0  0  0  0  0  0  0  0  0  0
  141.5170   80.3600  220.2340 C   0  0  0  0  0  0  0  0  0  0  0  0
  140.8210   81.2240  219.5980 O   0  0  0  0  0  0  0  0  0  0  0  0
  141.7980   80.5390  221.5990 N   0  0  0  0  0  0  0  0  0  0  0  0
  142.5740   79.6210  222.4090 C   0  0  0  0  0  0  0  0  0  0  0  0
  141.7610   79.1840  223.6320 C   0  0  0  0  0  0  0  0  0  0  0  0
  140.5100   79.8420  223.6030 O   0  0  0  0  0  0  0  0  0  0  0  0
  140.7400   81.2190  223.6300 C   0  0  0  0  0  0  0  0  0  0  0  0
  141.2870   81.7250  222.2880 C   0  0  0  0  0  0  0  0  0  0  0  0
  141.8500   77.9650  220.0650 C   0  0  0  0  0  0  0  0  0  0  0  0
  141.0380   75.2430  220.6580 N   0  0  0  0  0  0  0  0  0  0  0  0
  140.7180   74.0260  221.3300 C   0  0  0  0  0  0  0  0  0  0  0  0
  139.4990   73.8660  221.9650 C   0  0  0  0  0  0  0  0  0  0  0  0
  139.2410   72.6630  222.6020 C   0  0  0  0  0  0  0  0  0  0  0  0
  140.2050   71.6530  222.5910 C   0  0  0  0  0  0  0  0  0  0  0  0
  139.9800   70.4390  223.2180 O   0  0  0  0  0  0  0  0  0  0  0  0
  140.1460   70.3720  224.5870 C   0  0  0  0  0  0  0  0  0  0  0  0
  140.6760   71.4470  225.2330 C   0  0  0  0  0  0  0  0  0  0  0  0
  140.8750   71.4560  226.6120 C   0  0  0  0  0  0  0  0  0  0  0  0
  140.5290   70.3430  227.3730 C   0  0  0  0  0  0  0  0  0  0  0  0
  139.9850   69.2350  226.7150 C   0  0  0  0  0  0  0  0  0  0  0  0
  139.7960   69.2530  225.3360 C   0  0  0  0  0  0  0  0  0  0  0  0
  141.4160   71.8290  221.9530 C   0  0  0  0  0  0  0  0  0  0  0  0
  141.6830   73.0420  221.3060 C   0  0  0  0  0  0  0  0  0  0  0  0
  144.1659   75.0002  220.3754 H   0  0  0  0  0  0  0  0  0  0  0  0
  143.4662   74.3481  218.8580 H   0  0  0  0  0  0  0  0  0  0  0  0
  143.1322   76.0192  217.6094 H   0  0  0  0  0  0  0  0  0  0  0  0
  143.3674   78.2437  216.5122 H   0  0  0  0  0  0  0  0  0  0  0  0
  142.6144   80.2653  217.7294 H   0  0  0  0  0  0  0  0  0  0  0  0
  142.8335   78.7362  221.8092 H   0  0  0  0  0  0  0  0  0  0  0  0
  143.4913   80.1252  222.7471 H   0  0  0  0  0  0  0  0  0  0  0  0
  141.6073   78.0951  223.6046 H   0  0  0  0  0  0  0  0  0  0  0  0
  142.3009   79.4455  224.5540 H   0  0  0  0  0  0  0  0  0  0  0  0
  139.7933   81.7352  223.8475 H   0  0  0  0  0  0  0  0  0  0  0  0
  141.4884   81.4284  224.4085 H   0  0  0  0  0  0  0  0  0  0  0  0
  140.4855   82.1955  221.6995 H   0  0  0  0  0  0  0  0  0  0  0  0
  142.0710   82.4838  222.4280 H   0  0  0  0  0  0  0  0  0  0  0  0
  141.4176   77.8909  221.0737 H   0  0  0  0  0  0  0  0  0  0  0  0
  138.7529   74.6743  221.9640 H   0  0  0  0  0  0  0  0  0  0  0  0
  138.2806   72.5042  223.1143 H   0  0  0  0  0  0  0  0  0  0  0  0
  140.9557   72.3357  224.6482 H   0  0  0  0  0  0  0  0  0  0  0  0
  141.3057   72.3430  227.0995 H   0  0  0  0  0  0  0  0  0  0  0  0
  140.6794   70.3350  228.4626 H   0  0  0  0  0  0  0  0  0  0  0  0
  139.7041   68.3417  227.2922 H   0  0  0  0  0  0  0  0  0  0  0  0
  139.3658   68.3740  224.8336 H   0  0  0  0  0  0  0  0  0  0  0  0
  142.1651   71.0235  221.9527 H   0  0  0  0  0  0  0  0  0  0  0  0
  1  2  2  0
  2  3  1  0
  3  4  1  0
  4  5  1  0
  5  6  2  0
  6  7  1  0
  7  8  2  0
  8  9  1  0
  9 10  1  0
 10 11  2  0
 10 12  1  0
 12 13  1  0
 13 14  1  0
 14 15  1  0
 15 16  1  0
 16 17  1  0
  9 18  2  0
  4 19  2  0
 19 20  1  0
 20 21  2  0
 21 22  1  0
 22 23  2  0
 23 24  1  0
 24 25  1  0
 25 26  2  0
 26 27  1  0
 27 28  2  0
 28 29  1  0
 29 30  2  0
 23 31  1  0
 31 32  2  0
 32  2  1  0
 18  5  1  0
 32 20  1  0
 17 12  1  0
 30 25  1  0
  3 33  1  0
  3 34  1  0
  6 35  1  0
  7 36  1  0
  8 37  1  0
 13 38  1  0
 13 39  1  0
 14 40  1  0
 14 41  1  0
 16 42  1  0
 16 43  1  0
 17 44  1  0
 17 45  1  0
 18 46  1  0
 21 47  1  0
 22 48  1  0
 26 49  1  0
 27 50  1  0
 28 51  1  0
 29 52  1  0
 30 53  1  0
 31 54  1  0
M  END
>  <smiles>  (34) 
O=C1CC(c2cccc(C(=O)N3CCOCC3)c2)=Nc2ccc(Oc3ccccc3)cc21

>  <score_type>  (34) 
oracle

>  <origin>  (34) 
autodockgpu

>  <m_score__min__energy>  (34) 
-8.6400000000000006

>  <m_primary>  (34) 
energy

>  <rmsd>  (34) 
8.385769182936762

>  <m_score__min__rmsd>  (34) 
8.385769182936762

>  <meeko>  (34) 
{"free_energy": -8.46, "intermolecular_energy": -9.65, "internal_energy": -1.0, "cluster_size": 21, "cluster_id": 2, "rank_in_cluster": 7}

>  <energy>  (34) 
-8.46

>  <cluster_rmsd>  (34) 
0.05

>  <cluster>  (34) 
2

$$$$

     RDKit          3D

 54 58  0  0  0  0  0  0  0  0999 V2000
  143.1590   74.3860  219.8160 O   0  0  0  0  0  0  0  0  0  0  0  0
  142.1450   74.1680  220.5240 C   0  0  0  0  0  0  0  0  0  0  0  0
  141.7740   72.7590  220.7820 C   0  0  0  0  0  0  0  0  0  0  0  0
  140.5590   72.7240  221.6270 C   0  0  0  0  0  0  0  0  0  0  0  0
  140.0210   71.4050  222.0000 C   0  0  0  0  0  0  0  0  0  0  0  0
  139.8910   70.4080  221.0310 C   0  0  0  0  0  0  0  0  0  0  0  0
  139.3880   69.1580  221.3510 C   0  0  0  0  0  0  0  0  0  0  0  0
  139.0160   68.9230  222.6640 C   0  0  0  0  0  0  0  0  0  0  0  0
  139.1230   69.8640  223.6460 C   0  0  0  0  0  0  0  0  0  0  0  0
  138.7500   69.6770  225.0320 C   0  0  0  0  0  0  0  0  0  0  0  0
  137.4960   69.6910  225.2820 O   0  0  0  0  0  0  0  0  0  0  0  0
  139.6790   69.4860  226.0680 N   0  0  0  0  0  0  0  0  0  0  0  0
  141.1180   69.4520  225.8900 C   0  0  0  0  0  0  0  0  0  0  0  0
  141.6860   68.1460  226.4560 C   0  0  0  0  0  0  0  0  0  0  0  0
  140.6250   67.3910  227.0050 O   0  0  0  0  0  0  0  0  0  0  0  0
  140.0280   68.1480  228.0160 C   0  0  0  0  0  0  0  0  0  0  0  0
  139.1990   69.3050  227.4390 C   0  0  0  0  0  0  0  0  0  0  0  0
  139.6340   71.1190  223.2960 C   0  0  0  0  0  0  0  0  0  0  0  0
  139.9330   73.7460  222.0620 N   0  0  0  0  0  0  0  0  0  0  0  0
  140.2900   75.1040  221.8150 C   0  0  0  0  0  0  0  0  0  0  0  0
  139.5370   76.1410  222.3380 C   0  0  0  0  0  0  0  0  0  0  0  0
  139.9290   77.4420  222.0650 C   0  0  0  0  0  0  0  0  0  0  0  0
  141.0590   77.6750  221.2800 C   0  0  0  0  0  0  0  0  0  0  0  0
  141.4780   78.9620  220.9880 O   0  0  0  0  0  0  0  0  0  0  0  0
  141.8260   79.7880  222.0380 C   0  0  0  0  0  0  0  0  0  0  0  0
  140.9530   80.7610  222.4210 C   0  0  0  0  0  0  0  0  0  0  0  0
  141.2340   81.6330  223.4710 C   0  0  0  0  0  0  0  0  0  0  0  0
  142.4360   81.5260  224.1640 C   0  0  0  0  0  0  0  0  0  0  0  0
  143.3370   80.5290  223.7750 C   0  0  0  0  0  0  0  0  0  0  0  0
  143.0320   79.6710  222.7230 C   0  0  0  0  0  0  0  0  0  0  0  0
  141.7980   76.6290  220.7650 C   0  0  0  0  0  0  0  0  0  0  0  0
  141.4080   75.3120  221.0370 C   0  0  0  0  0  0  0  0  0  0  0  0
  141.5734   72.2504  219.8275 H   0  0  0  0  0  0  0  0  0  0  0  0
  142.5993   72.2476  221.2990 H   0  0  0  0  0  0  0  0  0  0  0  0
  140.1936   70.6193  219.9948 H   0  0  0  0  0  0  0  0  0  0  0  0
  139.2870   68.3751  220.5849 H   0  0  0  0  0  0  0  0  0  0  0  0
  138.6161   67.9326  222.9272 H   0  0  0  0  0  0  0  0  0  0  0  0
  141.3539   69.5172  224.8176 H   0  0  0  0  0  0  0  0  0  0  0  0
  141.5678   70.3023  226.4236 H   0  0  0  0  0  0  0  0  0  0  0  0
  142.1701   67.5734  225.6512 H   0  0  0  0  0  0  0  0  0  0  0  0
  142.4307   68.3675  227.2347 H   0  0  0  0  0  0  0  0  0  0  0  0
  139.3685   67.4965  228.6081 H   0  0  0  0  0  0  0  0  0  0  0  0
  140.8245   68.5741  228.6438 H   0  0  0  0  0  0  0  0  0  0  0  0
  138.1291   69.0494  227.4409 H   0  0  0  0  0  0  0  0  0  0  0  0
  139.3108   70.2231  228.0345 H   0  0  0  0  0  0  0  0  0  0  0  0
  139.7299   71.8953  224.0695 H   0  0  0  0  0  0  0  0  0  0  0  0
  138.6494   75.9375  222.9551 H   0  0  0  0  0  0  0  0  0  0  0  0
  139.3514   78.2880  222.4657 H   0  0  0  0  0  0  0  0  0  0  0  0
  139.9975   80.8614  221.8853 H   0  0  0  0  0  0  0  0  0  0  0  0
  140.5047   82.4069  223.7524 H   0  0  0  0  0  0  0  0  0  0  0  0
  142.6713   82.2070  224.9952 H   0  0  0  0  0  0  0  0  0  0  0  0
  144.2948   80.4225  224.3054 H   0  0  0  0  0  0  0  0  0  0  0  0
  143.7513   78.8922  222.4297 H   0  0  0  0  0  0  0  0  0  0  0  0
  142.6855   76.8283  220.1464 H   0  0  0  0  0  0  0  0  0  0  0  0
  1  2  2  0
  2  3  1  0
  3  4  1  0
  4  5  1  0
  5  6  2  0
  6  7  1  0
  7  8  2  0
  8  9  1  0
  9 10  1  0
 10 11  2  0
 10 12  1  0
 12 13  1  0
 13 14  1  0
 14 15  1  0
 15 16  1  0
 16 17  1  0
  9 18  2  0
  4 19  2  0
 19 20  1  0
 20 21  2  0
 21 22  1  0
 22 23  2  0
 23 24  1  0
 24 25  1  0
 25 26  2  0
 26 27  1  0
 27 28  2  0
 28 29  1  0
 29 30  2  0
 23 31  1  0
 31 32  2  0
 32  2  1  0
 18  5  1  0
 32 20  1  0
 17 12  1  0
 30 25  1  0
  3 33  1  0
  3 34  1  0
  6 35  1  0
  7 36  1  0
  8 37  1  0
 13 38  1  0
 13 39  1  0
 14 40  1  0
 14 41  1  0
 16 42  1  0
 16 43  1  0
 17 44  1  0
 17 45  1  0
 18 46  1  0
 21 47  1  0
 22 48  1  0
 26 49  1  0
 27 50  1  0
 28 51  1  0
 29 52  1  0
 30 53  1  0
 31 54  1  0
M  END
>  <smiles>  (35) 
O=C1CC(c2cccc(C(=O)N3CCOCC3)c2)=Nc2ccc(Oc3ccccc3)cc21

>  <score_type>  (35) 
oracle

>  <origin>  (35) 
autodockgpu

>  <m_score__min__energy>  (35) 
-8.6400000000000006

>  <m_primary>  (35) 
energy

>  <rmsd>  (35) 
6.6063156711733715

>  <m_score__min__rmsd>  (35) 
6.6063156711733715

>  <meeko>  (35) 
{"free_energy": -8.51, "intermolecular_energy": -9.7, "internal_energy": -1.09, "cluster_size": 27, "cluster_id": 1, "rank_in_cluster": 13}

>  <energy>  (35) 
-8.46

>  <cluster_rmsd>  (35) 
0.08

>  <cluster>  (35) 
2

$$$$

     RDKit          3D

 54 58  0  0  0  0  0  0  0  0999 V2000
  142.6810   73.5230  220.7570 O   0  0  0  0  0  0  0  0  0  0  0  0
  141.5310   73.6150  221.2550 C   0  0  0  0  0  0  0  0  0  0  0  0
  140.8420   72.3630  221.6360 C   0  0  0  0  0  0  0  0  0  0  0  0
  139.5120   72.6930  222.1970 C   0  0  0  0  0  0  0  0  0  0  0  0
  138.6580   71.5770  222.6390 C   0  0  0  0  0  0  0  0  0  0  0  0
  137.2990   71.5720  222.3220 C   0  0  0  0  0  0  0  0  0  0  0  0
  136.4720   70.5370  222.7240 C   0  0  0  0  0  0  0  0  0  0  0  0
  137.0330   69.5010  223.4520 C   0  0  0  0  0  0  0  0  0  0  0  0
  138.3550   69.4610  223.7870 C   0  0  0  0  0  0  0  0  0  0  0  0
  138.9960   68.4080  224.5460 C   0  0  0  0  0  0  0  0  0  0  0  0
  139.2040   67.3120  223.9200 O   0  0  0  0  0  0  0  0  0  0  0  0
  139.3820   68.5430  225.8900 N   0  0  0  0  0  0  0  0  0  0  0  0
  139.1930   69.7390  226.6870 C   0  0  0  0  0  0  0  0  0  0  0  0
  140.5330   70.1990  227.2700 C   0  0  0  0  0  0  0  0  0  0  0  0
  141.5380   69.2880  226.8700 O   0  0  0  0  0  0  0  0  0  0  0  0
  141.1970   68.0230  227.3530 C   0  0  0  0  0  0  0  0  0  0  0  0
  140.0250   67.4160  226.5690 C   0  0  0  0  0  0  0  0  0  0  0  0
  139.1690   70.5200  223.3680 C   0  0  0  0  0  0  0  0  0  0  0  0
  139.0380   73.8690  222.3290 N   0  0  0  0  0  0  0  0  0  0  0  0
  139.7020   75.0770  221.9630 C   0  0  0  0  0  0  0  0  0  0  0  0
  139.0920   76.3050  222.1500 C   0  0  0  0  0  0  0  0  0  0  0  0
  139.7830   77.4470  221.7760 C   0  0  0  0  0  0  0  0  0  0  0  0
  141.0610   77.3340  221.2250 C   0  0  0  0  0  0  0  0  0  0  0  0
  141.7780   78.4540  220.8400 O   0  0  0  0  0  0  0  0  0  0  0  0
  141.9300   79.4770  221.7550 C   0  0  0  0  0  0  0  0  0  0  0  0
  141.4140   80.7020  221.4560 C   0  0  0  0  0  0  0  0  0  0  0  0
  141.5280   81.7840  222.3270 C   0  0  0  0  0  0  0  0  0  0  0  0
  142.1830   81.6310  223.5460 C   0  0  0  0  0  0  0  0  0  0  0  0
  142.7150   80.3760  223.8580 C   0  0  0  0  0  0  0  0  0  0  0  0
  142.5880   79.3120  222.9710 C   0  0  0  0  0  0  0  0  0  0  0  0
  141.6540   76.1010  221.0440 C   0  0  0  0  0  0  0  0  0  0  0  0
  140.9620   74.9430  221.4200 C   0  0  0  0  0  0  0  0  0  0  0  0
  140.7193   71.7253  220.7482 H   0  0  0  0  0  0  0  0  0  0  0  0
  141.4385   71.8260  222.3882 H   0  0  0  0  0  0  0  0  0  0  0  0
  136.8770   72.4059  221.7419 H   0  0  0  0  0  0  0  0  0  0  0  0
  135.4011   70.5375  222.4726 H   0  0  0  0  0  0  0  0  0  0  0  0
  136.3839   68.6736  223.7745 H   0  0  0  0  0  0  0  0  0  0  0  0
  138.7786   70.5370  226.0534 H   0  0  0  0  0  0  0  0  0  0  0  0
  138.4986   69.5173  227.5108 H   0  0  0  0  0  0  0  0  0  0  0  0
  140.7743   71.2045  226.8949 H   0  0  0  0  0  0  0  0  0  0  0  0
  140.4725   70.2321  228.3678 H   0  0  0  0  0  0  0  0  0  0  0  0
  142.0693   67.3591  227.2621 H   0  0  0  0  0  0  0  0  0  0  0  0
  140.8906   68.1271  228.4043 H   0  0  0  0  0  0  0  0  0  0  0  0
  140.3920   66.6837  225.8348 H   0  0  0  0  0  0  0  0  0  0  0  0
  139.3243   66.8844  227.2296 H   0  0  0  0  0  0  0  0  0  0  0  0
  140.2386   70.5106  223.6246 H   0  0  0  0  0  0  0  0  0  0  0  0
  138.0838   76.3732  222.5846 H   0  0  0  0  0  0  0  0  0  0  0  0
  139.3263   78.4383  221.9128 H   0  0  0  0  0  0  0  0  0  0  0  0
  140.8916   80.8413  220.4980 H   0  0  0  0  0  0  0  0  0  0  0  0
  141.1003   82.7592  222.0512 H   0  0  0  0  0  0  0  0  0  0  0  0
  142.2794   82.4748  224.2450 H   0  0  0  0  0  0  0  0  0  0  0  0
  143.2389   80.2287  224.8140 H   0  0  0  0  0  0  0  0  0  0  0  0
  143.0114   78.3310  223.2327 H   0  0  0  0  0  0  0  0  0  0  0  0
  142.6614   76.0285  220.6082 H   0  0  0  0  0  0  0  0  0  0  0  0
  1  2  2  0
  2  3  1  0
  3  4  1  0
  4  5  1  0
  5  6  2  0
  6  7  1  0
  7  8  2  0
  8  9  1  0
  9 10  1  0
 10 11  2  0
 10 12  1  0
 12 13  1  0
 13 14  1  0
 14 15  1  0
 15 16  1  0
 16 17  1  0
  9 18  2  0
  4 19  2  0
 19 20  1  0
 20 21  2  0
 21 22  1  0
 22 23  2  0
 23 24  1  0
 24 25  1  0
 25 26  2  0
 26 27  1  0
 27 28  2  0
 28 29  1  0
 29 30  2  0
 23 31  1  0
 31 32  2  0
 32  2  1  0
 18  5  1  0
 32 20  1  0
 17 12  1  0
 30 25  1  0
  3 33  1  0
  3 34  1  0
  6 35  1  0
  7 36  1  0
  8 37  1  0
 13 38  1  0
 13 39  1  0
 14 40  1  0
 14 41  1  0
 16 42  1  0
 16 43  1  0
 17 44  1  0
 17 45  1  0
 18 46  1  0
 21 47  1  0
 22 48  1  0
 26 49  1  0
 27 50  1  0
 28 51  1  0
 29 52  1  0
 30 53  1  0
 31 54  1  0
M  END
>  <smiles>  (36) 
O=C1CC(c2cccc(C(=O)N3CCOCC3)c2)=Nc2ccc(Oc3ccccc3)cc21

>  <score_type>  (36) 
oracle

>  <origin>  (36) 
autodockgpu

>  <m_score__min__energy>  (36) 
-8.6400000000000006

>  <m_primary>  (36) 
energy

>  <rmsd>  (36) 
6.162047077100822

>  <m_score__min__rmsd>  (36) 
6.162047077100822

>  <meeko>  (36) 
{"free_energy": -8.55, "intermolecular_energy": -9.75, "internal_energy": -1.13, "cluster_size": 27, "cluster_id": 1, "rank_in_cluster": 8}

>  <energy>  (36) 
-8.46

>  <cluster_rmsd>  (36) 
0.04

>  <cluster>  (36) 
2

$$$$

     RDKit          3D

 54 58  0  0  0  0  0  0  0  0999 V2000
  143.8300   72.3920  220.6790 O   0  0  0  0  0  0  0  0  0  0  0  0
  142.9610   73.2990  220.6620 C   0  0  0  0  0  0  0  0  0  0  0  0
  143.2910   74.5590  219.9620 C   0  0  0  0  0  0  0  0  0  0  0  0
  142.1410   75.4860  220.0630 C   0  0  0  0  0  0  0  0  0  0  0  0
  142.2690   76.8080  219.4270 C   0  0  0  0  0  0  0  0  0  0  0  0
  142.8070   76.9140  218.1440 C   0  0  0  0  0  0  0  0  0  0  0  0
  142.9410   78.1430  217.5200 C   0  0  0  0  0  0  0  0  0  0  0  0
  142.5230   79.2700  218.2080 C   0  0  0  0  0  0  0  0  0  0  0  0
  141.9910   79.2190  219.4640 C   0  0  0  0  0  0  0  0  0  0  0  0
  141.5400   80.3600  220.2300 C   0  0  0  0  0  0  0  0  0  0  0  0
  140.8520   81.2290  219.5910 O   0  0  0  0  0  0  0  0  0  0  0  0
  141.8190   80.5400  221.5960 N   0  0  0  0  0  0  0  0  0  0  0  0
  142.5860   79.6170  222.4090 C   0  0  0  0  0  0  0  0  0  0  0  0
  141.7670   79.1880  223.6310 C   0  0  0  0  0  0  0  0  0  0  0  0
  140.5210   79.8550  223.5980 O   0  0  0  0  0  0  0  0  0  0  0  0
  140.7620   81.2310  223.6230 C   0  0  0  0  0  0  0  0  0  0  0  0
  141.3150   81.7310  222.2810 C   0  0  0  0  0  0  0  0  0  0  0  0
  141.8680   77.9640  220.0710 C   0  0  0  0  0  0  0  0  0  0  0  0
  141.0420   75.2360  220.6580 N   0  0  0  0  0  0  0  0  0  0  0  0
  140.7220   74.0210  221.3330 C   0  0  0  0  0  0  0  0  0  0  0  0
  139.4940   73.8560  221.9490 C   0  0  0  0  0  0  0  0  0  0  0  0
  139.2360   72.6550  222.5910 C   0  0  0  0  0  0  0  0  0  0  0  0
  140.2080   71.6520  222.6020 C   0  0  0  0  0  0  0  0  0  0  0  0
  139.9830   70.4410  223.2340 O   0  0  0  0  0  0  0  0  0  0  0  0
  140.1850   70.3700  224.5980 C   0  0  0  0  0  0  0  0  0  0  0  0
  140.6930   71.4580  225.2400 C   0  0  0  0  0  0  0  0  0  0  0  0
  140.9270   71.4640  226.6140 C   0  0  0  0  0  0  0  0  0  0  0  0
  140.6370   70.3340  227.3740 C   0  0  0  0  0  0  0  0  0  0  0  0
  140.1150   69.2130  226.7200 C   0  0  0  0  0  0  0  0  0  0  0  0
  139.8920   69.2340  225.3470 C   0  0  0  0  0  0  0  0  0  0  0  0
  141.4280   71.8340  221.9830 C   0  0  0  0  0  0  0  0  0  0  0  0
  141.6950   73.0450  221.3320 C   0  0  0  0  0  0  0  0  0  0  0  0
  144.1758   75.0179  220.4274 H   0  0  0  0  0  0  0  0  0  0  0  0
  143.5055   74.3493  218.9037 H   0  0  0  0  0  0  0  0  0  0  0  0
  143.1310   76.0038  217.6180 H   0  0  0  0  0  0  0  0  0  0  0  0
  143.3665   78.2217  216.5087 H   0  0  0  0  0  0  0  0  0  0  0  0
  142.6243   80.2507  217.7201 H   0  0  0  0  0  0  0  0  0  0  0  0
  142.8398   78.7293  221.8109 H   0  0  0  0  0  0  0  0  0  0  0  0
  143.5065   80.1145  222.7484 H   0  0  0  0  0  0  0  0  0  0  0  0
  141.6054   78.1002  223.6051 H   0  0  0  0  0  0  0  0  0  0  0  0
  142.3067   79.4471  224.5538 H   0  0  0  0  0  0  0  0  0  0  0  0
  139.8191   81.7550  223.8383 H   0  0  0  0  0  0  0  0  0  0  0  0
  141.5111   81.4356  224.4021 H   0  0  0  0  0  0  0  0  0  0  0  0
  140.5179   82.2057  221.6900 H   0  0  0  0  0  0  0  0  0  0  0  0
  142.1036   82.4850  222.4208 H   0  0  0  0  0  0  0  0  0  0  0  0
  141.4427   77.8957  221.0832 H   0  0  0  0  0  0  0  0  0  0  0  0
  138.7413   74.6580  221.9297 H   0  0  0  0  0  0  0  0  0  0  0  0
  138.2693   72.4924  223.0900 H   0  0  0  0  0  0  0  0  0  0  0  0
  140.9260   72.3605  224.6560 H   0  0  0  0  0  0  0  0  0  0  0  0
  141.3406   72.3611  227.0978 H   0  0  0  0  0  0  0  0  0  0  0  0
  140.8136   70.3231  228.4597 H   0  0  0  0  0  0  0  0  0  0  0  0
  139.8787   68.3066  227.2967 H   0  0  0  0  0  0  0  0  0  0  0  0
  139.4801   68.3442  224.8484 H   0  0  0  0  0  0  0  0  0  0  0  0
  142.1839   71.0351  222.0008 H   0  0  0  0  0  0  0  0  0  0  0  0
  1  2  2  0
  2  3  1  0
  3  4  1  0
  4  5  1  0
  5  6  2  0
  6  7  1  0
  7  8  2  0
  8  9  1  0
  9 10  1  0
 10 11  2  0
 10 12  1  0
 12 13  1  0
 13 14  1  0
 14 15  1  0
 15 16  1  0
 16 17  1  0
  9 18  2  0
  4 19  2  0
 19 20  1  0
 20 21  2  0
 21 22  1  0
 22 23  2  0
 23 24  1  0
 24 25  1  0
 25 26  2  0
 26 27  1  0
 27 28  2  0
 28 29  1  0
 29 30  2  0
 23 31  1  0
 31 32  2  0
 32  2  1  0
 18  5  1  0
 32 20  1  0
 17 12  1  0
 30 25  1  0
  3 33  1  0
  3 34  1  0
  6 35  1  0
  7 36  1  0
  8 37  1  0
 13 38  1  0
 13 39  1  0
 14 40  1  0
 14 41  1  0
 16 42  1  0
 16 43  1  0
 17 44  1  0
 17 45  1  0
 18 46  1  0
 21 47  1  0
 22 48  1  0
 26 49  1  0
 27 50  1  0
 28 51  1  0
 29 52  1  0
 30 53  1  0
 31 54  1  0
M  END
>  <smiles>  (37) 
O=C1CC(c2cccc(C(=O)N3CCOCC3)c2)=Nc2ccc(Oc3ccccc3)cc21

>  <score_type>  (37) 
oracle

>  <origin>  (37) 
autodockgpu

>  <m_score__min__energy>  (37) 
-8.6400000000000006

>  <m_primary>  (37) 
energy

>  <rmsd>  (37) 
8.381423357742742

>  <m_score__min__rmsd>  (37) 
8.381423357742742

>  <meeko>  (37) 
{"free_energy": -8.48, "intermolecular_energy": -9.67, "internal_energy": -0.99, "cluster_size": 21, "cluster_id": 2, "rank_in_cluster": 2}

>  <energy>  (37) 
-8.46

>  <cluster_rmsd>  (37) 
0.08

>  <cluster>  (37) 
2

$$$$

     RDKit          3D

 54 58  0  0  0  0  0  0  0  0999 V2000
  143.8550   72.3960  220.7000 O   0  0  0  0  0  0  0  0  0  0  0  0
  142.9820   73.2990  220.6760 C   0  0  0  0  0  0  0  0  0  0  0  0
  143.3110   74.5590  219.9740 C   0  0  0  0  0  0  0  0  0  0  0  0
  142.1560   75.4820  220.0660 C   0  0  0  0  0  0  0  0  0  0  0  0
  142.2830   76.8020  219.4270 C   0  0  0  0  0  0  0  0  0  0  0  0
  142.8180   76.9050  218.1420 C   0  0  0  0  0  0  0  0  0  0  0  0
  142.9490   78.1330  217.5150 C   0  0  0  0  0  0  0  0  0  0  0  0
  142.5330   79.2620  218.2020 C   0  0  0  0  0  0  0  0  0  0  0  0
  142.0050   79.2130  219.4590 C   0  0  0  0  0  0  0  0  0  0  0  0
  141.5550   80.3560  220.2240 C   0  0  0  0  0  0  0  0  0  0  0  0
  140.8580   81.2190  219.5880 O   0  0  0  0  0  0  0  0  0  0  0  0
  141.8450   80.5430  221.5870 N   0  0  0  0  0  0  0  0  0  0  0  0
  142.6240   79.6270  222.3970 C   0  0  0  0  0  0  0  0  0  0  0  0
  141.8170   79.2000  223.6290 C   0  0  0  0  0  0  0  0  0  0  0  0
  140.5680   79.8620  223.6030 O   0  0  0  0  0  0  0  0  0  0  0  0
  140.8030   81.2390  223.6200 C   0  0  0  0  0  0  0  0  0  0  0  0
  141.3430   81.7350  222.2710 C   0  0  0  0  0  0  0  0  0  0  0  0
  141.8830   77.9590  220.0690 C   0  0  0  0  0  0  0  0  0  0  0  0
  141.0560   75.2290  220.6560 N   0  0  0  0  0  0  0  0  0  0  0  0
  140.7370   74.0150  221.3330 C   0  0  0  0  0  0  0  0  0  0  0  0
  139.5060   73.8460  221.9430 C   0  0  0  0  0  0  0  0  0  0  0  0
  139.2490   72.6460  222.5870 C   0  0  0  0  0  0  0  0  0  0  0  0
  140.2250   71.6480  222.6060 C   0  0  0  0  0  0  0  0  0  0  0  0
  140.0020   70.4370  223.2410 O   0  0  0  0  0  0  0  0  0  0  0  0
  140.2070   70.3680  224.6040 C   0  0  0  0  0  0  0  0  0  0  0  0
  140.7150   71.4590  225.2440 C   0  0  0  0  0  0  0  0  0  0  0  0
  140.9520   71.4660  226.6170 C   0  0  0  0  0  0  0  0  0  0  0  0
  140.6670   70.3360  227.3790 C   0  0  0  0  0  0  0  0  0  0  0  0
  140.1460   69.2130  226.7280 C   0  0  0  0  0  0  0  0  0  0  0  0
  139.9200   69.2320  225.3550 C   0  0  0  0  0  0  0  0  0  0  0  0
  141.4480   71.8330  221.9930 C   0  0  0  0  0  0  0  0  0  0  0  0
  141.7140   73.0430  221.3400 C   0  0  0  0  0  0  0  0  0  0  0  0
  144.1912   75.0228  220.4431 H   0  0  0  0  0  0  0  0  0  0  0  0
  143.5324   74.3472  218.9175 H   0  0  0  0  0  0  0  0  0  0  0  0
  143.1416   75.9939  217.6175 H   0  0  0  0  0  0  0  0  0  0  0  0
  143.3707   78.2097  216.5019 H   0  0  0  0  0  0  0  0  0  0  0  0
  142.6329   80.2417  217.7120 H   0  0  0  0  0  0  0  0  0  0  0  0
  142.8763   78.7378  221.8007 H   0  0  0  0  0  0  0  0  0  0  0  0
  143.5456   80.1298  222.7255 H   0  0  0  0  0  0  0  0  0  0  0  0
  141.6597   78.1115  223.6097 H   0  0  0  0  0  0  0  0  0  0  0  0
  142.3634   79.4654  224.5461 H   0  0  0  0  0  0  0  0  0  0  0  0
  139.8595   81.7598  223.8405 H   0  0  0  0  0  0  0  0  0  0  0  0
  141.5572   81.4506  224.3922 H   0  0  0  0  0  0  0  0  0  0  0  0
  140.5394   82.2045  221.6847 H   0  0  0  0  0  0  0  0  0  0  0  0
  142.1303   82.4922  222.4008 H   0  0  0  0  0  0  0  0  0  0  0  0
  141.4593   77.8928  221.0820 H   0  0  0  0  0  0  0  0  0  0  0  0
  138.7501   74.6447  221.9172 H   0  0  0  0  0  0  0  0  0  0  0  0
  138.2802   72.4807  223.0810 H   0  0  0  0  0  0  0  0  0  0  0  0
  140.9449   72.3615  224.6586 H   0  0  0  0  0  0  0  0  0  0  0  0
  141.3644   72.3646  227.0992 H   0  0  0  0  0  0  0  0  0  0  0  0
  140.8468   70.3267  228.4642 H   0  0  0  0  0  0  0  0  0  0  0  0
  139.9128   68.3069  227.3064 H   0  0  0  0  0  0  0  0  0  0  0  0
  139.5104   68.3401  224.8583 H   0  0  0  0  0  0  0  0  0  0  0  0
  142.2069   71.0370  222.0172 H   0  0  0  0  0  0  0  0  0  0  0  0
  1  2  2  0
  2  3  1  0
  3  4  1  0
  4  5  1  0
  5  6  2  0
  6  7  1  0
  7  8  2  0
  8  9  1  0
  9 10  1  0
 10 11  2  0
 10 12  1  0
 12 13  1  0
 13 14  1  0
 14 15  1  0
 15 16  1  0
 16 17  1  0
  9 18  2  0
  4 19  2  0
 19 20  1  0
 20 21  2  0
 21 22  1  0
 22 23  2  0
 23 24  1  0
 24 25  1  0
 25 26  2  0
 26 27  1  0
 27 28  2  0
 28 29  1  0
 29 30  2  0
 23 31  1  0
 31 32  2  0
 32  2  1  0
 18  5  1  0
 32 20  1  0
 17 12  1  0
 30 25  1  0
  3 33  1  0
  3 34  1  0
  6 35  1  0
  7 36  1  0
  8 37  1  0
 13 38  1  0
 13 39  1  0
 14 40  1  0
 14 41  1  0
 16 42  1  0
 16 43  1  0
 17 44  1  0
 17 45  1  0
 18 46  1  0
 21 47  1  0
 22 48  1  0
 26 49  1  0
 27 50  1  0
 28 51  1  0
 29 52  1  0
 30 53  1  0
 31 54  1  0
M  END
>  <smiles>  (38) 
O=C1CC(c2cccc(C(=O)N3CCOCC3)c2)=Nc2ccc(Oc3ccccc3)cc21

>  <score_type>  (38) 
oracle

>  <origin>  (38) 
autodockgpu

>  <m_score__min__energy>  (38) 
-8.6400000000000006

>  <m_primary>  (38) 
energy

>  <rmsd>  (38) 
8.385956978028736

>  <m_score__min__rmsd>  (38) 
8.385956978028736

>  <meeko>  (38) 
{"free_energy": -8.47, "intermolecular_energy": -9.66, "internal_energy": -1.0, "cluster_size": 21, "cluster_id": 2, "rank_in_cluster": 4}

>  <energy>  (38) 
-8.46

>  <cluster_rmsd>  (38) 
0.06

>  <cluster>  (38) 
2

$$$$

     RDKit          3D

 54 58  0  0  0  0  0  0  0  0999 V2000
  143.8120   72.3730  220.6890 O   0  0  0  0  0  0  0  0  0  0  0  0
  142.9420   73.2780  220.6690 C   0  0  0  0  0  0  0  0  0  0  0  0
  143.2710   74.5360  219.9620 C   0  0  0  0  0  0  0  0  0  0  0  0
  142.1200   75.4620  220.0590 C   0  0  0  0  0  0  0  0  0  0  0  0
  142.2460   76.7810  219.4170 C   0  0  0  0  0  0  0  0  0  0  0  0
  142.8180   76.8850  218.1480 C   0  0  0  0  0  0  0  0  0  0  0  0
  142.9510   78.1110  217.5180 C   0  0  0  0  0  0  0  0  0  0  0  0
  142.4980   79.2370  218.1860 C   0  0  0  0  0  0  0  0  0  0  0  0
  141.9330   79.1880  219.4270 C   0  0  0  0  0  0  0  0  0  0  0  0
  141.4440   80.3280  220.1710 C   0  0  0  0  0  0  0  0  0  0  0  0
  140.6960   81.1410  219.5260 O   0  0  0  0  0  0  0  0  0  0  0  0
  141.7490   80.5630  221.5230 N   0  0  0  0  0  0  0  0  0  0  0  0
  142.5830   79.7060  222.3410 C   0  0  0  0  0  0  0  0  0  0  0  0
  141.8190   79.2740  223.5980 C   0  0  0  0  0  0  0  0  0  0  0  0
  140.5400   79.8770  223.5790 O   0  0  0  0  0  0  0  0  0  0  0  0
  140.7110   81.2630  223.5570 C   0  0  0  0  0  0  0  0  0  0  0  0
  141.2030   81.7480  222.1860 C   0  0  0  0  0  0  0  0  0  0  0  0
  141.8110   77.9360  220.0400 C   0  0  0  0  0  0  0  0  0  0  0  0
  141.0220   75.2140  220.6570 N   0  0  0  0  0  0  0  0  0  0  0  0
  140.7030   74.0030  221.3380 C   0  0  0  0  0  0  0  0  0  0  0  0
  139.4760   73.8390  221.9570 C   0  0  0  0  0  0  0  0  0  0  0  0
  139.2200   72.6410  222.6050 C   0  0  0  0  0  0  0  0  0  0  0  0
  140.1920   71.6400  222.6200 C   0  0  0  0  0  0  0  0  0  0  0  0
  139.9690   70.4320  223.2580 O   0  0  0  0  0  0  0  0  0  0  0  0
  140.1620   70.3710  224.6240 C   0  0  0  0  0  0  0  0  0  0  0  0
  140.7190   71.4430  225.2530 C   0  0  0  0  0  0  0  0  0  0  0  0
  140.9460   71.4560  226.6280 C   0  0  0  0  0  0  0  0  0  0  0  0
  140.6000   70.3530  227.4020 C   0  0  0  0  0  0  0  0  0  0  0  0
  140.0280   69.2490  226.7620 C   0  0  0  0  0  0  0  0  0  0  0  0
  139.8120   69.2610  225.3880 C   0  0  0  0  0  0  0  0  0  0  0  0
  141.4120   71.8200  221.9990 C   0  0  0  0  0  0  0  0  0  0  0  0
  141.6770   73.0270  221.3420 C   0  0  0  0  0  0  0  0  0  0  0  0
  144.1554   74.9981  220.4249 H   0  0  0  0  0  0  0  0  0  0  0  0
  143.4857   74.3214  218.9047 H   0  0  0  0  0  0  0  0  0  0  0  0
  143.1698   75.9757  217.6386 H   0  0  0  0  0  0  0  0  0  0  0  0
  143.4025   78.1884  216.5179 H   0  0  0  0  0  0  0  0  0  0  0  0
  142.5984   80.2154  217.6933 H   0  0  0  0  0  0  0  0  0  0  0  0
  142.8663   78.8142  221.7627 H   0  0  0  0  0  0  0  0  0  0  0  0
  143.4853   80.2597  222.6399 H   0  0  0  0  0  0  0  0  0  0  0  0
  141.7123   78.1792  223.6087 H   0  0  0  0  0  0  0  0  0  0  0  0
  142.3686   79.5876  224.4978 H   0  0  0  0  0  0  0  0  0  0  0  0
  139.7485   81.7454  223.7824 H   0  0  0  0  0  0  0  0  0  0  0  0
  141.4683   81.5291  224.3091 H   0  0  0  0  0  0  0  0  0  0  0  0
  140.3678   82.1637  221.6032 H   0  0  0  0  0  0  0  0  0  0  0  0
  141.9557   82.5444  222.2817 H   0  0  0  0  0  0  0  0  0  0  0  0
  141.3586   77.8693  221.0404 H   0  0  0  0  0  0  0  0  0  0  0  0
  138.7224   74.6400  221.9352 H   0  0  0  0  0  0  0  0  0  0  0  0
  138.2539   72.4798  223.1057 H   0  0  0  0  0  0  0  0  0  0  0  0
  140.9980   72.3250  224.6579 H   0  0  0  0  0  0  0  0  0  0  0  0
  141.3992   72.3393  227.1018 H   0  0  0  0  0  0  0  0  0  0  0  0
  140.7718   70.3494  228.4885 H   0  0  0  0  0  0  0  0  0  0  0  0
  139.7464   68.3633  227.3504 H   0  0  0  0  0  0  0  0  0  0  0  0
  139.3601   68.3847  224.9002 H   0  0  0  0  0  0  0  0  0  0  0  0
  142.1688   71.0220  222.0204 H   0  0  0  0  0  0  0  0  0  0  0  0
  1  2  2  0
  2  3  1  0
  3  4  1  0
  4  5  1  0
  5  6  2  0
  6  7  1  0
  7  8  2  0
  8  9  1  0
  9 10  1  0
 10 11  2  0
 10 12  1  0
 12 13  1  0
 13 14  1  0
 14 15  1  0
 15 16  1  0
 16 17  1  0
  9 18  2  0
  4 19  2  0
 19 20  1  0
 20 21  2  0
 21 22  1  0
 22 23  2  0
 23 24  1  0
 24 25  1  0
 25 26  2  0
 26 27  1  0
 27 28  2  0
 28 29  1  0
 29 30  2  0
 23 31  1  0
 31 32  2  0
 32  2  1  0
 18  5  1  0
 32 20  1  0
 17 12  1  0
 30 25  1  0
  3 33  1  0
  3 34  1  0
  6 35  1  0
  7 36  1  0
  8 37  1  0
 13 38  1  0
 13 39  1  0
 14 40  1  0
 14 41  1  0
 16 42  1  0
 16 43  1  0
 17 44  1  0
 17 45  1  0
 18 46  1  0
 21 47  1  0
 22 48  1  0
 26 49  1  0
 27 50  1  0
 28 51  1  0
 29 52  1  0
 30 53  1  0
 31 54  1  0
M  END
>  <smiles>  (39) 
O=C1CC(c2cccc(C(=O)N3CCOCC3)c2)=Nc2ccc(Oc3ccccc3)cc21

>  <score_type>  (39) 
oracle

>  <origin>  (39) 
autodockgpu

>  <m_score__min__energy>  (39) 
-8.6400000000000006

>  <m_primary>  (39) 
energy

>  <rmsd>  (39) 
8.368835148303516

>  <m_score__min__rmsd>  (39) 
8.368835148303516

>  <meeko>  (39) 
{"free_energy": -8.43, "intermolecular_energy": -9.63, "internal_energy": -1.03, "cluster_size": 21, "cluster_id": 2, "rank_in_cluster": 17}

>  <energy>  (39) 
-8.46

>  <cluster_rmsd>  (39) 
0.08

>  <cluster>  (39) 
2

$$$$

     RDKit          3D

 54 58  0  0  0  0  0  0  0  0999 V2000
  136.8360   73.6150  221.5810 O   0  0  0  0  0  0  0  0  0  0  0  0
  138.0860   73.7430  221.5850 C   0  0  0  0  0  0  0  0  0  0  0  0
  138.6670   74.8620  220.8100 C   0  0  0  0  0  0  0  0  0  0  0  0
  140.1420   74.8300  220.9460 C   0  0  0  0  0  0  0  0  0  0  0  0
  140.9160   75.8670  220.2440 C   0  0  0  0  0  0  0  0  0  0  0  0
  141.7090   75.5220  219.1490 C   0  0  0  0  0  0  0  0  0  0  0  0
  142.4490   76.4750  218.4690 C   0  0  0  0  0  0  0  0  0  0  0  0
  142.3800   77.7870  218.9080 C   0  0  0  0  0  0  0  0  0  0  0  0
  141.6200   78.1740  219.9740 C   0  0  0  0  0  0  0  0  0  0  0  0
  141.5100   79.5260  220.4770 C   0  0  0  0  0  0  0  0  0  0  0  0
  140.9780   80.3780  219.6860 O   0  0  0  0  0  0  0  0  0  0  0  0
  141.9480   79.9180  221.7540 N   0  0  0  0  0  0  0  0  0  0  0  0
  142.5610   79.0320  222.7240 C   0  0  0  0  0  0  0  0  0  0  0  0
  141.7840   79.0810  224.0440 C   0  0  0  0  0  0  0  0  0  0  0  0
  140.7220   80.0050  223.9100 O   0  0  0  0  0  0  0  0  0  0  0  0
  141.2670   81.2560  223.6120 C   0  0  0  0  0  0  0  0  0  0  0  0
  141.7910   81.3130  222.1700 C   0  0  0  0  0  0  0  0  0  0  0  0
  140.8830   77.1900  220.6420 C   0  0  0  0  0  0  0  0  0  0  0  0
  140.8020   73.9740  221.6210 N   0  0  0  0  0  0  0  0  0  0  0  0
  140.2430   72.8960  222.3680 C   0  0  0  0  0  0  0  0  0  0  0  0
  141.0560   72.0220  223.0680 C   0  0  0  0  0  0  0  0  0  0  0  0
  140.4590   70.9910  223.7770 C   0  0  0  0  0  0  0  0  0  0  0  0
  139.0690   70.8590  223.7680 C   0  0  0  0  0  0  0  0  0  0  0  0
  138.4410   69.8410  224.4650 O   0  0  0  0  0  0  0  0  0  0  0  0
  139.1350   69.2240  225.4860 C   0  0  0  0  0  0  0  0  0  0  0  0
  139.4700   69.9570  226.5840 C   0  0  0  0  0  0  0  0  0  0  0  0
  140.1710   69.4070  227.6540 C   0  0  0  0  0  0  0  0  0  0  0  0
  140.5520   68.0680  227.6230 C   0  0  0  0  0  0  0  0  0  0  0  0
  140.2120   67.3100  226.4980 C   0  0  0  0  0  0  0  0  0  0  0  0
  139.5110   67.8850  225.4420 C   0  0  0  0  0  0  0  0  0  0  0  0
  138.2730   71.7390  223.0640 C   0  0  0  0  0  0  0  0  0  0  0  0
  138.8690   72.7830  222.3460 C   0  0  0  0  0  0  0  0  0  0  0  0
  138.3923   74.7579  219.7500 H   0  0  0  0  0  0  0  0  0  0  0  0
  138.2798   75.8182  221.1917 H   0  0  0  0  0  0  0  0  0  0  0  0
  141.7472   74.4732  218.8196 H   0  0  0  0  0  0  0  0  0  0  0  0
  143.0728   76.1983  217.6062 H   0  0  0  0  0  0  0  0  0  0  0  0
  142.9637   78.5512  218.3738 H   0  0  0  0  0  0  0  0  0  0  0  0
  142.5523   78.0034  222.3343 H   0  0  0  0  0  0  0  0  0  0  0  0
  143.5973   79.3546  222.9031 H   0  0  0  0  0  0  0  0  0  0  0  0
  141.3804   78.0837  224.2734 H   0  0  0  0  0  0  0  0  0  0  0  0
  142.4515   79.3926  224.8609 H   0  0  0  0  0  0  0  0  0  0  0  0
  140.4901   82.0240  223.7405 H   0  0  0  0  0  0  0  0  0  0  0  0
  142.1118   81.4353  224.2933 H   0  0  0  0  0  0  0  0  0  0  0  0
  141.0698   81.8291  221.5193 H   0  0  0  0  0  0  0  0  0  0  0  0
  142.7386   81.8676  222.1023 H   0  0  0  0  0  0  0  0  0  0  0  0
  140.2627   77.4762  221.5042 H   0  0  0  0  0  0  0  0  0  0  0  0
  142.1494   72.1423  223.0620 H   0  0  0  0  0  0  0  0  0  0  0  0
  141.0777   70.2800  224.3442 H   0  0  0  0  0  0  0  0  0  0  0  0
  139.1776   71.0166  226.6268 H   0  0  0  0  0  0  0  0  0  0  0  0
  140.4239   70.0305  228.5242 H   0  0  0  0  0  0  0  0  0  0  0  0
  141.1054   67.6186  228.4607 H   0  0  0  0  0  0  0  0  0  0  0  0
  140.5012   66.2499  226.4473 H   0  0  0  0  0  0  0  0  0  0  0  0
  139.2517   67.2750  224.5641 H   0  0  0  0  0  0  0  0  0  0  0  0
  137.1793   71.6214  223.0667 H   0  0  0  0  0  0  0  0  0  0  0  0
  1  2  2  0
  2  3  1  0
  3  4  1  0
  4  5  1  0
  5  6  2  0
  6  7  1  0
  7  8  2  0
  8  9  1  0
  9 10  1  0
 10 11  2  0
 10 12  1  0
 12 13  1  0
 13 14  1  0
 14 15  1  0
 15 16  1  0
 16 17  1  0
  9 18  2  0
  4 19  2  0
 19 20  1  0
 20 21  2  0
 21 22  1  0
 22 23  2  0
 23 24  1  0
 24 25  1  0
 25 26  2  0
 26 27  1  0
 27 28  2  0
 28 29  1  0
 29 30  2  0
 23 31  1  0
 31 32  2  0
 32  2  1  0
 18  5  1  0
 32 20  1  0
 17 12  1  0
 30 25  1  0
  3 33  1  0
  3 34  1  0
  6 35  1  0
  7 36  1  0
  8 37  1  0
 13 38  1  0
 13 39  1  0
 14 40  1  0
 14 41  1  0
 16 42  1  0
 16 43  1  0
 17 44  1  0
 17 45  1  0
 18 46  1  0
 21 47  1  0
 22 48  1  0
 26 49  1  0
 27 50  1  0
 28 51  1  0
 29 52  1  0
 30 53  1  0
 31 54  1  0
M  END
>  <smiles>  (40) 
O=C1CC(c2cccc(C(=O)N3CCOCC3)c2)=Nc2ccc(Oc3ccccc3)cc21

>  <score_type>  (40) 
oracle

>  <origin>  (40) 
autodockgpu

>  <m_score__min__energy>  (40) 
-8.6400000000000006

>  <m_primary>  (40) 
energy

>  <rmsd>  (40) 
7.655996995488807

>  <m_score__min__rmsd>  (40) 
7.655996995488807

>  <meeko>  (40) 
{"free_energy": -7.94, "intermolecular_energy": -9.13, "internal_energy": -1.05, "cluster_size": 21, "cluster_id": 2, "rank_in_cluster": 21}

>  <energy>  (40) 
-8.45

>  <cluster_rmsd>  (40) 
0.08

>  <cluster>  (40) 
2

$$$$

     RDKit          3D

 54 58  0  0  0  0  0  0  0  0999 V2000
  143.8330   72.4000  220.6700 O   0  0  0  0  0  0  0  0  0  0  0  0
  142.9650   73.3090  220.6520 C   0  0  0  0  0  0  0  0  0  0  0  0
  143.2980   74.5670  219.9470 C   0  0  0  0  0  0  0  0  0  0  0  0
  142.1490   75.4960  220.0480 C   0  0  0  0  0  0  0  0  0  0  0  0
  142.2790   76.8160  219.4070 C   0  0  0  0  0  0  0  0  0  0  0  0
  142.8160   76.9160  218.1230 C   0  0  0  0  0  0  0  0  0  0  0  0
  142.9510   78.1430  217.4950 C   0  0  0  0  0  0  0  0  0  0  0  0
  142.5360   79.2730  218.1800 C   0  0  0  0  0  0  0  0  0  0  0  0
  142.0060   79.2270  219.4370 C   0  0  0  0  0  0  0  0  0  0  0  0
  141.5570   80.3720  220.2000 C   0  0  0  0  0  0  0  0  0  0  0  0
  140.8840   81.2470  219.5550 O   0  0  0  0  0  0  0  0  0  0  0  0
  141.8250   80.5470  221.5680 N   0  0  0  0  0  0  0  0  0  0  0  0
  142.5760   79.6160  222.3880 C   0  0  0  0  0  0  0  0  0  0  0  0
  141.7400   79.1940  223.6010 C   0  0  0  0  0  0  0  0  0  0  0  0
  140.5010   79.8720  223.5570 O   0  0  0  0  0  0  0  0  0  0  0  0
  140.7540   81.2450  223.5860 C   0  0  0  0  0  0  0  0  0  0  0  0
  141.3250   81.7420  222.2500 C   0  0  0  0  0  0  0  0  0  0  0  0
  141.8810   77.9740  220.0470 C   0  0  0  0  0  0  0  0  0  0  0  0
  141.0510   75.2500  220.6460 N   0  0  0  0  0  0  0  0  0  0  0  0
  140.7300   74.0380  221.3250 C   0  0  0  0  0  0  0  0  0  0  0  0
  139.5020   73.8770  221.9440 C   0  0  0  0  0  0  0  0  0  0  0  0
  139.2430   72.6780  222.5900 C   0  0  0  0  0  0  0  0  0  0  0  0
  140.2130   71.6740  222.6020 C   0  0  0  0  0  0  0  0  0  0  0  0
  139.9870   70.4650  223.2390 O   0  0  0  0  0  0  0  0  0  0  0  0
  140.1460   70.4100  224.6090 C   0  0  0  0  0  0  0  0  0  0  0  0
  140.7170   71.4720  225.2430 C   0  0  0  0  0  0  0  0  0  0  0  0
  140.9130   71.4900  226.6220 C   0  0  0  0  0  0  0  0  0  0  0  0
  140.5190   70.4030  227.3970 C   0  0  0  0  0  0  0  0  0  0  0  0
  139.9320   69.3100  226.7510 C   0  0  0  0  0  0  0  0  0  0  0  0
  139.7480   69.3160  225.3720 C   0  0  0  0  0  0  0  0  0  0  0  0
  141.4320   71.8520  221.9800 C   0  0  0  0  0  0  0  0  0  0  0  0
  141.7010   73.0600  221.3250 C   0  0  0  0  0  0  0  0  0  0  0  0
  144.1845   75.0254  220.4097 H   0  0  0  0  0  0  0  0  0  0  0  0
  143.5117   74.3544  218.8891 H   0  0  0  0  0  0  0  0  0  0  0  0
  143.1380   76.0035  217.5999 H   0  0  0  0  0  0  0  0  0  0  0  0
  143.3750   78.2178  216.4828 H   0  0  0  0  0  0  0  0  0  0  0  0
  142.6382   80.2519  217.6887 H   0  0  0  0  0  0  0  0  0  0  0  0
  142.8278   78.7265  221.7918 H   0  0  0  0  0  0  0  0  0  0  0  0
  143.4979   80.1043  222.7369 H   0  0  0  0  0  0  0  0  0  0  0  0
  141.5685   78.1078  223.5722 H   0  0  0  0  0  0  0  0  0  0  0  0
  142.2728   79.4480  224.5293 H   0  0  0  0  0  0  0  0  0  0  0  0
  139.8137   81.7771  223.7926 H   0  0  0  0  0  0  0  0  0  0  0  0
  141.4972   81.4418  224.3727 H   0  0  0  0  0  0  0  0  0  0  0  0
  140.5382   82.2249  221.6518 H   0  0  0  0  0  0  0  0  0  0  0  0
  142.1190   82.4886  222.3987 H   0  0  0  0  0  0  0  0  0  0  0  0
  141.4560   77.9094  221.0595 H   0  0  0  0  0  0  0  0  0  0  0  0
  138.7508   74.6803  221.9237 H   0  0  0  0  0  0  0  0  0  0  0  0
  138.2769   72.5183  223.0912 H   0  0  0  0  0  0  0  0  0  0  0  0
  141.0328   72.3416  224.6480 H   0  0  0  0  0  0  0  0  0  0  0  0
  141.3797   72.3644  227.0991 H   0  0  0  0  0  0  0  0  0  0  0  0
  140.6652   70.4035  228.4872 H   0  0  0  0  0  0  0  0  0  0  0  0
  139.6127   68.4370  227.3392 H   0  0  0  0  0  0  0  0  0  0  0  0
  139.2838   68.4484  224.8802 H   0  0  0  0  0  0  0  0  0  0  0  0
  142.1862   71.0514  221.9986 H   0  0  0  0  0  0  0  0  0  0  0  0
  1  2  2  0
  2  3  1  0
  3  4  1  0
  4  5  1  0
  5  6  2  0
  6  7  1  0
  7  8  2  0
  8  9  1  0
  9 10  1  0
 10 11  2  0
 10 12  1  0
 12 13  1  0
 13 14  1  0
 14 15  1  0
 15 16  1  0
 16 17  1  0
  9 18  2  0
  4 19  2  0
 19 20  1  0
 20 21  2  0
 21 22  1  0
 22 23  2  0
 23 24  1  0
 24 25  1  0
 25 26  2  0
 26 27  1  0
 27 28  2  0
 28 29  1  0
 29 30  2  0
 23 31  1  0
 31 32  2  0
 32  2  1  0
 18  5  1  0
 32 20  1  0
 17 12  1  0
 30 25  1  0
  3 33  1  0
  3 34  1  0
  6 35  1  0
  7 36  1  0
  8 37  1  0
 13 38  1  0
 13 39  1  0
 14 40  1  0
 14 41  1  0
 16 42  1  0
 16 43  1  0
 17 44  1  0
 17 45  1  0
 18 46  1  0
 21 47  1  0
 22 48  1  0
 26 49  1  0
 27 50  1  0
 28 51  1  0
 29 52  1  0
 30 53  1  0
 31 54  1  0
M  END
>  <smiles>  (41) 
O=C1CC(c2cccc(C(=O)N3CCOCC3)c2)=Nc2ccc(Oc3ccccc3)cc21

>  <score_type>  (41) 
oracle

>  <origin>  (41) 
autodockgpu

>  <m_score__min__energy>  (41) 
-8.6400000000000006

>  <m_primary>  (41) 
energy

>  <rmsd>  (41) 
8.392570954822746

>  <m_score__min__rmsd>  (41) 
8.392570954822746

>  <meeko>  (41) 
{"free_energy": -8.48, "intermolecular_energy": -9.67, "internal_energy": -0.99, "cluster_size": 21, "cluster_id": 2, "rank_in_cluster": 1}

>  <energy>  (41) 
-8.44

>  <cluster_rmsd>  (41) 
0.08

>  <cluster>  (41) 
2

$$$$

     RDKit          3D

 54 58  0  0  0  0  0  0  0  0999 V2000
  141.5540   70.6670  220.6350 O   0  0  0  0  0  0  0  0  0  0  0  0
  141.8400   71.8870  220.7120 C   0  0  0  0  0  0  0  0  0  0  0  0
  140.7700   72.8220  221.1250 C   0  0  0  0  0  0  0  0  0  0  0  0
  141.3130   74.1990  221.1500 C   0  0  0  0  0  0  0  0  0  0  0  0
  140.4000   75.2880  221.5380 C   0  0  0  0  0  0  0  0  0  0  0  0
  139.2550   75.0040  222.2840 C   0  0  0  0  0  0  0  0  0  0  0  0
  138.3780   76.0060  222.6630 C   0  0  0  0  0  0  0  0  0  0  0  0
  138.6690   77.3050  222.2800 C   0  0  0  0  0  0  0  0  0  0  0  0
  139.7740   77.6330  221.5500 C   0  0  0  0  0  0  0  0  0  0  0  0
  140.1290   78.9690  221.1200 C   0  0  0  0  0  0  0  0  0  0  0  0
  139.3890   79.4800  220.2110 O   0  0  0  0  0  0  0  0  0  0  0  0
  141.2120   79.6930  221.6460 N   0  0  0  0  0  0  0  0  0  0  0  0
  142.1080   79.2050  222.6770 C   0  0  0  0  0  0  0  0  0  0  0  0
  142.1380   80.1870  223.8530 C   0  0  0  0  0  0  0  0  0  0  0  0
  141.3000   81.2840  223.5490 O   0  0  0  0  0  0  0  0  0  0  0  0
  141.7800   81.8920  222.3870 C   0  0  0  0  0  0  0  0  0  0  0  0
  141.4870   81.0400  221.1440 C   0  0  0  0  0  0  0  0  0  0  0  0
  140.6440   76.6010  221.1800 C   0  0  0  0  0  0  0  0  0  0  0  0
  142.5110   74.5260  220.8620 N   0  0  0  0  0  0  0  0  0  0  0  0
  143.5430   73.6260  220.4650 C   0  0  0  0  0  0  0  0  0  0  0  0
  144.8140   74.0900  220.1730 C   0  0  0  0  0  0  0  0  0  0  0  0
  145.7790   73.1710  219.7910 C   0  0  0  0  0  0  0  0  0  0  0  0
  145.4520   71.8170  219.7100 C   0  0  0  0  0  0  0  0  0  0  0  0
  146.3910   70.8730  219.3310 O   0  0  0  0  0  0  0  0  0  0  0  0
  145.9420   69.6290  218.9360 C   0  0  0  0  0  0  0  0  0  0  0  0
  146.2890   68.5420  219.6800 C   0  0  0  0  0  0  0  0  0  0  0  0
  145.8760   67.2540  219.3450 C   0  0  0  0  0  0  0  0  0  0  0  0
  145.0830   67.0480  218.2200 C   0  0  0  0  0  0  0  0  0  0  0  0
  144.7240   68.1590  217.4510 C   0  0  0  0  0  0  0  0  0  0  0  0
  145.1500   69.4350  217.8080 C   0  0  0  0  0  0  0  0  0  0  0  0
  144.1790   71.3710  220.0030 C   0  0  0  0  0  0  0  0  0  0  0  0
  143.1990   72.2940  220.3900 C   0  0  0  0  0  0  0  0  0  0  0  0
  139.9367   72.7676  220.4090 H   0  0  0  0  0  0  0  0  0  0  0  0
  140.4056   72.5491  222.1264 H   0  0  0  0  0  0  0  0  0  0  0  0
  139.0455   73.9645  222.5763 H   0  0  0  0  0  0  0  0  0  0  0  0
  137.4768   75.7773  223.2508 H   0  0  0  0  0  0  0  0  0  0  0  0
  137.9785   78.1078  222.5777 H   0  0  0  0  0  0  0  0  0  0  0  0
  141.7570   78.2242  223.0303 H   0  0  0  0  0  0  0  0  0  0  0  0
  143.1213   79.1104  222.2596 H   0  0  0  0  0  0  0  0  0  0  0  0
  141.7762   79.6859  224.7630 H   0  0  0  0  0  0  0  0  0  0  0  0
  143.1669   80.5371  224.0227 H   0  0  0  0  0  0  0  0  0  0  0  0
  141.2956   82.8727  222.2704 H   0  0  0  0  0  0  0  0  0  0  0  0
  142.8704   82.0025  222.4805 H   0  0  0  0  0  0  0  0  0  0  0  0
  140.6131   81.4348  220.6052 H   0  0  0  0  0  0  0  0  0  0  0  0
  142.3303   81.0469  220.4378 H   0  0  0  0  0  0  0  0  0  0  0  0
  141.5419   76.8398  220.5912 H   0  0  0  0  0  0  0  0  0  0  0  0
  145.0524   75.1616  220.2424 H   0  0  0  0  0  0  0  0  0  0  0  0
  146.7986   73.5079  219.5526 H   0  0  0  0  0  0  0  0  0  0  0  0
  146.9148   68.6854  220.5732 H   0  0  0  0  0  0  0  0  0  0  0  0
  146.1768   66.4000  219.9697 H   0  0  0  0  0  0  0  0  0  0  0  0
  144.7475   66.0376  217.9432 H   0  0  0  0  0  0  0  0  0  0  0  0
  144.0993   68.0234  216.5558 H   0  0  0  0  0  0  0  0  0  0  0  0
  144.8579   70.2987  217.1926 H   0  0  0  0  0  0  0  0  0  0  0  0
  143.9363   70.3004  219.9332 H   0  0  0  0  0  0  0  0  0  0  0  0
  1  2  2  0
  2  3  1  0
  3  4  1  0
  4  5  1  0
  5  6  2  0
  6  7  1  0
  7  8  2  0
  8  9  1  0
  9 10  1  0
 10 11  2  0
 10 12  1  0
 12 13  1  0
 13 14  1  0
 14 15  1  0
 15 16  1  0
 16 17  1  0
  9 18  2  0
  4 19  2  0
 19 20  1  0
 20 21  2  0
 21 22  1  0
 22 23  2  0
 23 24  1  0
 24 25  1  0
 25 26  2  0
 26 27  1  0
 27 28  2  0
 28 29  1  0
 29 30  2  0
 23 31  1  0
 31 32  2  0
 32  2  1  0
 18  5  1  0
 32 20  1  0
 17 12  1  0
 30 25  1  0
  3 33  1  0
  3 34  1  0
  6 35  1  0
  7 36  1  0
  8 37  1  0
 13 38  1  0
 13 39  1  0
 14 40  1  0
 14 41  1  0
 16 42  1  0
 16 43  1  0
 17 44  1  0
 17 45  1  0
 18 46  1  0
 21 47  1  0
 22 48  1  0
 26 49  1  0
 27 50  1  0
 28 51  1  0
 29 52  1  0
 30 53  1  0
 31 54  1  0
M  END
>  <smiles>  (42) 
O=C1CC(c2cccc(C(=O)N3CCOCC3)c2)=Nc2ccc(Oc3ccccc3)cc21

>  <score_type>  (42) 
oracle

>  <origin>  (42) 
autodockgpu

>  <m_score__min__energy>  (42) 
-8.6400000000000006

>  <m_primary>  (42) 
energy

>  <rmsd>  (42) 
7.580706543215331

>  <m_score__min__rmsd>  (42) 
7.580706543215331

>  <meeko>  (42) 
{"free_energy": -7.86, "intermolecular_energy": -9.05, "internal_energy": -1.11, "cluster_size": 2, "cluster_id": 3, "rank_in_cluster": 2}

>  <energy>  (42) 
-8.44

>  <cluster_rmsd>  (42) 
0.09

>  <cluster>  (42) 
2

$$$$

     RDKit          3D

 54 58  0  0  0  0  0  0  0  0999 V2000
  141.5040   70.6850  220.4540 O   0  0  0  0  0  0  0  0  0  0  0  0
  141.8430   71.8840  220.6130 C   0  0  0  0  0  0  0  0  0  0  0  0
  140.8180   72.8330  221.1000 C   0  0  0  0  0  0  0  0  0  0  0  0
  141.4200   74.1800  221.2140 C   0  0  0  0  0  0  0  0  0  0  0  0
  140.5570   75.2780  221.6850 C   0  0  0  0  0  0  0  0  0  0  0  0
  139.1690   75.1380  221.6430 C   0  0  0  0  0  0  0  0  0  0  0  0
  138.3320   76.1520  222.0780 C   0  0  0  0  0  0  0  0  0  0  0  0
  138.9140   77.3140  222.5580 C   0  0  0  0  0  0  0  0  0  0  0  0
  140.2650   77.4990  222.6180 C   0  0  0  0  0  0  0  0  0  0  0  0
  140.9270   78.6880  223.1070 C   0  0  0  0  0  0  0  0  0  0  0  0
  141.8060   78.5070  224.0190 O   0  0  0  0  0  0  0  0  0  0  0  0
  140.6510   79.9820  222.6340 N   0  0  0  0  0  0  0  0  0  0  0  0
  139.6790   80.2950  221.6050 C   0  0  0  0  0  0  0  0  0  0  0  0
  140.3480   81.0760  220.4690 C   0  0  0  0  0  0  0  0  0  0  0  0
  141.7090   81.2740  220.7970 O   0  0  0  0  0  0  0  0  0  0  0  0
  141.7700   81.9930  221.9920 C   0  0  0  0  0  0  0  0  0  0  0  0
  141.3790   81.1220  223.1950 C   0  0  0  0  0  0  0  0  0  0  0  0
  141.0870   76.4580  222.1720 C   0  0  0  0  0  0  0  0  0  0  0  0
  142.6280   74.4750  220.9360 N   0  0  0  0  0  0  0  0  0  0  0  0
  143.6180   73.5610  220.4680 C   0  0  0  0  0  0  0  0  0  0  0  0
  144.9050   73.9900  220.1960 C   0  0  0  0  0  0  0  0  0  0  0  0
  145.8270   73.0600  219.7420 C   0  0  0  0  0  0  0  0  0  0  0  0
  145.4410   71.7290  219.5710 C   0  0  0  0  0  0  0  0  0  0  0  0
  146.3360   70.7740  219.1190 O   0  0  0  0  0  0  0  0  0  0  0  0
  145.8590   69.5050  218.8590 C   0  0  0  0  0  0  0  0  0  0  0  0
  146.2140   68.4900  219.6940 C   0  0  0  0  0  0  0  0  0  0  0  0
  145.7740   67.1830  219.4970 C   0  0  0  0  0  0  0  0  0  0  0  0
  144.9450   66.8810  218.4200 C   0  0  0  0  0  0  0  0  0  0  0  0
  144.5780   67.9190  217.5570 C   0  0  0  0  0  0  0  0  0  0  0  0
  145.0310   69.2170  217.7770 C   0  0  0  0  0  0  0  0  0  0  0  0
  144.1520   71.3180  219.8460 C   0  0  0  0  0  0  0  0  0  0  0  0
  143.2160   72.2530  220.3050 C   0  0  0  0  0  0  0  0  0  0  0  0
  139.9780   72.8639  220.3905 H   0  0  0  0  0  0  0  0  0  0  0  0
  140.4494   72.5075  222.0840 H   0  0  0  0  0  0  0  0  0  0  0  0
  138.7319   74.2052  221.2573 H   0  0  0  0  0  0  0  0  0  0  0  0
  137.2384   76.0382  222.0435 H   0  0  0  0  0  0  0  0  0  0  0  0
  138.2573   78.1246  222.9067 H   0  0  0  0  0  0  0  0  0  0  0  0
  139.2583   79.3604  221.2055 H   0  0  0  0  0  0  0  0  0  0  0  0
  138.8778   80.9095  222.0414 H   0  0  0  0  0  0  0  0  0  0  0  0
  140.2721   80.5048  219.5320 H   0  0  0  0  0  0  0  0  0  0  0  0
  139.8487   82.0471  220.3362 H   0  0  0  0  0  0  0  0  0  0  0  0
  142.7968   82.3605  222.1358 H   0  0  0  0  0  0  0  0  0  0  0  0
  141.0593   82.8301  221.9272 H   0  0  0  0  0  0  0  0  0  0  0  0
  142.2773   80.7790  223.7292 H   0  0  0  0  0  0  0  0  0  0  0  0
  140.7676   81.6792  223.9201 H   0  0  0  0  0  0  0  0  0  0  0  0
  142.1794   76.5816  222.2098 H   0  0  0  0  0  0  0  0  0  0  0  0
  145.1895   75.0432  220.3366 H   0  0  0  0  0  0  0  0  0  0  0  0
  146.8585   73.3691  219.5174 H   0  0  0  0  0  0  0  0  0  0  0  0
  146.8685   68.7087  220.5507 H   0  0  0  0  0  0  0  0  0  0  0  0
  146.0818   66.3888  220.1930 H   0  0  0  0  0  0  0  0  0  0  0  0
  144.5883   65.8541  218.2522 H   0  0  0  0  0  0  0  0  0  0  0  0
  143.9256   67.7078  216.6969 H   0  0  0  0  0  0  0  0  0  0  0  0
  144.7322   70.0223  217.0899 H   0  0  0  0  0  0  0  0  0  0  0  0
  143.8629   70.2660  219.7059 H   0  0  0  0  0  0  0  0  0  0  0  0
  1  2  2  0
  2  3  1  0
  3  4  1  0
  4  5  1  0
  5  6  2  0
  6  7  1  0
  7  8  2  0
  8  9  1  0
  9 10  1  0
 10 11  2  0
 10 12  1  0
 12 13  1  0
 13 14  1  0
 14 15  1  0
 15 16  1  0
 16 17  1  0
  9 18  2  0
  4 19  2  0
 19 20  1  0
 20 21  2  0
 21 22  1  0
 22 23  2  0
 23 24  1  0
 24 25  1  0
 25 26  2  0
 26 27  1  0
 27 28  2  0
 28 29  1  0
 29 30  2  0
 23 31  1  0
 31 32  2  0
 32  2  1  0
 18  5  1  0
 32 20  1  0
 17 12  1  0
 30 25  1  0
  3 33  1  0
  3 34  1  0
  6 35  1  0
  7 36  1  0
  8 37  1  0
 13 38  1  0
 13 39  1  0
 14 40  1  0
 14 41  1  0
 16 42  1  0
 16 43  1  0
 17 44  1  0
 17 45  1  0
 18 46  1  0
 21 47  1  0
 22 48  1  0
 26 49  1  0
 27 50  1  0
 28 51  1  0
 29 52  1  0
 30 53  1  0
 31 54  1  0
M  END
>  <smiles>  (43) 
O=C1CC(c2cccc(C(=O)N3CCOCC3)c2)=Nc2ccc(Oc3ccccc3)cc21

>  <score_type>  (43) 
oracle

>  <origin>  (43) 
autodockgpu

>  <m_score__min__energy>  (43) 
-8.6400000000000006

>  <m_primary>  (43) 
energy

>  <rmsd>  (43) 
7.521469534159724

>  <m_score__min__rmsd>  (43) 
7.521469534159724

>  <meeko>  (43) 
{"free_energy": -8.03, "intermolecular_energy": -9.22, "internal_energy": -1.06, "cluster_size": 2, "cluster_id": 3, "rank_in_cluster": 1}

>  <energy>  (43) 
-8.44

>  <cluster_rmsd>  (43) 
0.1

>  <cluster>  (43) 
2

$$$$

     RDKit          3D

 54 58  0  0  0  0  0  0  0  0999 V2000
  143.1500   74.2900  219.8490 O   0  0  0  0  0  0  0  0  0  0  0  0
  142.1300   74.0940  220.5550 C   0  0  0  0  0  0  0  0  0  0  0  0
  141.7300   72.6940  220.8160 C   0  0  0  0  0  0  0  0  0  0  0  0
  140.5120   72.6860  221.6580 C   0  0  0  0  0  0  0  0  0  0  0  0
  139.9470   71.3790  222.0330 C   0  0  0  0  0  0  0  0  0  0  0  0
  139.7630   70.3960  221.0600 C   0  0  0  0  0  0  0  0  0  0  0  0
  139.2330   69.1570  221.3820 C   0  0  0  0  0  0  0  0  0  0  0  0
  138.8900   68.9200  222.7030 C   0  0  0  0  0  0  0  0  0  0  0  0
  139.0510   69.8490  223.6900 C   0  0  0  0  0  0  0  0  0  0  0  0
  138.7100   69.6590  225.0840 C   0  0  0  0  0  0  0  0  0  0  0  0
  137.4620   69.6590  225.3620 O   0  0  0  0  0  0  0  0  0  0  0  0
  139.6640   69.4790  226.1000 N   0  0  0  0  0  0  0  0  0  0  0  0
  141.0990   69.4610  225.8910 C   0  0  0  0  0  0  0  0  0  0  0  0
  141.6940   68.1620  226.4450 C   0  0  0  0  0  0  0  0  0  0  0  0
  140.6530   67.3960  227.0170 O   0  0  0  0  0  0  0  0  0  0  0  0
  140.0700   68.1470  228.0400 C   0  0  0  0  0  0  0  0  0  0  0  0
  139.2160   69.2940  227.4810 C   0  0  0  0  0  0  0  0  0  0  0  0
  139.5880   71.0920  223.3370 C   0  0  0  0  0  0  0  0  0  0  0  0
  139.9060   73.7220  222.0880 N   0  0  0  0  0  0  0  0  0  0  0  0
  140.2900   75.0720  221.8370 C   0  0  0  0  0  0  0  0  0  0  0  0
  139.5570   76.1250  222.3550 C   0  0  0  0  0  0  0  0  0  0  0  0
  139.9750   77.4170  222.0790 C   0  0  0  0  0  0  0  0  0  0  0  0
  141.1120   77.6250  221.2960 C   0  0  0  0  0  0  0  0  0  0  0  0
  141.5570   78.9030  221.0010 O   0  0  0  0  0  0  0  0  0  0  0  0
  141.8600   79.7460  222.0510 C   0  0  0  0  0  0  0  0  0  0  0  0
  140.9690   80.7220  222.3830 C   0  0  0  0  0  0  0  0  0  0  0  0
  141.2040   81.6120  223.4290 C   0  0  0  0  0  0  0  0  0  0  0  0
  142.3770   81.5190  224.1720 C   0  0  0  0  0  0  0  0  0  0  0  0
  143.2950   80.5200  223.8370 C   0  0  0  0  0  0  0  0  0  0  0  0
  143.0370   79.6430  222.7870 C   0  0  0  0  0  0  0  0  0  0  0  0
  141.8320   76.5630  220.7870 C   0  0  0  0  0  0  0  0  0  0  0  0
  141.4150   75.2550  221.0610 C   0  0  0  0  0  0  0  0  0  0  0  0
  141.5217   72.1867  219.8624 H   0  0  0  0  0  0  0  0  0  0  0  0
  142.5434   72.1676  221.3367 H   0  0  0  0  0  0  0  0  0  0  0  0
  140.0439   70.6087  220.0180 H   0  0  0  0  0  0  0  0  0  0  0  0
  139.0890   68.3849  220.6119 H   0  0  0  0  0  0  0  0  0  0  0  0
  138.4690   67.9391  222.9685 H   0  0  0  0  0  0  0  0  0  0  0  0
  141.3109   69.5282  224.8137 H   0  0  0  0  0  0  0  0  0  0  0  0
  141.5505   70.3166  226.4145 H   0  0  0  0  0  0  0  0  0  0  0  0
  142.1670   67.5942  225.6302 H   0  0  0  0  0  0  0  0  0  0  0  0
  142.4531   68.3920  227.2071 H   0  0  0  0  0  0  0  0  0  0  0  0
  139.4309   67.4887  228.6467 H   0  0  0  0  0  0  0  0  0  0  0  0
  140.8753   68.5825  228.6498 H   0  0  0  0  0  0  0  0  0  0  0  0
  138.1493   69.0266  227.5064 H   0  0  0  0  0  0  0  0  0  0  0  0
  139.3304   70.2137  228.0735 H   0  0  0  0  0  0  0  0  0  0  0  0
  139.7276   71.8578  224.1142 H   0  0  0  0  0  0  0  0  0  0  0  0
  138.6643   75.9410  222.9708 H   0  0  0  0  0  0  0  0  0  0  0  0
  139.4131   78.2756  222.4754 H   0  0  0  0  0  0  0  0  0  0  0  0
  140.0356   80.8100  221.8076 H   0  0  0  0  0  0  0  0  0  0  0  0
  140.4621   82.3883  223.6676 H   0  0  0  0  0  0  0  0  0  0  0  0
  142.5764   82.2137  225.0013 H   0  0  0  0  0  0  0  0  0  0  0  0
  144.2302   80.4257  224.4083 H   0  0  0  0  0  0  0  0  0  0  0  0
  143.7698   78.8617  222.5368 H   0  0  0  0  0  0  0  0  0  0  0  0
  142.7257   76.7429  220.1714 H   0  0  0  0  0  0  0  0  0  0  0  0
  1  2  2  0
  2  3  1  0
  3  4  1  0
  4  5  1  0
  5  6  2  0
  6  7  1  0
  7  8  2  0
  8  9  1  0
  9 10  1  0
 10 11  2  0
 10 12  1  0
 12 13  1  0
 13 14  1  0
 14 15  1  0
 15 16  1  0
 16 17  1  0
  9 18  2  0
  4 19  2  0
 19 20  1  0
 20 21  2  0
 21 22  1  0
 22 23  2  0
 23 24  1  0
 24 25  1  0
 25 26  2  0
 26 27  1  0
 27 28  2  0
 28 29  1  0
 29 30  2  0
 23 31  1  0
 31 32  2  0
 32  2  1  0
 18  5  1  0
 32 20  1  0
 17 12  1  0
 30 25  1  0
  3 33  1  0
  3 34  1  0
  6 35  1  0
  7 36  1  0
  8 37  1  0
 13 38  1  0
 13 39  1  0
 14 40  1  0
 14 41  1  0
 16 42  1  0
 16 43  1  0
 17 44  1  0
 17 45  1  0
 18 46  1  0
 21 47  1  0
 22 48  1  0
 26 49  1  0
 27 50  1  0
 28 51  1  0
 29 52  1  0
 30 53  1  0
 31 54  1  0
M  END
>  <smiles>  (44) 
O=C1CC(c2cccc(C(=O)N3CCOCC3)c2)=Nc2ccc(Oc3ccccc3)cc21

>  <score_type>  (44) 
oracle

>  <origin>  (44) 
autodockgpu

>  <m_score__min__energy>  (44) 
-8.6400000000000006

>  <m_primary>  (44) 
energy

>  <rmsd>  (44) 
6.575123368194745

>  <m_score__min__rmsd>  (44) 
6.575123368194745

>  <meeko>  (44) 
{"free_energy": -8.48, "intermolecular_energy": -9.67, "internal_energy": -1.08, "cluster_size": 27, "cluster_id": 1, "rank_in_cluster": 17}

>  <energy>  (44) 
-8.43

>  <cluster_rmsd>  (44) 
0.08

>  <cluster>  (44) 
2

$$$$

     RDKit          3D

 54 58  0  0  0  0  0  0  0  0999 V2000
  143.7980   72.3580  220.4580 O   0  0  0  0  0  0  0  0  0  0  0  0
  142.9430   73.2780  220.4980 C   0  0  0  0  0  0  0  0  0  0  0  0
  143.2590   74.5440  219.8000 C   0  0  0  0  0  0  0  0  0  0  0  0
  142.1300   75.4860  219.9710 C   0  0  0  0  0  0  0  0  0  0  0  0
  142.2470   76.8150  219.3490 C   0  0  0  0  0  0  0  0  0  0  0  0
  142.8110   76.9410  218.0780 C   0  0  0  0  0  0  0  0  0  0  0  0
  142.9360   78.1780  217.4670 C   0  0  0  0  0  0  0  0  0  0  0  0
  142.4820   79.2910  218.1550 C   0  0  0  0  0  0  0  0  0  0  0  0
  141.9240   79.2200  219.3980 C   0  0  0  0  0  0  0  0  0  0  0  0
  141.4350   80.3470  220.1630 C   0  0  0  0  0  0  0  0  0  0  0  0
  140.6820   81.1670  219.5350 O   0  0  0  0  0  0  0  0  0  0  0  0
  141.7460   80.5610  221.5170 N   0  0  0  0  0  0  0  0  0  0  0  0
  142.5870   79.6930  222.3180 C   0  0  0  0  0  0  0  0  0  0  0  0
  141.8290   79.2390  223.5700 C   0  0  0  0  0  0  0  0  0  0  0  0
  140.5490   79.8370  223.5670 O   0  0  0  0  0  0  0  0  0  0  0  0
  140.7150   81.2240  223.5670 C   0  0  0  0  0  0  0  0  0  0  0  0
  141.2000   81.7330  222.2020 C   0  0  0  0  0  0  0  0  0  0  0  0
  141.8110   77.9580  219.9920 C   0  0  0  0  0  0  0  0  0  0  0  0
  141.0580   75.2440  220.6170 N   0  0  0  0  0  0  0  0  0  0  0  0
  140.7520   74.0240  221.2890 C   0  0  0  0  0  0  0  0  0  0  0  0
  139.5530   73.8680  221.9640 C   0  0  0  0  0  0  0  0  0  0  0  0
  139.3090   72.6610  222.6000 C   0  0  0  0  0  0  0  0  0  0  0  0
  140.2640   71.6450  222.5490 C   0  0  0  0  0  0  0  0  0  0  0  0
  140.0510   70.4270  223.1740 O   0  0  0  0  0  0  0  0  0  0  0  0
  140.1840   70.3680  224.5470 C   0  0  0  0  0  0  0  0  0  0  0  0
  139.7360   69.2590  225.1990 C   0  0  0  0  0  0  0  0  0  0  0  0
  139.8340   69.1260  226.5820 C   0  0  0  0  0  0  0  0  0  0  0  0
  140.4040   70.1430  227.3420 C   0  0  0  0  0  0  0  0  0  0  0  0
  140.8650   71.2850  226.6780 C   0  0  0  0  0  0  0  0  0  0  0  0
  140.7560   71.3930  225.2950 C   0  0  0  0  0  0  0  0  0  0  0  0
  141.4540   71.8170  221.8730 C   0  0  0  0  0  0  0  0  0  0  0  0
  141.7080   73.0330  221.2270 C   0  0  0  0  0  0  0  0  0  0  0  0
  144.1726   74.9824  220.2279 H   0  0  0  0  0  0  0  0  0  0  0  0
  143.4187   74.3472  218.7296 H   0  0  0  0  0  0  0  0  0  0  0  0
  143.1627   76.0412  217.5520 H   0  0  0  0  0  0  0  0  0  0  0  0
  143.3822   78.2733  216.4661 H   0  0  0  0  0  0  0  0  0  0  0  0
  142.5756   80.2775  217.6774 H   0  0  0  0  0  0  0  0  0  0  0  0
  142.8708   78.8116  221.7243 H   0  0  0  0  0  0  0  0  0  0  0  0
  143.4891   80.2442  222.6219 H   0  0  0  0  0  0  0  0  0  0  0  0
  141.7258   78.1439  223.5633 H   0  0  0  0  0  0  0  0  0  0  0  0
  142.3813   79.5408  224.4722 H   0  0  0  0  0  0  0  0  0  0  0  0
  139.7517   81.6992  223.8039 H   0  0  0  0  0  0  0  0  0  0  0  0
  141.4742   81.4806  224.3205 H   0  0  0  0  0  0  0  0  0  0  0  0
  140.3613   82.1562  221.6298 H   0  0  0  0  0  0  0  0  0  0  0  0
  141.9512   82.5296  222.3078 H   0  0  0  0  0  0  0  0  0  0  0  0
  141.3648   77.8738  220.9939 H   0  0  0  0  0  0  0  0  0  0  0  0
  138.8130   74.6813  221.9946 H   0  0  0  0  0  0  0  0  0  0  0  0
  138.3654   72.5045  223.1433 H   0  0  0  0  0  0  0  0  0  0  0  0
  139.2831   68.4438  224.6156 H   0  0  0  0  0  0  0  0  0  0  0  0
  139.4604   68.2159  227.0742 H   0  0  0  0  0  0  0  0  0  0  0  0
  140.4898   70.0515  228.4348 H   0  0  0  0  0  0  0  0  0  0  0  0
  141.3178   72.1051  227.2546 H   0  0  0  0  0  0  0  0  0  0  0  0
  141.1253   72.2968  224.7882 H   0  0  0  0  0  0  0  0  0  0  0  0
  142.1967   71.0062  221.8417 H   0  0  0  0  0  0  0  0  0  0  0  0
  1  2  2  0
  2  3  1  0
  3  4  1  0
  4  5  1  0
  5  6  2  0
  6  7  1  0
  7  8  2  0
  8  9  1  0
  9 10  1  0
 10 11  2  0
 10 12  1  0
 12 13  1  0
 13 14  1  0
 14 15  1  0
 15 16  1  0
 16 17  1  0
  9 18  2  0
  4 19  2  0
 19 20  1  0
 20 21  2  0
 21 22  1  0
 22 23  2  0
 23 24  1  0
 24 25  1  0
 25 26  2  0
 26 27  1  0
 27 28  2  0
 28 29  1  0
 29 30  2  0
 23 31  1  0
 31 32  2  0
 32  2  1  0
 18  5  1  0
 32 20  1  0
 17 12  1  0
 30 25  1  0
  3 33  1  0
  3 34  1  0
  6 35  1  0
  7 36  1  0
  8 37  1  0
 13 38  1  0
 13 39  1  0
 14 40  1  0
 14 41  1  0
 16 42  1  0
 16 43  1  0
 17 44  1  0
 17 45  1  0
 18 46  1  0
 21 47  1  0
 22 48  1  0
 26 49  1  0
 27 50  1  0
 28 51  1  0
 29 52  1  0
 30 53  1  0
 31 54  1  0
M  END
>  <smiles>  (45) 
O=C1CC(c2cccc(C(=O)N3CCOCC3)c2)=Nc2ccc(Oc3ccccc3)cc21

>  <score_type>  (45) 
oracle

>  <origin>  (45) 
autodockgpu

>  <m_score__min__energy>  (45) 
-8.6400000000000006

>  <m_primary>  (45) 
energy

>  <rmsd>  (45) 
8.419413166669456

>  <m_score__min__rmsd>  (45) 
8.419413166669456

>  <meeko>  (45) 
{"free_energy": -8.38, "intermolecular_energy": -9.57, "internal_energy": -1.04, "cluster_size": 21, "cluster_id": 2, "rank_in_cluster": 20}

>  <energy>  (45) 
-8.43

>  <cluster_rmsd>  (45) 
0.11

>  <cluster>  (45) 
2

$$$$

     RDKit          3D

 54 58  0  0  0  0  0  0  0  0999 V2000
  143.8430   72.4150  220.7250 O   0  0  0  0  0  0  0  0  0  0  0  0
  142.9670   73.3140  220.6840 C   0  0  0  0  0  0  0  0  0  0  0  0
  143.3030   74.5730  219.9810 C   0  0  0  0  0  0  0  0  0  0  0  0
  142.1430   75.4900  220.0510 C   0  0  0  0  0  0  0  0  0  0  0  0
  142.2740   76.8090  219.4080 C   0  0  0  0  0  0  0  0  0  0  0  0
  142.8110   76.9070  218.1240 C   0  0  0  0  0  0  0  0  0  0  0  0
  142.9480   78.1320  217.4930 C   0  0  0  0  0  0  0  0  0  0  0  0
  142.5340   79.2640  218.1760 C   0  0  0  0  0  0  0  0  0  0  0  0
  142.0040   79.2210  219.4330 C   0  0  0  0  0  0  0  0  0  0  0  0
  141.5570   80.3670  220.1940 C   0  0  0  0  0  0  0  0  0  0  0  0
  140.8640   81.2310  219.5540 O   0  0  0  0  0  0  0  0  0  0  0  0
  141.8440   80.5560  221.5570 N   0  0  0  0  0  0  0  0  0  0  0  0
  142.6170   79.6390  222.3720 C   0  0  0  0  0  0  0  0  0  0  0  0
  141.8060   79.2190  223.6020 C   0  0  0  0  0  0  0  0  0  0  0  0
  140.5590   79.8850  223.5720 O   0  0  0  0  0  0  0  0  0  0  0  0
  140.7990   81.2610  223.5860 C   0  0  0  0  0  0  0  0  0  0  0  0
  141.3440   81.7520  222.2370 C   0  0  0  0  0  0  0  0  0  0  0  0
  141.8770   77.9690  220.0460 C   0  0  0  0  0  0  0  0  0  0  0  0
  141.0340   75.2360  220.6240 N   0  0  0  0  0  0  0  0  0  0  0  0
  140.7090   74.0230  221.3010 C   0  0  0  0  0  0  0  0  0  0  0  0
  139.4690   73.8520  221.8920 C   0  0  0  0  0  0  0  0  0  0  0  0
  139.2070   72.6530  222.5370 C   0  0  0  0  0  0  0  0  0  0  0  0
  140.1860   71.6590  222.5760 C   0  0  0  0  0  0  0  0  0  0  0  0
  139.9580   70.4510  223.2120 O   0  0  0  0  0  0  0  0  0  0  0  0
  140.1710   70.3800  224.5740 C   0  0  0  0  0  0  0  0  0  0  0  0
  140.6860   71.4690  225.2110 C   0  0  0  0  0  0  0  0  0  0  0  0
  140.9310   71.4740  226.5820 C   0  0  0  0  0  0  0  0  0  0  0  0
  140.6490   70.3450  227.3450 C   0  0  0  0  0  0  0  0  0  0  0  0
  140.1200   69.2240  226.6970 C   0  0  0  0  0  0  0  0  0  0  0  0
  139.8850   69.2450  225.3260 C   0  0  0  0  0  0  0  0  0  0  0  0
  141.4180   71.8470  221.9820 C   0  0  0  0  0  0  0  0  0  0  0  0
  141.6900   73.0550  221.3280 C   0  0  0  0  0  0  0  0  0  0  0  0
  144.1736   75.0427  220.4620 H   0  0  0  0  0  0  0  0  0  0  0  0
  143.5431   74.3580  218.9293 H   0  0  0  0  0  0  0  0  0  0  0  0
  143.1319   75.9931  217.6026 H   0  0  0  0  0  0  0  0  0  0  0  0
  143.3724   78.2041  216.4807 H   0  0  0  0  0  0  0  0  0  0  0  0
  142.6371   80.2418  217.6828 H   0  0  0  0  0  0  0  0  0  0  0  0
  142.8673   78.7470  221.7789 H   0  0  0  0  0  0  0  0  0  0  0  0
  143.5396   80.1392  222.7017 H   0  0  0  0  0  0  0  0  0  0  0  0
  141.6450   78.1310  223.5853 H   0  0  0  0  0  0  0  0  0  0  0  0
  142.3513   79.4857  224.5194 H   0  0  0  0  0  0  0  0  0  0  0  0
  139.8569   81.7858  223.8030 H   0  0  0  0  0  0  0  0  0  0  0  0
  141.5523   81.4716  224.3594 H   0  0  0  0  0  0  0  0  0  0  0  0
  140.5434   82.2227  221.6475 H   0  0  0  0  0  0  0  0  0  0  0  0
  142.1334   82.5070  222.3668 H   0  0  0  0  0  0  0  0  0  0  0  0
  141.4516   77.9069  221.0585 H   0  0  0  0  0  0  0  0  0  0  0  0
  138.7104   74.6475  221.8509 H   0  0  0  0  0  0  0  0  0  0  0  0
  138.2311   72.4857  223.0163 H   0  0  0  0  0  0  0  0  0  0  0  0
  140.9151   72.3712  224.6248 H   0  0  0  0  0  0  0  0  0  0  0  0
  141.3479   72.3715  227.0623 H   0  0  0  0  0  0  0  0  0  0  0  0
  140.8371   70.3344  228.4288 H   0  0  0  0  0  0  0  0  0  0  0  0
  139.8878   68.3182  227.2763 H   0  0  0  0  0  0  0  0  0  0  0  0
  139.4687   68.3550  224.8314 H   0  0  0  0  0  0  0  0  0  0  0  0
  142.1797   71.0544  222.0221 H   0  0  0  0  0  0  0  0  0  0  0  0
  1  2  2  0
  2  3  1  0
  3  4  1  0
  4  5  1  0
  5  6  2  0
  6  7  1  0
  7  8  2  0
  8  9  1  0
  9 10  1  0
 10 11  2  0
 10 12  1  0
 12 13  1  0
 13 14  1  0
 14 15  1  0
 15 16  1  0
 16 17  1  0
  9 18  2  0
  4 19  2  0
 19 20  1  0
 20 21  2  0
 21 22  1  0
 22 23  2  0
 23 24  1  0
 24 25  1  0
 25 26  2  0
 26 27  1  0
 27 28  2  0
 28 29  1  0
 29 30  2  0
 23 31  1  0
 31 32  2  0
 32  2  1  0
 18  5  1  0
 32 20  1  0
 17 12  1  0
 30 25  1  0
  3 33  1  0
  3 34  1  0
  6 35  1  0
  7 36  1  0
  8 37  1  0
 13 38  1  0
 13 39  1  0
 14 40  1  0
 14 41  1  0
 16 42  1  0
 16 43  1  0
 17 44  1  0
 17 45  1  0
 18 46  1  0
 21 47  1  0
 22 48  1  0
 26 49  1  0
 27 50  1  0
 28 51  1  0
 29 52  1  0
 30 53  1  0
 31 54  1  0
M  END
>  <smiles>  (46) 
O=C1CC(c2cccc(C(=O)N3CCOCC3)c2)=Nc2ccc(Oc3ccccc3)cc21

>  <score_type>  (46) 
oracle

>  <origin>  (46) 
autodockgpu

>  <m_score__min__energy>  (46) 
-8.6400000000000006

>  <m_primary>  (46) 
energy

>  <rmsd>  (46) 
8.393135623622655

>  <m_score__min__rmsd>  (46) 
8.393135623622655

>  <meeko>  (46) 
{"free_energy": -8.47, "intermolecular_energy": -9.66, "internal_energy": -1.01, "cluster_size": 21, "cluster_id": 2, "rank_in_cluster": 6}

>  <energy>  (46) 
-8.43

>  <cluster_rmsd>  (46) 
0.08

>  <cluster>  (46) 
2

$$$$

     RDKit          3D

 54 58  0  0  0  0  0  0  0  0999 V2000
  143.8480   72.4030  220.6760 O   0  0  0  0  0  0  0  0  0  0  0  0
  142.9750   73.3070  220.6530 C   0  0  0  0  0  0  0  0  0  0  0  0
  143.3080   74.5670  219.9530 C   0  0  0  0  0  0  0  0  0  0  0  0
  142.1540   75.4910  220.0450 C   0  0  0  0  0  0  0  0  0  0  0  0
  142.2830   76.8120  219.4070 C   0  0  0  0  0  0  0  0  0  0  0  0
  142.8140   76.9160  218.1210 C   0  0  0  0  0  0  0  0  0  0  0  0
  142.9480   78.1450  217.4960 C   0  0  0  0  0  0  0  0  0  0  0  0
  142.5380   79.2730  218.1870 C   0  0  0  0  0  0  0  0  0  0  0  0
  142.0130   79.2240  219.4460 C   0  0  0  0  0  0  0  0  0  0  0  0
  141.5700   80.3670  220.2140 C   0  0  0  0  0  0  0  0  0  0  0  0
  140.8930   81.2440  219.5760 O   0  0  0  0  0  0  0  0  0  0  0  0
  141.8470   80.5390  221.5810 N   0  0  0  0  0  0  0  0  0  0  0  0
  142.6030   79.6070  222.3940 C   0  0  0  0  0  0  0  0  0  0  0  0
  141.7760   79.1810  223.6120 C   0  0  0  0  0  0  0  0  0  0  0  0
  140.5360   79.8600  223.5770 O   0  0  0  0  0  0  0  0  0  0  0  0
  140.7900   81.2330  223.6080 C   0  0  0  0  0  0  0  0  0  0  0  0
  141.3520   81.7330  222.2690 C   0  0  0  0  0  0  0  0  0  0  0  0
  141.8890   77.9700  220.0530 C   0  0  0  0  0  0  0  0  0  0  0  0
  141.0520   75.2390  220.6320 N   0  0  0  0  0  0  0  0  0  0  0  0
  140.7300   74.0240  221.3070 C   0  0  0  0  0  0  0  0  0  0  0  0
  139.4980   73.8550  221.9150 C   0  0  0  0  0  0  0  0  0  0  0  0
  139.2390   72.6550  222.5560 C   0  0  0  0  0  0  0  0  0  0  0  0
  140.2140   71.6550  222.5750 C   0  0  0  0  0  0  0  0  0  0  0  0
  139.9880   70.4440  223.2080 O   0  0  0  0  0  0  0  0  0  0  0  0
  140.1520   70.3830  224.5770 C   0  0  0  0  0  0  0  0  0  0  0  0
  139.7610   69.2550  225.2320 C   0  0  0  0  0  0  0  0  0  0  0  0
  139.8930   69.1190  226.6120 C   0  0  0  0  0  0  0  0  0  0  0  0
  140.4390   70.1540  227.3650 C   0  0  0  0  0  0  0  0  0  0  0  0
  140.8420   71.3150  226.6990 C   0  0  0  0  0  0  0  0  0  0  0  0
  140.6990   71.4260  225.3190 C   0  0  0  0  0  0  0  0  0  0  0  0
  141.4380   71.8400  221.9650 C   0  0  0  0  0  0  0  0  0  0  0  0
  141.7060   73.0500  221.3140 C   0  0  0  0  0  0  0  0  0  0  0  0
  144.1883   75.0287  220.4241 H   0  0  0  0  0  0  0  0  0  0  0  0
  143.5316   74.3567  218.8967 H   0  0  0  0  0  0  0  0  0  0  0  0
  143.1323   76.0048  217.5934 H   0  0  0  0  0  0  0  0  0  0  0  0
  143.3672   78.2226  216.4820 H   0  0  0  0  0  0  0  0  0  0  0  0
  142.6401   80.2534  217.6988 H   0  0  0  0  0  0  0  0  0  0  0  0
  142.8514   78.7191  221.7941 H   0  0  0  0  0  0  0  0  0  0  0  0
  143.5263   80.0958  222.7383 H   0  0  0  0  0  0  0  0  0  0  0  0
  141.6045   78.0949  223.5816 H   0  0  0  0  0  0  0  0  0  0  0  0
  142.3149   79.4315  224.5376 H   0  0  0  0  0  0  0  0  0  0  0  0
  139.8515   81.7651  223.8225 H   0  0  0  0  0  0  0  0  0  0  0  0
  141.5387   81.4274  224.3901 H   0  0  0  0  0  0  0  0  0  0  0  0
  140.5613   82.2174  221.6773 H   0  0  0  0  0  0  0  0  0  0  0  0
  142.1472   82.4791  222.4138 H   0  0  0  0  0  0  0  0  0  0  0  0
  141.4686   77.9031  221.0673 H   0  0  0  0  0  0  0  0  0  0  0  0
  138.7429   74.6545  221.8896 H   0  0  0  0  0  0  0  0  0  0  0  0
  138.2692   72.4900  223.0483 H   0  0  0  0  0  0  0  0  0  0  0  0
  139.3276   68.4258  224.6536 H   0  0  0  0  0  0  0  0  0  0  0  0
  139.5654   68.1928  227.1069 H   0  0  0  0  0  0  0  0  0  0  0  0
  140.5505   70.0610  228.4554 H   0  0  0  0  0  0  0  0  0  0  0  0
  141.2761   72.1485  227.2707 H   0  0  0  0  0  0  0  0  0  0  0  0
  141.0212   72.3464  224.8100 H   0  0  0  0  0  0  0  0  0  0  0  0
  142.1964   71.0436  221.9901 H   0  0  0  0  0  0  0  0  0  0  0  0
  1  2  2  0
  2  3  1  0
  3  4  1  0
  4  5  1  0
  5  6  2  0
  6  7  1  0
  7  8  2  0
  8  9  1  0
  9 10  1  0
 10 11  2  0
 10 12  1  0
 12 13  1  0
 13 14  1  0
 14 15  1  0
 15 16  1  0
 16 17  1  0
  9 18  2  0
  4 19  2  0
 19 20  1  0
 20 21  2  0
 21 22  1  0
 22 23  2  0
 23 24  1  0
 24 25  1  0
 25 26  2  0
 26 27  1  0
 27 28  2  0
 28 29  1  0
 29 30  2  0
 23 31  1  0
 31 32  2  0
 32  2  1  0
 18  5  1  0
 32 20  1  0
 17 12  1  0
 30 25  1  0
  3 33  1  0
  3 34  1  0
  6 35  1  0
  7 36  1  0
  8 37  1  0
 13 38  1  0
 13 39  1  0
 14 40  1  0
 14 41  1  0
 16 42  1  0
 16 43  1  0
 17 44  1  0
 17 45  1  0
 18 46  1  0
 21 47  1  0
 22 48  1  0
 26 49  1  0
 27 50  1  0
 28 51  1  0
 29 52  1  0
 30 53  1  0
 31 54  1  0
M  END
>  <smiles>  (47) 
O=C1CC(c2cccc(C(=O)N3CCOCC3)c2)=Nc2ccc(Oc3ccccc3)cc21

>  <score_type>  (47) 
oracle

>  <origin>  (47) 
autodockgpu

>  <m_score__min__energy>  (47) 
-8.6400000000000006

>  <m_primary>  (47) 
energy

>  <rmsd>  (47) 
8.394350105314754

>  <m_score__min__rmsd>  (47) 
8.394350105314754

>  <meeko>  (47) 
{"free_energy": -8.46, "intermolecular_energy": -9.65, "internal_energy": -1.0, "cluster_size": 21, "cluster_id": 2, "rank_in_cluster": 12}

>  <energy>  (47) 
-8.38

>  <cluster_rmsd>  (47) 
0.13

>  <cluster>  (47) 
2

$$$$

     RDKit          3D

 54 58  0  0  0  0  0  0  0  0999 V2000
  143.8090   72.3790  220.6220 O   0  0  0  0  0  0  0  0  0  0  0  0
  142.9440   73.2900  220.6250 C   0  0  0  0  0  0  0  0  0  0  0  0
  143.2720   74.5540  219.9290 C   0  0  0  0  0  0  0  0  0  0  0  0
  142.1280   75.4860  220.0530 C   0  0  0  0  0  0  0  0  0  0  0  0
  142.2540   76.8120  219.4240 C   0  0  0  0  0  0  0  0  0  0  0  0
  142.8000   76.9260  218.1450 C   0  0  0  0  0  0  0  0  0  0  0  0
  142.9320   78.1590  217.5280 C   0  0  0  0  0  0  0  0  0  0  0  0
  142.5050   79.2810  218.2200 C   0  0  0  0  0  0  0  0  0  0  0  0
  141.9660   79.2210  219.4720 C   0  0  0  0  0  0  0  0  0  0  0  0
  141.5050   80.3570  220.2410 C   0  0  0  0  0  0  0  0  0  0  0  0
  140.8000   81.2150  219.6070 O   0  0  0  0  0  0  0  0  0  0  0  0
  141.7920   80.5400  221.6040 N   0  0  0  0  0  0  0  0  0  0  0  0
  142.5780   79.6280  222.4120 C   0  0  0  0  0  0  0  0  0  0  0  0
  141.7740   79.1890  223.6410 C   0  0  0  0  0  0  0  0  0  0  0  0
  140.5190   79.8390  223.6170 O   0  0  0  0  0  0  0  0  0  0  0  0
  140.7410   81.2180  223.6400 C   0  0  0  0  0  0  0  0  0  0  0  0
  141.2770   81.7250  222.2940 C   0  0  0  0  0  0  0  0  0  0  0  0
  141.8440   77.9630  220.0710 C   0  0  0  0  0  0  0  0  0  0  0  0
  141.0360   75.2380  220.6620 N   0  0  0  0  0  0  0  0  0  0  0  0
  140.7190   74.0200  221.3330 C   0  0  0  0  0  0  0  0  0  0  0  0
  139.4990   73.8560  221.9660 C   0  0  0  0  0  0  0  0  0  0  0  0
  139.2440   72.6520  222.6020 C   0  0  0  0  0  0  0  0  0  0  0  0
  140.2100   71.6450  222.5920 C   0  0  0  0  0  0  0  0  0  0  0  0
  139.9880   70.4300  223.2190 O   0  0  0  0  0  0  0  0  0  0  0  0
  140.1270   70.3700  224.5910 C   0  0  0  0  0  0  0  0  0  0  0  0
  139.6880   69.2580  225.2440 C   0  0  0  0  0  0  0  0  0  0  0  0
  139.7920   69.1230  226.6260 C   0  0  0  0  0  0  0  0  0  0  0  0
  140.3590   70.1430  227.3850 C   0  0  0  0  0  0  0  0  0  0  0  0
  140.8110   71.2880  226.7210 C   0  0  0  0  0  0  0  0  0  0  0  0
  140.6950   71.3970  225.3390 C   0  0  0  0  0  0  0  0  0  0  0  0
  141.4220   71.8240  221.9570 C   0  0  0  0  0  0  0  0  0  0  0  0
  141.6870   73.0380  221.3110 C   0  0  0  0  0  0  0  0  0  0  0  0
  144.1656   75.0048  220.3855 H   0  0  0  0  0  0  0  0  0  0  0  0
  143.4714   74.3512  218.8664 H   0  0  0  0  0  0  0  0  0  0  0  0
  143.1318   76.0199  217.6170 H   0  0  0  0  0  0  0  0  0  0  0  0
  143.3627   78.2449  216.5195 H   0  0  0  0  0  0  0  0  0  0  0  0
  142.6051   80.2647  217.7381 H   0  0  0  0  0  0  0  0  0  0  0  0
  142.8392   78.7433  221.8127 H   0  0  0  0  0  0  0  0  0  0  0  0
  143.4943   80.1382  222.7438 H   0  0  0  0  0  0  0  0  0  0  0  0
  141.6270   78.0991  223.6173 H   0  0  0  0  0  0  0  0  0  0  0  0
  142.3172   79.4563  224.5594 H   0  0  0  0  0  0  0  0  0  0  0  0
  139.7925   81.7289  223.8621 H   0  0  0  0  0  0  0  0  0  0  0  0
  141.4928   81.4333  224.4136 H   0  0  0  0  0  0  0  0  0  0  0  0
  140.4692   82.1892  221.7092 H   0  0  0  0  0  0  0  0  0  0  0  0
  142.0568   82.4892  222.4280 H   0  0  0  0  0  0  0  0  0  0  0  0
  141.4120   77.8877  221.0798 H   0  0  0  0  0  0  0  0  0  0  0  0
  138.7503   74.6619  221.9641 H   0  0  0  0  0  0  0  0  0  0  0  0
  138.2835   72.4903  223.1131 H   0  0  0  0  0  0  0  0  0  0  0  0
  139.2372   68.4411  224.6613 H   0  0  0  0  0  0  0  0  0  0  0  0
  139.4260   68.2099  227.1182 H   0  0  0  0  0  0  0  0  0  0  0  0
  140.4491   70.0510  228.4774 H   0  0  0  0  0  0  0  0  0  0  0  0
  141.2622   72.1096  227.2967 H   0  0  0  0  0  0  0  0  0  0  0  0
  141.0559   72.3042  224.8323 H   0  0  0  0  0  0  0  0  0  0  0  0
  142.1732   71.0204  221.9582 H   0  0  0  0  0  0  0  0  0  0  0  0
  1  2  2  0
  2  3  1  0
  3  4  1  0
  4  5  1  0
  5  6  2  0
  6  7  1  0
  7  8  2  0
  8  9  1  0
  9 10  1  0
 10 11  2  0
 10 12  1  0
 12 13  1  0
 13 14  1  0
 14 15  1  0
 15 16  1  0
 16 17  1  0
  9 18  2  0
  4 19  2  0
 19 20  1  0
 20 21  2  0
 21 22  1  0
 22 23  2  0
 23 24  1  0
 24 25  1  0
 25 26  2  0
 26 27  1  0
 27 28  2  0
 28 29  1  0
 29 30  2  0
 23 31  1  0
 31 32  2  0
 32  2  1  0
 18  5  1  0
 32 20  1  0
 17 12  1  0
 30 25  1  0
  3 33  1  0
  3 34  1  0
  6 35  1  0
  7 36  1  0
  8 37  1  0
 13 38  1  0
 13 39  1  0
 14 40  1  0
 14 41  1  0
 16 42  1  0
 16 43  1  0
 17 44  1  0
 17 45  1  0
 18 46  1  0
 21 47  1  0
 22 48  1  0
 26 49  1  0
 27 50  1  0
 28 51  1  0
 29 52  1  0
 30 53  1  0
 31 54  1  0
M  END
>  <smiles>  (48) 
O=C1CC(c2cccc(C(=O)N3CCOCC3)c2)=Nc2ccc(Oc3ccccc3)cc21

>  <score_type>  (48) 
oracle

>  <origin>  (48) 
autodockgpu

>  <m_score__min__energy>  (48) 
-8.6400000000000006

>  <m_primary>  (48) 
energy

>  <rmsd>  (48) 
8.383390533491747

>  <m_score__min__rmsd>  (48) 
8.383390533491747

>  <meeko>  (48) 
{"free_energy": -8.44, "intermolecular_energy": -9.63, "internal_energy": -1.02, "cluster_size": 21, "cluster_id": 2, "rank_in_cluster": 16}

>  <energy>  (48) 
-7.94

>  <cluster_rmsd>  (48) 
1.78

>  <cluster>  (48) 
2

$$$$

     RDKit          3D

 54 58  0  0  0  0  0  0  0  0999 V2000
  143.8420   72.4010  220.6950 O   0  0  0  0  0  0  0  0  0  0  0  0
  142.9700   73.3040  220.6640 C   0  0  0  0  0  0  0  0  0  0  0  0
  143.3030   74.5610  219.9570 C   0  0  0  0  0  0  0  0  0  0  0  0
  142.1490   75.4840  220.0410 C   0  0  0  0  0  0  0  0  0  0  0  0
  142.2780   76.8020  219.3960 C   0  0  0  0  0  0  0  0  0  0  0  0
  142.8140   76.8980  218.1110 C   0  0  0  0  0  0  0  0  0  0  0  0
  142.9490   78.1230  217.4790 C   0  0  0  0  0  0  0  0  0  0  0  0
  142.5360   79.2560  218.1610 C   0  0  0  0  0  0  0  0  0  0  0  0
  142.0060   79.2140  219.4180 C   0  0  0  0  0  0  0  0  0  0  0  0
  141.5590   80.3610  220.1780 C   0  0  0  0  0  0  0  0  0  0  0  0
  140.8760   81.2290  219.5340 O   0  0  0  0  0  0  0  0  0  0  0  0
  141.8380   80.5460  221.5430 N   0  0  0  0  0  0  0  0  0  0  0  0
  142.6000   79.6240  222.3620 C   0  0  0  0  0  0  0  0  0  0  0  0
  141.7770   79.2050  223.5860 C   0  0  0  0  0  0  0  0  0  0  0  0
  140.5340   79.8770  223.5470 O   0  0  0  0  0  0  0  0  0  0  0  0
  140.7810   81.2520  223.5660 C   0  0  0  0  0  0  0  0  0  0  0  0
  141.3390   81.7430  222.2220 C   0  0  0  0  0  0  0  0  0  0  0  0
  141.8820   77.9630  220.0330 C   0  0  0  0  0  0  0  0  0  0  0  0
  141.0460   75.2350  220.6280 N   0  0  0  0  0  0  0  0  0  0  0  0
  140.7230   74.0250  221.3090 C   0  0  0  0  0  0  0  0  0  0  0  0
  139.4900   73.8590  221.9150 C   0  0  0  0  0  0  0  0  0  0  0  0
  139.2300   72.6620  222.5640 C   0  0  0  0  0  0  0  0  0  0  0  0
  140.2050   71.6640  222.5910 C   0  0  0  0  0  0  0  0  0  0  0  0
  139.9780   70.4560  223.2300 O   0  0  0  0  0  0  0  0  0  0  0  0
  140.1720   70.3950  224.5960 C   0  0  0  0  0  0  0  0  0  0  0  0
  139.8370   69.2500  225.2520 C   0  0  0  0  0  0  0  0  0  0  0  0
  140.0020   69.1120  226.6290 C   0  0  0  0  0  0  0  0  0  0  0  0
  140.5230   70.1640  227.3770 C   0  0  0  0  0  0  0  0  0  0  0  0
  140.8680   71.3430  226.7080 C   0  0  0  0  0  0  0  0  0  0  0  0
  140.6940   71.4550  225.3320 C   0  0  0  0  0  0  0  0  0  0  0  0
  141.4300   71.8450  221.9820 C   0  0  0  0  0  0  0  0  0  0  0  0
  141.6990   73.0520  221.3250 C   0  0  0  0  0  0  0  0  0  0  0  0
  144.1819   75.0263  220.4271 H   0  0  0  0  0  0  0  0  0  0  0  0
  143.5285   74.3445  218.9023 H   0  0  0  0  0  0  0  0  0  0  0  0
  143.1352   75.9838  217.5904 H   0  0  0  0  0  0  0  0  0  0  0  0
  143.3715   78.1942  216.4659 H   0  0  0  0  0  0  0  0  0  0  0  0
  142.6399   80.2334  217.6672 H   0  0  0  0  0  0  0  0  0  0  0  0
  142.8507   78.7320  221.7691 H   0  0  0  0  0  0  0  0  0  0  0  0
  143.5223   80.1193  222.6998 H   0  0  0  0  0  0  0  0  0  0  0  0
  141.6110   78.1178  223.5661 H   0  0  0  0  0  0  0  0  0  0  0  0
  142.3163   79.4670  224.5082 H   0  0  0  0  0  0  0  0  0  0  0  0
  139.8400   81.7812  223.7769 H   0  0  0  0  0  0  0  0  0  0  0  0
  141.5294   81.4572  224.3457 H   0  0  0  0  0  0  0  0  0  0  0  0
  140.5454   82.2191  221.6275 H   0  0  0  0  0  0  0  0  0  0  0  0
  142.1314   82.4934  222.3596 H   0  0  0  0  0  0  0  0  0  0  0  0
  141.4596   77.9023  221.0469 H   0  0  0  0  0  0  0  0  0  0  0  0
  138.7344   74.6577  221.8825 H   0  0  0  0  0  0  0  0  0  0  0  0
  138.2594   72.4996  223.0555 H   0  0  0  0  0  0  0  0  0  0  0  0
  139.4234   68.4080  224.6776 H   0  0  0  0  0  0  0  0  0  0  0  0
  139.7204   68.1714  227.1249 H   0  0  0  0  0  0  0  0  0  0  0  0
  140.6597   70.0707  228.4645 H   0  0  0  0  0  0  0  0  0  0  0  0
  141.2810   72.1901  227.2753 H   0  0  0  0  0  0  0  0  0  0  0  0
  140.9713   72.3891  224.8215 H   0  0  0  0  0  0  0  0  0  0  0  0
  142.1881   71.0485  222.0124 H   0  0  0  0  0  0  0  0  0  0  0  0
  1  2  2  0
  2  3  1  0
  3  4  1  0
  4  5  1  0
  5  6  2  0
  6  7  1  0
  7  8  2  0
  8  9  1  0
  9 10  1  0
 10 11  2  0
 10 12  1  0
 12 13  1  0
 13 14  1  0
 14 15  1  0
 15 16  1  0
 16 17  1  0
  9 18  2  0
  4 19  2  0
 19 20  1  0
 20 21  2  0
 21 22  1  0
 22 23  2  0
 23 24  1  0
 24 25  1  0
 25 26  2  0
 26 27  1  0
 27 28  2  0
 28 29  1  0
 29 30  2  0
 23 31  1  0
 31 32  2  0
 32  2  1  0
 18  5  1  0
 32 20  1  0
 17 12  1  0
 30 25  1  0
  3 33  1  0
  3 34  1  0
  6 35  1  0
  7 36  1  0
  8 37  1  0
 13 38  1  0
 13 39  1  0
 14 40  1  0
 14 41  1  0
 16 42  1  0
 16 43  1  0
 17 44  1  0
 17 45  1  0
 18 46  1  0
 21 47  1  0
 22 48  1  0
 26 49  1  0
 27 50  1  0
 28 51  1  0
 29 52  1  0
 30 53  1  0
 31 54  1  0
M  END
>  <smiles>  (49) 
O=C1CC(c2cccc(C(=O)N3CCOCC3)c2)=Nc2ccc(Oc3ccccc3)cc21

>  <score_type>  (49) 
oracle

>  <origin>  (49) 
autodockgpu

>  <m_score__min__energy>  (49) 
-8.6400000000000006

>  <m_primary>  (49) 
energy

>  <rmsd>  (49) 
8.390677739050151

>  <m_score__min__rmsd>  (49) 
8.390677739050151

>  <meeko>  (49) 
{"free_energy": -8.46, "intermolecular_energy": -9.65, "internal_energy": -1.01, "cluster_size": 21, "cluster_id": 2, "rank_in_cluster": 10}

>  <energy>  (49) 
-8.03

>  <cluster_rmsd>  (49) 
0.0

>  <cluster>  (49) 
3

$$$$

     RDKit          3D

 54 58  0  0  0  0  0  0  0  0999 V2000
  142.6480   73.4850  220.6680 O   0  0  0  0  0  0  0  0  0  0  0  0
  141.5100   73.5790  221.1920 C   0  0  0  0  0  0  0  0  0  0  0  0
  140.8160   72.3260  221.5630 C   0  0  0  0  0  0  0  0  0  0  0  0
  139.5010   72.6590  222.1570 C   0  0  0  0  0  0  0  0  0  0  0  0
  138.6460   71.5430  222.5950 C   0  0  0  0  0  0  0  0  0  0  0  0
  137.2890   71.5360  222.2680 C   0  0  0  0  0  0  0  0  0  0  0  0
  136.4590   70.5010  222.6660 C   0  0  0  0  0  0  0  0  0  0  0  0
  137.0160   69.4680  223.4020 C   0  0  0  0  0  0  0  0  0  0  0  0
  138.3360   69.4300  223.7470 C   0  0  0  0  0  0  0  0  0  0  0  0
  138.9710   68.3790  224.5140 C   0  0  0  0  0  0  0  0  0  0  0  0
  139.1760   67.2790  223.8960 O   0  0  0  0  0  0  0  0  0  0  0  0
  139.3570   68.5220  225.8570 N   0  0  0  0  0  0  0  0  0  0  0  0
  139.1720   69.7250  226.6460 C   0  0  0  0  0  0  0  0  0  0  0  0
  140.5130   70.1830  227.2270 C   0  0  0  0  0  0  0  0  0  0  0  0
  141.5140   69.2660  226.8340 O   0  0  0  0  0  0  0  0  0  0  0  0
  141.1680   68.0050  227.3260 C   0  0  0  0  0  0  0  0  0  0  0  0
  139.9940   67.3980  226.5450 C   0  0  0  0  0  0  0  0  0  0  0  0
  139.1510   70.4880  223.3320 C   0  0  0  0  0  0  0  0  0  0  0  0
  139.0430   73.8370  222.3220 N   0  0  0  0  0  0  0  0  0  0  0  0
  139.7110   75.0450  221.9660 C   0  0  0  0  0  0  0  0  0  0  0  0
  139.1190   76.2750  222.1890 C   0  0  0  0  0  0  0  0  0  0  0  0
  139.8140   77.4170  221.8230 C   0  0  0  0  0  0  0  0  0  0  0  0
  141.0780   77.3020  221.2430 C   0  0  0  0  0  0  0  0  0  0  0  0
  141.7990   78.4220  220.8650 O   0  0  0  0  0  0  0  0  0  0  0  0
  141.9080   79.4620  221.7670 C   0  0  0  0  0  0  0  0  0  0  0  0
  141.3560   80.6650  221.4460 C   0  0  0  0  0  0  0  0  0  0  0  0
  141.4260   81.7620  222.3020 C   0  0  0  0  0  0  0  0  0  0  0  0
  142.0740   81.6480  223.5290 C   0  0  0  0  0  0  0  0  0  0  0  0
  142.6430   80.4150  223.8640 C   0  0  0  0  0  0  0  0  0  0  0  0
  142.5600   79.3350  222.9900 C   0  0  0  0  0  0  0  0  0  0  0  0
  141.6550   76.0670  221.0260 C   0  0  0  0  0  0  0  0  0  0  0  0
  140.9580   74.9090  221.3940 C   0  0  0  0  0  0  0  0  0  0  0  0
  140.6689   71.7067  220.6659 H   0  0  0  0  0  0  0  0  0  0  0  0
  141.4219   71.7683  222.2923 H   0  0  0  0  0  0  0  0  0  0  0  0
  136.8708   72.3684  221.6830 H   0  0  0  0  0  0  0  0  0  0  0  0
  135.3903   70.4994  222.4056 H   0  0  0  0  0  0  0  0  0  0  0  0
  136.3652   68.6412  223.7228 H   0  0  0  0  0  0  0  0  0  0  0  0
  138.7616   70.5203  226.0064 H   0  0  0  0  0  0  0  0  0  0  0  0
  138.4757   69.5120  227.4705 H   0  0  0  0  0  0  0  0  0  0  0  0
  140.7587   71.1851  226.8457 H   0  0  0  0  0  0  0  0  0  0  0  0
  140.4517   70.2233  228.3246 H   0  0  0  0  0  0  0  0  0  0  0  0
  142.0377   67.3370  227.2401 H   0  0  0  0  0  0  0  0  0  0  0  0
  140.8619   68.1170  228.3766 H   0  0  0  0  0  0  0  0  0  0  0  0
  140.3585   66.6586  225.8167 H   0  0  0  0  0  0  0  0  0  0  0  0
  139.2900   66.8749  227.2090 H   0  0  0  0  0  0  0  0  0  0  0  0
  140.2183   70.4806  223.5981 H   0  0  0  0  0  0  0  0  0  0  0  0
  138.1208   76.3452  222.6458 H   0  0  0  0  0  0  0  0  0  0  0  0
  139.3709   78.4100  221.9891 H   0  0  0  0  0  0  0  0  0  0  0  0
  140.8390   80.7738  220.4812 H   0  0  0  0  0  0  0  0  0  0  0  0
  140.9691   82.7186  222.0083 H   0  0  0  0  0  0  0  0  0  0  0  0
  142.1368   82.5045  224.2164 H   0  0  0  0  0  0  0  0  0  0  0  0
  143.1610   80.2977  224.8273 H   0  0  0  0  0  0  0  0  0  0  0  0
  143.0138   78.3724  223.2684 H   0  0  0  0  0  0  0  0  0  0  0  0
  142.6526   75.9929  220.5685 H   0  0  0  0  0  0  0  0  0  0  0  0
  1  2  2  0
  2  3  1  0
  3  4  1  0
  4  5  1  0
  5  6  2  0
  6  7  1  0
  7  8  2  0
  8  9  1  0
  9 10  1  0
 10 11  2  0
 10 12  1  0
 12 13  1  0
 13 14  1  0
 14 15  1  0
 15 16  1  0
 16 17  1  0
  9 18  2  0
  4 19  2  0
 19 20  1  0
 20 21  2  0
 21 22  1  0
 22 23  2  0
 23 24  1  0
 24 25  1  0
 25 26  2  0
 26 27  1  0
 27 28  2  0
 28 29  1  0
 29 30  2  0
 23 31  1  0
 31 32  2  0
 32  2  1  0
 18  5  1  0
 32 20  1  0
 17 12  1  0
 30 25  1  0
  3 33  1  0
  3 34  1  0
  6 35  1  0
  7 36  1  0
  8 37  1  0
 13 38  1  0
 13 39  1  0
 14 40  1  0
 14 41  1  0
 16 42  1  0
 16 43  1  0
 17 44  1  0
 17 45  1  0
 18 46  1  0
 21 47  1  0
 22 48  1  0
 26 49  1  0
 27 50  1  0
 28 51  1  0
 29 52  1  0
 30 53  1  0
 31 54  1  0
M  END
>  <smiles>  (50) 
O=C1CC(c2cccc(C(=O)N3CCOCC3)c2)=Nc2ccc(Oc3ccccc3)cc21

>  <score_type>  (50) 
oracle

>  <origin>  (50) 
autodockgpu

>  <m_score__min__energy>  (50) 
-8.6400000000000006

>  <m_primary>  (50) 
energy

>  <rmsd>  (50) 
6.157962213689051

>  <m_score__min__rmsd>  (50) 
6.157962213689051

>  <meeko>  (50) 
{"free_energy": -8.57, "intermolecular_energy": -9.77, "internal_energy": -1.13, "cluster_size": 27, "cluster_id": 1, "rank_in_cluster": 6}

>  <energy>  (50) 
-7.86

>  <cluster_rmsd>  (50) 
0.97

>  <cluster>  (50) 
3

$$$$
