
     RDKit          3D

 47 50  0  0  0  0  0  0  0  0999 V2000
  141.0600   71.8630  221.4220 O   0  0  0  0  0  0  0  0  0  0  0  0
  140.4190   72.2550  222.4320 C   0  0  0  0  0  0  0  0  0  0  0  0
  139.8460   73.5700  222.3290 N   0  0  0  0  0  0  0  0  0  0  0  0
  140.0600   74.2850  221.1130 C   0  0  0  0  0  0  0  0  0  0  0  0
  140.1790   75.7510  221.3060 C   0  0  0  0  0  0  0  0  0  0  0  0
  139.4450   76.2890  222.1910 O   0  0  0  0  0  0  0  0  0  0  0  0
  141.0910   76.4960  220.5120 N   0  0  0  0  0  0  0  0  0  0  0  0
  142.2460   75.9740  219.8200 C   0  0  0  0  0  0  0  0  0  0  0  0
  142.9210   77.1400  219.1540 C   0  0  0  0  0  0  0  0  0  0  0  0
  141.8460   78.1830  219.0870 C   0  0  0  0  0  0  0  0  0  0  0  0
  140.9850   77.9140  220.2830 C   0  0  2  0  0  0  0  0  0  0  0  0
  141.4520   78.6380  221.5020 C   0  0  0  0  0  0  0  0  0  0  0  0
  141.9100   79.9320  221.4860 C   0  0  0  0  0  0  0  0  0  0  0  0
  142.3220   80.5550  222.6470 C   0  0  0  0  0  0  0  0  0  0  0  0
  142.2790   79.8830  223.8500 C   0  0  0  0  0  0  0  0  0  0  0  0
  141.8090   78.5810  223.8170 C   0  0  0  0  0  0  0  0  0  0  0  0
  141.4110   77.9860  222.6780 N   0  0  0  0  0  0  0  0  0  0  0  0
  140.2530   71.4490  223.6360 C   0  0  0  0  0  0  0  0  0  0  0  0
  139.5990   70.2410  223.4940 C   0  0  0  0  0  0  0  0  0  0  0  0
  139.3880   69.4020  224.5680 C   0  0  0  0  0  0  0  0  0  0  0  0
  139.8420   69.7810  225.8110 C   0  0  0  0  0  0  0  0  0  0  0  0
  139.6360   68.9440  226.9020 C   0  0  0  0  0  0  0  0  0  0  0  0
  140.1080   69.3620  228.1310 C   0  0  0  0  0  0  0  0  0  0  0  0
  139.9170   68.5530  229.2200 F   0  0  0  0  0  0  0  0  0  0  0  0
  140.7630   70.5780  228.2520 C   0  0  0  0  0  0  0  0  0  0  0  0
  140.9560   71.3960  227.1490 C   0  0  0  0  0  0  0  0  0  0  0  0
  140.4910   70.9930  225.9180 C   0  0  0  0  0  0  0  0  0  0  0  0
  140.6820   71.7950  224.8430 N   0  0  0  0  0  0  0  0  0  0  0  0
  139.3000   73.9490  223.1410 H   0  0  0  0  0  0  0  0  0  0  0  0
  140.9881   73.9175  220.6509 H   0  0  0  0  0  0  0  0  0  0  0  0
  139.1812   74.1113  220.4746 H   0  0  0  0  0  0  0  0  0  0  0  0
  142.9325   75.4981  220.5357 H   0  0  0  0  0  0  0  0  0  0  0  0
  141.9515   75.2150  219.0803 H   0  0  0  0  0  0  0  0  0  0  0  0
  143.7737   77.4936  219.7523 H   0  0  0  0  0  0  0  0  0  0  0  0
  143.3312   76.8869  218.1652 H   0  0  0  0  0  0  0  0  0  0  0  0
  142.2801   79.1923  219.1399 H   0  0  0  0  0  0  0  0  0  0  0  0
  141.2788   78.1382  218.1456 H   0  0  0  0  0  0  0  0  0  0  0  0
  139.9569   78.2562  220.0934 H   0  0  0  0  0  0  0  0  0  0  0  0
  141.9493   80.4809  220.5335 H   0  0  0  0  0  0  0  0  0  0  0  0
  142.6863   81.5923  222.6121 H   0  0  0  0  0  0  0  0  0  0  0  0
  142.6018   80.3572  224.7886 H   0  0  0  0  0  0  0  0  0  0  0  0
  141.7592   78.0120  224.7571 H   0  0  0  0  0  0  0  0  0  0  0  0
  139.2374   69.9405  222.4995 H   0  0  0  0  0  0  0  0  0  0  0  0
  138.8646   68.4439  224.4333 H   0  0  0  0  0  0  0  0  0  0  0  0
  139.1149   67.9817  226.7902 H   0  0  0  0  0  0  0  0  0  0  0  0
  141.1347   70.8983  229.2365 H   0  0  0  0  0  0  0  0  0  0  0  0
  141.4765   72.3590  227.2571 H   0  0  0  0  0  0  0  0  0  0  0  0
  1  2  2  0
  2  3  1  0
  3  4  1  0
  4  5  1  0
  5  6  2  0
  5  7  1  0
  7  8  1  0
  8  9  1  0
  9 10  1  0
 10 11  1  0
 11 12  1  0
 12 13  2  0
 13 14  1  0
 14 15  2  0
 15 16  1  0
 16 17  2  0
  2 18  1  0
 18 19  2  0
 19 20  1  0
 20 21  2  0
 21 22  1  0
 22 23  2  0
 23 24  1  0
 23 25  1  0
 25 26  2  0
 26 27  1  0
 27 28  2  0
 11  7  1  0
 17 12  1  0
 28 18  1  0
 27 21  1  0
  3 29  1  0
  4 30  1  0
  4 31  1  0
  8 32  1  0
  8 33  1  0
  9 34  1  0
  9 35  1  0
 10 36  1  0
 10 37  1  0
 11 38  1  6
 13 39  1  0
 14 40  1  0
 15 41  1  0
 16 42  1  0
 19 43  1  0
 20 44  1  0
 22 45  1  0
 25 46  1  0
 26 47  1  0
M  END
>  <smiles>  (1) 
O=C(NCC(=O)N1CCCC1c1ccccn1)c1ccc2cc(F)ccc2n1

>  <score_type>  (1) 
oracle

>  <origin>  (1) 
autodockgpu

>  <m_score__min__energy>  (1) 
-9.0099999999999998

>  <m_primary>  (1) 
energy

>  <rmsd>  (1) 
2.1408568453640213

>  <m_score__min__rmsd>  (1) 
2.1408568453640213

>  <meeko>  (1) 
{"free_energy": -8.75, "intermolecular_energy": -10.24, "internal_energy": -1.38, "cluster_size": 26, "cluster_id": 1, "rank_in_cluster": 11}

>  <energy>  (1) 
-9.01

>  <cluster_rmsd>  (1) 
0.0

>  <cluster>  (1) 
1

$$$$

     RDKit          3D

 47 50  0  0  0  0  0  0  0  0999 V2000
  141.1970   72.1870  221.5590 O   0  0  0  0  0  0  0  0  0  0  0  0
  140.3700   72.4010  222.4850 C   0  0  0  0  0  0  0  0  0  0  0  0
  139.5210   73.5470  222.3020 N   0  0  0  0  0  0  0  0  0  0  0  0
  139.7000   74.3120  221.1110 C   0  0  0  0  0  0  0  0  0  0  0  0
  140.8100   75.2920  221.2020 C   0  0  0  0  0  0  0  0  0  0  0  0
  141.0720   75.7790  222.3460 O   0  0  0  0  0  0  0  0  0  0  0  0
  141.5340   75.6500  220.0340 N   0  0  0  0  0  0  0  0  0  0  0  0
  140.9910   75.7940  218.7030 C   0  0  0  0  0  0  0  0  0  0  0  0
  142.1390   76.1410  217.7980 C   0  0  0  0  0  0  0  0  0  0  0  0
  143.1860   76.6630  218.7350 C   0  0  0  0  0  0  0  0  0  0  0  0
  142.9470   75.9260  220.0170 C   0  0  2  0  0  0  0  0  0  0  0  0
  143.6930   74.6360  220.0860 C   0  0  0  0  0  0  0  0  0  0  0  0
  144.9940   74.5340  220.5140 C   0  0  0  0  0  0  0  0  0  0  0  0
  145.6330   73.3120  220.5650 C   0  0  0  0  0  0  0  0  0  0  0  0
  144.9710   72.1640  220.1840 C   0  0  0  0  0  0  0  0  0  0  0  0
  143.6610   72.3160  219.7610 C   0  0  0  0  0  0  0  0  0  0  0  0
  143.0510   73.5130  219.7160 N   0  0  0  0  0  0  0  0  0  0  0  0
  140.2610   71.5590  223.6700 C   0  0  0  0  0  0  0  0  0  0  0  0
  139.6460   70.3330  223.5100 C   0  0  0  0  0  0  0  0  0  0  0  0
  139.4900   69.4590  224.5660 C   0  0  0  0  0  0  0  0  0  0  0  0
  139.9590   69.8220  225.8080 C   0  0  0  0  0  0  0  0  0  0  0  0
  139.8080   68.9500  226.8810 C   0  0  0  0  0  0  0  0  0  0  0  0
  140.2940   69.3530  228.1100 C   0  0  0  0  0  0  0  0  0  0  0  0
  140.1560   68.5090  229.1810 F   0  0  0  0  0  0  0  0  0  0  0  0
  140.9080   70.5880  228.2490 C   0  0  0  0  0  0  0  0  0  0  0  0
  141.0460   71.4410  227.1640 C   0  0  0  0  0  0  0  0  0  0  0  0
  140.5670   71.0530  225.9330 C   0  0  0  0  0  0  0  0  0  0  0  0
  140.7060   71.8890  224.8760 N   0  0  0  0  0  0  0  0  0  0  0  0
  138.8120   73.7740  223.0420 H   0  0  0  0  0  0  0  0  0  0  0  0
  139.9116   73.6214  220.2814 H   0  0  0  0  0  0  0  0  0  0  0  0
  138.7742   74.8837  220.9498 H   0  0  0  0  0  0  0  0  0  0  0  0
  140.5265   74.8507  218.3799 H   0  0  0  0  0  0  0  0  0  0  0  0
  140.2181   76.5762  218.6758 H   0  0  0  0  0  0  0  0  0  0  0  0
  142.5002   75.2500  217.2636 H   0  0  0  0  0  0  0  0  0  0  0  0
  141.8633   76.8679  217.0198 H   0  0  0  0  0  0  0  0  0  0  0  0
  144.1937   76.4519  218.3478 H   0  0  0  0  0  0  0  0  0  0  0  0
  143.1247   77.7538  218.8632 H   0  0  0  0  0  0  0  0  0  0  0  0
  143.2910   76.5295  220.8699 H   0  0  0  0  0  0  0  0  0  0  0  0
  145.5354   75.4410  220.8211 H   0  0  0  0  0  0  0  0  0  0  0  0
  146.6754   73.2534  220.9112 H   0  0  0  0  0  0  0  0  0  0  0  0
  145.4582   71.1783  220.2145 H   0  0  0  0  0  0  0  0  0  0  0  0
  143.0984   71.4234  219.4501 H   0  0  0  0  0  0  0  0  0  0  0  0
  139.2713   70.0463  222.5163 H   0  0  0  0  0  0  0  0  0  0  0  0
  138.9981   68.4864  224.4175 H   0  0  0  0  0  0  0  0  0  0  0  0
  139.3184   67.9730  226.7555 H   0  0  0  0  0  0  0  0  0  0  0  0
  141.2910   70.8957  229.2332 H   0  0  0  0  0  0  0  0  0  0  0  0
  141.5340   72.4192  227.2861 H   0  0  0  0  0  0  0  0  0  0  0  0
  1  2  2  0
  2  3  1  0
  3  4  1  0
  4  5  1  0
  5  6  2  0
  5  7  1  0
  7  8  1  0
  8  9  1  0
  9 10  1  0
 10 11  1  0
 11 12  1  0
 12 13  2  0
 13 14  1  0
 14 15  2  0
 15 16  1  0
 16 17  2  0
  2 18  1  0
 18 19  2  0
 19 20  1  0
 20 21  2  0
 21 22  1  0
 22 23  2  0
 23 24  1  0
 23 25  1  0
 25 26  2  0
 26 27  1  0
 27 28  2  0
 11  7  1  0
 17 12  1  0
 28 18  1  0
 27 21  1  0
  3 29  1  0
  4 30  1  0
  4 31  1  0
  8 32  1  0
  8 33  1  0
  9 34  1  0
  9 35  1  0
 10 36  1  0
 10 37  1  0
 11 38  1  1
 13 39  1  0
 14 40  1  0
 15 41  1  0
 16 42  1  0
 19 43  1  0
 20 44  1  0
 22 45  1  0
 25 46  1  0
 26 47  1  0
M  END
>  <smiles>  (2) 
O=C(NCC(=O)N1CCCC1c1ccccn1)c1ccc2cc(F)ccc2n1

>  <score_type>  (2) 
oracle

>  <origin>  (2) 
autodockgpu

>  <m_score__min__energy>  (2) 
-9.0099999999999998

>  <m_primary>  (2) 
energy

>  <rmsd>  (2) 
3.996276318759048

>  <m_score__min__rmsd>  (2) 
3.996276318759048

>  <meeko>  (2) 
{"free_energy": -8.19, "intermolecular_energy": -9.68, "internal_energy": -1.68, "cluster_size": 8, "cluster_id": 3, "rank_in_cluster": 4}

>  <energy>  (2) 
-9.01

>  <cluster_rmsd>  (2) 
0.5

>  <cluster>  (2) 
1

$$$$

     RDKit          3D

 47 50  0  0  0  0  0  0  0  0999 V2000
  140.5240   71.8700  221.1870 O   0  0  0  0  0  0  0  0  0  0  0  0
  140.1730   72.3150  222.3110 C   0  0  0  0  0  0  0  0  0  0  0  0
  139.7970   73.7030  222.3360 N   0  0  0  0  0  0  0  0  0  0  0  0
  139.8590   74.4220  221.1060 C   0  0  0  0  0  0  0  0  0  0  0  0
  140.0180   75.8860  221.2870 C   0  0  0  0  0  0  0  0  0  0  0  0
  139.2470   76.4630  222.1150 O   0  0  0  0  0  0  0  0  0  0  0  0
  141.0080   76.5860  220.5460 N   0  0  0  0  0  0  0  0  0  0  0  0
  142.1720   76.0080  219.9180 C   0  0  0  0  0  0  0  0  0  0  0  0
  142.9390   77.1400  219.2930 C   0  0  0  0  0  0  0  0  0  0  0  0
  141.9210   78.2330  219.1700 C   0  0  0  0  0  0  0  0  0  0  0  0
  140.9830   78.0070  220.3160 C   0  0  2  0  0  0  0  0  0  0  0  0
  141.4160   78.7080  221.5600 C   0  0  0  0  0  0  0  0  0  0  0  0
  141.3920   78.1280  222.8050 C   0  0  0  0  0  0  0  0  0  0  0  0
  141.8130   78.8220  223.9210 C   0  0  0  0  0  0  0  0  0  0  0  0
  142.2690   80.1180  223.8040 C   0  0  0  0  0  0  0  0  0  0  0  0
  142.2760   80.6600  222.5300 C   0  0  0  0  0  0  0  0  0  0  0  0
  141.8620   79.9720  221.4510 N   0  0  0  0  0  0  0  0  0  0  0  0
  140.1410   71.5000  223.5200 C   0  0  0  0  0  0  0  0  0  0  0  0
  139.5840   70.2420  223.4090 C   0  0  0  0  0  0  0  0  0  0  0  0
  139.5040   69.3890  224.4910 C   0  0  0  0  0  0  0  0  0  0  0  0
  139.9920   69.8060  225.7080 C   0  0  0  0  0  0  0  0  0  0  0  0
  139.9170   68.9560  226.8050 C   0  0  0  0  0  0  0  0  0  0  0  0
  140.4190   69.4140  228.0080 C   0  0  0  0  0  0  0  0  0  0  0  0
  140.3560   68.5930  229.1040 F   0  0  0  0  0  0  0  0  0  0  0  0
  140.9740   70.6810  228.0980 C   0  0  0  0  0  0  0  0  0  0  0  0
  141.0370   71.5110  226.9890 C   0  0  0  0  0  0  0  0  0  0  0  0
  140.5410   71.0680  225.7830 C   0  0  0  0  0  0  0  0  0  0  0  0
  140.6060   71.8820  224.7030 N   0  0  0  0  0  0  0  0  0  0  0  0
  139.4960   74.1280  223.2470 H   0  0  0  0  0  0  0  0  0  0  0  0
  140.7151   74.0473  220.5258 H   0  0  0  0  0  0  0  0  0  0  0  0
  138.9027   74.2608  220.5869 H   0  0  0  0  0  0  0  0  0  0  0  0
  142.7938   75.4993  220.6694 H   0  0  0  0  0  0  0  0  0  0  0  0
  141.8823   75.2639  219.1614 H   0  0  0  0  0  0  0  0  0  0  0  0
  143.7735   77.4519  219.9382 H   0  0  0  0  0  0  0  0  0  0  0  0
  143.3908   76.8674  218.3278 H   0  0  0  0  0  0  0  0  0  0  0  0
  142.3998   79.2202  219.2490 H   0  0  0  0  0  0  0  0  0  0  0  0
  141.4048   78.2147  218.1988 H   0  0  0  0  0  0  0  0  0  0  0  0
  139.9846   78.3987  220.0717 H   0  0  0  0  0  0  0  0  0  0  0  0
  141.0316   77.0944  222.9140 H   0  0  0  0  0  0  0  0  0  0  0  0
  141.7847   78.3389  224.9088 H   0  0  0  0  0  0  0  0  0  0  0  0
  142.6098   80.6920  224.6783 H   0  0  0  0  0  0  0  0  0  0  0  0
  142.6334   81.6916  222.3953 H   0  0  0  0  0  0  0  0  0  0  0  0
  139.1945   69.9114  222.4348 H   0  0  0  0  0  0  0  0  0  0  0  0
  139.0565   68.3901  224.3820 H   0  0  0  0  0  0  0  0  0  0  0  0
  139.4733   67.9532  226.7185 H   0  0  0  0  0  0  0  0  0  0  0  0
  141.3698   71.0328  229.0622 H   0  0  0  0  0  0  0  0  0  0  0  0
  141.4794   72.5147  227.0718 H   0  0  0  0  0  0  0  0  0  0  0  0
  1  2  2  0
  2  3  1  0
  3  4  1  0
  4  5  1  0
  5  6  2  0
  5  7  1  0
  7  8  1  0
  8  9  1  0
  9 10  1  0
 10 11  1  0
 11 12  1  0
 12 13  2  0
 13 14  1  0
 14 15  2  0
 15 16  1  0
 16 17  2  0
  2 18  1  0
 18 19  2  0
 19 20  1  0
 20 21  2  0
 21 22  1  0
 22 23  2  0
 23 24  1  0
 23 25  1  0
 25 26  2  0
 26 27  1  0
 27 28  2  0
 11  7  1  0
 17 12  1  0
 28 18  1  0
 27 21  1  0
  3 29  1  0
  4 30  1  0
  4 31  1  0
  8 32  1  0
  8 33  1  0
  9 34  1  0
  9 35  1  0
 10 36  1  0
 10 37  1  0
 11 38  1  6
 13 39  1  0
 14 40  1  0
 15 41  1  0
 16 42  1  0
 19 43  1  0
 20 44  1  0
 22 45  1  0
 25 46  1  0
 26 47  1  0
M  END
>  <smiles>  (3) 
O=C(NCC(=O)N1CCCC1c1ccccn1)c1ccc2cc(F)ccc2n1

>  <score_type>  (3) 
oracle

>  <origin>  (3) 
autodockgpu

>  <m_score__min__energy>  (3) 
-9.0099999999999998

>  <m_primary>  (3) 
energy

>  <rmsd>  (3) 
2.568615769499465

>  <m_score__min__rmsd>  (3) 
2.568615769499465

>  <meeko>  (3) 
{"free_energy": -8.68, "intermolecular_energy": -10.17, "internal_energy": -1.3, "cluster_size": 26, "cluster_id": 1, "rank_in_cluster": 13}

>  <energy>  (3) 
-8.99

>  <cluster_rmsd>  (3) 
0.49

>  <cluster>  (3) 
1

$$$$

     RDKit          3D

 47 50  0  0  0  0  0  0  0  0999 V2000
  141.0280   73.7230  220.9180 O   0  0  0  0  0  0  0  0  0  0  0  0
  140.4130   74.5850  221.6000 C   0  0  0  0  0  0  0  0  0  0  0  0
  139.2780   74.0950  222.3360 N   0  0  0  0  0  0  0  0  0  0  0  0
  138.9710   72.7070  222.2200 C   0  0  0  0  0  0  0  0  0  0  0  0
  139.8250   71.8430  223.0720 C   0  0  0  0  0  0  0  0  0  0  0  0
  141.0680   72.0980  223.1070 O   0  0  0  0  0  0  0  0  0  0  0  0
  139.2400   70.7780  223.8070 N   0  0  0  0  0  0  0  0  0  0  0  0
  137.8400   70.4250  223.8330 C   0  0  0  0  0  0  0  0  0  0  0  0
  137.7000   69.2650  224.7790 C   0  0  0  0  0  0  0  0  0  0  0  0
  139.0870   68.7020  224.8600 C   0  0  0  0  0  0  0  0  0  0  0  0
  139.9860   69.8810  224.6520 C   0  0  2  0  0  0  0  0  0  0  0  0
  140.3200   70.5810  225.9270 C   0  0  0  0  0  0  0  0  0  0  0  0
  141.1710   71.6560  226.0010 C   0  0  0  0  0  0  0  0  0  0  0  0
  141.4380   72.2700  227.2090 C   0  0  0  0  0  0  0  0  0  0  0  0
  140.8490   71.8110  228.3670 C   0  0  0  0  0  0  0  0  0  0  0  0
  139.9980   70.7260  228.2430 C   0  0  0  0  0  0  0  0  0  0  0  0
  139.7470   70.1370  227.0610 N   0  0  0  0  0  0  0  0  0  0  0  0
  140.8040   75.9890  221.6560 C   0  0  0  0  0  0  0  0  0  0  0  0
  141.3930   76.5180  220.5250 C   0  0  0  0  0  0  0  0  0  0  0  0
  141.8000   77.8350  220.4710 C   0  0  0  0  0  0  0  0  0  0  0  0
  141.6140   78.6370  221.5730 C   0  0  0  0  0  0  0  0  0  0  0  0
  142.0210   79.9660  221.5310 C   0  0  0  0  0  0  0  0  0  0  0  0
  141.8150   80.7370  222.6590 C   0  0  0  0  0  0  0  0  0  0  0  0
  142.2080   82.0500  222.6400 F   0  0  0  0  0  0  0  0  0  0  0  0
  141.2210   80.1860  223.7840 C   0  0  0  0  0  0  0  0  0  0  0  0
  140.8250   78.8580  223.8020 C   0  0  0  0  0  0  0  0  0  0  0  0
  141.0230   78.0770  222.6860 C   0  0  0  0  0  0  0  0  0  0  0  0
  140.6330   76.7800  222.7080 N   0  0  0  0  0  0  0  0  0  0  0  0
  138.7270   74.7700  222.9220 H   0  0  0  0  0  0  0  0  0  0  0  0
  137.9211   72.5562  222.5116 H   0  0  0  0  0  0  0  0  0  0  0  0
  139.1568   72.4188  221.1748 H   0  0  0  0  0  0  0  0  0  0  0  0
  137.2415   71.2770  224.1879 H   0  0  0  0  0  0  0  0  0  0  0  0
  137.4822   70.1587  222.8275 H   0  0  0  0  0  0  0  0  0  0  0  0
  137.3562   69.6043  225.7673 H   0  0  0  0  0  0  0  0  0  0  0  0
  136.9594   68.5258  224.4399 H   0  0  0  0  0  0  0  0  0  0  0  0
  139.2646   68.2474  225.8458 H   0  0  0  0  0  0  0  0  0  0  0  0
  139.2596   67.9096  224.1168 H   0  0  0  0  0  0  0  0  0  0  0  0
  140.9425   69.5556  224.2171 H   0  0  0  0  0  0  0  0  0  0  0  0
  141.6473   72.0339  225.0843 H   0  0  0  0  0  0  0  0  0  0  0  0
  142.1238   73.1292  227.2468 H   0  0  0  0  0  0  0  0  0  0  0  0
  141.0451   72.2829  229.3411 H   0  0  0  0  0  0  0  0  0  0  0  0
  139.5089   70.3311  229.1456 H   0  0  0  0  0  0  0  0  0  0  0  0
  141.5413   75.8739  219.6458 H   0  0  0  0  0  0  0  0  0  0  0  0
  142.2665   78.2380  219.5599 H   0  0  0  0  0  0  0  0  0  0  0  0
  142.4908   80.3890  220.6308 H   0  0  0  0  0  0  0  0  0  0  0  0
  141.0618   80.8116  224.6747 H   0  0  0  0  0  0  0  0  0  0  0  0
  140.3562   78.4315  224.7010 H   0  0  0  0  0  0  0  0  0  0  0  0
  1  2  2  0
  2  3  1  0
  3  4  1  0
  4  5  1  0
  5  6  2  0
  5  7  1  0
  7  8  1  0
  8  9  1  0
  9 10  1  0
 10 11  1  0
 11 12  1  0
 12 13  2  0
 13 14  1  0
 14 15  2  0
 15 16  1  0
 16 17  2  0
  2 18  1  0
 18 19  2  0
 19 20  1  0
 20 21  2  0
 21 22  1  0
 22 23  2  0
 23 24  1  0
 23 25  1  0
 25 26  2  0
 26 27  1  0
 27 28  2  0
 11  7  1  0
 17 12  1  0
 28 18  1  0
 27 21  1  0
  3 29  1  0
  4 30  1  0
  4 31  1  0
  8 32  1  0
  8 33  1  0
  9 34  1  0
  9 35  1  0
 10 36  1  0
 10 37  1  0
 11 38  1  6
 13 39  1  0
 14 40  1  0
 15 41  1  0
 16 42  1  0
 19 43  1  0
 20 44  1  0
 22 45  1  0
 25 46  1  0
 26 47  1  0
M  END
>  <smiles>  (4) 
O=C(NCC(=O)N1CCCC1c1ccccn1)c1ccc2cc(F)ccc2n1

>  <score_type>  (4) 
oracle

>  <origin>  (4) 
autodockgpu

>  <m_score__min__energy>  (4) 
-9.0099999999999998

>  <m_primary>  (4) 
energy

>  <rmsd>  (4) 
9.181000061225337

>  <m_score__min__rmsd>  (4) 
9.181000061225337

>  <meeko>  (4) 
{"free_energy": -8.8, "intermolecular_energy": -10.29, "internal_energy": -1.31, "cluster_size": 14, "cluster_id": 2, "rank_in_cluster": 3}

>  <energy>  (4) 
-8.99

>  <cluster_rmsd>  (4) 
0.15

>  <cluster>  (4) 
1

$$$$

     RDKit          3D

 47 50  0  0  0  0  0  0  0  0999 V2000
  141.0420   73.7670  220.8740 O   0  0  0  0  0  0  0  0  0  0  0  0
  140.4330   74.6170  221.5760 C   0  0  0  0  0  0  0  0  0  0  0  0
  139.3150   74.1130  222.3260 N   0  0  0  0  0  0  0  0  0  0  0  0
  139.0140   72.7240  222.2010 C   0  0  0  0  0  0  0  0  0  0  0  0
  139.8340   71.8630  223.0890 C   0  0  0  0  0  0  0  0  0  0  0  0
  141.0760   72.1150  223.1690 O   0  0  0  0  0  0  0  0  0  0  0  0
  139.2190   70.8040  223.8090 N   0  0  0  0  0  0  0  0  0  0  0  0
  137.8090   70.4920  223.8330 C   0  0  0  0  0  0  0  0  0  0  0  0
  137.6360   69.3220  224.7600 C   0  0  0  0  0  0  0  0  0  0  0  0
  139.0060   68.7150  224.8260 C   0  0  0  0  0  0  0  0  0  0  0  0
  139.9400   69.8700  224.6350 C   0  0  2  0  0  0  0  0  0  0  0  0
  140.2990   70.5380  225.9210 C   0  0  0  0  0  0  0  0  0  0  0  0
  139.8950   70.0810  227.1510 C   0  0  0  0  0  0  0  0  0  0  0  0
  140.2650   70.7350  228.3090 C   0  0  0  0  0  0  0  0  0  0  0  0
  141.0510   71.8650  228.2490 C   0  0  0  0  0  0  0  0  0  0  0  0
  141.4350   72.2880  226.9870 C   0  0  0  0  0  0  0  0  0  0  0  0
  141.0670   71.6410  225.8670 N   0  0  0  0  0  0  0  0  0  0  0  0
  140.8170   76.0230  221.6400 C   0  0  0  0  0  0  0  0  0  0  0  0
  141.4570   76.5460  220.5340 C   0  0  0  0  0  0  0  0  0  0  0  0
  141.8630   77.8630  220.4900 C   0  0  0  0  0  0  0  0  0  0  0  0
  141.6220   78.6740  221.5760 C   0  0  0  0  0  0  0  0  0  0  0  0
  142.0260   80.0030  221.5440 C   0  0  0  0  0  0  0  0  0  0  0  0
  141.7650   80.7820  222.6550 C   0  0  0  0  0  0  0  0  0  0  0  0
  142.1540   82.0960  222.6450 F   0  0  0  0  0  0  0  0  0  0  0  0
  141.1210   80.2370  223.7550 C   0  0  0  0  0  0  0  0  0  0  0  0
  140.7280   78.9070  223.7630 C   0  0  0  0  0  0  0  0  0  0  0  0
  140.9810   78.1190  222.6630 C   0  0  0  0  0  0  0  0  0  0  0  0
  140.5950   76.8210  222.6760 N   0  0  0  0  0  0  0  0  0  0  0  0
  138.7710   74.7780  222.9290 H   0  0  0  0  0  0  0  0  0  0  0  0
  137.9534   72.5728  222.4505 H   0  0  0  0  0  0  0  0  0  0  0  0
  139.2418   72.4334  221.1648 H   0  0  0  0  0  0  0  0  0  0  0  0
  137.2368   71.3555  224.2031 H   0  0  0  0  0  0  0  0  0  0  0  0
  137.4418   70.2524  222.8242 H   0  0  0  0  0  0  0  0  0  0  0  0
  137.3063   69.6554  225.7551 H   0  0  0  0  0  0  0  0  0  0  0  0
  136.8714   68.6118  224.4120 H   0  0  0  0  0  0  0  0  0  0  0  0
  139.1728   68.2380  225.8031 H   0  0  0  0  0  0  0  0  0  0  0  0
  139.1519   67.9306  224.0687 H   0  0  0  0  0  0  0  0  0  0  0  0
  140.8847   69.5230  224.1909 H   0  0  0  0  0  0  0  0  0  0  0  0
  139.2670   69.1801  227.2147 H   0  0  0  0  0  0  0  0  0  0  0  0
  139.9307   70.3521  229.2845 H   0  0  0  0  0  0  0  0  0  0  0  0
  141.3581   72.4041  229.1573 H   0  0  0  0  0  0  0  0  0  0  0  0
  142.0640   73.1860  226.8978 H   0  0  0  0  0  0  0  0  0  0  0  0
  141.6476   75.8963  219.6670 H   0  0  0  0  0  0  0  0  0  0  0  0
  142.3724   78.2601  219.5996 H   0  0  0  0  0  0  0  0  0  0  0  0
  142.5365   80.4210  220.6638 H   0  0  0  0  0  0  0  0  0  0  0  0
  140.9190   80.8678  224.6332 H   0  0  0  0  0  0  0  0  0  0  0  0
  140.2180   78.4850  224.6416 H   0  0  0  0  0  0  0  0  0  0  0  0
  1  2  2  0
  2  3  1  0
  3  4  1  0
  4  5  1  0
  5  6  2  0
  5  7  1  0
  7  8  1  0
  8  9  1  0
  9 10  1  0
 10 11  1  0
 11 12  1  0
 12 13  2  0
 13 14  1  0
 14 15  2  0
 15 16  1  0
 16 17  2  0
  2 18  1  0
 18 19  2  0
 19 20  1  0
 20 21  2  0
 21 22  1  0
 22 23  2  0
 23 24  1  0
 23 25  1  0
 25 26  2  0
 26 27  1  0
 27 28  2  0
 11  7  1  0
 17 12  1  0
 28 18  1  0
 27 21  1  0
  3 29  1  0
  4 30  1  0
  4 31  1  0
  8 32  1  0
  8 33  1  0
  9 34  1  0
  9 35  1  0
 10 36  1  0
 10 37  1  0
 11 38  1  6
 13 39  1  0
 14 40  1  0
 15 41  1  0
 16 42  1  0
 19 43  1  0
 20 44  1  0
 22 45  1  0
 25 46  1  0
 26 47  1  0
M  END
>  <smiles>  (5) 
O=C(NCC(=O)N1CCCC1c1ccccn1)c1ccc2cc(F)ccc2n1

>  <score_type>  (5) 
oracle

>  <origin>  (5) 
autodockgpu

>  <m_score__min__energy>  (5) 
-9.0099999999999998

>  <m_primary>  (5) 
energy

>  <rmsd>  (5) 
9.364637567372194

>  <m_score__min__rmsd>  (5) 
9.364637567372194

>  <meeko>  (5) 
{"free_energy": -8.78, "intermolecular_energy": -10.27, "internal_energy": -1.32, "cluster_size": 14, "cluster_id": 2, "rank_in_cluster": 7}

>  <energy>  (5) 
-8.96

>  <cluster_rmsd>  (5) 
0.55

>  <cluster>  (5) 
1

$$$$

     RDKit          3D

 47 50  0  0  0  0  0  0  0  0999 V2000
  141.1200   71.9620  221.3960 O   0  0  0  0  0  0  0  0  0  0  0  0
  140.5070   72.3680  222.4190 C   0  0  0  0  0  0  0  0  0  0  0  0
  139.9910   73.7080  222.3380 N   0  0  0  0  0  0  0  0  0  0  0  0
  140.2230   74.4280  221.1290 C   0  0  0  0  0  0  0  0  0  0  0  0
  140.1300   75.9000  221.2940 C   0  0  0  0  0  0  0  0  0  0  0  0
  139.3270   76.3430  222.1730 O   0  0  0  0  0  0  0  0  0  0  0  0
  140.9240   76.7530  220.4820 N   0  0  0  0  0  0  0  0  0  0  0  0
  141.9990   76.3440  219.6090 C   0  0  0  0  0  0  0  0  0  0  0  0
  142.5640   77.5950  218.9960 C   0  0  0  0  0  0  0  0  0  0  0  0
  141.4660   78.6010  219.1660 C   0  0  0  0  0  0  0  0  0  0  0  0
  140.7600   78.1820  220.4190 C   0  0  2  0  0  0  0  0  0  0  0  0
  141.3530   78.7930  221.6440 C   0  0  0  0  0  0  0  0  0  0  0  0
  141.1960   78.2700  222.9040 C   0  0  0  0  0  0  0  0  0  0  0  0
  141.7750   78.8740  224.0020 C   0  0  0  0  0  0  0  0  0  0  0  0
  142.5250   80.0210  223.8500 C   0  0  0  0  0  0  0  0  0  0  0  0
  142.6560   80.5110  222.5620 C   0  0  0  0  0  0  0  0  0  0  0  0
  142.0860   79.9120  221.5010 N   0  0  0  0  0  0  0  0  0  0  0  0
  140.3190   71.5550  223.6150 C   0  0  0  0  0  0  0  0  0  0  0  0
  139.6460   70.3600  223.4570 C   0  0  0  0  0  0  0  0  0  0  0  0
  139.4140   69.5150  224.5230 C   0  0  0  0  0  0  0  0  0  0  0  0
  139.8660   69.8750  225.7720 C   0  0  0  0  0  0  0  0  0  0  0  0
  139.6390   69.0320  226.8540 C   0  0  0  0  0  0  0  0  0  0  0  0
  140.1100   69.4320  228.0900 C   0  0  0  0  0  0  0  0  0  0  0  0
  139.8970   68.6160  229.1710 F   0  0  0  0  0  0  0  0  0  0  0  0
  140.7840   70.6350  228.2260 C   0  0  0  0  0  0  0  0  0  0  0  0
  140.9980   71.4600  227.1310 C   0  0  0  0  0  0  0  0  0  0  0  0
  140.5340   71.0750  225.8930 C   0  0  0  0  0  0  0  0  0  0  0  0
  140.7470   71.8830  224.8270 N   0  0  0  0  0  0  0  0  0  0  0  0
  139.4710   74.0990  223.1620 H   0  0  0  0  0  0  0  0  0  0  0  0
  141.2307   74.1808  220.7636 H   0  0  0  0  0  0  0  0  0  0  0  0
  139.4388   74.1302  220.4174 H   0  0  0  0  0  0  0  0  0  0  0  0
  142.7762   75.8209  220.1855 H   0  0  0  0  0  0  0  0  0  0  0  0
  141.6351   75.6549  218.8326 H   0  0  0  0  0  0  0  0  0  0  0  0
  143.4741   77.9145  219.5248 H   0  0  0  0  0  0  0  0  0  0  0  0
  142.8588   77.4592  217.9450 H   0  0  0  0  0  0  0  0  0  0  0  0
  141.8809   79.6140  219.2743 H   0  0  0  0  0  0  0  0  0  0  0  0
  140.7913   78.6327  218.2978 H   0  0  0  0  0  0  0  0  0  0  0  0
  139.7093   78.5062  220.3886 H   0  0  0  0  0  0  0  0  0  0  0  0
  140.5997   77.3558  223.0405 H   0  0  0  0  0  0  0  0  0  0  0  0
  141.6374   78.4383  225.0026 H   0  0  0  0  0  0  0  0  0  0  0  0
  142.9956   80.5215  224.7091 H   0  0  0  0  0  0  0  0  0  0  0  0
  143.2481   81.4238  222.4002 H   0  0  0  0  0  0  0  0  0  0  0  0
  139.2861   70.0746  222.4575 H   0  0  0  0  0  0  0  0  0  0  0  0
  138.8754   68.5671  224.3765 H   0  0  0  0  0  0  0  0  0  0  0  0
  139.1030   68.0794  226.7305 H   0  0  0  0  0  0  0  0  0  0  0  0
  141.1545   70.9402  229.2157 H   0  0  0  0  0  0  0  0  0  0  0  0
  141.5337   72.4133  227.2509 H   0  0  0  0  0  0  0  0  0  0  0  0
  1  2  2  0
  2  3  1  0
  3  4  1  0
  4  5  1  0
  5  6  2  0
  5  7  1  0
  7  8  1  0
  8  9  1  0
  9 10  1  0
 10 11  1  0
 11 12  1  0
 12 13  2  0
 13 14  1  0
 14 15  2  0
 15 16  1  0
 16 17  2  0
  2 18  1  0
 18 19  2  0
 19 20  1  0
 20 21  2  0
 21 22  1  0
 22 23  2  0
 23 24  1  0
 23 25  1  0
 25 26  2  0
 26 27  1  0
 27 28  2  0
 11  7  1  0
 17 12  1  0
 28 18  1  0
 27 21  1  0
  3 29  1  0
  4 30  1  0
  4 31  1  0
  8 32  1  0
  8 33  1  0
  9 34  1  0
  9 35  1  0
 10 36  1  0
 10 37  1  0
 11 38  1  6
 13 39  1  0
 14 40  1  0
 15 41  1  0
 16 42  1  0
 19 43  1  0
 20 44  1  0
 22 45  1  0
 25 46  1  0
 26 47  1  0
M  END
>  <smiles>  (6) 
O=C(NCC(=O)N1CCCC1c1ccccn1)c1ccc2cc(F)ccc2n1

>  <score_type>  (6) 
oracle

>  <origin>  (6) 
autodockgpu

>  <m_score__min__energy>  (6) 
-9.0099999999999998

>  <m_primary>  (6) 
energy

>  <rmsd>  (6) 
2.6164842273928923

>  <m_score__min__rmsd>  (6) 
2.6164842273928923

>  <meeko>  (6) 
{"free_energy": -8.63, "intermolecular_energy": -10.12, "internal_energy": -1.38, "cluster_size": 26, "cluster_id": 1, "rank_in_cluster": 15}

>  <energy>  (6) 
-8.96

>  <cluster_rmsd>  (6) 
0.5

>  <cluster>  (6) 
1

$$$$

     RDKit          3D

 47 50  0  0  0  0  0  0  0  0999 V2000
  141.1120   72.5070  221.6070 O   0  0  0  0  0  0  0  0  0  0  0  0
  140.2070   72.5170  222.4830 C   0  0  0  0  0  0  0  0  0  0  0  0
  139.1770   73.5030  222.2950 N   0  0  0  0  0  0  0  0  0  0  0  0
  139.2840   74.3550  221.1550 C   0  0  0  0  0  0  0  0  0  0  0  0
  139.8390   75.6930  221.4710 C   0  0  0  0  0  0  0  0  0  0  0  0
  139.2530   76.3780  222.3660 O   0  0  0  0  0  0  0  0  0  0  0  0
  140.9880   76.1620  220.7790 N   0  0  0  0  0  0  0  0  0  0  0  0
  142.1520   75.3830  220.4300 C   0  0  0  0  0  0  0  0  0  0  0  0
  143.1140   76.3160  219.7480 C   0  0  0  0  0  0  0  0  0  0  0  0
  142.2470   77.4550  219.3010 C   0  0  0  0  0  0  0  0  0  0  0  0
  141.1500   77.5170  220.3190 C   0  0  2  0  0  0  0  0  0  0  0  0
  141.4940   78.3860  221.4830 C   0  0  0  0  0  0  0  0  0  0  0  0
  141.8380   79.7100  221.3640 C   0  0  0  0  0  0  0  0  0  0  0  0
  142.1390   80.4700  222.4770 C   0  0  0  0  0  0  0  0  0  0  0  0
  142.0980   79.9060  223.7350 C   0  0  0  0  0  0  0  0  0  0  0  0
  141.7460   78.5690  223.8050 C   0  0  0  0  0  0  0  0  0  0  0  0
  141.4550   77.8420  222.7120 N   0  0  0  0  0  0  0  0  0  0  0  0
  140.1830   71.6030  223.6190 C   0  0  0  0  0  0  0  0  0  0  0  0
  139.6450   70.3510  223.4000 C   0  0  0  0  0  0  0  0  0  0  0  0
  139.5730   69.4090  224.4060 C   0  0  0  0  0  0  0  0  0  0  0  0
  140.0500   69.7300  225.6560 C   0  0  0  0  0  0  0  0  0  0  0  0
  139.9830   68.7900  226.6780 C   0  0  0  0  0  0  0  0  0  0  0  0
  140.4730   69.1520  227.9180 C   0  0  0  0  0  0  0  0  0  0  0  0
  140.4170   68.2410  228.9400 F   0  0  0  0  0  0  0  0  0  0  0  0
  141.0090   70.4150  228.1170 C   0  0  0  0  0  0  0  0  0  0  0  0
  141.0640   71.3360  227.0810 C   0  0  0  0  0  0  0  0  0  0  0  0
  140.5800   70.9890  225.8400 C   0  0  0  0  0  0  0  0  0  0  0  0
  140.6370   71.8920  224.8320 N   0  0  0  0  0  0  0  0  0  0  0  0
  138.3970   73.5580  222.9950 H   0  0  0  0  0  0  0  0  0  0  0  0
  139.9407   73.8702  220.4176 H   0  0  0  0  0  0  0  0  0  0  0  0
  138.2661   74.5085  220.7672 H   0  0  0  0  0  0  0  0  0  0  0  0
  142.6114   74.9625  221.3367 H   0  0  0  0  0  0  0  0  0  0  0  0
  141.8816   74.5453  219.7704 H   0  0  0  0  0  0  0  0  0  0  0  0
  143.8874   76.6632  220.4489 H   0  0  0  0  0  0  0  0  0  0  0  0
  143.6539   75.8391  218.9167 H   0  0  0  0  0  0  0  0  0  0  0  0
  142.8177   78.3953  219.2873 H   0  0  0  0  0  0  0  0  0  0  0  0
  141.8617   77.3106  218.2809 H   0  0  0  0  0  0  0  0  0  0  0  0
  140.2411   77.9447  219.8706 H   0  0  0  0  0  0  0  0  0  0  0  0
  141.8744   80.1724  220.3666 H   0  0  0  0  0  0  0  0  0  0  0  0
  142.4125   81.5290  222.3599 H   0  0  0  0  0  0  0  0  0  0  0  0
  142.3332   80.4893  224.6374 H   0  0  0  0  0  0  0  0  0  0  0  0
  141.7028   78.0835  224.7911 H   0  0  0  0  0  0  0  0  0  0  0  0
  139.2644   70.0979  222.3994 H   0  0  0  0  0  0  0  0  0  0  0  0
  139.1407   68.4164  224.2114 H   0  0  0  0  0  0  0  0  0  0  0  0
  139.5544   67.7918  226.5052 H   0  0  0  0  0  0  0  0  0  0  0  0
  141.3957   70.6904  229.1093 H   0  0  0  0  0  0  0  0  0  0  0  0
  141.4910   72.3356  227.2499 H   0  0  0  0  0  0  0  0  0  0  0  0
  1  2  2  0
  2  3  1  0
  3  4  1  0
  4  5  1  0
  5  6  2  0
  5  7  1  0
  7  8  1  0
  8  9  1  0
  9 10  1  0
 10 11  1  0
 11 12  1  0
 12 13  2  0
 13 14  1  0
 14 15  2  0
 15 16  1  0
 16 17  2  0
  2 18  1  0
 18 19  2  0
 19 20  1  0
 20 21  2  0
 21 22  1  0
 22 23  2  0
 23 24  1  0
 23 25  1  0
 25 26  2  0
 26 27  1  0
 27 28  2  0
 11  7  1  0
 17 12  1  0
 28 18  1  0
 27 21  1  0
  3 29  1  0
  4 30  1  0
  4 31  1  0
  8 32  1  0
  8 33  1  0
  9 34  1  0
  9 35  1  0
 10 36  1  0
 10 37  1  0
 11 38  1  6
 13 39  1  0
 14 40  1  0
 15 41  1  0
 16 42  1  0
 19 43  1  0
 20 44  1  0
 22 45  1  0
 25 46  1  0
 26 47  1  0
M  END
>  <smiles>  (7) 
O=C(NCC(=O)N1CCCC1c1ccccn1)c1ccc2cc(F)ccc2n1

>  <score_type>  (7) 
oracle

>  <origin>  (7) 
autodockgpu

>  <m_score__min__energy>  (7) 
-9.0099999999999998

>  <m_primary>  (7) 
energy

>  <rmsd>  (7) 
2.1025240730365407

>  <m_score__min__rmsd>  (7) 
2.1025240730365407

>  <meeko>  (7) 
{"free_energy": -8.83, "intermolecular_energy": -10.33, "internal_energy": -1.32, "cluster_size": 26, "cluster_id": 1, "rank_in_cluster": 9}

>  <energy>  (7) 
-8.92

>  <cluster_rmsd>  (7) 
0.24

>  <cluster>  (7) 
1

$$$$

     RDKit          3D

 47 50  0  0  0  0  0  0  0  0999 V2000
  140.7280   72.2580  221.4010 O   0  0  0  0  0  0  0  0  0  0  0  0
  139.9680   72.4000  222.3950 C   0  0  0  0  0  0  0  0  0  0  0  0
  139.0110   73.4690  222.2930 N   0  0  0  0  0  0  0  0  0  0  0  0
  139.0210   74.2460  221.0970 C   0  0  0  0  0  0  0  0  0  0  0  0
  139.6110   75.5950  221.2780 C   0  0  0  0  0  0  0  0  0  0  0  0
  138.9240   76.4580  221.9070 O   0  0  0  0  0  0  0  0  0  0  0  0
  140.9010   75.8780  220.7540 N   0  0  0  0  0  0  0  0  0  0  0  0
  142.0170   74.9640  220.6910 C   0  0  0  0  0  0  0  0  0  0  0  0
  143.1710   75.7240  220.0990 C   0  0  0  0  0  0  0  0  0  0  0  0
  142.5160   76.8760  219.3980 C   0  0  0  0  0  0  0  0  0  0  0  0
  141.2800   77.1510  220.1980 C   0  0  2  0  0  0  0  0  0  0  0  0
  141.5200   78.1150  221.3130 C   0  0  0  0  0  0  0  0  0  0  0  0
  141.8270   79.4390  221.1170 C   0  0  0  0  0  0  0  0  0  0  0  0
  142.0310   80.2870  222.1870 C   0  0  0  0  0  0  0  0  0  0  0  0
  141.9270   79.8150  223.4780 C   0  0  0  0  0  0  0  0  0  0  0  0
  141.6140   78.4750  223.6260 C   0  0  0  0  0  0  0  0  0  0  0  0
  141.4190   77.6600  222.5740 N   0  0  0  0  0  0  0  0  0  0  0  0
  140.0330   71.5510  223.5800 C   0  0  0  0  0  0  0  0  0  0  0  0
  139.5620   70.2600  223.4490 C   0  0  0  0  0  0  0  0  0  0  0  0
  139.5770   69.3750  224.5070 C   0  0  0  0  0  0  0  0  0  0  0  0
  140.0730   69.7920  225.7200 C   0  0  0  0  0  0  0  0  0  0  0  0
  140.0940   68.9090  226.7940 C   0  0  0  0  0  0  0  0  0  0  0  0
  140.6010   69.3690  227.9940 C   0  0  0  0  0  0  0  0  0  0  0  0
  140.6310   68.5150  229.0660 F   0  0  0  0  0  0  0  0  0  0  0  0
  141.0690   70.6690  228.1040 C   0  0  0  0  0  0  0  0  0  0  0  0
  141.0380   71.5310  227.0180 C   0  0  0  0  0  0  0  0  0  0  0  0
  140.5350   71.0870  225.8160 C   0  0  0  0  0  0  0  0  0  0  0  0
  140.5080   71.9330  224.7590 N   0  0  0  0  0  0  0  0  0  0  0  0
  138.3510   73.6330  223.0930 H   0  0  0  0  0  0  0  0  0  0  0  0
  139.6061   73.7083  220.3363 H   0  0  0  0  0  0  0  0  0  0  0  0
  137.9737   74.3870  220.7916 H   0  0  0  0  0  0  0  0  0  0  0  0
  142.2745   74.6112  221.7006 H   0  0  0  0  0  0  0  0  0  0  0  0
  141.7706   74.0833  220.0798 H   0  0  0  0  0  0  0  0  0  0  0  0
  143.8516   76.0798  220.8865 H   0  0  0  0  0  0  0  0  0  0  0  0
  143.7856   75.1089  219.4253 H   0  0  0  0  0  0  0  0  0  0  0  0
  143.1782   77.7543  219.3920 H   0  0  0  0  0  0  0  0  0  0  0  0
  142.2902   76.6502  218.3454 H   0  0  0  0  0  0  0  0  0  0  0  0
  140.5074   77.6023  219.5581 H   0  0  0  0  0  0  0  0  0  0  0  0
  141.9116   79.8297  220.0922 H   0  0  0  0  0  0  0  0  0  0  0  0
  142.2777   81.3441  222.0087 H   0  0  0  0  0  0  0  0  0  0  0  0
  142.0849   80.4706  224.3471 H   0  0  0  0  0  0  0  0  0  0  0  0
  141.5213   78.0614  224.6411 H   0  0  0  0  0  0  0  0  0  0  0  0
  139.1653   69.9292  222.4778 H   0  0  0  0  0  0  0  0  0  0  0  0
  139.1975   68.3501  224.3822 H   0  0  0  0  0  0  0  0  0  0  0  0
  139.7198   67.8797  226.6917 H   0  0  0  0  0  0  0  0  0  0  0  0
  141.4704   71.0217  229.0655 H   0  0  0  0  0  0  0  0  0  0  0  0
  141.4121   72.5607  227.1163 H   0  0  0  0  0  0  0  0  0  0  0  0
  1  2  2  0
  2  3  1  0
  3  4  1  0
  4  5  1  0
  5  6  2  0
  5  7  1  0
  7  8  1  0
  8  9  1  0
  9 10  1  0
 10 11  1  0
 11 12  1  0
 12 13  2  0
 13 14  1  0
 14 15  2  0
 15 16  1  0
 16 17  2  0
  2 18  1  0
 18 19  2  0
 19 20  1  0
 20 21  2  0
 21 22  1  0
 22 23  2  0
 23 24  1  0
 23 25  1  0
 25 26  2  0
 26 27  1  0
 27 28  2  0
 11  7  1  0
 17 12  1  0
 28 18  1  0
 27 21  1  0
  3 29  1  0
  4 30  1  0
  4 31  1  0
  8 32  1  0
  8 33  1  0
  9 34  1  0
  9 35  1  0
 10 36  1  0
 10 37  1  0
 11 38  1  6
 13 39  1  0
 14 40  1  0
 15 41  1  0
 16 42  1  0
 19 43  1  0
 20 44  1  0
 22 45  1  0
 25 46  1  0
 26 47  1  0
M  END
>  <smiles>  (8) 
O=C(NCC(=O)N1CCCC1c1ccccn1)c1ccc2cc(F)ccc2n1

>  <score_type>  (8) 
oracle

>  <origin>  (8) 
autodockgpu

>  <m_score__min__energy>  (8) 
-9.0099999999999998

>  <m_primary>  (8) 
energy

>  <rmsd>  (8) 
2.0802991877838584

>  <m_score__min__rmsd>  (8) 
2.0802991877838584

>  <meeko>  (8) 
{"free_energy": -8.4, "intermolecular_energy": -9.89, "internal_energy": -1.41, "cluster_size": 26, "cluster_id": 1, "rank_in_cluster": 21}

>  <energy>  (8) 
-8.85

>  <cluster_rmsd>  (8) 
0.64

>  <cluster>  (8) 
1

$$$$

     RDKit          3D

 47 50  0  0  0  0  0  0  0  0999 V2000
  141.3370   72.6970  221.9540 O   0  0  0  0  0  0  0  0  0  0  0  0
  140.3200   72.5740  222.6860 C   0  0  0  0  0  0  0  0  0  0  0  0
  139.2070   73.4180  222.3440 N   0  0  0  0  0  0  0  0  0  0  0  0
  139.3650   74.2940  221.2290 C   0  0  0  0  0  0  0  0  0  0  0  0
  139.9210   75.6190  221.5970 C   0  0  0  0  0  0  0  0  0  0  0  0
  139.3870   76.2300  222.5740 O   0  0  0  0  0  0  0  0  0  0  0  0
  141.0110   76.1560  220.8620 N   0  0  0  0  0  0  0  0  0  0  0  0
  142.1870   75.4380  220.4300 C   0  0  0  0  0  0  0  0  0  0  0  0
  143.0720   76.4310  219.7290 C   0  0  0  0  0  0  0  0  0  0  0  0
  142.1370   77.5440  219.3620 C   0  0  0  0  0  0  0  0  0  0  0  0
  141.0930   77.5290  220.4360 C   0  0  2  0  0  0  0  0  0  0  0  0
  141.4610   78.3790  221.6060 C   0  0  0  0  0  0  0  0  0  0  0  0
  141.4550   77.9270  222.9030 C   0  0  0  0  0  0  0  0  0  0  0  0
  141.8140   78.7560  223.9470 C   0  0  0  0  0  0  0  0  0  0  0  0
  142.1860   80.0610  223.7020 C   0  0  0  0  0  0  0  0  0  0  0  0
  142.1780   80.4710  222.3800 C   0  0  0  0  0  0  0  0  0  0  0  0
  141.8260   79.6530  221.3730 N   0  0  0  0  0  0  0  0  0  0  0  0
  140.2510   71.6470  223.8100 C   0  0  0  0  0  0  0  0  0  0  0  0
  139.6700   70.4180  223.5700 C   0  0  0  0  0  0  0  0  0  0  0  0
  139.5540   69.4670  224.5620 C   0  0  0  0  0  0  0  0  0  0  0  0
  140.0290   69.7540  225.8210 C   0  0  0  0  0  0  0  0  0  0  0  0
  139.9180   68.8040  226.8300 C   0  0  0  0  0  0  0  0  0  0  0  0
  140.4080   69.1330  228.0790 C   0  0  0  0  0  0  0  0  0  0  0  0
  140.3090   68.2110  229.0890 F   0  0  0  0  0  0  0  0  0  0  0  0
  140.9880   70.3720  228.2990 C   0  0  0  0  0  0  0  0  0  0  0  0
  141.0870   71.3040  227.2770 C   0  0  0  0  0  0  0  0  0  0  0  0
  140.6030   70.9910  226.0270 C   0  0  0  0  0  0  0  0  0  0  0  0
  140.7030   71.9030  225.0310 N   0  0  0  0  0  0  0  0  0  0  0  0
  138.3320   73.3580  222.9210 H   0  0  0  0  0  0  0  0  0  0  0  0
  140.0442   73.8192  220.5057 H   0  0  0  0  0  0  0  0  0  0  0  0
  138.3642   74.4670  220.8066 H   0  0  0  0  0  0  0  0  0  0  0  0
  142.7104   75.0119  221.2986 H   0  0  0  0  0  0  0  0  0  0  0  0
  141.9177   74.6085  219.7596 H   0  0  0  0  0  0  0  0  0  0  0  0
  143.8659   76.7909  220.4000 H   0  0  0  0  0  0  0  0  0  0  0  0
  143.5867   76.0017  218.8567 H   0  0  0  0  0  0  0  0  0  0  0  0
  142.6668   78.5079  219.3487 H   0  0  0  0  0  0  0  0  0  0  0  0
  141.7056   77.4131  218.3586 H   0  0  0  0  0  0  0  0  0  0  0  0
  140.1446   77.9289  220.0479 H   0  0  0  0  0  0  0  0  0  0  0  0
  141.1596   76.8885  223.1132 H   0  0  0  0  0  0  0  0  0  0  0  0
  141.8032   78.3739  224.9785 H   0  0  0  0  0  0  0  0  0  0  0  0
  142.4746   80.7420  224.5162 H   0  0  0  0  0  0  0  0  0  0  0  0
  142.4706   81.5049  222.1446 H   0  0  0  0  0  0  0  0  0  0  0  0
  139.2902   70.1916  222.5628 H   0  0  0  0  0  0  0  0  0  0  0  0
  139.0885   68.4932  224.3498 H   0  0  0  0  0  0  0  0  0  0  0  0
  139.4558   67.8240  226.6403 H   0  0  0  0  0  0  0  0  0  0  0  0
  141.3753   70.6198  229.2983 H   0  0  0  0  0  0  0  0  0  0  0  0
  141.5483   72.2850  227.4636 H   0  0  0  0  0  0  0  0  0  0  0  0
  1  2  2  0
  2  3  1  0
  3  4  1  0
  4  5  1  0
  5  6  2  0
  5  7  1  0
  7  8  1  0
  8  9  1  0
  9 10  1  0
 10 11  1  0
 11 12  1  0
 12 13  2  0
 13 14  1  0
 14 15  2  0
 15 16  1  0
 16 17  2  0
  2 18  1  0
 18 19  2  0
 19 20  1  0
 20 21  2  0
 21 22  1  0
 22 23  2  0
 23 24  1  0
 23 25  1  0
 25 26  2  0
 26 27  1  0
 27 28  2  0
 11  7  1  0
 17 12  1  0
 28 18  1  0
 27 21  1  0
  3 29  1  0
  4 30  1  0
  4 31  1  0
  8 32  1  0
  8 33  1  0
  9 34  1  0
  9 35  1  0
 10 36  1  0
 10 37  1  0
 11 38  1  6
 13 39  1  0
 14 40  1  0
 15 41  1  0
 16 42  1  0
 19 43  1  0
 20 44  1  0
 22 45  1  0
 25 46  1  0
 26 47  1  0
M  END
>  <smiles>  (9) 
O=C(NCC(=O)N1CCCC1c1ccccn1)c1ccc2cc(F)ccc2n1

>  <score_type>  (9) 
oracle

>  <origin>  (9) 
autodockgpu

>  <m_score__min__energy>  (9) 
-9.0099999999999998

>  <m_primary>  (9) 
energy

>  <rmsd>  (9) 
2.6062738816908415

>  <m_score__min__rmsd>  (9) 
2.6062738816908415

>  <meeko>  (9) 
{"free_energy": -9.01, "intermolecular_energy": -10.51, "internal_energy": -1.16, "cluster_size": 26, "cluster_id": 1, "rank_in_cluster": 1}

>  <energy>  (9) 
-8.83

>  <cluster_rmsd>  (9) 
0.52

>  <cluster>  (9) 
1

$$$$

     RDKit          3D

 47 50  0  0  0  0  0  0  0  0999 V2000
  141.3160   72.7060  221.9630 O   0  0  0  0  0  0  0  0  0  0  0  0
  140.2980   72.5920  222.6960 C   0  0  0  0  0  0  0  0  0  0  0  0
  139.1960   73.4540  222.3610 N   0  0  0  0  0  0  0  0  0  0  0  0
  139.3660   74.3350  221.2520 C   0  0  0  0  0  0  0  0  0  0  0  0
  139.8820   75.6720  221.6370 C   0  0  0  0  0  0  0  0  0  0  0  0
  141.1000   75.7540  221.9860 O   0  0  0  0  0  0  0  0  0  0  0  0
  139.0170   76.7980  221.6060 N   0  0  0  0  0  0  0  0  0  0  0  0
  138.1540   77.1820  220.5130 C   0  0  0  0  0  0  0  0  0  0  0  0
  137.4690   78.4560  220.9240 C   0  0  0  0  0  0  0  0  0  0  0  0
  137.5980   78.4630  222.4180 C   0  0  0  0  0  0  0  0  0  0  0  0
  138.8800   77.7360  222.6890 C   0  0  2  0  0  0  0  0  0  0  0  0
  140.0640   78.6440  222.6970 C   0  0  0  0  0  0  0  0  0  0  0  0
  140.1170   79.8280  222.0040 C   0  0  0  0  0  0  0  0  0  0  0  0
  141.2380   80.6330  222.0550 C   0  0  0  0  0  0  0  0  0  0  0  0
  142.3290   80.2580  222.8090 C   0  0  0  0  0  0  0  0  0  0  0  0
  142.2300   79.0570  223.4910 C   0  0  0  0  0  0  0  0  0  0  0  0
  141.1320   78.2830  223.4320 N   0  0  0  0  0  0  0  0  0  0  0  0
  140.2170   71.6580  223.8130 C   0  0  0  0  0  0  0  0  0  0  0  0
  139.6160   70.4400  223.5650 C   0  0  0  0  0  0  0  0  0  0  0  0
  139.4870   69.4840  224.5510 C   0  0  0  0  0  0  0  0  0  0  0  0
  139.9700   69.7540  225.8100 C   0  0  0  0  0  0  0  0  0  0  0  0
  139.8460   68.7980  226.8130 C   0  0  0  0  0  0  0  0  0  0  0  0
  140.3450   69.1100  228.0630 C   0  0  0  0  0  0  0  0  0  0  0  0
  140.2340   68.1830  229.0660 F   0  0  0  0  0  0  0  0  0  0  0  0
  140.9450   70.3380  228.2910 C   0  0  0  0  0  0  0  0  0  0  0  0
  141.0560   71.2760  227.2750 C   0  0  0  0  0  0  0  0  0  0  0  0
  140.5640   70.9790  226.0240 C   0  0  0  0  0  0  0  0  0  0  0  0
  140.6760   71.8980  225.0340 N   0  0  0  0  0  0  0  0  0  0  0  0
  138.3210   73.4020  222.9380 H   0  0  0  0  0  0  0  0  0  0  0  0
  140.0758   73.8765  220.5477 H   0  0  0  0  0  0  0  0  0  0  0  0
  138.3739   74.4864  220.8017 H   0  0  0  0  0  0  0  0  0  0  0  0
  138.7483   77.3488  219.6025 H   0  0  0  0  0  0  0  0  0  0  0  0
  137.4195   76.3926  220.2953 H   0  0  0  0  0  0  0  0  0  0  0  0
  137.9697   79.3305  220.4829 H   0  0  0  0  0  0  0  0  0  0  0  0
  136.4233   78.5059  220.5862 H   0  0  0  0  0  0  0  0  0  0  0  0
  137.6479   79.4938  222.7988 H   0  0  0  0  0  0  0  0  0  0  0  0
  136.7372   77.9905  222.9137 H   0  0  0  0  0  0  0  0  0  0  0  0
  138.8445   77.2632  223.6816 H   0  0  0  0  0  0  0  0  0  0  0  0
  139.2532   80.1403  221.3988 H   0  0  0  0  0  0  0  0  0  0  0  0
  141.2602   81.5774  221.4915 H   0  0  0  0  0  0  0  0  0  0  0  0
  143.2333   80.8817  222.8662 H   0  0  0  0  0  0  0  0  0  0  0  0
  143.0808   78.7238  224.1035 H   0  0  0  0  0  0  0  0  0  0  0  0
  139.2308   70.2268  222.5569 H   0  0  0  0  0  0  0  0  0  0  0  0
  139.0048   68.5196  224.3334 H   0  0  0  0  0  0  0  0  0  0  0  0
  139.3672   67.8272  226.6176 H   0  0  0  0  0  0  0  0  0  0  0  0
  141.3386   70.5722  229.2911 H   0  0  0  0  0  0  0  0  0  0  0  0
  141.5329   72.2484  227.4672 H   0  0  0  0  0  0  0  0  0  0  0  0
  1  2  2  0
  2  3  1  0
  3  4  1  0
  4  5  1  0
  5  6  2  0
  5  7  1  0
  7  8  1  0
  8  9  1  0
  9 10  1  0
 10 11  1  0
 11 12  1  0
 12 13  2  0
 13 14  1  0
 14 15  2  0
 15 16  1  0
 16 17  2  0
  2 18  1  0
 18 19  2  0
 19 20  1  0
 20 21  2  0
 21 22  1  0
 22 23  2  0
 23 24  1  0
 23 25  1  0
 25 26  2  0
 26 27  1  0
 27 28  2  0
 11  7  1  0
 17 12  1  0
 28 18  1  0
 27 21  1  0
  3 29  1  0
  4 30  1  0
  4 31  1  0
  8 32  1  0
  8 33  1  0
  9 34  1  0
  9 35  1  0
 10 36  1  0
 10 37  1  0
 11 38  1  1
 13 39  1  0
 14 40  1  0
 15 41  1  0
 16 42  1  0
 19 43  1  0
 20 44  1  0
 22 45  1  0
 25 46  1  0
 26 47  1  0
M  END
>  <smiles>  (10) 
O=C(NCC(=O)N1CCCC1c1ccccn1)c1ccc2cc(F)ccc2n1

>  <score_type>  (10) 
oracle

>  <origin>  (10) 
autodockgpu

>  <m_score__min__energy>  (10) 
-9.0099999999999998

>  <m_primary>  (10) 
energy

>  <rmsd>  (10) 
2.6847379728203937

>  <m_score__min__rmsd>  (10) 
2.6847379728203937

>  <meeko>  (10) 
{"free_energy": -8.21, "intermolecular_energy": -9.7, "internal_energy": -1.18, "cluster_size": 26, "cluster_id": 1, "rank_in_cluster": 24}

>  <energy>  (10) 
-8.83

>  <cluster_rmsd>  (10) 
0.14

>  <cluster>  (10) 
1

$$$$

     RDKit          3D

 47 50  0  0  0  0  0  0  0  0999 V2000
  139.6450   75.0380  222.1230 O   0  0  0  0  0  0  0  0  0  0  0  0
  140.8110   75.3160  221.7380 C   0  0  0  0  0  0  0  0  0  0  0  0
  141.1870   76.6990  221.8540 N   0  0  0  0  0  0  0  0  0  0  0  0
  140.2160   77.6000  222.3850 C   0  0  0  0  0  0  0  0  0  0  0  0
  140.8140   78.8030  223.0150 C   0  0  0  0  0  0  0  0  0  0  0  0
  141.4380   78.6450  224.1100 O   0  0  0  0  0  0  0  0  0  0  0  0
  140.6740   80.0710  222.3900 N   0  0  0  0  0  0  0  0  0  0  0  0
  139.4770   80.8790  222.3570 C   0  0  0  0  0  0  0  0  0  0  0  0
  139.8010   82.1060  221.5500 C   0  0  0  0  0  0  0  0  0  0  0  0
  141.2980   82.1700  221.5870 C   0  0  0  0  0  0  0  0  0  0  0  0
  141.7360   80.7410  221.6860 C   0  0  2  0  0  0  0  0  0  0  0  0
  141.9110   80.1000  220.3490 C   0  0  0  0  0  0  0  0  0  0  0  0
  141.9880   80.8050  219.1740 C   0  0  0  0  0  0  0  0  0  0  0  0
  142.1590   80.1590  217.9660 C   0  0  0  0  0  0  0  0  0  0  0  0
  142.2550   78.7850  217.9200 C   0  0  0  0  0  0  0  0  0  0  0  0
  142.1720   78.1160  219.1300 C   0  0  0  0  0  0  0  0  0  0  0  0
  142.0050   78.7590  220.2990 N   0  0  0  0  0  0  0  0  0  0  0  0
  141.7370   74.3220  221.2070 C   0  0  0  0  0  0  0  0  0  0  0  0
  141.2440   73.0440  221.0270 C   0  0  0  0  0  0  0  0  0  0  0  0
  142.0340   72.0280  220.5310 C   0  0  0  0  0  0  0  0  0  0  0  0
  143.3450   72.2970  220.2100 C   0  0  0  0  0  0  0  0  0  0  0  0
  144.1520   71.2820  219.7090 C   0  0  0  0  0  0  0  0  0  0  0  0
  145.4610   71.5950  219.3980 C   0  0  0  0  0  0  0  0  0  0  0  0
  146.2740   70.6090  218.9030 F   0  0  0  0  0  0  0  0  0  0  0  0
  145.9360   72.8840  219.5860 C   0  0  0  0  0  0  0  0  0  0  0  0
  145.1110   73.8800  220.0880 C   0  0  0  0  0  0  0  0  0  0  0  0
  143.8040   73.5830  220.4020 C   0  0  0  0  0  0  0  0  0  0  0  0
  143.0030   74.5600  220.8910 N   0  0  0  0  0  0  0  0  0  0  0  0
  142.1490   76.9890  221.5490 H   0  0  0  0  0  0  0  0  0  0  0  0
  139.5573   77.9255  221.5664 H   0  0  0  0  0  0  0  0  0  0  0  0
  139.6660   77.0605  223.1701 H   0  0  0  0  0  0  0  0  0  0  0  0
  138.6563   80.3204  221.8832 H   0  0  0  0  0  0  0  0  0  0  0  0
  139.1562   81.1496  223.3738 H   0  0  0  0  0  0  0  0  0  0  0  0
  139.4381   82.0031  220.5167 H   0  0  0  0  0  0  0  0  0  0  0  0
  139.3254   83.0151  221.9466 H   0  0  0  0  0  0  0  0  0  0  0  0
  141.6895   82.6333  220.6693 H   0  0  0  0  0  0  0  0  0  0  0  0
  141.6685   82.7784  222.4252 H   0  0  0  0  0  0  0  0  0  0  0  0
  142.7113   80.6777  222.1908 H   0  0  0  0  0  0  0  0  0  0  0  0
  141.9123   81.9022  219.1951 H   0  0  0  0  0  0  0  0  0  0  0  0
  142.2189   80.7435  217.0361 H   0  0  0  0  0  0  0  0  0  0  0  0
  142.3907   78.2468  216.9703 H   0  0  0  0  0  0  0  0  0  0  0  0
  142.2454   77.0185  219.1348 H   0  0  0  0  0  0  0  0  0  0  0  0
  140.1961   72.8316  221.2855 H   0  0  0  0  0  0  0  0  0  0  0  0
  141.6221   71.0173  220.3940 H   0  0  0  0  0  0  0  0  0  0  0  0
  143.7613   70.2638  219.5651 H   0  0  0  0  0  0  0  0  0  0  0  0
  146.9804   73.1199  219.3339 H   0  0  0  0  0  0  0  0  0  0  0  0
  145.4982   74.8992  220.2340 H   0  0  0  0  0  0  0  0  0  0  0  0
  1  2  2  0
  2  3  1  0
  3  4  1  0
  4  5  1  0
  5  6  2  0
  5  7  1  0
  7  8  1  0
  8  9  1  0
  9 10  1  0
 10 11  1  0
 11 12  1  0
 12 13  2  0
 13 14  1  0
 14 15  2  0
 15 16  1  0
 16 17  2  0
  2 18  1  0
 18 19  2  0
 19 20  1  0
 20 21  2  0
 21 22  1  0
 22 23  2  0
 23 24  1  0
 23 25  1  0
 25 26  2  0
 26 27  1  0
 27 28  2  0
 11  7  1  0
 17 12  1  0
 28 18  1  0
 27 21  1  0
  3 29  1  0
  4 30  1  0
  4 31  1  0
  8 32  1  0
  8 33  1  0
  9 34  1  0
  9 35  1  0
 10 36  1  0
 10 37  1  0
 11 38  1  1
 13 39  1  0
 14 40  1  0
 15 41  1  0
 16 42  1  0
 19 43  1  0
 20 44  1  0
 22 45  1  0
 25 46  1  0
 26 47  1  0
M  END
>  <smiles>  (11) 
O=C(NCC(=O)N1CCCC1c1ccccn1)c1ccc2cc(F)ccc2n1

>  <score_type>  (11) 
oracle

>  <origin>  (11) 
autodockgpu

>  <m_score__min__energy>  (11) 
-9.0099999999999998

>  <m_primary>  (11) 
energy

>  <rmsd>  (11) 
6.262226002442804

>  <m_score__min__rmsd>  (11) 
6.262226002442804

>  <meeko>  (11) 
{"free_energy": -6.79, "intermolecular_energy": -8.28, "internal_energy": -2.23, "cluster_size": 1, "cluster_id": 5, "rank_in_cluster": 1}

>  <energy>  (11) 
-8.75

>  <cluster_rmsd>  (11) 
0.68

>  <cluster>  (11) 
1

$$$$

     RDKit          3D

 47 50  0  0  0  0  0  0  0  0999 V2000
  141.0270   73.7340  220.8380 O   0  0  0  0  0  0  0  0  0  0  0  0
  140.4320   74.5740  221.5640 C   0  0  0  0  0  0  0  0  0  0  0  0
  139.3210   74.0600  222.3190 N   0  0  0  0  0  0  0  0  0  0  0  0
  139.0120   72.6750  222.1710 C   0  0  0  0  0  0  0  0  0  0  0  0
  139.8260   71.7950  223.0440 C   0  0  0  0  0  0  0  0  0  0  0  0
  141.0770   72.0070  223.0910 O   0  0  0  0  0  0  0  0  0  0  0  0
  139.1970   70.7610  223.7880 N   0  0  0  0  0  0  0  0  0  0  0  0
  137.7820   70.4740  223.8230 C   0  0  0  0  0  0  0  0  0  0  0  0
  137.5930   69.3260  224.7760 C   0  0  0  0  0  0  0  0  0  0  0  0
  138.9520   68.6980  224.8500 C   0  0  0  0  0  0  0  0  0  0  0  0
  139.9050   69.8330  224.6320 C   0  0  2  0  0  0  0  0  0  0  0  0
  140.2790   70.5220  225.9020 C   0  0  0  0  0  0  0  0  0  0  0  0
  141.1150   71.6100  225.9570 C   0  0  0  0  0  0  0  0  0  0  0  0
  141.4200   72.2130  227.1610 C   0  0  0  0  0  0  0  0  0  0  0  0
  140.8870   71.7280  228.3360 C   0  0  0  0  0  0  0  0  0  0  0  0
  140.0490   70.6300  228.2310 C   0  0  0  0  0  0  0  0  0  0  0  0
  139.7610   70.0530  227.0520 N   0  0  0  0  0  0  0  0  0  0  0  0
  140.8230   75.9760  221.6500 C   0  0  0  0  0  0  0  0  0  0  0  0
  141.4540   76.5170  220.5470 C   0  0  0  0  0  0  0  0  0  0  0  0
  141.8650   77.8330  220.5240 C   0  0  0  0  0  0  0  0  0  0  0  0
  141.6400   78.6240  221.6270 C   0  0  0  0  0  0  0  0  0  0  0  0
  142.0500   79.9520  221.6150 C   0  0  0  0  0  0  0  0  0  0  0  0
  141.8050   80.7110  222.7440 C   0  0  0  0  0  0  0  0  0  0  0  0
  142.2000   82.0230  222.7540 F   0  0  0  0  0  0  0  0  0  0  0  0
  141.1700   80.1480  223.8400 C   0  0  0  0  0  0  0  0  0  0  0  0
  140.7700   78.8200  223.8280 C   0  0  0  0  0  0  0  0  0  0  0  0
  141.0080   78.0520  222.7110 C   0  0  0  0  0  0  0  0  0  0  0  0
  140.6160   76.7560  222.7040 N   0  0  0  0  0  0  0  0  0  0  0  0
  138.7880   74.7150  222.9420 H   0  0  0  0  0  0  0  0  0  0  0  0
  137.9504   72.5260  222.4178 H   0  0  0  0  0  0  0  0  0  0  0  0
  139.2385   72.4004  221.1302 H   0  0  0  0  0  0  0  0  0  0  0  0
  137.2259   71.3548  224.1766 H   0  0  0  0  0  0  0  0  0  0  0  0
  137.4067   70.2198  222.8207 H   0  0  0  0  0  0  0  0  0  0  0  0
  137.2728   69.6858  225.7649 H   0  0  0  0  0  0  0  0  0  0  0  0
  136.8154   68.6216  224.4458 H   0  0  0  0  0  0  0  0  0  0  0  0
  139.1143   68.2386  225.8362 H   0  0  0  0  0  0  0  0  0  0  0  0
  139.0819   67.8959  224.1085 H   0  0  0  0  0  0  0  0  0  0  0  0
  140.8425   69.4608  224.1932 H   0  0  0  0  0  0  0  0  0  0  0  0
  141.5484   72.0073  225.0273 H   0  0  0  0  0  0  0  0  0  0  0  0
  142.0912   73.0842  227.1826 H   0  0  0  0  0  0  0  0  0  0  0  0
  141.1155   72.1895  229.3080 H   0  0  0  0  0  0  0  0  0  0  0  0
  139.6027   70.2150  229.1467 H   0  0  0  0  0  0  0  0  0  0  0  0
  141.6329   75.8831  219.6660 H   0  0  0  0  0  0  0  0  0  0  0  0
  142.3661   78.2449  219.6356 H   0  0  0  0  0  0  0  0  0  0  0  0
  142.5523   80.3843  220.7370 H   0  0  0  0  0  0  0  0  0  0  0  0
  140.9806   80.7632  224.7320 H   0  0  0  0  0  0  0  0  0  0  0  0
  140.2668   78.3843  224.7038 H   0  0  0  0  0  0  0  0  0  0  0  0
  1  2  2  0
  2  3  1  0
  3  4  1  0
  4  5  1  0
  5  6  2  0
  5  7  1  0
  7  8  1  0
  8  9  1  0
  9 10  1  0
 10 11  1  0
 11 12  1  0
 12 13  2  0
 13 14  1  0
 14 15  2  0
 15 16  1  0
 16 17  2  0
  2 18  1  0
 18 19  2  0
 19 20  1  0
 20 21  2  0
 21 22  1  0
 22 23  2  0
 23 24  1  0
 23 25  1  0
 25 26  2  0
 26 27  1  0
 27 28  2  0
 11  7  1  0
 17 12  1  0
 28 18  1  0
 27 21  1  0
  3 29  1  0
  4 30  1  0
  4 31  1  0
  8 32  1  0
  8 33  1  0
  9 34  1  0
  9 35  1  0
 10 36  1  0
 10 37  1  0
 11 38  1  6
 13 39  1  0
 14 40  1  0
 15 41  1  0
 16 42  1  0
 19 43  1  0
 20 44  1  0
 22 45  1  0
 25 46  1  0
 26 47  1  0
M  END
>  <smiles>  (12) 
O=C(NCC(=O)N1CCCC1c1ccccn1)c1ccc2cc(F)ccc2n1

>  <score_type>  (12) 
oracle

>  <origin>  (12) 
autodockgpu

>  <m_score__min__energy>  (12) 
-9.0099999999999998

>  <m_primary>  (12) 
energy

>  <rmsd>  (12) 
9.178422923446798

>  <m_score__min__rmsd>  (12) 
9.178422923446798

>  <meeko>  (12) 
{"free_energy": -8.78, "intermolecular_energy": -10.28, "internal_energy": -1.33, "cluster_size": 14, "cluster_id": 2, "rank_in_cluster": 6}

>  <energy>  (12) 
-8.68

>  <cluster_rmsd>  (12) 
0.6

>  <cluster>  (12) 
1

$$$$

     RDKit          3D

 47 50  0  0  0  0  0  0  0  0999 V2000
  140.8890   73.6000  220.6580 O   0  0  0  0  0  0  0  0  0  0  0  0
  140.3620   74.4240  221.4500 C   0  0  0  0  0  0  0  0  0  0  0  0
  139.3380   73.8890  222.3070 N   0  0  0  0  0  0  0  0  0  0  0  0
  139.0300   72.5030  222.1740 C   0  0  0  0  0  0  0  0  0  0  0  0
  139.8480   71.6320  223.0530 C   0  0  0  0  0  0  0  0  0  0  0  0
  141.1050   71.8150  223.0570 O   0  0  0  0  0  0  0  0  0  0  0  0
  139.2170   70.6390  223.8490 N   0  0  0  0  0  0  0  0  0  0  0  0
  137.8010   70.3610  223.9030 C   0  0  0  0  0  0  0  0  0  0  0  0
  137.6100   69.2620  224.9110 C   0  0  0  0  0  0  0  0  0  0  0  0
  138.9660   68.6330  225.0120 C   0  0  0  0  0  0  0  0  0  0  0  0
  139.9230   69.7510  224.7350 C   0  0  2  0  0  0  0  0  0  0  0  0
  140.3050   70.5000  225.9690 C   0  0  0  0  0  0  0  0  0  0  0  0
  141.1420   71.5880  225.9670 C   0  0  0  0  0  0  0  0  0  0  0  0
  141.4550   72.2480  227.1380 C   0  0  0  0  0  0  0  0  0  0  0  0
  140.9270   71.8220  228.3380 C   0  0  0  0  0  0  0  0  0  0  0  0
  140.0870   70.7210  228.2910 C   0  0  0  0  0  0  0  0  0  0  0  0
  139.7920   70.0880  227.1420 N   0  0  0  0  0  0  0  0  0  0  0  0
  140.7450   75.8300  221.5140 C   0  0  0  0  0  0  0  0  0  0  0  0
  141.5690   76.2980  220.5090 C   0  0  0  0  0  0  0  0  0  0  0  0
  141.9910   77.6110  220.4740 C   0  0  0  0  0  0  0  0  0  0  0  0
  141.5800   78.4720  221.4660 C   0  0  0  0  0  0  0  0  0  0  0  0
  141.9990   79.7970  221.4420 C   0  0  0  0  0  0  0  0  0  0  0  0
  141.5620   80.6280  222.4560 C   0  0  0  0  0  0  0  0  0  0  0  0
  141.9630   81.9390  222.4520 F   0  0  0  0  0  0  0  0  0  0  0  0
  140.7350   80.1380  223.4540 C   0  0  0  0  0  0  0  0  0  0  0  0
  140.3310   78.8110  223.4570 C   0  0  0  0  0  0  0  0  0  0  0  0
  140.7580   77.9720  222.4530 C   0  0  0  0  0  0  0  0  0  0  0  0
  140.3600   76.6770  222.4600 N   0  0  0  0  0  0  0  0  0  0  0  0
  138.8630   74.5310  222.9880 H   0  0  0  0  0  0  0  0  0  0  0  0
  137.9695   72.3555  222.4260 H   0  0  0  0  0  0  0  0  0  0  0  0
  139.2533   72.2184  221.1352 H   0  0  0  0  0  0  0  0  0  0  0  0
  137.2505   71.2607  224.2153 H   0  0  0  0  0  0  0  0  0  0  0  0
  137.4208   70.0602  222.9156 H   0  0  0  0  0  0  0  0  0  0  0  0
  137.2940   69.6710  225.8820 H   0  0  0  0  0  0  0  0  0  0  0  0
  136.8286   68.5456  224.6176 H   0  0  0  0  0  0  0  0  0  0  0  0
  139.1295   68.2225  226.0194 H   0  0  0  0  0  0  0  0  0  0  0  0
  139.0900   67.7946  224.3108 H   0  0  0  0  0  0  0  0  0  0  0  0
  140.8572   69.3533  224.3117 H   0  0  0  0  0  0  0  0  0  0  0  0
  141.5702   71.9395  225.0167 H   0  0  0  0  0  0  0  0  0  0  0  0
  142.1285   73.1174  227.1136 H   0  0  0  0  0  0  0  0  0  0  0  0
  141.1607   72.3304  229.2850 H   0  0  0  0  0  0  0  0  0  0  0  0
  139.6453   70.3512  229.2281 H   0  0  0  0  0  0  0  0  0  0  0  0
  141.8965   75.6074  219.7179 H   0  0  0  0  0  0  0  0  0  0  0  0
  142.6467   77.9648  219.6647 H   0  0  0  0  0  0  0  0  0  0  0  0
  142.6560   80.1714  220.6432 H   0  0  0  0  0  0  0  0  0  0  0  0
  140.3942   80.8106  224.2549 H   0  0  0  0  0  0  0  0  0  0  0  0
  139.6751   78.4325  224.2548 H   0  0  0  0  0  0  0  0  0  0  0  0
  1  2  2  0
  2  3  1  0
  3  4  1  0
  4  5  1  0
  5  6  2  0
  5  7  1  0
  7  8  1  0
  8  9  1  0
  9 10  1  0
 10 11  1  0
 11 12  1  0
 12 13  2  0
 13 14  1  0
 14 15  2  0
 15 16  1  0
 16 17  2  0
  2 18  1  0
 18 19  2  0
 19 20  1  0
 20 21  2  0
 21 22  1  0
 22 23  2  0
 23 24  1  0
 23 25  1  0
 25 26  2  0
 26 27  1  0
 27 28  2  0
 11  7  1  0
 17 12  1  0
 28 18  1  0
 27 21  1  0
  3 29  1  0
  4 30  1  0
  4 31  1  0
  8 32  1  0
  8 33  1  0
  9 34  1  0
  9 35  1  0
 10 36  1  0
 10 37  1  0
 11 38  1  6
 13 39  1  0
 14 40  1  0
 15 41  1  0
 16 42  1  0
 19 43  1  0
 20 44  1  0
 22 45  1  0
 25 46  1  0
 26 47  1  0
M  END
>  <smiles>  (13) 
O=C(NCC(=O)N1CCCC1c1ccccn1)c1ccc2cc(F)ccc2n1

>  <score_type>  (13) 
oracle

>  <origin>  (13) 
autodockgpu

>  <m_score__min__energy>  (13) 
-9.0099999999999998

>  <m_primary>  (13) 
energy

>  <rmsd>  (13) 
9.200045049943862

>  <m_score__min__rmsd>  (13) 
9.200045049943862

>  <meeko>  (13) 
{"free_energy": -8.67, "intermolecular_energy": -10.16, "internal_energy": -1.38, "cluster_size": 14, "cluster_id": 2, "rank_in_cluster": 12}

>  <energy>  (13) 
-8.68

>  <cluster_rmsd>  (13) 
0.56

>  <cluster>  (13) 
1

$$$$

     RDKit          3D

 47 50  0  0  0  0  0  0  0  0999 V2000
  141.0740   71.9650  221.3460 O   0  0  0  0  0  0  0  0  0  0  0  0
  140.4690   72.3670  222.3760 C   0  0  0  0  0  0  0  0  0  0  0  0
  139.9480   73.7060  222.3030 N   0  0  0  0  0  0  0  0  0  0  0  0
  140.1660   74.4290  221.0920 C   0  0  0  0  0  0  0  0  0  0  0  0
  140.1350   75.9010  221.2740 C   0  0  0  0  0  0  0  0  0  0  0  0
  139.3760   76.3670  222.1800 O   0  0  0  0  0  0  0  0  0  0  0  0
  140.9380   76.7320  220.4470 N   0  0  0  0  0  0  0  0  0  0  0  0
  142.0310   76.3010  219.6090 C   0  0  0  0  0  0  0  0  0  0  0  0
  142.5990   77.5340  218.9620 C   0  0  0  0  0  0  0  0  0  0  0  0
  141.4910   78.5370  219.0770 C   0  0  0  0  0  0  0  0  0  0  0  0
  140.7650   78.1560  220.3310 C   0  0  2  0  0  0  0  0  0  0  0  0
  141.3320   78.8150  221.5450 C   0  0  0  0  0  0  0  0  0  0  0  0
  141.8540   80.0840  221.5450 C   0  0  0  0  0  0  0  0  0  0  0  0
  142.3570   80.6470  222.7010 C   0  0  0  0  0  0  0  0  0  0  0  0
  142.3430   79.9370  223.8830 C   0  0  0  0  0  0  0  0  0  0  0  0
  141.8060   78.6610  223.8340 C   0  0  0  0  0  0  0  0  0  0  0  0
  141.3200   78.1260  222.7010 N   0  0  0  0  0  0  0  0  0  0  0  0
  140.2960   71.5510  223.5720 C   0  0  0  0  0  0  0  0  0  0  0  0
  139.6380   70.3480  223.4160 C   0  0  0  0  0  0  0  0  0  0  0  0
  139.4210   69.4990  224.4820 C   0  0  0  0  0  0  0  0  0  0  0  0
  139.8720   69.8650  225.7290 C   0  0  0  0  0  0  0  0  0  0  0  0
  139.6590   69.0190  226.8120 C   0  0  0  0  0  0  0  0  0  0  0  0
  140.1290   69.4240  228.0460 C   0  0  0  0  0  0  0  0  0  0  0  0
  139.9300   68.6050  229.1270 F   0  0  0  0  0  0  0  0  0  0  0  0
  140.7870   70.6360  228.1810 C   0  0  0  0  0  0  0  0  0  0  0  0
  140.9870   71.4640  227.0860 C   0  0  0  0  0  0  0  0  0  0  0  0
  140.5250   71.0730  225.8500 C   0  0  0  0  0  0  0  0  0  0  0  0
  140.7230   71.8850  224.7830 N   0  0  0  0  0  0  0  0  0  0  0  0
  139.4350   74.0940  223.1320 H   0  0  0  0  0  0  0  0  0  0  0  0
  141.1503   74.1476  220.6896 H   0  0  0  0  0  0  0  0  0  0  0  0
  139.3475   74.1682  220.4049 H   0  0  0  0  0  0  0  0  0  0  0  0
  142.8011   75.8044  220.2176 H   0  0  0  0  0  0  0  0  0  0  0  0
  141.6859   75.5824  218.8510 H   0  0  0  0  0  0  0  0  0  0  0  0
  143.4972   77.8787  219.4953 H   0  0  0  0  0  0  0  0  0  0  0  0
  142.9139   77.3635  217.9219 H   0  0  0  0  0  0  0  0  0  0  0  0
  141.8967   79.5563  219.1576 H   0  0  0  0  0  0  0  0  0  0  0  0
  140.8322   78.5336  218.1961 H   0  0  0  0  0  0  0  0  0  0  0  0
  139.7125   78.4701  220.2704 H   0  0  0  0  0  0  0  0  0  0  0  0
  141.8720   80.6619  220.6092 H   0  0  0  0  0  0  0  0  0  0  0  0
  142.7706   81.6661  222.6790 H   0  0  0  0  0  0  0  0  0  0  0  0
  142.7382   80.3622  224.8173 H   0  0  0  0  0  0  0  0  0  0  0  0
  141.7763   78.0633  224.7570 H   0  0  0  0  0  0  0  0  0  0  0  0
  139.2778   70.0589  222.4177 H   0  0  0  0  0  0  0  0  0  0  0  0
  138.8952   68.5438  224.3368 H   0  0  0  0  0  0  0  0  0  0  0  0
  139.1341   68.0600  226.6900 H   0  0  0  0  0  0  0  0  0  0  0  0
  141.1558   70.9458  229.1699 H   0  0  0  0  0  0  0  0  0  0  0  0
  141.5101   72.4244  227.2046 H   0  0  0  0  0  0  0  0  0  0  0  0
  1  2  2  0
  2  3  1  0
  3  4  1  0
  4  5  1  0
  5  6  2  0
  5  7  1  0
  7  8  1  0
  8  9  1  0
  9 10  1  0
 10 11  1  0
 11 12  1  0
 12 13  2  0
 13 14  1  0
 14 15  2  0
 15 16  1  0
 16 17  2  0
  2 18  1  0
 18 19  2  0
 19 20  1  0
 20 21  2  0
 21 22  1  0
 22 23  2  0
 23 24  1  0
 23 25  1  0
 25 26  2  0
 26 27  1  0
 27 28  2  0
 11  7  1  0
 17 12  1  0
 28 18  1  0
 27 21  1  0
  3 29  1  0
  4 30  1  0
  4 31  1  0
  8 32  1  0
  8 33  1  0
  9 34  1  0
  9 35  1  0
 10 36  1  0
 10 37  1  0
 11 38  1  6
 13 39  1  0
 14 40  1  0
 15 41  1  0
 16 42  1  0
 19 43  1  0
 20 44  1  0
 22 45  1  0
 25 46  1  0
 26 47  1  0
M  END
>  <smiles>  (14) 
O=C(NCC(=O)N1CCCC1c1ccccn1)c1ccc2cc(F)ccc2n1

>  <score_type>  (14) 
oracle

>  <origin>  (14) 
autodockgpu

>  <m_score__min__energy>  (14) 
-9.0099999999999998

>  <m_primary>  (14) 
energy

>  <rmsd>  (14) 
2.1534515766931577

>  <m_score__min__rmsd>  (14) 
2.1534515766931577

>  <meeko>  (14) 
{"free_energy": -8.64, "intermolecular_energy": -10.13, "internal_energy": -1.45, "cluster_size": 26, "cluster_id": 1, "rank_in_cluster": 14}

>  <energy>  (14) 
-8.64

>  <cluster_rmsd>  (14) 
0.73

>  <cluster>  (14) 
1

$$$$

     RDKit          3D

 47 50  0  0  0  0  0  0  0  0999 V2000
  141.1130   72.0990  221.4590 O   0  0  0  0  0  0  0  0  0  0  0  0
  140.3520   72.3700  222.4250 C   0  0  0  0  0  0  0  0  0  0  0  0
  139.5720   73.5700  222.2790 N   0  0  0  0  0  0  0  0  0  0  0  0
  139.7370   74.3170  221.0750 C   0  0  0  0  0  0  0  0  0  0  0  0
  140.8280   75.3200  221.1510 C   0  0  0  0  0  0  0  0  0  0  0  0
  141.0640   75.8480  222.2820 O   0  0  0  0  0  0  0  0  0  0  0  0
  141.5630   75.6530  219.9820 N   0  0  0  0  0  0  0  0  0  0  0  0
  141.0490   75.6950  218.6330 C   0  0  0  0  0  0  0  0  0  0  0  0
  142.2020   76.0540  217.7380 C   0  0  0  0  0  0  0  0  0  0  0  0
  143.1940   76.6830  218.6700 C   0  0  0  0  0  0  0  0  0  0  0  0
  142.9590   76.0040  219.9840 C   0  0  2  0  0  0  0  0  0  0  0  0
  143.7710   74.7620  220.1430 C   0  0  0  0  0  0  0  0  0  0  0  0
  143.2690   73.4980  219.9530 C   0  0  0  0  0  0  0  0  0  0  0  0
  144.0690   72.3830  220.1050 C   0  0  0  0  0  0  0  0  0  0  0  0
  145.3960   72.5230  220.4520 C   0  0  0  0  0  0  0  0  0  0  0  0
  145.8580   73.8150  220.6320 C   0  0  0  0  0  0  0  0  0  0  0  0
  145.0670   74.8920  220.4810 N   0  0  0  0  0  0  0  0  0  0  0  0
  140.2510   71.5410  223.6200 C   0  0  0  0  0  0  0  0  0  0  0  0
  139.6340   70.3140  223.4780 C   0  0  0  0  0  0  0  0  0  0  0  0
  139.4850   69.4520  224.5440 C   0  0  0  0  0  0  0  0  0  0  0  0
  139.9640   69.8270  225.7780 C   0  0  0  0  0  0  0  0  0  0  0  0
  139.8200   68.9670  226.8610 C   0  0  0  0  0  0  0  0  0  0  0  0
  140.3150   69.3820  228.0820 C   0  0  0  0  0  0  0  0  0  0  0  0
  140.1840   68.5500  229.1640 F   0  0  0  0  0  0  0  0  0  0  0  0
  140.9310   70.6180  228.2040 C   0  0  0  0  0  0  0  0  0  0  0  0
  141.0620   71.4590  227.1090 C   0  0  0  0  0  0  0  0  0  0  0  0
  140.5740   71.0590  225.8860 C   0  0  0  0  0  0  0  0  0  0  0  0
  140.7050   71.8830  224.8190 N   0  0  0  0  0  0  0  0  0  0  0  0
  138.9200   73.8450  223.0540 H   0  0  0  0  0  0  0  0  0  0  0  0
  139.9632   73.6164  220.2577 H   0  0  0  0  0  0  0  0  0  0  0  0
  138.8003   74.8672  220.9021 H   0  0  0  0  0  0  0  0  0  0  0  0
  140.6436   74.7119  218.3518 H   0  0  0  0  0  0  0  0  0  0  0  0
  140.2368   76.4314  218.5436 H   0  0  0  0  0  0  0  0  0  0  0  0
  142.6245   75.1560  217.2635 H   0  0  0  0  0  0  0  0  0  0  0  0
  141.9097   76.7211  216.9136 H   0  0  0  0  0  0  0  0  0  0  0  0
  144.2218   76.5069  218.3200 H   0  0  0  0  0  0  0  0  0  0  0  0
  143.0716   77.7742  218.7359 H   0  0  0  0  0  0  0  0  0  0  0  0
  143.2467   76.6704  220.8105 H   0  0  0  0  0  0  0  0  0  0  0  0
  142.2122   73.3718  219.6752 H   0  0  0  0  0  0  0  0  0  0  0  0
  143.6462   71.3796  219.9487 H   0  0  0  0  0  0  0  0  0  0  0  0
  146.0546   71.6512  220.5794 H   0  0  0  0  0  0  0  0  0  0  0  0
  146.9117   73.9667  220.9090 H   0  0  0  0  0  0  0  0  0  0  0  0
  139.2519   70.0168  222.4902 H   0  0  0  0  0  0  0  0  0  0  0  0
  138.9904   68.4787  224.4097 H   0  0  0  0  0  0  0  0  0  0  0  0
  139.3286   67.9893  226.7493 H   0  0  0  0  0  0  0  0  0  0  0  0
  141.3210   70.9358  229.1822 H   0  0  0  0  0  0  0  0  0  0  0  0
  141.5520   72.4379  227.2172 H   0  0  0  0  0  0  0  0  0  0  0  0
  1  2  2  0
  2  3  1  0
  3  4  1  0
  4  5  1  0
  5  6  2  0
  5  7  1  0
  7  8  1  0
  8  9  1  0
  9 10  1  0
 10 11  1  0
 11 12  1  0
 12 13  2  0
 13 14  1  0
 14 15  2  0
 15 16  1  0
 16 17  2  0
  2 18  1  0
 18 19  2  0
 19 20  1  0
 20 21  2  0
 21 22  1  0
 22 23  2  0
 23 24  1  0
 23 25  1  0
 25 26  2  0
 26 27  1  0
 27 28  2  0
 11  7  1  0
 17 12  1  0
 28 18  1  0
 27 21  1  0
  3 29  1  0
  4 30  1  0
  4 31  1  0
  8 32  1  0
  8 33  1  0
  9 34  1  0
  9 35  1  0
 10 36  1  0
 10 37  1  0
 11 38  1  1
 13 39  1  0
 14 40  1  0
 15 41  1  0
 16 42  1  0
 19 43  1  0
 20 44  1  0
 22 45  1  0
 25 46  1  0
 26 47  1  0
M  END
>  <smiles>  (15) 
O=C(NCC(=O)N1CCCC1c1ccccn1)c1ccc2cc(F)ccc2n1

>  <score_type>  (15) 
oracle

>  <origin>  (15) 
autodockgpu

>  <m_score__min__energy>  (15) 
-9.0099999999999998

>  <m_primary>  (15) 
energy

>  <rmsd>  (15) 
4.017343291780087

>  <m_score__min__rmsd>  (15) 
4.017343291780087

>  <meeko>  (15) 
{"free_energy": -8.2, "intermolecular_energy": -9.69, "internal_energy": -1.58, "cluster_size": 8, "cluster_id": 3, "rank_in_cluster": 2}

>  <energy>  (15) 
-8.63

>  <cluster_rmsd>  (15) 
0.61

>  <cluster>  (15) 
1

$$$$

     RDKit          3D

 47 50  0  0  0  0  0  0  0  0999 V2000
  141.0180   73.7170  220.8880 O   0  0  0  0  0  0  0  0  0  0  0  0
  140.4150   74.5670  221.5940 C   0  0  0  0  0  0  0  0  0  0  0  0
  139.2950   74.0640  222.3430 N   0  0  0  0  0  0  0  0  0  0  0  0
  138.9870   72.6770  222.2120 C   0  0  0  0  0  0  0  0  0  0  0  0
  139.8290   71.8060  223.0680 C   0  0  0  0  0  0  0  0  0  0  0  0
  141.0770   72.0370  223.0960 O   0  0  0  0  0  0  0  0  0  0  0  0
  139.2280   70.7590  223.8170 N   0  0  0  0  0  0  0  0  0  0  0  0
  137.8210   70.4370  223.8570 C   0  0  0  0  0  0  0  0  0  0  0  0
  137.6630   69.2870  224.8130 C   0  0  0  0  0  0  0  0  0  0  0  0
  139.0380   68.6940  224.8860 C   0  0  0  0  0  0  0  0  0  0  0  0
  139.9610   69.8510  224.6610 C   0  0  2  0  0  0  0  0  0  0  0  0
  140.3220   70.5530  225.9280 C   0  0  0  0  0  0  0  0  0  0  0  0
  141.1570   71.6410  225.9810 C   0  0  0  0  0  0  0  0  0  0  0  0
  141.4500   72.2560  227.1820 C   0  0  0  0  0  0  0  0  0  0  0  0
  140.9040   71.7830  228.3560 C   0  0  0  0  0  0  0  0  0  0  0  0
  140.0680   70.6840  228.2540 C   0  0  0  0  0  0  0  0  0  0  0  0
  139.7920   70.0950  227.0770 N   0  0  0  0  0  0  0  0  0  0  0  0
  140.8050   75.9710  221.6640 C   0  0  0  0  0  0  0  0  0  0  0  0
  141.4470   76.4960  220.5610 C   0  0  0  0  0  0  0  0  0  0  0  0
  141.8590   77.8120  220.5220 C   0  0  0  0  0  0  0  0  0  0  0  0
  141.6220   78.6180  221.6120 C   0  0  0  0  0  0  0  0  0  0  0  0
  142.0320   79.9460  221.5860 C   0  0  0  0  0  0  0  0  0  0  0  0
  141.7740   80.7210  222.7000 C   0  0  0  0  0  0  0  0  0  0  0  0
  142.1700   82.0330  222.6960 F   0  0  0  0  0  0  0  0  0  0  0  0
  141.1280   80.1740  223.7980 C   0  0  0  0  0  0  0  0  0  0  0  0
  140.7290   78.8460  223.8010 C   0  0  0  0  0  0  0  0  0  0  0  0
  140.9790   78.0620  222.6970 C   0  0  0  0  0  0  0  0  0  0  0  0
  140.5860   76.7650  222.7040 N   0  0  0  0  0  0  0  0  0  0  0  0
  138.7540   74.7290  222.9500 H   0  0  0  0  0  0  0  0  0  0  0  0
  137.9333   72.5256  222.4892 H   0  0  0  0  0  0  0  0  0  0  0  0
  139.1849   72.3964  221.1670 H   0  0  0  0  0  0  0  0  0  0  0  0
  137.2443   71.3045  224.2103 H   0  0  0  0  0  0  0  0  0  0  0  0
  137.4494   70.1711  222.8564 H   0  0  0  0  0  0  0  0  0  0  0  0
  137.3355   69.6410  225.8017 H   0  0  0  0  0  0  0  0  0  0  0  0
  136.9030   68.5621  224.4860 H   0  0  0  0  0  0  0  0  0  0  0  0
  139.2144   68.2430  225.8736 H   0  0  0  0  0  0  0  0  0  0  0  0
  139.1862   67.8925  224.1474 H   0  0  0  0  0  0  0  0  0  0  0  0
  140.9056   69.5005  224.2195 H   0  0  0  0  0  0  0  0  0  0  0  0
  141.5998   72.0292  225.0519 H   0  0  0  0  0  0  0  0  0  0  0  0
  142.1218   73.1268  227.2020 H   0  0  0  0  0  0  0  0  0  0  0  0
  141.1216   72.2551  229.3254 H   0  0  0  0  0  0  0  0  0  0  0  0
  139.6129   70.2778  229.1693 H   0  0  0  0  0  0  0  0  0  0  0  0
  141.6349   75.8491  219.6914 H   0  0  0  0  0  0  0  0  0  0  0  0
  142.3693   78.2111  219.6330 H   0  0  0  0  0  0  0  0  0  0  0  0
  142.5446   80.3656  220.7079 H   0  0  0  0  0  0  0  0  0  0  0  0
  140.9293   80.8021  224.6789 H   0  0  0  0  0  0  0  0  0  0  0  0
  140.2172   78.4225  224.6777 H   0  0  0  0  0  0  0  0  0  0  0  0
  1  2  2  0
  2  3  1  0
  3  4  1  0
  4  5  1  0
  5  6  2  0
  5  7  1  0
  7  8  1  0
  8  9  1  0
  9 10  1  0
 10 11  1  0
 11 12  1  0
 12 13  2  0
 13 14  1  0
 14 15  2  0
 15 16  1  0
 16 17  2  0
  2 18  1  0
 18 19  2  0
 19 20  1  0
 20 21  2  0
 21 22  1  0
 22 23  2  0
 23 24  1  0
 23 25  1  0
 25 26  2  0
 26 27  1  0
 27 28  2  0
 11  7  1  0
 17 12  1  0
 28 18  1  0
 27 21  1  0
  3 29  1  0
  4 30  1  0
  4 31  1  0
  8 32  1  0
  8 33  1  0
  9 34  1  0
  9 35  1  0
 10 36  1  0
 10 37  1  0
 11 38  1  6
 13 39  1  0
 14 40  1  0
 15 41  1  0
 16 42  1  0
 19 43  1  0
 20 44  1  0
 22 45  1  0
 25 46  1  0
 26 47  1  0
M  END
>  <smiles>  (16) 
O=C(NCC(=O)N1CCCC1c1ccccn1)c1ccc2cc(F)ccc2n1

>  <score_type>  (16) 
oracle

>  <origin>  (16) 
autodockgpu

>  <m_score__min__energy>  (16) 
-9.0099999999999998

>  <m_primary>  (16) 
energy

>  <rmsd>  (16) 
9.180710794499488

>  <m_score__min__rmsd>  (16) 
9.180710794499488

>  <meeko>  (16) 
{"free_energy": -8.79, "intermolecular_energy": -10.28, "internal_energy": -1.33, "cluster_size": 14, "cluster_id": 2, "rank_in_cluster": 5}

>  <energy>  (16) 
-8.61

>  <cluster_rmsd>  (16) 
0.6

>  <cluster>  (16) 
1

$$$$

     RDKit          3D

 47 50  0  0  0  0  0  0  0  0999 V2000
  141.2970   72.5270  221.7590 O   0  0  0  0  0  0  0  0  0  0  0  0
  140.3430   72.5320  222.5810 C   0  0  0  0  0  0  0  0  0  0  0  0
  139.3180   73.5090  222.3310 N   0  0  0  0  0  0  0  0  0  0  0  0
  139.4830   74.3580  221.1960 C   0  0  0  0  0  0  0  0  0  0  0  0
  139.9520   75.7210  221.5460 C   0  0  0  0  0  0  0  0  0  0  0  0
  139.3740   76.3130  222.5090 O   0  0  0  0  0  0  0  0  0  0  0  0
  141.0130   76.3130  220.8090 N   0  0  0  0  0  0  0  0  0  0  0  0
  142.1910   75.6400  220.3170 C   0  0  0  0  0  0  0  0  0  0  0  0
  143.0390   76.6810  219.6400 C   0  0  0  0  0  0  0  0  0  0  0  0
  142.0730   77.7890  219.3450 C   0  0  0  0  0  0  0  0  0  0  0  0
  141.0560   77.7050  220.4430 C   0  0  2  0  0  0  0  0  0  0  0  0
  141.4370   78.5100  221.6410 C   0  0  0  0  0  0  0  0  0  0  0  0
  141.4340   78.0130  222.9200 C   0  0  0  0  0  0  0  0  0  0  0  0
  141.8040   78.8010  223.9910 C   0  0  0  0  0  0  0  0  0  0  0  0
  142.1850   80.1110  223.7910 C   0  0  0  0  0  0  0  0  0  0  0  0
  142.1730   80.5680  222.4840 C   0  0  0  0  0  0  0  0  0  0  0  0
  141.8100   79.7890  221.4510 N   0  0  0  0  0  0  0  0  0  0  0  0
  140.2610   71.6210  223.7170 C   0  0  0  0  0  0  0  0  0  0  0  0
  139.6780   70.3900  223.4880 C   0  0  0  0  0  0  0  0  0  0  0  0
  139.5490   69.4540  224.4920 C   0  0  0  0  0  0  0  0  0  0  0  0
  140.0130   69.7570  225.7520 C   0  0  0  0  0  0  0  0  0  0  0  0
  139.8890   68.8210  226.7730 C   0  0  0  0  0  0  0  0  0  0  0  0
  140.3690   69.1660  228.0220 C   0  0  0  0  0  0  0  0  0  0  0  0
  140.2570   68.2590  229.0430 F   0  0  0  0  0  0  0  0  0  0  0  0
  140.9500   70.4060  228.2310 C   0  0  0  0  0  0  0  0  0  0  0  0
  141.0620   71.3230  227.1960 C   0  0  0  0  0  0  0  0  0  0  0  0
  140.5890   70.9940  225.9460 C   0  0  0  0  0  0  0  0  0  0  0  0
  140.7010   71.8930  224.9390 N   0  0  0  0  0  0  0  0  0  0  0  0
  138.4980   73.5590  222.9840 H   0  0  0  0  0  0  0  0  0  0  0  0
  140.2192   73.8983  220.5202 H   0  0  0  0  0  0  0  0  0  0  0  0
  138.4958   74.4647  220.7227 H   0  0  0  0  0  0  0  0  0  0  0  0
  142.7442   75.1866  221.1527 H   0  0  0  0  0  0  0  0  0  0  0  0
  141.9211   74.8360  219.6165 H   0  0  0  0  0  0  0  0  0  0  0  0
  143.8418   77.0277  220.3073 H   0  0  0  0  0  0  0  0  0  0  0  0
  143.5409   76.3014  218.7378 H   0  0  0  0  0  0  0  0  0  0  0  0
  142.5828   78.7636  219.3614 H   0  0  0  0  0  0  0  0  0  0  0  0
  141.6194   77.6930  218.3475 H   0  0  0  0  0  0  0  0  0  0  0  0
  140.0903   78.1018  220.0966 H   0  0  0  0  0  0  0  0  0  0  0  0
  141.1319   76.9698  223.0945 H   0  0  0  0  0  0  0  0  0  0  0  0
  141.7949   78.3823  225.0082 H   0  0  0  0  0  0  0  0  0  0  0  0
  142.4834   80.7601  224.6274 H   0  0  0  0  0  0  0  0  0  0  0  0
  142.4718   81.6075  222.2838 H   0  0  0  0  0  0  0  0  0  0  0  0
  139.3077   70.1506  222.4803 H   0  0  0  0  0  0  0  0  0  0  0  0
  139.0819   68.4790  224.2890 H   0  0  0  0  0  0  0  0  0  0  0  0
  139.4250   67.8401  226.5926 H   0  0  0  0  0  0  0  0  0  0  0  0
  141.3275   70.6670  229.2307 H   0  0  0  0  0  0  0  0  0  0  0  0
  141.5250   72.3050  227.3729 H   0  0  0  0  0  0  0  0  0  0  0  0
  1  2  2  0
  2  3  1  0
  3  4  1  0
  4  5  1  0
  5  6  2  0
  5  7  1  0
  7  8  1  0
  8  9  1  0
  9 10  1  0
 10 11  1  0
 11 12  1  0
 12 13  2  0
 13 14  1  0
 14 15  2  0
 15 16  1  0
 16 17  2  0
  2 18  1  0
 18 19  2  0
 19 20  1  0
 20 21  2  0
 21 22  1  0
 22 23  2  0
 23 24  1  0
 23 25  1  0
 25 26  2  0
 26 27  1  0
 27 28  2  0
 11  7  1  0
 17 12  1  0
 28 18  1  0
 27 21  1  0
  3 29  1  0
  4 30  1  0
  4 31  1  0
  8 32  1  0
  8 33  1  0
  9 34  1  0
  9 35  1  0
 10 36  1  0
 10 37  1  0
 11 38  1  6
 13 39  1  0
 14 40  1  0
 15 41  1  0
 16 42  1  0
 19 43  1  0
 20 44  1  0
 22 45  1  0
 25 46  1  0
 26 47  1  0
M  END
>  <smiles>  (17) 
O=C(NCC(=O)N1CCCC1c1ccccn1)c1ccc2cc(F)ccc2n1

>  <score_type>  (17) 
oracle

>  <origin>  (17) 
autodockgpu

>  <m_score__min__energy>  (17) 
-9.0099999999999998

>  <m_primary>  (17) 
energy

>  <rmsd>  (17) 
2.6037251660109333

>  <m_score__min__rmsd>  (17) 
2.6037251660109333

>  <meeko>  (17) 
{"free_energy": -8.99, "intermolecular_energy": -10.48, "internal_energy": -1.15, "cluster_size": 26, "cluster_id": 1, "rank_in_cluster": 4}

>  <energy>  (17) 
-8.6

>  <cluster_rmsd>  (17) 
0.53

>  <cluster>  (17) 
1

$$$$

     RDKit          3D

 47 50  0  0  0  0  0  0  0  0999 V2000
  141.1430   71.9810  221.3570 O   0  0  0  0  0  0  0  0  0  0  0  0
  140.5310   72.3870  222.3800 C   0  0  0  0  0  0  0  0  0  0  0  0
  140.0320   73.7340  222.3070 N   0  0  0  0  0  0  0  0  0  0  0  0
  140.2770   74.4600  221.1040 C   0  0  0  0  0  0  0  0  0  0  0  0
  140.0830   75.9240  221.2510 C   0  0  0  0  0  0  0  0  0  0  0  0
  139.2830   76.3230  222.1530 O   0  0  0  0  0  0  0  0  0  0  0  0
  140.7820   76.8180  220.3970 N   0  0  0  0  0  0  0  0  0  0  0  0
  141.8010   76.4620  219.4390 C   0  0  0  0  0  0  0  0  0  0  0  0
  142.2730   77.7430  218.8070 C   0  0  0  0  0  0  0  0  0  0  0  0
  141.1560   78.7050  219.0780 C   0  0  0  0  0  0  0  0  0  0  0  0
  140.5630   78.2410  220.3720 C   0  0  2  0  0  0  0  0  0  0  0  0
  141.2250   78.8550  221.5610 C   0  0  0  0  0  0  0  0  0  0  0  0
  141.8980   80.0510  221.5200 C   0  0  0  0  0  0  0  0  0  0  0  0
  142.4850   80.5760  222.6540 C   0  0  0  0  0  0  0  0  0  0  0  0
  142.4050   79.9020  223.8540 C   0  0  0  0  0  0  0  0  0  0  0  0
  141.7170   78.7010  223.8460 C   0  0  0  0  0  0  0  0  0  0  0  0
  141.1500   78.2010  222.7340 N   0  0  0  0  0  0  0  0  0  0  0  0
  140.3300   71.5670  223.5690 C   0  0  0  0  0  0  0  0  0  0  0  0
  139.6420   70.3820  223.4000 C   0  0  0  0  0  0  0  0  0  0  0  0
  139.3970   69.5320  224.4590 C   0  0  0  0  0  0  0  0  0  0  0  0
  139.8480   69.8780  225.7120 C   0  0  0  0  0  0  0  0  0  0  0  0
  139.6070   69.0300  226.7870 C   0  0  0  0  0  0  0  0  0  0  0  0
  140.0780   69.4140  228.0270 C   0  0  0  0  0  0  0  0  0  0  0  0
  139.8520   68.5940  229.1020 F   0  0  0  0  0  0  0  0  0  0  0  0
  140.7660   70.6090  228.1750 C   0  0  0  0  0  0  0  0  0  0  0  0
  140.9940   71.4380  227.0870 C   0  0  0  0  0  0  0  0  0  0  0  0
  140.5300   71.0680  225.8450 C   0  0  0  0  0  0  0  0  0  0  0  0
  140.7560   71.8820  224.7860 N   0  0  0  0  0  0  0  0  0  0  0  0
  139.5140   74.1250  223.1320 H   0  0  0  0  0  0  0  0  0  0  0  0
  141.3150   74.2753  220.7902 H   0  0  0  0  0  0  0  0  0  0  0  0
  139.5491   74.1086  220.3579 H   0  0  0  0  0  0  0  0  0  0  0  0
  142.6379   75.9595  219.9460 H   0  0  0  0  0  0  0  0  0  0  0  0
  141.4042   75.7714  218.6803 H   0  0  0  0  0  0  0  0  0  0  0  0
  143.2089   78.0878  219.2709 H   0  0  0  0  0  0  0  0  0  0  0  0
  142.4913   77.6342  217.7344 H   0  0  0  0  0  0  0  0  0  0  0  0
  141.5416   79.7308  219.1733 H   0  0  0  0  0  0  0  0  0  0  0  0
  140.4165   78.7253  218.2639 H   0  0  0  0  0  0  0  0  0  0  0  0
  139.5021   78.5267  220.4261 H   0  0  0  0  0  0  0  0  0  0  0  0
  141.9706   80.5993  220.5692 H   0  0  0  0  0  0  0  0  0  0  0  0
  143.0189   81.5362  222.5998 H   0  0  0  0  0  0  0  0  0  0  0  0
  142.8646   80.2986  224.7713 H   0  0  0  0  0  0  0  0  0  0  0  0
  141.6308   78.1342  224.7848 H   0  0  0  0  0  0  0  0  0  0  0  0
  139.2806   70.1091  222.3975 H   0  0  0  0  0  0  0  0  0  0  0  0
  138.8489   68.5910  224.3037 H   0  0  0  0  0  0  0  0  0  0  0  0
  139.0596   68.0851  226.6543 H   0  0  0  0  0  0  0  0  0  0  0  0
  141.1357   70.9031  229.1684 H   0  0  0  0  0  0  0  0  0  0  0  0
  141.5412   72.3836  227.2154 H   0  0  0  0  0  0  0  0  0  0  0  0
  1  2  2  0
  2  3  1  0
  3  4  1  0
  4  5  1  0
  5  6  2  0
  5  7  1  0
  7  8  1  0
  8  9  1  0
  9 10  1  0
 10 11  1  0
 11 12  1  0
 12 13  2  0
 13 14  1  0
 14 15  2  0
 15 16  1  0
 16 17  2  0
  2 18  1  0
 18 19  2  0
 19 20  1  0
 20 21  2  0
 21 22  1  0
 22 23  2  0
 23 24  1  0
 23 25  1  0
 25 26  2  0
 26 27  1  0
 27 28  2  0
 11  7  1  0
 17 12  1  0
 28 18  1  0
 27 21  1  0
  3 29  1  0
  4 30  1  0
  4 31  1  0
  8 32  1  0
  8 33  1  0
  9 34  1  0
  9 35  1  0
 10 36  1  0
 10 37  1  0
 11 38  1  6
 13 39  1  0
 14 40  1  0
 15 41  1  0
 16 42  1  0
 19 43  1  0
 20 44  1  0
 22 45  1  0
 25 46  1  0
 26 47  1  0
M  END
>  <smiles>  (18) 
O=C(NCC(=O)N1CCCC1c1ccccn1)c1ccc2cc(F)ccc2n1

>  <score_type>  (18) 
oracle

>  <origin>  (18) 
autodockgpu

>  <m_score__min__energy>  (18) 
-9.0099999999999998

>  <m_primary>  (18) 
energy

>  <rmsd>  (18) 
2.154700725268314

>  <m_score__min__rmsd>  (18) 
2.154700725268314

>  <meeko>  (18) 
{"free_energy": -8.43, "intermolecular_energy": -9.92, "internal_energy": -1.5, "cluster_size": 26, "cluster_id": 1, "rank_in_cluster": 20}

>  <energy>  (18) 
-8.56

>  <cluster_rmsd>  (18) 
0.58

>  <cluster>  (18) 
1

$$$$

     RDKit          3D

 47 50  0  0  0  0  0  0  0  0999 V2000
  141.3230   72.7550  221.9780 O   0  0  0  0  0  0  0  0  0  0  0  0
  140.2940   72.5900  222.6860 C   0  0  0  0  0  0  0  0  0  0  0  0
  139.1650   73.4090  222.3340 N   0  0  0  0  0  0  0  0  0  0  0  0
  139.3230   74.3080  221.2380 C   0  0  0  0  0  0  0  0  0  0  0  0
  139.9480   75.5980  221.6210 C   0  0  0  0  0  0  0  0  0  0  0  0
  139.4850   76.1960  222.6420 O   0  0  0  0  0  0  0  0  0  0  0  0
  141.0250   76.1170  220.8530 N   0  0  0  0  0  0  0  0  0  0  0  0
  142.2000   75.3920  220.4300 C   0  0  0  0  0  0  0  0  0  0  0  0
  143.0680   76.3650  219.6830 C   0  0  0  0  0  0  0  0  0  0  0  0
  142.1210   77.4590  219.2910 C   0  0  0  0  0  0  0  0  0  0  0  0
  141.0910   77.4750  220.3790 C   0  0  2  0  0  0  0  0  0  0  0  0
  141.4690   78.3670  221.5140 C   0  0  0  0  0  0  0  0  0  0  0  0
  141.8330   79.6810  221.3570 C   0  0  0  0  0  0  0  0  0  0  0  0
  142.1650   80.4630  222.4460 C   0  0  0  0  0  0  0  0  0  0  0  0
  142.1370   79.9310  223.7180 C   0  0  0  0  0  0  0  0  0  0  0  0
  141.7630   78.6030  223.8270 C   0  0  0  0  0  0  0  0  0  0  0  0
  141.4430   77.8530  222.7580 N   0  0  0  0  0  0  0  0  0  0  0  0
  140.2270   71.6410  223.7910 C   0  0  0  0  0  0  0  0  0  0  0  0
  139.6440   70.4180  223.5280 C   0  0  0  0  0  0  0  0  0  0  0  0
  139.5300   69.4480  224.5030 C   0  0  0  0  0  0  0  0  0  0  0  0
  140.0080   69.7100  225.7660 C   0  0  0  0  0  0  0  0  0  0  0  0
  139.8980   68.7410  226.7570 C   0  0  0  0  0  0  0  0  0  0  0  0
  140.3920   69.0450  228.0110 C   0  0  0  0  0  0  0  0  0  0  0  0
  140.2950   68.1040  229.0030 F   0  0  0  0  0  0  0  0  0  0  0  0
  140.9740   70.2790  228.2540 C   0  0  0  0  0  0  0  0  0  0  0  0
  141.0710   71.2300  227.2490 C   0  0  0  0  0  0  0  0  0  0  0  0
  140.5840   70.9420  225.9940 C   0  0  0  0  0  0  0  0  0  0  0  0
  140.6820   71.8740  225.0160 N   0  0  0  0  0  0  0  0  0  0  0  0
  138.2800   73.3140  222.8900 H   0  0  0  0  0  0  0  0  0  0  0  0
  139.9563   73.8252  220.4792 H   0  0  0  0  0  0  0  0  0  0  0  0
  138.3168   74.5349  220.8557 H   0  0  0  0  0  0  0  0  0  0  0  0
  142.7382   74.9999  221.3056 H   0  0  0  0  0  0  0  0  0  0  0  0
  141.9274   74.5379  219.7927 H   0  0  0  0  0  0  0  0  0  0  0  0
  143.8688   76.7527  220.3298 H   0  0  0  0  0  0  0  0  0  0  0  0
  143.5730   75.9088  218.8188 H   0  0  0  0  0  0  0  0  0  0  0  0
  142.6444   78.4250  219.2375 H   0  0  0  0  0  0  0  0  0  0  0  0
  141.6771   77.2909  218.2987 H   0  0  0  0  0  0  0  0  0  0  0  0
  140.1348   77.8554  219.9904 H   0  0  0  0  0  0  0  0  0  0  0  0
  141.8607   80.1182  220.3480 H   0  0  0  0  0  0  0  0  0  0  0  0
  142.4529   81.5143  222.2981 H   0  0  0  0  0  0  0  0  0  0  0  0
  142.3987   80.5319  224.6014 H   0  0  0  0  0  0  0  0  0  0  0  0
  141.7262   78.1438  224.8259 H   0  0  0  0  0  0  0  0  0  0  0  0
  139.2612   70.2116  222.5176 H   0  0  0  0  0  0  0  0  0  0  0  0
  139.0634   68.4787  224.2734 H   0  0  0  0  0  0  0  0  0  0  0  0
  139.4335   67.7656  226.5497 H   0  0  0  0  0  0  0  0  0  0  0  0
  141.3641   70.5072  229.2569 H   0  0  0  0  0  0  0  0  0  0  0  0
  141.5335   72.2069  227.4532 H   0  0  0  0  0  0  0  0  0  0  0  0
  1  2  2  0
  2  3  1  0
  3  4  1  0
  4  5  1  0
  5  6  2  0
  5  7  1  0
  7  8  1  0
  8  9  1  0
  9 10  1  0
 10 11  1  0
 11 12  1  0
 12 13  2  0
 13 14  1  0
 14 15  2  0
 15 16  1  0
 16 17  2  0
  2 18  1  0
 18 19  2  0
 19 20  1  0
 20 21  2  0
 21 22  1  0
 22 23  2  0
 23 24  1  0
 23 25  1  0
 25 26  2  0
 26 27  1  0
 27 28  2  0
 11  7  1  0
 17 12  1  0
 28 18  1  0
 27 21  1  0
  3 29  1  0
  4 30  1  0
  4 31  1  0
  8 32  1  0
  8 33  1  0
  9 34  1  0
  9 35  1  0
 10 36  1  0
 10 37  1  0
 11 38  1  6
 13 39  1  0
 14 40  1  0
 15 41  1  0
 16 42  1  0
 19 43  1  0
 20 44  1  0
 22 45  1  0
 25 46  1  0
 26 47  1  0
M  END
>  <smiles>  (19) 
O=C(NCC(=O)N1CCCC1c1ccccn1)c1ccc2cc(F)ccc2n1

>  <score_type>  (19) 
oracle

>  <origin>  (19) 
autodockgpu

>  <m_score__min__energy>  (19) 
-9.0099999999999998

>  <m_primary>  (19) 
energy

>  <rmsd>  (19) 
2.1230404518160393

>  <m_score__min__rmsd>  (19) 
2.1230404518160393

>  <meeko>  (19) 
{"free_energy": -9.01, "intermolecular_energy": -10.5, "internal_energy": -1.24, "cluster_size": 26, "cluster_id": 1, "rank_in_cluster": 2}

>  <energy>  (19) 
-8.45

>  <cluster_rmsd>  (19) 
0.7

>  <cluster>  (19) 
1

$$$$

     RDKit          3D

 47 50  0  0  0  0  0  0  0  0999 V2000
  141.2850   72.1440  221.6360 O   0  0  0  0  0  0  0  0  0  0  0  0
  140.4420   72.3710  222.5440 C   0  0  0  0  0  0  0  0  0  0  0  0
  139.6210   73.5350  222.3460 N   0  0  0  0  0  0  0  0  0  0  0  0
  139.8410   74.3000  221.1620 C   0  0  0  0  0  0  0  0  0  0  0  0
  139.9220   75.7600  221.4120 C   0  0  0  0  0  0  0  0  0  0  0  0
  139.2120   76.2370  222.3510 O   0  0  0  0  0  0  0  0  0  0  0  0
  140.7750   76.5670  220.6110 N   0  0  0  0  0  0  0  0  0  0  0  0
  141.9430   76.1210  219.8900 C   0  0  0  0  0  0  0  0  0  0  0  0
  142.5370   77.3330  219.2280 C   0  0  0  0  0  0  0  0  0  0  0  0
  141.4030   78.3130  219.1970 C   0  0  0  0  0  0  0  0  0  0  0  0
  140.5830   77.9790  220.4050 C   0  0  2  0  0  0  0  0  0  0  0  0
  141.0310   78.7120  221.6260 C   0  0  0  0  0  0  0  0  0  0  0  0
  140.3120   78.7510  222.7940 C   0  0  0  0  0  0  0  0  0  0  0  0
  140.7800   79.4390  223.8960 C   0  0  0  0  0  0  0  0  0  0  0  0
  141.9870   80.1030  223.8390 C   0  0  0  0  0  0  0  0  0  0  0  0
  142.6770   80.0350  222.6410 C   0  0  0  0  0  0  0  0  0  0  0  0
  142.2090   79.3610  221.5760 N   0  0  0  0  0  0  0  0  0  0  0  0
  140.2900   71.5280  223.7240 C   0  0  0  0  0  0  0  0  0  0  0  0
  139.6500   70.3180  223.5470 C   0  0  0  0  0  0  0  0  0  0  0  0
  139.4530   69.4450  224.5970 C   0  0  0  0  0  0  0  0  0  0  0  0
  139.9060   69.7920  225.8490 C   0  0  0  0  0  0  0  0  0  0  0  0
  139.7140   68.9210  226.9150 C   0  0  0  0  0  0  0  0  0  0  0  0
  140.1850   69.3080  228.1550 C   0  0  0  0  0  0  0  0  0  0  0  0
  140.0060   68.4640  229.2200 F   0  0  0  0  0  0  0  0  0  0  0  0
  140.8250   70.5270  228.3100 C   0  0  0  0  0  0  0  0  0  0  0  0
  141.0040   71.3800  227.2310 C   0  0  0  0  0  0  0  0  0  0  0  0
  140.5400   71.0080  225.9900 C   0  0  0  0  0  0  0  0  0  0  0  0
  140.7190   71.8440  224.9390 N   0  0  0  0  0  0  0  0  0  0  0  0
  138.9000   73.7740  223.0700 H   0  0  0  0  0  0  0  0  0  0  0  0
  140.7860   73.9713  220.7048 H   0  0  0  0  0  0  0  0  0  0  0  0
  138.9787   74.1306  220.5003 H   0  0  0  0  0  0  0  0  0  0  0  0
  142.6696   75.6756  220.5855 H   0  0  0  0  0  0  0  0  0  0  0  0
  141.6777   75.3561  219.1454 H   0  0  0  0  0  0  0  0  0  0  0  0
  143.3799   77.7269  219.8148 H   0  0  0  0  0  0  0  0  0  0  0  0
  142.9413   77.1173  218.2280 H   0  0  0  0  0  0  0  0  0  0  0  0
  141.7796   79.3448  219.2563 H   0  0  0  0  0  0  0  0  0  0  0  0
  140.8206   78.2482  218.2661 H   0  0  0  0  0  0  0  0  0  0  0  0
  139.5336   78.2643  220.2398 H   0  0  0  0  0  0  0  0  0  0  0  0
  139.3473   78.2258  222.8535 H   0  0  0  0  0  0  0  0  0  0  0  0
  140.1877   79.4574  224.8227 H   0  0  0  0  0  0  0  0  0  0  0  0
  142.3818   80.6589  224.7022 H   0  0  0  0  0  0  0  0  0  0  0  0
  143.6444   80.5518  222.5572 H   0  0  0  0  0  0  0  0  0  0  0  0
  139.2885   70.0432  222.5451 H   0  0  0  0  0  0  0  0  0  0  0  0
  138.9409   68.4849  224.4355 H   0  0  0  0  0  0  0  0  0  0  0  0
  139.2043   67.9562  226.7762 H   0  0  0  0  0  0  0  0  0  0  0  0
  141.1963   70.8224  229.3024 H   0  0  0  0  0  0  0  0  0  0  0  0
  141.5127   72.3459  227.3662 H   0  0  0  0  0  0  0  0  0  0  0  0
  1  2  2  0
  2  3  1  0
  3  4  1  0
  4  5  1  0
  5  6  2  0
  5  7  1  0
  7  8  1  0
  8  9  1  0
  9 10  1  0
 10 11  1  0
 11 12  1  0
 12 13  2  0
 13 14  1  0
 14 15  2  0
 15 16  1  0
 16 17  2  0
  2 18  1  0
 18 19  2  0
 19 20  1  0
 20 21  2  0
 21 22  1  0
 22 23  2  0
 23 24  1  0
 23 25  1  0
 25 26  2  0
 26 27  1  0
 27 28  2  0
 11  7  1  0
 17 12  1  0
 28 18  1  0
 27 21  1  0
  3 29  1  0
  4 30  1  0
  4 31  1  0
  8 32  1  0
  8 33  1  0
  9 34  1  0
  9 35  1  0
 10 36  1  0
 10 37  1  0
 11 38  1  6
 13 39  1  0
 14 40  1  0
 15 41  1  0
 16 42  1  0
 19 43  1  0
 20 44  1  0
 22 45  1  0
 25 46  1  0
 26 47  1  0
M  END
>  <smiles>  (20) 
O=C(NCC(=O)N1CCCC1c1ccccn1)c1ccc2cc(F)ccc2n1

>  <score_type>  (20) 
oracle

>  <origin>  (20) 
autodockgpu

>  <m_score__min__energy>  (20) 
-9.0099999999999998

>  <m_primary>  (20) 
energy

>  <rmsd>  (20) 
2.4458297949205305

>  <m_score__min__rmsd>  (20) 
2.4458297949205305

>  <meeko>  (20) 
{"free_energy": -8.56, "intermolecular_energy": -10.05, "internal_energy": -1.34, "cluster_size": 26, "cluster_id": 1, "rank_in_cluster": 18}

>  <energy>  (20) 
-8.43

>  <cluster_rmsd>  (20) 
0.79

>  <cluster>  (20) 
1

$$$$

     RDKit          3D

 47 50  0  0  0  0  0  0  0  0999 V2000
  141.1640   71.9850  221.5240 O   0  0  0  0  0  0  0  0  0  0  0  0
  140.3790   72.2630  222.4690 C   0  0  0  0  0  0  0  0  0  0  0  0
  139.5970   73.4570  222.2910 N   0  0  0  0  0  0  0  0  0  0  0  0
  139.7870   74.1920  221.0830 C   0  0  0  0  0  0  0  0  0  0  0  0
  140.7970   75.2720  221.2040 C   0  0  0  0  0  0  0  0  0  0  0  0
  140.9480   75.8110  222.3440 O   0  0  0  0  0  0  0  0  0  0  0  0
  141.5510   75.6640  220.0660 N   0  0  0  0  0  0  0  0  0  0  0  0
  141.0430   75.8540  218.7280 C   0  0  0  0  0  0  0  0  0  0  0  0
  142.2160   76.2240  217.8630 C   0  0  0  0  0  0  0  0  0  0  0  0
  143.2400   76.7110  218.8440 C   0  0  0  0  0  0  0  0  0  0  0  0
  142.9660   75.9330  220.0940 C   0  0  2  0  0  0  0  0  0  0  0  0
  143.7050   74.6370  220.1390 C   0  0  0  0  0  0  0  0  0  0  0  0
  145.0240   74.5290  220.5060 C   0  0  0  0  0  0  0  0  0  0  0  0
  145.6550   73.3020  220.5380 C   0  0  0  0  0  0  0  0  0  0  0  0
  144.9660   72.1570  220.2000 C   0  0  0  0  0  0  0  0  0  0  0  0
  143.6390   72.3150  219.8380 C   0  0  0  0  0  0  0  0  0  0  0  0
  143.0370   73.5170  219.8110 N   0  0  0  0  0  0  0  0  0  0  0  0
  140.2530   71.4470  223.6710 C   0  0  0  0  0  0  0  0  0  0  0  0
  139.6040   70.2360  223.5370 C   0  0  0  0  0  0  0  0  0  0  0  0
  139.4310   69.3870  224.6110 C   0  0  0  0  0  0  0  0  0  0  0  0
  139.9160   69.7600  225.8430 C   0  0  0  0  0  0  0  0  0  0  0  0
  139.7470   68.9140  226.9330 C   0  0  0  0  0  0  0  0  0  0  0  0
  140.2500   69.3270  228.1520 C   0  0  0  0  0  0  0  0  0  0  0  0
  140.0950   68.5080  229.2400 F   0  0  0  0  0  0  0  0  0  0  0  0
  140.8980   70.5470  228.2640 C   0  0  0  0  0  0  0  0  0  0  0  0
  141.0540   71.3750  227.1620 C   0  0  0  0  0  0  0  0  0  0  0  0
  140.5580   70.9770  225.9410 C   0  0  0  0  0  0  0  0  0  0  0  0
  140.7130   71.7880  224.8680 N   0  0  0  0  0  0  0  0  0  0  0  0
  138.9260   73.7380  223.0470 H   0  0  0  0  0  0  0  0  0  0  0  0
  140.1146   73.4944  220.2981 H   0  0  0  0  0  0  0  0  0  0  0  0
  138.8270   74.6705  220.8392 H   0  0  0  0  0  0  0  0  0  0  0  0
  140.5823   74.9242  218.3629 H   0  0  0  0  0  0  0  0  0  0  0  0
  140.2749   76.6411  218.7069 H   0  0  0  0  0  0  0  0  0  0  0  0
  142.5874   75.3486  217.3100 H   0  0  0  0  0  0  0  0  0  0  0  0
  141.9638   76.9759  217.1008 H   0  0  0  0  0  0  0  0  0  0  0  0
  144.2569   76.5093  218.4761 H   0  0  0  0  0  0  0  0  0  0  0  0
  143.1782   77.7971  219.0068 H   0  0  0  0  0  0  0  0  0  0  0  0
  143.2912   76.5057  220.9751 H   0  0  0  0  0  0  0  0  0  0  0  0
  145.5862   75.4343  220.7786 H   0  0  0  0  0  0  0  0  0  0  0  0
  146.7123   73.2375  220.8345 H   0  0  0  0  0  0  0  0  0  0  0  0
  145.4463   71.1675  220.2170 H   0  0  0  0  0  0  0  0  0  0  0  0
  143.0556   71.4242  219.5623 H   0  0  0  0  0  0  0  0  0  0  0  0
  139.2157   69.9409  222.5510 H   0  0  0  0  0  0  0  0  0  0  0  0
  138.9124   68.4253  224.4837 H   0  0  0  0  0  0  0  0  0  0  0  0
  139.2304   67.9485  226.8287 H   0  0  0  0  0  0  0  0  0  0  0  0
  141.2941   70.8631  229.2403 H   0  0  0  0  0  0  0  0  0  0  0  0
  141.5697   72.3414  227.2629 H   0  0  0  0  0  0  0  0  0  0  0  0
  1  2  2  0
  2  3  1  0
  3  4  1  0
  4  5  1  0
  5  6  2  0
  5  7  1  0
  7  8  1  0
  8  9  1  0
  9 10  1  0
 10 11  1  0
 11 12  1  0
 12 13  2  0
 13 14  1  0
 14 15  2  0
 15 16  1  0
 16 17  2  0
  2 18  1  0
 18 19  2  0
 19 20  1  0
 20 21  2  0
 21 22  1  0
 22 23  2  0
 23 24  1  0
 23 25  1  0
 25 26  2  0
 26 27  1  0
 27 28  2  0
 11  7  1  0
 17 12  1  0
 28 18  1  0
 27 21  1  0
  3 29  1  0
  4 30  1  0
  4 31  1  0
  8 32  1  0
  8 33  1  0
  9 34  1  0
  9 35  1  0
 10 36  1  0
 10 37  1  0
 11 38  1  1
 13 39  1  0
 14 40  1  0
 15 41  1  0
 16 42  1  0
 19 43  1  0
 20 44  1  0
 22 45  1  0
 25 46  1  0
 26 47  1  0
M  END
>  <smiles>  (21) 
O=C(NCC(=O)N1CCCC1c1ccccn1)c1ccc2cc(F)ccc2n1

>  <score_type>  (21) 
oracle

>  <origin>  (21) 
autodockgpu

>  <m_score__min__energy>  (21) 
-9.0099999999999998

>  <m_primary>  (21) 
energy

>  <rmsd>  (21) 
4.000077552491681

>  <m_score__min__rmsd>  (21) 
4.000077552491681

>  <meeko>  (21) 
{"free_energy": -8.18, "intermolecular_energy": -9.67, "internal_energy": -1.68, "cluster_size": 8, "cluster_id": 3, "rank_in_cluster": 5}

>  <energy>  (21) 
-8.4

>  <cluster_rmsd>  (21) 
0.67

>  <cluster>  (21) 
1

$$$$

     RDKit          3D

 47 50  0  0  0  0  0  0  0  0999 V2000
  141.3380   73.6940  220.8110 O   0  0  0  0  0  0  0  0  0  0  0  0
  140.6570   74.5030  221.4940 C   0  0  0  0  0  0  0  0  0  0  0  0
  139.5540   73.9270  222.2150 N   0  0  0  0  0  0  0  0  0  0  0  0
  139.3470   72.5220  222.0850 C   0  0  0  0  0  0  0  0  0  0  0  0
  139.8760   71.7410  223.2310 C   0  0  0  0  0  0  0  0  0  0  0  0
  141.0840   71.9370  223.5690 O   0  0  0  0  0  0  0  0  0  0  0  0
  139.0330   70.8160  223.9030 N   0  0  0  0  0  0  0  0  0  0  0  0
  137.5910   70.8590  223.9600 C   0  0  0  0  0  0  0  0  0  0  0  0
  137.1520   69.7040  224.8160 C   0  0  0  0  0  0  0  0  0  0  0  0
  138.3300   68.7770  224.7920 C   0  0  0  0  0  0  0  0  0  0  0  0
  139.5170   69.6780  224.6410 C   0  0  2  0  0  0  0  0  0  0  0  0
  140.0560   70.1440  225.9530 C   0  0  0  0  0  0  0  0  0  0  0  0
  140.3020   69.3060  227.0120 C   0  0  0  0  0  0  0  0  0  0  0  0
  140.8100   69.7910  228.2000 C   0  0  0  0  0  0  0  0  0  0  0  0
  141.0780   71.1360  228.3440 C   0  0  0  0  0  0  0  0  0  0  0  0
  140.8140   71.9420  227.2500 C   0  0  0  0  0  0  0  0  0  0  0  0
  140.3200   71.4550  226.0980 N   0  0  0  0  0  0  0  0  0  0  0  0
  140.9470   75.9310  221.5660 C   0  0  0  0  0  0  0  0  0  0  0  0
  141.1200   76.5930  220.3670 C   0  0  0  0  0  0  0  0  0  0  0  0
  141.3980   77.9430  220.3210 C   0  0  0  0  0  0  0  0  0  0  0  0
  141.5040   78.6440  221.5010 C   0  0  0  0  0  0  0  0  0  0  0  0
  141.7840   80.0060  221.4680 C   0  0  0  0  0  0  0  0  0  0  0  0
  141.8820   80.6710  222.6750 C   0  0  0  0  0  0  0  0  0  0  0  0
  142.1570   82.0140  222.6660 F   0  0  0  0  0  0  0  0  0  0  0  0
  141.7040   79.9870  223.8670 C   0  0  0  0  0  0  0  0  0  0  0  0
  141.4260   78.6290  223.8740 C   0  0  0  0  0  0  0  0  0  0  0  0
  141.3260   77.9520  222.6800 C   0  0  0  0  0  0  0  0  0  0  0  0
  141.0540   76.6250  222.6920 N   0  0  0  0  0  0  0  0  0  0  0  0
  138.9520   74.5550  222.8020 H   0  0  0  0  0  0  0  0  0  0  0  0
  138.2661   72.3346  222.0043 H   0  0  0  0  0  0  0  0  0  0  0  0
  139.8932   72.1943  221.1882 H   0  0  0  0  0  0  0  0  0  0  0  0
  137.2584   71.8079  224.4060 H   0  0  0  0  0  0  0  0  0  0  0  0
  137.1554   70.7895  222.9523 H   0  0  0  0  0  0  0  0  0  0  0  0
  136.9349   70.0362  225.8419 H   0  0  0  0  0  0  0  0  0  0  0  0
  136.2286   69.2299  224.4519 H   0  0  0  0  0  0  0  0  0  0  0  0
  138.3933   68.2052  225.7296 H   0  0  0  0  0  0  0  0  0  0  0  0
  138.2621   68.0371  223.9808 H   0  0  0  0  0  0  0  0  0  0  0  0
  140.3378   69.1425  224.1415 H   0  0  0  0  0  0  0  0  0  0  0  0
  140.0909   68.2311  226.9122 H   0  0  0  0  0  0  0  0  0  0  0  0
  141.0019   69.1018  229.0355 H   0  0  0  0  0  0  0  0  0  0  0  0
  141.4813   71.5477  229.2810 H   0  0  0  0  0  0  0  0  0  0  0  0
  141.0157   73.0207  227.3258 H   0  0  0  0  0  0  0  0  0  0  0  0
  141.0340   76.0302  219.4258 H   0  0  0  0  0  0  0  0  0  0  0  0
  141.5331   78.4523  219.3554 H   0  0  0  0  0  0  0  0  0  0  0  0
  141.9226   80.5354  220.5138 H   0  0  0  0  0  0  0  0  0  0  0  0
  141.7844   80.5291  224.8207 H   0  0  0  0  0  0  0  0  0  0  0  0
  141.2864   78.0967  224.8264 H   0  0  0  0  0  0  0  0  0  0  0  0
  1  2  2  0
  2  3  1  0
  3  4  1  0
  4  5  1  0
  5  6  2  0
  5  7  1  0
  7  8  1  0
  8  9  1  0
  9 10  1  0
 10 11  1  0
 11 12  1  0
 12 13  2  0
 13 14  1  0
 14 15  2  0
 15 16  1  0
 16 17  2  0
  2 18  1  0
 18 19  2  0
 19 20  1  0
 20 21  2  0
 21 22  1  0
 22 23  2  0
 23 24  1  0
 23 25  1  0
 25 26  2  0
 26 27  1  0
 27 28  2  0
 11  7  1  0
 17 12  1  0
 28 18  1  0
 27 21  1  0
  3 29  1  0
  4 30  1  0
  4 31  1  0
  8 32  1  0
  8 33  1  0
  9 34  1  0
  9 35  1  0
 10 36  1  0
 10 37  1  0
 11 38  1  6
 13 39  1  0
 14 40  1  0
 15 41  1  0
 16 42  1  0
 19 43  1  0
 20 44  1  0
 22 45  1  0
 25 46  1  0
 26 47  1  0
M  END
>  <smiles>  (22) 
O=C(NCC(=O)N1CCCC1c1ccccn1)c1ccc2cc(F)ccc2n1

>  <score_type>  (22) 
oracle

>  <origin>  (22) 
autodockgpu

>  <m_score__min__energy>  (22) 
-9.0099999999999998

>  <m_primary>  (22) 
energy

>  <rmsd>  (22) 
9.48448196141255

>  <m_score__min__rmsd>  (22) 
9.48448196141255

>  <meeko>  (22) 
{"free_energy": -8.52, "intermolecular_energy": -10.01, "internal_energy": -1.22, "cluster_size": 14, "cluster_id": 2, "rank_in_cluster": 13}

>  <energy>  (22) 
-8.32

>  <cluster_rmsd>  (22) 
0.81

>  <cluster>  (22) 
1

$$$$

     RDKit          3D

 47 50  0  0  0  0  0  0  0  0999 V2000
  138.7780   71.4700  221.8280 O   0  0  0  0  0  0  0  0  0  0  0  0
  139.6240   71.6720  222.7380 C   0  0  0  0  0  0  0  0  0  0  0  0
  140.4830   72.8090  222.5430 N   0  0  0  0  0  0  0  0  0  0  0  0
  140.2920   73.5800  221.3580 C   0  0  0  0  0  0  0  0  0  0  0  0
  140.2940   75.0430  221.6020 C   0  0  0  0  0  0  0  0  0  0  0  0
  139.5590   75.4840  222.5390 O   0  0  0  0  0  0  0  0  0  0  0  0
  141.1000   75.8920  220.7970 N   0  0  0  0  0  0  0  0  0  0  0  0
  142.3600   75.5440  220.1840 C   0  0  0  0  0  0  0  0  0  0  0  0
  142.8540   76.7720  219.4720 C   0  0  0  0  0  0  0  0  0  0  0  0
  141.6180   77.6030  219.2990 C   0  0  0  0  0  0  0  0  0  0  0  0
  140.7600   77.2540  220.4750 C   0  0  2  0  0  0  0  0  0  0  0  0
  141.0340   78.1160  221.6630 C   0  0  0  0  0  0  0  0  0  0  0  0
  140.1670   78.2500  222.7190 C   0  0  0  0  0  0  0  0  0  0  0  0
  140.4770   79.0560  223.7960 C   0  0  0  0  0  0  0  0  0  0  0  0
  141.6710   79.7430  223.8290 C   0  0  0  0  0  0  0  0  0  0  0  0
  142.5140   79.5760  222.7430 C   0  0  0  0  0  0  0  0  0  0  0  0
  142.1990   78.7880  221.7000 N   0  0  0  0  0  0  0  0  0  0  0  0
  139.7450   70.8250  223.9190 C   0  0  0  0  0  0  0  0  0  0  0  0
  139.1900   69.5630  223.8410 C   0  0  0  0  0  0  0  0  0  0  0  0
  139.2480   68.6820  224.9010 C   0  0  0  0  0  0  0  0  0  0  0  0
  139.8740   69.0730  226.0620 C   0  0  0  0  0  0  0  0  0  0  0  0
  139.9390   68.1940  227.1370 C   0  0  0  0  0  0  0  0  0  0  0  0
  140.5780   68.6260  228.2830 C   0  0  0  0  0  0  0  0  0  0  0  0
  140.6540   67.7760  229.3560 F   0  0  0  0  0  0  0  0  0  0  0  0
  141.1280   69.8970  228.3410 C   0  0  0  0  0  0  0  0  0  0  0  0
  141.0500   70.7560  227.2550 C   0  0  0  0  0  0  0  0  0  0  0  0
  140.4170   70.3390  226.1060 C   0  0  0  0  0  0  0  0  0  0  0  0
  140.3450   71.1820  225.0480 N   0  0  0  0  0  0  0  0  0  0  0  0
  141.2080   73.0250  223.2710 H   0  0  0  0  0  0  0  0  0  0  0  0
  141.1023   73.3427  220.6529 H   0  0  0  0  0  0  0  0  0  0  0  0
  139.3021   73.3186  220.9558 H   0  0  0  0  0  0  0  0  0  0  0  0
  143.0830   75.2368  220.9540 H   0  0  0  0  0  0  0  0  0  0  0  0
  142.2380   74.7051  219.4830 H   0  0  0  0  0  0  0  0  0  0  0  0
  143.6021   77.3031  220.0788 H   0  0  0  0  0  0  0  0  0  0  0  0
  143.3500   76.5413  218.5176 H   0  0  0  0  0  0  0  0  0  0  0  0
  141.8667   78.6745  219.3042 H   0  0  0  0  0  0  0  0  0  0  0  0
  141.1135   77.4056  218.3416 H   0  0  0  0  0  0  0  0  0  0  0  0
  139.6985   77.3986  220.2252 H   0  0  0  0  0  0  0  0  0  0  0  0
  139.2106   77.7068  222.7067 H   0  0  0  0  0  0  0  0  0  0  0  0
  139.7678   79.1502  224.6315 H   0  0  0  0  0  0  0  0  0  0  0  0
  141.9410   80.3915  224.6754 H   0  0  0  0  0  0  0  0  0  0  0  0
  143.4769   80.1077  222.7333 H   0  0  0  0  0  0  0  0  0  0  0  0
  138.6898   69.2528  222.9117 H   0  0  0  0  0  0  0  0  0  0  0  0
  138.7999   67.6807  224.8190 H   0  0  0  0  0  0  0  0  0  0  0  0
  139.4966   67.1886  227.0771 H   0  0  0  0  0  0  0  0  0  0  0  0
  141.6329   70.2286  229.2603 H   0  0  0  0  0  0  0  0  0  0  0  0
  141.4904   71.7624  227.3114 H   0  0  0  0  0  0  0  0  0  0  0  0
  1  2  2  0
  2  3  1  0
  3  4  1  0
  4  5  1  0
  5  6  2  0
  5  7  1  0
  7  8  1  0
  8  9  1  0
  9 10  1  0
 10 11  1  0
 11 12  1  0
 12 13  2  0
 13 14  1  0
 14 15  2  0
 15 16  1  0
 16 17  2  0
  2 18  1  0
 18 19  2  0
 19 20  1  0
 20 21  2  0
 21 22  1  0
 22 23  2  0
 23 24  1  0
 23 25  1  0
 25 26  2  0
 26 27  1  0
 27 28  2  0
 11  7  1  0
 17 12  1  0
 28 18  1  0
 27 21  1  0
  3 29  1  0
  4 30  1  0
  4 31  1  0
  8 32  1  0
  8 33  1  0
  9 34  1  0
  9 35  1  0
 10 36  1  0
 10 37  1  0
 11 38  1  6
 13 39  1  0
 14 40  1  0
 15 41  1  0
 16 42  1  0
 19 43  1  0
 20 44  1  0
 22 45  1  0
 25 46  1  0
 26 47  1  0
M  END
>  <smiles>  (23) 
O=C(NCC(=O)N1CCCC1c1ccccn1)c1ccc2cc(F)ccc2n1

>  <score_type>  (23) 
oracle

>  <origin>  (23) 
autodockgpu

>  <m_score__min__energy>  (23) 
-9.0099999999999998

>  <m_primary>  (23) 
energy

>  <rmsd>  (23) 
2.4664281985432024

>  <m_score__min__rmsd>  (23) 
2.4664281985432024

>  <meeko>  (23) 
{"free_energy": -8.08, "intermolecular_energy": -9.58, "internal_energy": -1.31, "cluster_size": 26, "cluster_id": 1, "rank_in_cluster": 26}

>  <energy>  (23) 
-8.29

>  <cluster_rmsd>  (23) 
0.63

>  <cluster>  (23) 
1

$$$$

     RDKit          3D

 47 50  0  0  0  0  0  0  0  0999 V2000
  141.1120   72.4530  221.6830 O   0  0  0  0  0  0  0  0  0  0  0  0
  140.2050   72.4720  222.5570 C   0  0  0  0  0  0  0  0  0  0  0  0
  139.1770   73.4580  222.3580 N   0  0  0  0  0  0  0  0  0  0  0  0
  139.2880   74.3000  221.2120 C   0  0  0  0  0  0  0  0  0  0  0  0
  139.8050   75.6550  221.5260 C   0  0  0  0  0  0  0  0  0  0  0  0
  139.1900   76.3300  222.4080 O   0  0  0  0  0  0  0  0  0  0  0  0
  140.9510   76.1480  220.8460 N   0  0  0  0  0  0  0  0  0  0  0  0
  142.1210   75.3860  220.4800 C   0  0  0  0  0  0  0  0  0  0  0  0
  143.0760   76.3420  219.8210 C   0  0  0  0  0  0  0  0  0  0  0  0
  142.2020   77.4850  219.4000 C   0  0  0  0  0  0  0  0  0  0  0  0
  141.1040   77.5150  220.4190 C   0  0  2  0  0  0  0  0  0  0  0  0
  141.4420   78.3580  221.6030 C   0  0  0  0  0  0  0  0  0  0  0  0
  141.4580   77.8840  222.8920 C   0  0  0  0  0  0  0  0  0  0  0  0
  141.7860   78.7090  223.9490 C   0  0  0  0  0  0  0  0  0  0  0  0
  142.1050   80.0320  223.7260 C   0  0  0  0  0  0  0  0  0  0  0  0
  142.0760   80.4640  222.4110 C   0  0  0  0  0  0  0  0  0  0  0  0
  141.7540   79.6500  221.3910 N   0  0  0  0  0  0  0  0  0  0  0  0
  140.1750   71.5660  223.6990 C   0  0  0  0  0  0  0  0  0  0  0  0
  139.6190   70.3200  223.4930 C   0  0  0  0  0  0  0  0  0  0  0  0
  139.5410   69.3870  224.5070 C   0  0  0  0  0  0  0  0  0  0  0  0
  140.0300   69.7100  225.7510 C   0  0  0  0  0  0  0  0  0  0  0  0
  139.9570   68.7790  226.7810 C   0  0  0  0  0  0  0  0  0  0  0  0
  140.4600   69.1440  228.0150 C   0  0  0  0  0  0  0  0  0  0  0  0
  140.3990   68.2410  229.0440 F   0  0  0  0  0  0  0  0  0  0  0  0
  141.0140   70.4010  228.2010 C   0  0  0  0  0  0  0  0  0  0  0  0
  141.0750   71.3130  227.1580 C   0  0  0  0  0  0  0  0  0  0  0  0
  140.5780   70.9630  225.9230 C   0  0  0  0  0  0  0  0  0  0  0  0
  140.6410   71.8580  224.9070 N   0  0  0  0  0  0  0  0  0  0  0  0
  138.3950   73.5190  223.0550 H   0  0  0  0  0  0  0  0  0  0  0  0
  139.9714   73.8235  220.4938 H   0  0  0  0  0  0  0  0  0  0  0  0
  138.2754   74.4253  220.8009 H   0  0  0  0  0  0  0  0  0  0  0  0
  142.5830   74.9479  221.3770 H   0  0  0  0  0  0  0  0  0  0  0  0
  141.8576   74.5617  219.8009 H   0  0  0  0  0  0  0  0  0  0  0  0
  143.8464   76.6781  220.5306 H   0  0  0  0  0  0  0  0  0  0  0  0
  143.6194   75.8886  218.9789 H   0  0  0  0  0  0  0  0  0  0  0  0
  142.7662   78.4293  219.4088 H   0  0  0  0  0  0  0  0  0  0  0  0
  141.8185   77.3624  218.3763 H   0  0  0  0  0  0  0  0  0  0  0  0
  140.1921   77.9470  219.9810 H   0  0  0  0  0  0  0  0  0  0  0  0
  141.2056   76.8309  223.0850 H   0  0  0  0  0  0  0  0  0  0  0  0
  141.7930   78.3093  224.9738 H   0  0  0  0  0  0  0  0  0  0  0  0
  142.3691   80.7097  224.5512 H   0  0  0  0  0  0  0  0  0  0  0  0
  142.3259   81.5128  222.1927 H   0  0  0  0  0  0  0  0  0  0  0  0
  139.2287   70.0643  222.4969 H   0  0  0  0  0  0  0  0  0  0  0  0
  139.0940   68.3990  224.3227 H   0  0  0  0  0  0  0  0  0  0  0  0
  139.5138   67.7854  226.6190 H   0  0  0  0  0  0  0  0  0  0  0  0
  141.4104   70.6787  229.1888 H   0  0  0  0  0  0  0  0  0  0  0  0
  141.5169   72.3078  227.3163 H   0  0  0  0  0  0  0  0  0  0  0  0
  1  2  2  0
  2  3  1  0
  3  4  1  0
  4  5  1  0
  5  6  2  0
  5  7  1  0
  7  8  1  0
  8  9  1  0
  9 10  1  0
 10 11  1  0
 11 12  1  0
 12 13  2  0
 13 14  1  0
 14 15  2  0
 15 16  1  0
 16 17  2  0
  2 18  1  0
 18 19  2  0
 19 20  1  0
 20 21  2  0
 21 22  1  0
 22 23  2  0
 23 24  1  0
 23 25  1  0
 25 26  2  0
 26 27  1  0
 27 28  2  0
 11  7  1  0
 17 12  1  0
 28 18  1  0
 27 21  1  0
  3 29  1  0
  4 30  1  0
  4 31  1  0
  8 32  1  0
  8 33  1  0
  9 34  1  0
  9 35  1  0
 10 36  1  0
 10 37  1  0
 11 38  1  6
 13 39  1  0
 14 40  1  0
 15 41  1  0
 16 42  1  0
 19 43  1  0
 20 44  1  0
 22 45  1  0
 25 46  1  0
 26 47  1  0
M  END
>  <smiles>  (24) 
O=C(NCC(=O)N1CCCC1c1ccccn1)c1ccc2cc(F)ccc2n1

>  <score_type>  (24) 
oracle

>  <origin>  (24) 
autodockgpu

>  <m_score__min__energy>  (24) 
-9.0099999999999998

>  <m_primary>  (24) 
energy

>  <rmsd>  (24) 
2.5831617470549477

>  <m_score__min__rmsd>  (24) 
2.5831617470549477

>  <meeko>  (24) 
{"free_energy": -8.83, "intermolecular_energy": -10.32, "internal_energy": -1.24, "cluster_size": 26, "cluster_id": 1, "rank_in_cluster": 10}

>  <energy>  (24) 
-8.21

>  <cluster_rmsd>  (24) 
1.5

>  <cluster>  (24) 
1

$$$$

     RDKit          3D

 47 50  0  0  0  0  0  0  0  0999 V2000
  140.8600   73.6460  220.6440 O   0  0  0  0  0  0  0  0  0  0  0  0
  140.3660   74.4780  221.4490 C   0  0  0  0  0  0  0  0  0  0  0  0
  139.3530   73.9590  222.3290 N   0  0  0  0  0  0  0  0  0  0  0  0
  139.0190   72.5780  222.2020 C   0  0  0  0  0  0  0  0  0  0  0  0
  139.8180   71.6950  223.0860 C   0  0  0  0  0  0  0  0  0  0  0  0
  141.0740   71.8800  223.1230 O   0  0  0  0  0  0  0  0  0  0  0  0
  139.1710   70.6890  223.8520 N   0  0  0  0  0  0  0  0  0  0  0  0
  137.7500   70.4350  223.9020 C   0  0  0  0  0  0  0  0  0  0  0  0
  137.5420   69.3080  224.8750 C   0  0  0  0  0  0  0  0  0  0  0  0
  138.8870   68.6510  224.9510 C   0  0  0  0  0  0  0  0  0  0  0  0
  139.8630   69.7600  224.7060 C   0  0  2  0  0  0  0  0  0  0  0  0
  140.2630   70.4610  225.9620 C   0  0  0  0  0  0  0  0  0  0  0  0
  139.9160   70.0250  227.2170 C   0  0  0  0  0  0  0  0  0  0  0  0
  140.3210   70.7100  228.3450 C   0  0  0  0  0  0  0  0  0  0  0  0
  141.0870   71.8500  228.2290 C   0  0  0  0  0  0  0  0  0  0  0  0
  141.4140   72.2500  226.9440 C   0  0  0  0  0  0  0  0  0  0  0  0
  141.0110   71.5740  225.8540 N   0  0  0  0  0  0  0  0  0  0  0  0
  140.7740   75.8770  221.5060 C   0  0  0  0  0  0  0  0  0  0  0  0
  141.5670   76.3370  220.4740 C   0  0  0  0  0  0  0  0  0  0  0  0
  142.0090   77.6430  220.4300 C   0  0  0  0  0  0  0  0  0  0  0  0
  141.6500   78.5050  221.4400 C   0  0  0  0  0  0  0  0  0  0  0  0
  142.0890   79.8230  221.4070 C   0  0  0  0  0  0  0  0  0  0  0  0
  141.7050   80.6550  222.4410 C   0  0  0  0  0  0  0  0  0  0  0  0
  142.1260   81.9590  222.4290 F   0  0  0  0  0  0  0  0  0  0  0  0
  140.9080   80.1730  223.4680 C   0  0  0  0  0  0  0  0  0  0  0  0
  140.4820   78.8530  223.4790 C   0  0  0  0  0  0  0  0  0  0  0  0
  140.8570   78.0120  222.4550 C   0  0  0  0  0  0  0  0  0  0  0  0
  140.4390   76.7240  222.4700 N   0  0  0  0  0  0  0  0  0  0  0  0
  138.9060   74.6070  223.0230 H   0  0  0  0  0  0  0  0  0  0  0  0
  137.9554   72.4521  222.4526 H   0  0  0  0  0  0  0  0  0  0  0  0
  139.2394   72.2847  221.1650 H   0  0  0  0  0  0  0  0  0  0  0  0
  137.2168   71.3340  224.2448 H   0  0  0  0  0  0  0  0  0  0  0  0
  137.3616   70.1728  222.9068 H   0  0  0  0  0  0  0  0  0  0  0  0
  137.2366   69.6914  225.8598 H   0  0  0  0  0  0  0  0  0  0  0  0
  136.7467   68.6157  224.5616 H   0  0  0  0  0  0  0  0  0  0  0  0
  139.0462   68.2058  225.9442 H   0  0  0  0  0  0  0  0  0  0  0  0
  138.9936   67.8329  224.2234 H   0  0  0  0  0  0  0  0  0  0  0  0
  140.7880   69.3594  224.2658 H   0  0  0  0  0  0  0  0  0  0  0  0
  139.3060   69.1160  227.3252 H   0  0  0  0  0  0  0  0  0  0  0  0
  140.0310   70.3443  229.3411 H   0  0  0  0  0  0  0  0  0  0  0  0
  141.4217   72.4136  229.1124 H   0  0  0  0  0  0  0  0  0  0  0  0
  142.0260   73.1542  226.8103 H   0  0  0  0  0  0  0  0  0  0  0  0
  141.8533   75.6458  219.6676 H   0  0  0  0  0  0  0  0  0  0  0  0
  142.6399   77.9903  219.5986 H   0  0  0  0  0  0  0  0  0  0  0  0
  142.7209   80.1914  220.5854 H   0  0  0  0  0  0  0  0  0  0  0  0
  140.6095   80.8464  224.2850 H   0  0  0  0  0  0  0  0  0  0  0  0
  139.8499   78.4811  224.2988 H   0  0  0  0  0  0  0  0  0  0  0  0
  1  2  2  0
  2  3  1  0
  3  4  1  0
  4  5  1  0
  5  6  2  0
  5  7  1  0
  7  8  1  0
  8  9  1  0
  9 10  1  0
 10 11  1  0
 11 12  1  0
 12 13  2  0
 13 14  1  0
 14 15  2  0
 15 16  1  0
 16 17  2  0
  2 18  1  0
 18 19  2  0
 19 20  1  0
 20 21  2  0
 21 22  1  0
 22 23  2  0
 23 24  1  0
 23 25  1  0
 25 26  2  0
 26 27  1  0
 27 28  2  0
 11  7  1  0
 17 12  1  0
 28 18  1  0
 27 21  1  0
  3 29  1  0
  4 30  1  0
  4 31  1  0
  8 32  1  0
  8 33  1  0
  9 34  1  0
  9 35  1  0
 10 36  1  0
 10 37  1  0
 11 38  1  6
 13 39  1  0
 14 40  1  0
 15 41  1  0
 16 42  1  0
 19 43  1  0
 20 44  1  0
 22 45  1  0
 25 46  1  0
 26 47  1  0
M  END
>  <smiles>  (25) 
O=C(NCC(=O)N1CCCC1c1ccccn1)c1ccc2cc(F)ccc2n1

>  <score_type>  (25) 
oracle

>  <origin>  (25) 
autodockgpu

>  <m_score__min__energy>  (25) 
-9.0099999999999998

>  <m_primary>  (25) 
energy

>  <rmsd>  (25) 
9.386280772774828

>  <m_score__min__rmsd>  (25) 
9.386280772774828

>  <meeko>  (25) 
{"free_energy": -8.69, "intermolecular_energy": -10.18, "internal_energy": -1.37, "cluster_size": 14, "cluster_id": 2, "rank_in_cluster": 9}

>  <energy>  (25) 
-8.15

>  <cluster_rmsd>  (25) 
1.18

>  <cluster>  (25) 
1

$$$$

     RDKit          3D

 47 50  0  0  0  0  0  0  0  0999 V2000
  141.1610   72.1490  221.5060 O   0  0  0  0  0  0  0  0  0  0  0  0
  140.3530   72.3810  222.4440 C   0  0  0  0  0  0  0  0  0  0  0  0
  139.5230   73.5430  222.2710 N   0  0  0  0  0  0  0  0  0  0  0  0
  139.6970   74.3010  221.0750 C   0  0  0  0  0  0  0  0  0  0  0  0
  140.8150   75.2720  221.1510 C   0  0  0  0  0  0  0  0  0  0  0  0
  141.0790   75.7780  222.2860 O   0  0  0  0  0  0  0  0  0  0  0  0
  141.5450   75.6030  219.9780 N   0  0  0  0  0  0  0  0  0  0  0  0
  141.0190   75.6670  218.6350 C   0  0  0  0  0  0  0  0  0  0  0  0
  142.1700   76.0130  217.7310 C   0  0  0  0  0  0  0  0  0  0  0  0
  143.1820   76.6140  218.6590 C   0  0  0  0  0  0  0  0  0  0  0  0
  142.9480   75.9280  219.9700 C   0  0  2  0  0  0  0  0  0  0  0  0
  143.7380   74.6690  220.1090 C   0  0  0  0  0  0  0  0  0  0  0  0
  145.0560   74.6400  220.4910 C   0  0  0  0  0  0  0  0  0  0  0  0
  145.7360   73.4440  220.6110 C   0  0  0  0  0  0  0  0  0  0  0  0
  145.0970   72.2520  220.3480 C   0  0  0  0  0  0  0  0  0  0  0  0
  143.7680   72.3310  219.9670 C   0  0  0  0  0  0  0  0  0  0  0  0
  143.1190   73.5030  219.8530 N   0  0  0  0  0  0  0  0  0  0  0  0
  140.2470   71.5450  223.6340 C   0  0  0  0  0  0  0  0  0  0  0  0
  139.6220   70.3230  223.4840 C   0  0  0  0  0  0  0  0  0  0  0  0
  139.4680   69.4560  224.5450 C   0  0  0  0  0  0  0  0  0  0  0  0
  139.9510   69.8190  225.7810 C   0  0  0  0  0  0  0  0  0  0  0  0
  139.8020   68.9530  226.8590 C   0  0  0  0  0  0  0  0  0  0  0  0
  140.3020   69.3570  228.0820 C   0  0  0  0  0  0  0  0  0  0  0  0
  140.1670   68.5200  229.1580 F   0  0  0  0  0  0  0  0  0  0  0  0
  140.9270   70.5880  228.2110 C   0  0  0  0  0  0  0  0  0  0  0  0
  141.0620   71.4350  227.1210 C   0  0  0  0  0  0  0  0  0  0  0  0
  140.5700   71.0460  225.8960 C   0  0  0  0  0  0  0  0  0  0  0  0
  140.7050   71.8770  224.8340 N   0  0  0  0  0  0  0  0  0  0  0  0
  138.8310   73.7860  223.0220 H   0  0  0  0  0  0  0  0  0  0  0  0
  139.8954   73.6049  220.2467 H   0  0  0  0  0  0  0  0  0  0  0  0
  138.7743   74.8794  220.9198 H   0  0  0  0  0  0  0  0  0  0  0  0
  140.5926   74.6942  218.3490 H   0  0  0  0  0  0  0  0  0  0  0  0
  140.2200   76.4193  218.5606 H   0  0  0  0  0  0  0  0  0  0  0  0
  142.5708   75.1119  217.2438 H   0  0  0  0  0  0  0  0  0  0  0  0
  141.8823   76.6930  216.9156 H   0  0  0  0  0  0  0  0  0  0  0  0
  144.2029   76.4219  218.2971 H   0  0  0  0  0  0  0  0  0  0  0  0
  143.0798   77.7065  218.7361 H   0  0  0  0  0  0  0  0  0  0  0  0
  143.2566   76.5810  220.7997 H   0  0  0  0  0  0  0  0  0  0  0  0
  145.5787   75.5839  220.7049 H   0  0  0  0  0  0  0  0  0  0  0  0
  146.7923   73.4430  220.9179 H   0  0  0  0  0  0  0  0  0  0  0  0
  145.6163   71.2863  220.4362 H   0  0  0  0  0  0  0  0  0  0  0  0
  143.2231   71.4005  219.7496 H   0  0  0  0  0  0  0  0  0  0  0  0
  139.2378   70.0343  222.4945 H   0  0  0  0  0  0  0  0  0  0  0  0
  138.9658   68.4874  224.4051 H   0  0  0  0  0  0  0  0  0  0  0  0
  139.3031   67.9797  226.7419 H   0  0  0  0  0  0  0  0  0  0  0  0
  141.3209   70.8968  229.1905 H   0  0  0  0  0  0  0  0  0  0  0  0
  141.5584   72.4100  227.2348 H   0  0  0  0  0  0  0  0  0  0  0  0
  1  2  2  0
  2  3  1  0
  3  4  1  0
  4  5  1  0
  5  6  2  0
  5  7  1  0
  7  8  1  0
  8  9  1  0
  9 10  1  0
 10 11  1  0
 11 12  1  0
 12 13  2  0
 13 14  1  0
 14 15  2  0
 15 16  1  0
 16 17  2  0
  2 18  1  0
 18 19  2  0
 19 20  1  0
 20 21  2  0
 21 22  1  0
 22 23  2  0
 23 24  1  0
 23 25  1  0
 25 26  2  0
 26 27  1  0
 27 28  2  0
 11  7  1  0
 17 12  1  0
 28 18  1  0
 27 21  1  0
  3 29  1  0
  4 30  1  0
  4 31  1  0
  8 32  1  0
  8 33  1  0
  9 34  1  0
  9 35  1  0
 10 36  1  0
 10 37  1  0
 11 38  1  1
 13 39  1  0
 14 40  1  0
 15 41  1  0
 16 42  1  0
 19 43  1  0
 20 44  1  0
 22 45  1  0
 25 46  1  0
 26 47  1  0
M  END
>  <smiles>  (26) 
O=C(NCC(=O)N1CCCC1c1ccccn1)c1ccc2cc(F)ccc2n1

>  <score_type>  (26) 
oracle

>  <origin>  (26) 
autodockgpu

>  <m_score__min__energy>  (26) 
-9.0099999999999998

>  <m_primary>  (26) 
energy

>  <rmsd>  (26) 
3.968230522431672

>  <m_score__min__rmsd>  (26) 
3.968230522431672

>  <meeko>  (26) 
{"free_energy": -8.2, "intermolecular_energy": -9.69, "internal_energy": -1.67, "cluster_size": 8, "cluster_id": 3, "rank_in_cluster": 1}

>  <energy>  (26) 
-8.08

>  <cluster_rmsd>  (26) 
1.1

>  <cluster>  (26) 
1

$$$$

     RDKit          3D

 47 50  0  0  0  0  0  0  0  0999 V2000
  141.2550   72.9210  222.1410 O   0  0  0  0  0  0  0  0  0  0  0  0
  140.1990   72.6380  222.7670 C   0  0  0  0  0  0  0  0  0  0  0  0
  139.0180   73.3320  222.3290 N   0  0  0  0  0  0  0  0  0  0  0  0
  139.1600   74.2530  221.2490 C   0  0  0  0  0  0  0  0  0  0  0  0
  139.6820   75.5760  221.6700 C   0  0  0  0  0  0  0  0  0  0  0  0
  139.1960   76.0920  222.7240 O   0  0  0  0  0  0  0  0  0  0  0  0
  140.6890   76.2150  220.8990 N   0  0  0  0  0  0  0  0  0  0  0  0
  141.9020   75.6060  220.4050 C   0  0  0  0  0  0  0  0  0  0  0  0
  142.6680   76.6810  219.6850 C   0  0  0  0  0  0  0  0  0  0  0  0
  141.6270   77.7150  219.3780 C   0  0  0  0  0  0  0  0  0  0  0  0
  140.6360   77.5960  220.4950 C   0  0  2  0  0  0  0  0  0  0  0  0
  140.9810   78.4570  221.6640 C   0  0  0  0  0  0  0  0  0  0  0  0
  140.1150   78.7160  222.6970 C   0  0  0  0  0  0  0  0  0  0  0  0
  140.4920   79.5140  223.7580 C   0  0  0  0  0  0  0  0  0  0  0  0
  141.7540   80.0690  223.7980 C   0  0  0  0  0  0  0  0  0  0  0  0
  142.5920   79.7800  222.7340 C   0  0  0  0  0  0  0  0  0  0  0  0
  142.2120   79.0000  221.7070 N   0  0  0  0  0  0  0  0  0  0  0  0
  140.1520   71.6780  223.8630 C   0  0  0  0  0  0  0  0  0  0  0  0
  139.5650   70.4570  223.5980 C   0  0  0  0  0  0  0  0  0  0  0  0
  139.4680   69.4770  224.5640 C   0  0  0  0  0  0  0  0  0  0  0  0
  139.9690   69.7260  225.8210 C   0  0  0  0  0  0  0  0  0  0  0  0
  139.8770   68.7470  226.8040 C   0  0  0  0  0  0  0  0  0  0  0  0
  140.3930   69.0370  228.0520 C   0  0  0  0  0  0  0  0  0  0  0  0
  140.3130   68.0870  229.0360 F   0  0  0  0  0  0  0  0  0  0  0  0
  140.9790   70.2700  228.2970 C   0  0  0  0  0  0  0  0  0  0  0  0
  141.0580   71.2310  227.3010 C   0  0  0  0  0  0  0  0  0  0  0  0
  140.5480   70.9560  226.0520 C   0  0  0  0  0  0  0  0  0  0  0  0
  140.6290   71.8980  225.0820 N   0  0  0  0  0  0  0  0  0  0  0  0
  138.1080   73.1350  222.8150 H   0  0  0  0  0  0  0  0  0  0  0  0
  139.8539   73.8224  220.5121 H   0  0  0  0  0  0  0  0  0  0  0  0
  138.1573   74.4178  220.8278 H   0  0  0  0  0  0  0  0  0  0  0  0
  142.4970   75.2141  221.2430 H   0  0  0  0  0  0  0  0  0  0  0  0
  141.6752   74.7659  219.7321 H   0  0  0  0  0  0  0  0  0  0  0  0
  143.4571   77.0979  220.3280 H   0  0  0  0  0  0  0  0  0  0  0  0
  143.1785   76.3098  218.7841 H   0  0  0  0  0  0  0  0  0  0  0  0
  142.0722   78.7207  219.3592 H   0  0  0  0  0  0  0  0  0  0  0  0
  141.1646   77.5617  218.3917 H   0  0  0  0  0  0  0  0  0  0  0  0
  139.6414   77.9199  220.1545 H   0  0  0  0  0  0  0  0  0  0  0  0
  139.1049   78.2808  222.6789 H   0  0  0  0  0  0  0  0  0  0  0  0
  139.7825   79.7084  224.5758 H   0  0  0  0  0  0  0  0  0  0  0  0
  142.0783   80.7084  224.6323 H   0  0  0  0  0  0  0  0  0  0  0  0
  143.6067   80.2046  222.7289 H   0  0  0  0  0  0  0  0  0  0  0  0
  139.1650   70.2608  222.5923 H   0  0  0  0  0  0  0  0  0  0  0  0
  138.9969   68.5103  224.3326 H   0  0  0  0  0  0  0  0  0  0  0  0
  139.4088   67.7738  226.5948 H   0  0  0  0  0  0  0  0  0  0  0  0
  141.3866   70.4883  229.2951 H   0  0  0  0  0  0  0  0  0  0  0  0
  141.5245   72.2057  227.5069 H   0  0  0  0  0  0  0  0  0  0  0  0
  1  2  2  0
  2  3  1  0
  3  4  1  0
  4  5  1  0
  5  6  2  0
  5  7  1  0
  7  8  1  0
  8  9  1  0
  9 10  1  0
 10 11  1  0
 11 12  1  0
 12 13  2  0
 13 14  1  0
 14 15  2  0
 15 16  1  0
 16 17  2  0
  2 18  1  0
 18 19  2  0
 19 20  1  0
 20 21  2  0
 21 22  1  0
 22 23  2  0
 23 24  1  0
 23 25  1  0
 25 26  2  0
 26 27  1  0
 27 28  2  0
 11  7  1  0
 17 12  1  0
 28 18  1  0
 27 21  1  0
  3 29  1  0
  4 30  1  0
  4 31  1  0
  8 32  1  0
  8 33  1  0
  9 34  1  0
  9 35  1  0
 10 36  1  0
 10 37  1  0
 11 38  1  6
 13 39  1  0
 14 40  1  0
 15 41  1  0
 16 42  1  0
 19 43  1  0
 20 44  1  0
 22 45  1  0
 25 46  1  0
 26 47  1  0
M  END
>  <smiles>  (27) 
O=C(NCC(=O)N1CCCC1c1ccccn1)c1ccc2cc(F)ccc2n1

>  <score_type>  (27) 
oracle

>  <origin>  (27) 
autodockgpu

>  <m_score__min__energy>  (27) 
-9.0099999999999998

>  <m_primary>  (27) 
energy

>  <rmsd>  (27) 
2.3919114490141973

>  <m_score__min__rmsd>  (27) 
2.3919114490141973

>  <meeko>  (27) 
{"free_energy": -8.6, "intermolecular_energy": -10.09, "internal_energy": -1.28, "cluster_size": 26, "cluster_id": 1, "rank_in_cluster": 17}

>  <energy>  (27) 
-8.83

>  <cluster_rmsd>  (27) 
0.0

>  <cluster>  (27) 
2

$$$$

     RDKit          3D

 47 50  0  0  0  0  0  0  0  0999 V2000
  141.4320   73.5730  220.6350 O   0  0  0  0  0  0  0  0  0  0  0  0
  140.8480   74.3500  221.4360 C   0  0  0  0  0  0  0  0  0  0  0  0
  139.9210   73.7230  222.3400 N   0  0  0  0  0  0  0  0  0  0  0  0
  139.7620   72.3080  222.2390 C   0  0  0  0  0  0  0  0  0  0  0  0
  139.9450   71.6030  223.5310 C   0  0  0  0  0  0  0  0  0  0  0  0
  140.9650   71.9030  224.2260 O   0  0  0  0  0  0  0  0  0  0  0  0
  138.9950   70.6320  223.9460 N   0  0  0  0  0  0  0  0  0  0  0  0
  137.5660   70.8200  224.0370 C   0  0  0  0  0  0  0  0  0  0  0  0
  136.9890   69.5340  224.5600 C   0  0  0  0  0  0  0  0  0  0  0  0
  138.0560   68.5210  224.2690 C   0  0  0  0  0  0  0  0  0  0  0  0
  139.3380   69.2920  224.3440 C   0  0  2  0  0  0  0  0  0  0  0  0
  139.9080   69.3260  225.7230 C   0  0  0  0  0  0  0  0  0  0  0  0
  140.4000   68.2180  226.3680 C   0  0  0  0  0  0  0  0  0  0  0  0
  140.9250   68.3100  227.6420 C   0  0  0  0  0  0  0  0  0  0  0  0
  140.9620   69.5260  228.2920 C   0  0  0  0  0  0  0  0  0  0  0  0
  140.4550   70.6140  227.6020 C   0  0  0  0  0  0  0  0  0  0  0  0
  139.9470   70.5090  226.3610 N   0  0  0  0  0  0  0  0  0  0  0  0
  141.0760   75.7900  221.4640 C   0  0  0  0  0  0  0  0  0  0  0  0
  141.5770   76.3650  220.3130 C   0  0  0  0  0  0  0  0  0  0  0  0
  141.8300   77.7180  220.2330 C   0  0  0  0  0  0  0  0  0  0  0  0
  141.5770   78.5120  221.3280 C   0  0  0  0  0  0  0  0  0  0  0  0
  141.8270   79.8780  221.2590 C   0  0  0  0  0  0  0  0  0  0  0  0
  141.5580   80.6380  222.3810 C   0  0  0  0  0  0  0  0  0  0  0  0
  141.7980   81.9870  222.3360 F   0  0  0  0  0  0  0  0  0  0  0  0
  141.0550   80.0410  223.5260 C   0  0  0  0  0  0  0  0  0  0  0  0
  140.8140   78.6760  223.5710 C   0  0  0  0  0  0  0  0  0  0  0  0
  141.0770   77.9060  222.4610 C   0  0  0  0  0  0  0  0  0  0  0  0
  140.8390   76.5730  222.5090 N   0  0  0  0  0  0  0  0  0  0  0  0
  139.4050   74.3220  223.0300 H   0  0  0  0  0  0  0  0  0  0  0  0
  138.7490   72.0963  221.8663 H   0  0  0  0  0  0  0  0  0  0  0  0
  140.5409   71.9408  221.5545 H   0  0  0  0  0  0  0  0  0  0  0  0
  137.3362   71.6458  224.7264 H   0  0  0  0  0  0  0  0  0  0  0  0
  137.1387   71.0729  223.0554 H   0  0  0  0  0  0  0  0  0  0  0  0
  136.7965   69.6014  225.6409 H   0  0  0  0  0  0  0  0  0  0  0  0
  136.0235   69.2809  224.0976 H   0  0  0  0  0  0  0  0  0  0  0  0
  138.0423   67.7161  225.0186 H   0  0  0  0  0  0  0  0  0  0  0  0
  137.9165   68.0367  223.2912 H   0  0  0  0  0  0  0  0  0  0  0  0
  140.1001   68.8222  223.7049 H   0  0  0  0  0  0  0  0  0  0  0  0
  140.3755   67.2417  225.8619 H   0  0  0  0  0  0  0  0  0  0  0  0
  141.3151   67.4102  228.1402 H   0  0  0  0  0  0  0  0  0  0  0  0
  141.3735   69.6263  229.3072 H   0  0  0  0  0  0  0  0  0  0  0  0
  140.4681   71.6013  228.0869 H   0  0  0  0  0  0  0  0  0  0  0  0
  141.7791   75.7284  219.4390 H   0  0  0  0  0  0  0  0  0  0  0  0
  142.2287   78.1568  219.3064 H   0  0  0  0  0  0  0  0  0  0  0  0
  142.2253   80.3378  220.3425 H   0  0  0  0  0  0  0  0  0  0  0  0
  140.8439   80.6584  224.4116 H   0  0  0  0  0  0  0  0  0  0  0  0
  140.4161   78.2128  224.4859 H   0  0  0  0  0  0  0  0  0  0  0  0
  1  2  2  0
  2  3  1  0
  3  4  1  0
  4  5  1  0
  5  6  2  0
  5  7  1  0
  7  8  1  0
  8  9  1  0
  9 10  1  0
 10 11  1  0
 11 12  1  0
 12 13  2  0
 13 14  1  0
 14 15  2  0
 15 16  1  0
 16 17  2  0
  2 18  1  0
 18 19  2  0
 19 20  1  0
 20 21  2  0
 21 22  1  0
 22 23  2  0
 23 24  1  0
 23 25  1  0
 25 26  2  0
 26 27  1  0
 27 28  2  0
 11  7  1  0
 17 12  1  0
 28 18  1  0
 27 21  1  0
  3 29  1  0
  4 30  1  0
  4 31  1  0
  8 32  1  0
  8 33  1  0
  9 34  1  0
  9 35  1  0
 10 36  1  0
 10 37  1  0
 11 38  1  6
 13 39  1  0
 14 40  1  0
 15 41  1  0
 16 42  1  0
 19 43  1  0
 20 44  1  0
 22 45  1  0
 25 46  1  0
 26 47  1  0
M  END
>  <smiles>  (28) 
O=C(NCC(=O)N1CCCC1c1ccccn1)c1ccc2cc(F)ccc2n1

>  <score_type>  (28) 
oracle

>  <origin>  (28) 
autodockgpu

>  <m_score__min__energy>  (28) 
-9.0099999999999998

>  <m_primary>  (28) 
energy

>  <rmsd>  (28) 
9.751555365579208

>  <m_score__min__rmsd>  (28) 
9.751555365579208

>  <meeko>  (28) 
{"free_energy": -8.09, "intermolecular_energy": -9.58, "internal_energy": -1.34, "cluster_size": 14, "cluster_id": 2, "rank_in_cluster": 14}

>  <energy>  (28) 
-8.81

>  <cluster_rmsd>  (28) 
0.12

>  <cluster>  (28) 
2

$$$$

     RDKit          3D

 47 50  0  0  0  0  0  0  0  0999 V2000
  141.3040   72.7000  221.9370 O   0  0  0  0  0  0  0  0  0  0  0  0
  140.2900   72.5770  222.6750 C   0  0  0  0  0  0  0  0  0  0  0  0
  139.1750   73.4210  222.3380 N   0  0  0  0  0  0  0  0  0  0  0  0
  139.3280   74.2960  221.2210 C   0  0  0  0  0  0  0  0  0  0  0  0
  139.8950   75.6180  221.5840 C   0  0  0  0  0  0  0  0  0  0  0  0
  139.3660   76.2380  222.5580 O   0  0  0  0  0  0  0  0  0  0  0  0
  140.9900   76.1430  220.8470 N   0  0  0  0  0  0  0  0  0  0  0  0
  142.1690   75.4180  220.4350 C   0  0  0  0  0  0  0  0  0  0  0  0
  143.0590   76.3980  219.7230 C   0  0  0  0  0  0  0  0  0  0  0  0
  142.1270   77.5050  219.3320 C   0  0  0  0  0  0  0  0  0  0  0  0
  141.0760   77.5090  220.3990 C   0  0  2  0  0  0  0  0  0  0  0  0
  141.4370   78.3780  221.5580 C   0  0  0  0  0  0  0  0  0  0  0  0
  141.7490   79.7090  221.4390 C   0  0  0  0  0  0  0  0  0  0  0  0
  142.0670   80.4670  222.5480 C   0  0  0  0  0  0  0  0  0  0  0  0
  142.0770   79.8950  223.8020 C   0  0  0  0  0  0  0  0  0  0  0  0
  141.7550   78.5500  223.8730 C   0  0  0  0  0  0  0  0  0  0  0  0
  141.4470   77.8240  222.7840 N   0  0  0  0  0  0  0  0  0  0  0  0
  140.2260   71.6510  223.7990 C   0  0  0  0  0  0  0  0  0  0  0  0
  139.6150   70.4340  223.5710 C   0  0  0  0  0  0  0  0  0  0  0  0
  139.5010   69.4850  224.5660 C   0  0  0  0  0  0  0  0  0  0  0  0
  140.0090   69.7610  225.8140 C   0  0  0  0  0  0  0  0  0  0  0  0
  139.9000   68.8130  226.8250 C   0  0  0  0  0  0  0  0  0  0  0  0
  140.4230   69.1310  228.0640 C   0  0  0  0  0  0  0  0  0  0  0  0
  140.3270   68.2110  229.0750 F   0  0  0  0  0  0  0  0  0  0  0  0
  141.0330   70.3580  228.2720 C   0  0  0  0  0  0  0  0  0  0  0  0
  141.1290   71.2890  227.2470 C   0  0  0  0  0  0  0  0  0  0  0  0
  140.6120   70.9860  226.0080 C   0  0  0  0  0  0  0  0  0  0  0  0
  140.7090   71.8980  225.0110 N   0  0  0  0  0  0  0  0  0  0  0  0
  138.3030   73.3610  222.9180 H   0  0  0  0  0  0  0  0  0  0  0  0
  139.9980   73.8172  220.4917 H   0  0  0  0  0  0  0  0  0  0  0  0
  138.3245   74.4746  220.8074 H   0  0  0  0  0  0  0  0  0  0  0  0
  142.6866   75.0069  221.3143 H   0  0  0  0  0  0  0  0  0  0  0  0
  141.9038   74.5775  219.7768 H   0  0  0  0  0  0  0  0  0  0  0  0
  143.8492   76.7686  220.3926 H   0  0  0  0  0  0  0  0  0  0  0  0
  143.5788   75.9539  218.8613 H   0  0  0  0  0  0  0  0  0  0  0  0
  142.6575   78.4682  219.3060 H   0  0  0  0  0  0  0  0  0  0  0  0
  141.7018   77.3572  218.3283 H   0  0  0  0  0  0  0  0  0  0  0  0
  140.1308   77.9037  219.9980 H   0  0  0  0  0  0  0  0  0  0  0  0
  141.7456   80.1792  220.4445 H   0  0  0  0  0  0  0  0  0  0  0  0
  142.3136   81.5325  222.4304 H   0  0  0  0  0  0  0  0  0  0  0  0
  142.3280   80.4773  224.7008 H   0  0  0  0  0  0  0  0  0  0  0  0
  141.7511   78.0574  224.8565 H   0  0  0  0  0  0  0  0  0  0  0  0
  139.2094   70.2158  222.5721 H   0  0  0  0  0  0  0  0  0  0  0  0
  139.0107   68.5212  224.3640 H   0  0  0  0  0  0  0  0  0  0  0  0
  139.4140   67.8428  226.6449 H   0  0  0  0  0  0  0  0  0  0  0  0
  141.4467   70.5973  229.2628 H   0  0  0  0  0  0  0  0  0  0  0  0
  141.6140   72.2604  227.4234 H   0  0  0  0  0  0  0  0  0  0  0  0
  1  2  2  0
  2  3  1  0
  3  4  1  0
  4  5  1  0
  5  6  2  0
  5  7  1  0
  7  8  1  0
  8  9  1  0
  9 10  1  0
 10 11  1  0
 11 12  1  0
 12 13  2  0
 13 14  1  0
 14 15  2  0
 15 16  1  0
 16 17  2  0
  2 18  1  0
 18 19  2  0
 19 20  1  0
 20 21  2  0
 21 22  1  0
 22 23  2  0
 23 24  1  0
 23 25  1  0
 25 26  2  0
 26 27  1  0
 27 28  2  0
 11  7  1  0
 17 12  1  0
 28 18  1  0
 27 21  1  0
  3 29  1  0
  4 30  1  0
  4 31  1  0
  8 32  1  0
  8 33  1  0
  9 34  1  0
  9 35  1  0
 10 36  1  0
 10 37  1  0
 11 38  1  6
 13 39  1  0
 14 40  1  0
 15 41  1  0
 16 42  1  0
 19 43  1  0
 20 44  1  0
 22 45  1  0
 25 46  1  0
 26 47  1  0
M  END
>  <smiles>  (29) 
O=C(NCC(=O)N1CCCC1c1ccccn1)c1ccc2cc(F)ccc2n1

>  <score_type>  (29) 
oracle

>  <origin>  (29) 
autodockgpu

>  <m_score__min__energy>  (29) 
-9.0099999999999998

>  <m_primary>  (29) 
energy

>  <rmsd>  (29) 
2.1319787732483717

>  <m_score__min__rmsd>  (29) 
2.1319787732483717

>  <meeko>  (29) 
{"free_energy": -8.96, "intermolecular_energy": -10.45, "internal_energy": -1.29, "cluster_size": 26, "cluster_id": 1, "rank_in_cluster": 6}

>  <energy>  (29) 
-8.8

>  <cluster_rmsd>  (29) 
0.26

>  <cluster>  (29) 
2

$$$$

     RDKit          3D

 47 50  0  0  0  0  0  0  0  0999 V2000
  141.2650   72.1700  221.5280 O   0  0  0  0  0  0  0  0  0  0  0  0
  140.3430   72.3330  222.3710 C   0  0  0  0  0  0  0  0  0  0  0  0
  139.4150   73.3910  222.0740 N   0  0  0  0  0  0  0  0  0  0  0  0
  139.6300   74.1350  220.8760 C   0  0  0  0  0  0  0  0  0  0  0  0
  140.8400   74.9910  220.9240 C   0  0  0  0  0  0  0  0  0  0  0  0
  141.1650   75.4880  222.0470 O   0  0  0  0  0  0  0  0  0  0  0  0
  141.5870   75.2260  219.7390 N   0  0  0  0  0  0  0  0  0  0  0  0
  141.1310   75.0100  218.3860 C   0  0  0  0  0  0  0  0  0  0  0  0
  142.2790   75.3570  217.4780 C   0  0  0  0  0  0  0  0  0  0  0  0
  143.1570   76.2230  218.3300 C   0  0  0  0  0  0  0  0  0  0  0  0
  142.9370   75.7250  219.7260 C   0  0  2  0  0  0  0  0  0  0  0  0
  143.8670   74.6180  220.0940 C   0  0  0  0  0  0  0  0  0  0  0  0
  143.5200   73.2900  220.0530 C   0  0  0  0  0  0  0  0  0  0  0  0
  144.4250   72.3070  220.3970 C   0  0  0  0  0  0  0  0  0  0  0  0
  145.7020   72.6440  220.7910 C   0  0  0  0  0  0  0  0  0  0  0  0
  146.0070   73.9950  220.8170 C   0  0  0  0  0  0  0  0  0  0  0  0
  145.1150   74.9420  220.4790 N   0  0  0  0  0  0  0  0  0  0  0  0
  140.2050   71.5190  223.5730 C   0  0  0  0  0  0  0  0  0  0  0  0
  139.5060   70.3350  223.4470 C   0  0  0  0  0  0  0  0  0  0  0  0
  139.3160   69.4900  224.5210 C   0  0  0  0  0  0  0  0  0  0  0  0
  139.8370   69.8390  225.7460 C   0  0  0  0  0  0  0  0  0  0  0  0
  139.6520   68.9970  226.8360 C   0  0  0  0  0  0  0  0  0  0  0  0
  140.1920   69.3840  228.0470 C   0  0  0  0  0  0  0  0  0  0  0  0
  140.0220   68.5690  229.1350 F   0  0  0  0  0  0  0  0  0  0  0  0
  140.8910   70.5770  228.1520 C   0  0  0  0  0  0  0  0  0  0  0  0
  141.0610   71.4020  227.0500 C   0  0  0  0  0  0  0  0  0  0  0  0
  140.5290   71.0280  225.8360 C   0  0  0  0  0  0  0  0  0  0  0  0
  140.6990   71.8370  224.7630 N   0  0  0  0  0  0  0  0  0  0  0  0
  138.6260   73.5720  222.7420 H   0  0  0  0  0  0  0  0  0  0  0  0
  139.7362   73.4275  220.0404 H   0  0  0  0  0  0  0  0  0  0  0  0
  138.7648   74.8022  220.7482 H   0  0  0  0  0  0  0  0  0  0  0  0
  140.8435   73.9574  218.2471 H   0  0  0  0  0  0  0  0  0  0  0  0
  140.2508   75.6309  218.1631 H   0  0  0  0  0  0  0  0  0  0  0  0
  142.8139   74.4506  217.1581 H   0  0  0  0  0  0  0  0  0  0  0  0
  141.9550   75.8574  216.5535 H   0  0  0  0  0  0  0  0  0  0  0  0
  144.2121   76.1116  218.0395 H   0  0  0  0  0  0  0  0  0  0  0  0
  142.9176   77.2915  218.2252 H   0  0  0  0  0  0  0  0  0  0  0  0
  143.1165   76.5342  220.4492 H   0  0  0  0  0  0  0  0  0  0  0  0
  142.5043   73.0054  219.7409 H   0  0  0  0  0  0  0  0  0  0  0  0
  144.1259   71.2492  220.3566 H   0  0  0  0  0  0  0  0  0  0  0  0
  146.4414   71.8791  221.0706 H   0  0  0  0  0  0  0  0  0  0  0  0
  147.0165   74.3042  221.1257 H   0  0  0  0  0  0  0  0  0  0  0  0
  139.0905   70.0587  222.4667 H   0  0  0  0  0  0  0  0  0  0  0  0
  138.7561   68.5509  224.3998 H   0  0  0  0  0  0  0  0  0  0  0  0
  139.0942   68.0540  226.7377 H   0  0  0  0  0  0  0  0  0  0  0  0
  141.3164   70.8731  229.1222 H   0  0  0  0  0  0  0  0  0  0  0  0
  141.6160   72.3470  227.1449 H   0  0  0  0  0  0  0  0  0  0  0  0
  1  2  2  0
  2  3  1  0
  3  4  1  0
  4  5  1  0
  5  6  2  0
  5  7  1  0
  7  8  1  0
  8  9  1  0
  9 10  1  0
 10 11  1  0
 11 12  1  0
 12 13  2  0
 13 14  1  0
 14 15  2  0
 15 16  1  0
 16 17  2  0
  2 18  1  0
 18 19  2  0
 19 20  1  0
 20 21  2  0
 21 22  1  0
 22 23  2  0
 23 24  1  0
 23 25  1  0
 25 26  2  0
 26 27  1  0
 27 28  2  0
 11  7  1  0
 17 12  1  0
 28 18  1  0
 27 21  1  0
  3 29  1  0
  4 30  1  0
  4 31  1  0
  8 32  1  0
  8 33  1  0
  9 34  1  0
  9 35  1  0
 10 36  1  0
 10 37  1  0
 11 38  1  1
 13 39  1  0
 14 40  1  0
 15 41  1  0
 16 42  1  0
 19 43  1  0
 20 44  1  0
 22 45  1  0
 25 46  1  0
 26 47  1  0
M  END
>  <smiles>  (30) 
O=C(NCC(=O)N1CCCC1c1ccccn1)c1ccc2cc(F)ccc2n1

>  <score_type>  (30) 
oracle

>  <origin>  (30) 
autodockgpu

>  <m_score__min__energy>  (30) 
-9.0099999999999998

>  <m_primary>  (30) 
energy

>  <rmsd>  (30) 
4.069939334905866

>  <m_score__min__rmsd>  (30) 
4.069939334905866

>  <meeko>  (30) 
{"free_energy": -8.19, "intermolecular_energy": -9.68, "internal_energy": -1.52, "cluster_size": 8, "cluster_id": 3, "rank_in_cluster": 3}

>  <energy>  (30) 
-8.8

>  <cluster_rmsd>  (30) 
0.5

>  <cluster>  (30) 
2

$$$$

     RDKit          3D

 47 50  0  0  0  0  0  0  0  0999 V2000
  141.0780   73.6910  220.8880 O   0  0  0  0  0  0  0  0  0  0  0  0
  140.4020   74.5340  221.5340 C   0  0  0  0  0  0  0  0  0  0  0  0
  139.2610   74.0060  222.2340 N   0  0  0  0  0  0  0  0  0  0  0  0
  139.0180   72.6050  222.1270 C   0  0  0  0  0  0  0  0  0  0  0  0
  139.8290   71.7940  223.0680 C   0  0  0  0  0  0  0  0  0  0  0  0
  141.0680   72.0610  223.1580 O   0  0  0  0  0  0  0  0  0  0  0  0
  139.2120   70.7640  223.8270 N   0  0  0  0  0  0  0  0  0  0  0  0
  137.8010   70.4610  223.8660 C   0  0  0  0  0  0  0  0  0  0  0  0
  137.6240   69.3250  224.8350 C   0  0  0  0  0  0  0  0  0  0  0  0
  138.9910   68.7150  224.9200 C   0  0  0  0  0  0  0  0  0  0  0  0
  139.9300   69.8580  224.6850 C   0  0  2  0  0  0  0  0  0  0  0  0
  140.2950   70.5700  225.9450 C   0  0  0  0  0  0  0  0  0  0  0  0
  141.1390   71.6520  225.9870 C   0  0  0  0  0  0  0  0  0  0  0  0
  141.4350   72.2780  227.1820 C   0  0  0  0  0  0  0  0  0  0  0  0
  140.8840   71.8220  228.3610 C   0  0  0  0  0  0  0  0  0  0  0  0
  140.0390   70.7290  228.2690 C   0  0  0  0  0  0  0  0  0  0  0  0
  139.7590   70.1300  227.0980 N   0  0  0  0  0  0  0  0  0  0  0  0
  140.7300   75.9540  221.5830 C   0  0  0  0  0  0  0  0  0  0  0  0
  140.8550   76.6080  220.3740 C   0  0  0  0  0  0  0  0  0  0  0  0
  141.1640   77.9510  220.3070 C   0  0  0  0  0  0  0  0  0  0  0  0
  141.3510   78.6530  221.4750 C   0  0  0  0  0  0  0  0  0  0  0  0
  141.6630   80.0070  221.4210 C   0  0  0  0  0  0  0  0  0  0  0  0
  141.8420   80.6730  222.6180 C   0  0  0  0  0  0  0  0  0  0  0  0
  142.1500   82.0090  222.5880 F   0  0  0  0  0  0  0  0  0  0  0  0
  141.7120   79.9980  223.8210 C   0  0  0  0  0  0  0  0  0  0  0  0
  141.4010   78.6470  223.8500 C   0  0  0  0  0  0  0  0  0  0  0  0
  141.2190   77.9690  222.6650 C   0  0  0  0  0  0  0  0  0  0  0  0
  140.9150   76.6500  222.6980 N   0  0  0  0  0  0  0  0  0  0  0  0
  138.6610   74.6640  222.7880 H   0  0  0  0  0  0  0  0  0  0  0  0
  137.9538   72.4187  222.3336 H   0  0  0  0  0  0  0  0  0  0  0  0
  139.3024   72.3024  221.1084 H   0  0  0  0  0  0  0  0  0  0  0  0
  137.2347   71.3403  224.2067 H   0  0  0  0  0  0  0  0  0  0  0  0
  137.4296   70.1877  222.8673 H   0  0  0  0  0  0  0  0  0  0  0  0
  137.2977   69.6951  225.8181 H   0  0  0  0  0  0  0  0  0  0  0  0
  136.8554   68.6064  224.5141 H   0  0  0  0  0  0  0  0  0  0  0  0
  139.1580   68.2732  225.9134 H   0  0  0  0  0  0  0  0  0  0  0  0
  139.1315   67.9031  224.1913 H   0  0  0  0  0  0  0  0  0  0  0  0
  140.8722   69.4910  224.2518 H   0  0  0  0  0  0  0  0  0  0  0  0
  141.5865   72.0262  225.0544 H   0  0  0  0  0  0  0  0  0  0  0  0
  142.1132   73.1440  227.1933 H   0  0  0  0  0  0  0  0  0  0  0  0
  141.1046   72.3023  229.3257 H   0  0  0  0  0  0  0  0  0  0  0  0
  139.5796   70.3360  229.1880 H   0  0  0  0  0  0  0  0  0  0  0  0
  140.7046   76.0448  219.4412 H   0  0  0  0  0  0  0  0  0  0  0  0
  141.2595   78.4533  219.3331 H   0  0  0  0  0  0  0  0  0  0  0  0
  141.7638   80.5297  220.4584 H   0  0  0  0  0  0  0  0  0  0  0  0
  141.8576   80.5414  224.7663 H   0  0  0  0  0  0  0  0  0  0  0  0
  141.3005   78.1213  224.8110 H   0  0  0  0  0  0  0  0  0  0  0  0
  1  2  2  0
  2  3  1  0
  3  4  1  0
  4  5  1  0
  5  6  2  0
  5  7  1  0
  7  8  1  0
  8  9  1  0
  9 10  1  0
 10 11  1  0
 11 12  1  0
 12 13  2  0
 13 14  1  0
 14 15  2  0
 15 16  1  0
 16 17  2  0
  2 18  1  0
 18 19  2  0
 19 20  1  0
 20 21  2  0
 21 22  1  0
 22 23  2  0
 23 24  1  0
 23 25  1  0
 25 26  2  0
 26 27  1  0
 27 28  2  0
 11  7  1  0
 17 12  1  0
 28 18  1  0
 27 21  1  0
  3 29  1  0
  4 30  1  0
  4 31  1  0
  8 32  1  0
  8 33  1  0
  9 34  1  0
  9 35  1  0
 10 36  1  0
 10 37  1  0
 11 38  1  6
 13 39  1  0
 14 40  1  0
 15 41  1  0
 16 42  1  0
 19 43  1  0
 20 44  1  0
 22 45  1  0
 25 46  1  0
 26 47  1  0
M  END
>  <smiles>  (31) 
O=C(NCC(=O)N1CCCC1c1ccccn1)c1ccc2cc(F)ccc2n1

>  <score_type>  (31) 
oracle

>  <origin>  (31) 
autodockgpu

>  <m_score__min__energy>  (31) 
-9.0099999999999998

>  <m_primary>  (31) 
energy

>  <rmsd>  (31) 
9.168031648314647

>  <m_score__min__rmsd>  (31) 
9.168031648314647

>  <meeko>  (31) 
{"free_energy": -8.83, "intermolecular_energy": -10.32, "internal_energy": -1.23, "cluster_size": 14, "cluster_id": 2, "rank_in_cluster": 1}

>  <energy>  (31) 
-8.79

>  <cluster_rmsd>  (31) 
0.29

>  <cluster>  (31) 
2

$$$$

     RDKit          3D

 47 50  0  0  0  0  0  0  0  0999 V2000
  141.3650   72.3800  221.6800 O   0  0  0  0  0  0  0  0  0  0  0  0
  140.4640   72.5050  222.5520 C   0  0  0  0  0  0  0  0  0  0  0  0
  139.5750   73.6190  222.3650 N   0  0  0  0  0  0  0  0  0  0  0  0
  139.8000   74.4560  221.2310 C   0  0  0  0  0  0  0  0  0  0  0  0
  140.0310   75.8770  221.5860 C   0  0  0  0  0  0  0  0  0  0  0  0
  139.4940   76.3130  222.6520 O   0  0  0  0  0  0  0  0  0  0  0  0
  140.8310   76.6950  220.7430 N   0  0  0  0  0  0  0  0  0  0  0  0
  142.0220   76.2860  220.0380 C   0  0  0  0  0  0  0  0  0  0  0  0
  142.5400   77.4990  219.3150 C   0  0  0  0  0  0  0  0  0  0  0  0
  141.3480   78.4050  219.2440 C   0  0  0  0  0  0  0  0  0  0  0  0
  140.5520   78.0810  220.4710 C   0  0  2  0  0  0  0  0  0  0  0  0
  140.9590   78.8980  221.6520 C   0  0  0  0  0  0  0  0  0  0  0  0
  140.0650   79.5280  222.4820 C   0  0  0  0  0  0  0  0  0  0  0  0
  140.4970   80.2650  223.5660 C   0  0  0  0  0  0  0  0  0  0  0  0
  141.8450   80.3820  223.8340 C   0  0  0  0  0  0  0  0  0  0  0  0
  142.7080   79.7300  222.9700 C   0  0  0  0  0  0  0  0  0  0  0  0
  142.2720   79.0150  221.9180 N   0  0  0  0  0  0  0  0  0  0  0  0
  140.3130   71.5950  223.6810 C   0  0  0  0  0  0  0  0  0  0  0  0
  139.6880   70.3890  223.4310 C   0  0  0  0  0  0  0  0  0  0  0  0
  139.4930   69.4560  224.4290 C   0  0  0  0  0  0  0  0  0  0  0  0
  139.9320   69.7380  225.7020 C   0  0  0  0  0  0  0  0  0  0  0  0
  139.7410   68.8060  226.7160 C   0  0  0  0  0  0  0  0  0  0  0  0
  140.1970   69.1280  227.9790 C   0  0  0  0  0  0  0  0  0  0  0  0
  140.0200   68.2240  228.9940 F   0  0  0  0  0  0  0  0  0  0  0  0
  140.8220   70.3440  228.2090 C   0  0  0  0  0  0  0  0  0  0  0  0
  141.0000   71.2580  227.1810 C   0  0  0  0  0  0  0  0  0  0  0  0
  140.5510   70.9510  225.9170 C   0  0  0  0  0  0  0  0  0  0  0  0
  140.7280   71.8460  224.9160 N   0  0  0  0  0  0  0  0  0  0  0  0
  138.8040   73.7720  223.0610 H   0  0  0  0  0  0  0  0  0  0  0  0
  140.6833   74.0830  220.6918 H   0  0  0  0  0  0  0  0  0  0  0  0
  138.8904   74.4187  220.6136 H   0  0  0  0  0  0  0  0  0  0  0  0
  142.7760   75.9194  220.7501 H   0  0  0  0  0  0  0  0  0  0  0  0
  141.8017   75.4713  219.3325 H   0  0  0  0  0  0  0  0  0  0  0  0
  143.3589   77.9712  219.8775 H   0  0  0  0  0  0  0  0  0  0  0  0
  142.9544   77.2607  218.3243 H   0  0  0  0  0  0  0  0  0  0  0  0
  141.6610   79.4595  219.2516 H   0  0  0  0  0  0  0  0  0  0  0  0
  140.7682   78.2592  218.3206 H   0  0  0  0  0  0  0  0  0  0  0  0
  139.4865   78.2935  220.2990 H   0  0  0  0  0  0  0  0  0  0  0  0
  138.9870   79.4440  222.2798 H   0  0  0  0  0  0  0  0  0  0  0  0
  139.7635   80.7610  224.2187 H   0  0  0  0  0  0  0  0  0  0  0  0
  142.2155   80.9639  224.6908 H   0  0  0  0  0  0  0  0  0  0  0  0
  143.7908   79.7994  223.1508 H   0  0  0  0  0  0  0  0  0  0  0  0
  139.3374   70.1669  222.4123 H   0  0  0  0  0  0  0  0  0  0  0  0
  138.9938   68.5006  224.2098 H   0  0  0  0  0  0  0  0  0  0  0  0
  139.2436   67.8449  226.5188 H   0  0  0  0  0  0  0  0  0  0  0  0
  141.1814   70.5871  229.2198 H   0  0  0  0  0  0  0  0  0  0  0  0
  141.4961   72.2205  227.3746 H   0  0  0  0  0  0  0  0  0  0  0  0
  1  2  2  0
  2  3  1  0
  3  4  1  0
  4  5  1  0
  5  6  2  0
  5  7  1  0
  7  8  1  0
  8  9  1  0
  9 10  1  0
 10 11  1  0
 11 12  1  0
 12 13  2  0
 13 14  1  0
 14 15  2  0
 15 16  1  0
 16 17  2  0
  2 18  1  0
 18 19  2  0
 19 20  1  0
 20 21  2  0
 21 22  1  0
 22 23  2  0
 23 24  1  0
 23 25  1  0
 25 26  2  0
 26 27  1  0
 27 28  2  0
 11  7  1  0
 17 12  1  0
 28 18  1  0
 27 21  1  0
  3 29  1  0
  4 30  1  0
  4 31  1  0
  8 32  1  0
  8 33  1  0
  9 34  1  0
  9 35  1  0
 10 36  1  0
 10 37  1  0
 11 38  1  6
 13 39  1  0
 14 40  1  0
 15 41  1  0
 16 42  1  0
 19 43  1  0
 20 44  1  0
 22 45  1  0
 25 46  1  0
 26 47  1  0
M  END
>  <smiles>  (32) 
O=C(NCC(=O)N1CCCC1c1ccccn1)c1ccc2cc(F)ccc2n1

>  <score_type>  (32) 
oracle

>  <origin>  (32) 
autodockgpu

>  <m_score__min__energy>  (32) 
-9.0099999999999998

>  <m_primary>  (32) 
energy

>  <rmsd>  (32) 
2.3479618249187397

>  <m_score__min__rmsd>  (32) 
2.3479618249187397

>  <meeko>  (32) 
{"free_energy": -8.45, "intermolecular_energy": -9.95, "internal_energy": -1.41, "cluster_size": 26, "cluster_id": 1, "rank_in_cluster": 19}

>  <energy>  (32) 
-8.78

>  <cluster_rmsd>  (32) 
0.28

>  <cluster>  (32) 
2

$$$$

     RDKit          3D

 47 50  0  0  0  0  0  0  0  0999 V2000
  140.9800   73.6620  220.8380 O   0  0  0  0  0  0  0  0  0  0  0  0
  140.3720   74.5080  221.5450 C   0  0  0  0  0  0  0  0  0  0  0  0
  139.2710   73.9930  222.3140 N   0  0  0  0  0  0  0  0  0  0  0  0
  138.9860   72.6000  222.1990 C   0  0  0  0  0  0  0  0  0  0  0  0
  139.8210   71.7540  223.0870 C   0  0  0  0  0  0  0  0  0  0  0  0
  141.0660   71.9960  223.1290 O   0  0  0  0  0  0  0  0  0  0  0  0
  139.2160   70.7180  223.8490 N   0  0  0  0  0  0  0  0  0  0  0  0
  137.8070   70.4040  223.8970 C   0  0  0  0  0  0  0  0  0  0  0  0
  137.6460   69.2660  224.8660 C   0  0  0  0  0  0  0  0  0  0  0  0
  139.0180   68.6660  224.9400 C   0  0  0  0  0  0  0  0  0  0  0  0
  139.9470   69.8160  224.7000 C   0  0  2  0  0  0  0  0  0  0  0  0
  140.3160   70.5290  225.9590 C   0  0  0  0  0  0  0  0  0  0  0  0
  141.1500   71.6190  225.9960 C   0  0  0  0  0  0  0  0  0  0  0  0
  141.4500   72.2450  227.1890 C   0  0  0  0  0  0  0  0  0  0  0  0
  140.9140   71.7810  228.3720 C   0  0  0  0  0  0  0  0  0  0  0  0
  140.0790   70.6800  228.2850 C   0  0  0  0  0  0  0  0  0  0  0  0
  139.7950   70.0810  227.1150 N   0  0  0  0  0  0  0  0  0  0  0  0
  140.7380   75.9180  221.5970 C   0  0  0  0  0  0  0  0  0  0  0  0
  141.0640   76.5230  220.4000 C   0  0  0  0  0  0  0  0  0  0  0  0
  141.4250   77.8530  220.3370 C   0  0  0  0  0  0  0  0  0  0  0  0
  141.4620   78.5910  221.4970 C   0  0  0  0  0  0  0  0  0  0  0  0
  141.8250   79.9320  221.4470 C   0  0  0  0  0  0  0  0  0  0  0  0
  141.8480   80.6370  222.6350 C   0  0  0  0  0  0  0  0  0  0  0  0
  142.2030   81.9610  222.6090 F   0  0  0  0  0  0  0  0  0  0  0  0
  141.5180   80.0110  223.8270 C   0  0  0  0  0  0  0  0  0  0  0  0
  141.1600   78.6710  223.8510 C   0  0  0  0  0  0  0  0  0  0  0  0
  141.1320   77.9560  222.6750 C   0  0  0  0  0  0  0  0  0  0  0  0
  140.7800   76.6480  222.7050 N   0  0  0  0  0  0  0  0  0  0  0  0
  138.7270   74.6530  222.9220 H   0  0  0  0  0  0  0  0  0  0  0  0
  137.9287   72.4378  222.4555 H   0  0  0  0  0  0  0  0  0  0  0  0
  139.2115   72.3061  221.1632 H   0  0  0  0  0  0  0  0  0  0  0  0
  137.2361   71.2785  224.2424 H   0  0  0  0  0  0  0  0  0  0  0  0
  137.4307   70.1289  222.9006 H   0  0  0  0  0  0  0  0  0  0  0  0
  137.3245   69.6328  225.8520 H   0  0  0  0  0  0  0  0  0  0  0  0
  136.8804   68.5420  224.5502 H   0  0  0  0  0  0  0  0  0  0  0  0
  139.1955   68.2239  225.9315 H   0  0  0  0  0  0  0  0  0  0  0  0
  139.1591   67.8563  224.2089 H   0  0  0  0  0  0  0  0  0  0  0  0
  140.8886   69.4566  224.2594 H   0  0  0  0  0  0  0  0  0  0  0  0
  141.5859   71.9993  225.0604 H   0  0  0  0  0  0  0  0  0  0  0  0
  142.1195   73.1178  227.1962 H   0  0  0  0  0  0  0  0  0  0  0  0
  141.1385   72.2613  229.3358 H   0  0  0  0  0  0  0  0  0  0  0  0
  139.6314   70.2805  229.2070 H   0  0  0  0  0  0  0  0  0  0  0  0
  141.0352   75.9303  219.4738 H   0  0  0  0  0  0  0  0  0  0  0  0
  141.6797   78.3167  219.3726 H   0  0  0  0  0  0  0  0  0  0  0  0
  142.0851   80.4155  220.4938 H   0  0  0  0  0  0  0  0  0  0  0  0
  141.5403   80.5841  224.7657 H   0  0  0  0  0  0  0  0  0  0  0  0
  140.9005   78.1836  224.8024 H   0  0  0  0  0  0  0  0  0  0  0  0
  1  2  2  0
  2  3  1  0
  3  4  1  0
  4  5  1  0
  5  6  2  0
  5  7  1  0
  7  8  1  0
  8  9  1  0
  9 10  1  0
 10 11  1  0
 11 12  1  0
 12 13  2  0
 13 14  1  0
 14 15  2  0
 15 16  1  0
 16 17  2  0
  2 18  1  0
 18 19  2  0
 19 20  1  0
 20 21  2  0
 21 22  1  0
 22 23  2  0
 23 24  1  0
 23 25  1  0
 25 26  2  0
 26 27  1  0
 27 28  2  0
 11  7  1  0
 17 12  1  0
 28 18  1  0
 27 21  1  0
  3 29  1  0
  4 30  1  0
  4 31  1  0
  8 32  1  0
  8 33  1  0
  9 34  1  0
  9 35  1  0
 10 36  1  0
 10 37  1  0
 11 38  1  6
 13 39  1  0
 14 40  1  0
 15 41  1  0
 16 42  1  0
 19 43  1  0
 20 44  1  0
 22 45  1  0
 25 46  1  0
 26 47  1  0
M  END
>  <smiles>  (33) 
O=C(NCC(=O)N1CCCC1c1ccccn1)c1ccc2cc(F)ccc2n1

>  <score_type>  (33) 
oracle

>  <origin>  (33) 
autodockgpu

>  <m_score__min__energy>  (33) 
-9.0099999999999998

>  <m_primary>  (33) 
energy

>  <rmsd>  (33) 
9.176652347663072

>  <m_score__min__rmsd>  (33) 
9.176652347663072

>  <meeko>  (33) 
{"free_energy": -8.81, "intermolecular_energy": -10.3, "internal_energy": -1.28, "cluster_size": 14, "cluster_id": 2, "rank_in_cluster": 2}

>  <energy>  (33) 
-8.78

>  <cluster_rmsd>  (33) 
0.58

>  <cluster>  (33) 
2

$$$$

     RDKit          3D

 47 50  0  0  0  0  0  0  0  0999 V2000
  141.2070   72.0250  221.5520 O   0  0  0  0  0  0  0  0  0  0  0  0
  140.3760   72.2880  222.4610 C   0  0  0  0  0  0  0  0  0  0  0  0
  139.5670   73.4560  222.2390 N   0  0  0  0  0  0  0  0  0  0  0  0
  139.7840   74.1850  221.0320 C   0  0  0  0  0  0  0  0  0  0  0  0
  140.7710   75.2830  221.1790 C   0  0  0  0  0  0  0  0  0  0  0  0
  140.8930   75.8150  222.3260 O   0  0  0  0  0  0  0  0  0  0  0  0
  141.5340   75.7020  220.0560 N   0  0  0  0  0  0  0  0  0  0  0  0
  141.0330   75.9350  218.7220 C   0  0  0  0  0  0  0  0  0  0  0  0
  142.2130   76.3190  217.8730 C   0  0  0  0  0  0  0  0  0  0  0  0
  143.2390   76.7660  218.8720 C   0  0  0  0  0  0  0  0  0  0  0  0
  142.9500   75.9560  220.0980 C   0  0  2  0  0  0  0  0  0  0  0  0
  143.6770   74.6520  220.1080 C   0  0  0  0  0  0  0  0  0  0  0  0
  144.9780   74.5120  220.5230 C   0  0  0  0  0  0  0  0  0  0  0  0
  145.5980   73.2780  220.5200 C   0  0  0  0  0  0  0  0  0  0  0  0
  144.9140   72.1580  220.0960 C   0  0  0  0  0  0  0  0  0  0  0  0
  143.6050   72.3480  219.6870 C   0  0  0  0  0  0  0  0  0  0  0  0
  143.0140   73.5560  219.6960 N   0  0  0  0  0  0  0  0  0  0  0  0
  140.2260   71.4790  223.6660 C   0  0  0  0  0  0  0  0  0  0  0  0
  139.5670   70.2740  223.5290 C   0  0  0  0  0  0  0  0  0  0  0  0
  139.3700   69.4330  224.6050 C   0  0  0  0  0  0  0  0  0  0  0  0
  139.8420   69.8070  225.8410 C   0  0  0  0  0  0  0  0  0  0  0  0
  139.6500   68.9680  226.9330 C   0  0  0  0  0  0  0  0  0  0  0  0
  140.1410   69.3820  228.1560 C   0  0  0  0  0  0  0  0  0  0  0  0
  139.9620   68.5710  229.2460 F   0  0  0  0  0  0  0  0  0  0  0  0
  140.7990   70.5960  228.2710 C   0  0  0  0  0  0  0  0  0  0  0  0
  140.9790   71.4160  227.1680 C   0  0  0  0  0  0  0  0  0  0  0  0
  140.4950   71.0170  225.9420 C   0  0  0  0  0  0  0  0  0  0  0  0
  140.6730   71.8220  224.8670 N   0  0  0  0  0  0  0  0  0  0  0  0
  138.8570   73.7230  222.9640 H   0  0  0  0  0  0  0  0  0  0  0  0
  140.1494   73.4876  220.2638 H   0  0  0  0  0  0  0  0  0  0  0  0
  138.8246   74.6446  220.7520 H   0  0  0  0  0  0  0  0  0  0  0  0
  140.5655   75.0204  218.3284 H   0  0  0  0  0  0  0  0  0  0  0  0
  140.2719   76.7291  218.7205 H   0  0  0  0  0  0  0  0  0  0  0  0
  142.5776   75.4570  217.2951 H   0  0  0  0  0  0  0  0  0  0  0  0
  141.9711   77.0964  217.1333 H   0  0  0  0  0  0  0  0  0  0  0  0
  144.2550   76.5626  218.5027 H   0  0  0  0  0  0  0  0  0  0  0  0
  143.1896   77.8477  219.0653 H   0  0  0  0  0  0  0  0  0  0  0  0
  143.2749   76.5001  220.9971 H   0  0  0  0  0  0  0  0  0  0  0  0
  145.5356   75.3970  220.8634 H   0  0  0  0  0  0  0  0  0  0  0  0
  146.6412   73.1881  220.8570 H   0  0  0  0  0  0  0  0  0  0  0  0
  145.3847   71.1639  220.0834 H   0  0  0  0  0  0  0  0  0  0  0  0
  143.0267   71.4783  219.3417 H   0  0  0  0  0  0  0  0  0  0  0  0
  139.1901   69.9773  222.5391 H   0  0  0  0  0  0  0  0  0  0  0  0
  138.8425   68.4764  224.4757 H   0  0  0  0  0  0  0  0  0  0  0  0
  139.1250   68.0073  226.8267 H   0  0  0  0  0  0  0  0  0  0  0  0
  141.1839   70.9135  229.2513 H   0  0  0  0  0  0  0  0  0  0  0  0
  141.5039   72.3772  227.2711 H   0  0  0  0  0  0  0  0  0  0  0  0
  1  2  2  0
  2  3  1  0
  3  4  1  0
  4  5  1  0
  5  6  2  0
  5  7  1  0
  7  8  1  0
  8  9  1  0
  9 10  1  0
 10 11  1  0
 11 12  1  0
 12 13  2  0
 13 14  1  0
 14 15  2  0
 15 16  1  0
 16 17  2  0
  2 18  1  0
 18 19  2  0
 19 20  1  0
 20 21  2  0
 21 22  1  0
 22 23  2  0
 23 24  1  0
 23 25  1  0
 25 26  2  0
 26 27  1  0
 27 28  2  0
 11  7  1  0
 17 12  1  0
 28 18  1  0
 27 21  1  0
  3 29  1  0
  4 30  1  0
  4 31  1  0
  8 32  1  0
  8 33  1  0
  9 34  1  0
  9 35  1  0
 10 36  1  0
 10 37  1  0
 11 38  1  1
 13 39  1  0
 14 40  1  0
 15 41  1  0
 16 42  1  0
 19 43  1  0
 20 44  1  0
 22 45  1  0
 25 46  1  0
 26 47  1  0
M  END
>  <smiles>  (34) 
O=C(NCC(=O)N1CCCC1c1ccccn1)c1ccc2cc(F)ccc2n1

>  <score_type>  (34) 
oracle

>  <origin>  (34) 
autodockgpu

>  <m_score__min__energy>  (34) 
-9.0099999999999998

>  <m_primary>  (34) 
energy

>  <rmsd>  (34) 
4.004730229012266

>  <m_score__min__rmsd>  (34) 
4.004730229012266

>  <meeko>  (34) 
{"free_energy": -8.16, "intermolecular_energy": -9.65, "internal_energy": -1.68, "cluster_size": 8, "cluster_id": 3, "rank_in_cluster": 6}

>  <energy>  (34) 
-8.7

>  <cluster_rmsd>  (34) 
0.43

>  <cluster>  (34) 
2

$$$$

     RDKit          3D

 47 50  0  0  0  0  0  0  0  0999 V2000
  141.1030   72.2310  221.5470 O   0  0  0  0  0  0  0  0  0  0  0  0
  140.2890   72.4130  222.4910 C   0  0  0  0  0  0  0  0  0  0  0  0
  139.4110   73.5420  222.3390 N   0  0  0  0  0  0  0  0  0  0  0  0
  139.5490   74.3270  221.1560 C   0  0  0  0  0  0  0  0  0  0  0  0
  139.9190   75.7380  221.4260 C   0  0  0  0  0  0  0  0  0  0  0  0
  139.2290   76.3730  222.2810 O   0  0  0  0  0  0  0  0  0  0  0  0
  141.0130   76.3250  220.7350 N   0  0  0  0  0  0  0  0  0  0  0  0
  142.1930   75.6400  220.2630 C   0  0  0  0  0  0  0  0  0  0  0  0
  143.0800   76.6790  219.6350 C   0  0  0  0  0  0  0  0  0  0  0  0
  142.1440   77.8130  219.3380 C   0  0  0  0  0  0  0  0  0  0  0  0
  141.0940   77.7240  220.4030 C   0  0  2  0  0  0  0  0  0  0  0  0
  141.4530   78.4940  221.6300 C   0  0  0  0  0  0  0  0  0  0  0  0
  141.4390   77.9560  222.8930 C   0  0  0  0  0  0  0  0  0  0  0  0
  141.7900   78.7140  223.9930 C   0  0  0  0  0  0  0  0  0  0  0  0
  142.1620   80.0330  223.8380 C   0  0  0  0  0  0  0  0  0  0  0  0
  142.1610   80.5310  222.5460 C   0  0  0  0  0  0  0  0  0  0  0  0
  141.8170   79.7810  221.4850 N   0  0  0  0  0  0  0  0  0  0  0  0
  140.2220   71.5530  223.6670 C   0  0  0  0  0  0  0  0  0  0  0  0
  139.6320   70.3160  223.5020 C   0  0  0  0  0  0  0  0  0  0  0  0
  139.5160   69.4250  224.5490 C   0  0  0  0  0  0  0  0  0  0  0  0
  140.0010   69.7820  225.7860 C   0  0  0  0  0  0  0  0  0  0  0  0
  139.8900   68.8930  226.8490 C   0  0  0  0  0  0  0  0  0  0  0  0
  140.3910   69.2900  228.0740 C   0  0  0  0  0  0  0  0  0  0  0  0
  140.2920   68.4300  229.1370 F   0  0  0  0  0  0  0  0  0  0  0  0
  140.9790   70.5370  228.2190 C   0  0  0  0  0  0  0  0  0  0  0  0
  141.0770   71.4070  227.1430 C   0  0  0  0  0  0  0  0  0  0  0  0
  140.5830   71.0250  225.9160 C   0  0  0  0  0  0  0  0  0  0  0  0
  140.6830   71.8780  224.8680 N   0  0  0  0  0  0  0  0  0  0  0  0
  138.7110   73.7420  223.0950 H   0  0  0  0  0  0  0  0  0  0  0  0
  140.3305   73.8757  220.5271 H   0  0  0  0  0  0  0  0  0  0  0  0
  138.5688   74.3378  220.6568 H   0  0  0  0  0  0  0  0  0  0  0  0
  142.7124   75.1579  221.1043 H   0  0  0  0  0  0  0  0  0  0  0  0
  141.9294   74.8568  219.5370 H   0  0  0  0  0  0  0  0  0  0  0  0
  143.8695   76.9945  220.3330 H   0  0  0  0  0  0  0  0  0  0  0  0
  143.6005   76.3100  218.7389 H   0  0  0  0  0  0  0  0  0  0  0  0
  142.6717   78.7767  219.3923 H   0  0  0  0  0  0  0  0  0  0  0  0
  141.7184   77.7489  218.3257 H   0  0  0  0  0  0  0  0  0  0  0  0
  140.1471   78.1477  220.0373 H   0  0  0  0  0  0  0  0  0  0  0  0
  141.1438   76.9054  223.0310 H   0  0  0  0  0  0  0  0  0  0  0  0
  141.7728   78.2639  224.9966 H   0  0  0  0  0  0  0  0  0  0  0  0
  142.4453   80.6580  224.6977 H   0  0  0  0  0  0  0  0  0  0  0  0
  142.4524   81.5789  222.3819 H   0  0  0  0  0  0  0  0  0  0  0  0
  139.2450   70.0338  222.5118 H   0  0  0  0  0  0  0  0  0  0  0  0
  139.0428   68.4437  224.3970 H   0  0  0  0  0  0  0  0  0  0  0  0
  139.4194   67.9072  226.7193 H   0  0  0  0  0  0  0  0  0  0  0  0
  141.3730   70.8406  229.2001 H   0  0  0  0  0  0  0  0  0  0  0  0
  141.5456   72.3942  227.2691 H   0  0  0  0  0  0  0  0  0  0  0  0
  1  2  2  0
  2  3  1  0
  3  4  1  0
  4  5  1  0
  5  6  2  0
  5  7  1  0
  7  8  1  0
  8  9  1  0
  9 10  1  0
 10 11  1  0
 11 12  1  0
 12 13  2  0
 13 14  1  0
 14 15  2  0
 15 16  1  0
 16 17  2  0
  2 18  1  0
 18 19  2  0
 19 20  1  0
 20 21  2  0
 21 22  1  0
 22 23  2  0
 23 24  1  0
 23 25  1  0
 25 26  2  0
 26 27  1  0
 27 28  2  0
 11  7  1  0
 17 12  1  0
 28 18  1  0
 27 21  1  0
  3 29  1  0
  4 30  1  0
  4 31  1  0
  8 32  1  0
  8 33  1  0
  9 34  1  0
  9 35  1  0
 10 36  1  0
 10 37  1  0
 11 38  1  6
 13 39  1  0
 14 40  1  0
 15 41  1  0
 16 42  1  0
 19 43  1  0
 20 44  1  0
 22 45  1  0
 25 46  1  0
 26 47  1  0
M  END
>  <smiles>  (35) 
O=C(NCC(=O)N1CCCC1c1ccccn1)c1ccc2cc(F)ccc2n1

>  <score_type>  (35) 
oracle

>  <origin>  (35) 
autodockgpu

>  <m_score__min__energy>  (35) 
-9.0099999999999998

>  <m_primary>  (35) 
energy

>  <rmsd>  (35) 
2.5997322575000967

>  <m_score__min__rmsd>  (35) 
2.5997322575000967

>  <meeko>  (35) 
{"free_energy": -8.92, "intermolecular_energy": -10.41, "internal_energy": -1.23, "cluster_size": 26, "cluster_id": 1, "rank_in_cluster": 7}

>  <energy>  (35) 
-8.69

>  <cluster_rmsd>  (35) 
0.63

>  <cluster>  (35) 
2

$$$$

     RDKit          3D

 47 50  0  0  0  0  0  0  0  0999 V2000
  140.8510   73.5250  220.6060 O   0  0  0  0  0  0  0  0  0  0  0  0
  140.3600   74.3530  221.4180 C   0  0  0  0  0  0  0  0  0  0  0  0
  139.3460   73.8310  222.2940 N   0  0  0  0  0  0  0  0  0  0  0  0
  139.0050   72.4530  222.1560 C   0  0  0  0  0  0  0  0  0  0  0  0
  139.7990   71.5600  223.0360 C   0  0  0  0  0  0  0  0  0  0  0  0
  141.0610   71.6970  223.0290 O   0  0  0  0  0  0  0  0  0  0  0  0
  139.1380   70.5980  223.8460 N   0  0  0  0  0  0  0  0  0  0  0  0
  137.7150   70.3550  223.8950 C   0  0  0  0  0  0  0  0  0  0  0  0
  137.4910   69.2800  224.9220 C   0  0  0  0  0  0  0  0  0  0  0  0
  138.8310   68.6200  225.0450 C   0  0  0  0  0  0  0  0  0  0  0  0
  139.8170   69.7100  224.7540 C   0  0  2  0  0  0  0  0  0  0  0  0
  140.2080   70.4720  225.9760 C   0  0  0  0  0  0  0  0  0  0  0  0
  141.0700   71.5410  225.9590 C   0  0  0  0  0  0  0  0  0  0  0  0
  141.3910   72.2140  227.1210 C   0  0  0  0  0  0  0  0  0  0  0  0
  140.8460   71.8220  228.3250 C   0  0  0  0  0  0  0  0  0  0  0  0
  139.9820   70.7410  228.2920 C   0  0  0  0  0  0  0  0  0  0  0  0
  139.6790   70.0930  227.1530 N   0  0  0  0  0  0  0  0  0  0  0  0
  140.7740   75.7500  221.4850 C   0  0  0  0  0  0  0  0  0  0  0  0
  141.5820   76.2110  220.4650 C   0  0  0  0  0  0  0  0  0  0  0  0
  142.0300   77.5150  220.4320 C   0  0  0  0  0  0  0  0  0  0  0  0
  141.6630   78.3740  221.4420 C   0  0  0  0  0  0  0  0  0  0  0  0
  142.1090   79.6900  221.4200 C   0  0  0  0  0  0  0  0  0  0  0  0
  141.7160   80.5200  222.4520 C   0  0  0  0  0  0  0  0  0  0  0  0
  142.1430   81.8220  222.4510 F   0  0  0  0  0  0  0  0  0  0  0  0
  140.9040   80.0370  223.4670 C   0  0  0  0  0  0  0  0  0  0  0  0
  140.4730   78.7190  223.4680 C   0  0  0  0  0  0  0  0  0  0  0  0
  140.8560   77.8810  222.4450 C   0  0  0  0  0  0  0  0  0  0  0  0
  140.4310   76.5940  222.4500 N   0  0  0  0  0  0  0  0  0  0  0  0
  138.9010   74.4760  222.9920 H   0  0  0  0  0  0  0  0  0  0  0  0
  137.9403   72.3305  222.4038 H   0  0  0  0  0  0  0  0  0  0  0  0
  139.2250   72.1658  221.1172 H   0  0  0  0  0  0  0  0  0  0  0  0
  137.1842   71.2733  224.1866 H   0  0  0  0  0  0  0  0  0  0  0  0
  137.3342   70.0449  222.9107 H   0  0  0  0  0  0  0  0  0  0  0  0
  137.1784   69.7147  225.8829 H   0  0  0  0  0  0  0  0  0  0  0  0
  136.6947   68.5771  224.6360 H   0  0  0  0  0  0  0  0  0  0  0  0
  138.9775   68.2249  226.0611 H   0  0  0  0  0  0  0  0  0  0  0  0
  138.9396   67.7655  224.3609 H   0  0  0  0  0  0  0  0  0  0  0  0
  140.7444   69.2827  224.3450 H   0  0  0  0  0  0  0  0  0  0  0  0
  141.5113   71.8659  225.0052 H   0  0  0  0  0  0  0  0  0  0  0  0
  142.0848   73.0669  227.0859 H   0  0  0  0  0  0  0  0  0  0  0  0
  141.0855   72.3419  229.2643 H   0  0  0  0  0  0  0  0  0  0  0  0
  139.5260   70.3990  229.2328 H   0  0  0  0  0  0  0  0  0  0  0  0
  141.8755   75.5219  219.6594 H   0  0  0  0  0  0  0  0  0  0  0  0
  142.6719   77.8634  219.6095 H   0  0  0  0  0  0  0  0  0  0  0  0
  142.7533   80.0584  220.6081 H   0  0  0  0  0  0  0  0  0  0  0  0
  140.5976   80.7086  224.2825 H   0  0  0  0  0  0  0  0  0  0  0  0
  139.8305   78.3462  224.2793 H   0  0  0  0  0  0  0  0  0  0  0  0
  1  2  2  0
  2  3  1  0
  3  4  1  0
  4  5  1  0
  5  6  2  0
  5  7  1  0
  7  8  1  0
  8  9  1  0
  9 10  1  0
 10 11  1  0
 11 12  1  0
 12 13  2  0
 13 14  1  0
 14 15  2  0
 15 16  1  0
 16 17  2  0
  2 18  1  0
 18 19  2  0
 19 20  1  0
 20 21  2  0
 21 22  1  0
 22 23  2  0
 23 24  1  0
 23 25  1  0
 25 26  2  0
 26 27  1  0
 27 28  2  0
 11  7  1  0
 17 12  1  0
 28 18  1  0
 27 21  1  0
  3 29  1  0
  4 30  1  0
  4 31  1  0
  8 32  1  0
  8 33  1  0
  9 34  1  0
  9 35  1  0
 10 36  1  0
 10 37  1  0
 11 38  1  6
 13 39  1  0
 14 40  1  0
 15 41  1  0
 16 42  1  0
 19 43  1  0
 20 44  1  0
 22 45  1  0
 25 46  1  0
 26 47  1  0
M  END
>  <smiles>  (36) 
O=C(NCC(=O)N1CCCC1c1ccccn1)c1ccc2cc(F)ccc2n1

>  <score_type>  (36) 
oracle

>  <origin>  (36) 
autodockgpu

>  <m_score__min__energy>  (36) 
-9.0099999999999998

>  <m_primary>  (36) 
energy

>  <rmsd>  (36) 
9.183625361833826

>  <m_score__min__rmsd>  (36) 
9.183625361833826

>  <meeko>  (36) 
{"free_energy": -8.68, "intermolecular_energy": -10.17, "internal_energy": -1.39, "cluster_size": 14, "cluster_id": 2, "rank_in_cluster": 11}

>  <energy>  (36) 
-8.69

>  <cluster_rmsd>  (36) 
0.42

>  <cluster>  (36) 
2

$$$$

     RDKit          3D

 47 50  0  0  0  0  0  0  0  0999 V2000
  141.2540   72.1840  221.6470 O   0  0  0  0  0  0  0  0  0  0  0  0
  140.3990   72.3920  222.5470 C   0  0  0  0  0  0  0  0  0  0  0  0
  139.5500   73.5340  222.3410 N   0  0  0  0  0  0  0  0  0  0  0  0
  139.7600   74.3030  221.1570 C   0  0  0  0  0  0  0  0  0  0  0  0
  140.1000   75.7210  221.4300 C   0  0  0  0  0  0  0  0  0  0  0  0
  139.4660   76.3100  222.3590 O   0  0  0  0  0  0  0  0  0  0  0  0
  141.1040   76.3670  220.6600 N   0  0  0  0  0  0  0  0  0  0  0  0
  142.2800   75.7460  220.0970 C   0  0  0  0  0  0  0  0  0  0  0  0
  143.0590   76.8320  219.4080 C   0  0  0  0  0  0  0  0  0  0  0  0
  142.0440   77.9130  219.1870 C   0  0  0  0  0  0  0  0  0  0  0  0
  141.0840   77.7680  220.3280 C   0  0  2  0  0  0  0  0  0  0  0  0
  141.4940   78.5560  221.5270 C   0  0  0  0  0  0  0  0  0  0  0  0
  141.9080   79.8640  221.4700 C   0  0  0  0  0  0  0  0  0  0  0  0
  142.2680   80.5470  222.6140 C   0  0  0  0  0  0  0  0  0  0  0  0
  142.2160   79.9230  223.8420 C   0  0  0  0  0  0  0  0  0  0  0  0
  141.7920   78.6050  223.8510 C   0  0  0  0  0  0  0  0  0  0  0  0
  141.4450   77.9520  222.7280 N   0  0  0  0  0  0  0  0  0  0  0  0
  140.2580   71.5470  223.7280 C   0  0  0  0  0  0  0  0  0  0  0  0
  139.6200   70.3350  223.5540 C   0  0  0  0  0  0  0  0  0  0  0  0
  139.4340   69.4600  224.6040 C   0  0  0  0  0  0  0  0  0  0  0  0
  139.8960   69.8070  225.8530 C   0  0  0  0  0  0  0  0  0  0  0  0
  139.7140   68.9340  226.9200 C   0  0  0  0  0  0  0  0  0  0  0  0
  140.1930   69.3210  228.1560 C   0  0  0  0  0  0  0  0  0  0  0  0
  140.0250   68.4760  229.2220 F   0  0  0  0  0  0  0  0  0  0  0  0
  140.8300   70.5420  228.3090 C   0  0  0  0  0  0  0  0  0  0  0  0
  140.9990   71.3970  227.2290 C   0  0  0  0  0  0  0  0  0  0  0  0
  140.5270   71.0250  225.9910 C   0  0  0  0  0  0  0  0  0  0  0  0
  140.6950   71.8620  224.9400 N   0  0  0  0  0  0  0  0  0  0  0  0
  138.8180   73.7560  223.0590 H   0  0  0  0  0  0  0  0  0  0  0  0
  140.5851   73.8496  220.5881 H   0  0  0  0  0  0  0  0  0  0  0  0
  138.8153   74.2975  220.5935 H   0  0  0  0  0  0  0  0  0  0  0  0
  142.8870   75.2926  220.8944 H   0  0  0  0  0  0  0  0  0  0  0  0
  142.0048   74.9493  219.3902 H   0  0  0  0  0  0  0  0  0  0  0  0
  143.8807   77.1901  220.0457 H   0  0  0  0  0  0  0  0  0  0  0  0
  143.5292   76.4917  218.4736 H   0  0  0  0  0  0  0  0  0  0  0  0
  142.5216   78.9038  219.2047 H   0  0  0  0  0  0  0  0  0  0  0  0
  141.5470   77.8255  218.2096 H   0  0  0  0  0  0  0  0  0  0  0  0
  140.0906   78.1400  220.0368 H   0  0  0  0  0  0  0  0  0  0  0  0
  141.9534   80.3755  220.4972 H   0  0  0  0  0  0  0  0  0  0  0  0
  142.5979   81.5941  222.5455 H   0  0  0  0  0  0  0  0  0  0  0  0
  142.4972   80.4458  224.7681 H   0  0  0  0  0  0  0  0  0  0  0  0
  141.7370   78.0726  224.8120 H   0  0  0  0  0  0  0  0  0  0  0  0
  139.2513   70.0607  222.5546 H   0  0  0  0  0  0  0  0  0  0  0  0
  138.9237   68.4986  224.4452 H   0  0  0  0  0  0  0  0  0  0  0  0
  139.2058   67.9680  226.7841 H   0  0  0  0  0  0  0  0  0  0  0  0
  141.2066   70.8374  229.2994 H   0  0  0  0  0  0  0  0  0  0  0  0
  141.5061   72.3641  227.3615 H   0  0  0  0  0  0  0  0  0  0  0  0
  1  2  2  0
  2  3  1  0
  3  4  1  0
  4  5  1  0
  5  6  2  0
  5  7  1  0
  7  8  1  0
  8  9  1  0
  9 10  1  0
 10 11  1  0
 11 12  1  0
 12 13  2  0
 13 14  1  0
 14 15  2  0
 15 16  1  0
 16 17  2  0
  2 18  1  0
 18 19  2  0
 19 20  1  0
 20 21  2  0
 21 22  1  0
 22 23  2  0
 23 24  1  0
 23 25  1  0
 25 26  2  0
 26 27  1  0
 27 28  2  0
 11  7  1  0
 17 12  1  0
 28 18  1  0
 27 21  1  0
  3 29  1  0
  4 30  1  0
  4 31  1  0
  8 32  1  0
  8 33  1  0
  9 34  1  0
  9 35  1  0
 10 36  1  0
 10 37  1  0
 11 38  1  6
 13 39  1  0
 14 40  1  0
 15 41  1  0
 16 42  1  0
 19 43  1  0
 20 44  1  0
 22 45  1  0
 25 46  1  0
 26 47  1  0
M  END
>  <smiles>  (37) 
O=C(NCC(=O)N1CCCC1c1ccccn1)c1ccc2cc(F)ccc2n1

>  <score_type>  (37) 
oracle

>  <origin>  (37) 
autodockgpu

>  <m_score__min__energy>  (37) 
-9.0099999999999998

>  <m_primary>  (37) 
energy

>  <rmsd>  (37) 
2.149627845596018

>  <m_score__min__rmsd>  (37) 
2.149627845596018

>  <meeko>  (37) 
{"free_energy": -8.96, "intermolecular_energy": -10.46, "internal_energy": -1.27, "cluster_size": 26, "cluster_id": 1, "rank_in_cluster": 5}

>  <energy>  (37) 
-8.68

>  <cluster_rmsd>  (37) 
0.43

>  <cluster>  (37) 
2

$$$$

     RDKit          3D

 47 50  0  0  0  0  0  0  0  0999 V2000
  140.8480   73.5650  220.5910 O   0  0  0  0  0  0  0  0  0  0  0  0
  140.3700   74.3870  221.4170 C   0  0  0  0  0  0  0  0  0  0  0  0
  139.3720   73.8580  222.3080 N   0  0  0  0  0  0  0  0  0  0  0  0
  139.0310   72.4800  222.1680 C   0  0  0  0  0  0  0  0  0  0  0  0
  139.8280   71.5860  223.0430 C   0  0  0  0  0  0  0  0  0  0  0  0
  141.0910   71.7220  223.0290 O   0  0  0  0  0  0  0  0  0  0  0  0
  139.1710   70.6220  223.8540 N   0  0  0  0  0  0  0  0  0  0  0  0
  137.7500   70.3730  223.9020 C   0  0  0  0  0  0  0  0  0  0  0  0
  137.5290   69.3000  224.9320 C   0  0  0  0  0  0  0  0  0  0  0  0
  138.8720   68.6460  225.0570 C   0  0  0  0  0  0  0  0  0  0  0  0
  139.8530   69.7400  224.7640 C   0  0  2  0  0  0  0  0  0  0  0  0
  140.2400   70.5060  225.9850 C   0  0  0  0  0  0  0  0  0  0  0  0
  141.0950   71.5810  225.9660 C   0  0  0  0  0  0  0  0  0  0  0  0
  141.4120   72.2590  227.1260 C   0  0  0  0  0  0  0  0  0  0  0  0
  140.8700   71.8650  228.3310 C   0  0  0  0  0  0  0  0  0  0  0  0
  140.0140   70.7770  228.3010 C   0  0  0  0  0  0  0  0  0  0  0  0
  139.7150   70.1260  227.1630 N   0  0  0  0  0  0  0  0  0  0  0  0
  140.7830   75.7840  221.4850 C   0  0  0  0  0  0  0  0  0  0  0  0
  141.5890   76.2460  220.4650 C   0  0  0  0  0  0  0  0  0  0  0  0
  142.0370   77.5500  220.4320 C   0  0  0  0  0  0  0  0  0  0  0  0
  141.6700   78.4090  221.4430 C   0  0  0  0  0  0  0  0  0  0  0  0
  142.1140   79.7260  221.4220 C   0  0  0  0  0  0  0  0  0  0  0  0
  141.7220   80.5540  222.4560 C   0  0  0  0  0  0  0  0  0  0  0  0
  142.1480   81.8560  222.4550 F   0  0  0  0  0  0  0  0  0  0  0  0
  140.9120   80.0690  223.4710 C   0  0  0  0  0  0  0  0  0  0  0  0
  140.4810   78.7510  223.4700 C   0  0  0  0  0  0  0  0  0  0  0  0
  140.8640   77.9140  222.4470 C   0  0  0  0  0  0  0  0  0  0  0  0
  140.4400   76.6270  222.4510 N   0  0  0  0  0  0  0  0  0  0  0  0
  138.9380   74.4990  223.0180 H   0  0  0  0  0  0  0  0  0  0  0  0
  137.9672   72.3564  222.4191 H   0  0  0  0  0  0  0  0  0  0  0  0
  139.2475   72.1951  221.1278 H   0  0  0  0  0  0  0  0  0  0  0  0
  137.2148   71.2899  224.1901 H   0  0  0  0  0  0  0  0  0  0  0  0
  137.3720   70.0581  222.9181 H   0  0  0  0  0  0  0  0  0  0  0  0
  137.2142   69.7361  225.8915 H   0  0  0  0  0  0  0  0  0  0  0  0
  136.7353   68.5933  224.6481 H   0  0  0  0  0  0  0  0  0  0  0  0
  139.0199   68.2537  226.0740 H   0  0  0  0  0  0  0  0  0  0  0  0
  138.9848   67.7904  224.3749 H   0  0  0  0  0  0  0  0  0  0  0  0
  140.7827   69.3165  224.3562 H   0  0  0  0  0  0  0  0  0  0  0  0
  141.5340   71.9067  225.0114 H   0  0  0  0  0  0  0  0  0  0  0  0
  142.0996   73.1168  227.0888 H   0  0  0  0  0  0  0  0  0  0  0  0
  141.1058   72.3887  229.2692 H   0  0  0  0  0  0  0  0  0  0  0  0
  139.5619   70.4325  229.2428 H   0  0  0  0  0  0  0  0  0  0  0  0
  141.8814   75.5576  219.6584 H   0  0  0  0  0  0  0  0  0  0  0  0
  142.6786   77.8987  219.6093 H   0  0  0  0  0  0  0  0  0  0  0  0
  142.7560   80.0965  220.6093 H   0  0  0  0  0  0  0  0  0  0  0  0
  140.6069   80.7389  224.2884 H   0  0  0  0  0  0  0  0  0  0  0  0
  139.8380   78.3775  224.2806 H   0  0  0  0  0  0  0  0  0  0  0  0
  1  2  2  0
  2  3  1  0
  3  4  1  0
  4  5  1  0
  5  6  2  0
  5  7  1  0
  7  8  1  0
  8  9  1  0
  9 10  1  0
 10 11  1  0
 11 12  1  0
 12 13  2  0
 13 14  1  0
 14 15  2  0
 15 16  1  0
 16 17  2  0
  2 18  1  0
 18 19  2  0
 19 20  1  0
 20 21  2  0
 21 22  1  0
 22 23  2  0
 23 24  1  0
 23 25  1  0
 25 26  2  0
 26 27  1  0
 27 28  2  0
 11  7  1  0
 17 12  1  0
 28 18  1  0
 27 21  1  0
  3 29  1  0
  4 30  1  0
  4 31  1  0
  8 32  1  0
  8 33  1  0
  9 34  1  0
  9 35  1  0
 10 36  1  0
 10 37  1  0
 11 38  1  6
 13 39  1  0
 14 40  1  0
 15 41  1  0
 16 42  1  0
 19 43  1  0
 20 44  1  0
 22 45  1  0
 25 46  1  0
 26 47  1  0
M  END
>  <smiles>  (38) 
O=C(NCC(=O)N1CCCC1c1ccccn1)c1ccc2cc(F)ccc2n1

>  <score_type>  (38) 
oracle

>  <origin>  (38) 
autodockgpu

>  <m_score__min__energy>  (38) 
-9.0099999999999998

>  <m_primary>  (38) 
energy

>  <rmsd>  (38) 
9.184556246773411

>  <m_score__min__rmsd>  (38) 
9.184556246773411

>  <meeko>  (38) 
{"free_energy": -8.69, "intermolecular_energy": -10.18, "internal_energy": -1.39, "cluster_size": 14, "cluster_id": 2, "rank_in_cluster": 10}

>  <energy>  (38) 
-8.67

>  <cluster_rmsd>  (38) 
0.43

>  <cluster>  (38) 
2

$$$$

     RDKit          3D

 47 50  0  0  0  0  0  0  0  0999 V2000
  141.0880   72.2950  221.3160 O   0  0  0  0  0  0  0  0  0  0  0  0
  140.4100   72.5760  222.3400 C   0  0  0  0  0  0  0  0  0  0  0  0
  139.7930   73.8750  222.3340 N   0  0  0  0  0  0  0  0  0  0  0  0
  140.0070   74.6980  221.1880 C   0  0  0  0  0  0  0  0  0  0  0  0
  140.4420   76.0750  221.5270 C   0  0  0  0  0  0  0  0  0  0  0  0
  140.2140   76.4910  222.7050 O   0  0  0  0  0  0  0  0  0  0  0  0
  141.0890   76.8730  220.5450 N   0  0  0  0  0  0  0  0  0  0  0  0
  142.2130   76.4780  219.7290 C   0  0  0  0  0  0  0  0  0  0  0  0
  142.5700   77.6640  218.8760 C   0  0  0  0  0  0  0  0  0  0  0  0
  141.3270   78.5000  218.8910 C   0  0  0  0  0  0  0  0  0  0  0  0
  140.7000   78.2210  220.2220 C   0  0  2  0  0  0  0  0  0  0  0  0
  141.1910   79.1370  221.2930 C   0  0  0  0  0  0  0  0  0  0  0  0
  140.7570   80.4310  221.4420 C   0  0  0  0  0  0  0  0  0  0  0  0
  141.2410   81.2320  222.4570 C   0  0  0  0  0  0  0  0  0  0  0  0
  142.1740   80.7410  223.3450 C   0  0  0  0  0  0  0  0  0  0  0  0
  142.5820   79.4310  223.1550 C   0  0  0  0  0  0  0  0  0  0  0  0
  142.1020   78.6630  222.1620 N   0  0  0  0  0  0  0  0  0  0  0  0
  140.2480   71.6650  223.4670 C   0  0  0  0  0  0  0  0  0  0  0  0
  139.5670   70.4890  223.2250 C   0  0  0  0  0  0  0  0  0  0  0  0
  139.3580   69.5580  224.2210 C   0  0  0  0  0  0  0  0  0  0  0  0
  139.8390   69.8110  225.4850 C   0  0  0  0  0  0  0  0  0  0  0  0
  139.6340   68.8800  226.4970 C   0  0  0  0  0  0  0  0  0  0  0  0
  140.1350   69.1730  227.7510 C   0  0  0  0  0  0  0  0  0  0  0  0
  139.9450   68.2700  228.7640 F   0  0  0  0  0  0  0  0  0  0  0  0
  140.8160   70.3600  227.9730 C   0  0  0  0  0  0  0  0  0  0  0  0
  141.0070   71.2740  226.9460 C   0  0  0  0  0  0  0  0  0  0  0  0
  140.5140   70.9950  225.6920 C   0  0  0  0  0  0  0  0  0  0  0  0
  140.7040   71.8900  224.6930 N   0  0  0  0  0  0  0  0  0  0  0  0
  139.2150   74.1630  223.1610 H   0  0  0  0  0  0  0  0  0  0  0  0
  140.7822   74.2310  220.5627 H   0  0  0  0  0  0  0  0  0  0  0  0
  139.0443   74.7808  220.6622 H   0  0  0  0  0  0  0  0  0  0  0  0
  143.0650   76.2005  220.3671 H   0  0  0  0  0  0  0  0  0  0  0  0
  141.9616   75.6063  219.1070 H   0  0  0  0  0  0  0  0  0  0  0  0
  143.4187   78.2155  219.3067 H   0  0  0  0  0  0  0  0  0  0  0  0
  142.8801   77.3799  217.8596 H   0  0  0  0  0  0  0  0  0  0  0  0
  141.5756   79.5672  218.7950 H   0  0  0  0  0  0  0  0  0  0  0  0
  140.6537   78.2613  218.0545 H   0  0  0  0  0  0  0  0  0  0  0  0
  139.6112   78.3667  220.1651 H   0  0  0  0  0  0  0  0  0  0  0  0
  140.0118   80.8360  220.7415 H   0  0  0  0  0  0  0  0  0  0  0  0
  140.8806   82.2664  222.5575 H   0  0  0  0  0  0  0  0  0  0  0  0
  142.5742   81.3581  224.1629 H   0  0  0  0  0  0  0  0  0  0  0  0
  143.3266   79.0033  223.8425 H   0  0  0  0  0  0  0  0  0  0  0  0
  139.1819   70.2896  222.2141 H   0  0  0  0  0  0  0  0  0  0  0  0
  138.8142   68.6259  224.0077 H   0  0  0  0  0  0  0  0  0  0  0  0
  139.0916   67.9423  226.3060 H   0  0  0  0  0  0  0  0  0  0  0  0
  141.2101   70.5803  228.9761 H   0  0  0  0  0  0  0  0  0  0  0  0
  141.5479   72.2134  227.1330 H   0  0  0  0  0  0  0  0  0  0  0  0
  1  2  2  0
  2  3  1  0
  3  4  1  0
  4  5  1  0
  5  6  2  0
  5  7  1  0
  7  8  1  0
  8  9  1  0
  9 10  1  0
 10 11  1  0
 11 12  1  0
 12 13  2  0
 13 14  1  0
 14 15  2  0
 15 16  1  0
 16 17  2  0
  2 18  1  0
 18 19  2  0
 19 20  1  0
 20 21  2  0
 21 22  1  0
 22 23  2  0
 23 24  1  0
 23 25  1  0
 25 26  2  0
 26 27  1  0
 27 28  2  0
 11  7  1  0
 17 12  1  0
 28 18  1  0
 27 21  1  0
  3 29  1  0
  4 30  1  0
  4 31  1  0
  8 32  1  0
  8 33  1  0
  9 34  1  0
  9 35  1  0
 10 36  1  0
 10 37  1  0
 11 38  1  6
 13 39  1  0
 14 40  1  0
 15 41  1  0
 16 42  1  0
 19 43  1  0
 20 44  1  0
 22 45  1  0
 25 46  1  0
 26 47  1  0
M  END
>  <smiles>  (39) 
O=C(NCC(=O)N1CCCC1c1ccccn1)c1ccc2cc(F)ccc2n1

>  <score_type>  (39) 
oracle

>  <origin>  (39) 
autodockgpu

>  <m_score__min__energy>  (39) 
-9.0099999999999998

>  <m_primary>  (39) 
energy

>  <rmsd>  (39) 
2.132836505340539

>  <m_score__min__rmsd>  (39) 
2.132836505340539

>  <meeko>  (39) 
{"free_energy": -8.32, "intermolecular_energy": -9.81, "internal_energy": -1.48, "cluster_size": 26, "cluster_id": 1, "rank_in_cluster": 22}

>  <energy>  (39) 
-8.52

>  <cluster_rmsd>  (39) 
0.61

>  <cluster>  (39) 
2

$$$$

     RDKit          3D

 47 50  0  0  0  0  0  0  0  0999 V2000
  141.2560   72.5060  221.7740 O   0  0  0  0  0  0  0  0  0  0  0  0
  140.3080   72.5090  222.6030 C   0  0  0  0  0  0  0  0  0  0  0  0
  139.2740   73.4780  222.3550 N   0  0  0  0  0  0  0  0  0  0  0  0
  139.4250   74.3210  221.2150 C   0  0  0  0  0  0  0  0  0  0  0  0
  139.9470   75.6690  221.5460 C   0  0  0  0  0  0  0  0  0  0  0  0
  139.3800   76.3050  222.4880 O   0  0  0  0  0  0  0  0  0  0  0  0
  141.0440   76.2000  220.8160 N   0  0  0  0  0  0  0  0  0  0  0  0
  142.2250   75.4790  220.4050 C   0  0  0  0  0  0  0  0  0  0  0  0
  143.1160   76.4660  219.7010 C   0  0  0  0  0  0  0  0  0  0  0  0
  142.1830   77.5730  219.3120 C   0  0  0  0  0  0  0  0  0  0  0  0
  141.1280   77.5690  220.3750 C   0  0  2  0  0  0  0  0  0  0  0  0
  141.4830   78.4320  221.5400 C   0  0  0  0  0  0  0  0  0  0  0  0
  141.8480   79.7510  221.4230 C   0  0  0  0  0  0  0  0  0  0  0  0
  142.1570   80.5050  222.5370 C   0  0  0  0  0  0  0  0  0  0  0  0
  142.1050   79.9410  223.7950 C   0  0  0  0  0  0  0  0  0  0  0  0
  141.7320   78.6100  223.8630 C   0  0  0  0  0  0  0  0  0  0  0  0
  141.4330   77.8870  222.7690 N   0  0  0  0  0  0  0  0  0  0  0  0
  140.2400   71.6040  223.7440 C   0  0  0  0  0  0  0  0  0  0  0  0
  139.6660   70.3670  223.5260 C   0  0  0  0  0  0  0  0  0  0  0  0
  139.5520   69.4360  224.5370 C   0  0  0  0  0  0  0  0  0  0  0  0
  140.0220   69.7490  225.7920 C   0  0  0  0  0  0  0  0  0  0  0  0
  139.9130   68.8190  226.8190 C   0  0  0  0  0  0  0  0  0  0  0  0
  140.3980   69.1740  228.0630 C   0  0  0  0  0  0  0  0  0  0  0  0
  140.3000   68.2720  229.0900 F   0  0  0  0  0  0  0  0  0  0  0  0
  140.9710   70.4210  228.2600 C   0  0  0  0  0  0  0  0  0  0  0  0
  141.0680   71.3330  227.2200 C   0  0  0  0  0  0  0  0  0  0  0  0
  140.5890   70.9930  225.9750 C   0  0  0  0  0  0  0  0  0  0  0  0
  140.6870   71.8860  224.9620 N   0  0  0  0  0  0  0  0  0  0  0  0
  138.4590   73.5260  223.0150 H   0  0  0  0  0  0  0  0  0  0  0  0
  140.1228   73.8389  220.5145 H   0  0  0  0  0  0  0  0  0  0  0  0
  138.4254   74.4578  220.7768 H   0  0  0  0  0  0  0  0  0  0  0  0
  142.7401   75.0642  221.2840 H   0  0  0  0  0  0  0  0  0  0  0  0
  141.9642   74.6410  219.7419 H   0  0  0  0  0  0  0  0  0  0  0  0
  143.9026   76.8349  220.3756 H   0  0  0  0  0  0  0  0  0  0  0  0
  143.6400   76.0276  218.8389 H   0  0  0  0  0  0  0  0  0  0  0  0
  142.7114   78.5376  219.2930 H   0  0  0  0  0  0  0  0  0  0  0  0
  141.7620   77.4295  218.3059 H   0  0  0  0  0  0  0  0  0  0  0  0
  140.1835   77.9637  219.9724 H   0  0  0  0  0  0  0  0  0  0  0  0
  141.8948   80.2135  220.4261 H   0  0  0  0  0  0  0  0  0  0  0  0
  142.4459   81.5600  222.4213 H   0  0  0  0  0  0  0  0  0  0  0  0
  142.3477   80.5199  224.6983 H   0  0  0  0  0  0  0  0  0  0  0  0
  141.6780   78.1251  224.8489 H   0  0  0  0  0  0  0  0  0  0  0  0
  139.2909   70.1184  222.5223 H   0  0  0  0  0  0  0  0  0  0  0  0
  139.0915   68.4561  224.3428 H   0  0  0  0  0  0  0  0  0  0  0  0
  139.4559   67.8333  226.6472 H   0  0  0  0  0  0  0  0  0  0  0  0
  141.3540   70.6907  229.2553 H   0  0  0  0  0  0  0  0  0  0  0  0
  141.5238   72.3198  227.3884 H   0  0  0  0  0  0  0  0  0  0  0  0
  1  2  2  0
  2  3  1  0
  3  4  1  0
  4  5  1  0
  5  6  2  0
  5  7  1  0
  7  8  1  0
  8  9  1  0
  9 10  1  0
 10 11  1  0
 11 12  1  0
 12 13  2  0
 13 14  1  0
 14 15  2  0
 15 16  1  0
 16 17  2  0
  2 18  1  0
 18 19  2  0
 19 20  1  0
 20 21  2  0
 21 22  1  0
 22 23  2  0
 23 24  1  0
 23 25  1  0
 25 26  2  0
 26 27  1  0
 27 28  2  0
 11  7  1  0
 17 12  1  0
 28 18  1  0
 27 21  1  0
  3 29  1  0
  4 30  1  0
  4 31  1  0
  8 32  1  0
  8 33  1  0
  9 34  1  0
  9 35  1  0
 10 36  1  0
 10 37  1  0
 11 38  1  6
 13 39  1  0
 14 40  1  0
 15 41  1  0
 16 42  1  0
 19 43  1  0
 20 44  1  0
 22 45  1  0
 25 46  1  0
 26 47  1  0
M  END
>  <smiles>  (40) 
O=C(NCC(=O)N1CCCC1c1ccccn1)c1ccc2cc(F)ccc2n1

>  <score_type>  (40) 
oracle

>  <origin>  (40) 
autodockgpu

>  <m_score__min__energy>  (40) 
-9.0099999999999998

>  <m_primary>  (40) 
energy

>  <rmsd>  (40) 
2.138072025533606

>  <m_score__min__rmsd>  (40) 
2.138072025533606

>  <meeko>  (40) 
{"free_energy": -8.99, "intermolecular_energy": -10.49, "internal_energy": -1.27, "cluster_size": 26, "cluster_id": 1, "rank_in_cluster": 3}

>  <energy>  (40) 
-8.09

>  <cluster_rmsd>  (40) 
0.97

>  <cluster>  (40) 
2

$$$$

     RDKit          3D

 47 50  0  0  0  0  0  0  0  0999 V2000
  140.9650   72.0300  221.3640 O   0  0  0  0  0  0  0  0  0  0  0  0
  140.2650   72.3180  222.3700 C   0  0  0  0  0  0  0  0  0  0  0  0
  139.5070   73.5360  222.2680 N   0  0  0  0  0  0  0  0  0  0  0  0
  139.6250   74.2820  221.0580 C   0  0  0  0  0  0  0  0  0  0  0  0
  140.8340   75.1400  221.0110 C   0  0  0  0  0  0  0  0  0  0  0  0
  141.1650   75.7490  222.0750 O   0  0  0  0  0  0  0  0  0  0  0  0
  141.5730   75.2530  219.8030 N   0  0  0  0  0  0  0  0  0  0  0  0
  141.0970   74.9360  218.4770 C   0  0  0  0  0  0  0  0  0  0  0  0
  142.2420   75.1730  217.5330 C   0  0  0  0  0  0  0  0  0  0  0  0
  143.1530   76.0830  218.3010 C   0  0  0  0  0  0  0  0  0  0  0  0
  142.9360   75.7110  219.7350 C   0  0  2  0  0  0  0  0  0  0  0  0
  143.8400   74.6130  220.1880 C   0  0  0  0  0  0  0  0  0  0  0  0
  143.4390   73.3070  220.3190 C   0  0  0  0  0  0  0  0  0  0  0  0
  144.3220   72.3290  220.7340 C   0  0  0  0  0  0  0  0  0  0  0  0
  145.6300   72.6530  221.0250 C   0  0  0  0  0  0  0  0  0  0  0  0
  145.9890   73.9820  220.8780 C   0  0  0  0  0  0  0  0  0  0  0  0
  145.1180   74.9230  220.4730 N   0  0  0  0  0  0  0  0  0  0  0  0
  140.2090   71.4890  223.5690 C   0  0  0  0  0  0  0  0  0  0  0  0
  139.6120   70.2500  223.4430 C   0  0  0  0  0  0  0  0  0  0  0  0
  139.5060   69.3870  224.5140 C   0  0  0  0  0  0  0  0  0  0  0  0
  140.0070   69.7740  225.7360 C   0  0  0  0  0  0  0  0  0  0  0  0
  139.9070   68.9130  226.8230 C   0  0  0  0  0  0  0  0  0  0  0  0
  140.4230   69.3400  228.0310 C   0  0  0  0  0  0  0  0  0  0  0  0
  140.3350   68.5080  229.1160 F   0  0  0  0  0  0  0  0  0  0  0  0
  141.0180   70.5870  228.1360 C   0  0  0  0  0  0  0  0  0  0  0  0
  141.1070   71.4290  227.0370 C   0  0  0  0  0  0  0  0  0  0  0  0
  140.5960   71.0170  225.8260 C   0  0  0  0  0  0  0  0  0  0  0  0
  140.6860   71.8420  224.7560 N   0  0  0  0  0  0  0  0  0  0  0  0
  138.9050   73.8260  223.0780 H   0  0  0  0  0  0  0  0  0  0  0  0
  139.6655   73.5759  220.2155 H   0  0  0  0  0  0  0  0  0  0  0  0
  138.7515   74.9480  221.0004 H   0  0  0  0  0  0  0  0  0  0  0  0
  140.7802   73.8836  218.4305 H   0  0  0  0  0  0  0  0  0  0  0  0
  140.2315   75.5602  218.2101 H   0  0  0  0  0  0  0  0  0  0  0  0
  142.7485   74.2284  217.2857 H   0  0  0  0  0  0  0  0  0  0  0  0
  141.9209   75.6025  216.5726 H   0  0  0  0  0  0  0  0  0  0  0  0
  144.2013   75.9181  218.0112 H   0  0  0  0  0  0  0  0  0  0  0  0
  142.9412   77.1451  218.1086 H   0  0  0  0  0  0  0  0  0  0  0  0
  143.1462   76.5732  220.3849 H   0  0  0  0  0  0  0  0  0  0  0  0
  142.3981   73.0347  220.0899 H   0  0  0  0  0  0  0  0  0  0  0  0
  143.9802   71.2881  220.8326 H   0  0  0  0  0  0  0  0  0  0  0  0
  146.3526   71.8932  221.3575 H   0  0  0  0  0  0  0  0  0  0  0  0
  147.0245   74.2790  221.1006 H   0  0  0  0  0  0  0  0  0  0  0  0
  139.2115   69.9440  222.4653 H   0  0  0  0  0  0  0  0  0  0  0  0
  139.0279   68.4037  224.3930 H   0  0  0  0  0  0  0  0  0  0  0  0
  139.4330   67.9253  226.7244 H   0  0  0  0  0  0  0  0  0  0  0  0
  141.4254   70.9138  229.1041 H   0  0  0  0  0  0  0  0  0  0  0  0
  141.5814   72.4169  227.1318 H   0  0  0  0  0  0  0  0  0  0  0  0
  1  2  2  0
  2  3  1  0
  3  4  1  0
  4  5  1  0
  5  6  2  0
  5  7  1  0
  7  8  1  0
  8  9  1  0
  9 10  1  0
 10 11  1  0
 11 12  1  0
 12 13  2  0
 13 14  1  0
 14 15  2  0
 15 16  1  0
 16 17  2  0
  2 18  1  0
 18 19  2  0
 19 20  1  0
 20 21  2  0
 21 22  1  0
 22 23  2  0
 23 24  1  0
 23 25  1  0
 25 26  2  0
 26 27  1  0
 27 28  2  0
 11  7  1  0
 17 12  1  0
 28 18  1  0
 27 21  1  0
  3 29  1  0
  4 30  1  0
  4 31  1  0
  8 32  1  0
  8 33  1  0
  9 34  1  0
  9 35  1  0
 10 36  1  0
 10 37  1  0
 11 38  1  1
 13 39  1  0
 14 40  1  0
 15 41  1  0
 16 42  1  0
 19 43  1  0
 20 44  1  0
 22 45  1  0
 25 46  1  0
 26 47  1  0
M  END
>  <smiles>  (41) 
O=C(NCC(=O)N1CCCC1c1ccccn1)c1ccc2cc(F)ccc2n1

>  <score_type>  (41) 
oracle

>  <origin>  (41) 
autodockgpu

>  <m_score__min__energy>  (41) 
-9.0099999999999998

>  <m_primary>  (41) 
energy

>  <rmsd>  (41) 
4.054069981037869

>  <m_score__min__rmsd>  (41) 
4.054069981037869

>  <meeko>  (41) 
{"free_energy": -8.14, "intermolecular_energy": -9.63, "internal_energy": -1.61, "cluster_size": 8, "cluster_id": 3, "rank_in_cluster": 7}

>  <energy>  (41) 
-8.2

>  <cluster_rmsd>  (41) 
0.0

>  <cluster>  (41) 
3

$$$$

     RDKit          3D

 47 50  0  0  0  0  0  0  0  0999 V2000
  141.3590   72.0940  221.5430 O   0  0  0  0  0  0  0  0  0  0  0  0
  140.5980   72.4260  222.4900 C   0  0  0  0  0  0  0  0  0  0  0  0
  139.9450   73.6980  222.3410 N   0  0  0  0  0  0  0  0  0  0  0  0
  140.2200   74.4420  221.1540 C   0  0  0  0  0  0  0  0  0  0  0  0
  140.1070   75.9090  221.3410 C   0  0  0  0  0  0  0  0  0  0  0  0
  139.3250   76.3280  222.2500 O   0  0  0  0  0  0  0  0  0  0  0  0
  140.8600   76.7860  220.5160 N   0  0  0  0  0  0  0  0  0  0  0  0
  141.9070   76.4060  219.5970 C   0  0  0  0  0  0  0  0  0  0  0  0
  142.4340   77.6740  218.9850 C   0  0  0  0  0  0  0  0  0  0  0  0
  141.3300   78.6630  219.2120 C   0  0  0  0  0  0  0  0  0  0  0  0
  140.6750   78.2140  220.4820 C   0  0  2  0  0  0  0  0  0  0  0  0
  141.3050   78.8130  221.6960 C   0  0  0  0  0  0  0  0  0  0  0  0
  141.1690   78.2880  222.9570 C   0  0  0  0  0  0  0  0  0  0  0  0
  141.7820   78.8800  224.0440 C   0  0  0  0  0  0  0  0  0  0  0  0
  142.5450   80.0160  223.8780 C   0  0  0  0  0  0  0  0  0  0  0  0
  142.6530   80.5080  222.5880 C   0  0  0  0  0  0  0  0  0  0  0  0
  142.0510   79.9210  221.5390 N   0  0  0  0  0  0  0  0  0  0  0  0
  140.3790   71.5950  223.6680 C   0  0  0  0  0  0  0  0  0  0  0  0
  139.6730   70.4230  223.4830 C   0  0  0  0  0  0  0  0  0  0  0  0
  139.4090   69.5650  224.5300 C   0  0  0  0  0  0  0  0  0  0  0  0
  139.8620   69.8880  225.7890 C   0  0  0  0  0  0  0  0  0  0  0  0
  139.6020   69.0310  226.8520 C   0  0  0  0  0  0  0  0  0  0  0  0
  140.0750   69.3920  228.0990 C   0  0  0  0  0  0  0  0  0  0  0  0
  139.8310   68.5630  229.1620 F   0  0  0  0  0  0  0  0  0  0  0  0
  140.7820   70.5730  228.2640 C   0  0  0  0  0  0  0  0  0  0  0  0
  141.0280   71.4120  227.1870 C   0  0  0  0  0  0  0  0  0  0  0  0
  140.5630   71.0650  225.9390 C   0  0  0  0  0  0  0  0  0  0  0  0
  140.8060   71.8870  224.8900 N   0  0  0  0  0  0  0  0  0  0  0  0
  139.2990   74.0260  223.1000 H   0  0  0  0  0  0  0  0  0  0  0  0
  141.2439   74.2098  220.8259 H   0  0  0  0  0  0  0  0  0  0  0  0
  139.4684   74.1504  220.4056 H   0  0  0  0  0  0  0  0  0  0  0  0
  142.7113   75.8834  220.1354 H   0  0  0  0  0  0  0  0  0  0  0  0
  141.5227   75.7257  218.8227 H   0  0  0  0  0  0  0  0  0  0  0  0
  143.3588   77.9965  219.4857 H   0  0  0  0  0  0  0  0  0  0  0  0
  142.6921   77.5594  217.9219 H   0  0  0  0  0  0  0  0  0  0  0  0
  141.7359   79.6793  219.3228 H   0  0  0  0  0  0  0  0  0  0  0  0
  140.6239   78.7004  218.3693 H   0  0  0  0  0  0  0  0  0  0  0  0
  139.6198   78.5244  220.4940 H   0  0  0  0  0  0  0  0  0  0  0  0
  140.5626   77.3821  223.1041 H   0  0  0  0  0  0  0  0  0  0  0  0
  141.6608   78.4432  225.0463 H   0  0  0  0  0  0  0  0  0  0  0  0
  143.0429   80.5069  224.7272 H   0  0  0  0  0  0  0  0  0  0  0  0
  143.2539   81.4130  222.4152 H   0  0  0  0  0  0  0  0  0  0  0  0
  139.3122   70.1673  222.4758 H   0  0  0  0  0  0  0  0  0  0  0  0
  138.8446   68.6360  224.3614 H   0  0  0  0  0  0  0  0  0  0  0  0
  139.0390   68.0974  226.7055 H   0  0  0  0  0  0  0  0  0  0  0  0
  141.1529   70.8485  229.2623 H   0  0  0  0  0  0  0  0  0  0  0  0
  141.5900   72.3468  227.3293 H   0  0  0  0  0  0  0  0  0  0  0  0
  1  2  2  0
  2  3  1  0
  3  4  1  0
  4  5  1  0
  5  6  2  0
  5  7  1  0
  7  8  1  0
  8  9  1  0
  9 10  1  0
 10 11  1  0
 11 12  1  0
 12 13  2  0
 13 14  1  0
 14 15  2  0
 15 16  1  0
 16 17  2  0
  2 18  1  0
 18 19  2  0
 19 20  1  0
 20 21  2  0
 21 22  1  0
 22 23  2  0
 23 24  1  0
 23 25  1  0
 25 26  2  0
 26 27  1  0
 27 28  2  0
 11  7  1  0
 17 12  1  0
 28 18  1  0
 27 21  1  0
  3 29  1  0
  4 30  1  0
  4 31  1  0
  8 32  1  0
  8 33  1  0
  9 34  1  0
  9 35  1  0
 10 36  1  0
 10 37  1  0
 11 38  1  6
 13 39  1  0
 14 40  1  0
 15 41  1  0
 16 42  1  0
 19 43  1  0
 20 44  1  0
 22 45  1  0
 25 46  1  0
 26 47  1  0
M  END
>  <smiles>  (42) 
O=C(NCC(=O)N1CCCC1c1ccccn1)c1ccc2cc(F)ccc2n1

>  <score_type>  (42) 
oracle

>  <origin>  (42) 
autodockgpu

>  <m_score__min__energy>  (42) 
-9.0099999999999998

>  <m_primary>  (42) 
energy

>  <rmsd>  (42) 
2.6322265795257005

>  <m_score__min__rmsd>  (42) 
2.6322265795257005

>  <meeko>  (42) 
{"free_energy": -8.61, "intermolecular_energy": -10.1, "internal_energy": -1.38, "cluster_size": 26, "cluster_id": 1, "rank_in_cluster": 16}

>  <energy>  (42) 
-8.2

>  <cluster_rmsd>  (42) 
0.53

>  <cluster>  (42) 
3

$$$$

     RDKit          3D

 47 50  0  0  0  0  0  0  0  0999 V2000
  139.7900   71.7550  221.1450 O   0  0  0  0  0  0  0  0  0  0  0  0
  139.7460   72.2460  222.3040 C   0  0  0  0  0  0  0  0  0  0  0  0
  139.5640   73.6710  222.3650 N   0  0  0  0  0  0  0  0  0  0  0  0
  139.4540   74.3720  221.1280 C   0  0  0  0  0  0  0  0  0  0  0  0
  139.6990   75.8300  221.2550 C   0  0  0  0  0  0  0  0  0  0  0  0
  138.8530   76.5140  221.9090 O   0  0  0  0  0  0  0  0  0  0  0  0
  140.8490   76.4070  220.6530 N   0  0  0  0  0  0  0  0  0  0  0  0
  142.0610   75.7130  220.2860 C   0  0  0  0  0  0  0  0  0  0  0  0
  143.0020   76.7430  219.7270 C   0  0  0  0  0  0  0  0  0  0  0  0
  142.1010   77.8780  219.3450 C   0  0  0  0  0  0  0  0  0  0  0  0
  140.9650   77.8030  220.3190 C   0  0  2  0  0  0  0  0  0  0  0  0
  141.2260   78.5800  221.5660 C   0  0  0  0  0  0  0  0  0  0  0  0
  141.4590   77.9980  222.7880 C   0  0  0  0  0  0  0  0  0  0  0  0
  141.7020   78.7670  223.9080 C   0  0  0  0  0  0  0  0  0  0  0  0
  141.7150   80.1430  223.8170 C   0  0  0  0  0  0  0  0  0  0  0  0
  141.4750   80.6850  222.5660 C   0  0  0  0  0  0  0  0  0  0  0  0
  141.2400   79.9230  221.4830 N   0  0  0  0  0  0  0  0  0  0  0  0
  139.8690   71.4450  223.5160 C   0  0  0  0  0  0  0  0  0  0  0  0
  139.4590   70.1280  223.4380 C   0  0  0  0  0  0  0  0  0  0  0  0
  139.5320   69.2830  224.5260 C   0  0  0  0  0  0  0  0  0  0  0  0
  140.0260   69.7670  225.7160 C   0  0  0  0  0  0  0  0  0  0  0  0
  140.1040   68.9250  226.8200 C   0  0  0  0  0  0  0  0  0  0  0  0
  140.6060   69.4510  227.9950 C   0  0  0  0  0  0  0  0  0  0  0  0
  140.6930   68.6390  229.0960 F   0  0  0  0  0  0  0  0  0  0  0  0
  141.0120   70.7750  228.0520 C   0  0  0  0  0  0  0  0  0  0  0  0
  140.9240   71.5960  226.9370 C   0  0  0  0  0  0  0  0  0  0  0  0
  140.4260   71.0860  225.7590 C   0  0  0  0  0  0  0  0  0  0  0  0
  140.3420   71.8910  224.6730 N   0  0  0  0  0  0  0  0  0  0  0  0
  139.5200   74.1340  223.3060 H   0  0  0  0  0  0  0  0  0  0  0  0
  140.1888   73.9547  220.4238 H   0  0  0  0  0  0  0  0  0  0  0  0
  138.4206   74.2453  220.7729 H   0  0  0  0  0  0  0  0  0  0  0  0
  142.5060   75.2350  221.1712 H   0  0  0  0  0  0  0  0  0  0  0  0
  141.8550   74.9254  219.5462 H   0  0  0  0  0  0  0  0  0  0  0  0
  143.7321   77.0603  220.4862 H   0  0  0  0  0  0  0  0  0  0  0  0
  143.5934   76.3648  218.8801 H   0  0  0  0  0  0  0  0  0  0  0  0
  142.6277   78.8394  219.4359 H   0  0  0  0  0  0  0  0  0  0  0  0
  141.7609   77.8076  218.3013 H   0  0  0  0  0  0  0  0  0  0  0  0
  140.0541   78.2289  219.8730 H   0  0  0  0  0  0  0  0  0  0  0  0
  141.4518   76.9015  222.8754 H   0  0  0  0  0  0  0  0  0  0  0  0
  141.8860   78.2804  224.8772 H   0  0  0  0  0  0  0  0  0  0  0  0
  141.9065   80.7781  224.6945 H   0  0  0  0  0  0  0  0  0  0  0  0
  141.4766   81.7792  222.4536 H   0  0  0  0  0  0  0  0  0  0  0  0
  139.0649   69.7440  222.4855 H   0  0  0  0  0  0  0  0  0  0  0  0
  139.2002   68.2375  224.4437 H   0  0  0  0  0  0  0  0  0  0  0  0
  139.7773   67.8764  226.7600 H   0  0  0  0  0  0  0  0  0  0  0  0
  141.4094   71.1804  228.9942 H   0  0  0  0  0  0  0  0  0  0  0  0
  141.2493   72.6453  226.9936 H   0  0  0  0  0  0  0  0  0  0  0  0
  1  2  2  0
  2  3  1  0
  3  4  1  0
  4  5  1  0
  5  6  2  0
  5  7  1  0
  7  8  1  0
  8  9  1  0
  9 10  1  0
 10 11  1  0
 11 12  1  0
 12 13  2  0
 13 14  1  0
 14 15  2  0
 15 16  1  0
 16 17  2  0
  2 18  1  0
 18 19  2  0
 19 20  1  0
 20 21  2  0
 21 22  1  0
 22 23  2  0
 23 24  1  0
 23 25  1  0
 25 26  2  0
 26 27  1  0
 27 28  2  0
 11  7  1  0
 17 12  1  0
 28 18  1  0
 27 21  1  0
  3 29  1  0
  4 30  1  0
  4 31  1  0
  8 32  1  0
  8 33  1  0
  9 34  1  0
  9 35  1  0
 10 36  1  0
 10 37  1  0
 11 38  1  6
 13 39  1  0
 14 40  1  0
 15 41  1  0
 16 42  1  0
 19 43  1  0
 20 44  1  0
 22 45  1  0
 25 46  1  0
 26 47  1  0
M  END
>  <smiles>  (43) 
O=C(NCC(=O)N1CCCC1c1ccccn1)c1ccc2cc(F)ccc2n1

>  <score_type>  (43) 
oracle

>  <origin>  (43) 
autodockgpu

>  <m_score__min__energy>  (43) 
-9.0099999999999998

>  <m_primary>  (43) 
energy

>  <rmsd>  (43) 
2.5201453807853595

>  <m_score__min__rmsd>  (43) 
2.5201453807853595

>  <meeko>  (43) 
{"free_energy": -8.29, "intermolecular_energy": -9.78, "internal_energy": -1.39, "cluster_size": 26, "cluster_id": 1, "rank_in_cluster": 23}

>  <energy>  (43) 
-8.19

>  <cluster_rmsd>  (43) 
0.63

>  <cluster>  (43) 
3

$$$$

     RDKit          3D

 47 50  0  0  0  0  0  0  0  0999 V2000
  140.8680   73.5420  220.6070 O   0  0  0  0  0  0  0  0  0  0  0  0
  140.3860   74.3710  221.4240 C   0  0  0  0  0  0  0  0  0  0  0  0
  139.3770   73.8520  222.3080 N   0  0  0  0  0  0  0  0  0  0  0  0
  139.0310   72.4740  222.1720 C   0  0  0  0  0  0  0  0  0  0  0  0
  139.8250   71.5790  223.0490 C   0  0  0  0  0  0  0  0  0  0  0  0
  141.0880   71.7090  223.0340 O   0  0  0  0  0  0  0  0  0  0  0  0
  139.1630   70.6220  223.8640 N   0  0  0  0  0  0  0  0  0  0  0  0
  137.7410   70.3770  223.9120 C   0  0  0  0  0  0  0  0  0  0  0  0
  137.5160   69.3100  224.9460 C   0  0  0  0  0  0  0  0  0  0  0  0
  138.8570   68.6520  225.0760 C   0  0  0  0  0  0  0  0  0  0  0  0
  139.8420   69.7410  224.7790 C   0  0  2  0  0  0  0  0  0  0  0  0
  140.2300   70.5120  225.9970 C   0  0  0  0  0  0  0  0  0  0  0  0
  141.0870   71.5850  225.9740 C   0  0  0  0  0  0  0  0  0  0  0  0
  141.4040   72.2670  227.1310 C   0  0  0  0  0  0  0  0  0  0  0  0
  140.8620   71.8790  228.3380 C   0  0  0  0  0  0  0  0  0  0  0  0
  140.0030   70.7940  228.3120 C   0  0  0  0  0  0  0  0  0  0  0  0
  139.7030   70.1380  227.1770 N   0  0  0  0  0  0  0  0  0  0  0  0
  140.8050   75.7660  221.4900 C   0  0  0  0  0  0  0  0  0  0  0  0
  141.6140   76.2230  220.4680 C   0  0  0  0  0  0  0  0  0  0  0  0
  142.0670   77.5250  220.4320 C   0  0  0  0  0  0  0  0  0  0  0  0
  141.7040   78.3870  221.4410 C   0  0  0  0  0  0  0  0  0  0  0  0
  142.1540   79.7020  221.4170 C   0  0  0  0  0  0  0  0  0  0  0  0
  141.7650   80.5340  222.4490 C   0  0  0  0  0  0  0  0  0  0  0  0
  142.1980   81.8340  222.4450 F   0  0  0  0  0  0  0  0  0  0  0  0
  140.9530   80.0550  223.4660 C   0  0  0  0  0  0  0  0  0  0  0  0
  140.5170   78.7390  223.4680 C   0  0  0  0  0  0  0  0  0  0  0  0
  140.8960   77.8980  222.4460 C   0  0  0  0  0  0  0  0  0  0  0  0
  140.4670   76.6130  222.4530 N   0  0  0  0  0  0  0  0  0  0  0  0
  138.9410   74.4980  223.0110 H   0  0  0  0  0  0  0  0  0  0  0  0
  137.9669   72.3550  222.4238 H   0  0  0  0  0  0  0  0  0  0  0  0
  139.2465   72.1856  221.1326 H   0  0  0  0  0  0  0  0  0  0  0  0
  137.2082   71.2966  224.1954 H   0  0  0  0  0  0  0  0  0  0  0  0
  137.3632   70.0585  222.9292 H   0  0  0  0  0  0  0  0  0  0  0  0
  137.2014   69.7515  225.9031 H   0  0  0  0  0  0  0  0  0  0  0  0
  136.7207   68.6044  224.6640 H   0  0  0  0  0  0  0  0  0  0  0  0
  139.0022   68.2642  226.0951 H   0  0  0  0  0  0  0  0  0  0  0  0
  138.9678   67.7927  224.3982 H   0  0  0  0  0  0  0  0  0  0  0  0
  140.7706   69.3122  224.3742 H   0  0  0  0  0  0  0  0  0  0  0  0
  141.5275   71.9057  225.0185 H   0  0  0  0  0  0  0  0  0  0  0  0
  142.0923   73.1241  227.0902 H   0  0  0  0  0  0  0  0  0  0  0  0
  141.1002   72.4051  229.2742 H   0  0  0  0  0  0  0  0  0  0  0  0
  139.5487   70.4556  229.2549 H   0  0  0  0  0  0  0  0  0  0  0  0
  141.9040   75.5315  219.6632 H   0  0  0  0  0  0  0  0  0  0  0  0
  142.7095   77.8695  219.6083 H   0  0  0  0  0  0  0  0  0  0  0  0
  142.7981   80.0678  220.6038 H   0  0  0  0  0  0  0  0  0  0  0  0
  140.6509   80.7281  224.2819 H   0  0  0  0  0  0  0  0  0  0  0  0
  139.8732   78.3696  224.2799 H   0  0  0  0  0  0  0  0  0  0  0  0
  1  2  2  0
  2  3  1  0
  3  4  1  0
  4  5  1  0
  5  6  2  0
  5  7  1  0
  7  8  1  0
  8  9  1  0
  9 10  1  0
 10 11  1  0
 11 12  1  0
 12 13  2  0
 13 14  1  0
 14 15  2  0
 15 16  1  0
 16 17  2  0
  2 18  1  0
 18 19  2  0
 19 20  1  0
 20 21  2  0
 21 22  1  0
 22 23  2  0
 23 24  1  0
 23 25  1  0
 25 26  2  0
 26 27  1  0
 27 28  2  0
 11  7  1  0
 17 12  1  0
 28 18  1  0
 27 21  1  0
  3 29  1  0
  4 30  1  0
  4 31  1  0
  8 32  1  0
  8 33  1  0
  9 34  1  0
  9 35  1  0
 10 36  1  0
 10 37  1  0
 11 38  1  6
 13 39  1  0
 14 40  1  0
 15 41  1  0
 16 42  1  0
 19 43  1  0
 20 44  1  0
 22 45  1  0
 25 46  1  0
 26 47  1  0
M  END
>  <smiles>  (44) 
O=C(NCC(=O)N1CCCC1c1ccccn1)c1ccc2cc(F)ccc2n1

>  <score_type>  (44) 
oracle

>  <origin>  (44) 
autodockgpu

>  <m_score__min__energy>  (44) 
-9.0099999999999998

>  <m_primary>  (44) 
energy

>  <rmsd>  (44) 
9.181381329048472

>  <m_score__min__rmsd>  (44) 
9.181381329048472

>  <meeko>  (44) 
{"free_energy": -8.7, "intermolecular_energy": -10.19, "internal_energy": -1.39, "cluster_size": 14, "cluster_id": 2, "rank_in_cluster": 8}

>  <energy>  (44) 
-8.19

>  <cluster_rmsd>  (44) 
0.1

>  <cluster>  (44) 
3

$$$$

     RDKit          3D

 47 50  0  0  0  0  0  0  0  0999 V2000
  136.4700   77.4570  222.6230 O   0  0  0  0  0  0  0  0  0  0  0  0
  136.6260   76.3050  223.1080 C   0  0  0  0  0  0  0  0  0  0  0  0
  137.8350   75.6300  222.7190 N   0  0  0  0  0  0  0  0  0  0  0  0
  138.7190   76.3230  221.8380 C   0  0  0  0  0  0  0  0  0  0  0  0
  140.0230   75.6400  221.6580 C   0  0  0  0  0  0  0  0  0  0  0  0
  140.1910   74.5270  222.2470 O   0  0  0  0  0  0  0  0  0  0  0  0
  141.0270   76.2360  220.8480 N   0  0  0  0  0  0  0  0  0  0  0  0
  142.1950   75.5790  220.3130 C   0  0  0  0  0  0  0  0  0  0  0  0
  142.9770   76.6200  219.5610 C   0  0  0  0  0  0  0  0  0  0  0  0
  141.9670   77.6930  219.2880 C   0  0  0  0  0  0  0  0  0  0  0  0
  141.0130   77.6170  220.4400 C   0  0  2  0  0  0  0  0  0  0  0  0
  141.4340   78.4670  221.5920 C   0  0  0  0  0  0  0  0  0  0  0  0
  141.8370   79.7740  221.4630 C   0  0  0  0  0  0  0  0  0  0  0  0
  142.2080   80.5160  222.5660 C   0  0  0  0  0  0  0  0  0  0  0  0
  142.1810   79.9530  223.8240 C   0  0  0  0  0  0  0  0  0  0  0  0
  141.7680   78.6340  223.9050 C   0  0  0  0  0  0  0  0  0  0  0  0
  141.4090   77.9230  222.8220 N   0  0  0  0  0  0  0  0  0  0  0  0
  135.6630   75.6770  224.0040 C   0  0  0  0  0  0  0  0  0  0  0  0
  134.7570   76.5100  224.6300 C   0  0  0  0  0  0  0  0  0  0  0  0
  133.8030   76.0190  225.4970 C   0  0  0  0  0  0  0  0  0  0  0  0
  133.7570   74.6670  225.7440 C   0  0  0  0  0  0  0  0  0  0  0  0
  132.8010   74.1600  226.6160 C   0  0  0  0  0  0  0  0  0  0  0  0
  132.7890   72.7960  226.8350 C   0  0  0  0  0  0  0  0  0  0  0  0
  131.8540   72.2740  227.6920 F   0  0  0  0  0  0  0  0  0  0  0  0
  133.7070   71.9770  226.1970 C   0  0  0  0  0  0  0  0  0  0  0  0
  134.6520   72.5060  225.3310 C   0  0  0  0  0  0  0  0  0  0  0  0
  134.6760   73.8630  225.1030 C   0  0  0  0  0  0  0  0  0  0  0  0
  135.6010   74.3750  224.2560 N   0  0  0  0  0  0  0  0  0  0  0  0
  138.0190   74.6670  223.0930 H   0  0  0  0  0  0  0  0  0  0  0  0
  138.2331   76.4123  220.8552 H   0  0  0  0  0  0  0  0  0  0  0  0
  138.9252   77.3047  222.2895 H   0  0  0  0  0  0  0  0  0  0  0  0
  142.8041   75.1659  221.1305 H   0  0  0  0  0  0  0  0  0  0  0  0
  141.9102   74.7473  219.6518 H   0  0  0  0  0  0  0  0  0  0  0  0
  143.8050   77.0070  220.1731 H   0  0  0  0  0  0  0  0  0  0  0  0
  143.4398   76.2263  218.6440 H   0  0  0  0  0  0  0  0  0  0  0  0
  142.4505   78.6803  219.2488 H   0  0  0  0  0  0  0  0  0  0  0  0
  141.4633   77.5547  218.3199 H   0  0  0  0  0  0  0  0  0  0  0  0
  140.0203   77.9789  220.1342 H   0  0  0  0  0  0  0  0  0  0  0  0
  141.8644   80.2363  220.4652 H   0  0  0  0  0  0  0  0  0  0  0  0
  142.5267   81.5613  222.4407 H   0  0  0  0  0  0  0  0  0  0  0  0
  142.4729   80.5230  224.7184 H   0  0  0  0  0  0  0  0  0  0  0  0
  141.7323   78.1499  224.8921 H   0  0  0  0  0  0  0  0  0  0  0  0
  134.7970   77.5914  224.4326 H   0  0  0  0  0  0  0  0  0  0  0  0
  133.0890   76.6995  225.9840 H   0  0  0  0  0  0  0  0  0  0  0  0
  132.0783   74.8224  227.1149 H   0  0  0  0  0  0  0  0  0  0  0  0
  133.6857   70.8925  226.3801 H   0  0  0  0  0  0  0  0  0  0  0  0
  135.3763   71.8466  224.8305 H   0  0  0  0  0  0  0  0  0  0  0  0
  1  2  2  0
  2  3  1  0
  3  4  1  0
  4  5  1  0
  5  6  2  0
  5  7  1  0
  7  8  1  0
  8  9  1  0
  9 10  1  0
 10 11  1  0
 11 12  1  0
 12 13  2  0
 13 14  1  0
 14 15  2  0
 15 16  1  0
 16 17  2  0
  2 18  1  0
 18 19  2  0
 19 20  1  0
 20 21  2  0
 21 22  1  0
 22 23  2  0
 23 24  1  0
 23 25  1  0
 25 26  2  0
 26 27  1  0
 27 28  2  0
 11  7  1  0
 17 12  1  0
 28 18  1  0
 27 21  1  0
  3 29  1  0
  4 30  1  0
  4 31  1  0
  8 32  1  0
  8 33  1  0
  9 34  1  0
  9 35  1  0
 10 36  1  0
 10 37  1  0
 11 38  1  6
 13 39  1  0
 14 40  1  0
 15 41  1  0
 16 42  1  0
 19 43  1  0
 20 44  1  0
 22 45  1  0
 25 46  1  0
 26 47  1  0
M  END
>  <smiles>  (45) 
O=C(NCC(=O)N1CCCC1c1ccccn1)c1ccc2cc(F)ccc2n1

>  <score_type>  (45) 
oracle

>  <origin>  (45) 
autodockgpu

>  <m_score__min__energy>  (45) 
-9.0099999999999998

>  <m_primary>  (45) 
energy

>  <rmsd>  (45) 
5.574456287390114

>  <m_score__min__rmsd>  (45) 
5.574456287390114

>  <meeko>  (45) 
{"free_energy": -7.49, "intermolecular_energy": -8.98, "internal_energy": -1.83, "cluster_size": 1, "cluster_id": 4, "rank_in_cluster": 1}

>  <energy>  (45) 
-8.18

>  <cluster_rmsd>  (45) 
0.14

>  <cluster>  (45) 
3

$$$$

     RDKit          3D

 47 50  0  0  0  0  0  0  0  0999 V2000
  141.1310   72.0740  221.4020 O   0  0  0  0  0  0  0  0  0  0  0  0
  140.3780   72.3620  222.3690 C   0  0  0  0  0  0  0  0  0  0  0  0
  139.6190   73.5750  222.2210 N   0  0  0  0  0  0  0  0  0  0  0  0
  139.7940   74.3150  221.0140 C   0  0  0  0  0  0  0  0  0  0  0  0
  140.8220   75.3790  221.1210 C   0  0  0  0  0  0  0  0  0  0  0  0
  141.1150   75.8000  222.2820 O   0  0  0  0  0  0  0  0  0  0  0  0
  141.4370   75.8860  219.9450 N   0  0  0  0  0  0  0  0  0  0  0  0
  140.7850   76.1470  218.6840 C   0  0  0  0  0  0  0  0  0  0  0  0
  141.8450   76.6320  217.7350 C   0  0  0  0  0  0  0  0  0  0  0  0
  142.9470   77.0940  218.6400 C   0  0  0  0  0  0  0  0  0  0  0  0
  142.8350   76.2180  219.8500 C   0  0  2  0  0  0  0  0  0  0  0  0
  143.6250   74.9580  219.7220 C   0  0  0  0  0  0  0  0  0  0  0  0
  144.0570   74.4530  218.5200 C   0  0  0  0  0  0  0  0  0  0  0  0
  144.7920   73.2860  218.4620 C   0  0  0  0  0  0  0  0  0  0  0  0
  145.1080   72.6050  219.6190 C   0  0  0  0  0  0  0  0  0  0  0  0
  144.6520   73.1530  220.8060 C   0  0  0  0  0  0  0  0  0  0  0  0
  143.9360   74.2900  220.8470 N   0  0  0  0  0  0  0  0  0  0  0  0
  140.2650   71.5400  223.5680 C   0  0  0  0  0  0  0  0  0  0  0  0
  139.6410   70.3160  223.4290 C   0  0  0  0  0  0  0  0  0  0  0  0
  139.4810   69.4610  224.4990 C   0  0  0  0  0  0  0  0  0  0  0  0
  139.9570   69.8390  225.7340 C   0  0  0  0  0  0  0  0  0  0  0  0
  139.8020   68.9850  226.8200 C   0  0  0  0  0  0  0  0  0  0  0  0
  140.2940   69.4030  228.0420 C   0  0  0  0  0  0  0  0  0  0  0  0
  140.1530   68.5780  229.1260 F   0  0  0  0  0  0  0  0  0  0  0  0
  140.9180   70.6350  228.1600 C   0  0  0  0  0  0  0  0  0  0  0  0
  141.0600   71.4700  227.0610 C   0  0  0  0  0  0  0  0  0  0  0  0
  140.5740   71.0670  225.8380 C   0  0  0  0  0  0  0  0  0  0  0  0
  140.7160   71.8850  224.7680 N   0  0  0  0  0  0  0  0  0  0  0  0
  138.9740   73.8650  222.9970 H   0  0  0  0  0  0  0  0  0  0  0  0
  140.0946   73.6181  220.2178 H   0  0  0  0  0  0  0  0  0  0  0  0
  138.8362   74.8089  220.7933 H   0  0  0  0  0  0  0  0  0  0  0  0
  140.3253   75.2251  218.2982 H   0  0  0  0  0  0  0  0  0  0  0  0
  139.9889   76.8970  218.8008 H   0  0  0  0  0  0  0  0  0  0  0  0
  142.1895   75.8168  217.0818 H   0  0  0  0  0  0  0  0  0  0  0  0
  141.4850   77.4245  217.0624 H   0  0  0  0  0  0  0  0  0  0  0  0
  143.9265   76.9647  218.1564 H   0  0  0  0  0  0  0  0  0  0  0  0
  142.8619   78.1620  218.8891 H   0  0  0  0  0  0  0  0  0  0  0  0
  143.2270   76.7416  220.7344 H   0  0  0  0  0  0  0  0  0  0  0  0
  143.8136   74.9866  217.5894 H   0  0  0  0  0  0  0  0  0  0  0  0
  145.1271   72.8976  217.4890 H   0  0  0  0  0  0  0  0  0  0  0  0
  145.6928   71.6735  219.5997 H   0  0  0  0  0  0  0  0  0  0  0  0
  144.8842   72.6389  221.7504 H   0  0  0  0  0  0  0  0  0  0  0  0
  139.2624   70.0158  222.4408 H   0  0  0  0  0  0  0  0  0  0  0  0
  138.9800   68.4906  224.3674 H   0  0  0  0  0  0  0  0  0  0  0  0
  139.3048   68.0099  226.7104 H   0  0  0  0  0  0  0  0  0  0  0  0
  141.3059   70.9551  229.1383 H   0  0  0  0  0  0  0  0  0  0  0  0
  141.5568   72.4458  227.1663 H   0  0  0  0  0  0  0  0  0  0  0  0
  1  2  2  0
  2  3  1  0
  3  4  1  0
  4  5  1  0
  5  6  2  0
  5  7  1  0
  7  8  1  0
  8  9  1  0
  9 10  1  0
 10 11  1  0
 11 12  1  0
 12 13  2  0
 13 14  1  0
 14 15  2  0
 15 16  1  0
 16 17  2  0
  2 18  1  0
 18 19  2  0
 19 20  1  0
 20 21  2  0
 21 22  1  0
 22 23  2  0
 23 24  1  0
 23 25  1  0
 25 26  2  0
 26 27  1  0
 27 28  2  0
 11  7  1  0
 17 12  1  0
 28 18  1  0
 27 21  1  0
  3 29  1  0
  4 30  1  0
  4 31  1  0
  8 32  1  0
  8 33  1  0
  9 34  1  0
  9 35  1  0
 10 36  1  0
 10 37  1  0
 11 38  1  1
 13 39  1  0
 14 40  1  0
 15 41  1  0
 16 42  1  0
 19 43  1  0
 20 44  1  0
 22 45  1  0
 25 46  1  0
 26 47  1  0
M  END
>  <smiles>  (46) 
O=C(NCC(=O)N1CCCC1c1ccccn1)c1ccc2cc(F)ccc2n1

>  <score_type>  (46) 
oracle

>  <origin>  (46) 
autodockgpu

>  <m_score__min__energy>  (46) 
-9.0099999999999998

>  <m_primary>  (46) 
energy

>  <rmsd>  (46) 
3.8197892194076526

>  <m_score__min__rmsd>  (46) 
3.8197892194076526

>  <meeko>  (46) 
{"free_energy": -7.78, "intermolecular_energy": -9.27, "internal_energy": -1.56, "cluster_size": 8, "cluster_id": 3, "rank_in_cluster": 8}

>  <energy>  (46) 
-8.16

>  <cluster_rmsd>  (46) 
0.18

>  <cluster>  (46) 
3

$$$$

     RDKit          3D

 47 50  0  0  0  0  0  0  0  0999 V2000
  138.9830   72.9410  222.0830 O   0  0  0  0  0  0  0  0  0  0  0  0
  140.0250   72.4480  222.5900 C   0  0  0  0  0  0  0  0  0  0  0  0
  141.2620   72.8480  221.9730 N   0  0  0  0  0  0  0  0  0  0  0  0
  141.1830   73.7470  220.8680 C   0  0  0  0  0  0  0  0  0  0  0  0
  140.8920   75.1460  221.2690 C   0  0  0  0  0  0  0  0  0  0  0  0
  140.2440   75.3270  222.3460 O   0  0  0  0  0  0  0  0  0  0  0  0
  141.3360   76.2210  220.4530 N   0  0  0  0  0  0  0  0  0  0  0  0
  142.4730   76.2040  219.5640 C   0  0  0  0  0  0  0  0  0  0  0  0
  142.5700   77.5750  218.9530 C   0  0  0  0  0  0  0  0  0  0  0  0
  141.1980   78.1470  219.1440 C   0  0  0  0  0  0  0  0  0  0  0  0
  140.6950   77.5090  220.4030 C   0  0  2  0  0  0  0  0  0  0  0  0
  141.0630   78.2820  221.6260 C   0  0  0  0  0  0  0  0  0  0  0  0
  140.3150   78.2790  222.7770 C   0  0  0  0  0  0  0  0  0  0  0  0
  140.7090   79.0080  223.8820 C   0  0  0  0  0  0  0  0  0  0  0  0
  141.8670   79.7550  223.8460 C   0  0  0  0  0  0  0  0  0  0  0  0
  142.5870   79.7260  222.6650 C   0  0  0  0  0  0  0  0  0  0  0  0
  142.1920   79.0120  221.5960 N   0  0  0  0  0  0  0  0  0  0  0  0
  140.0070   71.5320  223.7250 C   0  0  0  0  0  0  0  0  0  0  0  0
  139.3620   70.3250  223.5410 C   0  0  0  0  0  0  0  0  0  0  0  0
  139.2860   69.3860  224.5490 C   0  0  0  0  0  0  0  0  0  0  0  0
  139.8660   69.6630  225.7650 C   0  0  0  0  0  0  0  0  0  0  0  0
  139.7960   68.7250  226.7890 C   0  0  0  0  0  0  0  0  0  0  0  0
  140.3920   69.0430  227.9940 C   0  0  0  0  0  0  0  0  0  0  0  0
  140.3350   68.1330  229.0180 F   0  0  0  0  0  0  0  0  0  0  0  0
  141.0340   70.2610  228.1580 C   0  0  0  0  0  0  0  0  0  0  0  0
  141.0900   71.1810  227.1210 C   0  0  0  0  0  0  0  0  0  0  0  0
  140.5010   70.8780  225.9150 C   0  0  0  0  0  0  0  0  0  0  0  0
  140.5590   71.7790  224.9050 N   0  0  0  0  0  0  0  0  0  0  0  0
  142.1620   72.4680  222.3540 H   0  0  0  0  0  0  0  0  0  0  0  0
  142.1447   73.7296  220.3343 H   0  0  0  0  0  0  0  0  0  0  0  0
  140.3504   73.4102  220.2329 H   0  0  0  0  0  0  0  0  0  0  0  0
  143.3899   75.9749  220.1268 H   0  0  0  0  0  0  0  0  0  0  0  0
  142.3542   75.4342  218.7873 H   0  0  0  0  0  0  0  0  0  0  0  0
  143.3246   78.1836  219.4728 H   0  0  0  0  0  0  0  0  0  0  0  0
  142.8784   77.5504  217.8974 H   0  0  0  0  0  0  0  0  0  0  0  0
  141.2450   79.2404  219.2546 H   0  0  0  0  0  0  0  0  0  0  0  0
  140.5403   77.9499  218.2846 H   0  0  0  0  0  0  0  0  0  0  0  0
  139.5963   77.4568  220.3883 H   0  0  0  0  0  0  0  0  0  0  0  0
  139.3885   77.6875  222.8199 H   0  0  0  0  0  0  0  0  0  0  0  0
  140.0958   78.9924  224.7951 H   0  0  0  0  0  0  0  0  0  0  0  0
  142.2016   80.3443  224.7124 H   0  0  0  0  0  0  0  0  0  0  0  0
  143.5175   80.3088  222.5978 H   0  0  0  0  0  0  0  0  0  0  0  0
  138.8978   70.1070  222.5678 H   0  0  0  0  0  0  0  0  0  0  0  0
  138.7689   68.4295  224.3825 H   0  0  0  0  0  0  0  0  0  0  0  0
  139.2835   67.7625  226.6445 H   0  0  0  0  0  0  0  0  0  0  0  0
  141.5050   70.5009  229.1227 H   0  0  0  0  0  0  0  0  0  0  0  0
  141.6011   72.1448  227.2618 H   0  0  0  0  0  0  0  0  0  0  0  0
  1  2  2  0
  2  3  1  0
  3  4  1  0
  4  5  1  0
  5  6  2  0
  5  7  1  0
  7  8  1  0
  8  9  1  0
  9 10  1  0
 10 11  1  0
 11 12  1  0
 12 13  2  0
 13 14  1  0
 14 15  2  0
 15 16  1  0
 16 17  2  0
  2 18  1  0
 18 19  2  0
 19 20  1  0
 20 21  2  0
 21 22  1  0
 22 23  2  0
 23 24  1  0
 23 25  1  0
 25 26  2  0
 26 27  1  0
 27 28  2  0
 11  7  1  0
 17 12  1  0
 28 18  1  0
 27 21  1  0
  3 29  1  0
  4 30  1  0
  4 31  1  0
  8 32  1  0
  8 33  1  0
  9 34  1  0
  9 35  1  0
 10 36  1  0
 10 37  1  0
 11 38  1  6
 13 39  1  0
 14 40  1  0
 15 41  1  0
 16 42  1  0
 19 43  1  0
 20 44  1  0
 22 45  1  0
 25 46  1  0
 26 47  1  0
M  END
>  <smiles>  (47) 
O=C(NCC(=O)N1CCCC1c1ccccn1)c1ccc2cc(F)ccc2n1

>  <score_type>  (47) 
oracle

>  <origin>  (47) 
autodockgpu

>  <m_score__min__energy>  (47) 
-9.0099999999999998

>  <m_primary>  (47) 
energy

>  <rmsd>  (47) 
2.635773510162268

>  <m_score__min__rmsd>  (47) 
2.635773510162268

>  <meeko>  (47) 
{"free_energy": -8.15, "intermolecular_energy": -9.64, "internal_energy": -1.22, "cluster_size": 26, "cluster_id": 1, "rank_in_cluster": 25}

>  <energy>  (47) 
-8.14

>  <cluster_rmsd>  (47) 
0.64

>  <cluster>  (47) 
3

$$$$

     RDKit          3D

 47 50  0  0  0  0  0  0  0  0999 V2000
  141.1470   72.0430  221.4470 O   0  0  0  0  0  0  0  0  0  0  0  0
  140.4270   72.3660  222.4290 C   0  0  0  0  0  0  0  0  0  0  0  0
  139.7460   73.6270  222.3060 N   0  0  0  0  0  0  0  0  0  0  0  0
  139.9510   74.3700  221.1060 C   0  0  0  0  0  0  0  0  0  0  0  0
  140.1490   75.8220  221.3410 C   0  0  0  0  0  0  0  0  0  0  0  0
  139.4580   76.3690  222.2550 O   0  0  0  0  0  0  0  0  0  0  0  0
  141.0860   76.5430  220.5530 N   0  0  0  0  0  0  0  0  0  0  0  0
  142.2500   75.9970  219.8980 C   0  0  0  0  0  0  0  0  0  0  0  0
  142.9510   77.1440  219.2250 C   0  0  0  0  0  0  0  0  0  0  0  0
  141.8880   78.1940  219.1140 C   0  0  0  0  0  0  0  0  0  0  0  0
  140.9970   77.9570  220.2950 C   0  0  2  0  0  0  0  0  0  0  0  0
  141.4440   78.7000  221.5100 C   0  0  0  0  0  0  0  0  0  0  0  0
  141.8480   80.0120  221.4900 C   0  0  0  0  0  0  0  0  0  0  0  0
  142.2430   80.6530  222.6470 C   0  0  0  0  0  0  0  0  0  0  0  0
  142.2370   79.9800  223.8510 C   0  0  0  0  0  0  0  0  0  0  0  0
  141.8210   78.6600  223.8220 C   0  0  0  0  0  0  0  0  0  0  0  0
  141.4390   78.0490  222.6870 N   0  0  0  0  0  0  0  0  0  0  0  0
  140.2780   71.5360  223.6190 C   0  0  0  0  0  0  0  0  0  0  0  0
  139.6370   70.3240  223.4570 C   0  0  0  0  0  0  0  0  0  0  0  0
  139.4430   69.4630  224.5170 C   0  0  0  0  0  0  0  0  0  0  0  0
  139.9000   69.8240  225.7640 C   0  0  0  0  0  0  0  0  0  0  0  0
  139.7110   68.9650  226.8400 C   0  0  0  0  0  0  0  0  0  0  0  0
  140.1850   69.3650  228.0740 C   0  0  0  0  0  0  0  0  0  0  0  0
  140.0100   68.5340  229.1500 F   0  0  0  0  0  0  0  0  0  0  0  0
  140.8260   70.5870  228.2150 C   0  0  0  0  0  0  0  0  0  0  0  0
  141.0030   71.4270  227.1260 C   0  0  0  0  0  0  0  0  0  0  0  0
  140.5350   71.0410  225.8900 C   0  0  0  0  0  0  0  0  0  0  0  0
  140.7110   71.8650  224.8290 N   0  0  0  0  0  0  0  0  0  0  0  0
  139.1310   73.9470  223.0950 H   0  0  0  0  0  0  0  0  0  0  0  0
  140.8426   73.9738  220.5981 H   0  0  0  0  0  0  0  0  0  0  0  0
  139.0427   74.2597  220.4954 H   0  0  0  0  0  0  0  0  0  0  0  0
  142.9156   75.5287  220.6380 H   0  0  0  0  0  0  0  0  0  0  0  0
  141.9649   75.2263  219.1667 H   0  0  0  0  0  0  0  0  0  0  0  0
  143.7933   77.5015  219.8355 H   0  0  0  0  0  0  0  0  0  0  0  0
  143.3812   76.8682  218.2509 H   0  0  0  0  0  0  0  0  0  0  0  0
  142.3303   79.2003  219.1571 H   0  0  0  0  0  0  0  0  0  0  0  0
  141.3417   78.1350  218.1611 H   0  0  0  0  0  0  0  0  0  0  0  0
  139.9766   78.3049  220.0763 H   0  0  0  0  0  0  0  0  0  0  0  0
  141.8571   80.5611  220.5369 H   0  0  0  0  0  0  0  0  0  0  0  0
  142.5638   81.7045  222.6087 H   0  0  0  0  0  0  0  0  0  0  0  0
  142.5471   80.4676  224.7870 H   0  0  0  0  0  0  0  0  0  0  0  0
  141.8023   78.0899  224.7625 H   0  0  0  0  0  0  0  0  0  0  0  0
  139.2725   70.0383  222.4593 H   0  0  0  0  0  0  0  0  0  0  0  0
  138.9302   68.5013  224.3678 H   0  0  0  0  0  0  0  0  0  0  0  0
  139.2009   67.9987  226.7131 H   0  0  0  0  0  0  0  0  0  0  0  0
  141.1987   70.8937  229.2034 H   0  0  0  0  0  0  0  0  0  0  0  0
  141.5131   72.3938  227.2486 H   0  0  0  0  0  0  0  0  0  0  0  0
  1  2  2  0
  2  3  1  0
  3  4  1  0
  4  5  1  0
  5  6  2  0
  5  7  1  0
  7  8  1  0
  8  9  1  0
  9 10  1  0
 10 11  1  0
 11 12  1  0
 12 13  2  0
 13 14  1  0
 14 15  2  0
 15 16  1  0
 16 17  2  0
  2 18  1  0
 18 19  2  0
 19 20  1  0
 20 21  2  0
 21 22  1  0
 22 23  2  0
 23 24  1  0
 23 25  1  0
 25 26  2  0
 26 27  1  0
 27 28  2  0
 11  7  1  0
 17 12  1  0
 28 18  1  0
 27 21  1  0
  3 29  1  0
  4 30  1  0
  4 31  1  0
  8 32  1  0
  8 33  1  0
  9 34  1  0
  9 35  1  0
 10 36  1  0
 10 37  1  0
 11 38  1  6
 13 39  1  0
 14 40  1  0
 15 41  1  0
 16 42  1  0
 19 43  1  0
 20 44  1  0
 22 45  1  0
 25 46  1  0
 26 47  1  0
M  END
>  <smiles>  (48) 
O=C(NCC(=O)N1CCCC1c1ccccn1)c1ccc2cc(F)ccc2n1

>  <score_type>  (48) 
oracle

>  <origin>  (48) 
autodockgpu

>  <m_score__min__energy>  (48) 
-9.0099999999999998

>  <m_primary>  (48) 
energy

>  <rmsd>  (48) 
2.1467430789254736

>  <m_score__min__rmsd>  (48) 
2.1467430789254736

>  <meeko>  (48) 
{"free_energy": -8.85, "intermolecular_energy": -10.34, "internal_energy": -1.35, "cluster_size": 26, "cluster_id": 1, "rank_in_cluster": 8}

>  <energy>  (48) 
-7.78

>  <cluster_rmsd>  (48) 
0.66

>  <cluster>  (48) 
3

$$$$

     RDKit          3D

 47 50  0  0  0  0  0  0  0  0999 V2000
  141.0700   73.6850  220.9660 O   0  0  0  0  0  0  0  0  0  0  0  0
  140.3700   74.5320  221.5810 C   0  0  0  0  0  0  0  0  0  0  0  0
  139.2150   74.0050  222.2560 N   0  0  0  0  0  0  0  0  0  0  0  0
  138.9830   72.6010  222.1610 C   0  0  0  0  0  0  0  0  0  0  0  0
  139.7990   71.8050  223.1100 C   0  0  0  0  0  0  0  0  0  0  0  0
  141.0200   72.1260  223.2490 O   0  0  0  0  0  0  0  0  0  0  0  0
  139.2060   70.7290  223.8220 N   0  0  0  0  0  0  0  0  0  0  0  0
  137.8030   70.3850  223.8380 C   0  0  0  0  0  0  0  0  0  0  0  0
  137.6520   69.2070  224.7590 C   0  0  0  0  0  0  0  0  0  0  0  0
  139.0340   68.6310  224.8290 C   0  0  0  0  0  0  0  0  0  0  0  0
  139.9430   69.8080  224.6480 C   0  0  2  0  0  0  0  0  0  0  0  0
  140.2800   70.4780  225.9380 C   0  0  0  0  0  0  0  0  0  0  0  0
  139.8460   70.0300  227.1610 C   0  0  0  0  0  0  0  0  0  0  0  0
  140.1960   70.6850  228.3250 C   0  0  0  0  0  0  0  0  0  0  0  0
  140.9950   71.8080  228.2770 C   0  0  0  0  0  0  0  0  0  0  0  0
  141.4090   72.2220  227.0220 C   0  0  0  0  0  0  0  0  0  0  0  0
  141.0600   71.5740  225.8970 N   0  0  0  0  0  0  0  0  0  0  0  0
  140.6890   75.9550  221.6220 C   0  0  0  0  0  0  0  0  0  0  0  0
  140.6960   76.6270  220.4160 C   0  0  0  0  0  0  0  0  0  0  0  0
  140.9840   77.9740  220.3410 C   0  0  0  0  0  0  0  0  0  0  0  0
  141.2710   78.6610  221.4980 C   0  0  0  0  0  0  0  0  0  0  0  0
  141.5640   80.0190  221.4360 C   0  0  0  0  0  0  0  0  0  0  0  0
  141.8460   80.6700  222.6210 C   0  0  0  0  0  0  0  0  0  0  0  0
  142.1370   82.0090  222.5830 F   0  0  0  0  0  0  0  0  0  0  0  0
  141.8340   79.9770  223.8210 C   0  0  0  0  0  0  0  0  0  0  0  0
  141.5400   78.6220  223.8570 C   0  0  0  0  0  0  0  0  0  0  0  0
  141.2560   77.9590  222.6840 C   0  0  0  0  0  0  0  0  0  0  0  0
  140.9690   76.6360  222.7260 N   0  0  0  0  0  0  0  0  0  0  0  0
  138.5940   74.6660  222.7860 H   0  0  0  0  0  0  0  0  0  0  0  0
  137.9200   72.4082  222.3679 H   0  0  0  0  0  0  0  0  0  0  0  0
  139.2709   72.2916  221.1454 H   0  0  0  0  0  0  0  0  0  0  0  0
  137.2098   71.2337  224.2092 H   0  0  0  0  0  0  0  0  0  0  0  0
  137.4460   70.1417  222.8264 H   0  0  0  0  0  0  0  0  0  0  0  0
  137.3101   69.5283  225.7539 H   0  0  0  0  0  0  0  0  0  0  0  0
  136.9053   68.4814  224.4040 H   0  0  0  0  0  0  0  0  0  0  0  0
  139.2067   68.1532  225.8047 H   0  0  0  0  0  0  0  0  0  0  0  0
  139.2012   67.8537  224.0688 H   0  0  0  0  0  0  0  0  0  0  0  0
  140.8976   69.4841  224.2077 H   0  0  0  0  0  0  0  0  0  0  0  0
  139.2091   69.1347  227.2144 H   0  0  0  0  0  0  0  0  0  0  0  0
  139.8362   70.3096  229.2943 H   0  0  0  0  0  0  0  0  0  0  0  0
  141.2886   72.3476  229.1894 H   0  0  0  0  0  0  0  0  0  0  0  0
  142.0472   73.1144  226.9427 H   0  0  0  0  0  0  0  0  0  0  0  0
  140.4664   76.0750  219.4926 H   0  0  0  0  0  0  0  0  0  0  0  0
  140.9842   78.4913  219.3703 H   0  0  0  0  0  0  0  0  0  0  0  0
  141.5709   80.5562  220.4762 H   0  0  0  0  0  0  0  0  0  0  0  0
  142.0606   80.5084  224.7571 H   0  0  0  0  0  0  0  0  0  0  0  0
  141.5337   78.0813  224.8149 H   0  0  0  0  0  0  0  0  0  0  0  0
  1  2  2  0
  2  3  1  0
  3  4  1  0
  4  5  1  0
  5  6  2  0
  5  7  1  0
  7  8  1  0
  8  9  1  0
  9 10  1  0
 10 11  1  0
 11 12  1  0
 12 13  2  0
 13 14  1  0
 14 15  2  0
 15 16  1  0
 16 17  2  0
  2 18  1  0
 18 19  2  0
 19 20  1  0
 20 21  2  0
 21 22  1  0
 22 23  2  0
 23 24  1  0
 23 25  1  0
 25 26  2  0
 26 27  1  0
 27 28  2  0
 11  7  1  0
 17 12  1  0
 28 18  1  0
 27 21  1  0
  3 29  1  0
  4 30  1  0
  4 31  1  0
  8 32  1  0
  8 33  1  0
  9 34  1  0
  9 35  1  0
 10 36  1  0
 10 37  1  0
 11 38  1  6
 13 39  1  0
 14 40  1  0
 15 41  1  0
 16 42  1  0
 19 43  1  0
 20 44  1  0
 22 45  1  0
 25 46  1  0
 26 47  1  0
M  END
>  <smiles>  (49) 
O=C(NCC(=O)N1CCCC1c1ccccn1)c1ccc2cc(F)ccc2n1

>  <score_type>  (49) 
oracle

>  <origin>  (49) 
autodockgpu

>  <m_score__min__energy>  (49) 
-9.0099999999999998

>  <m_primary>  (49) 
energy

>  <rmsd>  (49) 
9.351380932550917

>  <m_score__min__rmsd>  (49) 
9.351380932550917

>  <meeko>  (49) 
{"free_energy": -8.8, "intermolecular_energy": -10.29, "internal_energy": -1.2, "cluster_size": 14, "cluster_id": 2, "rank_in_cluster": 4}

>  <energy>  (49) 
-7.49

>  <cluster_rmsd>  (49) 
0.0

>  <cluster>  (49) 
4

$$$$

     RDKit          3D

 47 50  0  0  0  0  0  0  0  0999 V2000
  141.0570   71.9860  221.3830 O   0  0  0  0  0  0  0  0  0  0  0  0
  140.4470   72.3830  222.4110 C   0  0  0  0  0  0  0  0  0  0  0  0
  139.9240   73.7210  222.3410 N   0  0  0  0  0  0  0  0  0  0  0  0
  140.1440   74.4490  221.1350 C   0  0  0  0  0  0  0  0  0  0  0  0
  140.1010   75.9210  221.3210 C   0  0  0  0  0  0  0  0  0  0  0  0
  139.3280   76.3780  222.2190 O   0  0  0  0  0  0  0  0  0  0  0  0
  140.9080   76.7590  220.5070 N   0  0  0  0  0  0  0  0  0  0  0  0
  141.9860   76.3330  219.6460 C   0  0  0  0  0  0  0  0  0  0  0  0
  142.5660   77.5740  219.0250 C   0  0  0  0  0  0  0  0  0  0  0  0
  141.4740   78.5900  219.1760 C   0  0  0  0  0  0  0  0  0  0  0  0
  140.7560   78.1890  220.4280 C   0  0  2  0  0  0  0  0  0  0  0  0
  141.3440   78.8080  221.6520 C   0  0  0  0  0  0  0  0  0  0  0  0
  141.2340   78.2600  222.9060 C   0  0  0  0  0  0  0  0  0  0  0  0
  141.8070   78.8730  224.0030 C   0  0  0  0  0  0  0  0  0  0  0  0
  142.5040   80.0530  223.8550 C   0  0  0  0  0  0  0  0  0  0  0  0
  142.5880   80.5670  222.5720 C   0  0  0  0  0  0  0  0  0  0  0  0
  142.0250   79.9600  221.5130 N   0  0  0  0  0  0  0  0  0  0  0  0
  140.2710   71.5610  223.6030 C   0  0  0  0  0  0  0  0  0  0  0  0
  139.6040   70.3630  223.4420 C   0  0  0  0  0  0  0  0  0  0  0  0
  139.3830   69.5110  224.5040 C   0  0  0  0  0  0  0  0  0  0  0  0
  139.8390   69.8660  225.7520 C   0  0  0  0  0  0  0  0  0  0  0  0
  139.6230   69.0160  226.8310 C   0  0  0  0  0  0  0  0  0  0  0  0
  140.0980   69.4110  228.0660 C   0  0  0  0  0  0  0  0  0  0  0  0
  139.8960   68.5880  229.1440 F   0  0  0  0  0  0  0  0  0  0  0  0
  140.7650   70.6180  228.2070 C   0  0  0  0  0  0  0  0  0  0  0  0
  140.9680   71.4500  227.1160 C   0  0  0  0  0  0  0  0  0  0  0  0
  140.5010   71.0700  225.8780 C   0  0  0  0  0  0  0  0  0  0  0  0
  140.7030   71.8850  224.8160 N   0  0  0  0  0  0  0  0  0  0  0  0
  139.4060   74.1040  223.1700 H   0  0  0  0  0  0  0  0  0  0  0  0
  141.1329   74.1761  220.7380 H   0  0  0  0  0  0  0  0  0  0  0  0
  139.3315   74.1845  220.4422 H   0  0  0  0  0  0  0  0  0  0  0  0
  142.7546   75.8092  220.2332 H   0  0  0  0  0  0  0  0  0  0  0  0
  141.6222   75.6395  218.8736 H   0  0  0  0  0  0  0  0  0  0  0  0
  143.4741   77.8919  219.5582 H   0  0  0  0  0  0  0  0  0  0  0  0
  142.8686   77.4255  217.9779 H   0  0  0  0  0  0  0  0  0  0  0  0
  141.8954   79.6011  219.2768 H   0  0  0  0  0  0  0  0  0  0  0  0
  140.8060   78.6177  218.3025 H   0  0  0  0  0  0  0  0  0  0  0  0
  139.7082   78.5213  220.3860 H   0  0  0  0  0  0  0  0  0  0  0  0
  140.6811   77.3184  223.0390 H   0  0  0  0  0  0  0  0  0  0  0  0
  141.7067   78.4176  224.9993 H   0  0  0  0  0  0  0  0  0  0  0  0
  142.9698   80.5605  224.7126 H   0  0  0  0  0  0  0  0  0  0  0  0
  143.1361   81.5075  222.4134 H   0  0  0  0  0  0  0  0  0  0  0  0
  139.2401   70.0812  222.4429 H   0  0  0  0  0  0  0  0  0  0  0  0
  138.8494   68.5607  224.3548 H   0  0  0  0  0  0  0  0  0  0  0  0
  139.0917   68.0611  226.7051 H   0  0  0  0  0  0  0  0  0  0  0  0
  141.1381   70.9198  229.1968 H   0  0  0  0  0  0  0  0  0  0  0  0
  141.4980   72.4060  227.2390 H   0  0  0  0  0  0  0  0  0  0  0  0
  1  2  2  0
  2  3  1  0
  3  4  1  0
  4  5  1  0
  5  6  2  0
  5  7  1  0
  7  8  1  0
  8  9  1  0
  9 10  1  0
 10 11  1  0
 11 12  1  0
 12 13  2  0
 13 14  1  0
 14 15  2  0
 15 16  1  0
 16 17  2  0
  2 18  1  0
 18 19  2  0
 19 20  1  0
 20 21  2  0
 21 22  1  0
 22 23  2  0
 23 24  1  0
 23 25  1  0
 25 26  2  0
 26 27  1  0
 27 28  2  0
 11  7  1  0
 17 12  1  0
 28 18  1  0
 27 21  1  0
  3 29  1  0
  4 30  1  0
  4 31  1  0
  8 32  1  0
  8 33  1  0
  9 34  1  0
  9 35  1  0
 10 36  1  0
 10 37  1  0
 11 38  1  6
 13 39  1  0
 14 40  1  0
 15 41  1  0
 16 42  1  0
 19 43  1  0
 20 44  1  0
 22 45  1  0
 25 46  1  0
 26 47  1  0
M  END
>  <smiles>  (50) 
O=C(NCC(=O)N1CCCC1c1ccccn1)c1ccc2cc(F)ccc2n1

>  <score_type>  (50) 
oracle

>  <origin>  (50) 
autodockgpu

>  <m_score__min__energy>  (50) 
-9.0099999999999998

>  <m_primary>  (50) 
energy

>  <rmsd>  (50) 
2.6084713192604068

>  <m_score__min__rmsd>  (50) 
2.6084713192604068

>  <meeko>  (50) 
{"free_energy": -8.68, "intermolecular_energy": -10.18, "internal_energy": -1.35, "cluster_size": 26, "cluster_id": 1, "rank_in_cluster": 12}

>  <energy>  (50) 
-6.79

>  <cluster_rmsd>  (50) 
0.0

>  <cluster>  (50) 
5

$$$$

     RDKit          3D

 47 50  0  0  0  0  0  0  0  0999 V2000
  140.9960   72.5200  221.4930 O   0  0  0  0  0  0  0  0  0  0  0  0
  140.0980   72.6390  222.3680 C   0  0  0  0  0  0  0  0  0  0  0  0
  139.1360   73.6920  222.3470 N   0  0  0  0  0  0  0  0  0  0  0  0
  139.2410   74.6420  221.2450 C   0  0  0  0  0  0  0  0  0  0  0  0
  140.4550   75.4710  221.4050 C   0  0  0  0  0  0  0  0  0  0  0  0
  141.5060   75.0880  221.9670 O   0  0  0  0  0  0  0  0  0  0  0  0
  140.4430   76.7960  220.8880 N   0  0  0  0  0  0  0  0  0  0  0  0
  139.2930   77.5940  220.4680 C   0  0  0  0  0  0  0  0  0  0  0  0
  139.7590   78.2980  219.1990 C   0  0  0  0  0  0  0  0  0  0  0  0
  141.2680   78.3120  219.3040 C   0  0  0  0  0  0  0  0  0  0  0  0
  141.5900   77.6850  220.6500 C   0  0  1  0  0  0  0  0  0  0  0  0
  141.6810   78.7450  221.7020 C   0  0  0  0  0  0  0  0  0  0  0  0
  141.6140   78.4950  223.0390 C   0  0  0  0  0  0  0  0  0  0  0  0
  141.7080   79.5330  223.9590 C   0  0  0  0  0  0  0  0  0  0  0  0
  141.8690   80.8230  223.4960 C   0  0  0  0  0  0  0  0  0  0  0  0
  141.9360   81.0660  222.1440 C   0  0  0  0  0  0  0  0  0  0  0  0
  141.8420   80.0270  221.2650 N   0  0  0  0  0  0  0  0  0  0  0  0
  140.0130   71.6770  223.4600 C   0  0  0  0  0  0  0  0  0  0  0  0
  139.3540   70.4640  223.2720 C   0  0  0  0  0  0  0  0  0  0  0  0
  139.2620   69.5400  224.2940 C   0  0  0  0  0  0  0  0  0  0  0  0
  139.8340   69.8300  225.5150 C   0  0  0  0  0  0  0  0  0  0  0  0
  139.7810   68.9460  226.5880 C   0  0  0  0  0  0  0  0  0  0  0  0
  140.3720   69.2860  227.7940 C   0  0  0  0  0  0  0  0  0  0  0  0
  140.2740   68.3630  228.7970 F   0  0  0  0  0  0  0  0  0  0  0  0
  141.0280   70.4890  227.9890 C   0  0  0  0  0  0  0  0  0  0  0  0
  141.0800   71.3720  226.9120 C   0  0  0  0  0  0  0  0  0  0  0  0
  140.4930   71.0390  225.7050 C   0  0  0  0  0  0  0  0  0  0  0  0
  140.5520   71.9040  224.6730 N   0  0  0  0  0  0  0  0  0  0  0  0
  138.4130   73.7520  223.0880 H   0  0  0  0  0  0  0  0  0  0  0  0
  139.2984   74.0919  220.2942 H   0  0  0  0  0  0  0  0  0  0  0  0
  138.3556   75.2948  221.2458 H   0  0  0  0  0  0  0  0  0  0  0  0
  138.4274   76.9483  220.2587 H   0  0  0  0  0  0  0  0  0  0  0  0
  138.9701   78.3029  221.2447 H   0  0  0  0  0  0  0  0  0  0  0  0
  139.4368   77.7425  218.3059 H   0  0  0  0  0  0  0  0  0  0  0  0
  139.3376   79.3096  219.1039 H   0  0  0  0  0  0  0  0  0  0  0  0
  141.7150   77.7232  218.4894 H   0  0  0  0  0  0  0  0  0  0  0  0
  141.6721   79.3319  219.2231 H   0  0  0  0  0  0  0  0  0  0  0  0
  142.5517   77.1514  220.6716 H   0  0  0  0  0  0  0  0  0  0  0  0
  141.4843   77.4621  223.3943 H   0  0  0  0  0  0  0  0  0  0  0  0
  141.6549   79.3293  225.0387 H   0  0  0  0  0  0  0  0  0  0  0  0
  141.9438   81.6575  224.2088 H   0  0  0  0  0  0  0  0  0  0  0  0
  142.0648   82.0935  221.7731 H   0  0  0  0  0  0  0  0  0  0  0  0
  138.9005   70.2391  222.2954 H   0  0  0  0  0  0  0  0  0  0  0  0
  138.7393   68.5851  224.1364 H   0  0  0  0  0  0  0  0  0  0  0  0
  139.2703   67.9779  226.4789 H   0  0  0  0  0  0  0  0  0  0  0  0
  141.4900   70.7383  228.9557 H   0  0  0  0  0  0  0  0  0  0  0  0
  141.5911   72.3397  227.0227 H   0  0  0  0  0  0  0  0  0  0  0  0
  1  2  2  0
  2  3  1  0
  3  4  1  0
  4  5  1  0
  5  6  2  0
  5  7  1  0
  7  8  1  0
  8  9  1  0
  9 10  1  0
 10 11  1  0
 11 12  1  0
 12 13  2  0
 13 14  1  0
 14 15  2  0
 15 16  1  0
 16 17  2  0
  2 18  1  0
 18 19  2  0
 19 20  1  0
 20 21  2  0
 21 22  1  0
 22 23  2  0
 23 24  1  0
 23 25  1  0
 25 26  2  0
 26 27  1  0
 27 28  2  0
 11  7  1  0
 17 12  1  0
 28 18  1  0
 27 21  1  0
  3 29  1  0
  4 30  1  0
  4 31  1  0
  8 32  1  0
  8 33  1  0
  9 34  1  0
  9 35  1  0
 10 36  1  0
 10 37  1  0
 11 38  1  6
 13 39  1  0
 14 40  1  0
 15 41  1  0
 16 42  1  0
 19 43  1  0
 20 44  1  0
 22 45  1  0
 25 46  1  0
 26 47  1  0
M  END
>  <smiles>  (51) 
O=C(NCC(=O)N1CCCC1c1ccccn1)c1ccc2cc(F)ccc2n1

>  <score_type>  (51) 
oracle

>  <origin>  (51) 
autodockgpu

>  <m_score__min__energy>  (51) 
-8.5999999999999996

>  <m_primary>  (51) 
energy

>  <rmsd>  (51) 
2.3666641931723067

>  <m_score__min__rmsd>  (51) 
2.3666641931723067

>  <meeko>  (51) 
{"free_energy": -8.4, "intermolecular_energy": -9.89, "internal_energy": -1.18, "cluster_size": 24, "cluster_id": 1, "rank_in_cluster": 14}

>  <energy>  (51) 
-8.6

>  <cluster_rmsd>  (51) 
0.0

>  <cluster>  (51) 
1

$$$$

     RDKit          3D

 47 50  0  0  0  0  0  0  0  0999 V2000
  138.7670   74.7890  222.2820 O   0  0  0  0  0  0  0  0  0  0  0  0
  139.8920   75.2590  221.9680 C   0  0  0  0  0  0  0  0  0  0  0  0
  140.1760   76.6570  221.9850 N   0  0  0  0  0  0  0  0  0  0  0  0
  139.0830   77.5340  222.3900 C   0  0  0  0  0  0  0  0  0  0  0  0
  139.6220   78.7550  223.0270 C   0  0  0  0  0  0  0  0  0  0  0  0
  139.0440   79.3950  223.9340 O   0  0  0  0  0  0  0  0  0  0  0  0
  140.8820   79.2480  222.5880 N   0  0  0  0  0  0  0  0  0  0  0  0
  142.2070   78.9650  223.1370 C   0  0  0  0  0  0  0  0  0  0  0  0
  142.9270   80.3070  223.1080 C   0  0  0  0  0  0  0  0  0  0  0  0
  142.2030   81.1050  222.0470 C   0  0  0  0  0  0  0  0  0  0  0  0
  141.1560   80.1650  221.4720 C   0  0  1  0  0  0  0  0  0  0  0  0
  141.7140   79.4320  220.2930 C   0  0  0  0  0  0  0  0  0  0  0  0
  142.0950   80.0370  219.1340 C   0  0  0  0  0  0  0  0  0  0  0  0
  142.6070   79.2900  218.0800 C   0  0  0  0  0  0  0  0  0  0  0  0
  142.7220   77.9220  218.2250 C   0  0  0  0  0  0  0  0  0  0  0  0
  142.3340   77.3190  219.4000 C   0  0  0  0  0  0  0  0  0  0  0  0
  141.8360   78.0790  220.4170 N   0  0  0  0  0  0  0  0  0  0  0  0
  140.9700   74.3630  221.5650 C   0  0  0  0  0  0  0  0  0  0  0  0
  140.7620   72.9860  221.5470 C   0  0  0  0  0  0  0  0  0  0  0  0
  141.7700   72.1210  221.1690 C   0  0  0  0  0  0  0  0  0  0  0  0
  142.9960   72.6360  220.8050 C   0  0  0  0  0  0  0  0  0  0  0  0
  144.0550   71.8240  220.4130 C   0  0  0  0  0  0  0  0  0  0  0  0
  145.2670   72.3920  220.0580 C   0  0  0  0  0  0  0  0  0  0  0  0
  146.2560   71.5250  219.6850 F   0  0  0  0  0  0  0  0  0  0  0  0
  145.4820   73.7600  220.0730 C   0  0  0  0  0  0  0  0  0  0  0  0
  144.4190   74.5700  220.4650 C   0  0  0  0  0  0  0  0  0  0  0  0
  143.2060   74.0100  220.8220 C   0  0  0  0  0  0  0  0  0  0  0  0
  142.1870   74.8080  221.2000 N   0  0  0  0  0  0  0  0  0  0  0  0
  141.1170   77.0010  221.7170 H   0  0  0  0  0  0  0  0  0  0  0  0
  138.4944   77.8150  221.5042 H   0  0  0  0  0  0  0  0  0  0  0  0
  138.4434   77.0036  223.1108 H   0  0  0  0  0  0  0  0  0  0  0  0
  142.1284   78.5882  224.1675 H   0  0  0  0  0  0  0  0  0  0  0  0
  142.7404   78.1919  222.5644 H   0  0  0  0  0  0  0  0  0  0  0  0
  142.8566   80.8067  224.0854 H   0  0  0  0  0  0  0  0  0  0  0  0
  144.0000   80.2003  222.8904 H   0  0  0  0  0  0  0  0  0  0  0  0
  141.7226   81.9887  222.4922 H   0  0  0  0  0  0  0  0  0  0  0  0
  142.8921   81.4702  221.2713 H   0  0  0  0  0  0  0  0  0  0  0  0
  140.2516   80.6766  221.1110 H   0  0  0  0  0  0  0  0  0  0  0  0
  141.9965   81.1277  219.0311 H   0  0  0  0  0  0  0  0  0  0  0  0
  142.9157   79.7808  217.1452 H   0  0  0  0  0  0  0  0  0  0  0  0
  143.1238   77.3136  217.4013 H   0  0  0  0  0  0  0  0  0  0  0  0
  142.4252   76.2292  219.5181 H   0  0  0  0  0  0  0  0  0  0  0  0
  139.7812   72.5818  221.8379 H   0  0  0  0  0  0  0  0  0  0  0  0
  141.5969   71.0348  221.1585 H   0  0  0  0  0  0  0  0  0  0  0  0
  143.9299   70.7315  220.3850 H   0  0  0  0  0  0  0  0  0  0  0  0
  146.4533   74.1896  219.7868 H   0  0  0  0  0  0  0  0  0  0  0  0
  144.5451   75.6624  220.4908 H   0  0  0  0  0  0  0  0  0  0  0  0
  1  2  2  0
  2  3  1  0
  3  4  1  0
  4  5  1  0
  5  6  2  0
  5  7  1  0
  7  8  1  0
  8  9  1  0
  9 10  1  0
 10 11  1  0
 11 12  1  0
 12 13  2  0
 13 14  1  0
 14 15  2  0
 15 16  1  0
 16 17  2  0
  2 18  1  0
 18 19  2  0
 19 20  1  0
 20 21  2  0
 21 22  1  0
 22 23  2  0
 23 24  1  0
 23 25  1  0
 25 26  2  0
 26 27  1  0
 27 28  2  0
 11  7  1  0
 17 12  1  0
 28 18  1  0
 27 21  1  0
  3 29  1  0
  4 30  1  0
  4 31  1  0
  8 32  1  0
  8 33  1  0
  9 34  1  0
  9 35  1  0
 10 36  1  0
 10 37  1  0
 11 38  1  6
 13 39  1  0
 14 40  1  0
 15 41  1  0
 16 42  1  0
 19 43  1  0
 20 44  1  0
 22 45  1  0
 25 46  1  0
 26 47  1  0
M  END
>  <smiles>  (52) 
O=C(NCC(=O)N1CCCC1c1ccccn1)c1ccc2cc(F)ccc2n1

>  <score_type>  (52) 
oracle

>  <origin>  (52) 
autodockgpu

>  <m_score__min__energy>  (52) 
-8.5999999999999996

>  <m_primary>  (52) 
energy

>  <rmsd>  (52) 
6.055987286953852

>  <m_score__min__rmsd>  (52) 
6.055987286953852

>  <meeko>  (52) 
{"free_energy": -6.89, "intermolecular_energy": -8.38, "internal_energy": -2.78, "cluster_size": 11, "cluster_id": 6, "rank_in_cluster": 4}

>  <energy>  (52) 
-8.6

>  <cluster_rmsd>  (52) 
0.31

>  <cluster>  (52) 
1

$$$$

     RDKit          3D

 47 50  0  0  0  0  0  0  0  0999 V2000
  140.3770   71.9570  220.9880 O   0  0  0  0  0  0  0  0  0  0  0  0
  140.0450   72.3960  222.1210 C   0  0  0  0  0  0  0  0  0  0  0  0
  139.6930   73.7600  222.3460 N   0  0  0  0  0  0  0  0  0  0  0  0
  139.7350   74.6390  221.1830 C   0  0  0  0  0  0  0  0  0  0  0  0
  139.4400   76.0300  221.5870 C   0  0  0  0  0  0  0  0  0  0  0  0
  138.6340   76.3500  222.4900 O   0  0  0  0  0  0  0  0  0  0  0  0
  140.1110   77.0880  220.9140 N   0  0  0  0  0  0  0  0  0  0  0  0
  139.5490   78.0810  220.0000 C   0  0  0  0  0  0  0  0  0  0  0  0
  140.5880   78.2130  218.8930 C   0  0  0  0  0  0  0  0  0  0  0  0
  141.8800   77.7450  219.5260 C   0  0  0  0  0  0  0  0  0  0  0  0
  141.5380   77.4390  220.9750 C   0  0  1  0  0  0  0  0  0  0  0  0
  141.7630   78.6490  221.8250 C   0  0  0  0  0  0  0  0  0  0  0  0
  141.8060   78.6240  223.1850 C   0  0  0  0  0  0  0  0  0  0  0  0
  142.0210   79.7910  223.9090 C   0  0  0  0  0  0  0  0  0  0  0  0
  142.1880   80.9790  223.2260 C   0  0  0  0  0  0  0  0  0  0  0  0
  142.1430   80.9950  221.8510 C   0  0  0  0  0  0  0  0  0  0  0  0
  141.9310   79.8330  221.1680 N   0  0  0  0  0  0  0  0  0  0  0  0
  140.0110   71.4980  223.2690 C   0  0  0  0  0  0  0  0  0  0  0  0
  139.5820   70.1820  223.1130 C   0  0  0  0  0  0  0  0  0  0  0  0
  139.5420   69.3170  224.1890 C   0  0  0  0  0  0  0  0  0  0  0  0
  139.9350   69.7700  225.4300 C   0  0  0  0  0  0  0  0  0  0  0  0
  139.9210   68.9530  226.5570 C   0  0  0  0  0  0  0  0  0  0  0  0
  140.3250   69.4580  227.7820 C   0  0  0  0  0  0  0  0  0  0  0  0
  140.2810   68.5910  228.8380 F   0  0  0  0  0  0  0  0  0  0  0  0
  140.7520   70.7650  227.9450 C   0  0  0  0  0  0  0  0  0  0  0  0
  140.7660   71.5790  226.8150 C   0  0  0  0  0  0  0  0  0  0  0  0
  140.3630   71.0830  225.5880 C   0  0  0  0  0  0  0  0  0  0  0  0
  140.3820   71.8840  224.5050 N   0  0  0  0  0  0  0  0  0  0  0  0
  139.4260   74.0790  223.2950 H   0  0  0  0  0  0  0  0  0  0  0  0
  140.7367   74.5962  220.7305 H   0  0  0  0  0  0  0  0  0  0  0  0
  138.9807   74.3080  220.4540 H   0  0  0  0  0  0  0  0  0  0  0  0
  138.5883   77.7339  219.5920 H   0  0  0  0  0  0  0  0  0  0  0  0
  139.3454   79.0401  220.4987 H   0  0  0  0  0  0  0  0  0  0  0  0
  140.3237   77.5782  218.0344 H   0  0  0  0  0  0  0  0  0  0  0  0
  140.6599   79.2410  218.5082 H   0  0  0  0  0  0  0  0  0  0  0  0
  142.2503   76.8413  219.0198 H   0  0  0  0  0  0  0  0  0  0  0  0
  142.6710   78.5053  219.4463 H   0  0  0  0  0  0  0  0  0  0  0  0
  142.1532   76.6409  221.4162 H   0  0  0  0  0  0  0  0  0  0  0  0
  141.6693   77.6708  223.7167 H   0  0  0  0  0  0  0  0  0  0  0  0
  142.0575   79.7682  225.0082 H   0  0  0  0  0  0  0  0  0  0  0  0
  142.3571   81.9133  223.7814 H   0  0  0  0  0  0  0  0  0  0  0  0
  142.2773   81.9403  221.3048 H   0  0  0  0  0  0  0  0  0  0  0  0
  139.2709   69.8269  222.1195 H   0  0  0  0  0  0  0  0  0  0  0  0
  139.2008   68.2796  224.0572 H   0  0  0  0  0  0  0  0  0  0  0  0
  139.5895   67.9074  226.4749 H   0  0  0  0  0  0  0  0  0  0  0  0
  141.0676   71.1453  228.9278 H   0  0  0  0  0  0  0  0  0  0  0  0
  141.0999   72.6238  226.8987 H   0  0  0  0  0  0  0  0  0  0  0  0
  1  2  2  0
  2  3  1  0
  3  4  1  0
  4  5  1  0
  5  6  2  0
  5  7  1  0
  7  8  1  0
  8  9  1  0
  9 10  1  0
 10 11  1  0
 11 12  1  0
 12 13  2  0
 13 14  1  0
 14 15  2  0
 15 16  1  0
 16 17  2  0
  2 18  1  0
 18 19  2  0
 19 20  1  0
 20 21  2  0
 21 22  1  0
 22 23  2  0
 23 24  1  0
 23 25  1  0
 25 26  2  0
 26 27  1  0
 27 28  2  0
 11  7  1  0
 17 12  1  0
 28 18  1  0
 27 21  1  0
  3 29  1  0
  4 30  1  0
  4 31  1  0
  8 32  1  0
  8 33  1  0
  9 34  1  0
  9 35  1  0
 10 36  1  0
 10 37  1  0
 11 38  1  1
 13 39  1  0
 14 40  1  0
 15 41  1  0
 16 42  1  0
 19 43  1  0
 20 44  1  0
 22 45  1  0
 25 46  1  0
 26 47  1  0
M  END
>  <smiles>  (53) 
O=C(NCC(=O)N1CCCC1c1ccccn1)c1ccc2cc(F)ccc2n1

>  <score_type>  (53) 
oracle

>  <origin>  (53) 
autodockgpu

>  <m_score__min__energy>  (53) 
-8.5999999999999996

>  <m_primary>  (53) 
energy

>  <rmsd>  (53) 
2.43898705430101

>  <m_score__min__rmsd>  (53) 
2.43898705430101

>  <meeko>  (53) 
{"free_energy": -8.13, "intermolecular_energy": -9.62, "internal_energy": -1.56, "cluster_size": 24, "cluster_id": 1, "rank_in_cluster": 22}

>  <energy>  (53) 
-8.56

>  <cluster_rmsd>  (53) 
0.59

>  <cluster>  (53) 
1

$$$$

     RDKit          3D

 47 50  0  0  0  0  0  0  0  0999 V2000
  139.3450   74.7950  222.2940 O   0  0  0  0  0  0  0  0  0  0  0  0
  140.5010   75.1630  221.9570 C   0  0  0  0  0  0  0  0  0  0  0  0
  140.9460   76.5120  222.0770 N   0  0  0  0  0  0  0  0  0  0  0  0
  139.9830   77.4650  222.6170 C   0  0  0  0  0  0  0  0  0  0  0  0
  140.6750   78.7040  223.0360 C   0  0  0  0  0  0  0  0  0  0  0  0
  140.8760   79.0350  224.2260 O   0  0  0  0  0  0  0  0  0  0  0  0
  141.1500   79.5880  222.0280 N   0  0  0  0  0  0  0  0  0  0  0  0
  142.3000   80.4880  222.0820 C   0  0  0  0  0  0  0  0  0  0  0  0
  141.8180   81.7650  221.4050 C   0  0  0  0  0  0  0  0  0  0  0  0
  140.6690   81.3200  220.5260 C   0  0  0  0  0  0  0  0  0  0  0  0
  140.5960   79.8100  220.6850 C   0  0  1  0  0  0  0  0  0  0  0  0
  141.4280   79.1410  219.6370 C   0  0  0  0  0  0  0  0  0  0  0  0
  141.7440   79.7090  218.4420 C   0  0  0  0  0  0  0  0  0  0  0  0
  142.5240   79.0260  217.5160 C   0  0  0  0  0  0  0  0  0  0  0  0
  142.9740   77.7590  217.8290 C   0  0  0  0  0  0  0  0  0  0  0  0
  142.6500   77.1920  219.0400 C   0  0  0  0  0  0  0  0  0  0  0  0
  141.8830   77.8880  219.9280 N   0  0  0  0  0  0  0  0  0  0  0  0
  141.4470   74.1920  221.4190 C   0  0  0  0  0  0  0  0  0  0  0  0
  141.0670   72.8610  221.2610 C   0  0  0  0  0  0  0  0  0  0  0  0
  141.9490   71.9270  220.7530 C   0  0  0  0  0  0  0  0  0  0  0  0
  143.2200   72.3260  220.3990 C   0  0  0  0  0  0  0  0  0  0  0  0
  144.1580   71.4390  219.8800 C   0  0  0  0  0  0  0  0  0  0  0  0
  145.4230   71.8910  219.5410 C   0  0  0  0  0  0  0  0  0  0  0  0
  146.2850   70.9570  219.0390 F   0  0  0  0  0  0  0  0  0  0  0  0
  145.8080   73.2130  219.6950 C   0  0  0  0  0  0  0  0  0  0  0  0
  144.8650   74.0980  220.2130 C   0  0  0  0  0  0  0  0  0  0  0  0
  143.6010   73.6540  220.5550 C   0  0  0  0  0  0  0  0  0  0  0  0
  142.7010   74.5230  221.0550 N   0  0  0  0  0  0  0  0  0  0  0  0
  141.9070   76.7720  221.7870 H   0  0  0  0  0  0  0  0  0  0  0  0
  139.2385   77.7074  221.8444 H   0  0  0  0  0  0  0  0  0  0  0  0
  139.4844   77.0181  223.4897 H   0  0  0  0  0  0  0  0  0  0  0  0
  142.5898   80.6863  223.1245 H   0  0  0  0  0  0  0  0  0  0  0  0
  143.1870   80.0629  221.5895 H   0  0  0  0  0  0  0  0  0  0  0  0
  141.4749   82.4953  222.1526 H   0  0  0  0  0  0  0  0  0  0  0  0
  142.6154   82.2597  220.8310 H   0  0  0  0  0  0  0  0  0  0  0  0
  139.7294   81.7870  220.8561 H   0  0  0  0  0  0  0  0  0  0  0  0
  140.8214   81.6126  219.4766 H   0  0  0  0  0  0  0  0  0  0  0  0
  139.5810   79.4012  220.5725 H   0  0  0  0  0  0  0  0  0  0  0  0
  141.3785   80.7193  218.2060 H   0  0  0  0  0  0  0  0  0  0  0  0
  142.7783   79.4872  216.5503 H   0  0  0  0  0  0  0  0  0  0  0  0
  143.5922   77.2022  217.1095 H   0  0  0  0  0  0  0  0  0  0  0  0
  143.0076   76.1825  219.2910 H   0  0  0  0  0  0  0  0  0  0  0  0
  140.0508   72.5496  221.5446 H   0  0  0  0  0  0  0  0  0  0  0  0
  141.6409   70.8779  220.6325 H   0  0  0  0  0  0  0  0  0  0  0  0
  143.8955   70.3801  219.7390 H   0  0  0  0  0  0  0  0  0  0  0  0
  146.8180   73.5504  219.4193 H   0  0  0  0  0  0  0  0  0  0  0  0
  145.1278   75.1572  220.3509 H   0  0  0  0  0  0  0  0  0  0  0  0
  1  2  2  0
  2  3  1  0
  3  4  1  0
  4  5  1  0
  5  6  2  0
  5  7  1  0
  7  8  1  0
  8  9  1  0
  9 10  1  0
 10 11  1  0
 11 12  1  0
 12 13  2  0
 13 14  1  0
 14 15  2  0
 15 16  1  0
 16 17  2  0
  2 18  1  0
 18 19  2  0
 19 20  1  0
 20 21  2  0
 21 22  1  0
 22 23  2  0
 23 24  1  0
 23 25  1  0
 25 26  2  0
 26 27  1  0
 27 28  2  0
 11  7  1  0
 17 12  1  0
 28 18  1  0
 27 21  1  0
  3 29  1  0
  4 30  1  0
  4 31  1  0
  8 32  1  0
  8 33  1  0
  9 34  1  0
  9 35  1  0
 10 36  1  0
 10 37  1  0
 11 38  1  1
 13 39  1  0
 14 40  1  0
 15 41  1  0
 16 42  1  0
 19 43  1  0
 20 44  1  0
 22 45  1  0
 25 46  1  0
 26 47  1  0
M  END
>  <smiles>  (54) 
O=C(NCC(=O)N1CCCC1c1ccccn1)c1ccc2cc(F)ccc2n1

>  <score_type>  (54) 
oracle

>  <origin>  (54) 
autodockgpu

>  <m_score__min__energy>  (54) 
-8.5999999999999996

>  <m_primary>  (54) 
energy

>  <rmsd>  (54) 
6.186204420018648

>  <m_score__min__rmsd>  (54) 
6.186204420018648

>  <meeko>  (54) 
{"free_energy": -6.67, "intermolecular_energy": -8.16, "internal_energy": -2.68, "cluster_size": 11, "cluster_id": 6, "rank_in_cluster": 10}

>  <energy>  (54) 
-8.55

>  <cluster_rmsd>  (54) 
0.56

>  <cluster>  (54) 
1

$$$$

     RDKit          3D

 47 50  0  0  0  0  0  0  0  0999 V2000
  141.3940   72.3930  221.6420 O   0  0  0  0  0  0  0  0  0  0  0  0
  140.4480   72.5690  222.4540 C   0  0  0  0  0  0  0  0  0  0  0  0
  139.5300   73.6550  222.3450 N   0  0  0  0  0  0  0  0  0  0  0  0
  139.7400   74.5690  221.2280 C   0  0  0  0  0  0  0  0  0  0  0  0
  139.3720   75.9460  221.6230 C   0  0  0  0  0  0  0  0  0  0  0  0
  138.5020   76.2290  222.4770 O   0  0  0  0  0  0  0  0  0  0  0  0
  140.0450   77.0320  220.9980 N   0  0  0  0  0  0  0  0  0  0  0  0
  139.4770   78.0900  220.1640 C   0  0  0  0  0  0  0  0  0  0  0  0
  140.4890   78.2740  219.0390 C   0  0  0  0  0  0  0  0  0  0  0  0
  141.7880   77.7450  219.6060 C   0  0  0  0  0  0  0  0  0  0  0  0
  141.4780   77.3540  221.0410 C   0  0  1  0  0  0  0  0  0  0  0  0
  141.7490   78.5050  221.9580 C   0  0  0  0  0  0  0  0  0  0  0  0
  142.1980   79.7190  221.5400 C   0  0  0  0  0  0  0  0  0  0  0  0
  142.4260   80.7440  222.4510 C   0  0  0  0  0  0  0  0  0  0  0  0
  142.1910   80.5090  223.7910 C   0  0  0  0  0  0  0  0  0  0  0  0
  141.7370   79.2780  224.2060 C   0  0  0  0  0  0  0  0  0  0  0  0
  141.5220   78.2930  223.2870 N   0  0  0  0  0  0  0  0  0  0  0  0
  140.2590   71.6420  223.5640 C   0  0  0  0  0  0  0  0  0  0  0  0
  139.5710   70.4470  223.3650 C   0  0  0  0  0  0  0  0  0  0  0  0
  139.3810   69.5560  224.4030 C   0  0  0  0  0  0  0  0  0  0  0  0
  139.8830   69.8620  225.6500 C   0  0  0  0  0  0  0  0  0  0  0  0
  139.7290   69.0110  226.7410 C   0  0  0  0  0  0  0  0  0  0  0  0
  140.2520   69.3660  227.9740 C   0  0  0  0  0  0  0  0  0  0  0  0
  140.0570   68.4760  228.9930 F   0  0  0  0  0  0  0  0  0  0  0  0
  140.9360   70.5520  228.1790 C   0  0  0  0  0  0  0  0  0  0  0  0
  141.0890   71.4010  227.0850 C   0  0  0  0  0  0  0  0  0  0  0  0
  140.5690   71.0540  225.8510 C   0  0  0  0  0  0  0  0  0  0  0  0
  140.7260   71.8860  224.8030 N   0  0  0  0  0  0  0  0  0  0  0  0
  138.7660   73.7620  223.0370 H   0  0  0  0  0  0  0  0  0  0  0  0
  140.7994   74.5458  220.9330 H   0  0  0  0  0  0  0  0  0  0  0  0
  139.1096   74.2559  220.3827 H   0  0  0  0  0  0  0  0  0  0  0  0
  138.4996   77.7854  219.7617 H   0  0  0  0  0  0  0  0  0  0  0  0
  139.3041   79.0190  220.7271 H   0  0  0  0  0  0  0  0  0  0  0  0
  140.1904   77.6992  218.1499 H   0  0  0  0  0  0  0  0  0  0  0  0
  140.5700   79.3228  218.7173 H   0  0  0  0  0  0  0  0  0  0  0  0
  142.1281   76.8690  219.0342 H   0  0  0  0  0  0  0  0  0  0  0  0
  142.5908   78.4951  219.5528 H   0  0  0  0  0  0  0  0  0  0  0  0
  142.0885   76.5187  221.4145 H   0  0  0  0  0  0  0  0  0  0  0  0
  142.3827   79.8916  220.4694 H   0  0  0  0  0  0  0  0  0  0  0  0
  142.7874   81.7254  222.1101 H   0  0  0  0  0  0  0  0  0  0  0  0
  142.3669   81.3067  224.5278 H   0  0  0  0  0  0  0  0  0  0  0  0
  141.5484   79.0892  225.2731 H   0  0  0  0  0  0  0  0  0  0  0  0
  139.1735   70.2098  222.3671 H   0  0  0  0  0  0  0  0  0  0  0  0
  138.8364   68.6148  224.2370 H   0  0  0  0  0  0  0  0  0  0  0  0
  139.1927   68.0577  226.6243 H   0  0  0  0  0  0  0  0  0  0  0  0
  141.3428   70.8138  229.1669 H   0  0  0  0  0  0  0  0  0  0  0  0
  141.6267   72.3533  227.2033 H   0  0  0  0  0  0  0  0  0  0  0  0
  1  2  2  0
  2  3  1  0
  3  4  1  0
  4  5  1  0
  5  6  2  0
  5  7  1  0
  7  8  1  0
  8  9  1  0
  9 10  1  0
 10 11  1  0
 11 12  1  0
 12 13  2  0
 13 14  1  0
 14 15  2  0
 15 16  1  0
 16 17  2  0
  2 18  1  0
 18 19  2  0
 19 20  1  0
 20 21  2  0
 21 22  1  0
 22 23  2  0
 23 24  1  0
 23 25  1  0
 25 26  2  0
 26 27  1  0
 27 28  2  0
 11  7  1  0
 17 12  1  0
 28 18  1  0
 27 21  1  0
  3 29  1  0
  4 30  1  0
  4 31  1  0
  8 32  1  0
  8 33  1  0
  9 34  1  0
  9 35  1  0
 10 36  1  0
 10 37  1  0
 11 38  1  1
 13 39  1  0
 14 40  1  0
 15 41  1  0
 16 42  1  0
 19 43  1  0
 20 44  1  0
 22 45  1  0
 25 46  1  0
 26 47  1  0
M  END
>  <smiles>  (55) 
O=C(NCC(=O)N1CCCC1c1ccccn1)c1ccc2cc(F)ccc2n1

>  <score_type>  (55) 
oracle

>  <origin>  (55) 
autodockgpu

>  <m_score__min__energy>  (55) 
-8.5999999999999996

>  <m_primary>  (55) 
energy

>  <rmsd>  (55) 
2.107689955217723

>  <m_score__min__rmsd>  (55) 
2.107689955217723

>  <meeko>  (55) 
{"free_energy": -8.46, "intermolecular_energy": -9.95, "internal_energy": -1.44, "cluster_size": 24, "cluster_id": 1, "rank_in_cluster": 8}

>  <energy>  (55) 
-8.47

>  <cluster_rmsd>  (55) 
1.06

>  <cluster>  (55) 
1

$$$$

     RDKit          3D

 47 50  0  0  0  0  0  0  0  0999 V2000
  141.3160   72.5590  221.7870 O   0  0  0  0  0  0  0  0  0  0  0  0
  140.2950   72.5460  222.5250 C   0  0  0  0  0  0  0  0  0  0  0  0
  139.1990   73.4400  222.3400 N   0  0  0  0  0  0  0  0  0  0  0  0
  139.3170   74.3880  221.2390 C   0  0  0  0  0  0  0  0  0  0  0  0
  140.2560   75.4720  221.5990 C   0  0  0  0  0  0  0  0  0  0  0  0
  141.4620   75.2980  221.8850 O   0  0  0  0  0  0  0  0  0  0  0  0
  139.7700   76.8090  221.6280 N   0  0  0  0  0  0  0  0  0  0  0  0
  138.5920   77.3290  222.3180 C   0  0  0  0  0  0  0  0  0  0  0  0
  137.9720   78.3090  221.3290 C   0  0  0  0  0  0  0  0  0  0  0  0
  139.1130   78.7030  220.4170 C   0  0  0  0  0  0  0  0  0  0  0  0
  140.3390   77.9930  220.9670 C   0  0  1  0  0  0  0  0  0  0  0  0
  141.0480   78.8730  221.9480 C   0  0  0  0  0  0  0  0  0  0  0  0
  141.4540   78.4620  223.1800 C   0  0  0  0  0  0  0  0  0  0  0  0
  142.1100   79.3370  224.0380 C   0  0  0  0  0  0  0  0  0  0  0  0
  142.3410   80.6330  223.6210 C   0  0  0  0  0  0  0  0  0  0  0  0
  141.9260   81.0390  222.3740 C   0  0  0  0  0  0  0  0  0  0  0  0
  141.2860   80.1560  221.5540 N   0  0  0  0  0  0  0  0  0  0  0  0
  140.2000   71.5890  223.6210 C   0  0  0  0  0  0  0  0  0  0  0  0
  139.6160   70.3420  223.4100 C   0  0  0  0  0  0  0  0  0  0  0  0
  139.5170   69.4220  224.4360 C   0  0  0  0  0  0  0  0  0  0  0  0
  140.0050   69.7510  225.6820 C   0  0  0  0  0  0  0  0  0  0  0  0
  139.9390   68.8740  226.7600 C   0  0  0  0  0  0  0  0  0  0  0  0
  140.4440   69.2540  227.9930 C   0  0  0  0  0  0  0  0  0  0  0  0
  140.3400   68.3340  228.9990 F   0  0  0  0  0  0  0  0  0  0  0  0
  141.0260   70.4910  228.2100 C   0  0  0  0  0  0  0  0  0  0  0  0
  141.0910   71.3670  227.1290 C   0  0  0  0  0  0  0  0  0  0  0  0
  140.5880   70.9950  225.8950 C   0  0  0  0  0  0  0  0  0  0  0  0
  140.6590   71.8540  224.8590 N   0  0  0  0  0  0  0  0  0  0  0  0
  138.3780   73.3950  222.9720 H   0  0  0  0  0  0  0  0  0  0  0  0
  139.6909   73.8644  220.3468 H   0  0  0  0  0  0  0  0  0  0  0  0
  138.3282   74.8229  221.0314 H   0  0  0  0  0  0  0  0  0  0  0  0
  137.8887   76.5165  222.5529 H   0  0  0  0  0  0  0  0  0  0  0  0
  138.8452   77.8059  223.2764 H   0  0  0  0  0  0  0  0  0  0  0  0
  137.1664   77.8259  220.7567 H   0  0  0  0  0  0  0  0  0  0  0  0
  137.5192   79.1773  221.8300 H   0  0  0  0  0  0  0  0  0  0  0  0
  138.9107   78.3772  219.3860 H   0  0  0  0  0  0  0  0  0  0  0  0
  139.2530   79.7937  220.3878 H   0  0  0  0  0  0  0  0  0  0  0  0
  141.0829   77.7345  220.1990 H   0  0  0  0  0  0  0  0  0  0  0  0
  141.2612   77.4274  223.5000 H   0  0  0  0  0  0  0  0  0  0  0  0
  142.4397   79.0026  225.0327 H   0  0  0  0  0  0  0  0  0  0  0  0
  142.8570   81.3409  224.2862 H   0  0  0  0  0  0  0  0  0  0  0  0
  142.1092   82.0707  222.0394 H   0  0  0  0  0  0  0  0  0  0  0  0
  139.2283   70.0863  222.4128 H   0  0  0  0  0  0  0  0  0  0  0  0
  139.0546   68.4395  224.2605 H   0  0  0  0  0  0  0  0  0  0  0  0
  139.4862   67.8795  226.6335 H   0  0  0  0  0  0  0  0  0  0  0  0
  141.4216   70.7712  229.1974 H   0  0  0  0  0  0  0  0  0  0  0  0
  141.5451   72.3607  227.2572 H   0  0  0  0  0  0  0  0  0  0  0  0
  1  2  2  0
  2  3  1  0
  3  4  1  0
  4  5  1  0
  5  6  2  0
  5  7  1  0
  7  8  1  0
  8  9  1  0
  9 10  1  0
 10 11  1  0
 11 12  1  0
 12 13  2  0
 13 14  1  0
 14 15  2  0
 15 16  1  0
 16 17  2  0
  2 18  1  0
 18 19  2  0
 19 20  1  0
 20 21  2  0
 21 22  1  0
 22 23  2  0
 23 24  1  0
 23 25  1  0
 25 26  2  0
 26 27  1  0
 27 28  2  0
 11  7  1  0
 17 12  1  0
 28 18  1  0
 27 21  1  0
  3 29  1  0
  4 30  1  0
  4 31  1  0
  8 32  1  0
  8 33  1  0
  9 34  1  0
  9 35  1  0
 10 36  1  0
 10 37  1  0
 11 38  1  6
 13 39  1  0
 14 40  1  0
 15 41  1  0
 16 42  1  0
 19 43  1  0
 20 44  1  0
 22 45  1  0
 25 46  1  0
 26 47  1  0
M  END
>  <smiles>  (56) 
O=C(NCC(=O)N1CCCC1c1ccccn1)c1ccc2cc(F)ccc2n1

>  <score_type>  (56) 
oracle

>  <origin>  (56) 
autodockgpu

>  <m_score__min__energy>  (56) 
-8.5999999999999996

>  <m_primary>  (56) 
energy

>  <rmsd>  (56) 
2.806868937623376

>  <m_score__min__rmsd>  (56) 
2.806868937623376

>  <meeko>  (56) 
{"free_energy": -8.55, "intermolecular_energy": -10.05, "internal_energy": -1.17, "cluster_size": 24, "cluster_id": 1, "rank_in_cluster": 4}

>  <energy>  (56) 
-8.47

>  <cluster_rmsd>  (56) 
1.06

>  <cluster>  (56) 
1

$$$$

     RDKit          3D

 47 50  0  0  0  0  0  0  0  0999 V2000
  141.0640   72.0440  221.3410 O   0  0  0  0  0  0  0  0  0  0  0  0
  140.3270   72.4300  222.2870 C   0  0  0  0  0  0  0  0  0  0  0  0
  139.6460   73.6830  222.2720 N   0  0  0  0  0  0  0  0  0  0  0  0
  139.8450   74.5130  221.0900 C   0  0  0  0  0  0  0  0  0  0  0  0
  141.0760   75.3200  221.2390 C   0  0  0  0  0  0  0  0  0  0  0  0
  142.2360   74.8510  221.2290 O   0  0  0  0  0  0  0  0  0  0  0  0
  140.9470   76.7270  221.4040 N   0  0  0  0  0  0  0  0  0  0  0  0
  140.9600   77.7650  220.3750 C   0  0  0  0  0  0  0  0  0  0  0  0
  141.7850   78.8940  220.9830 C   0  0  0  0  0  0  0  0  0  0  0  0
  141.6930   78.6720  222.4760 C   0  0  0  0  0  0  0  0  0  0  0  0
  140.7690   77.4780  222.6550 C   0  0  1  0  0  0  0  0  0  0  0  0
  139.3550   77.9410  222.8130 C   0  0  0  0  0  0  0  0  0  0  0  0
  139.0050   79.2160  223.1370 C   0  0  0  0  0  0  0  0  0  0  0  0
  137.6680   79.5740  223.2660 C   0  0  0  0  0  0  0  0  0  0  0  0
  136.6980   78.6130  223.0610 C   0  0  0  0  0  0  0  0  0  0  0  0
  137.0600   77.3270  222.7340 C   0  0  0  0  0  0  0  0  0  0  0  0
  138.3810   77.0070  222.6140 N   0  0  0  0  0  0  0  0  0  0  0  0
  140.1420   71.5820  223.4590 C   0  0  0  0  0  0  0  0  0  0  0  0
  139.4280   70.3910  223.3540 C   0  0  0  0  0  0  0  0  0  0  0  0
  139.2420   69.5750  224.4530 C   0  0  0  0  0  0  0  0  0  0  0  0
  139.7760   69.9520  225.6660 C   0  0  0  0  0  0  0  0  0  0  0  0
  139.6290   69.1780  226.8140 C   0  0  0  0  0  0  0  0  0  0  0  0
  140.1840   69.6030  228.0100 C   0  0  0  0  0  0  0  0  0  0  0  0
  139.9940   68.7860  229.0890 F   0  0  0  0  0  0  0  0  0  0  0  0
  140.8960   70.7850  228.1220 C   0  0  0  0  0  0  0  0  0  0  0  0
  141.0420   71.5560  226.9710 C   0  0  0  0  0  0  0  0  0  0  0  0
  140.4900   71.1400  225.7740 C   0  0  0  0  0  0  0  0  0  0  0  0
  140.6400   71.8970  224.6700 N   0  0  0  0  0  0  0  0  0  0  0  0
  139.0490   73.9610  223.0730 H   0  0  0  0  0  0  0  0  0  0  0  0
  139.9373   73.8682  220.2036 H   0  0  0  0  0  0  0  0  0  0  0  0
  138.9836   75.1871  220.9733 H   0  0  0  0  0  0  0  0  0  0  0  0
  141.4302   77.3927  219.4529 H   0  0  0  0  0  0  0  0  0  0  0  0
  139.9470   78.0903  220.0958 H   0  0  0  0  0  0  0  0  0  0  0  0
  142.8304   78.8364  220.6455 H   0  0  0  0  0  0  0  0  0  0  0  0
  141.4168   79.8869  220.6853 H   0  0  0  0  0  0  0  0  0  0  0  0
  142.6870   78.4545  222.8939 H   0  0  0  0  0  0  0  0  0  0  0  0
  141.3130   79.5628  222.9976 H   0  0  0  0  0  0  0  0  0  0  0  0
  140.9924   76.8745  223.5471 H   0  0  0  0  0  0  0  0  0  0  0  0
  139.7885   79.9710  223.2984 H   0  0  0  0  0  0  0  0  0  0  0  0
  137.3876   80.6052  223.5269 H   0  0  0  0  0  0  0  0  0  0  0  0
  135.6345   78.8762  223.1593 H   0  0  0  0  0  0  0  0  0  0  0  0
  136.2884   76.5603  222.5700 H   0  0  0  0  0  0  0  0  0  0  0  0
  139.0061   70.0958  222.3820 H   0  0  0  0  0  0  0  0  0  0  0  0
  138.6752   68.6368  224.3610 H   0  0  0  0  0  0  0  0  0  0  0  0
  139.0727   68.2300  226.7713 H   0  0  0  0  0  0  0  0  0  0  0  0
  141.3293   71.1028  229.0818 H   0  0  0  0  0  0  0  0  0  0  0  0
  141.6006   72.5026  227.0150 H   0  0  0  0  0  0  0  0  0  0  0  0
  1  2  2  0
  2  3  1  0
  3  4  1  0
  4  5  1  0
  5  6  2  0
  5  7  1  0
  7  8  1  0
  8  9  1  0
  9 10  1  0
 10 11  1  0
 11 12  1  0
 12 13  2  0
 13 14  1  0
 14 15  2  0
 15 16  1  0
 16 17  2  0
  2 18  1  0
 18 19  2  0
 19 20  1  0
 20 21  2  0
 21 22  1  0
 22 23  2  0
 23 24  1  0
 23 25  1  0
 25 26  2  0
 26 27  1  0
 27 28  2  0
 11  7  1  0
 17 12  1  0
 28 18  1  0
 27 21  1  0
  3 29  1  0
  4 30  1  0
  4 31  1  0
  8 32  1  0
  8 33  1  0
  9 34  1  0
  9 35  1  0
 10 36  1  0
 10 37  1  0
 11 38  1  1
 13 39  1  0
 14 40  1  0
 15 41  1  0
 16 42  1  0
 19 43  1  0
 20 44  1  0
 22 45  1  0
 25 46  1  0
 26 47  1  0
M  END
>  <smiles>  (57) 
O=C(NCC(=O)N1CCCC1c1ccccn1)c1ccc2cc(F)ccc2n1

>  <score_type>  (57) 
oracle

>  <origin>  (57) 
autodockgpu

>  <m_score__min__energy>  (57) 
-8.5999999999999996

>  <m_primary>  (57) 
energy

>  <rmsd>  (57) 
3.0853914195062986

>  <m_score__min__rmsd>  (57) 
3.0853914195062986

>  <meeko>  (57) 
{"free_energy": -7.79, "intermolecular_energy": -9.28, "internal_energy": -1.44, "cluster_size": 24, "cluster_id": 1, "rank_in_cluster": 24}

>  <energy>  (57) 
-8.46

>  <cluster_rmsd>  (57) 
0.91

>  <cluster>  (57) 
1

$$$$

     RDKit          3D

 47 50  0  0  0  0  0  0  0  0999 V2000
  140.8310   73.1010  222.2250 O   0  0  0  0  0  0  0  0  0  0  0  0
  139.7860   72.6180  222.7360 C   0  0  0  0  0  0  0  0  0  0  0  0
  138.4770   73.0140  222.3340 N   0  0  0  0  0  0  0  0  0  0  0  0
  138.4010   74.0220  221.2830 C   0  0  0  0  0  0  0  0  0  0  0  0
  138.4920   75.3760  221.8710 C   0  0  0  0  0  0  0  0  0  0  0  0
  137.7600   75.7990  222.7920 O   0  0  0  0  0  0  0  0  0  0  0  0
  139.4770   76.2690  221.3640 N   0  0  0  0  0  0  0  0  0  0  0  0
  139.4340   77.0620  220.1360 C   0  0  0  0  0  0  0  0  0  0  0  0
  140.8440   76.9570  219.5660 C   0  0  0  0  0  0  0  0  0  0  0  0
  141.7120   76.6160  220.7560 C   0  0  0  0  0  0  0  0  0  0  0  0
  140.7780   76.6120  221.9550 C   0  0  1  0  0  0  0  0  0  0  0  0
  140.7470   77.9670  222.5880 C   0  0  0  0  0  0  0  0  0  0  0  0
  141.8530   78.7330  222.7960 C   0  0  0  0  0  0  0  0  0  0  0  0
  141.7460   79.9860  223.3890 C   0  0  0  0  0  0  0  0  0  0  0  0
  140.4990   80.4410  223.7660 C   0  0  0  0  0  0  0  0  0  0  0  0
  139.3860   79.6600  223.5520 C   0  0  0  0  0  0  0  0  0  0  0  0
  139.5230   78.4350  222.9670 N   0  0  0  0  0  0  0  0  0  0  0  0
  139.8870   71.6110  223.7870 C   0  0  0  0  0  0  0  0  0  0  0  0
  139.4740   70.3040  223.5420 C   0  0  0  0  0  0  0  0  0  0  0  0
  139.5610   69.3360  224.5240 C   0  0  0  0  0  0  0  0  0  0  0  0
  140.0670   69.6780  225.7600 C   0  0  0  0  0  0  0  0  0  0  0  0
  140.1840   68.7550  226.7950 C   0  0  0  0  0  0  0  0  0  0  0  0
  140.6990   69.1500  228.0190 C   0  0  0  0  0  0  0  0  0  0  0  0
  140.7800   68.1830  228.9820 F   0  0  0  0  0  0  0  0  0  0  0  0
  141.1120   70.4470  228.2690 C   0  0  0  0  0  0  0  0  0  0  0  0
  140.9940   71.3690  227.2310 C   0  0  0  0  0  0  0  0  0  0  0  0
  140.4810   70.9820  226.0060 C   0  0  0  0  0  0  0  0  0  0  0  0
  140.3730   71.8850  225.0130 N   0  0  0  0  0  0  0  0  0  0  0  0
  137.6430   72.5910  222.7830 H   0  0  0  0  0  0  0  0  0  0  0  0
  139.2317   73.8752  220.5771 H   0  0  0  0  0  0  0  0  0  0  0  0
  137.4406   73.9217  220.7562 H   0  0  0  0  0  0  0  0  0  0  0  0
  138.6977   76.6483  219.4313 H   0  0  0  0  0  0  0  0  0  0  0  0
  139.1333   78.1039  220.3205 H   0  0  0  0  0  0  0  0  0  0  0  0
  140.8976   76.1634  218.8061 H   0  0  0  0  0  0  0  0  0  0  0  0
  141.1632   77.8850  219.0691 H   0  0  0  0  0  0  0  0  0  0  0  0
  142.1722   75.6256  220.6244 H   0  0  0  0  0  0  0  0  0  0  0  0
  142.5326   77.3377  220.8815 H   0  0  0  0  0  0  0  0  0  0  0  0
  141.0796   75.9136  222.7495 H   0  0  0  0  0  0  0  0  0  0  0  0
  142.8410   78.3569  222.4919 H   0  0  0  0  0  0  0  0  0  0  0  0
  142.6405   80.6043  223.5549 H   0  0  0  0  0  0  0  0  0  0  0  0
  140.3943   81.4290  224.2381 H   0  0  0  0  0  0  0  0  0  0  0  0
  138.3911   80.0216  223.8511 H   0  0  0  0  0  0  0  0  0  0  0  0
  139.0728   70.0384  222.5528 H   0  0  0  0  0  0  0  0  0  0  0  0
  139.2310   68.3062  224.3224 H   0  0  0  0  0  0  0  0  0  0  0  0
  139.8678   67.7127  226.6414 H   0  0  0  0  0  0  0  0  0  0  0  0
  141.5176   70.7387  229.2490 H   0  0  0  0  0  0  0  0  0  0  0  0
  141.3107   72.4109  227.3866 H   0  0  0  0  0  0  0  0  0  0  0  0
  1  2  2  0
  2  3  1  0
  3  4  1  0
  4  5  1  0
  5  6  2  0
  5  7  1  0
  7  8  1  0
  8  9  1  0
  9 10  1  0
 10 11  1  0
 11 12  1  0
 12 13  2  0
 13 14  1  0
 14 15  2  0
 15 16  1  0
 16 17  2  0
  2 18  1  0
 18 19  2  0
 19 20  1  0
 20 21  2  0
 21 22  1  0
 22 23  2  0
 23 24  1  0
 23 25  1  0
 25 26  2  0
 26 27  1  0
 27 28  2  0
 11  7  1  0
 17 12  1  0
 28 18  1  0
 27 21  1  0
  3 29  1  0
  4 30  1  0
  4 31  1  0
  8 32  1  0
  8 33  1  0
  9 34  1  0
  9 35  1  0
 10 36  1  0
 10 37  1  0
 11 38  1  1
 13 39  1  0
 14 40  1  0
 15 41  1  0
 16 42  1  0
 19 43  1  0
 20 44  1  0
 22 45  1  0
 25 46  1  0
 26 47  1  0
M  END
>  <smiles>  (58) 
O=C(NCC(=O)N1CCCC1c1ccccn1)c1ccc2cc(F)ccc2n1

>  <score_type>  (58) 
oracle

>  <origin>  (58) 
autodockgpu

>  <m_score__min__energy>  (58) 
-8.5999999999999996

>  <m_primary>  (58) 
energy

>  <rmsd>  (58) 
2.2613116470846193

>  <m_score__min__rmsd>  (58) 
2.2613116470846193

>  <meeko>  (58) 
{"free_energy": -8.05, "intermolecular_energy": -9.54, "internal_energy": -1.45, "cluster_size": 24, "cluster_id": 1, "rank_in_cluster": 23}

>  <energy>  (58) 
-8.46

>  <cluster_rmsd>  (58) 
0.92

>  <cluster>  (58) 
1

$$$$

     RDKit          3D

 47 50  0  0  0  0  0  0  0  0999 V2000
  141.2200   72.4700  221.7490 O   0  0  0  0  0  0  0  0  0  0  0  0
  140.2230   72.5100  222.5170 C   0  0  0  0  0  0  0  0  0  0  0  0
  139.1610   73.4480  222.3550 N   0  0  0  0  0  0  0  0  0  0  0  0
  139.2840   74.3770  221.2380 C   0  0  0  0  0  0  0  0  0  0  0  0
  140.3060   75.4030  221.5400 C   0  0  0  0  0  0  0  0  0  0  0  0
  141.4650   75.1520  221.9380 O   0  0  0  0  0  0  0  0  0  0  0  0
  139.9610   76.7730  221.3720 N   0  0  0  0  0  0  0  0  0  0  0  0
  138.6950   77.4330  221.6870 C   0  0  0  0  0  0  0  0  0  0  0  0
  138.4620   78.3870  220.5210 C   0  0  0  0  0  0  0  0  0  0  0  0
  139.8390   78.6230  219.9410 C   0  0  0  0  0  0  0  0  0  0  0  0
  140.7970   77.8580  220.8390 C   0  0  1  0  0  0  0  0  0  0  0  0
  141.2970   78.7460  221.9340 C   0  0  0  0  0  0  0  0  0  0  0  0
  141.3650   78.3730  223.2420 C   0  0  0  0  0  0  0  0  0  0  0  0
  141.8420   79.2540  224.2050 C   0  0  0  0  0  0  0  0  0  0  0  0
  142.2450   80.5150  223.8160 C   0  0  0  0  0  0  0  0  0  0  0  0
  142.1730   80.8830  222.4920 C   0  0  0  0  0  0  0  0  0  0  0  0
  141.7010   79.9970  221.5690 N   0  0  0  0  0  0  0  0  0  0  0  0
  140.1220   71.5710  223.6290 C   0  0  0  0  0  0  0  0  0  0  0  0
  139.5360   70.3230  223.4360 C   0  0  0  0  0  0  0  0  0  0  0  0
  139.4310   69.4200  224.4760 C   0  0  0  0  0  0  0  0  0  0  0  0
  139.9160   69.7680  225.7190 C   0  0  0  0  0  0  0  0  0  0  0  0
  139.8440   68.9080  226.8110 C   0  0  0  0  0  0  0  0  0  0  0  0
  140.3460   69.3070  228.0390 C   0  0  0  0  0  0  0  0  0  0  0  0
  140.2370   68.4040  229.0590 F   0  0  0  0  0  0  0  0  0  0  0  0
  140.9300   70.5460  228.2380 C   0  0  0  0  0  0  0  0  0  0  0  0
  141.0010   71.4040  227.1420 C   0  0  0  0  0  0  0  0  0  0  0  0
  140.5020   71.0140  225.9130 C   0  0  0  0  0  0  0  0  0  0  0  0
  140.5780   71.8550  224.8640 N   0  0  0  0  0  0  0  0  0  0  0  0
  138.3590   73.4460  223.0120 H   0  0  0  0  0  0  0  0  0  0  0  0
  139.5804   73.8230  220.3351 H   0  0  0  0  0  0  0  0  0  0  0  0
  138.3154   74.8715  221.0728 H   0  0  0  0  0  0  0  0  0  0  0  0
  137.8799   76.6977  221.7567 H   0  0  0  0  0  0  0  0  0  0  0  0
  138.7245   77.9546  222.6550 H   0  0  0  0  0  0  0  0  0  0  0  0
  137.7981   77.9304  219.7722 H   0  0  0  0  0  0  0  0  0  0  0  0
  137.9764   79.3220  220.8372 H   0  0  0  0  0  0  0  0  0  0  0  0
  139.8920   78.2423  218.9103 H   0  0  0  0  0  0  0  0  0  0  0  0
  140.0859   79.6942  219.9012 H   0  0  0  0  0  0  0  0  0  0  0  0
  141.6918   77.4868  220.3179 H   0  0  0  0  0  0  0  0  0  0  0  0
  141.0394   77.3651  223.5389 H   0  0  0  0  0  0  0  0  0  0  0  0
  141.8974   78.9508  225.2609 H   0  0  0  0  0  0  0  0  0  0  0  0
  142.6240   81.2264  224.5645 H   0  0  0  0  0  0  0  0  0  0  0  0
  142.4948   81.8874  222.1795 H   0  0  0  0  0  0  0  0  0  0  0  0
  139.1513   70.0523  222.4417 H   0  0  0  0  0  0  0  0  0  0  0  0
  138.9665   68.4360  224.3147 H   0  0  0  0  0  0  0  0  0  0  0  0
  139.3891   67.9128  226.6991 H   0  0  0  0  0  0  0  0  0  0  0  0
  141.3225   70.8417  229.2221 H   0  0  0  0  0  0  0  0  0  0  0  0
  141.4573   72.3984  227.2556 H   0  0  0  0  0  0  0  0  0  0  0  0
  1  2  2  0
  2  3  1  0
  3  4  1  0
  4  5  1  0
  5  6  2  0
  5  7  1  0
  7  8  1  0
  8  9  1  0
  9 10  1  0
 10 11  1  0
 11 12  1  0
 12 13  2  0
 13 14  1  0
 14 15  2  0
 15 16  1  0
 16 17  2  0
  2 18  1  0
 18 19  2  0
 19 20  1  0
 20 21  2  0
 21 22  1  0
 22 23  2  0
 23 24  1  0
 23 25  1  0
 25 26  2  0
 26 27  1  0
 27 28  2  0
 11  7  1  0
 17 12  1  0
 28 18  1  0
 27 21  1  0
  3 29  1  0
  4 30  1  0
  4 31  1  0
  8 32  1  0
  8 33  1  0
  9 34  1  0
  9 35  1  0
 10 36  1  0
 10 37  1  0
 11 38  1  6
 13 39  1  0
 14 40  1  0
 15 41  1  0
 16 42  1  0
 19 43  1  0
 20 44  1  0
 22 45  1  0
 25 46  1  0
 26 47  1  0
M  END
>  <smiles>  (59) 
O=C(NCC(=O)N1CCCC1c1ccccn1)c1ccc2cc(F)ccc2n1

>  <score_type>  (59) 
oracle

>  <origin>  (59) 
autodockgpu

>  <m_score__min__energy>  (59) 
-8.5999999999999996

>  <m_primary>  (59) 
energy

>  <rmsd>  (59) 
2.632360595133142

>  <m_score__min__rmsd>  (59) 
2.632360595133142

>  <meeko>  (59) 
{"free_energy": -8.56, "intermolecular_energy": -10.05, "internal_energy": -1.17, "cluster_size": 24, "cluster_id": 1, "rank_in_cluster": 3}

>  <energy>  (59) 
-8.45

>  <cluster_rmsd>  (59) 
0.93

>  <cluster>  (59) 
1

$$$$

     RDKit          3D

 47 50  0  0  0  0  0  0  0  0999 V2000
  141.2160   72.0600  221.4120 O   0  0  0  0  0  0  0  0  0  0  0  0
  140.3830   72.3700  222.3040 C   0  0  0  0  0  0  0  0  0  0  0  0
  139.5750   73.5430  222.2300 N   0  0  0  0  0  0  0  0  0  0  0  0
  139.7600   74.3830  221.0530 C   0  0  0  0  0  0  0  0  0  0  0  0
  140.8180   75.3850  221.3050 C   0  0  0  0  0  0  0  0  0  0  0  0
  140.9240   76.0530  222.3580 O   0  0  0  0  0  0  0  0  0  0  0  0
  141.7900   75.6150  220.2910 N   0  0  0  0  0  0  0  0  0  0  0  0
  142.5910   76.8150  220.0610 C   0  0  0  0  0  0  0  0  0  0  0  0
  142.6000   76.9830  218.5460 C   0  0  0  0  0  0  0  0  0  0  0  0
  142.3110   75.5990  218.0080 C   0  0  0  0  0  0  0  0  0  0  0  0
  142.2220   74.6970  219.2280 C   0  0  1  0  0  0  0  0  0  0  0  0
  143.5630   74.1080  219.5320 C   0  0  0  0  0  0  0  0  0  0  0  0
  144.3720   73.5390  218.5960 C   0  0  0  0  0  0  0  0  0  0  0  0
  145.6080   73.0120  218.9530 C   0  0  0  0  0  0  0  0  0  0  0  0
  146.0030   73.0740  220.2740 C   0  0  0  0  0  0  0  0  0  0  0  0
  145.1790   73.6510  221.2130 C   0  0  0  0  0  0  0  0  0  0  0  0
  143.9720   74.1600  220.8320 N   0  0  0  0  0  0  0  0  0  0  0  0
  140.2160   71.5150  223.4740 C   0  0  0  0  0  0  0  0  0  0  0  0
  139.5700   70.2870  223.3530 C   0  0  0  0  0  0  0  0  0  0  0  0
  139.4020   69.4630  224.4490 C   0  0  0  0  0  0  0  0  0  0  0  0
  139.8820   69.8690  225.6750 C   0  0  0  0  0  0  0  0  0  0  0  0
  139.7480   69.0900  226.8200 C   0  0  0  0  0  0  0  0  0  0  0  0
  140.2490   69.5460  228.0290 C   0  0  0  0  0  0  0  0  0  0  0  0
  140.0760   68.7210  229.1050 F   0  0  0  0  0  0  0  0  0  0  0  0
  140.8920   70.7650  228.1560 C   0  0  0  0  0  0  0  0  0  0  0  0
  141.0250   71.5420  227.0080 C   0  0  0  0  0  0  0  0  0  0  0  0
  140.5270   71.0950  225.7980 C   0  0  0  0  0  0  0  0  0  0  0  0
  140.6640   71.8580  224.6960 N   0  0  0  0  0  0  0  0  0  0  0  0
  138.9020   73.7600  222.9880 H   0  0  0  0  0  0  0  0  0  0  0  0
  140.0509   73.7537  220.1990 H   0  0  0  0  0  0  0  0  0  0  0  0
  138.8169   74.9035  220.8303 H   0  0  0  0  0  0  0  0  0  0  0  0
  142.1311   77.6884  220.5464 H   0  0  0  0  0  0  0  0  0  0  0  0
  143.6050   76.7275  220.4783 H   0  0  0  0  0  0  0  0  0  0  0  0
  141.8221   77.6932  218.2292 H   0  0  0  0  0  0  0  0  0  0  0  0
  143.5552   77.3838  218.1760 H   0  0  0  0  0  0  0  0  0  0  0  0
  141.3599   75.5926  217.4555 H   0  0  0  0  0  0  0  0  0  0  0  0
  143.0910   75.2628  217.3091 H   0  0  0  0  0  0  0  0  0  0  0  0
  141.5386   73.8446  219.0999 H   0  0  0  0  0  0  0  0  0  0  0  0
  144.0442   73.4959  217.5468 H   0  0  0  0  0  0  0  0  0  0  0  0
  146.2602   72.5533  218.1953 H   0  0  0  0  0  0  0  0  0  0  0  0
  146.9771   72.6619  220.5764 H   0  0  0  0  0  0  0  0  0  0  0  0
  145.4922   73.7016  222.2663 H   0  0  0  0  0  0  0  0  0  0  0  0
  139.1885   69.9690  222.3715 H   0  0  0  0  0  0  0  0  0  0  0  0
  138.8912   68.4945  224.3442 H   0  0  0  0  0  0  0  0  0  0  0  0
  139.2450   68.1133  226.7657 H   0  0  0  0  0  0  0  0  0  0  0  0
  141.2827   71.1067  229.1258 H   0  0  0  0  0  0  0  0  0  0  0  0
  141.5296   72.5178  227.0642 H   0  0  0  0  0  0  0  0  0  0  0  0
  1  2  2  0
  2  3  1  0
  3  4  1  0
  4  5  1  0
  5  6  2  0
  5  7  1  0
  7  8  1  0
  8  9  1  0
  9 10  1  0
 10 11  1  0
 11 12  1  0
 12 13  2  0
 13 14  1  0
 14 15  2  0
 15 16  1  0
 16 17  2  0
  2 18  1  0
 18 19  2  0
 19 20  1  0
 20 21  2  0
 21 22  1  0
 22 23  2  0
 23 24  1  0
 23 25  1  0
 25 26  2  0
 26 27  1  0
 27 28  2  0
 11  7  1  0
 17 12  1  0
 28 18  1  0
 27 21  1  0
  3 29  1  0
  4 30  1  0
  4 31  1  0
  8 32  1  0
  8 33  1  0
  9 34  1  0
  9 35  1  0
 10 36  1  0
 10 37  1  0
 11 38  1  6
 13 39  1  0
 14 40  1  0
 15 41  1  0
 16 42  1  0
 19 43  1  0
 20 44  1  0
 22 45  1  0
 25 46  1  0
 26 47  1  0
M  END
>  <smiles>  (60) 
O=C(NCC(=O)N1CCCC1c1ccccn1)c1ccc2cc(F)ccc2n1

>  <score_type>  (60) 
oracle

>  <origin>  (60) 
autodockgpu

>  <m_score__min__energy>  (60) 
-8.5999999999999996

>  <m_primary>  (60) 
energy

>  <rmsd>  (60) 
4.1898336938839

>  <m_score__min__rmsd>  (60) 
4.1898336938839

>  <meeko>  (60) 
{"free_energy": -8.12, "intermolecular_energy": -9.61, "internal_energy": -1.61, "cluster_size": 8, "cluster_id": 2, "rank_in_cluster": 4}

>  <energy>  (60) 
-8.44

>  <cluster_rmsd>  (60) 
1.1

>  <cluster>  (60) 
1

$$$$

     RDKit          3D

 47 50  0  0  0  0  0  0  0  0999 V2000
  141.4530   72.2950  221.6580 O   0  0  0  0  0  0  0  0  0  0  0  0
  140.4560   72.4640  222.4080 C   0  0  0  0  0  0  0  0  0  0  0  0
  139.4930   73.4940  222.1900 N   0  0  0  0  0  0  0  0  0  0  0  0
  139.7200   74.3580  221.0370 C   0  0  0  0  0  0  0  0  0  0  0  0
  140.9220   75.1920  221.2570 C   0  0  0  0  0  0  0  0  0  0  0  0
  141.1430   75.8570  222.2940 O   0  0  0  0  0  0  0  0  0  0  0  0
  141.9030   75.2510  220.2280 N   0  0  0  0  0  0  0  0  0  0  0  0
  142.6620   76.4110  219.7670 C   0  0  0  0  0  0  0  0  0  0  0  0
  142.6940   76.2690  218.2500 C   0  0  0  0  0  0  0  0  0  0  0  0
  142.4680   74.7940  218.0020 C   0  0  0  0  0  0  0  0  0  0  0  0
  142.3900   74.1550  219.3790 C   0  0  1  0  0  0  0  0  0  0  0  0
  143.7470   73.6960  219.8110 C   0  0  0  0  0  0  0  0  0  0  0  0
  144.4400   74.2460  220.8450 C   0  0  0  0  0  0  0  0  0  0  0  0
  145.6980   73.7650  221.1900 C   0  0  0  0  0  0  0  0  0  0  0  0
  146.2360   72.7210  220.4650 C   0  0  0  0  0  0  0  0  0  0  0  0
  145.5280   72.1720  219.4200 C   0  0  0  0  0  0  0  0  0  0  0  0
  144.2950   72.6650  219.1060 N   0  0  0  0  0  0  0  0  0  0  0  0
  140.2490   71.5870  223.5550 C   0  0  0  0  0  0  0  0  0  0  0  0
  139.5730   70.3800  223.3980 C   0  0  0  0  0  0  0  0  0  0  0  0
  139.3680   69.5370  224.4720 C   0  0  0  0  0  0  0  0  0  0  0  0
  139.8430   69.9030  225.7130 C   0  0  0  0  0  0  0  0  0  0  0  0
  139.6720   69.1020  226.8390 C   0  0  0  0  0  0  0  0  0  0  0  0
  140.1680   69.5160  228.0640 C   0  0  0  0  0  0  0  0  0  0  0  0
  139.9590   68.6730  229.1190 F   0  0  0  0  0  0  0  0  0  0  0  0
  140.8420   70.7150  228.2280 C   0  0  0  0  0  0  0  0  0  0  0  0
  141.0110   71.5140  227.0990 C   0  0  0  0  0  0  0  0  0  0  0  0
  140.5180   71.1070  225.8730 C   0  0  0  0  0  0  0  0  0  0  0  0
  140.6900   71.8910  224.7910 N   0  0  0  0  0  0  0  0  0  0  0  0
  138.6870   73.5980  222.8330 H   0  0  0  0  0  0  0  0  0  0  0  0
  139.8664   73.7377  220.1405 H   0  0  0  0  0  0  0  0  0  0  0  0
  138.8469   75.0129  220.8998 H   0  0  0  0  0  0  0  0  0  0  0  0
  142.1600   77.3451  220.0594 H   0  0  0  0  0  0  0  0  0  0  0  0
  143.6705   76.4512  220.2043 H   0  0  0  0  0  0  0  0  0  0  0  0
  141.8960   76.8678  217.7867 H   0  0  0  0  0  0  0  0  0  0  0  0
  143.6401   76.6255  217.8167 H   0  0  0  0  0  0  0  0  0  0  0  0
  141.5285   74.6367  217.4520 H   0  0  0  0  0  0  0  0  0  0  0  0
  143.2736   74.3553  217.3949 H   0  0  0  0  0  0  0  0  0  0  0  0
  141.7423   73.2669  219.4197 H   0  0  0  0  0  0  0  0  0  0  0  0
  144.0007   75.0791  221.4133 H   0  0  0  0  0  0  0  0  0  0  0  0
  146.2557   74.2094  222.0275 H   0  0  0  0  0  0  0  0  0  0  0  0
  147.2305   72.3277  220.7223 H   0  0  0  0  0  0  0  0  0  0  0  0
  145.9542   71.3397  218.8407 H   0  0  0  0  0  0  0  0  0  0  0  0
  139.1971   70.0941  222.4046 H   0  0  0  0  0  0  0  0  0  0  0  0
  138.8324   68.5854  224.3390 H   0  0  0  0  0  0  0  0  0  0  0  0
  139.1433   68.1410  226.7556 H   0  0  0  0  0  0  0  0  0  0  0  0
  141.2284   71.0241  229.2104 H   0  0  0  0  0  0  0  0  0  0  0  0
  141.5400   72.4747  227.1836 H   0  0  0  0  0  0  0  0  0  0  0  0
  1  2  2  0
  2  3  1  0
  3  4  1  0
  4  5  1  0
  5  6  2  0
  5  7  1  0
  7  8  1  0
  8  9  1  0
  9 10  1  0
 10 11  1  0
 11 12  1  0
 12 13  2  0
 13 14  1  0
 14 15  2  0
 15 16  1  0
 16 17  2  0
  2 18  1  0
 18 19  2  0
 19 20  1  0
 20 21  2  0
 21 22  1  0
 22 23  2  0
 23 24  1  0
 23 25  1  0
 25 26  2  0
 26 27  1  0
 27 28  2  0
 11  7  1  0
 17 12  1  0
 28 18  1  0
 27 21  1  0
  3 29  1  0
  4 30  1  0
  4 31  1  0
  8 32  1  0
  8 33  1  0
  9 34  1  0
  9 35  1  0
 10 36  1  0
 10 37  1  0
 11 38  1  6
 13 39  1  0
 14 40  1  0
 15 41  1  0
 16 42  1  0
 19 43  1  0
 20 44  1  0
 22 45  1  0
 25 46  1  0
 26 47  1  0
M  END
>  <smiles>  (61) 
O=C(NCC(=O)N1CCCC1c1ccccn1)c1ccc2cc(F)ccc2n1

>  <score_type>  (61) 
oracle

>  <origin>  (61) 
autodockgpu

>  <m_score__min__energy>  (61) 
-8.5999999999999996

>  <m_primary>  (61) 
energy

>  <rmsd>  (61) 
4.329911858979195

>  <m_score__min__rmsd>  (61) 
4.329911858979195

>  <meeko>  (61) 
{"free_energy": -8.24, "intermolecular_energy": -9.73, "internal_energy": -1.44, "cluster_size": 8, "cluster_id": 2, "rank_in_cluster": 1}

>  <energy>  (61) 
-8.42

>  <cluster_rmsd>  (61) 
0.88

>  <cluster>  (61) 
1

$$$$

     RDKit          3D

 47 50  0  0  0  0  0  0  0  0999 V2000
  141.0210   73.0900  222.1520 O   0  0  0  0  0  0  0  0  0  0  0  0
  139.9400   72.7370  222.6930 C   0  0  0  0  0  0  0  0  0  0  0  0
  138.6810   73.3090  222.3440 N   0  0  0  0  0  0  0  0  0  0  0  0
  138.7030   74.3410  221.3140 C   0  0  0  0  0  0  0  0  0  0  0  0
  138.8270   75.6770  221.9360 C   0  0  0  0  0  0  0  0  0  0  0  0
  138.2150   76.0390  222.9660 O   0  0  0  0  0  0  0  0  0  0  0  0
  139.6990   76.6260  221.3340 N   0  0  0  0  0  0  0  0  0  0  0  0
  139.4440   77.4840  220.1780 C   0  0  0  0  0  0  0  0  0  0  0  0
  140.7470   77.4540  219.3860 C   0  0  0  0  0  0  0  0  0  0  0  0
  141.8010   77.0730  220.4020 C   0  0  0  0  0  0  0  0  0  0  0  0
  141.0710   76.9750  221.7310 C   0  0  1  0  0  0  0  0  0  0  0  0
  141.1120   78.2910  222.4400 C   0  0  0  0  0  0  0  0  0  0  0  0
  142.1950   79.1160  222.4470 C   0  0  0  0  0  0  0  0  0  0  0  0
  142.1600   80.3270  223.1280 C   0  0  0  0  0  0  0  0  0  0  0  0
  141.0080   80.6810  223.8010 C   0  0  0  0  0  0  0  0  0  0  0  0
  139.9180   79.8410  223.7890 C   0  0  0  0  0  0  0  0  0  0  0  0
  139.9830   78.6590  223.1100 N   0  0  0  0  0  0  0  0  0  0  0  0
  139.9430   71.7030  223.7220 C   0  0  0  0  0  0  0  0  0  0  0  0
  139.3860   70.4540  223.4570 C   0  0  0  0  0  0  0  0  0  0  0  0
  139.3790   69.4620  224.4180 C   0  0  0  0  0  0  0  0  0  0  0  0
  139.9330   69.7200  225.6530 C   0  0  0  0  0  0  0  0  0  0  0  0
  139.9610   68.7680  226.6680 C   0  0  0  0  0  0  0  0  0  0  0  0
  140.5300   69.0790  227.8920 C   0  0  0  0  0  0  0  0  0  0  0  0
  140.5170   68.0890  228.8340 F   0  0  0  0  0  0  0  0  0  0  0  0
  141.0850   70.3180  228.1630 C   0  0  0  0  0  0  0  0  0  0  0  0
  141.0560   71.2690  227.1450 C   0  0  0  0  0  0  0  0  0  0  0  0
  140.4900   70.9660  225.9200 C   0  0  0  0  0  0  0  0  0  0  0  0
  140.4690   71.8970  224.9460 N   0  0  0  0  0  0  0  0  0  0  0  0
  137.8150   72.9890  222.8150 H   0  0  0  0  0  0  0  0  0  0  0  0
  139.5598   74.1699  220.6457 H   0  0  0  0  0  0  0  0  0  0  0  0
  137.7658   74.2967  220.7398 H   0  0  0  0  0  0  0  0  0  0  0  0
  138.6134   77.0879  219.5754 H   0  0  0  0  0  0  0  0  0  0  0  0
  139.1551   78.5045  220.4699 H   0  0  0  0  0  0  0  0  0  0  0  0
  140.6952   76.7063  218.5809 H   0  0  0  0  0  0  0  0  0  0  0  0
  140.9633   78.4174  218.9011 H   0  0  0  0  0  0  0  0  0  0  0  0
  142.2542   76.1054  220.1406 H   0  0  0  0  0  0  0  0  0  0  0  0
  142.6162   77.8106  220.4388 H   0  0  0  0  0  0  0  0  0  0  0  0
  141.5110   76.2434  222.4247 H   0  0  0  0  0  0  0  0  0  0  0  0
  143.1074   78.8210  221.9080 H   0  0  0  0  0  0  0  0  0  0  0  0
  143.0359   80.9924  223.1307 H   0  0  0  0  0  0  0  0  0  0  0  0
  140.9612   81.6348  224.3470 H   0  0  0  0  0  0  0  0  0  0  0  0
  138.9987   80.1210  224.3242 H   0  0  0  0  0  0  0  0  0  0  0  0
  138.9457   70.2550  222.4688 H   0  0  0  0  0  0  0  0  0  0  0  0
  138.9368   68.4786  224.2003 H   0  0  0  0  0  0  0  0  0  0  0  0
  139.5317   67.7696  226.4983 H   0  0  0  0  0  0  0  0  0  0  0  0
  141.5312   70.5428  229.1430 H   0  0  0  0  0  0  0  0  0  0  0  0
  141.4859   72.2668  227.3167 H   0  0  0  0  0  0  0  0  0  0  0  0
  1  2  2  0
  2  3  1  0
  3  4  1  0
  4  5  1  0
  5  6  2  0
  5  7  1  0
  7  8  1  0
  8  9  1  0
  9 10  1  0
 10 11  1  0
 11 12  1  0
 12 13  2  0
 13 14  1  0
 14 15  2  0
 15 16  1  0
 16 17  2  0
  2 18  1  0
 18 19  2  0
 19 20  1  0
 20 21  2  0
 21 22  1  0
 22 23  2  0
 23 24  1  0
 23 25  1  0
 25 26  2  0
 26 27  1  0
 27 28  2  0
 11  7  1  0
 17 12  1  0
 28 18  1  0
 27 21  1  0
  3 29  1  0
  4 30  1  0
  4 31  1  0
  8 32  1  0
  8 33  1  0
  9 34  1  0
  9 35  1  0
 10 36  1  0
 10 37  1  0
 11 38  1  1
 13 39  1  0
 14 40  1  0
 15 41  1  0
 16 42  1  0
 19 43  1  0
 20 44  1  0
 22 45  1  0
 25 46  1  0
 26 47  1  0
M  END
>  <smiles>  (62) 
O=C(NCC(=O)N1CCCC1c1ccccn1)c1ccc2cc(F)ccc2n1

>  <score_type>  (62) 
oracle

>  <origin>  (62) 
autodockgpu

>  <m_score__min__energy>  (62) 
-8.5999999999999996

>  <m_primary>  (62) 
energy

>  <rmsd>  (62) 
2.190601457791275

>  <m_score__min__rmsd>  (62) 
2.190601457791275

>  <meeko>  (62) 
{"free_energy": -8.35, "intermolecular_energy": -9.84, "internal_energy": -1.39, "cluster_size": 24, "cluster_id": 1, "rank_in_cluster": 16}

>  <energy>  (62) 
-8.41

>  <cluster_rmsd>  (62) 
0.92

>  <cluster>  (62) 
1

$$$$

     RDKit          3D

 47 50  0  0  0  0  0  0  0  0999 V2000
  141.2610   72.3180  221.5380 O   0  0  0  0  0  0  0  0  0  0  0  0
  140.3730   72.5220  222.4070 C   0  0  0  0  0  0  0  0  0  0  0  0
  139.4740   73.6280  222.3460 N   0  0  0  0  0  0  0  0  0  0  0  0
  139.6340   74.5290  221.2110 C   0  0  0  0  0  0  0  0  0  0  0  0
  139.2800   75.9100  221.6050 C   0  0  0  0  0  0  0  0  0  0  0  0
  138.3410   76.2070  222.3760 O   0  0  0  0  0  0  0  0  0  0  0  0
  140.0510   76.9830  221.0790 N   0  0  0  0  0  0  0  0  0  0  0  0
  139.6760   77.9460  220.0450 C   0  0  0  0  0  0  0  0  0  0  0  0
  140.9330   78.1020  219.1960 C   0  0  0  0  0  0  0  0  0  0  0  0
  142.0640   77.6870  220.1100 C   0  0  0  0  0  0  0  0  0  0  0  0
  141.4150   77.3840  221.4510 C   0  0  1  0  0  0  0  0  0  0  0  0
  141.4060   78.6110  222.3070 C   0  0  0  0  0  0  0  0  0  0  0  0
  140.3400   79.0050  223.0560 C   0  0  0  0  0  0  0  0  0  0  0  0
  140.4050   80.1590  223.8290 C   0  0  0  0  0  0  0  0  0  0  0  0
  141.5680   80.9010  223.8240 C   0  0  0  0  0  0  0  0  0  0  0  0
  142.6410   80.4960  223.0640 C   0  0  0  0  0  0  0  0  0  0  0  0
  142.5470   79.3580  222.3160 N   0  0  0  0  0  0  0  0  0  0  0  0
  140.2320   71.6070  223.5340 C   0  0  0  0  0  0  0  0  0  0  0  0
  139.6090   70.3740  223.3590 C   0  0  0  0  0  0  0  0  0  0  0  0
  139.4670   69.4940  224.4140 C   0  0  0  0  0  0  0  0  0  0  0  0
  139.9510   69.8500  225.6540 C   0  0  0  0  0  0  0  0  0  0  0  0
  139.8420   69.0130  226.7610 C   0  0  0  0  0  0  0  0  0  0  0  0
  140.3460   69.4180  227.9860 C   0  0  0  0  0  0  0  0  0  0  0  0
  140.1990   68.5380  229.0220 F   0  0  0  0  0  0  0  0  0  0  0  0
  140.9660   70.6420  228.1690 C   0  0  0  0  0  0  0  0  0  0  0  0
  141.0740   71.4770  227.0590 C   0  0  0  0  0  0  0  0  0  0  0  0
  140.5740   71.0800  225.8320 C   0  0  0  0  0  0  0  0  0  0  0  0
  140.6860   71.8990  224.7680 N   0  0  0  0  0  0  0  0  0  0  0  0
  138.7580   73.7580  223.0840 H   0  0  0  0  0  0  0  0  0  0  0  0
  140.6800   74.5043  220.8714 H   0  0  0  0  0  0  0  0  0  0  0  0
  138.9687   74.2048  220.3972 H   0  0  0  0  0  0  0  0  0  0  0  0
  138.8425   77.5612  219.4389 H   0  0  0  0  0  0  0  0  0  0  0  0
  139.3349   78.9026  220.4677 H   0  0  0  0  0  0  0  0  0  0  0  0
  140.8883   77.4487  218.3121 H   0  0  0  0  0  0  0  0  0  0  0  0
  141.0567   79.1276  218.8181 H   0  0  0  0  0  0  0  0  0  0  0  0
  142.5675   76.7919  219.7160 H   0  0  0  0  0  0  0  0  0  0  0  0
  142.8279   78.4738  220.1958 H   0  0  0  0  0  0  0  0  0  0  0  0
  141.9395   76.6120  222.0332 H   0  0  0  0  0  0  0  0  0  0  0  0
  139.4182   78.4047  223.0497 H   0  0  0  0  0  0  0  0  0  0  0  0
  139.5430   80.4752  224.4347 H   0  0  0  0  0  0  0  0  0  0  0  0
  141.6375   81.8175  224.4283 H   0  0  0  0  0  0  0  0  0  0  0  0
  143.5694   81.0859  223.0592 H   0  0  0  0  0  0  0  0  0  0  0  0
  139.2245   70.0969  222.3663 H   0  0  0  0  0  0  0  0  0  0  0  0
  138.9740   68.5218  224.2663 H   0  0  0  0  0  0  0  0  0  0  0  0
  139.3561   68.0310  226.6630 H   0  0  0  0  0  0  0  0  0  0  0  0
  141.3578   70.9434  229.1517 H   0  0  0  0  0  0  0  0  0  0  0  0
  141.5602   72.4586  227.1591 H   0  0  0  0  0  0  0  0  0  0  0  0
  1  2  2  0
  2  3  1  0
  3  4  1  0
  4  5  1  0
  5  6  2  0
  5  7  1  0
  7  8  1  0
  8  9  1  0
  9 10  1  0
 10 11  1  0
 11 12  1  0
 12 13  2  0
 13 14  1  0
 14 15  2  0
 15 16  1  0
 16 17  2  0
  2 18  1  0
 18 19  2  0
 19 20  1  0
 20 21  2  0
 21 22  1  0
 22 23  2  0
 23 24  1  0
 23 25  1  0
 25 26  2  0
 26 27  1  0
 27 28  2  0
 11  7  1  0
 17 12  1  0
 28 18  1  0
 27 21  1  0
  3 29  1  0
  4 30  1  0
  4 31  1  0
  8 32  1  0
  8 33  1  0
  9 34  1  0
  9 35  1  0
 10 36  1  0
 10 37  1  0
 11 38  1  1
 13 39  1  0
 14 40  1  0
 15 41  1  0
 16 42  1  0
 19 43  1  0
 20 44  1  0
 22 45  1  0
 25 46  1  0
 26 47  1  0
M  END
>  <smiles>  (63) 
O=C(NCC(=O)N1CCCC1c1ccccn1)c1ccc2cc(F)ccc2n1

>  <score_type>  (63) 
oracle

>  <origin>  (63) 
autodockgpu

>  <m_score__min__energy>  (63) 
-8.5999999999999996

>  <m_primary>  (63) 
energy

>  <rmsd>  (63) 
2.4133627177475714

>  <m_score__min__rmsd>  (63) 
2.4133627177475714

>  <meeko>  (63) 
{"free_energy": -8.44, "intermolecular_energy": -9.93, "internal_energy": -1.39, "cluster_size": 24, "cluster_id": 1, "rank_in_cluster": 10}

>  <energy>  (63) 
-8.41

>  <cluster_rmsd>  (63) 
0.91

>  <cluster>  (63) 
1

$$$$

     RDKit          3D

 47 50  0  0  0  0  0  0  0  0999 V2000
  140.8780   73.6210  220.6050 O   0  0  0  0  0  0  0  0  0  0  0  0
  140.3180   74.4540  221.3660 C   0  0  0  0  0  0  0  0  0  0  0  0
  139.2130   74.1150  222.2010 N   0  0  0  0  0  0  0  0  0  0  0  0
  138.7510   72.7340  222.1330 C   0  0  0  0  0  0  0  0  0  0  0  0
  139.5860   71.8760  223.0010 C   0  0  0  0  0  0  0  0  0  0  0  0
  140.7020   72.2060  223.4620 O   0  0  0  0  0  0  0  0  0  0  0  0
  139.1000   70.5840  223.3450 N   0  0  0  0  0  0  0  0  0  0  0  0
  139.2290   69.3380  222.5920 C   0  0  0  0  0  0  0  0  0  0  0  0
  137.8710   68.6620  222.7370 C   0  0  0  0  0  0  0  0  0  0  0  0
  137.2800   69.2600  223.9940 C   0  0  0  0  0  0  0  0  0  0  0  0
  138.3490   70.1900  224.5460 C   0  0  1  0  0  0  0  0  0  0  0  0
  139.2210   69.4550  225.5140 C   0  0  0  0  0  0  0  0  0  0  0  0
  140.2220   70.0380  226.2280 C   0  0  0  0  0  0  0  0  0  0  0  0
  140.9920   69.2900  227.1110 C   0  0  0  0  0  0  0  0  0  0  0  0
  140.7250   67.9440  227.2530 C   0  0  0  0  0  0  0  0  0  0  0  0
  139.7110   67.3620  226.5280 C   0  0  0  0  0  0  0  0  0  0  0  0
  138.9730   68.1220  225.6690 N   0  0  0  0  0  0  0  0  0  0  0  0
  140.7980   75.8310  221.4180 C   0  0  0  0  0  0  0  0  0  0  0  0
  141.6870   76.2960  220.4520 C   0  0  0  0  0  0  0  0  0  0  0  0
  142.1520   77.5970  220.4830 C   0  0  0  0  0  0  0  0  0  0  0  0
  141.7250   78.4380  221.4880 C   0  0  0  0  0  0  0  0  0  0  0  0
  142.1530   79.7590  221.5810 C   0  0  0  0  0  0  0  0  0  0  0  0
  141.6940   80.5640  222.6110 C   0  0  0  0  0  0  0  0  0  0  0  0
  142.1620   81.8480  222.6310 F   0  0  0  0  0  0  0  0  0  0  0  0
  140.8110   80.1080  223.5750 C   0  0  0  0  0  0  0  0  0  0  0  0
  140.3840   78.7850  223.4790 C   0  0  0  0  0  0  0  0  0  0  0  0
  140.8380   77.9760  222.4530 C   0  0  0  0  0  0  0  0  0  0  0  0
  140.4160   76.6990  222.3740 N   0  0  0  0  0  0  0  0  0  0  0  0
  138.7820   74.8340  222.8120 H   0  0  0  0  0  0  0  0  0  0  0  0
  137.7049   72.6833  222.4692 H   0  0  0  0  0  0  0  0  0  0  0  0
  138.8278   72.3792  221.0946 H   0  0  0  0  0  0  0  0  0  0  0  0
  139.4498   69.5440  221.5343 H   0  0  0  0  0  0  0  0  0  0  0  0
  140.0513   68.7084  222.9629 H   0  0  0  0  0  0  0  0  0  0  0  0
  137.2341   68.8793  221.8669 H   0  0  0  0  0  0  0  0  0  0  0  0
  137.9541   67.5667  222.7951 H   0  0  0  0  0  0  0  0  0  0  0  0
  136.3654   69.8236  223.7578 H   0  0  0  0  0  0  0  0  0  0  0  0
  137.0005   68.4838  224.7216 H   0  0  0  0  0  0  0  0  0  0  0  0
  137.9453   71.0526  225.0964 H   0  0  0  0  0  0  0  0  0  0  0  0
  140.4239   71.1123  226.1051 H   0  0  0  0  0  0  0  0  0  0  0  0
  141.8008   69.7634  227.6869 H   0  0  0  0  0  0  0  0  0  0  0  0
  141.3236   67.3354  227.9468 H   0  0  0  0  0  0  0  0  0  0  0  0
  139.4965   66.2890  226.6405 H   0  0  0  0  0  0  0  0  0  0  0  0
  142.0236   75.6185  219.6535 H   0  0  0  0  0  0  0  0  0  0  0  0
  142.8535   77.9566  219.7158 H   0  0  0  0  0  0  0  0  0  0  0  0
  142.8552   80.1637  220.8373 H   0  0  0  0  0  0  0  0  0  0  0  0
  140.4602   80.7644  224.3850 H   0  0  0  0  0  0  0  0  0  0  0  0
  139.6818   78.3817  224.2235 H   0  0  0  0  0  0  0  0  0  0  0  0
  1  2  2  0
  2  3  1  0
  3  4  1  0
  4  5  1  0
  5  6  2  0
  5  7  1  0
  7  8  1  0
  8  9  1  0
  9 10  1  0
 10 11  1  0
 11 12  1  0
 12 13  2  0
 13 14  1  0
 14 15  2  0
 15 16  1  0
 16 17  2  0
  2 18  1  0
 18 19  2  0
 19 20  1  0
 20 21  2  0
 21 22  1  0
 22 23  2  0
 23 24  1  0
 23 25  1  0
 25 26  2  0
 26 27  1  0
 27 28  2  0
 11  7  1  0
 17 12  1  0
 28 18  1  0
 27 21  1  0
  3 29  1  0
  4 30  1  0
  4 31  1  0
  8 32  1  0
  8 33  1  0
  9 34  1  0
  9 35  1  0
 10 36  1  0
 10 37  1  0
 11 38  1  1
 13 39  1  0
 14 40  1  0
 15 41  1  0
 16 42  1  0
 19 43  1  0
 20 44  1  0
 22 45  1  0
 25 46  1  0
 26 47  1  0
M  END
>  <smiles>  (64) 
O=C(NCC(=O)N1CCCC1c1ccccn1)c1ccc2cc(F)ccc2n1

>  <score_type>  (64) 
oracle

>  <origin>  (64) 
autodockgpu

>  <m_score__min__energy>  (64) 
-8.5999999999999996

>  <m_primary>  (64) 
energy

>  <rmsd>  (64) 
9.539202225476481

>  <m_score__min__rmsd>  (64) 
9.539202225476481

>  <meeko>  (64) 
{"free_energy": -8.16, "intermolecular_energy": -9.65, "internal_energy": -1.53, "cluster_size": 4, "cluster_id": 3, "rank_in_cluster": 4}

>  <energy>  (64) 
-8.4

>  <cluster_rmsd>  (64) 
0.88

>  <cluster>  (64) 
1

$$$$

     RDKit          3D

 47 50  0  0  0  0  0  0  0  0999 V2000
  138.8260   74.8700  222.2570 O   0  0  0  0  0  0  0  0  0  0  0  0
  139.9620   75.3280  221.9670 C   0  0  0  0  0  0  0  0  0  0  0  0
  140.2630   76.7220  221.9990 N   0  0  0  0  0  0  0  0  0  0  0  0
  139.1740   77.6090  222.3920 C   0  0  0  0  0  0  0  0  0  0  0  0
  139.7120   78.7900  223.1020 C   0  0  0  0  0  0  0  0  0  0  0  0
  139.1590   79.3410  224.0800 O   0  0  0  0  0  0  0  0  0  0  0  0
  140.9410   79.3480  222.6530 N   0  0  0  0  0  0  0  0  0  0  0  0
  142.2850   79.1170  223.1770 C   0  0  0  0  0  0  0  0  0  0  0  0
  142.9430   80.4920  223.1600 C   0  0  0  0  0  0  0  0  0  0  0  0
  142.1660   81.2730  222.1240 C   0  0  0  0  0  0  0  0  0  0  0  0
  141.1550   80.2950  221.5490 C   0  0  1  0  0  0  0  0  0  0  0  0
  141.7280   79.6090  220.3490 C   0  0  0  0  0  0  0  0  0  0  0  0
  142.1460   80.2600  219.2300 C   0  0  0  0  0  0  0  0  0  0  0  0
  142.6700   79.5540  218.1530 C   0  0  0  0  0  0  0  0  0  0  0  0
  142.7570   78.1790  218.2350 C   0  0  0  0  0  0  0  0  0  0  0  0
  142.3310   77.5290  219.3700 C   0  0  0  0  0  0  0  0  0  0  0  0
  141.8230   78.2490  220.4110 N   0  0  0  0  0  0  0  0  0  0  0  0
  141.0360   74.4210  221.5760 C   0  0  0  0  0  0  0  0  0  0  0  0
  140.8220   73.0450  221.5780 C   0  0  0  0  0  0  0  0  0  0  0  0
  141.8270   72.1710  221.2120 C   0  0  0  0  0  0  0  0  0  0  0  0
  143.0540   72.6750  220.8410 C   0  0  0  0  0  0  0  0  0  0  0  0
  144.1100   71.8530  220.4600 C   0  0  0  0  0  0  0  0  0  0  0  0
  145.3250   72.4110  220.0960 C   0  0  0  0  0  0  0  0  0  0  0  0
  146.3100   71.5350  219.7350 F   0  0  0  0  0  0  0  0  0  0  0  0
  145.5450   73.7780  220.0920 C   0  0  0  0  0  0  0  0  0  0  0  0
  144.4850   74.5980  220.4730 C   0  0  0  0  0  0  0  0  0  0  0  0
  143.2700   74.0490  220.8380 C   0  0  0  0  0  0  0  0  0  0  0  0
  142.2550   74.8560  221.2040 N   0  0  0  0  0  0  0  0  0  0  0  0
  141.2130   77.0560  221.7520 H   0  0  0  0  0  0  0  0  0  0  0  0
  138.6321   77.9400  221.4938 H   0  0  0  0  0  0  0  0  0  0  0  0
  138.4911   77.0661  223.0620 H   0  0  0  0  0  0  0  0  0  0  0  0
  142.2398   78.7203  224.2020 H   0  0  0  0  0  0  0  0  0  0  0  0
  142.8440   78.3785  222.5836 H   0  0  0  0  0  0  0  0  0  0  0  0
  142.8657   80.9719  224.1468 H   0  0  0  0  0  0  0  0  0  0  0  0
  144.0161   80.4384  222.9242 H   0  0  0  0  0  0  0  0  0  0  0  0
  141.6523   82.1259  222.5916 H   0  0  0  0  0  0  0  0  0  0  0  0
  142.8250   81.6828  221.3444 H   0  0  0  0  0  0  0  0  0  0  0  0
  140.2220   80.7694  221.2107 H   0  0  0  0  0  0  0  0  0  0  0  0
  142.0686   81.3560  219.1768 H   0  0  0  0  0  0  0  0  0  0  0  0
  143.0097   80.0827  217.2502 H   0  0  0  0  0  0  0  0  0  0  0  0
  143.1671   77.6028  217.3925 H   0  0  0  0  0  0  0  0  0  0  0  0
  142.3997   76.4332  219.4377 H   0  0  0  0  0  0  0  0  0  0  0  0
  139.8397   72.6489  221.8750 H   0  0  0  0  0  0  0  0  0  0  0  0
  141.6496   71.0854  221.2168 H   0  0  0  0  0  0  0  0  0  0  0  0
  143.9804   70.7607  220.4478 H   0  0  0  0  0  0  0  0  0  0  0  0
  146.5179   74.1998  219.7996 H   0  0  0  0  0  0  0  0  0  0  0  0
  144.6159   75.6901  220.4835 H   0  0  0  0  0  0  0  0  0  0  0  0
  1  2  2  0
  2  3  1  0
  3  4  1  0
  4  5  1  0
  5  6  2  0
  5  7  1  0
  7  8  1  0
  8  9  1  0
  9 10  1  0
 10 11  1  0
 11 12  1  0
 12 13  2  0
 13 14  1  0
 14 15  2  0
 15 16  1  0
 16 17  2  0
  2 18  1  0
 18 19  2  0
 19 20  1  0
 20 21  2  0
 21 22  1  0
 22 23  2  0
 23 24  1  0
 23 25  1  0
 25 26  2  0
 26 27  1  0
 27 28  2  0
 11  7  1  0
 17 12  1  0
 28 18  1  0
 27 21  1  0
  3 29  1  0
  4 30  1  0
  4 31  1  0
  8 32  1  0
  8 33  1  0
  9 34  1  0
  9 35  1  0
 10 36  1  0
 10 37  1  0
 11 38  1  6
 13 39  1  0
 14 40  1  0
 15 41  1  0
 16 42  1  0
 19 43  1  0
 20 44  1  0
 22 45  1  0
 25 46  1  0
 26 47  1  0
M  END
>  <smiles>  (65) 
O=C(NCC(=O)N1CCCC1c1ccccn1)c1ccc2cc(F)ccc2n1

>  <score_type>  (65) 
oracle

>  <origin>  (65) 
autodockgpu

>  <m_score__min__energy>  (65) 
-8.5999999999999996

>  <m_primary>  (65) 
energy

>  <rmsd>  (65) 
6.104975769793798

>  <m_score__min__rmsd>  (65) 
6.104975769793798

>  <meeko>  (65) 
{"free_energy": -6.95, "intermolecular_energy": -8.44, "internal_energy": -2.75, "cluster_size": 11, "cluster_id": 6, "rank_in_cluster": 3}

>  <energy>  (65) 
-8.38

>  <cluster_rmsd>  (65) 
0.86

>  <cluster>  (65) 
1

$$$$

     RDKit          3D

 47 50  0  0  0  0  0  0  0  0999 V2000
  141.3630   72.4950  221.6550 O   0  0  0  0  0  0  0  0  0  0  0  0
  140.3940   72.6000  222.4520 C   0  0  0  0  0  0  0  0  0  0  0  0
  139.4190   73.6360  222.3490 N   0  0  0  0  0  0  0  0  0  0  0  0
  139.5970   74.5850  221.2560 C   0  0  0  0  0  0  0  0  0  0  0  0
  139.3380   75.9610  221.7320 C   0  0  0  0  0  0  0  0  0  0  0  0
  138.5710   76.2510  222.6780 O   0  0  0  0  0  0  0  0  0  0  0  0
  139.9970   77.0390  221.0790 N   0  0  0  0  0  0  0  0  0  0  0  0
  139.4110   78.0860  220.2430 C   0  0  0  0  0  0  0  0  0  0  0  0
  140.3990   78.2550  219.0950 C   0  0  0  0  0  0  0  0  0  0  0  0
  141.7100   77.7340  219.6410 C   0  0  0  0  0  0  0  0  0  0  0  0
  141.4310   77.3610  221.0870 C   0  0  1  0  0  0  0  0  0  0  0  0
  141.7200   78.5240  221.9830 C   0  0  0  0  0  0  0  0  0  0  0  0
  142.1660   79.7310  221.5400 C   0  0  0  0  0  0  0  0  0  0  0  0
  142.4130   80.7670  222.4330 C   0  0  0  0  0  0  0  0  0  0  0  0
  142.2000   80.5520  223.7800 C   0  0  0  0  0  0  0  0  0  0  0  0
  141.7500   79.3290  224.2190 C   0  0  0  0  0  0  0  0  0  0  0  0
  141.5160   78.3310  223.3180 N   0  0  0  0  0  0  0  0  0  0  0  0
  140.2360   71.6390  223.5380 C   0  0  0  0  0  0  0  0  0  0  0  0
  139.6010   70.4220  223.3050 C   0  0  0  0  0  0  0  0  0  0  0  0
  139.4410   69.4990  224.3200 C   0  0  0  0  0  0  0  0  0  0  0  0
  139.9210   69.7940  225.5780 C   0  0  0  0  0  0  0  0  0  0  0  0
  139.7960   68.9120  226.6460 C   0  0  0  0  0  0  0  0  0  0  0  0
  140.2960   69.2580  227.8910 C   0  0  0  0  0  0  0  0  0  0  0  0
  140.1320   68.3360  228.8870 F   0  0  0  0  0  0  0  0  0  0  0  0
  140.9280   70.4660  228.1300 C   0  0  0  0  0  0  0  0  0  0  0  0
  141.0530   71.3470  227.0580 C   0  0  0  0  0  0  0  0  0  0  0  0
  140.5560   71.0090  225.8130 C   0  0  0  0  0  0  0  0  0  0  0  0
  140.6840   71.8720  224.7860 N   0  0  0  0  0  0  0  0  0  0  0  0
  138.6370   73.6850  223.0280 H   0  0  0  0  0  0  0  0  0  0  0  0
  140.6286   74.5180  220.8800 H   0  0  0  0  0  0  0  0  0  0  0  0
  138.8889   74.3432  220.4497 H   0  0  0  0  0  0  0  0  0  0  0  0
  138.4255   77.7760  219.8654 H   0  0  0  0  0  0  0  0  0  0  0  0
  139.2494   79.0224  220.7972 H   0  0  0  0  0  0  0  0  0  0  0  0
  140.0820   77.6684  218.2201 H   0  0  0  0  0  0  0  0  0  0  0  0
  140.4728   79.2995  218.7581 H   0  0  0  0  0  0  0  0  0  0  0  0
  142.0386   76.8510  219.0732 H   0  0  0  0  0  0  0  0  0  0  0  0
  142.5108   78.4839  219.5614 H   0  0  0  0  0  0  0  0  0  0  0  0
  142.0499   76.5305  221.4574 H   0  0  0  0  0  0  0  0  0  0  0  0
  142.3327   79.8883  220.4641 H   0  0  0  0  0  0  0  0  0  0  0  0
  142.7723   81.7422  222.0725 H   0  0  0  0  0  0  0  0  0  0  0  0
  142.3903   81.3594  224.5024 H   0  0  0  0  0  0  0  0  0  0  0  0
  141.5794   79.1558  225.2918 H   0  0  0  0  0  0  0  0  0  0  0  0
  139.2214   70.1924  222.2984 H   0  0  0  0  0  0  0  0  0  0  0  0
  138.9369   68.5406  224.1269 H   0  0  0  0  0  0  0  0  0  0  0  0
  139.3006   67.9404  226.5024 H   0  0  0  0  0  0  0  0  0  0  0  0
  141.3163   70.7205  229.1272 H   0  0  0  0  0  0  0  0  0  0  0  0
  141.5502   72.3174  227.2031 H   0  0  0  0  0  0  0  0  0  0  0  0
  1  2  2  0
  2  3  1  0
  3  4  1  0
  4  5  1  0
  5  6  2  0
  5  7  1  0
  7  8  1  0
  8  9  1  0
  9 10  1  0
 10 11  1  0
 11 12  1  0
 12 13  2  0
 13 14  1  0
 14 15  2  0
 15 16  1  0
 16 17  2  0
  2 18  1  0
 18 19  2  0
 19 20  1  0
 20 21  2  0
 21 22  1  0
 22 23  2  0
 23 24  1  0
 23 25  1  0
 25 26  2  0
 26 27  1  0
 27 28  2  0
 11  7  1  0
 17 12  1  0
 28 18  1  0
 27 21  1  0
  3 29  1  0
  4 30  1  0
  4 31  1  0
  8 32  1  0
  8 33  1  0
  9 34  1  0
  9 35  1  0
 10 36  1  0
 10 37  1  0
 11 38  1  1
 13 39  1  0
 14 40  1  0
 15 41  1  0
 16 42  1  0
 19 43  1  0
 20 44  1  0
 22 45  1  0
 25 46  1  0
 26 47  1  0
M  END
>  <smiles>  (66) 
O=C(NCC(=O)N1CCCC1c1ccccn1)c1ccc2cc(F)ccc2n1

>  <score_type>  (66) 
oracle

>  <origin>  (66) 
autodockgpu

>  <m_score__min__energy>  (66) 
-8.5999999999999996

>  <m_primary>  (66) 
energy

>  <rmsd>  (66) 
2.0921362772138123

>  <m_score__min__rmsd>  (66) 
2.0921362772138123

>  <meeko>  (66) 
{"free_energy": -8.46, "intermolecular_energy": -9.95, "internal_energy": -1.41, "cluster_size": 24, "cluster_id": 1, "rank_in_cluster": 7}

>  <energy>  (66) 
-8.35

>  <cluster_rmsd>  (66) 
1.18

>  <cluster>  (66) 
1

$$$$

     RDKit          3D

 47 50  0  0  0  0  0  0  0  0999 V2000
  140.9290   73.4840  220.6340 O   0  0  0  0  0  0  0  0  0  0  0  0
  140.3710   74.3220  221.3910 C   0  0  0  0  0  0  0  0  0  0  0  0
  139.2710   73.9870  222.2350 N   0  0  0  0  0  0  0  0  0  0  0  0
  138.8130   72.6040  222.1810 C   0  0  0  0  0  0  0  0  0  0  0  0
  139.6190   71.7660  223.0950 C   0  0  0  0  0  0  0  0  0  0  0  0
  140.7100   72.1160  223.6000 O   0  0  0  0  0  0  0  0  0  0  0  0
  139.1340   70.4720  223.4330 N   0  0  0  0  0  0  0  0  0  0  0  0
  139.2440   69.2340  222.6640 C   0  0  0  0  0  0  0  0  0  0  0  0
  137.8860   68.5620  222.8260 C   0  0  0  0  0  0  0  0  0  0  0  0
  137.3210   69.1490  224.1000 C   0  0  0  0  0  0  0  0  0  0  0  0
  138.4030   70.0680  224.6430 C   0  0  1  0  0  0  0  0  0  0  0  0
  139.2890   69.3180  225.5870 C   0  0  0  0  0  0  0  0  0  0  0  0
  140.2100   69.9100  226.3950 C   0  0  0  0  0  0  0  0  0  0  0  0
  140.9990   69.1480  227.2490 C   0  0  0  0  0  0  0  0  0  0  0  0
  140.8340   67.7770  227.2630 C   0  0  0  0  0  0  0  0  0  0  0  0
  139.9010   67.1870  226.4420 C   0  0  0  0  0  0  0  0  0  0  0  0
  139.1410   67.9620  225.6160 N   0  0  0  0  0  0  0  0  0  0  0  0
  140.8470   75.7010  221.4280 C   0  0  0  0  0  0  0  0  0  0  0  0
  141.7270   76.1610  220.4520 C   0  0  0  0  0  0  0  0  0  0  0  0
  142.1880   77.4630  220.4700 C   0  0  0  0  0  0  0  0  0  0  0  0
  141.7660   78.3110  221.4710 C   0  0  0  0  0  0  0  0  0  0  0  0
  142.1900   79.6350  221.5500 C   0  0  0  0  0  0  0  0  0  0  0  0
  141.7360   80.4460  222.5770 C   0  0  0  0  0  0  0  0  0  0  0  0
  142.2000   81.7320  222.5830 F   0  0  0  0  0  0  0  0  0  0  0  0
  140.8610   79.9950  223.5500 C   0  0  0  0  0  0  0  0  0  0  0  0
  140.4380   78.6700  223.4680 C   0  0  0  0  0  0  0  0  0  0  0  0
  140.8870   77.8540  222.4460 C   0  0  0  0  0  0  0  0  0  0  0  0
  140.4690   76.5750  222.3800 N   0  0  0  0  0  0  0  0  0  0  0  0
  138.8410   74.7090  222.8420 H   0  0  0  0  0  0  0  0  0  0  0  0
  137.7561   72.5586  222.4826 H   0  0  0  0  0  0  0  0  0  0  0  0
  138.9254   72.2272  221.1537 H   0  0  0  0  0  0  0  0  0  0  0  0
  139.4465   69.4510  221.6048 H   0  0  0  0  0  0  0  0  0  0  0  0
  140.0701   68.5970  223.0129 H   0  0  0  0  0  0  0  0  0  0  0  0
  137.2343   68.7915  221.9700 H   0  0  0  0  0  0  0  0  0  0  0  0
  137.9651   67.4657  222.8704 H   0  0  0  0  0  0  0  0  0  0  0  0
  136.4048   69.7191  223.8865 H   0  0  0  0  0  0  0  0  0  0  0  0
  137.0518   68.3658  224.8240 H   0  0  0  0  0  0  0  0  0  0  0  0
  138.0133   70.9262  225.2102 H   0  0  0  0  0  0  0  0  0  0  0  0
  140.3315   71.0030  226.3722 H   0  0  0  0  0  0  0  0  0  0  0  0
  141.7419   69.6288  227.9023 H   0  0  0  0  0  0  0  0  0  0  0  0
  141.4490   67.1562  227.9311 H   0  0  0  0  0  0  0  0  0  0  0  0
  139.7685   66.0951  226.4516 H   0  0  0  0  0  0  0  0  0  0  0  0
  142.0596   75.4785  219.6560 H   0  0  0  0  0  0  0  0  0  0  0  0
  142.8832   77.8185  219.6951 H   0  0  0  0  0  0  0  0  0  0  0  0
  142.8848   80.0364  220.7976 H   0  0  0  0  0  0  0  0  0  0  0  0
  140.5131   80.6570  224.3567 H   0  0  0  0  0  0  0  0  0  0  0  0
  139.7426   78.2706  224.2209 H   0  0  0  0  0  0  0  0  0  0  0  0
  1  2  2  0
  2  3  1  0
  3  4  1  0
  4  5  1  0
  5  6  2  0
  5  7  1  0
  7  8  1  0
  8  9  1  0
  9 10  1  0
 10 11  1  0
 11 12  1  0
 12 13  2  0
 13 14  1  0
 14 15  2  0
 15 16  1  0
 16 17  2  0
  2 18  1  0
 18 19  2  0
 19 20  1  0
 20 21  2  0
 21 22  1  0
 22 23  2  0
 23 24  1  0
 23 25  1  0
 25 26  2  0
 26 27  1  0
 27 28  2  0
 11  7  1  0
 17 12  1  0
 28 18  1  0
 27 21  1  0
  3 29  1  0
  4 30  1  0
  4 31  1  0
  8 32  1  0
  8 33  1  0
  9 34  1  0
  9 35  1  0
 10 36  1  0
 10 37  1  0
 11 38  1  1
 13 39  1  0
 14 40  1  0
 15 41  1  0
 16 42  1  0
 19 43  1  0
 20 44  1  0
 22 45  1  0
 25 46  1  0
 26 47  1  0
M  END
>  <smiles>  (67) 
O=C(NCC(=O)N1CCCC1c1ccccn1)c1ccc2cc(F)ccc2n1

>  <score_type>  (67) 
oracle

>  <origin>  (67) 
autodockgpu

>  <m_score__min__energy>  (67) 
-8.5999999999999996

>  <m_primary>  (67) 
energy

>  <rmsd>  (67) 
9.578078833222676

>  <m_score__min__rmsd>  (67) 
9.578078833222676

>  <meeko>  (67) 
{"free_energy": -8.2, "intermolecular_energy": -9.69, "internal_energy": -1.52, "cluster_size": 4, "cluster_id": 3, "rank_in_cluster": 3}

>  <energy>  (67) 
-8.31

>  <cluster_rmsd>  (67) 
1.09

>  <cluster>  (67) 
1

$$$$

     RDKit          3D

 47 50  0  0  0  0  0  0  0  0999 V2000
  140.1460   71.8270  221.0070 O   0  0  0  0  0  0  0  0  0  0  0  0
  139.9350   72.3130  222.1490 C   0  0  0  0  0  0  0  0  0  0  0  0
  139.6530   73.6950  222.3590 N   0  0  0  0  0  0  0  0  0  0  0  0
  139.6210   74.5360  221.1670 C   0  0  0  0  0  0  0  0  0  0  0  0
  139.2800   75.9270  221.5370 C   0  0  0  0  0  0  0  0  0  0  0  0
  138.3380   76.2480  222.2950 O   0  0  0  0  0  0  0  0  0  0  0  0
  140.0700   76.9830  221.0020 N   0  0  0  0  0  0  0  0  0  0  0  0
  139.7110   77.9420  219.9590 C   0  0  0  0  0  0  0  0  0  0  0  0
  140.9700   78.0700  219.1090 C   0  0  0  0  0  0  0  0  0  0  0  0
  142.0940   77.6440  220.0270 C   0  0  0  0  0  0  0  0  0  0  0  0
  141.4410   77.3640  221.3700 C   0  0  1  0  0  0  0  0  0  0  0  0
  141.4520   78.5980  222.2150 C   0  0  0  0  0  0  0  0  0  0  0  0
  142.5350   79.4110  222.3570 C   0  0  0  0  0  0  0  0  0  0  0  0
  142.4700   80.5440  223.1600 C   0  0  0  0  0  0  0  0  0  0  0  0
  141.2890   80.8320  223.8140 C   0  0  0  0  0  0  0  0  0  0  0  0
  140.2000   80.0050  223.6650 C   0  0  0  0  0  0  0  0  0  0  0  0
  140.2940   78.9000  222.8690 N   0  0  0  0  0  0  0  0  0  0  0  0
  139.9730   71.4520  223.3260 C   0  0  0  0  0  0  0  0  0  0  0  0
  139.5420   70.1310  223.2380 C   0  0  0  0  0  0  0  0  0  0  0  0
  139.5700   69.3010  224.3420 C   0  0  0  0  0  0  0  0  0  0  0  0
  140.0340   69.7950  225.5420 C   0  0  0  0  0  0  0  0  0  0  0  0
  140.0910   69.0150  226.6930 C   0  0  0  0  0  0  0  0  0  0  0  0
  140.5650   69.5600  227.8750 C   0  0  0  0  0  0  0  0  0  0  0  0
  140.5890   68.7280  228.9590 F   0  0  0  0  0  0  0  0  0  0  0  0
  140.9960   70.8730  227.9700 C   0  0  0  0  0  0  0  0  0  0  0  0
  140.9380   71.6500  226.8150 C   0  0  0  0  0  0  0  0  0  0  0  0
  140.4650   71.1130  225.6320 C   0  0  0  0  0  0  0  0  0  0  0  0
  140.4160   71.8790  224.5240 N   0  0  0  0  0  0  0  0  0  0  0  0
  139.4860   74.0540  223.3170 H   0  0  0  0  0  0  0  0  0  0  0  0
  140.6088   74.5197  220.6833 H   0  0  0  0  0  0  0  0  0  0  0  0
  138.8591   74.1501  220.4738 H   0  0  0  0  0  0  0  0  0  0  0  0
  138.8716   77.5650  219.3563 H   0  0  0  0  0  0  0  0  0  0  0  0
  139.3855   78.9078  220.3727 H   0  0  0  0  0  0  0  0  0  0  0  0
  140.9145   77.4101  218.2307 H   0  0  0  0  0  0  0  0  0  0  0  0
  141.1107   79.0901  218.7222 H   0  0  0  0  0  0  0  0  0  0  0  0
  142.5822   76.7370  219.6409 H   0  0  0  0  0  0  0  0  0  0  0  0
  142.8709   78.4188  220.1058 H   0  0  0  0  0  0  0  0  0  0  0  0
  141.9533   76.5886  221.9585 H   0  0  0  0  0  0  0  0  0  0  0  0
  143.4704   79.1690  221.8312 H   0  0  0  0  0  0  0  0  0  0  0  0
  143.3455   81.2004  223.2724 H   0  0  0  0  0  0  0  0  0  0  0  0
  141.2187   81.7234  224.4547 H   0  0  0  0  0  0  0  0  0  0  0  0
  139.2578   80.2330  224.1848 H   0  0  0  0  0  0  0  0  0  0  0  0
  139.1743   69.7430  222.2766 H   0  0  0  0  0  0  0  0  0  0  0  0
  139.2263   68.2590  224.2642 H   0  0  0  0  0  0  0  0  0  0  0  0
  139.7599   67.9664  226.6642 H   0  0  0  0  0  0  0  0  0  0  0  0
  141.3690   71.2856  228.9190 H   0  0  0  0  0  0  0  0  0  0  0  0
  141.2709   72.6980  226.8445 H   0  0  0  0  0  0  0  0  0  0  0  0
  1  2  2  0
  2  3  1  0
  3  4  1  0
  4  5  1  0
  5  6  2  0
  5  7  1  0
  7  8  1  0
  8  9  1  0
  9 10  1  0
 10 11  1  0
 11 12  1  0
 12 13  2  0
 13 14  1  0
 14 15  2  0
 15 16  1  0
 16 17  2  0
  2 18  1  0
 18 19  2  0
 19 20  1  0
 20 21  2  0
 21 22  1  0
 22 23  2  0
 23 24  1  0
 23 25  1  0
 25 26  2  0
 26 27  1  0
 27 28  2  0
 11  7  1  0
 17 12  1  0
 28 18  1  0
 27 21  1  0
  3 29  1  0
  4 30  1  0
  4 31  1  0
  8 32  1  0
  8 33  1  0
  9 34  1  0
  9 35  1  0
 10 36  1  0
 10 37  1  0
 11 38  1  1
 13 39  1  0
 14 40  1  0
 15 41  1  0
 16 42  1  0
 19 43  1  0
 20 44  1  0
 22 45  1  0
 25 46  1  0
 26 47  1  0
M  END
>  <smiles>  (68) 
O=C(NCC(=O)N1CCCC1c1ccccn1)c1ccc2cc(F)ccc2n1

>  <score_type>  (68) 
oracle

>  <origin>  (68) 
autodockgpu

>  <m_score__min__energy>  (68) 
-8.5999999999999996

>  <m_primary>  (68) 
energy

>  <rmsd>  (68) 
2.1924276362636372

>  <m_score__min__rmsd>  (68) 
2.1924276362636372

>  <meeko>  (68) 
{"free_energy": -8.16, "intermolecular_energy": -9.65, "internal_energy": -1.51, "cluster_size": 24, "cluster_id": 1, "rank_in_cluster": 19}

>  <energy>  (68) 
-8.29

>  <cluster_rmsd>  (68) 
1.13

>  <cluster>  (68) 
1

$$$$

     RDKit          3D

 47 50  0  0  0  0  0  0  0  0999 V2000
  141.1840   72.2930  221.6510 O   0  0  0  0  0  0  0  0  0  0  0  0
  140.2370   72.4170  222.4720 C   0  0  0  0  0  0  0  0  0  0  0  0
  139.2330   73.4220  222.3460 N   0  0  0  0  0  0  0  0  0  0  0  0
  139.3550   74.3170  221.2000 C   0  0  0  0  0  0  0  0  0  0  0  0
  140.3230   75.3940  221.4990 C   0  0  0  0  0  0  0  0  0  0  0  0
  141.5510   75.2170  221.6610 O   0  0  0  0  0  0  0  0  0  0  0  0
  139.8400   76.7270  221.6110 N   0  0  0  0  0  0  0  0  0  0  0  0
  138.7000   77.2150  222.3860 C   0  0  0  0  0  0  0  0  0  0  0  0
  138.0290   78.2360  221.4750 C   0  0  0  0  0  0  0  0  0  0  0  0
  139.1200   78.6710  220.5220 C   0  0  0  0  0  0  0  0  0  0  0  0
  140.3730   77.9390  220.9740 C   0  0  1  0  0  0  0  0  0  0  0  0
  141.1340   78.7770  221.9520 C   0  0  0  0  0  0  0  0  0  0  0  0
  141.7810   79.9290  221.6230 C   0  0  0  0  0  0  0  0  0  0  0  0
  142.4680   80.6560  222.5880 C   0  0  0  0  0  0  0  0  0  0  0  0
  142.4860   80.1910  223.8880 C   0  0  0  0  0  0  0  0  0  0  0  0
  141.8290   79.0250  224.2110 C   0  0  0  0  0  0  0  0  0  0  0  0
  141.1630   78.3340  223.2420 N   0  0  0  0  0  0  0  0  0  0  0  0
  140.1360   71.5100  223.6110 C   0  0  0  0  0  0  0  0  0  0  0  0
  139.5570   70.2540  223.4520 C   0  0  0  0  0  0  0  0  0  0  0  0
  139.4520   69.3810  224.5180 C   0  0  0  0  0  0  0  0  0  0  0  0
  139.9310   69.7680  225.7510 C   0  0  0  0  0  0  0  0  0  0  0  0
  139.8590   68.9400  226.8680 C   0  0  0  0  0  0  0  0  0  0  0  0
  140.3540   69.3770  228.0860 C   0  0  0  0  0  0  0  0  0  0  0  0
  140.2450   68.5040  229.1320 F   0  0  0  0  0  0  0  0  0  0  0  0
  140.9310   70.6250  228.2510 C   0  0  0  0  0  0  0  0  0  0  0  0
  141.0020   71.4500  227.1310 C   0  0  0  0  0  0  0  0  0  0  0  0
  140.5100   71.0220  225.9120 C   0  0  0  0  0  0  0  0  0  0  0  0
  140.5860   71.8320  224.8380 N   0  0  0  0  0  0  0  0  0  0  0  0
  138.4710   73.4880  223.0460 H   0  0  0  0  0  0  0  0  0  0  0  0
  139.7042   73.7456  220.3273 H   0  0  0  0  0  0  0  0  0  0  0  0
  138.3731   74.7640  220.9853 H   0  0  0  0  0  0  0  0  0  0  0  0
  138.0097   76.3919  222.6226 H   0  0  0  0  0  0  0  0  0  0  0  0
  139.0043   77.6499  223.3494 H   0  0  0  0  0  0  0  0  0  0  0  0
  137.1938   77.7769  220.9258 H   0  0  0  0  0  0  0  0  0  0  0  0
  137.6040   79.0809  222.0367 H   0  0  0  0  0  0  0  0  0  0  0  0
  138.8627   78.3906  219.4899 H   0  0  0  0  0  0  0  0  0  0  0  0
  139.2594   79.7621  220.5335 H   0  0  0  0  0  0  0  0  0  0  0  0
  141.0746   77.7147  220.1571 H   0  0  0  0  0  0  0  0  0  0  0  0
  141.7598   80.2878  220.5834 H   0  0  0  0  0  0  0  0  0  0  0  0
  142.9891   81.5870  222.3203 H   0  0  0  0  0  0  0  0  0  0  0  0
  143.0252   80.7521  224.6655 H   0  0  0  0  0  0  0  0  0  0  0  0
  141.8412   78.6524  225.2459 H   0  0  0  0  0  0  0  0  0  0  0  0
  139.1780   69.9524  222.4644 H   0  0  0  0  0  0  0  0  0  0  0  0
  138.9923   68.3906  224.3843 H   0  0  0  0  0  0  0  0  0  0  0  0
  139.4094   67.9396  226.7835 H   0  0  0  0  0  0  0  0  0  0  0  0
  141.3178   70.9517  229.2275 H   0  0  0  0  0  0  0  0  0  0  0  0
  141.4530   72.4496  227.2171 H   0  0  0  0  0  0  0  0  0  0  0  0
  1  2  2  0
  2  3  1  0
  3  4  1  0
  4  5  1  0
  5  6  2  0
  5  7  1  0
  7  8  1  0
  8  9  1  0
  9 10  1  0
 10 11  1  0
 11 12  1  0
 12 13  2  0
 13 14  1  0
 14 15  2  0
 15 16  1  0
 16 17  2  0
  2 18  1  0
 18 19  2  0
 19 20  1  0
 20 21  2  0
 21 22  1  0
 22 23  2  0
 23 24  1  0
 23 25  1  0
 25 26  2  0
 26 27  1  0
 27 28  2  0
 11  7  1  0
 17 12  1  0
 28 18  1  0
 27 21  1  0
  3 29  1  0
  4 30  1  0
  4 31  1  0
  8 32  1  0
  8 33  1  0
  9 34  1  0
  9 35  1  0
 10 36  1  0
 10 37  1  0
 11 38  1  6
 13 39  1  0
 14 40  1  0
 15 41  1  0
 16 42  1  0
 19 43  1  0
 20 44  1  0
 22 45  1  0
 25 46  1  0
 26 47  1  0
M  END
>  <smiles>  (69) 
O=C(NCC(=O)N1CCCC1c1ccccn1)c1ccc2cc(F)ccc2n1

>  <score_type>  (69) 
oracle

>  <origin>  (69) 
autodockgpu

>  <m_score__min__energy>  (69) 
-8.5999999999999996

>  <m_primary>  (69) 
energy

>  <rmsd>  (69) 
2.419130237518989

>  <m_score__min__rmsd>  (69) 
2.419130237518989

>  <meeko>  (69) 
{"free_energy": -8.6, "intermolecular_energy": -10.09, "internal_energy": -1.17, "cluster_size": 24, "cluster_id": 1, "rank_in_cluster": 1}

>  <energy>  (69) 
-8.16

>  <cluster_rmsd>  (69) 
1.15

>  <cluster>  (69) 
1

$$$$

     RDKit          3D

 47 50  0  0  0  0  0  0  0  0999 V2000
  139.8530   71.7640  221.0290 O   0  0  0  0  0  0  0  0  0  0  0  0
  139.7830   72.2780  222.1770 C   0  0  0  0  0  0  0  0  0  0  0  0
  139.6180   73.6790  222.3860 N   0  0  0  0  0  0  0  0  0  0  0  0
  139.5310   74.5050  221.1870 C   0  0  0  0  0  0  0  0  0  0  0  0
  139.2370   75.9070  221.5580 C   0  0  0  0  0  0  0  0  0  0  0  0
  138.3010   76.2590  222.3100 O   0  0  0  0  0  0  0  0  0  0  0  0
  140.0670   76.9350  221.0300 N   0  0  0  0  0  0  0  0  0  0  0  0
  139.7620   77.8870  219.9650 C   0  0  0  0  0  0  0  0  0  0  0  0
  141.0470   77.9720  219.1490 C   0  0  0  0  0  0  0  0  0  0  0  0
  142.1340   77.5320  220.1050 C   0  0  0  0  0  0  0  0  0  0  0  0
  141.4360   77.2880  221.4330 C   0  0  1  0  0  0  0  0  0  0  0  0
  141.4530   78.5340  222.2610 C   0  0  0  0  0  0  0  0  0  0  0  0
  142.5220   79.3730  222.3470 C   0  0  0  0  0  0  0  0  0  0  0  0
  142.4650   80.5150  223.1380 C   0  0  0  0  0  0  0  0  0  0  0  0
  141.3050   80.7850  223.8360 C   0  0  0  0  0  0  0  0  0  0  0  0
  140.2300   79.9320  223.7430 C   0  0  0  0  0  0  0  0  0  0  0  0
  140.3170   78.8190  222.9590 N   0  0  0  0  0  0  0  0  0  0  0  0
  139.8730   71.4310  223.3610 C   0  0  0  0  0  0  0  0  0  0  0  0
  139.4730   70.0980  223.2970 C   0  0  0  0  0  0  0  0  0  0  0  0
  139.5500   69.2800  224.4080 C   0  0  0  0  0  0  0  0  0  0  0  0
  140.0310   69.7980  225.5910 C   0  0  0  0  0  0  0  0  0  0  0  0
  140.1370   69.0320  226.7480 C   0  0  0  0  0  0  0  0  0  0  0  0
  140.6260   69.6020  227.9120 C   0  0  0  0  0  0  0  0  0  0  0  0
  140.6980   68.7820  229.0030 F   0  0  0  0  0  0  0  0  0  0  0  0
  141.0250   70.9260  227.9830 C   0  0  0  0  0  0  0  0  0  0  0  0
  140.9180   71.6900  226.8230 C   0  0  0  0  0  0  0  0  0  0  0  0
  140.4300   71.1280  225.6570 C   0  0  0  0  0  0  0  0  0  0  0  0
  140.3340   71.8810  224.5440 N   0  0  0  0  0  0  0  0  0  0  0  0
  139.5660   74.0590  223.3490 H   0  0  0  0  0  0  0  0  0  0  0  0
  140.4882   74.4644  220.6465 H   0  0  0  0  0  0  0  0  0  0  0  0
  138.7231   74.1247  220.5446 H   0  0  0  0  0  0  0  0  0  0  0  0
  138.9305   77.5223  219.3440 H   0  0  0  0  0  0  0  0  0  0  0  0
  139.4497   78.8664  220.3564 H   0  0  0  0  0  0  0  0  0  0  0  0
  140.9998   77.3009  218.2787 H   0  0  0  0  0  0  0  0  0  0  0  0
  141.2237   78.9825  218.7519 H   0  0  0  0  0  0  0  0  0  0  0  0
  142.6101   76.6077  219.7459 H   0  0  0  0  0  0  0  0  0  0  0  0
  142.9275   78.2884  220.1951 H   0  0  0  0  0  0  0  0  0  0  0  0
  141.9121   76.5096  222.0473 H   0  0  0  0  0  0  0  0  0  0  0  0
  143.4398   79.1450  221.7851 H   0  0  0  0  0  0  0  0  0  0  0  0
  143.3294   81.1918  223.2065 H   0  0  0  0  0  0  0  0  0  0  0  0
  141.2403   81.6835  224.4674 H   0  0  0  0  0  0  0  0  0  0  0  0
  139.3048   80.1462  224.2980 H   0  0  0  0  0  0  0  0  0  0  0  0
  139.0907   69.6912  222.3492 H   0  0  0  0  0  0  0  0  0  0  0  0
  139.2314   68.2288  224.3489 H   0  0  0  0  0  0  0  0  0  0  0  0
  139.8328   67.9750  226.7382 H   0  0  0  0  0  0  0  0  0  0  0  0
  141.4111   71.3575  228.9183 H   0  0  0  0  0  0  0  0  0  0  0  0
  141.2235   72.7467  226.8343 H   0  0  0  0  0  0  0  0  0  0  0  0
  1  2  2  0
  2  3  1  0
  3  4  1  0
  4  5  1  0
  5  6  2  0
  5  7  1  0
  7  8  1  0
  8  9  1  0
  9 10  1  0
 10 11  1  0
 11 12  1  0
 12 13  2  0
 13 14  1  0
 14 15  2  0
 15 16  1  0
 16 17  2  0
  2 18  1  0
 18 19  2  0
 19 20  1  0
 20 21  2  0
 21 22  1  0
 22 23  2  0
 23 24  1  0
 23 25  1  0
 25 26  2  0
 26 27  1  0
 27 28  2  0
 11  7  1  0
 17 12  1  0
 28 18  1  0
 27 21  1  0
  3 29  1  0
  4 30  1  0
  4 31  1  0
  8 32  1  0
  8 33  1  0
  9 34  1  0
  9 35  1  0
 10 36  1  0
 10 37  1  0
 11 38  1  1
 13 39  1  0
 14 40  1  0
 15 41  1  0
 16 42  1  0
 19 43  1  0
 20 44  1  0
 22 45  1  0
 25 46  1  0
 26 47  1  0
M  END
>  <smiles>  (70) 
O=C(NCC(=O)N1CCCC1c1ccccn1)c1ccc2cc(F)ccc2n1

>  <score_type>  (70) 
oracle

>  <origin>  (70) 
autodockgpu

>  <m_score__min__energy>  (70) 
-8.5999999999999996

>  <m_primary>  (70) 
energy

>  <rmsd>  (70) 
2.17948927592941

>  <m_score__min__rmsd>  (70) 
2.17948927592941

>  <meeko>  (70) 
{"free_energy": -8.13, "intermolecular_energy": -9.62, "internal_energy": -1.52, "cluster_size": 24, "cluster_id": 1, "rank_in_cluster": 21}

>  <energy>  (70) 
-8.15

>  <cluster_rmsd>  (70) 
1.15

>  <cluster>  (70) 
1

$$$$

     RDKit          3D

 47 50  0  0  0  0  0  0  0  0999 V2000
  139.2010   74.8530  222.3660 O   0  0  0  0  0  0  0  0  0  0  0  0
  140.1610   75.2630  221.6620 C   0  0  0  0  0  0  0  0  0  0  0  0
  140.2520   76.6040  221.1870 N   0  0  0  0  0  0  0  0  0  0  0  0
  139.1610   77.4980  221.5610 C   0  0  0  0  0  0  0  0  0  0  0  0
  139.6340   78.4880  222.5520 C   0  0  0  0  0  0  0  0  0  0  0  0
  139.0690   78.7210  223.6450 O   0  0  0  0  0  0  0  0  0  0  0  0
  140.8090   79.2340  222.2580 N   0  0  0  0  0  0  0  0  0  0  0  0
  142.1470   79.0770  222.8250 C   0  0  0  0  0  0  0  0  0  0  0  0
  142.6410   80.5030  223.0360 C   0  0  0  0  0  0  0  0  0  0  0  0
  141.8260   81.3360  222.0710 C   0  0  0  0  0  0  0  0  0  0  0  0
  140.9600   80.3460  221.3090 C   0  0  1  0  0  0  0  0  0  0  0  0
  141.6600   79.9030  220.0630 C   0  0  0  0  0  0  0  0  0  0  0  0
  142.1340   80.7570  219.1140 C   0  0  0  0  0  0  0  0  0  0  0  0
  142.7770   80.2720  217.9810 C   0  0  0  0  0  0  0  0  0  0  0  0
  142.9250   78.9080  217.8310 C   0  0  0  0  0  0  0  0  0  0  0  0
  142.4430   78.0520  218.7940 C   0  0  0  0  0  0  0  0  0  0  0  0
  141.8180   78.5590  219.8960 N   0  0  0  0  0  0  0  0  0  0  0  0
  141.2410   74.3510  221.3010 C   0  0  0  0  0  0  0  0  0  0  0  0
  140.9980   72.9820  221.2160 C   0  0  0  0  0  0  0  0  0  0  0  0
  142.0070   72.1020  220.8760 C   0  0  0  0  0  0  0  0  0  0  0  0
  143.2680   72.5950  220.6170 C   0  0  0  0  0  0  0  0  0  0  0  0
  144.3310   71.7670  220.2680 C   0  0  0  0  0  0  0  0  0  0  0  0
  145.5790   72.3120  220.0180 C   0  0  0  0  0  0  0  0  0  0  0  0
  146.5690   71.4320  219.6810 F   0  0  0  0  0  0  0  0  0  0  0  0
  145.8280   73.6720  220.1000 C   0  0  0  0  0  0  0  0  0  0  0  0
  144.7620   74.4980  220.4490 C   0  0  0  0  0  0  0  0  0  0  0  0
  143.5120   73.9610  220.7000 C   0  0  0  0  0  0  0  0  0  0  0  0
  142.4920   74.7730  221.0370 N   0  0  0  0  0  0  0  0  0  0  0  0
  141.0610   76.8990  220.6090 H   0  0  0  0  0  0  0  0  0  0  0  0
  138.7981   78.0240  220.6656 H   0  0  0  0  0  0  0  0  0  0  0  0
  138.3457   76.9066  222.0031 H   0  0  0  0  0  0  0  0  0  0  0  0
  142.1030   78.5351  223.7813 H   0  0  0  0  0  0  0  0  0  0  0  0
  142.8133   78.4958  222.1706 H   0  0  0  0  0  0  0  0  0  0  0  0
  142.4644   80.8258  224.0726 H   0  0  0  0  0  0  0  0  0  0  0  0
  143.7226   80.6001  222.8604 H   0  0  0  0  0  0  0  0  0  0  0  0
  141.1978   82.0538  222.6188 H   0  0  0  0  0  0  0  0  0  0  0  0
  142.4673   81.9209  221.3953 H   0  0  0  0  0  0  0  0  0  0  0  0
  139.9943   80.7607  220.9844 H   0  0  0  0  0  0  0  0  0  0  0  0
  142.0068   81.8417  219.2454 H   0  0  0  0  0  0  0  0  0  0  0  0
  143.1614   80.9637  217.2169 H   0  0  0  0  0  0  0  0  0  0  0  0
  143.4290   78.5048  216.9403 H   0  0  0  0  0  0  0  0  0  0  0  0
  142.5608   76.9647  218.6763 H   0  0  0  0  0  0  0  0  0  0  0  0
  139.9887   72.5964  221.4225 H   0  0  0  0  0  0  0  0  0  0  0  0
  141.8069   71.0222  220.8128 H   0  0  0  0  0  0  0  0  0  0  0  0
  144.1796   70.6802  220.1908 H   0  0  0  0  0  0  0  0  0  0  0  0
  146.8278   74.0835  219.8976 H   0  0  0  0  0  0  0  0  0  0  0  0
  144.9152   75.5846  220.5255 H   0  0  0  0  0  0  0  0  0  0  0  0
  1  2  2  0
  2  3  1  0
  3  4  1  0
  4  5  1  0
  5  6  2  0
  5  7  1  0
  7  8  1  0
  8  9  1  0
  9 10  1  0
 10 11  1  0
 11 12  1  0
 12 13  2  0
 13 14  1  0
 14 15  2  0
 15 16  1  0
 16 17  2  0
  2 18  1  0
 18 19  2  0
 19 20  1  0
 20 21  2  0
 21 22  1  0
 22 23  2  0
 23 24  1  0
 23 25  1  0
 25 26  2  0
 26 27  1  0
 27 28  2  0
 11  7  1  0
 17 12  1  0
 28 18  1  0
 27 21  1  0
  3 29  1  0
  4 30  1  0
  4 31  1  0
  8 32  1  0
  8 33  1  0
  9 34  1  0
  9 35  1  0
 10 36  1  0
 10 37  1  0
 11 38  1  6
 13 39  1  0
 14 40  1  0
 15 41  1  0
 16 42  1  0
 19 43  1  0
 20 44  1  0
 22 45  1  0
 25 46  1  0
 26 47  1  0
M  END
>  <smiles>  (71) 
O=C(NCC(=O)N1CCCC1c1ccccn1)c1ccc2cc(F)ccc2n1

>  <score_type>  (71) 
oracle

>  <origin>  (71) 
autodockgpu

>  <m_score__min__energy>  (71) 
-8.5999999999999996

>  <m_primary>  (71) 
energy

>  <rmsd>  (71) 
6.108704087133489

>  <m_score__min__rmsd>  (71) 
6.108704087133489

>  <meeko>  (71) 
{"free_energy": -6.72, "intermolecular_energy": -8.21, "internal_energy": -2.57, "cluster_size": 11, "cluster_id": 6, "rank_in_cluster": 9}

>  <energy>  (71) 
-8.13

>  <cluster_rmsd>  (71) 
1.16

>  <cluster>  (71) 
1

$$$$

     RDKit          3D

 47 50  0  0  0  0  0  0  0  0999 V2000
  138.6890   74.8150  221.9540 O   0  0  0  0  0  0  0  0  0  0  0  0
  139.8700   75.2520  221.9290 C   0  0  0  0  0  0  0  0  0  0  0  0
  140.2000   76.6010  222.2530 N   0  0  0  0  0  0  0  0  0  0  0  0
  139.0870   77.4690  222.6210 C   0  0  0  0  0  0  0  0  0  0  0  0
  139.5970   78.7590  223.1320 C   0  0  0  0  0  0  0  0  0  0  0  0
  138.9730   79.5060  223.9190 O   0  0  0  0  0  0  0  0  0  0  0  0
  140.8840   79.1950  222.7100 N   0  0  0  0  0  0  0  0  0  0  0  0
  142.1890   78.8250  223.2540 C   0  0  0  0  0  0  0  0  0  0  0  0
  142.9820   80.1260  223.2620 C   0  0  0  0  0  0  0  0  0  0  0  0
  142.3060   80.9910  222.2210 C   0  0  0  0  0  0  0  0  0  0  0  0
  141.2110   80.1250  221.6190 C   0  0  1  0  0  0  0  0  0  0  0  0
  141.7330   79.3950  220.4220 C   0  0  0  0  0  0  0  0  0  0  0  0
  142.1430   80.0090  219.2790 C   0  0  0  0  0  0  0  0  0  0  0  0
  142.6180   79.2640  218.2050 C   0  0  0  0  0  0  0  0  0  0  0  0
  142.6650   77.8890  218.3160 C   0  0  0  0  0  0  0  0  0  0  0  0
  142.2470   77.2760  219.4760 C   0  0  0  0  0  0  0  0  0  0  0  0
  141.7870   78.0350  220.5130 N   0  0  0  0  0  0  0  0  0  0  0  0
  140.9670   74.3660  221.5570 C   0  0  0  0  0  0  0  0  0  0  0  0
  140.7870   72.9850  221.5830 C   0  0  0  0  0  0  0  0  0  0  0  0
  141.8140   72.1290  221.2340 C   0  0  0  0  0  0  0  0  0  0  0  0
  143.0300   72.6580  220.8570 C   0  0  0  0  0  0  0  0  0  0  0  0
  144.1070   71.8550  220.4930 C   0  0  0  0  0  0  0  0  0  0  0  0
  145.3080   72.4370  220.1230 C   0  0  0  0  0  0  0  0  0  0  0  0
  146.3160   71.5800  219.7800 F   0  0  0  0  0  0  0  0  0  0  0  0
  145.4950   73.8090  220.0950 C   0  0  0  0  0  0  0  0  0  0  0  0
  144.4140   74.6090  220.4590 C   0  0  0  0  0  0  0  0  0  0  0  0
  143.2120   74.0360  220.8310 C   0  0  0  0  0  0  0  0  0  0  0  0
  142.1760   74.8240  221.1810 N   0  0  0  0  0  0  0  0  0  0  0  0
  141.1870   76.9190  222.2190 H   0  0  0  0  0  0  0  0  0  0  0  0
  138.4592   77.6506  221.7362 H   0  0  0  0  0  0  0  0  0  0  0  0
  138.4931   76.9796  223.4070 H   0  0  0  0  0  0  0  0  0  0  0  0
  142.0861   78.4261  224.2740 H   0  0  0  0  0  0  0  0  0  0  0  0
  142.6811   78.0389  222.6624 H   0  0  0  0  0  0  0  0  0  0  0  0
  142.9362   80.6027  224.2523 H   0  0  0  0  0  0  0  0  0  0  0  0
  144.0481   79.9662  223.0433 H   0  0  0  0  0  0  0  0  0  0  0  0
  141.8730   81.8874  222.6889 H   0  0  0  0  0  0  0  0  0  0  0  0
  143.0166   81.3387  221.4567 H   0  0  0  0  0  0  0  0  0  0  0  0
  140.3365   80.6938  221.2701 H   0  0  0  0  0  0  0  0  0  0  0  0
  142.0983   81.1055  219.2038 H   0  0  0  0  0  0  0  0  0  0  0  0
  142.9507   79.7622  217.2825 H   0  0  0  0  0  0  0  0  0  0  0  0
  143.0367   77.2824  217.4770 H   0  0  0  0  0  0  0  0  0  0  0  0
  142.2836   76.1803  219.5665 H   0  0  0  0  0  0  0  0  0  0  0  0
  139.8141   72.5703  221.8854 H   0  0  0  0  0  0  0  0  0  0  0  0
  141.6633   71.0396  221.2567 H   0  0  0  0  0  0  0  0  0  0  0  0
  144.0044   70.7598  220.4992 H   0  0  0  0  0  0  0  0  0  0  0  0
  146.4581   74.2493  219.7974 H   0  0  0  0  0  0  0  0  0  0  0  0
  144.5176   75.7041  220.4504 H   0  0  0  0  0  0  0  0  0  0  0  0
  1  2  2  0
  2  3  1  0
  3  4  1  0
  4  5  1  0
  5  6  2  0
  5  7  1  0
  7  8  1  0
  8  9  1  0
  9 10  1  0
 10 11  1  0
 11 12  1  0
 12 13  2  0
 13 14  1  0
 14 15  2  0
 15 16  1  0
 16 17  2  0
  2 18  1  0
 18 19  2  0
 19 20  1  0
 20 21  2  0
 21 22  1  0
 22 23  2  0
 23 24  1  0
 23 25  1  0
 25 26  2  0
 26 27  1  0
 27 28  2  0
 11  7  1  0
 17 12  1  0
 28 18  1  0
 27 21  1  0
  3 29  1  0
  4 30  1  0
  4 31  1  0
  8 32  1  0
  8 33  1  0
  9 34  1  0
  9 35  1  0
 10 36  1  0
 10 37  1  0
 11 38  1  6
 13 39  1  0
 14 40  1  0
 15 41  1  0
 16 42  1  0
 19 43  1  0
 20 44  1  0
 22 45  1  0
 25 46  1  0
 26 47  1  0
M  END
>  <smiles>  (72) 
O=C(NCC(=O)N1CCCC1c1ccccn1)c1ccc2cc(F)ccc2n1

>  <score_type>  (72) 
oracle

>  <origin>  (72) 
autodockgpu

>  <m_score__min__energy>  (72) 
-8.5999999999999996

>  <m_primary>  (72) 
energy

>  <rmsd>  (72) 
6.055202037770583

>  <m_score__min__rmsd>  (72) 
6.055202037770583

>  <meeko>  (72) 
{"free_energy": -6.85, "intermolecular_energy": -8.34, "internal_energy": -2.74, "cluster_size": 11, "cluster_id": 6, "rank_in_cluster": 7}

>  <energy>  (72) 
-8.13

>  <cluster_rmsd>  (72) 
1.16

>  <cluster>  (72) 
1

$$$$

     RDKit          3D

 47 50  0  0  0  0  0  0  0  0999 V2000
  141.1200   72.0050  221.3450 O   0  0  0  0  0  0  0  0  0  0  0  0
  140.3530   72.3540  222.2800 C   0  0  0  0  0  0  0  0  0  0  0  0
  139.6070   73.5690  222.2530 N   0  0  0  0  0  0  0  0  0  0  0  0
  139.7750   74.4040  221.0690 C   0  0  0  0  0  0  0  0  0  0  0  0
  140.8250   75.4180  221.3080 C   0  0  0  0  0  0  0  0  0  0  0  0
  140.9220   76.1050  222.3490 O   0  0  0  0  0  0  0  0  0  0  0  0
  141.7980   75.6380  220.2940 N   0  0  0  0  0  0  0  0  0  0  0  0
  142.6110   76.8300  220.0620 C   0  0  0  0  0  0  0  0  0  0  0  0
  142.6210   76.9960  218.5470 C   0  0  0  0  0  0  0  0  0  0  0  0
  142.3180   75.6140  218.0100 C   0  0  0  0  0  0  0  0  0  0  0  0
  142.2210   74.7140  219.2310 C   0  0  1  0  0  0  0  0  0  0  0  0
  143.5570   74.1130  219.5350 C   0  0  0  0  0  0  0  0  0  0  0  0
  144.3670   73.5490  218.5980 C   0  0  0  0  0  0  0  0  0  0  0  0
  145.5970   73.0100  218.9550 C   0  0  0  0  0  0  0  0  0  0  0  0
  145.9860   73.0550  220.2790 C   0  0  0  0  0  0  0  0  0  0  0  0
  145.1610   73.6270  221.2200 C   0  0  0  0  0  0  0  0  0  0  0  0
  143.9590   74.1480  220.8380 N   0  0  0  0  0  0  0  0  0  0  0  0
  140.2010   71.5030  223.4550 C   0  0  0  0  0  0  0  0  0  0  0  0
  139.5830   70.2600  223.3400 C   0  0  0  0  0  0  0  0  0  0  0  0
  139.4290   69.4400  224.4410 C   0  0  0  0  0  0  0  0  0  0  0  0
  139.8990   69.8640  225.6650 C   0  0  0  0  0  0  0  0  0  0  0  0
  139.7790   69.0890  226.8150 C   0  0  0  0  0  0  0  0  0  0  0  0
  140.2670   69.5630  228.0220 C   0  0  0  0  0  0  0  0  0  0  0  0
  140.1090   68.7420  229.1030 F   0  0  0  0  0  0  0  0  0  0  0  0
  140.8820   70.7970  228.1440 C   0  0  0  0  0  0  0  0  0  0  0  0
  141.0020   71.5700  226.9910 C   0  0  0  0  0  0  0  0  0  0  0  0
  140.5160   71.1040  225.7820 C   0  0  0  0  0  0  0  0  0  0  0  0
  140.6390   71.8640  224.6760 N   0  0  0  0  0  0  0  0  0  0  0  0
  138.9870   73.8180  223.0460 H   0  0  0  0  0  0  0  0  0  0  0  0
  140.0661   73.7726  220.2166 H   0  0  0  0  0  0  0  0  0  0  0  0
  138.8251   74.9136  220.8496 H   0  0  0  0  0  0  0  0  0  0  0  0
  142.1600   77.7086  220.5465 H   0  0  0  0  0  0  0  0  0  0  0  0
  143.6243   76.7329  220.4789 H   0  0  0  0  0  0  0  0  0  0  0  0
  141.8500   77.7136  218.2298 H   0  0  0  0  0  0  0  0  0  0  0  0
  143.5801   77.3867  218.1763 H   0  0  0  0  0  0  0  0  0  0  0  0
  141.3665   75.6165  217.4581 H   0  0  0  0  0  0  0  0  0  0  0  0
  143.0941   75.2695  217.3107 H   0  0  0  0  0  0  0  0  0  0  0  0
  141.5295   73.8679  219.1042 H   0  0  0  0  0  0  0  0  0  0  0  0
  144.0445   73.5195  217.5467 H   0  0  0  0  0  0  0  0  0  0  0  0
  146.2498   72.5551  218.1955 H   0  0  0  0  0  0  0  0  0  0  0  0
  146.9559   72.6334  220.5817 H   0  0  0  0  0  0  0  0  0  0  0  0
  145.4690   73.6641  222.2754 H   0  0  0  0  0  0  0  0  0  0  0  0
  139.2126   69.9269  222.3593 H   0  0  0  0  0  0  0  0  0  0  0  0
  138.9374   68.4610  224.3419 H   0  0  0  0  0  0  0  0  0  0  0  0
  139.2973   68.1013  226.7656 H   0  0  0  0  0  0  0  0  0  0  0  0
  141.2611   71.1534  229.1131 H   0  0  0  0  0  0  0  0  0  0  0  0
  141.4859   72.5565  227.0420 H   0  0  0  0  0  0  0  0  0  0  0  0
  1  2  2  0
  2  3  1  0
  3  4  1  0
  4  5  1  0
  5  6  2  0
  5  7  1  0
  7  8  1  0
  8  9  1  0
  9 10  1  0
 10 11  1  0
 11 12  1  0
 12 13  2  0
 13 14  1  0
 14 15  2  0
 15 16  1  0
 16 17  2  0
  2 18  1  0
 18 19  2  0
 19 20  1  0
 20 21  2  0
 21 22  1  0
 22 23  2  0
 23 24  1  0
 23 25  1  0
 25 26  2  0
 26 27  1  0
 27 28  2  0
 11  7  1  0
 17 12  1  0
 28 18  1  0
 27 21  1  0
  3 29  1  0
  4 30  1  0
  4 31  1  0
  8 32  1  0
  8 33  1  0
  9 34  1  0
  9 35  1  0
 10 36  1  0
 10 37  1  0
 11 38  1  6
 13 39  1  0
 14 40  1  0
 15 41  1  0
 16 42  1  0
 19 43  1  0
 20 44  1  0
 22 45  1  0
 25 46  1  0
 26 47  1  0
M  END
>  <smiles>  (73) 
O=C(NCC(=O)N1CCCC1c1ccccn1)c1ccc2cc(F)ccc2n1

>  <score_type>  (73) 
oracle

>  <origin>  (73) 
autodockgpu

>  <m_score__min__energy>  (73) 
-8.5999999999999996

>  <m_primary>  (73) 
energy

>  <rmsd>  (73) 
4.188704425643704

>  <m_score__min__rmsd>  (73) 
4.188704425643704

>  <meeko>  (73) 
{"free_energy": -8.09, "intermolecular_energy": -9.58, "internal_energy": -1.62, "cluster_size": 8, "cluster_id": 2, "rank_in_cluster": 5}

>  <energy>  (73) 
-8.05

>  <cluster_rmsd>  (73) 
1.34

>  <cluster>  (73) 
1

$$$$

     RDKit          3D

 47 50  0  0  0  0  0  0  0  0999 V2000
  140.9190   72.0060  221.2710 O   0  0  0  0  0  0  0  0  0  0  0  0
  140.2110   72.3630  222.2490 C   0  0  0  0  0  0  0  0  0  0  0  0
  139.4800   73.5880  222.2670 N   0  0  0  0  0  0  0  0  0  0  0  0
  139.5920   74.4240  221.0780 C   0  0  0  0  0  0  0  0  0  0  0  0
  140.7930   75.2830  221.1720 C   0  0  0  0  0  0  0  0  0  0  0  0
  141.9180   74.8880  221.5500 O   0  0  0  0  0  0  0  0  0  0  0  0
  140.6750   76.6550  220.8130 N   0  0  0  0  0  0  0  0  0  0  0  0
  139.4600   77.4100  220.5130 C   0  0  0  0  0  0  0  0  0  0  0  0
  139.8400   78.2860  219.3240 C   0  0  0  0  0  0  0  0  0  0  0  0
  141.3470   78.3960  219.3990 C   0  0  0  0  0  0  0  0  0  0  0  0
  141.7500   77.6450  220.6570 C   0  0  1  0  0  0  0  0  0  0  0  0
  141.7980   78.5810  221.8230 C   0  0  0  0  0  0  0  0  0  0  0  0
  141.4870   78.2220  223.0980 C   0  0  0  0  0  0  0  0  0  0  0  0
  141.5560   79.1480  224.1320 C   0  0  0  0  0  0  0  0  0  0  0  0
  141.9440   80.4410  223.8450 C   0  0  0  0  0  0  0  0  0  0  0  0
  142.2560   80.7960  222.5530 C   0  0  0  0  0  0  0  0  0  0  0  0
  142.1790   79.8640  221.5590 N   0  0  0  0  0  0  0  0  0  0  0  0
  140.1140   71.5100  223.4290 C   0  0  0  0  0  0  0  0  0  0  0  0
  139.4880   70.2690  223.3420 C   0  0  0  0  0  0  0  0  0  0  0  0
  139.3860   69.4470  224.4470 C   0  0  0  0  0  0  0  0  0  0  0  0
  139.9160   69.8680  225.6480 C   0  0  0  0  0  0  0  0  0  0  0  0
  139.8500   69.0920  226.8010 C   0  0  0  0  0  0  0  0  0  0  0  0
  140.3980   69.5620  227.9840 C   0  0  0  0  0  0  0  0  0  0  0  0
  140.2910   68.7390  229.0700 F   0  0  0  0  0  0  0  0  0  0  0  0
  141.0220   70.7940  228.0770 C   0  0  0  0  0  0  0  0  0  0  0  0
  141.0870   71.5680  226.9210 C   0  0  0  0  0  0  0  0  0  0  0  0
  140.5420   71.1060  225.7370 C   0  0  0  0  0  0  0  0  0  0  0  0
  140.6120   71.8670  224.6270 N   0  0  0  0  0  0  0  0  0  0  0  0
  138.9100   73.8430  223.0940 H   0  0  0  0  0  0  0  0  0  0  0  0
  139.6724   73.7823  220.1882 H   0  0  0  0  0  0  0  0  0  0  0  0
  138.6987   75.0612  221.0003 H   0  0  0  0  0  0  0  0  0  0  0  0
  138.6357   76.7314  220.2485 H   0  0  0  0  0  0  0  0  0  0  0  0
  139.1106   78.0000  221.3731 H   0  0  0  0  0  0  0  0  0  0  0  0
  139.5314   77.8142  218.3794 H   0  0  0  0  0  0  0  0  0  0  0  0
  139.3474   79.2690  219.3551 H   0  0  0  0  0  0  0  0  0  0  0  0
  141.8100   77.9370  218.5130 H   0  0  0  0  0  0  0  0  0  0  0  0
  141.6774   79.4448  219.4279 H   0  0  0  0  0  0  0  0  0  0  0  0
  142.7468   77.1837  220.5974 H   0  0  0  0  0  0  0  0  0  0  0  0
  141.1778   77.1884  223.3126 H   0  0  0  0  0  0  0  0  0  0  0  0
  141.3055   78.8552  225.1623 H   0  0  0  0  0  0  0  0  0  0  0  0
  142.0038   81.1883  224.6500 H   0  0  0  0  0  0  0  0  0  0  0  0
  142.5660   81.8259  222.3223 H   0  0  0  0  0  0  0  0  0  0  0  0
  139.0691   69.9390  222.3799 H   0  0  0  0  0  0  0  0  0  0  0  0
  138.8883   68.4691  224.3699 H   0  0  0  0  0  0  0  0  0  0  0  0
  139.3631   68.1060  226.7736 H   0  0  0  0  0  0  0  0  0  0  0  0
  141.4498   71.1479  229.0266 H   0  0  0  0  0  0  0  0  0  0  0  0
  141.5751   72.5534  226.9500 H   0  0  0  0  0  0  0  0  0  0  0  0
  1  2  2  0
  2  3  1  0
  3  4  1  0
  4  5  1  0
  5  6  2  0
  5  7  1  0
  7  8  1  0
  8  9  1  0
  9 10  1  0
 10 11  1  0
 11 12  1  0
 12 13  2  0
 13 14  1  0
 14 15  2  0
 15 16  1  0
 16 17  2  0
  2 18  1  0
 18 19  2  0
 19 20  1  0
 20 21  2  0
 21 22  1  0
 22 23  2  0
 23 24  1  0
 23 25  1  0
 25 26  2  0
 26 27  1  0
 27 28  2  0
 11  7  1  0
 17 12  1  0
 28 18  1  0
 27 21  1  0
  3 29  1  0
  4 30  1  0
  4 31  1  0
  8 32  1  0
  8 33  1  0
  9 34  1  0
  9 35  1  0
 10 36  1  0
 10 37  1  0
 11 38  1  6
 13 39  1  0
 14 40  1  0
 15 41  1  0
 16 42  1  0
 19 43  1  0
 20 44  1  0
 22 45  1  0
 25 46  1  0
 26 47  1  0
M  END
>  <smiles>  (74) 
O=C(NCC(=O)N1CCCC1c1ccccn1)c1ccc2cc(F)ccc2n1

>  <score_type>  (74) 
oracle

>  <origin>  (74) 
autodockgpu

>  <m_score__min__energy>  (74) 
-8.5999999999999996

>  <m_primary>  (74) 
energy

>  <rmsd>  (74) 
2.4109138631309355

>  <m_score__min__rmsd>  (74) 
2.4109138631309355

>  <meeko>  (74) 
{"free_energy": -8.38, "intermolecular_energy": -9.87, "internal_energy": -1.27, "cluster_size": 24, "cluster_id": 1, "rank_in_cluster": 15}

>  <energy>  (74) 
-7.79

>  <cluster_rmsd>  (74) 
1.77

>  <cluster>  (74) 
1

$$$$

     RDKit          3D

 47 50  0  0  0  0  0  0  0  0999 V2000
  138.7220   74.7910  222.0150 O   0  0  0  0  0  0  0  0  0  0  0  0
  139.8940   75.2440  221.9350 C   0  0  0  0  0  0  0  0  0  0  0  0
  140.2150   76.6070  222.2050 N   0  0  0  0  0  0  0  0  0  0  0  0
  139.1020   77.4690  222.5860 C   0  0  0  0  0  0  0  0  0  0  0  0
  139.6120   78.7630  223.0900 C   0  0  0  0  0  0  0  0  0  0  0  0
  138.9920   79.5100  223.8800 O   0  0  0  0  0  0  0  0  0  0  0  0
  140.8940   79.2010  222.6550 N   0  0  0  0  0  0  0  0  0  0  0  0
  142.2040   78.8520  223.2020 C   0  0  0  0  0  0  0  0  0  0  0  0
  142.9860   80.1610  223.1850 C   0  0  0  0  0  0  0  0  0  0  0  0
  142.2990   81.0000  222.1300 C   0  0  0  0  0  0  0  0  0  0  0  0
  141.2110   80.1140  221.5470 C   0  0  1  0  0  0  0  0  0  0  0  0
  141.7350   79.3660  220.3620 C   0  0  0  0  0  0  0  0  0  0  0  0
  142.1410   79.9630  219.2080 C   0  0  0  0  0  0  0  0  0  0  0  0
  142.6190   79.2020  218.1470 C   0  0  0  0  0  0  0  0  0  0  0  0
  142.6730   77.8290  218.2820 C   0  0  0  0  0  0  0  0  0  0  0  0
  142.2600   77.2350  219.4520 C   0  0  0  0  0  0  0  0  0  0  0  0
  141.7970   78.0090  220.4760 N   0  0  0  0  0  0  0  0  0  0  0  0
  140.9910   74.3620  221.5520 C   0  0  0  0  0  0  0  0  0  0  0  0
  140.8090   72.9810  221.5520 C   0  0  0  0  0  0  0  0  0  0  0  0
  141.8350   72.1300  221.1920 C   0  0  0  0  0  0  0  0  0  0  0  0
  143.0530   72.6630  220.8290 C   0  0  0  0  0  0  0  0  0  0  0  0
  144.1300   71.8650  220.4550 C   0  0  0  0  0  0  0  0  0  0  0  0
  145.3340   72.4510  220.0990 C   0  0  0  0  0  0  0  0  0  0  0  0
  146.3410   71.5980  219.7450 F   0  0  0  0  0  0  0  0  0  0  0  0
  145.5230   73.8230  220.0960 C   0  0  0  0  0  0  0  0  0  0  0  0
  144.4420   74.6180  220.4700 C   0  0  0  0  0  0  0  0  0  0  0  0
  143.2380   74.0410  220.8280 C   0  0  0  0  0  0  0  0  0  0  0  0
  142.2020   74.8240  221.1870 N   0  0  0  0  0  0  0  0  0  0  0  0
  141.1940   76.9370  222.1260 H   0  0  0  0  0  0  0  0  0  0  0  0
  138.4623   77.6466  221.7089 H   0  0  0  0  0  0  0  0  0  0  0  0
  138.5203   76.9771  223.3795 H   0  0  0  0  0  0  0  0  0  0  0  0
  142.1073   78.4702  224.2291 H   0  0  0  0  0  0  0  0  0  0  0  0
  142.7015   78.0600  222.6230 H   0  0  0  0  0  0  0  0  0  0  0  0
  142.9380   80.6552  224.1666 H   0  0  0  0  0  0  0  0  0  0  0  0
  144.0532   80.0075  222.9673 H   0  0  0  0  0  0  0  0  0  0  0  0
  141.8590   81.9009  222.5825 H   0  0  0  0  0  0  0  0  0  0  0  0
  143.0045   81.3396  221.3574 H   0  0  0  0  0  0  0  0  0  0  0  0
  140.3315   80.6700  221.1901 H   0  0  0  0  0  0  0  0  0  0  0  0
  142.0905   81.0578  219.1139 H   0  0  0  0  0  0  0  0  0  0  0  0
  142.9486   79.6857  217.2157 H   0  0  0  0  0  0  0  0  0  0  0  0
  143.0466   77.2096  217.4533 H   0  0  0  0  0  0  0  0  0  0  0  0
  142.3028   76.1413  219.5616 H   0  0  0  0  0  0  0  0  0  0  0  0
  139.8342   72.5625  221.8429 H   0  0  0  0  0  0  0  0  0  0  0  0
  141.6822   71.0407  221.1949 H   0  0  0  0  0  0  0  0  0  0  0  0
  144.0256   70.7700  220.4420 H   0  0  0  0  0  0  0  0  0  0  0  0
  146.4878   74.2670  219.8098 H   0  0  0  0  0  0  0  0  0  0  0  0
  144.5473   75.7129  220.4805 H   0  0  0  0  0  0  0  0  0  0  0  0
  1  2  2  0
  2  3  1  0
  3  4  1  0
  4  5  1  0
  5  6  2  0
  5  7  1  0
  7  8  1  0
  8  9  1  0
  9 10  1  0
 10 11  1  0
 11 12  1  0
 12 13  2  0
 13 14  1  0
 14 15  2  0
 15 16  1  0
 16 17  2  0
  2 18  1  0
 18 19  2  0
 19 20  1  0
 20 21  2  0
 21 22  1  0
 22 23  2  0
 23 24  1  0
 23 25  1  0
 25 26  2  0
 26 27  1  0
 27 28  2  0
 11  7  1  0
 17 12  1  0
 28 18  1  0
 27 21  1  0
  3 29  1  0
  4 30  1  0
  4 31  1  0
  8 32  1  0
  8 33  1  0
  9 34  1  0
  9 35  1  0
 10 36  1  0
 10 37  1  0
 11 38  1  6
 13 39  1  0
 14 40  1  0
 15 41  1  0
 16 42  1  0
 19 43  1  0
 20 44  1  0
 22 45  1  0
 25 46  1  0
 26 47  1  0
M  END
>  <smiles>  (75) 
O=C(NCC(=O)N1CCCC1c1ccccn1)c1ccc2cc(F)ccc2n1

>  <score_type>  (75) 
oracle

>  <origin>  (75) 
autodockgpu

>  <m_score__min__energy>  (75) 
-8.5999999999999996

>  <m_primary>  (75) 
energy

>  <rmsd>  (75) 
6.062247331557332

>  <m_score__min__rmsd>  (75) 
6.062247331557332

>  <meeko>  (75) 
{"free_energy": -6.86, "intermolecular_energy": -8.35, "internal_energy": -2.75, "cluster_size": 11, "cluster_id": 6, "rank_in_cluster": 5}

>  <energy>  (75) 
-8.24

>  <cluster_rmsd>  (75) 
0.0

>  <cluster>  (75) 
2

$$$$

     RDKit          3D

 47 50  0  0  0  0  0  0  0  0999 V2000
  138.7730   74.8740  222.1200 O   0  0  0  0  0  0  0  0  0  0  0  0
  139.9380   75.3180  221.9420 C   0  0  0  0  0  0  0  0  0  0  0  0
  140.2710   76.6960  222.0990 N   0  0  0  0  0  0  0  0  0  0  0  0
  139.1800   77.5840  222.4830 C   0  0  0  0  0  0  0  0  0  0  0  0
  139.7190   78.7940  223.1420 C   0  0  0  0  0  0  0  0  0  0  0  0
  139.1700   79.3830  224.1000 O   0  0  0  0  0  0  0  0  0  0  0  0
  140.9450   79.3360  222.6640 N   0  0  0  0  0  0  0  0  0  0  0  0
  142.2950   79.1080  223.1750 C   0  0  0  0  0  0  0  0  0  0  0  0
  142.9600   80.4790  223.1200 C   0  0  0  0  0  0  0  0  0  0  0  0
  142.1720   81.2430  222.0790 C   0  0  0  0  0  0  0  0  0  0  0  0
  141.1480   80.2590  221.5380 C   0  0  1  0  0  0  0  0  0  0  0  0
  141.7000   79.5440  220.3450 C   0  0  0  0  0  0  0  0  0  0  0  0
  142.1030   80.1700  219.2050 C   0  0  0  0  0  0  0  0  0  0  0  0
  142.6080   79.4390  218.1360 C   0  0  0  0  0  0  0  0  0  0  0  0
  142.6930   78.0660  218.2470 C   0  0  0  0  0  0  0  0  0  0  0  0
  142.2830   77.4420  219.4030 C   0  0  0  0  0  0  0  0  0  0  0  0
  141.7930   78.1870  220.4360 N   0  0  0  0  0  0  0  0  0  0  0  0
  141.0120   74.4100  221.5570 C   0  0  0  0  0  0  0  0  0  0  0  0
  140.8010   73.0330  221.5720 C   0  0  0  0  0  0  0  0  0  0  0  0
  141.8070   72.1570  221.2110 C   0  0  0  0  0  0  0  0  0  0  0  0
  143.0320   72.6610  220.8320 C   0  0  0  0  0  0  0  0  0  0  0  0
  144.0890   71.8380  220.4560 C   0  0  0  0  0  0  0  0  0  0  0  0
  145.3010   72.3950  220.0840 C   0  0  0  0  0  0  0  0  0  0  0  0
  146.2870   71.5170  219.7290 F   0  0  0  0  0  0  0  0  0  0  0  0
  145.5180   73.7620  220.0660 C   0  0  0  0  0  0  0  0  0  0  0  0
  144.4580   74.5840  220.4420 C   0  0  0  0  0  0  0  0  0  0  0  0
  143.2450   74.0350  220.8160 C   0  0  0  0  0  0  0  0  0  0  0  0
  142.2300   74.8430  221.1770 N   0  0  0  0  0  0  0  0  0  0  0  0
  141.2430   77.0180  221.9420 H   0  0  0  0  0  0  0  0  0  0  0  0
  138.6172   77.8786  221.5850 H   0  0  0  0  0  0  0  0  0  0  0  0
  138.5159   77.0571  223.1840 H   0  0  0  0  0  0  0  0  0  0  0  0
  142.2614   78.7332  224.2086 H   0  0  0  0  0  0  0  0  0  0  0  0
  142.8420   78.3538  222.5903 H   0  0  0  0  0  0  0  0  0  0  0  0
  142.8995   80.9796  224.0976 H   0  0  0  0  0  0  0  0  0  0  0  0
  144.0293   80.4146  222.8699 H   0  0  0  0  0  0  0  0  0  0  0  0
  141.6691   82.1078  222.5364 H   0  0  0  0  0  0  0  0  0  0  0  0
  142.8220   81.6333  221.2820 H   0  0  0  0  0  0  0  0  0  0  0  0
  140.2134   80.7324  221.2025 H   0  0  0  0  0  0  0  0  0  0  0  0
  142.0282   81.2648  219.1292 H   0  0  0  0  0  0  0  0  0  0  0  0
  142.9346   79.9467  217.2164 H   0  0  0  0  0  0  0  0  0  0  0  0
  143.0886   77.4703  217.4112 H   0  0  0  0  0  0  0  0  0  0  0  0
  142.3500   76.3478  219.4939 H   0  0  0  0  0  0  0  0  0  0  0  0
  139.8203   72.6377  221.8753 H   0  0  0  0  0  0  0  0  0  0  0  0
  141.6320   71.0711  221.2260 H   0  0  0  0  0  0  0  0  0  0  0  0
  143.9619   70.7454  220.4542 H   0  0  0  0  0  0  0  0  0  0  0  0
  146.4893   74.1827  219.7666 H   0  0  0  0  0  0  0  0  0  0  0  0
  144.5866   75.6765  220.4414 H   0  0  0  0  0  0  0  0  0  0  0  0
  1  2  2  0
  2  3  1  0
  3  4  1  0
  4  5  1  0
  5  6  2  0
  5  7  1  0
  7  8  1  0
  8  9  1  0
  9 10  1  0
 10 11  1  0
 11 12  1  0
 12 13  2  0
 13 14  1  0
 14 15  2  0
 15 16  1  0
 16 17  2  0
  2 18  1  0
 18 19  2  0
 19 20  1  0
 20 21  2  0
 21 22  1  0
 22 23  2  0
 23 24  1  0
 23 25  1  0
 25 26  2  0
 26 27  1  0
 27 28  2  0
 11  7  1  0
 17 12  1  0
 28 18  1  0
 27 21  1  0
  3 29  1  0
  4 30  1  0
  4 31  1  0
  8 32  1  0
  8 33  1  0
  9 34  1  0
  9 35  1  0
 10 36  1  0
 10 37  1  0
 11 38  1  6
 13 39  1  0
 14 40  1  0
 15 41  1  0
 16 42  1  0
 19 43  1  0
 20 44  1  0
 22 45  1  0
 25 46  1  0
 26 47  1  0
M  END
>  <smiles>  (76) 
O=C(NCC(=O)N1CCCC1c1ccccn1)c1ccc2cc(F)ccc2n1

>  <score_type>  (76) 
oracle

>  <origin>  (76) 
autodockgpu

>  <m_score__min__energy>  (76) 
-8.5999999999999996

>  <m_primary>  (76) 
energy

>  <rmsd>  (76) 
6.096221938903174

>  <m_score__min__rmsd>  (76) 
6.096221938903174

>  <meeko>  (76) 
{"free_energy": -6.97, "intermolecular_energy": -8.47, "internal_energy": -2.74, "cluster_size": 11, "cluster_id": 6, "rank_in_cluster": 2}

>  <energy>  (76) 
-8.19

>  <cluster_rmsd>  (76) 
0.22

>  <cluster>  (76) 
2

$$$$

     RDKit          3D

 47 50  0  0  0  0  0  0  0  0999 V2000
  141.3130   72.3710  221.5980 O   0  0  0  0  0  0  0  0  0  0  0  0
  140.3760   72.5320  222.4240 C   0  0  0  0  0  0  0  0  0  0  0  0
  139.4310   73.5950  222.3200 N   0  0  0  0  0  0  0  0  0  0  0  0
  139.6020   74.5040  221.1930 C   0  0  0  0  0  0  0  0  0  0  0  0
  139.2990   75.8910  221.6080 C   0  0  0  0  0  0  0  0  0  0  0  0
  138.3990   76.2070  222.4180 O   0  0  0  0  0  0  0  0  0  0  0  0
  140.0770   76.9470  221.0580 N   0  0  0  0  0  0  0  0  0  0  0  0
  139.7050   77.8940  220.0080 C   0  0  0  0  0  0  0  0  0  0  0  0
  140.9580   78.0230  219.1500 C   0  0  0  0  0  0  0  0  0  0  0  0
  142.0910   77.6160  220.0660 C   0  0  0  0  0  0  0  0  0  0  0  0
  141.4470   77.3430  221.4160 C   0  0  1  0  0  0  0  0  0  0  0  0
  141.4520   78.5860  222.2490 C   0  0  0  0  0  0  0  0  0  0  0  0
  142.5150   79.4310  222.3450 C   0  0  0  0  0  0  0  0  0  0  0  0
  142.4470   80.5690  223.1400 C   0  0  0  0  0  0  0  0  0  0  0  0
  141.2820   80.8300  223.8320 C   0  0  0  0  0  0  0  0  0  0  0  0
  140.2120   79.9710  223.7290 C   0  0  0  0  0  0  0  0  0  0  0  0
  140.3090   78.8620  222.9410 N   0  0  0  0  0  0  0  0  0  0  0  0
  140.2260   71.6100  223.5450 C   0  0  0  0  0  0  0  0  0  0  0  0
  139.6030   70.3790  223.3560 C   0  0  0  0  0  0  0  0  0  0  0  0
  139.4510   69.4930  224.4050 C   0  0  0  0  0  0  0  0  0  0  0  0
  139.9260   69.8400  225.6510 C   0  0  0  0  0  0  0  0  0  0  0  0
  139.8080   68.9960  226.7520 C   0  0  0  0  0  0  0  0  0  0  0  0
  140.3020   69.3930  227.9830 C   0  0  0  0  0  0  0  0  0  0  0  0
  140.1460   68.5070  229.0120 F   0  0  0  0  0  0  0  0  0  0  0  0
  140.9220   70.6160  228.1780 C   0  0  0  0  0  0  0  0  0  0  0  0
  141.0400   71.4570  227.0740 C   0  0  0  0  0  0  0  0  0  0  0  0
  140.5490   71.0680  225.8410 C   0  0  0  0  0  0  0  0  0  0  0  0
  140.6700   71.8940  224.7840 N   0  0  0  0  0  0  0  0  0  0  0  0
  138.6760   73.6910  223.0240 H   0  0  0  0  0  0  0  0  0  0  0  0
  140.6412   74.4498  220.8363 H   0  0  0  0  0  0  0  0  0  0  0  0
  138.9136   74.2110  220.3866 H   0  0  0  0  0  0  0  0  0  0  0  0
  138.8649   77.5054  219.4136 H   0  0  0  0  0  0  0  0  0  0  0  0
  139.3747   78.8613  220.4146 H   0  0  0  0  0  0  0  0  0  0  0  0
  140.9030   77.3533  218.2791 H   0  0  0  0  0  0  0  0  0  0  0  0
  141.0882   79.0401  218.7519 H   0  0  0  0  0  0  0  0  0  0  0  0
  142.5854   76.7098  219.6861 H   0  0  0  0  0  0  0  0  0  0  0  0
  142.8614   78.3983  220.1331 H   0  0  0  0  0  0  0  0  0  0  0  0
  141.9685   76.5777  222.0096 H   0  0  0  0  0  0  0  0  0  0  0  0
  143.4374   79.2108  221.7876 H   0  0  0  0  0  0  0  0  0  0  0  0
  143.3074   81.2501  223.2163 H   0  0  0  0  0  0  0  0  0  0  0  0
  141.2086   81.7255  224.4665 H   0  0  0  0  0  0  0  0  0  0  0  0
  139.2825   80.1778  224.2798 H   0  0  0  0  0  0  0  0  0  0  0  0
  139.2269   70.1085  222.3583 H   0  0  0  0  0  0  0  0  0  0  0  0
  138.9571   68.5228  224.2475 H   0  0  0  0  0  0  0  0  0  0  0  0
  139.3228   68.0147  226.6440 H   0  0  0  0  0  0  0  0  0  0  0  0
  141.3060   70.9114  229.1655 H   0  0  0  0  0  0  0  0  0  0  0  0
  141.5270   72.4372  227.1836 H   0  0  0  0  0  0  0  0  0  0  0  0
  1  2  2  0
  2  3  1  0
  3  4  1  0
  4  5  1  0
  5  6  2  0
  5  7  1  0
  7  8  1  0
  8  9  1  0
  9 10  1  0
 10 11  1  0
 11 12  1  0
 12 13  2  0
 13 14  1  0
 14 15  2  0
 15 16  1  0
 16 17  2  0
  2 18  1  0
 18 19  2  0
 19 20  1  0
 20 21  2  0
 21 22  1  0
 22 23  2  0
 23 24  1  0
 23 25  1  0
 25 26  2  0
 26 27  1  0
 27 28  2  0
 11  7  1  0
 17 12  1  0
 28 18  1  0
 27 21  1  0
  3 29  1  0
  4 30  1  0
  4 31  1  0
  8 32  1  0
  8 33  1  0
  9 34  1  0
  9 35  1  0
 10 36  1  0
 10 37  1  0
 11 38  1  1
 13 39  1  0
 14 40  1  0
 15 41  1  0
 16 42  1  0
 19 43  1  0
 20 44  1  0
 22 45  1  0
 25 46  1  0
 26 47  1  0
M  END
>  <smiles>  (77) 
O=C(NCC(=O)N1CCCC1c1ccccn1)c1ccc2cc(F)ccc2n1

>  <score_type>  (77) 
oracle

>  <origin>  (77) 
autodockgpu

>  <m_score__min__energy>  (77) 
-8.5999999999999996

>  <m_primary>  (77) 
energy

>  <rmsd>  (77) 
2.2374456369242455

>  <m_score__min__rmsd>  (77) 
2.2374456369242455

>  <meeko>  (77) 
{"free_energy": -8.47, "intermolecular_energy": -9.97, "internal_energy": -1.43, "cluster_size": 24, "cluster_id": 1, "rank_in_cluster": 5}

>  <energy>  (77) 
-8.17

>  <cluster_rmsd>  (77) 
0.44

>  <cluster>  (77) 
2

$$$$

     RDKit          3D

 47 50  0  0  0  0  0  0  0  0999 V2000
  141.1940   72.4180  221.5500 O   0  0  0  0  0  0  0  0  0  0  0  0
  140.2780   72.5400  222.4060 C   0  0  0  0  0  0  0  0  0  0  0  0
  139.3010   73.5770  222.3490 N   0  0  0  0  0  0  0  0  0  0  0  0
  139.4130   74.5090  221.2320 C   0  0  0  0  0  0  0  0  0  0  0  0
  139.2360   75.8980  221.7100 C   0  0  0  0  0  0  0  0  0  0  0  0
  138.4150   76.2450  222.5880 O   0  0  0  0  0  0  0  0  0  0  0  0
  140.0490   76.9180  221.1420 N   0  0  0  0  0  0  0  0  0  0  0  0
  139.7100   77.8540  220.0710 C   0  0  0  0  0  0  0  0  0  0  0  0
  140.9690   77.9260  219.2160 C   0  0  0  0  0  0  0  0  0  0  0  0
  142.0860   77.5020  220.1440 C   0  0  0  0  0  0  0  0  0  0  0  0
  141.4290   77.2780  221.4960 C   0  0  1  0  0  0  0  0  0  0  0  0
  141.4710   78.5360  222.3040 C   0  0  0  0  0  0  0  0  0  0  0  0
  142.5510   79.3630  222.3660 C   0  0  0  0  0  0  0  0  0  0  0  0
  142.5160   80.5180  223.1380 C   0  0  0  0  0  0  0  0  0  0  0  0
  141.3680   80.8140  223.8450 C   0  0  0  0  0  0  0  0  0  0  0  0
  140.2810   79.9720  223.7770 C   0  0  0  0  0  0  0  0  0  0  0  0
  140.3450   78.8460  223.0090 N   0  0  0  0  0  0  0  0  0  0  0  0
  140.1870   71.5960  223.5150 C   0  0  0  0  0  0  0  0  0  0  0  0
  139.6020   70.3470  223.3210 C   0  0  0  0  0  0  0  0  0  0  0  0
  139.5070   69.4400  224.3580 C   0  0  0  0  0  0  0  0  0  0  0  0
  140.0000   69.7840  225.5980 C   0  0  0  0  0  0  0  0  0  0  0  0
  139.9380   68.9190  226.6870 C   0  0  0  0  0  0  0  0  0  0  0  0
  140.4480   69.3140  227.9130 C   0  0  0  0  0  0  0  0  0  0  0  0
  140.3470   68.4070  228.9310 F   0  0  0  0  0  0  0  0  0  0  0  0
  141.0300   70.5540  228.1130 C   0  0  0  0  0  0  0  0  0  0  0  0
  141.0920   71.4160  227.0210 C   0  0  0  0  0  0  0  0  0  0  0  0
  140.5840   71.0300  225.7940 C   0  0  0  0  0  0  0  0  0  0  0  0
  140.6510   71.8760  224.7470 N   0  0  0  0  0  0  0  0  0  0  0  0
  138.5650   73.6400  223.0760 H   0  0  0  0  0  0  0  0  0  0  0  0
  140.4064   74.4066  220.7708 H   0  0  0  0  0  0  0  0  0  0  0  0
  138.6318   74.2802  220.4921 H   0  0  0  0  0  0  0  0  0  0  0  0
  138.8603   77.4793  219.4814 H   0  0  0  0  0  0  0  0  0  0  0  0
  139.4084   78.8393  220.4560 H   0  0  0  0  0  0  0  0  0  0  0  0
  140.8956   77.2410  218.3585 H   0  0  0  0  0  0  0  0  0  0  0  0
  141.1325   78.9305  218.7985 H   0  0  0  0  0  0  0  0  0  0  0  0
  142.5522   76.5728  219.7847 H   0  0  0  0  0  0  0  0  0  0  0  0
  142.8813   78.2601  220.1978 H   0  0  0  0  0  0  0  0  0  0  0  0
  141.9243   76.5088  222.1067 H   0  0  0  0  0  0  0  0  0  0  0  0
  143.4604   79.1143  221.7993 H   0  0  0  0  0  0  0  0  0  0  0  0
  143.3890   81.1855  223.1849 H   0  0  0  0  0  0  0  0  0  0  0  0
  141.3217   81.7229  224.4629 H   0  0  0  0  0  0  0  0  0  0  0  0
  139.3650   80.2059  224.3393 H   0  0  0  0  0  0  0  0  0  0  0  0
  139.2104   70.0794  222.3285 H   0  0  0  0  0  0  0  0  0  0  0  0
  139.0437   68.4555  224.1963 H   0  0  0  0  0  0  0  0  0  0  0  0
  139.4846   67.9231  226.5742 H   0  0  0  0  0  0  0  0  0  0  0  0
  141.4278   70.8469  229.0958 H   0  0  0  0  0  0  0  0  0  0  0  0
  141.5480   72.4105  227.1351 H   0  0  0  0  0  0  0  0  0  0  0  0
  1  2  2  0
  2  3  1  0
  3  4  1  0
  4  5  1  0
  5  6  2  0
  5  7  1  0
  7  8  1  0
  8  9  1  0
  9 10  1  0
 10 11  1  0
 11 12  1  0
 12 13  2  0
 13 14  1  0
 14 15  2  0
 15 16  1  0
 16 17  2  0
  2 18  1  0
 18 19  2  0
 19 20  1  0
 20 21  2  0
 21 22  1  0
 22 23  2  0
 23 24  1  0
 23 25  1  0
 25 26  2  0
 26 27  1  0
 27 28  2  0
 11  7  1  0
 17 12  1  0
 28 18  1  0
 27 21  1  0
  3 29  1  0
  4 30  1  0
  4 31  1  0
  8 32  1  0
  8 33  1  0
  9 34  1  0
  9 35  1  0
 10 36  1  0
 10 37  1  0
 11 38  1  1
 13 39  1  0
 14 40  1  0
 15 41  1  0
 16 42  1  0
 19 43  1  0
 20 44  1  0
 22 45  1  0
 25 46  1  0
 26 47  1  0
M  END
>  <smiles>  (78) 
O=C(NCC(=O)N1CCCC1c1ccccn1)c1ccc2cc(F)ccc2n1

>  <score_type>  (78) 
oracle

>  <origin>  (78) 
autodockgpu

>  <m_score__min__energy>  (78) 
-8.5999999999999996

>  <m_primary>  (78) 
energy

>  <rmsd>  (78) 
2.230855504952431

>  <m_score__min__rmsd>  (78) 
2.230855504952431

>  <meeko>  (78) 
{"free_energy": -8.47, "intermolecular_energy": -9.96, "internal_energy": -1.41, "cluster_size": 24, "cluster_id": 1, "rank_in_cluster": 6}

>  <energy>  (78) 
-8.12

>  <cluster_rmsd>  (78) 
0.63

>  <cluster>  (78) 
2

$$$$

     RDKit          3D

 47 50  0  0  0  0  0  0  0  0999 V2000
  138.6680   74.6440  222.3450 O   0  0  0  0  0  0  0  0  0  0  0  0
  139.7530   75.1770  221.9910 C   0  0  0  0  0  0  0  0  0  0  0  0
  139.9470   76.5900  221.9680 N   0  0  0  0  0  0  0  0  0  0  0  0
  138.8100   77.4050  222.3820 C   0  0  0  0  0  0  0  0  0  0  0  0
  139.2640   78.7670  222.7360 C   0  0  0  0  0  0  0  0  0  0  0  0
  138.5400   79.6400  223.2640 O   0  0  0  0  0  0  0  0  0  0  0  0
  140.6150   79.1220  222.4660 N   0  0  0  0  0  0  0  0  0  0  0  0
  141.8280   78.6350  223.1190 C   0  0  0  0  0  0  0  0  0  0  0  0
  142.7040   79.8730  223.2690 C   0  0  0  0  0  0  0  0  0  0  0  0
  142.2010   80.8270  222.2090 C   0  0  0  0  0  0  0  0  0  0  0  0
  141.1170   80.0690  221.4600 C   0  0  1  0  0  0  0  0  0  0  0  0
  141.7070   79.3520  220.2870 C   0  0  0  0  0  0  0  0  0  0  0  0
  142.1500   79.9750  219.1610 C   0  0  0  0  0  0  0  0  0  0  0  0
  142.6880   79.2410  218.1100 C   0  0  0  0  0  0  0  0  0  0  0  0
  142.7660   77.8680  218.2260 C   0  0  0  0  0  0  0  0  0  0  0  0
  142.3150   77.2460  219.3670 C   0  0  0  0  0  0  0  0  0  0  0  0
  141.7930   77.9940  220.3820 N   0  0  0  0  0  0  0  0  0  0  0  0
  140.8760   74.3410  221.5810 C   0  0  0  0  0  0  0  0  0  0  0  0
  140.7390   72.9560  221.5480 C   0  0  0  0  0  0  0  0  0  0  0  0
  141.7910   72.1480  221.1630 C   0  0  0  0  0  0  0  0  0  0  0  0
  142.9890   72.7290  220.8080 C   0  0  0  0  0  0  0  0  0  0  0  0
  144.0900   71.9760  220.4090 C   0  0  0  0  0  0  0  0  0  0  0  0
  145.2720   72.6100  220.0630 C   0  0  0  0  0  0  0  0  0  0  0  0
  146.3050   71.7990  219.6830 F   0  0  0  0  0  0  0  0  0  0  0  0
  145.4160   73.9870  220.0930 C   0  0  0  0  0  0  0  0  0  0  0  0
  144.3110   74.7370  220.4920 C   0  0  0  0  0  0  0  0  0  0  0  0
  143.1280   74.1120  220.8400 C   0  0  0  0  0  0  0  0  0  0  0  0
  142.0700   74.8520  221.2230 N   0  0  0  0  0  0  0  0  0  0  0  0
  140.8570   76.9860  221.6690 H   0  0  0  0  0  0  0  0  0  0  0  0
  138.0859   77.4659  221.5561 H   0  0  0  0  0  0  0  0  0  0  0  0
  138.3367   76.9431  223.2610 H   0  0  0  0  0  0  0  0  0  0  0  0
  141.5932   78.2033  224.1031 H   0  0  0  0  0  0  0  0  0  0  0  0
  142.3230   77.8398  222.5423 H   0  0  0  0  0  0  0  0  0  0  0  0
  142.5891   80.3108  224.2715 H   0  0  0  0  0  0  0  0  0  0  0  0
  143.7734   79.6441  223.1506 H   0  0  0  0  0  0  0  0  0  0  0  0
  141.7851   81.7331  222.6737 H   0  0  0  0  0  0  0  0  0  0  0  0
  143.0089   81.1527  221.5373 H   0  0  0  0  0  0  0  0  0  0  0  0
  140.3249   80.7151  221.0536 H   0  0  0  0  0  0  0  0  0  0  0  0
  142.0817   81.0700  219.0817 H   0  0  0  0  0  0  0  0  0  0  0  0
  143.0457   79.7464  217.2008 H   0  0  0  0  0  0  0  0  0  0  0  0
  143.1893   77.2704  217.4052 H   0  0  0  0  0  0  0  0  0  0  0  0
  142.3748   76.1516  219.4608 H   0  0  0  0  0  0  0  0  0  0  0  0
  139.7798   72.4989  221.8325 H   0  0  0  0  0  0  0  0  0  0  0  0
  141.6739   71.0545  221.1401 H   0  0  0  0  0  0  0  0  0  0  0  0
  144.0213   70.8789  220.3686 H   0  0  0  0  0  0  0  0  0  0  0  0
  146.3642   74.4694  219.8132 H   0  0  0  0  0  0  0  0  0  0  0  0
  144.3807   75.8341  220.5303 H   0  0  0  0  0  0  0  0  0  0  0  0
  1  2  2  0
  2  3  1  0
  3  4  1  0
  4  5  1  0
  5  6  2  0
  5  7  1  0
  7  8  1  0
  8  9  1  0
  9 10  1  0
 10 11  1  0
 11 12  1  0
 12 13  2  0
 13 14  1  0
 14 15  2  0
 15 16  1  0
 16 17  2  0
  2 18  1  0
 18 19  2  0
 19 20  1  0
 20 21  2  0
 21 22  1  0
 22 23  2  0
 23 24  1  0
 23 25  1  0
 25 26  2  0
 26 27  1  0
 27 28  2  0
 11  7  1  0
 17 12  1  0
 28 18  1  0
 27 21  1  0
  3 29  1  0
  4 30  1  0
  4 31  1  0
  8 32  1  0
  8 33  1  0
  9 34  1  0
  9 35  1  0
 10 36  1  0
 10 37  1  0
 11 38  1  6
 13 39  1  0
 14 40  1  0
 15 41  1  0
 16 42  1  0
 19 43  1  0
 20 44  1  0
 22 45  1  0
 25 46  1  0
 26 47  1  0
M  END
>  <smiles>  (79) 
O=C(NCC(=O)N1CCCC1c1ccccn1)c1ccc2cc(F)ccc2n1

>  <score_type>  (79) 
oracle

>  <origin>  (79) 
autodockgpu

>  <m_score__min__energy>  (79) 
-8.5999999999999996

>  <m_primary>  (79) 
energy

>  <rmsd>  (79) 
6.010562014974739

>  <m_score__min__rmsd>  (79) 
6.010562014974739

>  <meeko>  (79) 
{"free_energy": -6.61, "intermolecular_energy": -8.11, "internal_energy": -2.79, "cluster_size": 11, "cluster_id": 6, "rank_in_cluster": 11}

>  <energy>  (79) 
-8.09

>  <cluster_rmsd>  (79) 
0.64

>  <cluster>  (79) 
2

$$$$

     RDKit          3D

 47 50  0  0  0  0  0  0  0  0999 V2000
  141.3940   72.4170  221.5300 O   0  0  0  0  0  0  0  0  0  0  0  0
  140.4800   72.6100  222.3740 C   0  0  0  0  0  0  0  0  0  0  0  0
  139.6180   73.7460  222.3330 N   0  0  0  0  0  0  0  0  0  0  0  0
  139.8490   74.6930  221.2480 C   0  0  0  0  0  0  0  0  0  0  0  0
  139.3620   76.0350  221.6340 C   0  0  0  0  0  0  0  0  0  0  0  0
  138.4530   76.2460  222.4670 O   0  0  0  0  0  0  0  0  0  0  0  0
  139.9590   77.1730  221.0240 N   0  0  0  0  0  0  0  0  0  0  0  0
  139.3030   78.2660  220.3100 C   0  0  0  0  0  0  0  0  0  0  0  0
  140.2100   78.5420  219.1160 C   0  0  0  0  0  0  0  0  0  0  0  0
  141.5630   78.0100  219.5360 C   0  0  0  0  0  0  0  0  0  0  0  0
  141.3850   77.5250  220.9650 C   0  0  1  0  0  0  0  0  0  0  0  0
  141.7130   78.6230  221.9260 C   0  0  0  0  0  0  0  0  0  0  0  0
  142.1870   79.8430  221.5520 C   0  0  0  0  0  0  0  0  0  0  0  0
  142.4690   80.8160  222.5030 C   0  0  0  0  0  0  0  0  0  0  0  0
  142.2620   80.5260  223.8370 C   0  0  0  0  0  0  0  0  0  0  0  0
  141.7830   79.2900  224.2060 C   0  0  0  0  0  0  0  0  0  0  0  0
  141.5150   78.3550  223.2490 N   0  0  0  0  0  0  0  0  0  0  0  0
  140.2680   71.6490  223.4510 C   0  0  0  0  0  0  0  0  0  0  0  0
  139.5940   70.4560  223.1990 C   0  0  0  0  0  0  0  0  0  0  0  0
  139.3830   69.5340  224.2060 C   0  0  0  0  0  0  0  0  0  0  0  0
  139.8510   69.8050  225.4740 C   0  0  0  0  0  0  0  0  0  0  0  0
  139.6750   68.9220  226.5340 C   0  0  0  0  0  0  0  0  0  0  0  0
  140.1630   69.2430  227.7900 C   0  0  0  0  0  0  0  0  0  0  0  0
  139.9490   68.3220  228.7770 F   0  0  0  0  0  0  0  0  0  0  0  0
  140.8340   70.4260  228.0480 C   0  0  0  0  0  0  0  0  0  0  0  0
  141.0090   71.3080  226.9840 C   0  0  0  0  0  0  0  0  0  0  0  0
  140.5240   70.9950  225.7270 C   0  0  0  0  0  0  0  0  0  0  0  0
  140.7010   71.8590  224.7090 N   0  0  0  0  0  0  0  0  0  0  0  0
  138.8780   73.8650  223.0490 H   0  0  0  0  0  0  0  0  0  0  0  0
  140.9266   74.7447  221.0331 H   0  0  0  0  0  0  0  0  0  0  0  0
  139.3053   74.3557  220.3532 H   0  0  0  0  0  0  0  0  0  0  0  0
  138.2998   77.9642  219.9745 H   0  0  0  0  0  0  0  0  0  0  0  0
  139.1637   79.1546  220.9432 H   0  0  0  0  0  0  0  0  0  0  0  0
  139.8460   78.0155  218.2214 H   0  0  0  0  0  0  0  0  0  0  0  0
  140.2436   79.6100  218.8547 H   0  0  0  0  0  0  0  0  0  0  0  0
  141.8683   77.1787  218.8835 H   0  0  0  0  0  0  0  0  0  0  0  0
  142.3445   78.7805  219.4618 H   0  0  0  0  0  0  0  0  0  0  0  0
  142.0406   76.6829  221.2316 H   0  0  0  0  0  0  0  0  0  0  0  0
  142.3484   80.0608  220.4859 H   0  0  0  0  0  0  0  0  0  0  0  0
  142.8510   81.8014  222.1981 H   0  0  0  0  0  0  0  0  0  0  0  0
  142.4800   81.2830  224.6047 H   0  0  0  0  0  0  0  0  0  0  0  0
  141.6168   79.0566  225.2680 H   0  0  0  0  0  0  0  0  0  0  0  0
  139.2248   70.2453  222.1845 H   0  0  0  0  0  0  0  0  0  0  0  0
  138.8482   68.5954  223.9986 H   0  0  0  0  0  0  0  0  0  0  0  0
  139.1486   67.9693  226.3751 H   0  0  0  0  0  0  0  0  0  0  0  0
  141.2140   70.6603  229.0534 H   0  0  0  0  0  0  0  0  0  0  0  0
  141.5365   72.2598  227.1446 H   0  0  0  0  0  0  0  0  0  0  0  0
  1  2  2  0
  2  3  1  0
  3  4  1  0
  4  5  1  0
  5  6  2  0
  5  7  1  0
  7  8  1  0
  8  9  1  0
  9 10  1  0
 10 11  1  0
 11 12  1  0
 12 13  2  0
 13 14  1  0
 14 15  2  0
 15 16  1  0
 16 17  2  0
  2 18  1  0
 18 19  2  0
 19 20  1  0
 20 21  2  0
 21 22  1  0
 22 23  2  0
 23 24  1  0
 23 25  1  0
 25 26  2  0
 26 27  1  0
 27 28  2  0
 11  7  1  0
 17 12  1  0
 28 18  1  0
 27 21  1  0
  3 29  1  0
  4 30  1  0
  4 31  1  0
  8 32  1  0
  8 33  1  0
  9 34  1  0
  9 35  1  0
 10 36  1  0
 10 37  1  0
 11 38  1  1
 13 39  1  0
 14 40  1  0
 15 41  1  0
 16 42  1  0
 19 43  1  0
 20 44  1  0
 22 45  1  0
 25 46  1  0
 26 47  1  0
M  END
>  <smiles>  (80) 
O=C(NCC(=O)N1CCCC1c1ccccn1)c1ccc2cc(F)ccc2n1

>  <score_type>  (80) 
oracle

>  <origin>  (80) 
autodockgpu

>  <m_score__min__energy>  (80) 
-8.5999999999999996

>  <m_primary>  (80) 
energy

>  <rmsd>  (80) 
2.1602682759085465

>  <m_score__min__rmsd>  (80) 
2.1602682759085465

>  <meeko>  (80) 
{"free_energy": -8.41, "intermolecular_energy": -9.9, "internal_energy": -1.48, "cluster_size": 24, "cluster_id": 1, "rank_in_cluster": 12}

>  <energy>  (80) 
-8.04

>  <cluster_rmsd>  (80) 
0.77

>  <cluster>  (80) 
2

$$$$

     RDKit          3D

 47 50  0  0  0  0  0  0  0  0999 V2000
  141.1750   72.1670  221.3040 O   0  0  0  0  0  0  0  0  0  0  0  0
  140.4570   72.5110  222.2800 C   0  0  0  0  0  0  0  0  0  0  0  0
  139.7930   73.7720  222.3420 N   0  0  0  0  0  0  0  0  0  0  0  0
  139.9870   74.6620  221.2040 C   0  0  0  0  0  0  0  0  0  0  0  0
  139.4280   75.9980  221.5030 C   0  0  0  0  0  0  0  0  0  0  0  0
  138.4330   76.2020  222.2320 O   0  0  0  0  0  0  0  0  0  0  0  0
  140.0550   77.1390  220.9280 N   0  0  0  0  0  0  0  0  0  0  0  0
  139.4440   78.2050  220.1370 C   0  0  0  0  0  0  0  0  0  0  0  0
  140.4510   78.4810  219.0270 C   0  0  0  0  0  0  0  0  0  0  0  0
  141.7700   77.9860  219.5770 C   0  0  0  0  0  0  0  0  0  0  0  0
  141.4730   77.5200  220.9930 C   0  0  1  0  0  0  0  0  0  0  0  0
  141.6900   78.6410  221.9600 C   0  0  0  0  0  0  0  0  0  0  0  0
  141.6100   78.5040  223.3110 C   0  0  0  0  0  0  0  0  0  0  0  0
  141.8250   79.5930  224.1490 C   0  0  0  0  0  0  0  0  0  0  0  0
  142.1190   80.8180  223.5870 C   0  0  0  0  0  0  0  0  0  0  0  0
  142.1980   80.9490  222.2190 C   0  0  0  0  0  0  0  0  0  0  0  0
  141.9830   79.8610  221.4240 N   0  0  0  0  0  0  0  0  0  0  0  0
  140.2780   71.6040  223.4080 C   0  0  0  0  0  0  0  0  0  0  0  0
  139.6460   70.3770  223.2220 C   0  0  0  0  0  0  0  0  0  0  0  0
  139.4670   69.5040  224.2780 C   0  0  0  0  0  0  0  0  0  0  0  0
  139.9240   69.8610  225.5290 C   0  0  0  0  0  0  0  0  0  0  0  0
  139.7780   69.0320  226.6370 C   0  0  0  0  0  0  0  0  0  0  0  0
  140.2540   69.4380  227.8730 C   0  0  0  0  0  0  0  0  0  0  0  0
  140.0710   68.5660  228.9090 F   0  0  0  0  0  0  0  0  0  0  0  0
  140.8820   70.6570  228.0640 C   0  0  0  0  0  0  0  0  0  0  0  0
  141.0280   71.4840  226.9530 C   0  0  0  0  0  0  0  0  0  0  0  0
  140.5540   71.0860  225.7160 C   0  0  0  0  0  0  0  0  0  0  0  0
  140.7020   71.8980  224.6520 N   0  0  0  0  0  0  0  0  0  0  0  0
  139.2120   74.0140  223.1660 H   0  0  0  0  0  0  0  0  0  0  0  0
  141.0628   74.7562  220.9950 H   0  0  0  0  0  0  0  0  0  0  0  0
  139.4708   74.2435  220.3274 H   0  0  0  0  0  0  0  0  0  0  0  0
  138.4825   77.8751  219.7166 H   0  0  0  0  0  0  0  0  0  0  0  0
  139.2277   79.1006  220.7380 H   0  0  0  0  0  0  0  0  0  0  0  0
  140.1811   77.9324  218.1126 H   0  0  0  0  0  0  0  0  0  0  0  0
  140.4869   79.5453  218.7514 H   0  0  0  0  0  0  0  0  0  0  0  0
  142.1503   77.1513  218.9698 H   0  0  0  0  0  0  0  0  0  0  0  0
  142.5390   78.7723  219.5600 H   0  0  0  0  0  0  0  0  0  0  0  0
  142.1183   76.6968  221.3335 H   0  0  0  0  0  0  0  0  0  0  0  0
  141.3728   77.5216  223.7453 H   0  0  0  0  0  0  0  0  0  0  0  0
  141.7617   79.4794  225.2413 H   0  0  0  0  0  0  0  0  0  0  0  0
  142.2906   81.6916  224.2331 H   0  0  0  0  0  0  0  0  0  0  0  0
  142.4331   81.9250  221.7693 H   0  0  0  0  0  0  0  0  0  0  0  0
  139.2844   70.0991  222.2210 H   0  0  0  0  0  0  0  0  0  0  0  0
  138.9665   68.5369  224.1227 H   0  0  0  0  0  0  0  0  0  0  0  0
  139.2847   68.0545  226.5315 H   0  0  0  0  0  0  0  0  0  0  0  0
  141.2513   70.9605  229.0547 H   0  0  0  0  0  0  0  0  0  0  0  0
  141.5236   72.4602  227.0599 H   0  0  0  0  0  0  0  0  0  0  0  0
  1  2  2  0
  2  3  1  0
  3  4  1  0
  4  5  1  0
  5  6  2  0
  5  7  1  0
  7  8  1  0
  8  9  1  0
  9 10  1  0
 10 11  1  0
 11 12  1  0
 12 13  2  0
 13 14  1  0
 14 15  2  0
 15 16  1  0
 16 17  2  0
  2 18  1  0
 18 19  2  0
 19 20  1  0
 20 21  2  0
 21 22  1  0
 22 23  2  0
 23 24  1  0
 23 25  1  0
 25 26  2  0
 26 27  1  0
 27 28  2  0
 11  7  1  0
 17 12  1  0
 28 18  1  0
 27 21  1  0
  3 29  1  0
  4 30  1  0
  4 31  1  0
  8 32  1  0
  8 33  1  0
  9 34  1  0
  9 35  1  0
 10 36  1  0
 10 37  1  0
 11 38  1  1
 13 39  1  0
 14 40  1  0
 15 41  1  0
 16 42  1  0
 19 43  1  0
 20 44  1  0
 22 45  1  0
 25 46  1  0
 26 47  1  0
M  END
>  <smiles>  (81) 
O=C(NCC(=O)N1CCCC1c1ccccn1)c1ccc2cc(F)ccc2n1

>  <score_type>  (81) 
oracle

>  <origin>  (81) 
autodockgpu

>  <m_score__min__energy>  (81) 
-8.5999999999999996

>  <m_primary>  (81) 
energy

>  <rmsd>  (81) 
2.565291910375791

>  <m_score__min__rmsd>  (81) 
2.565291910375791

>  <meeko>  (81) 
{"free_energy": -8.31, "intermolecular_energy": -9.8, "internal_energy": -1.5, "cluster_size": 24, "cluster_id": 1, "rank_in_cluster": 17}

>  <energy>  (81) 
-8.04

>  <cluster_rmsd>  (81) 
0.5

>  <cluster>  (81) 
2

$$$$

     RDKit          3D

 47 50  0  0  0  0  0  0  0  0999 V2000
  138.7980   74.7860  222.3290 O   0  0  0  0  0  0  0  0  0  0  0  0
  139.9040   75.2700  221.9720 C   0  0  0  0  0  0  0  0  0  0  0  0
  140.1550   76.6740  221.9310 N   0  0  0  0  0  0  0  0  0  0  0  0
  139.0510   77.5390  222.3300 C   0  0  0  0  0  0  0  0  0  0  0  0
  139.5720   78.7490  223.0020 C   0  0  0  0  0  0  0  0  0  0  0  0
  138.9670   79.3780  223.8990 O   0  0  0  0  0  0  0  0  0  0  0  0
  140.8480   79.2430  222.6130 N   0  0  0  0  0  0  0  0  0  0  0  0
  142.1560   78.9170  223.1780 C   0  0  0  0  0  0  0  0  0  0  0  0
  142.8950   80.2490  223.2240 C   0  0  0  0  0  0  0  0  0  0  0  0
  142.2050   81.1040  222.1840 C   0  0  0  0  0  0  0  0  0  0  0  0
  141.1590   80.2040  221.5460 C   0  0  1  0  0  0  0  0  0  0  0  0
  141.7340   79.5170  220.3470 C   0  0  0  0  0  0  0  0  0  0  0  0
  142.1320   80.1650  219.2190 C   0  0  0  0  0  0  0  0  0  0  0  0
  142.6580   79.4580  218.1440 C   0  0  0  0  0  0  0  0  0  0  0  0
  142.7700   78.0860  218.2380 C   0  0  0  0  0  0  0  0  0  0  0  0
  142.3650   77.4390  219.3830 C   0  0  0  0  0  0  0  0  0  0  0  0
  141.8530   78.1600  220.4210 N   0  0  0  0  0  0  0  0  0  0  0  0
  140.9930   74.3840  221.5760 C   0  0  0  0  0  0  0  0  0  0  0  0
  140.8060   73.0050  221.5800 C   0  0  0  0  0  0  0  0  0  0  0  0
  141.8260   72.1490  221.2080 C   0  0  0  0  0  0  0  0  0  0  0  0
  143.0410   72.6780  220.8300 C   0  0  0  0  0  0  0  0  0  0  0  0
  144.1110   71.8760  220.4440 C   0  0  0  0  0  0  0  0  0  0  0  0
  145.3130   72.4580  220.0740 C   0  0  0  0  0  0  0  0  0  0  0  0
  146.3130   71.6010  219.7080 F   0  0  0  0  0  0  0  0  0  0  0  0
  145.5060   73.8290  220.0670 C   0  0  0  0  0  0  0  0  0  0  0  0
  144.4320   74.6280  220.4540 C   0  0  0  0  0  0  0  0  0  0  0  0
  143.2300   74.0550  220.8260 C   0  0  0  0  0  0  0  0  0  0  0  0
  142.2020   74.8420  221.1970 N   0  0  0  0  0  0  0  0  0  0  0  0
  141.0810   77.0290  221.6300 H   0  0  0  0  0  0  0  0  0  0  0  0
  138.4800   77.8355  221.4378 H   0  0  0  0  0  0  0  0  0  0  0  0
  138.3985   76.9924  223.0268 H   0  0  0  0  0  0  0  0  0  0  0  0
  142.0490   78.4967  224.1889 H   0  0  0  0  0  0  0  0  0  0  0  0
  142.6917   78.1620  222.5839 H   0  0  0  0  0  0  0  0  0  0  0  0
  142.8101   80.7060  224.2210 H   0  0  0  0  0  0  0  0  0  0  0  0
  143.9709   80.1364  223.0246 H   0  0  0  0  0  0  0  0  0  0  0  0
  141.7263   81.9737  222.6577 H   0  0  0  0  0  0  0  0  0  0  0  0
  142.9154   81.4942  221.4404 H   0  0  0  0  0  0  0  0  0  0  0  0
  140.2689   80.7430  221.1894 H   0  0  0  0  0  0  0  0  0  0  0  0
  142.0366   81.2591  219.1570 H   0  0  0  0  0  0  0  0  0  0  0  0
  142.9798   79.9839  217.2330 H   0  0  0  0  0  0  0  0  0  0  0  0
  143.1832   77.5092  217.3974 H   0  0  0  0  0  0  0  0  0  0  0  0
  142.4539   76.3453  219.4606 H   0  0  0  0  0  0  0  0  0  0  0  0
  139.8333   72.5903  221.8833 H   0  0  0  0  0  0  0  0  0  0  0  0
  141.6697   71.0602  221.2137 H   0  0  0  0  0  0  0  0  0  0  0  0
  144.0027   70.7814  220.4326 H   0  0  0  0  0  0  0  0  0  0  0  0
  146.4684   74.2698  219.7680 H   0  0  0  0  0  0  0  0  0  0  0  0
  144.5413   75.7225  220.4636 H   0  0  0  0  0  0  0  0  0  0  0  0
  1  2  2  0
  2  3  1  0
  3  4  1  0
  4  5  1  0
  5  6  2  0
  5  7  1  0
  7  8  1  0
  8  9  1  0
  9 10  1  0
 10 11  1  0
 11 12  1  0
 12 13  2  0
 13 14  1  0
 14 15  2  0
 15 16  1  0
 16 17  2  0
  2 18  1  0
 18 19  2  0
 19 20  1  0
 20 21  2  0
 21 22  1  0
 22 23  2  0
 23 24  1  0
 23 25  1  0
 25 26  2  0
 26 27  1  0
 27 28  2  0
 11  7  1  0
 17 12  1  0
 28 18  1  0
 27 21  1  0
  3 29  1  0
  4 30  1  0
  4 31  1  0
  8 32  1  0
  8 33  1  0
  9 34  1  0
  9 35  1  0
 10 36  1  0
 10 37  1  0
 11 38  1  6
 13 39  1  0
 14 40  1  0
 15 41  1  0
 16 42  1  0
 19 43  1  0
 20 44  1  0
 22 45  1  0
 25 46  1  0
 26 47  1  0
M  END
>  <smiles>  (82) 
O=C(NCC(=O)N1CCCC1c1ccccn1)c1ccc2cc(F)ccc2n1

>  <score_type>  (82) 
oracle

>  <origin>  (82) 
autodockgpu

>  <m_score__min__energy>  (82) 
-8.5999999999999996

>  <m_primary>  (82) 
energy

>  <rmsd>  (82) 
6.071391354651645

>  <m_score__min__rmsd>  (82) 
6.071391354651645

>  <meeko>  (82) 
{"free_energy": -6.86, "intermolecular_energy": -8.35, "internal_energy": -2.79, "cluster_size": 11, "cluster_id": 6, "rank_in_cluster": 6}

>  <energy>  (82) 
-7.83

>  <cluster_rmsd>  (82) 
0.84

>  <cluster>  (82) 
2

$$$$

     RDKit          3D

 47 50  0  0  0  0  0  0  0  0999 V2000
  141.2490   72.4610  221.7680 O   0  0  0  0  0  0  0  0  0  0  0  0
  140.2460   72.4930  222.5300 C   0  0  0  0  0  0  0  0  0  0  0  0
  139.1740   73.4160  222.3550 N   0  0  0  0  0  0  0  0  0  0  0  0
  139.2930   74.3400  221.2330 C   0  0  0  0  0  0  0  0  0  0  0  0
  140.3090   75.3720  221.5310 C   0  0  0  0  0  0  0  0  0  0  0  0
  141.4650   75.1300  221.9430 O   0  0  0  0  0  0  0  0  0  0  0  0
  139.9630   76.7390  221.3410 N   0  0  0  0  0  0  0  0  0  0  0  0
  138.7150   77.4140  221.6930 C   0  0  0  0  0  0  0  0  0  0  0  0
  138.4350   78.3380  220.5130 C   0  0  0  0  0  0  0  0  0  0  0  0
  139.7860   78.5510  219.8670 C   0  0  0  0  0  0  0  0  0  0  0  0
  140.7800   77.8050  220.7420 C   0  0  1  0  0  0  0  0  0  0  0  0
  141.3310   78.7190  221.7900 C   0  0  0  0  0  0  0  0  0  0  0  0
  141.8140   79.9650  221.5320 C   0  0  0  0  0  0  0  0  0  0  0  0
  142.3100   80.7590  222.5590 C   0  0  0  0  0  0  0  0  0  0  0  0
  142.3080   80.2630  223.8470 C   0  0  0  0  0  0  0  0  0  0  0  0
  141.8180   79.0030  224.0990 C   0  0  0  0  0  0  0  0  0  0  0  0
  141.3360   78.2470  223.0700 N   0  0  0  0  0  0  0  0  0  0  0  0
  140.1490   71.5590  223.6460 C   0  0  0  0  0  0  0  0  0  0  0  0
  139.5520   70.3140  223.4640 C   0  0  0  0  0  0  0  0  0  0  0  0
  139.4510   69.4160  224.5090 C   0  0  0  0  0  0  0  0  0  0  0  0
  139.9510   69.7650  225.7450 C   0  0  0  0  0  0  0  0  0  0  0  0
  139.8840   68.9100  226.8410 C   0  0  0  0  0  0  0  0  0  0  0  0
  140.4020   69.3090  228.0620 C   0  0  0  0  0  0  0  0  0  0  0  0
  140.2960   68.4120  229.0870 F   0  0  0  0  0  0  0  0  0  0  0  0
  140.9970   70.5450  228.2500 C   0  0  0  0  0  0  0  0  0  0  0  0
  141.0630   71.3980  227.1510 C   0  0  0  0  0  0  0  0  0  0  0  0
  140.5480   71.0070  225.9280 C   0  0  0  0  0  0  0  0  0  0  0  0
  140.6200   71.8430  224.8750 N   0  0  0  0  0  0  0  0  0  0  0  0
  138.3670   73.4080  223.0070 H   0  0  0  0  0  0  0  0  0  0  0  0
  139.5930   73.7830  220.3331 H   0  0  0  0  0  0  0  0  0  0  0  0
  138.3220   74.8285  221.0640 H   0  0  0  0  0  0  0  0  0  0  0  0
  137.9006   76.6852  221.8180 H   0  0  0  0  0  0  0  0  0  0  0  0
  138.7892   77.9612  222.6444 H   0  0  0  0  0  0  0  0  0  0  0  0
  137.7369   77.8652  219.8066 H   0  0  0  0  0  0  0  0  0  0  0  0
  137.9678   79.2837  220.8251 H   0  0  0  0  0  0  0  0  0  0  0  0
  139.7918   78.1428  218.8456 H   0  0  0  0  0  0  0  0  0  0  0  0
  140.0353   79.6195  219.7880 H   0  0  0  0  0  0  0  0  0  0  0  0
  141.6493   77.4154  220.1919 H   0  0  0  0  0  0  0  0  0  0  0  0
  141.8117   80.3472  220.5006 H   0  0  0  0  0  0  0  0  0  0  0  0
  142.6980   81.7666  222.3488 H   0  0  0  0  0  0  0  0  0  0  0  0
  142.6987   80.8760  224.6726 H   0  0  0  0  0  0  0  0  0  0  0  0
  141.8145   78.6064  225.1250 H   0  0  0  0  0  0  0  0  0  0  0  0
  139.1555   70.0419  222.4747 H   0  0  0  0  0  0  0  0  0  0  0  0
  138.9775   68.4349  224.3565 H   0  0  0  0  0  0  0  0  0  0  0  0
  139.4200   67.9180  226.7377 H   0  0  0  0  0  0  0  0  0  0  0  0
  141.4017   70.8416  229.2289 H   0  0  0  0  0  0  0  0  0  0  0  0
  141.5278   72.3894  227.2562 H   0  0  0  0  0  0  0  0  0  0  0  0
  1  2  2  0
  2  3  1  0
  3  4  1  0
  4  5  1  0
  5  6  2  0
  5  7  1  0
  7  8  1  0
  8  9  1  0
  9 10  1  0
 10 11  1  0
 11 12  1  0
 12 13  2  0
 13 14  1  0
 14 15  2  0
 15 16  1  0
 16 17  2  0
  2 18  1  0
 18 19  2  0
 19 20  1  0
 20 21  2  0
 21 22  1  0
 22 23  2  0
 23 24  1  0
 23 25  1  0
 25 26  2  0
 26 27  1  0
 27 28  2  0
 11  7  1  0
 17 12  1  0
 28 18  1  0
 27 21  1  0
  3 29  1  0
  4 30  1  0
  4 31  1  0
  8 32  1  0
  8 33  1  0
  9 34  1  0
  9 35  1  0
 10 36  1  0
 10 37  1  0
 11 38  1  6
 13 39  1  0
 14 40  1  0
 15 41  1  0
 16 42  1  0
 19 43  1  0
 20 44  1  0
 22 45  1  0
 25 46  1  0
 26 47  1  0
M  END
>  <smiles>  (83) 
O=C(NCC(=O)N1CCCC1c1ccccn1)c1ccc2cc(F)ccc2n1

>  <score_type>  (83) 
oracle

>  <origin>  (83) 
autodockgpu

>  <m_score__min__energy>  (83) 
-8.5999999999999996

>  <m_primary>  (83) 
energy

>  <rmsd>  (83) 
2.1694376831458912

>  <m_score__min__rmsd>  (83) 
2.1694376831458912

>  <meeko>  (83) 
{"free_energy": -8.6, "intermolecular_energy": -10.09, "internal_energy": -1.2, "cluster_size": 24, "cluster_id": 1, "rank_in_cluster": 2}

>  <energy>  (83) 
-8.24

>  <cluster_rmsd>  (83) 
0.0

>  <cluster>  (83) 
3

$$$$

     RDKit          3D

 47 50  0  0  0  0  0  0  0  0999 V2000
  138.7840   74.8930  222.0380 O   0  0  0  0  0  0  0  0  0  0  0  0
  139.9600   75.3270  221.9230 C   0  0  0  0  0  0  0  0  0  0  0  0
  140.3030   76.6930  222.1490 N   0  0  0  0  0  0  0  0  0  0  0  0
  139.2090   77.5800  222.5280 C   0  0  0  0  0  0  0  0  0  0  0  0
  139.7450   78.8050  223.1600 C   0  0  0  0  0  0  0  0  0  0  0  0
  139.1960   79.4130  224.1060 O   0  0  0  0  0  0  0  0  0  0  0  0
  140.9680   79.3420  222.6690 N   0  0  0  0  0  0  0  0  0  0  0  0
  142.3220   79.1170  223.1710 C   0  0  0  0  0  0  0  0  0  0  0  0
  142.9870   80.4860  223.1000 C   0  0  0  0  0  0  0  0  0  0  0  0
  142.1930   81.2420  222.0580 C   0  0  0  0  0  0  0  0  0  0  0  0
  141.1640   80.2540  221.5330 C   0  0  1  0  0  0  0  0  0  0  0  0
  141.7070   79.5290  220.3420 C   0  0  0  0  0  0  0  0  0  0  0  0
  142.0940   80.1430  219.1910 C   0  0  0  0  0  0  0  0  0  0  0  0
  142.5900   79.4030  218.1250 C   0  0  0  0  0  0  0  0  0  0  0  0
  142.6840   78.0310  218.2510 C   0  0  0  0  0  0  0  0  0  0  0  0
  142.2900   77.4180  219.4180 C   0  0  0  0  0  0  0  0  0  0  0  0
  141.8070   78.1730  220.4480 N   0  0  0  0  0  0  0  0  0  0  0  0
  141.0380   74.4210  221.5420 C   0  0  0  0  0  0  0  0  0  0  0  0
  140.8280   73.0450  221.5520 C   0  0  0  0  0  0  0  0  0  0  0  0
  141.8360   72.1700  221.1950 C   0  0  0  0  0  0  0  0  0  0  0  0
  143.0630   72.6760  220.8250 C   0  0  0  0  0  0  0  0  0  0  0  0
  144.1230   71.8540  220.4530 C   0  0  0  0  0  0  0  0  0  0  0  0
  145.3370   72.4140  220.0900 C   0  0  0  0  0  0  0  0  0  0  0  0
  146.3260   71.5380  219.7380 F   0  0  0  0  0  0  0  0  0  0  0  0
  145.5530   73.7810  220.0770 C   0  0  0  0  0  0  0  0  0  0  0  0
  144.4900   74.6010  220.4490 C   0  0  0  0  0  0  0  0  0  0  0  0
  143.2750   74.0500  220.8140 C   0  0  0  0  0  0  0  0  0  0  0  0
  142.2570   74.8570  221.1710 N   0  0  0  0  0  0  0  0  0  0  0  0
  141.2850   77.0080  222.0420 H   0  0  0  0  0  0  0  0  0  0  0  0
  138.6354   77.8546  221.6305 H   0  0  0  0  0  0  0  0  0  0  0  0
  138.5558   77.0608  223.2447 H   0  0  0  0  0  0  0  0  0  0  0  0
  142.2965   78.7503  224.2078 H   0  0  0  0  0  0  0  0  0  0  0  0
  142.8638   78.3578  222.5878 H   0  0  0  0  0  0  0  0  0  0  0  0
  142.9333   80.9948  224.0738 H   0  0  0  0  0  0  0  0  0  0  0  0
  144.0545   80.4185  222.8433 H   0  0  0  0  0  0  0  0  0  0  0  0
  141.6944   82.1114  222.5112 H   0  0  0  0  0  0  0  0  0  0  0  0
  142.8378   81.6248  221.2532 H   0  0  0  0  0  0  0  0  0  0  0  0
  140.2270   80.7243  221.1999 H   0  0  0  0  0  0  0  0  0  0  0  0
  142.0133   81.2366  219.1037 H   0  0  0  0  0  0  0  0  0  0  0  0
  142.9027   79.9017  217.1958 H   0  0  0  0  0  0  0  0  0  0  0  0
  143.0741   77.4279  217.4179 H   0  0  0  0  0  0  0  0  0  0  0  0
  142.3637   76.3253  219.5207 H   0  0  0  0  0  0  0  0  0  0  0  0
  139.8456   72.6486  221.8483 H   0  0  0  0  0  0  0  0  0  0  0  0
  141.6613   71.0840  221.2060 H   0  0  0  0  0  0  0  0  0  0  0  0
  143.9969   70.7613  220.4473 H   0  0  0  0  0  0  0  0  0  0  0  0
  146.5256   74.2033  219.7845 H   0  0  0  0  0  0  0  0  0  0  0  0
  144.6178   75.6935  220.4525 H   0  0  0  0  0  0  0  0  0  0  0  0
  1  2  2  0
  2  3  1  0
  3  4  1  0
  4  5  1  0
  5  6  2  0
  5  7  1  0
  7  8  1  0
  8  9  1  0
  9 10  1  0
 10 11  1  0
 11 12  1  0
 12 13  2  0
 13 14  1  0
 14 15  2  0
 15 16  1  0
 16 17  2  0
  2 18  1  0
 18 19  2  0
 19 20  1  0
 20 21  2  0
 21 22  1  0
 22 23  2  0
 23 24  1  0
 23 25  1  0
 25 26  2  0
 26 27  1  0
 27 28  2  0
 11  7  1  0
 17 12  1  0
 28 18  1  0
 27 21  1  0
  3 29  1  0
  4 30  1  0
  4 31  1  0
  8 32  1  0
  8 33  1  0
  9 34  1  0
  9 35  1  0
 10 36  1  0
 10 37  1  0
 11 38  1  6
 13 39  1  0
 14 40  1  0
 15 41  1  0
 16 42  1  0
 19 43  1  0
 20 44  1  0
 22 45  1  0
 25 46  1  0
 26 47  1  0
M  END
>  <smiles>  (84) 
O=C(NCC(=O)N1CCCC1c1ccccn1)c1ccc2cc(F)ccc2n1

>  <score_type>  (84) 
oracle

>  <origin>  (84) 
autodockgpu

>  <m_score__min__energy>  (84) 
-8.5999999999999996

>  <m_primary>  (84) 
energy

>  <rmsd>  (84) 
6.108362190916468

>  <m_score__min__rmsd>  (84) 
6.108362190916468

>  <meeko>  (84) 
{"free_energy": -6.98, "intermolecular_energy": -8.47, "internal_energy": -2.74, "cluster_size": 11, "cluster_id": 6, "rank_in_cluster": 1}

>  <energy>  (84) 
-8.24

>  <cluster_rmsd>  (84) 
0.03

>  <cluster>  (84) 
3

$$$$

     RDKit          3D

 47 50  0  0  0  0  0  0  0  0999 V2000
  141.1060   71.9960  221.2960 O   0  0  0  0  0  0  0  0  0  0  0  0
  140.3920   72.3740  222.2620 C   0  0  0  0  0  0  0  0  0  0  0  0
  139.7070   73.6250  222.2710 N   0  0  0  0  0  0  0  0  0  0  0  0
  139.8720   74.4610  221.0880 C   0  0  0  0  0  0  0  0  0  0  0  0
  141.0680   75.3190  221.2360 C   0  0  0  0  0  0  0  0  0  0  0  0
  141.2900   76.0600  222.2190 O   0  0  0  0  0  0  0  0  0  0  0  0
  142.0410   75.3100  220.1980 N   0  0  0  0  0  0  0  0  0  0  0  0
  142.8320   76.4290  219.6890 C   0  0  0  0  0  0  0  0  0  0  0  0
  142.8450   76.2310  218.1780 C   0  0  0  0  0  0  0  0  0  0  0  0
  142.5700   74.7560  217.9850 C   0  0  0  0  0  0  0  0  0  0  0  0
  142.4850   74.1700  219.3840 C   0  0  1  0  0  0  0  0  0  0  0  0
  143.8310   73.6840  219.8210 C   0  0  0  0  0  0  0  0  0  0  0  0
  144.5400   74.2320  220.8460 C   0  0  0  0  0  0  0  0  0  0  0  0
  145.7860   73.7260  221.1960 C   0  0  0  0  0  0  0  0  0  0  0  0
  146.2960   72.6570  220.4870 C   0  0  0  0  0  0  0  0  0  0  0  0
  145.5720   72.1080  219.4530 C   0  0  0  0  0  0  0  0  0  0  0  0
  144.3520   72.6270  219.1330 N   0  0  0  0  0  0  0  0  0  0  0  0
  140.2420   71.5200  223.4350 C   0  0  0  0  0  0  0  0  0  0  0  0
  139.6230   70.2780  223.3190 C   0  0  0  0  0  0  0  0  0  0  0  0
  139.4710   69.4560  224.4180 C   0  0  0  0  0  0  0  0  0  0  0  0
  139.9420   69.8780  225.6430 C   0  0  0  0  0  0  0  0  0  0  0  0
  139.8230   69.1010  226.7910 C   0  0  0  0  0  0  0  0  0  0  0  0
  140.3130   69.5720  227.9990 C   0  0  0  0  0  0  0  0  0  0  0  0
  140.1570   68.7490  229.0780 F   0  0  0  0  0  0  0  0  0  0  0  0
  140.9290   70.8060  228.1220 C   0  0  0  0  0  0  0  0  0  0  0  0
  141.0470   71.5810  226.9700 C   0  0  0  0  0  0  0  0  0  0  0  0
  140.5600   71.1170  225.7610 C   0  0  0  0  0  0  0  0  0  0  0  0
  140.6820   71.8790  224.6560 N   0  0  0  0  0  0  0  0  0  0  0  0
  139.1300   73.8970  223.0880 H   0  0  0  0  0  0  0  0  0  0  0  0
  139.9916   73.8193  220.2026 H   0  0  0  0  0  0  0  0  0  0  0  0
  138.9833   75.0985  220.9702 H   0  0  0  0  0  0  0  0  0  0  0  0
  142.3622   77.3884  219.9514 H   0  0  0  0  0  0  0  0  0  0  0  0
  143.8453   76.4535  220.1164 H   0  0  0  0  0  0  0  0  0  0  0  0
  142.0620   76.8380  217.6999 H   0  0  0  0  0  0  0  0  0  0  0  0
  143.7980   76.5409  217.7245 H   0  0  0  0  0  0  0  0  0  0  0  0
  141.6208   74.6093  217.4489 H   0  0  0  0  0  0  0  0  0  0  0  0
  143.3553   74.2703  217.3872 H   0  0  0  0  0  0  0  0  0  0  0  0
  141.8097   73.3052  219.4614 H   0  0  0  0  0  0  0  0  0  0  0  0
  144.1223   75.0839  221.4027 H   0  0  0  0  0  0  0  0  0  0  0  0
  146.3568   74.1702  222.0248 H   0  0  0  0  0  0  0  0  0  0  0  0
  147.2813   72.2437  220.7484 H   0  0  0  0  0  0  0  0  0  0  0  0
  145.9754   71.2550  218.8876 H   0  0  0  0  0  0  0  0  0  0  0  0
  139.2500   69.9472  222.3384 H   0  0  0  0  0  0  0  0  0  0  0  0
  138.9802   68.4767  224.3173 H   0  0  0  0  0  0  0  0  0  0  0  0
  139.3405   68.1138  226.7400 H   0  0  0  0  0  0  0  0  0  0  0  0
  141.3102   71.1606  229.0910 H   0  0  0  0  0  0  0  0  0  0  0  0
  141.5303   72.5678  227.0222 H   0  0  0  0  0  0  0  0  0  0  0  0
  1  2  2  0
  2  3  1  0
  3  4  1  0
  4  5  1  0
  5  6  2  0
  5  7  1  0
  7  8  1  0
  8  9  1  0
  9 10  1  0
 10 11  1  0
 11 12  1  0
 12 13  2  0
 13 14  1  0
 14 15  2  0
 15 16  1  0
 16 17  2  0
  2 18  1  0
 18 19  2  0
 19 20  1  0
 20 21  2  0
 21 22  1  0
 22 23  2  0
 23 24  1  0
 23 25  1  0
 25 26  2  0
 26 27  1  0
 27 28  2  0
 11  7  1  0
 17 12  1  0
 28 18  1  0
 27 21  1  0
  3 29  1  0
  4 30  1  0
  4 31  1  0
  8 32  1  0
  8 33  1  0
  9 34  1  0
  9 35  1  0
 10 36  1  0
 10 37  1  0
 11 38  1  6
 13 39  1  0
 14 40  1  0
 15 41  1  0
 16 42  1  0
 19 43  1  0
 20 44  1  0
 22 45  1  0
 25 46  1  0
 26 47  1  0
M  END
>  <smiles>  (85) 
O=C(NCC(=O)N1CCCC1c1ccccn1)c1ccc2cc(F)ccc2n1

>  <score_type>  (85) 
oracle

>  <origin>  (85) 
autodockgpu

>  <m_score__min__energy>  (85) 
-8.5999999999999996

>  <m_primary>  (85) 
energy

>  <rmsd>  (85) 
4.370007466954674

>  <m_score__min__rmsd>  (85) 
4.370007466954674

>  <meeko>  (85) 
{"free_energy": -8.19, "intermolecular_energy": -9.69, "internal_energy": -1.48, "cluster_size": 8, "cluster_id": 2, "rank_in_cluster": 2}

>  <energy>  (85) 
-8.2

>  <cluster_rmsd>  (85) 
0.09

>  <cluster>  (85) 
3

$$$$

     RDKit          3D

 47 50  0  0  0  0  0  0  0  0999 V2000
  140.3040   71.7900  221.0470 O   0  0  0  0  0  0  0  0  0  0  0  0
  139.9560   72.2740  222.1560 C   0  0  0  0  0  0  0  0  0  0  0  0
  139.5170   73.6220  222.3060 N   0  0  0  0  0  0  0  0  0  0  0  0
  139.4870   74.4310  221.0930 C   0  0  0  0  0  0  0  0  0  0  0  0
  140.3820   75.5990  221.2400 C   0  0  0  0  0  0  0  0  0  0  0  0
  140.2410   76.4950  222.1030 O   0  0  0  0  0  0  0  0  0  0  0  0
  141.4820   75.7270  220.3480 N   0  0  0  0  0  0  0  0  0  0  0  0
  142.3210   76.8990  220.1070 C   0  0  0  0  0  0  0  0  0  0  0  0
  142.5340   76.9120  218.5980 C   0  0  0  0  0  0  0  0  0  0  0  0
  142.3030   75.4800  218.1680 C   0  0  0  0  0  0  0  0  0  0  0  0
  142.0410   74.7060  219.4490 C   0  0  1  0  0  0  0  0  0  0  0  0
  143.3230   74.1540  219.9880 C   0  0  0  0  0  0  0  0  0  0  0  0
  144.4620   74.8850  220.1360 C   0  0  0  0  0  0  0  0  0  0  0  0
  145.6170   74.3030  220.6450 C   0  0  0  0  0  0  0  0  0  0  0  0
  145.5920   72.9680  220.9970 C   0  0  0  0  0  0  0  0  0  0  0  0
  144.4370   72.2370  220.8440 C   0  0  0  0  0  0  0  0  0  0  0  0
  143.3190   72.8370  220.3420 N   0  0  0  0  0  0  0  0  0  0  0  0
  139.9950   71.4450  223.3560 C   0  0  0  0  0  0  0  0  0  0  0  0
  139.5460   70.1280  223.3090 C   0  0  0  0  0  0  0  0  0  0  0  0
  139.5740   69.3270  224.4340 C   0  0  0  0  0  0  0  0  0  0  0  0
  140.0550   69.8480  225.6160 C   0  0  0  0  0  0  0  0  0  0  0  0
  140.1130   69.0990  226.7880 C   0  0  0  0  0  0  0  0  0  0  0  0
  140.6050   69.6710  227.9500 C   0  0  0  0  0  0  0  0  0  0  0  0
  140.6280   68.8680  229.0560 F   0  0  0  0  0  0  0  0  0  0  0  0
  141.0530   70.9800  228.0050 C   0  0  0  0  0  0  0  0  0  0  0  0
  140.9940   71.7260  226.8300 C   0  0  0  0  0  0  0  0  0  0  0  0
  140.5040   71.1630  225.6660 C   0  0  0  0  0  0  0  0  0  0  0  0
  140.4540   71.8980  224.5380 N   0  0  0  0  0  0  0  0  0  0  0  0
  139.2400   73.9790  223.2390 H   0  0  0  0  0  0  0  0  0  0  0  0
  139.8212   73.8214  220.2405 H   0  0  0  0  0  0  0  0  0  0  0  0
  138.4595   74.7837  220.9203 H   0  0  0  0  0  0  0  0  0  0  0  0
  141.8109   77.8165  220.4356 H   0  0  0  0  0  0  0  0  0  0  0  0
  143.2692   76.8561  220.6629 H   0  0  0  0  0  0  0  0  0  0  0  0
  141.8138   77.5851  218.1099 H   0  0  0  0  0  0  0  0  0  0  0  0
  143.5349   77.2746  218.3210 H   0  0  0  0  0  0  0  0  0  0  0  0
  141.4342   75.4162  217.4963 H   0  0  0  0  0  0  0  0  0  0  0  0
  143.1655   75.0761  217.6175 H   0  0  0  0  0  0  0  0  0  0  0  0
  141.3706   73.8440  219.3164 H   0  0  0  0  0  0  0  0  0  0  0  0
  144.4682   75.9471  219.8498 H   0  0  0  0  0  0  0  0  0  0  0  0
  146.5357   74.8959  220.7654 H   0  0  0  0  0  0  0  0  0  0  0  0
  146.4964   72.4888  221.4000 H   0  0  0  0  0  0  0  0  0  0  0  0
  144.4147   71.1737  221.1250 H   0  0  0  0  0  0  0  0  0  0  0  0
  139.1634   69.7193  222.3621 H   0  0  0  0  0  0  0  0  0  0  0  0
  139.2173   68.2875  224.3872 H   0  0  0  0  0  0  0  0  0  0  0  0
  139.7686   68.0543  226.7915 H   0  0  0  0  0  0  0  0  0  0  0  0
  141.4399   71.4135  228.9390 H   0  0  0  0  0  0  0  0  0  0  0  0
  141.3397   72.7703  226.8282 H   0  0  0  0  0  0  0  0  0  0  0  0
  1  2  2  0
  2  3  1  0
  3  4  1  0
  4  5  1  0
  5  6  2  0
  5  7  1  0
  7  8  1  0
  8  9  1  0
  9 10  1  0
 10 11  1  0
 11 12  1  0
 12 13  2  0
 13 14  1  0
 14 15  2  0
 15 16  1  0
 16 17  2  0
  2 18  1  0
 18 19  2  0
 19 20  1  0
 20 21  2  0
 21 22  1  0
 22 23  2  0
 23 24  1  0
 23 25  1  0
 25 26  2  0
 26 27  1  0
 27 28  2  0
 11  7  1  0
 17 12  1  0
 28 18  1  0
 27 21  1  0
  3 29  1  0
  4 30  1  0
  4 31  1  0
  8 32  1  0
  8 33  1  0
  9 34  1  0
  9 35  1  0
 10 36  1  0
 10 37  1  0
 11 38  1  6
 13 39  1  0
 14 40  1  0
 15 41  1  0
 16 42  1  0
 19 43  1  0
 20 44  1  0
 22 45  1  0
 25 46  1  0
 26 47  1  0
M  END
>  <smiles>  (86) 
O=C(NCC(=O)N1CCCC1c1ccccn1)c1ccc2cc(F)ccc2n1

>  <score_type>  (86) 
oracle

>  <origin>  (86) 
autodockgpu

>  <m_score__min__energy>  (86) 
-8.5999999999999996

>  <m_primary>  (86) 
energy

>  <rmsd>  (86) 
3.950906070324255

>  <m_score__min__rmsd>  (86) 
3.950906070324255

>  <meeko>  (86) 
{"free_energy": -8.04, "intermolecular_energy": -9.53, "internal_energy": -1.47, "cluster_size": 8, "cluster_id": 2, "rank_in_cluster": 6}

>  <energy>  (86) 
-8.16

>  <cluster_rmsd>  (86) 
0.19

>  <cluster>  (86) 
3

$$$$

     RDKit          3D

 47 50  0  0  0  0  0  0  0  0999 V2000
  141.3960   72.3700  221.6190 O   0  0  0  0  0  0  0  0  0  0  0  0
  140.4610   72.5620  222.4400 C   0  0  0  0  0  0  0  0  0  0  0  0
  139.5710   73.6730  222.3510 N   0  0  0  0  0  0  0  0  0  0  0  0
  139.7970   74.5940  221.2430 C   0  0  0  0  0  0  0  0  0  0  0  0
  139.2710   75.9340  221.5830 C   0  0  0  0  0  0  0  0  0  0  0  0
  138.3150   76.1430  222.3620 O   0  0  0  0  0  0  0  0  0  0  0  0
  139.8850   77.0730  220.9900 N   0  0  0  0  0  0  0  0  0  0  0  0
  139.2450   78.1890  220.2980 C   0  0  0  0  0  0  0  0  0  0  0  0
  140.1530   78.4710  219.1070 C   0  0  0  0  0  0  0  0  0  0  0  0
  141.4980   77.9090  219.5120 C   0  0  0  0  0  0  0  0  0  0  0  0
  141.3170   77.4020  220.9330 C   0  0  1  0  0  0  0  0  0  0  0  0
  141.6660   78.4770  221.9120 C   0  0  0  0  0  0  0  0  0  0  0  0
  142.1700   79.6910  221.5580 C   0  0  0  0  0  0  0  0  0  0  0  0
  142.4710   80.6430  222.5260 C   0  0  0  0  0  0  0  0  0  0  0  0
  142.2510   80.3370  223.8530 C   0  0  0  0  0  0  0  0  0  0  0  0
  141.7410   79.1080  224.2020 C   0  0  0  0  0  0  0  0  0  0  0  0
  141.4550   78.1950  223.2300 N   0  0  0  0  0  0  0  0  0  0  0  0
  140.2540   71.6260  223.5400 C   0  0  0  0  0  0  0  0  0  0  0  0
  139.5790   70.4280  223.3200 C   0  0  0  0  0  0  0  0  0  0  0  0
  139.3740   69.5300  224.3490 C   0  0  0  0  0  0  0  0  0  0  0  0
  139.8470   69.8310  225.6080 C   0  0  0  0  0  0  0  0  0  0  0  0
  139.6760   68.9730  226.6900 C   0  0  0  0  0  0  0  0  0  0  0  0
  140.1710   69.3230  227.9350 C   0  0  0  0  0  0  0  0  0  0  0  0
  139.9610   68.4260  228.9440 F   0  0  0  0  0  0  0  0  0  0  0  0
  140.8420   70.5130  228.1620 C   0  0  0  0  0  0  0  0  0  0  0  0
  141.0120   71.3690  227.0760 C   0  0  0  0  0  0  0  0  0  0  0  0
  140.5210   71.0260  225.8300 C   0  0  0  0  0  0  0  0  0  0  0  0
  140.6930   71.8660  224.7910 N   0  0  0  0  0  0  0  0  0  0  0  0
  138.8150   73.7920  223.0500 H   0  0  0  0  0  0  0  0  0  0  0  0
  140.8764   74.6662  221.0439 H   0  0  0  0  0  0  0  0  0  0  0  0
  139.2769   74.2182  220.3496 H   0  0  0  0  0  0  0  0  0  0  0  0
  138.2361   77.9098  219.9602 H   0  0  0  0  0  0  0  0  0  0  0  0
  139.1217   79.0683  220.9473 H   0  0  0  0  0  0  0  0  0  0  0  0
  139.7773   77.9671  218.2042 H   0  0  0  0  0  0  0  0  0  0  0  0
  140.2040   79.5430  218.8656 H   0  0  0  0  0  0  0  0  0  0  0  0
  141.7867   77.0843  218.8438 H   0  0  0  0  0  0  0  0  0  0  0  0
  142.2923   78.6673  219.4481 H   0  0  0  0  0  0  0  0  0  0  0  0
  141.9596   76.5449  221.1829 H   0  0  0  0  0  0  0  0  0  0  0  0
  142.3408   79.9212  220.4960 H   0  0  0  0  0  0  0  0  0  0  0  0
  142.8777   81.6237  222.2383 H   0  0  0  0  0  0  0  0  0  0  0  0
  142.4837   81.0767  224.6331 H   0  0  0  0  0  0  0  0  0  0  0  0
  141.5647   78.8628  225.2597 H   0  0  0  0  0  0  0  0  0  0  0  0
  139.2039   70.1937  222.3128 H   0  0  0  0  0  0  0  0  0  0  0  0
  138.8397   68.5860  224.1660 H   0  0  0  0  0  0  0  0  0  0  0  0
  139.1479   68.0173  226.5565 H   0  0  0  0  0  0  0  0  0  0  0  0
  141.2254   70.7720  229.1599 H   0  0  0  0  0  0  0  0  0  0  0  0
  141.5405   72.3243  227.2109 H   0  0  0  0  0  0  0  0  0  0  0  0
  1  2  2  0
  2  3  1  0
  3  4  1  0
  4  5  1  0
  5  6  2  0
  5  7  1  0
  7  8  1  0
  8  9  1  0
  9 10  1  0
 10 11  1  0
 11 12  1  0
 12 13  2  0
 13 14  1  0
 14 15  2  0
 15 16  1  0
 16 17  2  0
  2 18  1  0
 18 19  2  0
 19 20  1  0
 20 21  2  0
 21 22  1  0
 22 23  2  0
 23 24  1  0
 23 25  1  0
 25 26  2  0
 26 27  1  0
 27 28  2  0
 11  7  1  0
 17 12  1  0
 28 18  1  0
 27 21  1  0
  3 29  1  0
  4 30  1  0
  4 31  1  0
  8 32  1  0
  8 33  1  0
  9 34  1  0
  9 35  1  0
 10 36  1  0
 10 37  1  0
 11 38  1  1
 13 39  1  0
 14 40  1  0
 15 41  1  0
 16 42  1  0
 19 43  1  0
 20 44  1  0
 22 45  1  0
 25 46  1  0
 26 47  1  0
M  END
>  <smiles>  (87) 
O=C(NCC(=O)N1CCCC1c1ccccn1)c1ccc2cc(F)ccc2n1

>  <score_type>  (87) 
oracle

>  <origin>  (87) 
autodockgpu

>  <m_score__min__energy>  (87) 
-8.5999999999999996

>  <m_primary>  (87) 
energy

>  <rmsd>  (87) 
2.1371859184276296

>  <m_score__min__rmsd>  (87) 
2.1371859184276296

>  <meeko>  (87) 
{"free_energy": -8.41, "intermolecular_energy": -9.9, "internal_energy": -1.48, "cluster_size": 24, "cluster_id": 1, "rank_in_cluster": 13}

>  <energy>  (87) 
-8.04

>  <cluster_rmsd>  (87) 
0.0

>  <cluster>  (87) 
4

$$$$

     RDKit          3D

 47 50  0  0  0  0  0  0  0  0999 V2000
  140.9790   72.2490  221.3030 O   0  0  0  0  0  0  0  0  0  0  0  0
  140.1980   72.5140  222.2550 C   0  0  0  0  0  0  0  0  0  0  0  0
  139.3730   73.6770  222.2750 N   0  0  0  0  0  0  0  0  0  0  0  0
  139.4770   74.5630  221.1210 C   0  0  0  0  0  0  0  0  0  0  0  0
  140.7280   75.3470  221.1950 C   0  0  0  0  0  0  0  0  0  0  0  0
  141.8270   74.8930  221.5860 O   0  0  0  0  0  0  0  0  0  0  0  0
  140.6970   76.7120  220.7960 N   0  0  0  0  0  0  0  0  0  0  0  0
  139.5450   77.5050  220.3700 C   0  0  0  0  0  0  0  0  0  0  0  0
  140.0650   78.3360  219.2030 C   0  0  0  0  0  0  0  0  0  0  0  0
  141.5620   78.3920  219.4120 C   0  0  0  0  0  0  0  0  0  0  0  0
  141.8190   77.6580  220.7180 C   0  0  1  0  0  0  0  0  0  0  0  0
  141.7980   78.6210  221.8620 C   0  0  0  0  0  0  0  0  0  0  0  0
  141.4680   78.2780  223.1370 C   0  0  0  0  0  0  0  0  0  0  0  0
  141.4720   79.2280  224.1510 C   0  0  0  0  0  0  0  0  0  0  0  0
  141.8140   80.5300  223.8450 C   0  0  0  0  0  0  0  0  0  0  0  0
  142.1460   80.8690  222.5530 C   0  0  0  0  0  0  0  0  0  0  0  0
  142.1340   79.9130  221.5800 N   0  0  0  0  0  0  0  0  0  0  0  0
  140.1110   71.6120  223.3990 C   0  0  0  0  0  0  0  0  0  0  0  0
  139.5000   70.3690  223.2620 C   0  0  0  0  0  0  0  0  0  0  0  0
  139.4080   69.5020  224.3330 C   0  0  0  0  0  0  0  0  0  0  0  0
  139.9320   69.8800  225.5500 C   0  0  0  0  0  0  0  0  0  0  0  0
  139.8750   69.0570  226.6710 C   0  0  0  0  0  0  0  0  0  0  0  0
  140.4170   69.4860  227.8720 C   0  0  0  0  0  0  0  0  0  0  0  0
  140.3200   68.6190  228.9240 F   0  0  0  0  0  0  0  0  0  0  0  0
  141.0270   70.7210  228.0150 C   0  0  0  0  0  0  0  0  0  0  0  0
  141.0820   71.5420  226.8910 C   0  0  0  0  0  0  0  0  0  0  0  0
  140.5430   71.1210  225.6890 C   0  0  0  0  0  0  0  0  0  0  0  0
  140.6050   71.9270  224.6110 N   0  0  0  0  0  0  0  0  0  0  0  0
  138.7440   73.8560  223.0800 H   0  0  0  0  0  0  0  0  0  0  0  0
  139.4779   73.9621  220.1996 H   0  0  0  0  0  0  0  0  0  0  0  0
  138.6195   75.2520  221.1170 H   0  0  0  0  0  0  0  0  0  0  0  0
  138.7216   76.8516  220.0458 H   0  0  0  0  0  0  0  0  0  0  0  0
  139.1432   78.1290  221.1819 H   0  0  0  0  0  0  0  0  0  0  0  0
  139.8245   77.8528  218.2445 H   0  0  0  0  0  0  0  0  0  0  0  0
  139.6108   79.3372  219.1686 H   0  0  0  0  0  0  0  0  0  0  0  0
  142.0847   77.8939  218.5821 H   0  0  0  0  0  0  0  0  0  0  0  0
  141.9300   79.4280  219.4476 H   0  0  0  0  0  0  0  0  0  0  0  0
  142.7980   77.1583  220.7606 H   0  0  0  0  0  0  0  0  0  0  0  0
  141.1952   77.2375  223.3673 H   0  0  0  0  0  0  0  0  0  0  0  0
  141.2069   78.9471  225.1810 H   0  0  0  0  0  0  0  0  0  0  0  0
  141.8212   81.2966  224.6338 H   0  0  0  0  0  0  0  0  0  0  0  0
  142.4196   81.9055  222.3063 H   0  0  0  0  0  0  0  0  0  0  0  0
  139.0847   70.0732  222.2873 H   0  0  0  0  0  0  0  0  0  0  0  0
  138.9225   68.5219  224.2160 H   0  0  0  0  0  0  0  0  0  0  0  0
  139.4002   68.0670  226.6037 H   0  0  0  0  0  0  0  0  0  0  0  0
  141.4513   71.0410  228.9781 H   0  0  0  0  0  0  0  0  0  0  0  0
  141.5573   72.5316  226.9599 H   0  0  0  0  0  0  0  0  0  0  0  0
  1  2  2  0
  2  3  1  0
  3  4  1  0
  4  5  1  0
  5  6  2  0
  5  7  1  0
  7  8  1  0
  8  9  1  0
  9 10  1  0
 10 11  1  0
 11 12  1  0
 12 13  2  0
 13 14  1  0
 14 15  2  0
 15 16  1  0
 16 17  2  0
  2 18  1  0
 18 19  2  0
 19 20  1  0
 20 21  2  0
 21 22  1  0
 22 23  2  0
 23 24  1  0
 23 25  1  0
 25 26  2  0
 26 27  1  0
 27 28  2  0
 11  7  1  0
 17 12  1  0
 28 18  1  0
 27 21  1  0
  3 29  1  0
  4 30  1  0
  4 31  1  0
  8 32  1  0
  8 33  1  0
  9 34  1  0
  9 35  1  0
 10 36  1  0
 10 37  1  0
 11 38  1  6
 13 39  1  0
 14 40  1  0
 15 41  1  0
 16 42  1  0
 19 43  1  0
 20 44  1  0
 22 45  1  0
 25 46  1  0
 26 47  1  0
M  END
>  <smiles>  (88) 
O=C(NCC(=O)N1CCCC1c1ccccn1)c1ccc2cc(F)ccc2n1

>  <score_type>  (88) 
oracle

>  <origin>  (88) 
autodockgpu

>  <m_score__min__energy>  (88) 
-8.5999999999999996

>  <m_primary>  (88) 
energy

>  <rmsd>  (88) 
2.4159840676268245

>  <m_score__min__rmsd>  (88) 
2.4159840676268245

>  <meeko>  (88) 
{"free_energy": -8.42, "intermolecular_energy": -9.91, "internal_energy": -1.25, "cluster_size": 24, "cluster_id": 1, "rank_in_cluster": 11}

>  <energy>  (88) 
-7.4

>  <cluster_rmsd>  (88) 
0.72

>  <cluster>  (88) 
4

$$$$

     RDKit          3D

 47 50  0  0  0  0  0  0  0  0999 V2000
  139.8880   73.6840  222.3530 O   0  0  0  0  0  0  0  0  0  0  0  0
  140.4340   72.5510  222.2910 C   0  0  0  0  0  0  0  0  0  0  0  0
  141.2140   72.1310  221.1730 N   0  0  0  0  0  0  0  0  0  0  0  0
  141.3540   73.0920  220.0850 C   0  0  0  0  0  0  0  0  0  0  0  0
  142.5690   73.9120  220.2860 C   0  0  0  0  0  0  0  0  0  0  0  0
  142.5620   75.1380  220.5360 O   0  0  0  0  0  0  0  0  0  0  0  0
  143.8380   73.2770  220.1900 N   0  0  0  0  0  0  0  0  0  0  0  0
  144.8720   73.1610  221.2170 C   0  0  0  0  0  0  0  0  0  0  0  0
  146.1800   73.3950  220.4700 C   0  0  0  0  0  0  0  0  0  0  0  0
  145.8610   73.0590  219.0300 C   0  0  0  0  0  0  0  0  0  0  0  0
  144.4180   72.5830  219.0310 C   0  0  1  0  0  0  0  0  0  0  0  0
  144.3660   71.0980  219.2070 C   0  0  0  0  0  0  0  0  0  0  0  0
  145.4240   70.2710  218.9880 C   0  0  0  0  0  0  0  0  0  0  0  0
  145.3010   68.8990  219.1730 C   0  0  0  0  0  0  0  0  0  0  0  0
  144.0860   68.3870  219.5810 C   0  0  0  0  0  0  0  0  0  0  0  0
  143.0210   69.2310  219.8000 C   0  0  0  0  0  0  0  0  0  0  0  0
  143.1730   70.5730  219.6100 N   0  0  0  0  0  0  0  0  0  0  0  0
  140.2800   71.6060  223.3920 C   0  0  0  0  0  0  0  0  0  0  0  0
  139.6770   70.3700  223.1710 C   0  0  0  0  0  0  0  0  0  0  0  0
  139.5220   69.4630  224.2000 C   0  0  0  0  0  0  0  0  0  0  0  0
  139.9720   69.7930  225.4600 C   0  0  0  0  0  0  0  0  0  0  0  0
  139.8490   68.9270  226.5430 C   0  0  0  0  0  0  0  0  0  0  0  0
  140.3180   69.3080  227.7890 C   0  0  0  0  0  0  0  0  0  0  0  0
  140.1580   68.4010  228.7990 F   0  0  0  0  0  0  0  0  0  0  0  0
  140.9180   70.5350  228.0170 C   0  0  0  0  0  0  0  0  0  0  0  0
  141.0400   71.3990  226.9310 C   0  0  0  0  0  0  0  0  0  0  0  0
  140.5740   71.0260  225.6830 C   0  0  0  0  0  0  0  0  0  0  0  0
  140.7000   71.8730  224.6430 N   0  0  0  0  0  0  0  0  0  0  0  0
  141.6450   71.1880  221.1640 H   0  0  0  0  0  0  0  0  0  0  0  0
  141.4332   72.5518  219.1300 H   0  0  0  0  0  0  0  0  0  0  0  0
  140.4730   73.7505  220.0698 H   0  0  0  0  0  0  0  0  0  0  0  0
  144.7298   73.9210  221.9994 H   0  0  0  0  0  0  0  0  0  0  0  0
  144.8492   72.1856  221.7251 H   0  0  0  0  0  0  0  0  0  0  0  0
  146.4982   74.4439  220.5629 H   0  0  0  0  0  0  0  0  0  0  0  0
  147.0036   72.7845  220.8687 H   0  0  0  0  0  0  0  0  0  0  0  0
  145.9709   73.9501  218.3945 H   0  0  0  0  0  0  0  0  0  0  0  0
  146.5418   72.2929  218.6306 H   0  0  0  0  0  0  0  0  0  0  0  0
  143.8803   72.7970  218.0956 H   0  0  0  0  0  0  0  0  0  0  0  0
  146.3861   70.6924  218.6613 H   0  0  0  0  0  0  0  0  0  0  0  0
  146.1580   68.2322  218.9971 H   0  0  0  0  0  0  0  0  0  0  0  0
  143.9687   67.3036  219.7312 H   0  0  0  0  0  0  0  0  0  0  0  0
  142.0522   68.8252  220.1266 H   0  0  0  0  0  0  0  0  0  0  0  0
  139.3195   70.1132  222.1629 H   0  0  0  0  0  0  0  0  0  0  0  0
  139.0452   68.4889  224.0165 H   0  0  0  0  0  0  0  0  0  0  0  0
  139.3798   67.9411  226.4091 H   0  0  0  0  0  0  0  0  0  0  0  0
  141.2836   70.8162  229.0156 H   0  0  0  0  0  0  0  0  0  0  0  0
  141.5099   72.3843  227.0667 H   0  0  0  0  0  0  0  0  0  0  0  0
  1  2  2  0
  2  3  1  0
  3  4  1  0
  4  5  1  0
  5  6  2  0
  5  7  1  0
  7  8  1  0
  8  9  1  0
  9 10  1  0
 10 11  1  0
 11 12  1  0
 12 13  2  0
 13 14  1  0
 14 15  2  0
 15 16  1  0
 16 17  2  0
  2 18  1  0
 18 19  2  0
 19 20  1  0
 20 21  2  0
 21 22  1  0
 22 23  2  0
 23 24  1  0
 23 25  1  0
 25 26  2  0
 26 27  1  0
 27 28  2  0
 11  7  1  0
 17 12  1  0
 28 18  1  0
 27 21  1  0
  3 29  1  0
  4 30  1  0
  4 31  1  0
  8 32  1  0
  8 33  1  0
  9 34  1  0
  9 35  1  0
 10 36  1  0
 10 37  1  0
 11 38  1  6
 13 39  1  0
 14 40  1  0
 15 41  1  0
 16 42  1  0
 19 43  1  0
 20 44  1  0
 22 45  1  0
 25 46  1  0
 26 47  1  0
M  END
>  <smiles>  (89) 
O=C(NCC(=O)N1CCCC1c1ccccn1)c1ccc2cc(F)ccc2n1

>  <score_type>  (89) 
oracle

>  <origin>  (89) 
autodockgpu

>  <m_score__min__energy>  (89) 
-8.5999999999999996

>  <m_primary>  (89) 
energy

>  <rmsd>  (89) 
6.321666538494496

>  <m_score__min__rmsd>  (89) 
6.321666538494496

>  <meeko>  (89) 
{"free_energy": -7.4, "intermolecular_energy": -8.89, "internal_energy": -2.1, "cluster_size": 2, "cluster_id": 4, "rank_in_cluster": 2}

>  <energy>  (89) 
-7.55

>  <cluster_rmsd>  (89) 
0.0

>  <cluster>  (89) 
5

$$$$

     RDKit          3D

 47 50  0  0  0  0  0  0  0  0999 V2000
  140.3010   71.8840  221.0180 O   0  0  0  0  0  0  0  0  0  0  0  0
  139.9530   72.3480  222.1360 C   0  0  0  0  0  0  0  0  0  0  0  0
  139.5190   73.6950  222.3110 N   0  0  0  0  0  0  0  0  0  0  0  0
  139.4950   74.5270  221.1140 C   0  0  0  0  0  0  0  0  0  0  0  0
  140.4390   75.6560  221.2620 C   0  0  0  0  0  0  0  0  0  0  0  0
  140.3230   76.5700  222.1080 O   0  0  0  0  0  0  0  0  0  0  0  0
  141.5610   75.7200  220.3890 N   0  0  0  0  0  0  0  0  0  0  0  0
  142.4590   76.8480  220.1500 C   0  0  0  0  0  0  0  0  0  0  0  0
  142.7010   76.8300  218.6450 C   0  0  0  0  0  0  0  0  0  0  0  0
  142.4110   75.4050  218.2300 C   0  0  0  0  0  0  0  0  0  0  0  0
  142.0890   74.6620  219.5160 C   0  0  1  0  0  0  0  0  0  0  0  0
  143.3330   74.0580  220.0870 C   0  0  0  0  0  0  0  0  0  0  0  0
  143.4300   72.7640  220.4960 C   0  0  0  0  0  0  0  0  0  0  0  0
  144.6210   72.2720  221.0160 C   0  0  0  0  0  0  0  0  0  0  0  0
  145.7070   73.1190  221.1130 C   0  0  0  0  0  0  0  0  0  0  0  0
  145.6000   74.4260  220.6980 C   0  0  0  0  0  0  0  0  0  0  0  0
  144.4180   74.8790  220.1900 N   0  0  0  0  0  0  0  0  0  0  0  0
  139.9860   71.4960  223.3200 C   0  0  0  0  0  0  0  0  0  0  0  0
  139.5350   70.1810  223.2450 C   0  0  0  0  0  0  0  0  0  0  0  0
  139.5580   69.3590  224.3550 C   0  0  0  0  0  0  0  0  0  0  0  0
  140.0350   69.8560  225.5490 C   0  0  0  0  0  0  0  0  0  0  0  0
  140.0870   69.0840  226.7060 C   0  0  0  0  0  0  0  0  0  0  0  0
  140.5750   69.6320  227.8810 C   0  0  0  0  0  0  0  0  0  0  0  0
  140.5920   68.8090  228.9720 F   0  0  0  0  0  0  0  0  0  0  0  0
  141.0240   70.9390  227.9630 C   0  0  0  0  0  0  0  0  0  0  0  0
  140.9710   71.7090  226.8020 C   0  0  0  0  0  0  0  0  0  0  0  0
  140.4850   71.1690  225.6260 C   0  0  0  0  0  0  0  0  0  0  0  0
  140.4400   71.9260  224.5120 N   0  0  0  0  0  0  0  0  0  0  0  0
  139.2420   74.0350  223.2500 H   0  0  0  0  0  0  0  0  0  0  0  0
  139.7861   73.9208  220.2435 H   0  0  0  0  0  0  0  0  0  0  0  0
  138.4789   74.9232  220.9707 H   0  0  0  0  0  0  0  0  0  0  0  0
  141.9867   77.7929  220.4567 H   0  0  0  0  0  0  0  0  0  0  0  0
  143.3933   76.7684  220.7252 H   0  0  0  0  0  0  0  0  0  0  0  0
  142.0227   77.5291  218.1341 H   0  0  0  0  0  0  0  0  0  0  0  0
  143.7228   77.1416  218.3827 H   0  0  0  0  0  0  0  0  0  0  0  0
  141.5528   75.3724  217.5426 H   0  0  0  0  0  0  0  0  0  0  0  0
  143.2637   74.9535  217.7018 H   0  0  0  0  0  0  0  0  0  0  0  0
  141.3820   73.8300  219.3823 H   0  0  0  0  0  0  0  0  0  0  0  0
  142.5565   72.1004  220.4142 H   0  0  0  0  0  0  0  0  0  0  0  0
  144.6973   71.2251  221.3449 H   0  0  0  0  0  0  0  0  0  0  0  0
  146.6583   72.7484  221.5224 H   0  0  0  0  0  0  0  0  0  0  0  0
  146.4637   75.1028  220.7754 H   0  0  0  0  0  0  0  0  0  0  0  0
  139.1553   69.7913  222.2890 H   0  0  0  0  0  0  0  0  0  0  0  0
  139.2002   68.3210  224.2869 H   0  0  0  0  0  0  0  0  0  0  0  0
  139.7410   68.0400  226.6874 H   0  0  0  0  0  0  0  0  0  0  0  0
  141.4075   71.3536  228.9070 H   0  0  0  0  0  0  0  0  0  0  0  0
  141.3180   72.7526  226.8219 H   0  0  0  0  0  0  0  0  0  0  0  0
  1  2  2  0
  2  3  1  0
  3  4  1  0
  4  5  1  0
  5  6  2  0
  5  7  1  0
  7  8  1  0
  8  9  1  0
  9 10  1  0
 10 11  1  0
 11 12  1  0
 12 13  2  0
 13 14  1  0
 14 15  2  0
 15 16  1  0
 16 17  2  0
  2 18  1  0
 18 19  2  0
 19 20  1  0
 20 21  2  0
 21 22  1  0
 22 23  2  0
 23 24  1  0
 23 25  1  0
 25 26  2  0
 26 27  1  0
 27 28  2  0
 11  7  1  0
 17 12  1  0
 28 18  1  0
 27 21  1  0
  3 29  1  0
  4 30  1  0
  4 31  1  0
  8 32  1  0
  8 33  1  0
  9 34  1  0
  9 35  1  0
 10 36  1  0
 10 37  1  0
 11 38  1  6
 13 39  1  0
 14 40  1  0
 15 41  1  0
 16 42  1  0
 19 43  1  0
 20 44  1  0
 22 45  1  0
 25 46  1  0
 26 47  1  0
M  END
>  <smiles>  (90) 
O=C(NCC(=O)N1CCCC1c1ccccn1)c1ccc2cc(F)ccc2n1

>  <score_type>  (90) 
oracle

>  <origin>  (90) 
autodockgpu

>  <m_score__min__energy>  (90) 
-8.5999999999999996

>  <m_primary>  (90) 
energy

>  <rmsd>  (90) 
4.24004582799226

>  <m_score__min__rmsd>  (90) 
4.24004582799226

>  <meeko>  (90) 
{"free_energy": -7.83, "intermolecular_energy": -9.32, "internal_energy": -1.61, "cluster_size": 8, "cluster_id": 2, "rank_in_cluster": 8}

>  <energy>  (90) 
-6.98

>  <cluster_rmsd>  (90) 
0.0

>  <cluster>  (90) 
6

$$$$

     RDKit          3D

 47 50  0  0  0  0  0  0  0  0999 V2000
  140.4150   71.9640  221.0100 O   0  0  0  0  0  0  0  0  0  0  0  0
  140.0340   72.3960  222.1300 C   0  0  0  0  0  0  0  0  0  0  0  0
  139.6370   73.7490  222.3400 N   0  0  0  0  0  0  0  0  0  0  0  0
  139.6920   74.6270  221.1770 C   0  0  0  0  0  0  0  0  0  0  0  0
  139.3740   76.0160  221.5740 C   0  0  0  0  0  0  0  0  0  0  0  0
  138.5570   76.3270  222.4690 O   0  0  0  0  0  0  0  0  0  0  0  0
  140.0350   77.0810  220.9010 N   0  0  0  0  0  0  0  0  0  0  0  0
  139.4630   78.0670  219.9860 C   0  0  0  0  0  0  0  0  0  0  0  0
  140.5030   78.2100  218.8810 C   0  0  0  0  0  0  0  0  0  0  0  0
  141.7990   77.7580  219.5170 C   0  0  0  0  0  0  0  0  0  0  0  0
  141.4570   77.4480  220.9650 C   0  0  1  0  0  0  0  0  0  0  0  0
  141.6660   78.6610  221.8150 C   0  0  0  0  0  0  0  0  0  0  0  0
  141.7060   78.6370  223.1750 C   0  0  0  0  0  0  0  0  0  0  0  0
  141.9060   79.8070  223.8990 C   0  0  0  0  0  0  0  0  0  0  0  0
  142.0630   80.9960  223.2150 C   0  0  0  0  0  0  0  0  0  0  0  0
  142.0210   81.0110  221.8400 C   0  0  0  0  0  0  0  0  0  0  0  0
  141.8230   79.8460  221.1580 N   0  0  0  0  0  0  0  0  0  0  0  0
  139.9880   71.4990  223.2790 C   0  0  0  0  0  0  0  0  0  0  0  0
  139.5390   70.1900  223.1240 C   0  0  0  0  0  0  0  0  0  0  0  0
  139.4880   69.3250  224.2010 C   0  0  0  0  0  0  0  0  0  0  0  0
  139.8890   69.7730  225.4410 C   0  0  0  0  0  0  0  0  0  0  0  0
  139.8640   68.9570  226.5680 C   0  0  0  0  0  0  0  0  0  0  0  0
  140.2770   69.4560  227.7920 C   0  0  0  0  0  0  0  0  0  0  0  0
  140.2220   68.5910  228.8490 F   0  0  0  0  0  0  0  0  0  0  0  0
  140.7250   70.7560  227.9540 C   0  0  0  0  0  0  0  0  0  0  0  0
  140.7490   71.5700  226.8230 C   0  0  0  0  0  0  0  0  0  0  0  0
  140.3370   71.0790  225.5980 C   0  0  0  0  0  0  0  0  0  0  0  0
  140.3670   71.8790  224.5140 N   0  0  0  0  0  0  0  0  0  0  0  0
  139.3310   74.0620  223.2800 H   0  0  0  0  0  0  0  0  0  0  0  0
  140.7027   74.5946  220.7440 H   0  0  0  0  0  0  0  0  0  0  0  0
  138.9557   74.2871  220.4338 H   0  0  0  0  0  0  0  0  0  0  0  0
  138.5071   77.7088  219.5763 H   0  0  0  0  0  0  0  0  0  0  0  0
  139.2470   79.0239  220.4837 H   0  0  0  0  0  0  0  0  0  0  0  0
  140.2481   77.5712  218.0226 H   0  0  0  0  0  0  0  0  0  0  0  0
  140.5637   79.2384  218.4953 H   0  0  0  0  0  0  0  0  0  0  0  0
  142.1816   76.8589  219.0118 H   0  0  0  0  0  0  0  0  0  0  0  0
  142.5809   78.5278  219.4392 H   0  0  0  0  0  0  0  0  0  0  0  0
  142.0800   76.6568  221.4076 H   0  0  0  0  0  0  0  0  0  0  0  0
  141.5788   77.6825  223.7068 H   0  0  0  0  0  0  0  0  0  0  0  0
  141.9386   79.7857  224.9983 H   0  0  0  0  0  0  0  0  0  0  0  0
  142.2218   81.9323  223.7701 H   0  0  0  0  0  0  0  0  0  0  0  0
  142.1464   81.9573  221.2933 H   0  0  0  0  0  0  0  0  0  0  0  0
  139.2206   69.8396  222.1311 H   0  0  0  0  0  0  0  0  0  0  0  0
  139.1320   68.2925  224.0700 H   0  0  0  0  0  0  0  0  0  0  0  0
  139.5165   67.9165  226.4866 H   0  0  0  0  0  0  0  0  0  0  0  0
  141.0490   71.1313  228.9359 H   0  0  0  0  0  0  0  0  0  0  0  0
  141.0980   72.6099  226.9055 H   0  0  0  0  0  0  0  0  0  0  0  0
  1  2  2  0
  2  3  1  0
  3  4  1  0
  4  5  1  0
  5  6  2  0
  5  7  1  0
  7  8  1  0
  8  9  1  0
  9 10  1  0
 10 11  1  0
 11 12  1  0
 12 13  2  0
 13 14  1  0
 14 15  2  0
 15 16  1  0
 16 17  2  0
  2 18  1  0
 18 19  2  0
 19 20  1  0
 20 21  2  0
 21 22  1  0
 22 23  2  0
 23 24  1  0
 23 25  1  0
 25 26  2  0
 26 27  1  0
 27 28  2  0
 11  7  1  0
 17 12  1  0
 28 18  1  0
 27 21  1  0
  3 29  1  0
  4 30  1  0
  4 31  1  0
  8 32  1  0
  8 33  1  0
  9 34  1  0
  9 35  1  0
 10 36  1  0
 10 37  1  0
 11 38  1  1
 13 39  1  0
 14 40  1  0
 15 41  1  0
 16 42  1  0
 19 43  1  0
 20 44  1  0
 22 45  1  0
 25 46  1  0
 26 47  1  0
M  END
>  <smiles>  (91) 
O=C(NCC(=O)N1CCCC1c1ccccn1)c1ccc2cc(F)ccc2n1

>  <score_type>  (91) 
oracle

>  <origin>  (91) 
autodockgpu

>  <m_score__min__energy>  (91) 
-8.5999999999999996

>  <m_primary>  (91) 
energy

>  <rmsd>  (91) 
2.416689967933103

>  <m_score__min__rmsd>  (91) 
2.416689967933103

>  <meeko>  (91) 
{"free_energy": -8.15, "intermolecular_energy": -9.64, "internal_energy": -1.55, "cluster_size": 24, "cluster_id": 1, "rank_in_cluster": 20}

>  <energy>  (91) 
-6.97

>  <cluster_rmsd>  (91) 
0.04

>  <cluster>  (91) 
6

$$$$

     RDKit          3D

 47 50  0  0  0  0  0  0  0  0999 V2000
  141.0450   72.1140  221.2490 O   0  0  0  0  0  0  0  0  0  0  0  0
  140.3730   72.4790  222.2490 C   0  0  0  0  0  0  0  0  0  0  0  0
  139.7480   73.7580  222.3330 N   0  0  0  0  0  0  0  0  0  0  0  0
  139.9270   74.6410  221.1850 C   0  0  0  0  0  0  0  0  0  0  0  0
  139.5210   76.0190  221.5370 C   0  0  0  0  0  0  0  0  0  0  0  0
  138.6490   76.3050  222.3880 O   0  0  0  0  0  0  0  0  0  0  0  0
  140.1570   77.1040  220.8710 N   0  0  0  0  0  0  0  0  0  0  0  0
  139.5660   78.0740  219.9520 C   0  0  0  0  0  0  0  0  0  0  0  0
  140.6110   78.2480  218.8570 C   0  0  0  0  0  0  0  0  0  0  0  0
  141.9140   77.8320  219.5040 C   0  0  0  0  0  0  0  0  0  0  0  0
  141.5670   77.5110  220.9490 C   0  0  1  0  0  0  0  0  0  0  0  0
  141.7350   78.7280  221.8010 C   0  0  0  0  0  0  0  0  0  0  0  0
  141.7870   78.7010  223.1610 C   0  0  0  0  0  0  0  0  0  0  0  0
  141.9460   79.8760  223.8880 C   0  0  0  0  0  0  0  0  0  0  0  0
  142.0470   81.0720  223.2080 C   0  0  0  0  0  0  0  0  0  0  0  0
  141.9930   81.0910  221.8330 C   0  0  0  0  0  0  0  0  0  0  0  0
  141.8380   79.9210  221.1480 N   0  0  0  0  0  0  0  0  0  0  0  0
  140.2080   71.5790  223.3850 C   0  0  0  0  0  0  0  0  0  0  0  0
  139.6040   70.3370  223.2090 C   0  0  0  0  0  0  0  0  0  0  0  0
  139.4390   69.4700  224.2720 C   0  0  0  0  0  0  0  0  0  0  0  0
  139.8820   69.8490  225.5210 C   0  0  0  0  0  0  0  0  0  0  0  0
  139.7490   69.0270  226.6360 C   0  0  0  0  0  0  0  0  0  0  0  0
  140.2110   69.4560  227.8700 C   0  0  0  0  0  0  0  0  0  0  0  0
  140.0420   68.5890  228.9140 F   0  0  0  0  0  0  0  0  0  0  0  0
  140.8120   70.6890  228.0530 C   0  0  0  0  0  0  0  0  0  0  0  0
  140.9440   71.5090  226.9340 C   0  0  0  0  0  0  0  0  0  0  0  0
  140.4860   71.0890  225.6990 C   0  0  0  0  0  0  0  0  0  0  0  0
  140.6210   71.8940  224.6280 N   0  0  0  0  0  0  0  0  0  0  0  0
  139.2040   74.0190  223.1760 H   0  0  0  0  0  0  0  0  0  0  0  0
  140.9854   74.6386  220.8854 H   0  0  0  0  0  0  0  0  0  0  0  0
  139.3025   74.2824  220.3535 H   0  0  0  0  0  0  0  0  0  0  0  0
  138.6244   77.6892  219.5332 H   0  0  0  0  0  0  0  0  0  0  0  0
  139.3185   79.0238  220.4487 H   0  0  0  0  0  0  0  0  0  0  0  0
  140.3819   77.6035  217.9955 H   0  0  0  0  0  0  0  0  0  0  0  0
  140.6458   79.2783  218.4733 H   0  0  0  0  0  0  0  0  0  0  0  0
  142.3263   76.9445  219.0016 H   0  0  0  0  0  0  0  0  0  0  0  0
  142.6749   78.6232  219.4336 H   0  0  0  0  0  0  0  0  0  0  0  0
  142.2071   76.7370  221.3976 H   0  0  0  0  0  0  0  0  0  0  0  0
  141.7024   77.7404  223.6902 H   0  0  0  0  0  0  0  0  0  0  0  0
  141.9905   79.8520  224.9868 H   0  0  0  0  0  0  0  0  0  0  0  0
  142.1709   82.0120  223.7657 H   0  0  0  0  0  0  0  0  0  0  0  0
  142.0743   82.0438  221.2893 H   0  0  0  0  0  0  0  0  0  0  0  0
  139.2531   70.0417  222.2092 H   0  0  0  0  0  0  0  0  0  0  0  0
  138.9606   68.4907  224.1236 H   0  0  0  0  0  0  0  0  0  0  0  0
  139.2777   68.0379  226.5379 H   0  0  0  0  0  0  0  0  0  0  0  0
  141.1712   71.0091  229.0422 H   0  0  0  0  0  0  0  0  0  0  0  0
  141.4160   72.4975  227.0341 H   0  0  0  0  0  0  0  0  0  0  0  0
  1  2  2  0
  2  3  1  0
  3  4  1  0
  4  5  1  0
  5  6  2  0
  5  7  1  0
  7  8  1  0
  8  9  1  0
  9 10  1  0
 10 11  1  0
 11 12  1  0
 12 13  2  0
 13 14  1  0
 14 15  2  0
 15 16  1  0
 16 17  2  0
  2 18  1  0
 18 19  2  0
 19 20  1  0
 20 21  2  0
 21 22  1  0
 22 23  2  0
 23 24  1  0
 23 25  1  0
 25 26  2  0
 26 27  1  0
 27 28  2  0
 11  7  1  0
 17 12  1  0
 28 18  1  0
 27 21  1  0
  3 29  1  0
  4 30  1  0
  4 31  1  0
  8 32  1  0
  8 33  1  0
  9 34  1  0
  9 35  1  0
 10 36  1  0
 10 37  1  0
 11 38  1  1
 13 39  1  0
 14 40  1  0
 15 41  1  0
 16 42  1  0
 19 43  1  0
 20 44  1  0
 22 45  1  0
 25 46  1  0
 26 47  1  0
M  END
>  <smiles>  (92) 
O=C(NCC(=O)N1CCCC1c1ccccn1)c1ccc2cc(F)ccc2n1

>  <score_type>  (92) 
oracle

>  <origin>  (92) 
autodockgpu

>  <m_score__min__energy>  (92) 
-8.5999999999999996

>  <m_primary>  (92) 
energy

>  <rmsd>  (92) 
2.4702184878625277

>  <m_score__min__rmsd>  (92) 
2.4702184878625277

>  <meeko>  (92) 
{"free_energy": -8.29, "intermolecular_energy": -9.78, "internal_energy": -1.51, "cluster_size": 24, "cluster_id": 1, "rank_in_cluster": 18}

>  <energy>  (92) 
-6.95

>  <cluster_rmsd>  (92) 
0.11

>  <cluster>  (92) 
6

$$$$

     RDKit          3D

 47 50  0  0  0  0  0  0  0  0999 V2000
  135.0040   68.5410  225.4500 O   0  0  0  0  0  0  0  0  0  0  0  0
  135.1180   69.7270  225.0400 C   0  0  0  0  0  0  0  0  0  0  0  0
  135.9600   70.0880  223.9480 N   0  0  0  0  0  0  0  0  0  0  0  0
  136.6970   69.0020  223.3130 C   0  0  0  0  0  0  0  0  0  0  0  0
  138.0640   68.9200  223.8730 C   0  0  0  0  0  0  0  0  0  0  0  0
  138.6040   67.8650  224.2720 O   0  0  0  0  0  0  0  0  0  0  0  0
  138.8280   70.1160  223.9700 N   0  0  0  0  0  0  0  0  0  0  0  0
  138.3870   71.4930  223.7540 C   0  0  0  0  0  0  0  0  0  0  0  0
  139.5340   72.1460  222.9910 C   0  0  0  0  0  0  0  0  0  0  0  0
  140.7430   71.3010  223.3250 C   0  0  0  0  0  0  0  0  0  0  0  0
  140.2510   70.2550  224.3120 C   0  0  1  0  0  0  0  0  0  0  0  0
  140.4260   70.7480  225.7140 C   0  0  0  0  0  0  0  0  0  0  0  0
  141.1340   71.8640  226.0430 C   0  0  0  0  0  0  0  0  0  0  0  0
  141.2520   72.2620  227.3700 C   0  0  0  0  0  0  0  0  0  0  0  0
  140.6410   71.5060  228.3500 C   0  0  0  0  0  0  0  0  0  0  0  0
  139.9280   70.3800  228.0090 C   0  0  0  0  0  0  0  0  0  0  0  0
  139.8290   70.0150  226.6970 N   0  0  0  0  0  0  0  0  0  0  0  0
  134.3710   70.7970  225.6910 C   0  0  0  0  0  0  0  0  0  0  0  0
  133.3360   70.4900  226.5710 C   0  0  0  0  0  0  0  0  0  0  0  0
  132.6170   71.4900  227.1970 C   0  0  0  0  0  0  0  0  0  0  0  0
  132.9350   72.8060  226.9420 C   0  0  0  0  0  0  0  0  0  0  0  0
  132.2540   73.8630  227.5380 C   0  0  0  0  0  0  0  0  0  0  0  0
  132.6130   75.1690  227.2470 C   0  0  0  0  0  0  0  0  0  0  0  0
  131.8940   76.1490  227.8730 F   0  0  0  0  0  0  0  0  0  0  0  0
  133.6400   75.4820  226.3730 C   0  0  0  0  0  0  0  0  0  0  0  0
  134.3210   74.4220  225.7790 C   0  0  0  0  0  0  0  0  0  0  0  0
  133.9680   73.1150  226.0640 C   0  0  0  0  0  0  0  0  0  0  0  0
  134.6360   72.1010  225.4820 N   0  0  0  0  0  0  0  0  0  0  0  0
  136.0240   71.0780  223.6440 H   0  0  0  0  0  0  0  0  0  0  0  0
  136.1724   68.0521  223.4932 H   0  0  0  0  0  0  0  0  0  0  0  0
  136.7617   69.1945  222.2319 H   0  0  0  0  0  0  0  0  0  0  0  0
  137.4617   71.5162  223.1597 H   0  0  0  0  0  0  0  0  0  0  0  0
  138.1623   72.0130  224.6969 H   0  0  0  0  0  0  0  0  0  0  0  0
  139.3379   72.1329  221.9087 H   0  0  0  0  0  0  0  0  0  0  0  0
  139.6727   73.2014  223.2684 H   0  0  0  0  0  0  0  0  0  0  0  0
  141.1363   70.8183  222.4182 H   0  0  0  0  0  0  0  0  0  0  0  0
  141.5587   71.9066  223.7468 H   0  0  0  0  0  0  0  0  0  0  0  0
  140.7959   69.3011  224.2552 H   0  0  0  0  0  0  0  0  0  0  0  0
  141.6169   72.4559  225.2516 H   0  0  0  0  0  0  0  0  0  0  0  0
  141.8228   73.1644  227.6344 H   0  0  0  0  0  0  0  0  0  0  0  0
  140.7244   71.8044  229.4055 H   0  0  0  0  0  0  0  0  0  0  0  0
  139.4403   69.7770  228.7891 H   0  0  0  0  0  0  0  0  0  0  0  0
  133.0877   69.4371  226.7703 H   0  0  0  0  0  0  0  0  0  0  0  0
  131.8009   71.2386  227.8903 H   0  0  0  0  0  0  0  0  0  0  0  0
  131.4312   73.6617  228.2397 H   0  0  0  0  0  0  0  0  0  0  0  0
  133.9077   76.5267  226.1562 H   0  0  0  0  0  0  0  0  0  0  0  0
  135.1447   74.6254  225.0789 H   0  0  0  0  0  0  0  0  0  0  0  0
  1  2  2  0
  2  3  1  0
  3  4  1  0
  4  5  1  0
  5  6  2  0
  5  7  1  0
  7  8  1  0
  8  9  1  0
  9 10  1  0
 10 11  1  0
 11 12  1  0
 12 13  2  0
 13 14  1  0
 14 15  2  0
 15 16  1  0
 16 17  2  0
  2 18  1  0
 18 19  2  0
 19 20  1  0
 20 21  2  0
 21 22  1  0
 22 23  2  0
 23 24  1  0
 23 25  1  0
 25 26  2  0
 26 27  1  0
 27 28  2  0
 11  7  1  0
 17 12  1  0
 28 18  1  0
 27 21  1  0
  3 29  1  0
  4 30  1  0
  4 31  1  0
  8 32  1  0
  8 33  1  0
  9 34  1  0
  9 35  1  0
 10 36  1  0
 10 37  1  0
 11 38  1  1
 13 39  1  0
 14 40  1  0
 15 41  1  0
 16 42  1  0
 19 43  1  0
 20 44  1  0
 22 45  1  0
 25 46  1  0
 26 47  1  0
M  END
>  <smiles>  (93) 
O=C(NCC(=O)N1CCCC1c1ccccn1)c1ccc2cc(F)ccc2n1

>  <score_type>  (93) 
oracle

>  <origin>  (93) 
autodockgpu

>  <m_score__min__energy>  (93) 
-8.5999999999999996

>  <m_primary>  (93) 
energy

>  <rmsd>  (93) 
8.196036974518814

>  <m_score__min__rmsd>  (93) 
8.196036974518814

>  <meeko>  (93) 
{"free_energy": -7.55, "intermolecular_energy": -9.05, "internal_energy": -1.66, "cluster_size": 1, "cluster_id": 5, "rank_in_cluster": 1}

>  <energy>  (93) 
-6.89

>  <cluster_rmsd>  (93) 
0.15

>  <cluster>  (93) 
6

$$$$

     RDKit          3D

 47 50  0  0  0  0  0  0  0  0999 V2000
  141.3730   72.3040  221.6310 O   0  0  0  0  0  0  0  0  0  0  0  0
  140.4470   72.5240  222.4550 C   0  0  0  0  0  0  0  0  0  0  0  0
  139.5670   73.6410  222.3470 N   0  0  0  0  0  0  0  0  0  0  0  0
  139.7930   74.5340  221.2150 C   0  0  0  0  0  0  0  0  0  0  0  0
  139.3310   75.9000  221.5470 C   0  0  0  0  0  0  0  0  0  0  0  0
  138.3820   76.1580  222.3210 O   0  0  0  0  0  0  0  0  0  0  0  0
  140.0030   77.0040  220.9530 N   0  0  0  0  0  0  0  0  0  0  0  0
  139.4310   78.0930  220.1630 C   0  0  0  0  0  0  0  0  0  0  0  0
  140.4300   78.3120  219.0340 C   0  0  0  0  0  0  0  0  0  0  0  0
  141.7330   77.7570  219.5660 C   0  0  0  0  0  0  0  0  0  0  0  0
  141.4380   77.3170  220.9900 C   0  0  1  0  0  0  0  0  0  0  0  0
  141.7260   78.4330  221.9440 C   0  0  0  0  0  0  0  0  0  0  0  0
  142.2020   79.6510  221.5660 C   0  0  0  0  0  0  0  0  0  0  0  0
  142.4440   80.6420  222.5100 C   0  0  0  0  0  0  0  0  0  0  0  0
  142.1960   80.3710  223.8400 C   0  0  0  0  0  0  0  0  0  0  0  0
  141.7150   79.1370  224.2140 C   0  0  0  0  0  0  0  0  0  0  0  0
  141.4860   78.1850  223.2640 N   0  0  0  0  0  0  0  0  0  0  0  0
  140.2410   71.6180  223.5800 C   0  0  0  0  0  0  0  0  0  0  0  0
  139.5490   70.4240  223.3950 C   0  0  0  0  0  0  0  0  0  0  0  0
  139.3430   69.5530  224.4460 C   0  0  0  0  0  0  0  0  0  0  0  0
  139.8350   69.8770  225.6930 C   0  0  0  0  0  0  0  0  0  0  0  0
  139.6650   69.0460  226.7960 C   0  0  0  0  0  0  0  0  0  0  0  0
  140.1790   69.4190  228.0280 C   0  0  0  0  0  0  0  0  0  0  0  0
  139.9690   68.5480  229.0600 F   0  0  0  0  0  0  0  0  0  0  0  0
  140.8680   70.6040  228.2190 C   0  0  0  0  0  0  0  0  0  0  0  0
  141.0370   71.4330  227.1120 C   0  0  0  0  0  0  0  0  0  0  0  0
  140.5270   71.0680  225.8790 C   0  0  0  0  0  0  0  0  0  0  0  0
  140.6980   71.8810  224.8190 N   0  0  0  0  0  0  0  0  0  0  0  0
  138.8180   73.7850  223.0490 H   0  0  0  0  0  0  0  0  0  0  0  0
  140.8674   74.5599  220.9805 H   0  0  0  0  0  0  0  0  0  0  0  0
  139.2298   74.1640  220.3456 H   0  0  0  0  0  0  0  0  0  0  0  0
  138.4475   77.8071  219.7617 H   0  0  0  0  0  0  0  0  0  0  0  0
  139.2694   79.0025  220.7603 H   0  0  0  0  0  0  0  0  0  0  0  0
  140.1180   77.7707  218.1287 H   0  0  0  0  0  0  0  0  0  0  0  0
  140.5126   79.3712  218.7490 H   0  0  0  0  0  0  0  0  0  0  0  0
  142.0616   76.9001  218.9595 H   0  0  0  0  0  0  0  0  0  0  0  0
  142.5391   78.5046  219.5295 H   0  0  0  0  0  0  0  0  0  0  0  0
  142.0486   76.4660  221.3261 H   0  0  0  0  0  0  0  0  0  0  0  0
  142.3971   79.8530  220.5025 H   0  0  0  0  0  0  0  0  0  0  0  0
  142.8269   81.6261  222.2019 H   0  0  0  0  0  0  0  0  0  0  0  0
  142.3829   81.1420  224.6020 H   0  0  0  0  0  0  0  0  0  0  0  0
  141.5161   78.9193  225.2738 H   0  0  0  0  0  0  0  0  0  0  0  0
  139.1610   70.1712  222.3973 H   0  0  0  0  0  0  0  0  0  0  0  0
  138.7936   68.6128  224.2909 H   0  0  0  0  0  0  0  0  0  0  0  0
  139.1234   68.0944  226.6904 H   0  0  0  0  0  0  0  0  0  0  0  0
  141.2666   70.8805  229.2062 H   0  0  0  0  0  0  0  0  0  0  0  0
  141.5795   72.3839  227.2192 H   0  0  0  0  0  0  0  0  0  0  0  0
  1  2  2  0
  2  3  1  0
  3  4  1  0
  4  5  1  0
  5  6  2  0
  5  7  1  0
  7  8  1  0
  8  9  1  0
  9 10  1  0
 10 11  1  0
 11 12  1  0
 12 13  2  0
 13 14  1  0
 14 15  2  0
 15 16  1  0
 16 17  2  0
  2 18  1  0
 18 19  2  0
 19 20  1  0
 20 21  2  0
 21 22  1  0
 22 23  2  0
 23 24  1  0
 23 25  1  0
 25 26  2  0
 26 27  1  0
 27 28  2  0
 11  7  1  0
 17 12  1  0
 28 18  1  0
 27 21  1  0
  3 29  1  0
  4 30  1  0
  4 31  1  0
  8 32  1  0
  8 33  1  0
  9 34  1  0
  9 35  1  0
 10 36  1  0
 10 37  1  0
 11 38  1  1
 13 39  1  0
 14 40  1  0
 15 41  1  0
 16 42  1  0
 19 43  1  0
 20 44  1  0
 22 45  1  0
 25 46  1  0
 26 47  1  0
M  END
>  <smiles>  (94) 
O=C(NCC(=O)N1CCCC1c1ccccn1)c1ccc2cc(F)ccc2n1

>  <score_type>  (94) 
oracle

>  <origin>  (94) 
autodockgpu

>  <m_score__min__energy>  (94) 
-8.5999999999999996

>  <m_primary>  (94) 
energy

>  <rmsd>  (94) 
2.114803033790684

>  <m_score__min__rmsd>  (94) 
2.114803033790684

>  <meeko>  (94) 
{"free_energy": -8.45, "intermolecular_energy": -9.95, "internal_energy": -1.46, "cluster_size": 24, "cluster_id": 1, "rank_in_cluster": 9}

>  <energy>  (94) 
-6.86

>  <cluster_rmsd>  (94) 
0.16

>  <cluster>  (94) 
6

$$$$

     RDKit          3D

 47 50  0  0  0  0  0  0  0  0999 V2000
  141.2430   72.1180  221.4410 O   0  0  0  0  0  0  0  0  0  0  0  0
  140.3890   72.4120  222.3180 C   0  0  0  0  0  0  0  0  0  0  0  0
  139.5610   73.5700  222.2310 N   0  0  0  0  0  0  0  0  0  0  0  0
  139.7520   74.4140  221.0570 C   0  0  0  0  0  0  0  0  0  0  0  0
  140.8240   75.4010  221.3100 C   0  0  0  0  0  0  0  0  0  0  0  0
  140.9410   76.0630  222.3660 O   0  0  0  0  0  0  0  0  0  0  0  0
  141.7940   75.6230  220.2940 N   0  0  0  0  0  0  0  0  0  0  0  0
  142.5640   76.8370  220.0270 C   0  0  0  0  0  0  0  0  0  0  0  0
  142.5780   76.9520  218.5070 C   0  0  0  0  0  0  0  0  0  0  0  0
  142.3310   75.5430  218.0160 C   0  0  0  0  0  0  0  0  0  0  0  0
  142.2590   74.6810  219.2660 C   0  0  1  0  0  0  0  0  0  0  0  0
  143.6150   74.1420  219.5970 C   0  0  0  0  0  0  0  0  0  0  0  0
  144.1510   74.1540  220.8480 C   0  0  0  0  0  0  0  0  0  0  0  0
  145.4190   73.6330  221.0810 C   0  0  0  0  0  0  0  0  0  0  0  0
  146.1270   73.1030  220.0210 C   0  0  0  0  0  0  0  0  0  0  0  0
  145.5770   73.0950  218.7600 C   0  0  0  0  0  0  0  0  0  0  0  0
  144.3300   73.6130  218.5630 N   0  0  0  0  0  0  0  0  0  0  0  0
  140.2150   71.5530  223.4840 C   0  0  0  0  0  0  0  0  0  0  0  0
  139.5560   70.3330  223.3600 C   0  0  0  0  0  0  0  0  0  0  0  0
  139.3820   69.5060  224.4520 C   0  0  0  0  0  0  0  0  0  0  0  0
  139.8710   69.9010  225.6780 C   0  0  0  0  0  0  0  0  0  0  0  0
  139.7320   69.1170  226.8200 C   0  0  0  0  0  0  0  0  0  0  0  0
  140.2430   69.5610  228.0290 C   0  0  0  0  0  0  0  0  0  0  0  0
  140.0640   68.7330  229.1020 F   0  0  0  0  0  0  0  0  0  0  0  0
  140.9000   70.7730  228.1610 C   0  0  0  0  0  0  0  0  0  0  0  0
  141.0380   71.5540  227.0150 C   0  0  0  0  0  0  0  0  0  0  0  0
  140.5310   71.1180  225.8050 C   0  0  0  0  0  0  0  0  0  0  0  0
  140.6720   71.8850  224.7070 N   0  0  0  0  0  0  0  0  0  0  0  0
  138.8700   73.7740  222.9760 H   0  0  0  0  0  0  0  0  0  0  0  0
  140.0313   73.7855  220.1985 H   0  0  0  0  0  0  0  0  0  0  0  0
  138.8148   74.9477  220.8408 H   0  0  0  0  0  0  0  0  0  0  0  0
  142.0772   77.7137  220.4790 H   0  0  0  0  0  0  0  0  0  0  0  0
  143.5772   76.7924  220.4529 H   0  0  0  0  0  0  0  0  0  0  0  0
  141.7827   77.6288  218.1613 H   0  0  0  0  0  0  0  0  0  0  0  0
  143.5242   77.3660  218.1285 H   0  0  0  0  0  0  0  0  0  0  0  0
  141.3840   75.4911  217.4588 H   0  0  0  0  0  0  0  0  0  0  0  0
  143.1248   75.2048  217.3337 H   0  0  0  0  0  0  0  0  0  0  0  0
  141.6009   73.8055  219.1645 H   0  0  0  0  0  0  0  0  0  0  0  0
  143.5754   74.5800  221.6830 H   0  0  0  0  0  0  0  0  0  0  0  0
  145.8506   73.6430  222.0927 H   0  0  0  0  0  0  0  0  0  0  0  0
  147.1319   72.6867  220.1848 H   0  0  0  0  0  0  0  0  0  0  0  0
  146.1399   72.6730  217.9144 H   0  0  0  0  0  0  0  0  0  0  0  0
  139.1684   70.0234  222.3782 H   0  0  0  0  0  0  0  0  0  0  0  0
  138.8596   68.5440  224.3444 H   0  0  0  0  0  0  0  0  0  0  0  0
  139.2173   68.1465  226.7626 H   0  0  0  0  0  0  0  0  0  0  0  0
  141.2970   71.1059  229.1314 H   0  0  0  0  0  0  0  0  0  0  0  0
  141.5538   72.5238  227.0736 H   0  0  0  0  0  0  0  0  0  0  0  0
  1  2  2  0
  2  3  1  0
  3  4  1  0
  4  5  1  0
  5  6  2  0
  5  7  1  0
  7  8  1  0
  8  9  1  0
  9 10  1  0
 10 11  1  0
 11 12  1  0
 12 13  2  0
 13 14  1  0
 14 15  2  0
 15 16  1  0
 16 17  2  0
  2 18  1  0
 18 19  2  0
 19 20  1  0
 20 21  2  0
 21 22  1  0
 22 23  2  0
 23 24  1  0
 23 25  1  0
 25 26  2  0
 26 27  1  0
 27 28  2  0
 11  7  1  0
 17 12  1  0
 28 18  1  0
 27 21  1  0
  3 29  1  0
  4 30  1  0
  4 31  1  0
  8 32  1  0
  8 33  1  0
  9 34  1  0
  9 35  1  0
 10 36  1  0
 10 37  1  0
 11 38  1  6
 13 39  1  0
 14 40  1  0
 15 41  1  0
 16 42  1  0
 19 43  1  0
 20 44  1  0
 22 45  1  0
 25 46  1  0
 26 47  1  0
M  END
>  <smiles>  (95) 
O=C(NCC(=O)N1CCCC1c1ccccn1)c1ccc2cc(F)ccc2n1

>  <score_type>  (95) 
oracle

>  <origin>  (95) 
autodockgpu

>  <m_score__min__energy>  (95) 
-8.5999999999999996

>  <m_primary>  (95) 
energy

>  <rmsd>  (95) 
4.241919024848663

>  <m_score__min__rmsd>  (95) 
4.241919024848663

>  <meeko>  (95) 
{"free_energy": -8.17, "intermolecular_energy": -9.67, "internal_energy": -1.55, "cluster_size": 8, "cluster_id": 2, "rank_in_cluster": 3}

>  <energy>  (95) 
-6.86

>  <cluster_rmsd>  (95) 
0.17

>  <cluster>  (95) 
6

$$$$

     RDKit          3D

 47 50  0  0  0  0  0  0  0  0999 V2000
  140.8260   71.8500  221.1570 O   0  0  0  0  0  0  0  0  0  0  0  0
  140.2570   72.3020  222.1860 C   0  0  0  0  0  0  0  0  0  0  0  0
  139.7030   73.6140  222.2480 N   0  0  0  0  0  0  0  0  0  0  0  0
  139.8260   74.4250  221.0420 C   0  0  0  0  0  0  0  0  0  0  0  0
  140.8380   75.4850  221.2440 C   0  0  0  0  0  0  0  0  0  0  0  0
  140.8850   76.2390  222.2410 O   0  0  0  0  0  0  0  0  0  0  0  0
  141.8330   75.6700  220.2440 N   0  0  0  0  0  0  0  0  0  0  0  0
  142.6480   76.8560  219.9870 C   0  0  0  0  0  0  0  0  0  0  0  0
  142.6920   76.9670  218.4670 C   0  0  0  0  0  0  0  0  0  0  0  0
  142.4050   75.5660  217.9750 C   0  0  0  0  0  0  0  0  0  0  0  0
  142.2830   74.7100  219.2260 C   0  0  1  0  0  0  0  0  0  0  0  0
  143.6130   74.1260  219.5810 C   0  0  0  0  0  0  0  0  0  0  0  0
  144.1200   74.1060  220.8450 C   0  0  0  0  0  0  0  0  0  0  0  0
  145.3650   73.5430  221.1000 C   0  0  0  0  0  0  0  0  0  0  0  0
  146.0830   73.0060  220.0500 C   0  0  0  0  0  0  0  0  0  0  0  0
  145.5630   73.0310  218.7760 C   0  0  0  0  0  0  0  0  0  0  0  0
  144.3380   73.5890  218.5580 N   0  0  0  0  0  0  0  0  0  0  0  0
  140.1460   71.4720  223.3810 C   0  0  0  0  0  0  0  0  0  0  0  0
  139.5510   70.2160  223.3050 C   0  0  0  0  0  0  0  0  0  0  0  0
  139.4360   69.4150  224.4250 C   0  0  0  0  0  0  0  0  0  0  0  0
  139.9210   69.8750  225.6300 C   0  0  0  0  0  0  0  0  0  0  0  0
  139.8400   69.1220  226.7980 C   0  0  0  0  0  0  0  0  0  0  0  0
  140.3420   69.6310  227.9850 C   0  0  0  0  0  0  0  0  0  0  0  0
  140.2230   68.8290  229.0850 F   0  0  0  0  0  0  0  0  0  0  0  0
  140.9360   70.8790  228.0680 C   0  0  0  0  0  0  0  0  0  0  0  0
  141.0160   71.6290  226.8970 C   0  0  0  0  0  0  0  0  0  0  0  0
  140.5160   71.1290  225.7090 C   0  0  0  0  0  0  0  0  0  0  0  0
  140.6010   71.8670  224.5850 N   0  0  0  0  0  0  0  0  0  0  0  0
  139.2440   73.9460  223.1160 H   0  0  0  0  0  0  0  0  0  0  0  0
  140.1328   73.7842  220.2022 H   0  0  0  0  0  0  0  0  0  0  0  0
  138.8547   74.8916  220.8210 H   0  0  0  0  0  0  0  0  0  0  0  0
  142.1837   77.7500  220.4288 H   0  0  0  0  0  0  0  0  0  0  0  0
  143.6518   76.7777  220.4299 H   0  0  0  0  0  0  0  0  0  0  0  0
  141.9265   77.6699  218.1064 H   0  0  0  0  0  0  0  0  0  0  0  0
  143.6581   77.3475  218.1038 H   0  0  0  0  0  0  0  0  0  0  0  0
  141.4661   75.5450  217.4023 H   0  0  0  0  0  0  0  0  0  0  0  0
  143.1978   75.1991  217.3066 H   0  0  0  0  0  0  0  0  0  0  0  0
  141.5974   73.8570  219.1150 H   0  0  0  0  0  0  0  0  0  0  0  0
  143.5386   74.5396  221.6720 H   0  0  0  0  0  0  0  0  0  0  0  0
  145.7717   73.5256  222.1219 H   0  0  0  0  0  0  0  0  0  0  0  0
  147.0710   72.5580  220.2318 H   0  0  0  0  0  0  0  0  0  0  0  0
  146.1326   72.6031  217.9379 H   0  0  0  0  0  0  0  0  0  0  0  0
  139.1667   69.8558  222.3393 H   0  0  0  0  0  0  0  0  0  0  0  0
  138.9639   68.4239  224.3557 H   0  0  0  0  0  0  0  0  0  0  0  0
  139.3779   68.1239  226.7787 H   0  0  0  0  0  0  0  0  0  0  0  0
  141.3291   71.2629  229.0209 H   0  0  0  0  0  0  0  0  0  0  0  0
  141.4802   72.6260  226.9176 H   0  0  0  0  0  0  0  0  0  0  0  0
  1  2  2  0
  2  3  1  0
  3  4  1  0
  4  5  1  0
  5  6  2  0
  5  7  1  0
  7  8  1  0
  8  9  1  0
  9 10  1  0
 10 11  1  0
 11 12  1  0
 12 13  2  0
 13 14  1  0
 14 15  2  0
 15 16  1  0
 16 17  2  0
  2 18  1  0
 18 19  2  0
 19 20  1  0
 20 21  2  0
 21 22  1  0
 22 23  2  0
 23 24  1  0
 23 25  1  0
 25 26  2  0
 26 27  1  0
 27 28  2  0
 11  7  1  0
 17 12  1  0
 28 18  1  0
 27 21  1  0
  3 29  1  0
  4 30  1  0
  4 31  1  0
  8 32  1  0
  8 33  1  0
  9 34  1  0
  9 35  1  0
 10 36  1  0
 10 37  1  0
 11 38  1  6
 13 39  1  0
 14 40  1  0
 15 41  1  0
 16 42  1  0
 19 43  1  0
 20 44  1  0
 22 45  1  0
 25 46  1  0
 26 47  1  0
M  END
>  <smiles>  (96) 
O=C(NCC(=O)N1CCCC1c1ccccn1)c1ccc2cc(F)ccc2n1

>  <score_type>  (96) 
oracle

>  <origin>  (96) 
autodockgpu

>  <m_score__min__energy>  (96) 
-8.5999999999999996

>  <m_primary>  (96) 
energy

>  <rmsd>  (96) 
4.256268958968953

>  <m_score__min__rmsd>  (96) 
4.256268958968953

>  <meeko>  (96) 
{"free_energy": -8.04, "intermolecular_energy": -9.53, "internal_energy": -1.58, "cluster_size": 8, "cluster_id": 2, "rank_in_cluster": 7}

>  <energy>  (96) 
-6.85

>  <cluster_rmsd>  (96) 
0.18

>  <cluster>  (96) 
6

$$$$

     RDKit          3D

 47 50  0  0  0  0  0  0  0  0999 V2000
  141.0770   73.4850  220.6160 O   0  0  0  0  0  0  0  0  0  0  0  0
  140.4730   74.3230  221.3350 C   0  0  0  0  0  0  0  0  0  0  0  0
  139.3470   73.9790  222.1400 N   0  0  0  0  0  0  0  0  0  0  0  0
  138.9190   72.5860  222.0900 C   0  0  0  0  0  0  0  0  0  0  0  0
  139.6670   71.7890  223.0870 C   0  0  0  0  0  0  0  0  0  0  0  0
  140.7080   72.1750  223.6650 O   0  0  0  0  0  0  0  0  0  0  0  0
  139.1830   70.4940  223.4210 N   0  0  0  0  0  0  0  0  0  0  0  0
  139.2840   69.2610  222.6430 C   0  0  0  0  0  0  0  0  0  0  0  0
  137.9260   68.5900  222.8130 C   0  0  0  0  0  0  0  0  0  0  0  0
  137.3730   69.1700  224.0960 C   0  0  0  0  0  0  0  0  0  0  0  0
  138.4620   70.0830  224.6340 C   0  0  1  0  0  0  0  0  0  0  0  0
  139.3550   69.3260  225.5660 C   0  0  0  0  0  0  0  0  0  0  0  0
  140.2850   69.9110  226.3690 C   0  0  0  0  0  0  0  0  0  0  0  0
  141.0800   69.1420  227.2110 C   0  0  0  0  0  0  0  0  0  0  0  0
  140.9130   67.7720  227.2180 C   0  0  0  0  0  0  0  0  0  0  0  0
  139.9710   67.1880  226.4020 C   0  0  0  0  0  0  0  0  0  0  0  0
  139.2050   67.9700  225.5870 N   0  0  0  0  0  0  0  0  0  0  0  0
  140.9190   75.7120  221.3680 C   0  0  0  0  0  0  0  0  0  0  0  0
  141.7440   76.2030  220.3590 C   0  0  0  0  0  0  0  0  0  0  0  0
  142.1770   77.5150  220.3730 C   0  0  0  0  0  0  0  0  0  0  0  0
  141.7820   78.3410  221.4020 C   0  0  0  0  0  0  0  0  0  0  0  0
  142.1800   79.6730  221.4790 C   0  0  0  0  0  0  0  0  0  0  0  0
  141.7550   80.4620  222.5360 C   0  0  0  0  0  0  0  0  0  0  0  0
  142.1900   81.7570  222.5370 F   0  0  0  0  0  0  0  0  0  0  0  0
  140.9350   79.9800  223.5420 C   0  0  0  0  0  0  0  0  0  0  0  0
  140.5380   78.6470  223.4620 C   0  0  0  0  0  0  0  0  0  0  0  0
  140.9580   77.8530  222.4100 C   0  0  0  0  0  0  0  0  0  0  0  0
  140.5660   76.5660  222.3470 N   0  0  0  0  0  0  0  0  0  0  0  0
  138.8780   74.7020  222.7170 H   0  0  0  0  0  0  0  0  0  0  0  0
  137.8429   72.5277  222.3106 H   0  0  0  0  0  0  0  0  0  0  0  0
  139.1170   72.1840  221.0854 H   0  0  0  0  0  0  0  0  0  0  0  0
  139.4773   69.4846  221.5834 H   0  0  0  0  0  0  0  0  0  0  0  0
  140.1122   68.6204  222.9802 H   0  0  0  0  0  0  0  0  0  0  0  0
  137.2671   68.8259  221.9643 H   0  0  0  0  0  0  0  0  0  0  0  0
  138.0037   67.4934  222.8499 H   0  0  0  0  0  0  0  0  0  0  0  0
  136.4561   69.7433  223.8944 H   0  0  0  0  0  0  0  0  0  0  0  0
  137.1081   68.3832  224.8176 H   0  0  0  0  0  0  0  0  0  0  0  0
  138.0787   70.9384  225.2096 H   0  0  0  0  0  0  0  0  0  0  0  0
  140.4089   71.0039  226.3516 H   0  0  0  0  0  0  0  0  0  0  0  0
  141.8296   69.6174  227.8607 H   0  0  0  0  0  0  0  0  0  0  0  0
  141.5334   67.1462  227.8764 H   0  0  0  0  0  0  0  0  0  0  0  0
  139.8362   66.0963  226.4067 H   0  0  0  0  0  0  0  0  0  0  0  0
  142.0549   75.5375  219.5402 H   0  0  0  0  0  0  0  0  0  0  0  0
  142.8289   77.8950  219.5726 H   0  0  0  0  0  0  0  0  0  0  0  0
  142.8313   80.0987  220.7014 H   0  0  0  0  0  0  0  0  0  0  0  0
  140.6097   80.6244  224.3720 H   0  0  0  0  0  0  0  0  0  0  0  0
  139.8864   78.2232  224.2403 H   0  0  0  0  0  0  0  0  0  0  0  0
  1  2  2  0
  2  3  1  0
  3  4  1  0
  4  5  1  0
  5  6  2  0
  5  7  1  0
  7  8  1  0
  8  9  1  0
  9 10  1  0
 10 11  1  0
 11 12  1  0
 12 13  2  0
 13 14  1  0
 14 15  2  0
 15 16  1  0
 16 17  2  0
  2 18  1  0
 18 19  2  0
 19 20  1  0
 20 21  2  0
 21 22  1  0
 22 23  2  0
 23 24  1  0
 23 25  1  0
 25 26  2  0
 26 27  1  0
 27 28  2  0
 11  7  1  0
 17 12  1  0
 28 18  1  0
 27 21  1  0
  3 29  1  0
  4 30  1  0
  4 31  1  0
  8 32  1  0
  8 33  1  0
  9 34  1  0
  9 35  1  0
 10 36  1  0
 10 37  1  0
 11 38  1  1
 13 39  1  0
 14 40  1  0
 15 41  1  0
 16 42  1  0
 19 43  1  0
 20 44  1  0
 22 45  1  0
 25 46  1  0
 26 47  1  0
M  END
>  <smiles>  (97) 
O=C(NCC(=O)N1CCCC1c1ccccn1)c1ccc2cc(F)ccc2n1

>  <score_type>  (97) 
oracle

>  <origin>  (97) 
autodockgpu

>  <m_score__min__energy>  (97) 
-8.5999999999999996

>  <m_primary>  (97) 
energy

>  <rmsd>  (97) 
9.580940758661825

>  <m_score__min__rmsd>  (97) 
9.580940758661825

>  <meeko>  (97) 
{"free_energy": -8.24, "intermolecular_energy": -9.73, "internal_energy": -1.51, "cluster_size": 4, "cluster_id": 3, "rank_in_cluster": 1}

>  <energy>  (97) 
-6.82

>  <cluster_rmsd>  (97) 
0.18

>  <cluster>  (97) 
6

$$$$

     RDKit          3D

 47 50  0  0  0  0  0  0  0  0999 V2000
  141.0220   73.4760  220.6170 O   0  0  0  0  0  0  0  0  0  0  0  0
  140.4310   74.3150  221.3470 C   0  0  0  0  0  0  0  0  0  0  0  0
  139.3140   73.9740  222.1640 N   0  0  0  0  0  0  0  0  0  0  0  0
  138.8780   72.5830  222.1160 C   0  0  0  0  0  0  0  0  0  0  0  0
  139.6470   71.7760  223.0880 C   0  0  0  0  0  0  0  0  0  0  0  0
  140.7030   72.1520  223.6420 O   0  0  0  0  0  0  0  0  0  0  0  0
  139.1630   70.4810  223.4250 N   0  0  0  0  0  0  0  0  0  0  0  0
  139.2600   69.2470  222.6470 C   0  0  0  0  0  0  0  0  0  0  0  0
  137.9020   68.5770  222.8250 C   0  0  0  0  0  0  0  0  0  0  0  0
  137.3570   69.1580  224.1110 C   0  0  0  0  0  0  0  0  0  0  0  0
  138.4490   70.0710  224.6420 C   0  0  1  0  0  0  0  0  0  0  0  0
  139.3470   69.3130  225.5690 C   0  0  0  0  0  0  0  0  0  0  0  0
  140.2660   69.9010  226.3830 C   0  0  0  0  0  0  0  0  0  0  0  0
  141.0660   69.1310  227.2200 C   0  0  0  0  0  0  0  0  0  0  0  0
  140.9150   67.7590  227.2110 C   0  0  0  0  0  0  0  0  0  0  0  0
  139.9840   67.1740  226.3850 C   0  0  0  0  0  0  0  0  0  0  0  0
  139.2120   67.9560  225.5750 N   0  0  0  0  0  0  0  0  0  0  0  0
  140.8850   75.7010  221.3790 C   0  0  0  0  0  0  0  0  0  0  0  0
  141.7180   76.1850  220.3740 C   0  0  0  0  0  0  0  0  0  0  0  0
  142.1590   77.4940  220.3860 C   0  0  0  0  0  0  0  0  0  0  0  0
  141.7630   78.3260  221.4120 C   0  0  0  0  0  0  0  0  0  0  0  0
  142.1680   79.6550  221.4880 C   0  0  0  0  0  0  0  0  0  0  0  0
  141.7420   80.4490  222.5410 C   0  0  0  0  0  0  0  0  0  0  0  0
  142.1850   81.7420  222.5410 F   0  0  0  0  0  0  0  0  0  0  0  0
  140.9140   79.9740  223.5440 C   0  0  0  0  0  0  0  0  0  0  0  0
  140.5100   78.6430  223.4640 C   0  0  0  0  0  0  0  0  0  0  0  0
  140.9310   77.8440  222.4170 C   0  0  0  0  0  0  0  0  0  0  0  0
  140.5320   76.5590  222.3550 N   0  0  0  0  0  0  0  0  0  0  0  0
  138.8570   74.6970  222.7500 H   0  0  0  0  0  0  0  0  0  0  0  0
  137.8077   72.5284  222.3637 H   0  0  0  0  0  0  0  0  0  0  0  0
  139.0484   72.1868  221.1041 H   0  0  0  0  0  0  0  0  0  0  0  0
  139.4479   69.4697  221.5863 H   0  0  0  0  0  0  0  0  0  0  0  0
  140.0898   68.6063  222.9799 H   0  0  0  0  0  0  0  0  0  0  0  0
  137.2385   68.8132  221.9800 H   0  0  0  0  0  0  0  0  0  0  0  0
  137.9789   67.4803  222.8617 H   0  0  0  0  0  0  0  0  0  0  0  0
  136.4390   69.7313  223.9146 H   0  0  0  0  0  0  0  0  0  0  0  0
  137.0965   68.3716  224.8346 H   0  0  0  0  0  0  0  0  0  0  0  0
  138.0696   70.9271  225.2192 H   0  0  0  0  0  0  0  0  0  0  0  0
  140.3768   70.9954  226.3786 H   0  0  0  0  0  0  0  0  0  0  0  0
  141.8071   69.6075  227.8786 H   0  0  0  0  0  0  0  0  0  0  0  0
  141.5398   67.1330  227.8650 H   0  0  0  0  0  0  0  0  0  0  0  0
  139.8619   66.0808  226.3770 H   0  0  0  0  0  0  0  0  0  0  0  0
  142.0295   75.5155  219.5587 H   0  0  0  0  0  0  0  0  0  0  0  0
  142.8172   77.8677  219.5878 H   0  0  0  0  0  0  0  0  0  0  0  0
  142.8258   80.0751  220.7129 H   0  0  0  0  0  0  0  0  0  0  0  0
  140.5881   80.6218  224.3712 H   0  0  0  0  0  0  0  0  0  0  0  0
  139.8513   78.2248  224.2394 H   0  0  0  0  0  0  0  0  0  0  0  0
  1  2  2  0
  2  3  1  0
  3  4  1  0
  4  5  1  0
  5  6  2  0
  5  7  1  0
  7  8  1  0
  8  9  1  0
  9 10  1  0
 10 11  1  0
 11 12  1  0
 12 13  2  0
 13 14  1  0
 14 15  2  0
 15 16  1  0
 16 17  2  0
  2 18  1  0
 18 19  2  0
 19 20  1  0
 20 21  2  0
 21 22  1  0
 22 23  2  0
 23 24  1  0
 23 25  1  0
 25 26  2  0
 26 27  1  0
 27 28  2  0
 11  7  1  0
 17 12  1  0
 28 18  1  0
 27 21  1  0
  3 29  1  0
  4 30  1  0
  4 31  1  0
  8 32  1  0
  8 33  1  0
  9 34  1  0
  9 35  1  0
 10 36  1  0
 10 37  1  0
 11 38  1  1
 13 39  1  0
 14 40  1  0
 15 41  1  0
 16 42  1  0
 19 43  1  0
 20 44  1  0
 22 45  1  0
 25 46  1  0
 26 47  1  0
M  END
>  <smiles>  (98) 
O=C(NCC(=O)N1CCCC1c1ccccn1)c1ccc2cc(F)ccc2n1

>  <score_type>  (98) 
oracle

>  <origin>  (98) 
autodockgpu

>  <m_score__min__energy>  (98) 
-8.5999999999999996

>  <m_primary>  (98) 
energy

>  <rmsd>  (98) 
9.58146824461333

>  <m_score__min__rmsd>  (98) 
9.58146824461333

>  <meeko>  (98) 
{"free_energy": -8.24, "intermolecular_energy": -9.73, "internal_energy": -1.5, "cluster_size": 4, "cluster_id": 3, "rank_in_cluster": 2}

>  <energy>  (98) 
-6.72

>  <cluster_rmsd>  (98) 
0.59

>  <cluster>  (98) 
6

$$$$

     RDKit          3D

 47 50  0  0  0  0  0  0  0  0999 V2000
  140.2160   73.5920  222.3410 O   0  0  0  0  0  0  0  0  0  0  0  0
  140.5740   72.3850  222.3540 C   0  0  0  0  0  0  0  0  0  0  0  0
  141.2590   71.7710  221.2640 N   0  0  0  0  0  0  0  0  0  0  0  0
  141.5330   72.6220  220.1120 C   0  0  0  0  0  0  0  0  0  0  0  0
  142.6110   73.5820  220.4340 C   0  0  0  0  0  0  0  0  0  0  0  0
  142.4220   74.7430  220.8590 O   0  0  0  0  0  0  0  0  0  0  0  0
  143.9610   73.1700  220.2530 N   0  0  0  0  0  0  0  0  0  0  0  0
  145.0540   73.2020  221.2220 C   0  0  0  0  0  0  0  0  0  0  0  0
  146.2620   73.6690  220.4180 C   0  0  0  0  0  0  0  0  0  0  0  0
  145.9240   73.3200  218.9850 C   0  0  0  0  0  0  0  0  0  0  0  0
  144.5820   72.6100  219.0440 C   0  0  1  0  0  0  0  0  0  0  0  0
  144.7850   71.1340  219.1720 C   0  0  0  0  0  0  0  0  0  0  0  0
  143.8330   70.2740  219.6270 C   0  0  0  0  0  0  0  0  0  0  0  0
  144.0940   68.9110  219.7180 C   0  0  0  0  0  0  0  0  0  0  0  0
  145.3370   68.4430  219.3410 C   0  0  0  0  0  0  0  0  0  0  0  0
  146.2930   69.3200  218.8820 C   0  0  0  0  0  0  0  0  0  0  0  0
  146.0060   70.6520  218.8030 N   0  0  0  0  0  0  0  0  0  0  0  0
  140.2890   71.5530  223.5180 C   0  0  0  0  0  0  0  0  0  0  0  0
  139.5420   70.3860  223.3750 C   0  0  0  0  0  0  0  0  0  0  0  0
  139.2620   69.5850  224.4660 C   0  0  0  0  0  0  0  0  0  0  0  0
  139.7320   69.9540  225.7080 C   0  0  0  0  0  0  0  0  0  0  0  0
  139.4880   69.1950  226.8490 C   0  0  0  0  0  0  0  0  0  0  0  0
  139.9820   69.6110  228.0740 C   0  0  0  0  0  0  0  0  0  0  0  0
  139.6980   68.8090  229.1440 F   0  0  0  0  0  0  0  0  0  0  0  0
  140.7250   70.7690  228.2240 C   0  0  0  0  0  0  0  0  0  0  0  0
  140.9680   71.5260  227.0790 C   0  0  0  0  0  0  0  0  0  0  0  0
  140.4770   71.1180  225.8530 C   0  0  0  0  0  0  0  0  0  0  0  0
  140.7210   71.8620  224.7560 N   0  0  0  0  0  0  0  0  0  0  0  0
  141.5340   70.7730  221.3170 H   0  0  0  0  0  0  0  0  0  0  0  0
  141.8451   71.9958  219.2632 H   0  0  0  0  0  0  0  0  0  0  0  0
  140.6211   73.1790  219.8510 H   0  0  0  0  0  0  0  0  0  0  0  0
  144.8318   73.9080  222.0358 H   0  0  0  0  0  0  0  0  0  0  0  0
  145.2204   72.2243  221.6979 H   0  0  0  0  0  0  0  0  0  0  0  0
  146.4072   74.7536  220.5297 H   0  0  0  0  0  0  0  0  0  0  0  0
  147.1958   73.1946  220.7540 H   0  0  0  0  0  0  0  0  0  0  0  0
  145.8495   74.2322  218.3748 H   0  0  0  0  0  0  0  0  0  0  0  0
  146.6990   72.6888  218.5258 H   0  0  0  0  0  0  0  0  0  0  0  0
  143.9649   72.7536  218.1448 H   0  0  0  0  0  0  0  0  0  0  0  0
  142.8475   70.6609  219.9256 H   0  0  0  0  0  0  0  0  0  0  0  0
  143.3229   68.2173  220.0843 H   0  0  0  0  0  0  0  0  0  0  0  0
  145.5633   67.3686  219.4076 H   0  0  0  0  0  0  0  0  0  0  0  0
  147.2837   68.9493  218.5802 H   0  0  0  0  0  0  0  0  0  0  0  0
  139.1701   70.0981  222.3806 H   0  0  0  0  0  0  0  0  0  0  0  0
  138.6716   68.6648  224.3446 H   0  0  0  0  0  0  0  0  0  0  0  0
  138.9035   68.2659  226.7777 H   0  0  0  0  0  0  0  0  0  0  0  0
  141.1084   71.0795  229.2072 H   0  0  0  0  0  0  0  0  0  0  0  0
  141.5542   72.4539  227.1516 H   0  0  0  0  0  0  0  0  0  0  0  0
  1  2  2  0
  2  3  1  0
  3  4  1  0
  4  5  1  0
  5  6  2  0
  5  7  1  0
  7  8  1  0
  8  9  1  0
  9 10  1  0
 10 11  1  0
 11 12  1  0
 12 13  2  0
 13 14  1  0
 14 15  2  0
 15 16  1  0
 16 17  2  0
  2 18  1  0
 18 19  2  0
 19 20  1  0
 20 21  2  0
 21 22  1  0
 22 23  2  0
 23 24  1  0
 23 25  1  0
 25 26  2  0
 26 27  1  0
 27 28  2  0
 11  7  1  0
 17 12  1  0
 28 18  1  0
 27 21  1  0
  3 29  1  0
  4 30  1  0
  4 31  1  0
  8 32  1  0
  8 33  1  0
  9 34  1  0
  9 35  1  0
 10 36  1  0
 10 37  1  0
 11 38  1  6
 13 39  1  0
 14 40  1  0
 15 41  1  0
 16 42  1  0
 19 43  1  0
 20 44  1  0
 22 45  1  0
 25 46  1  0
 26 47  1  0
M  END
>  <smiles>  (99) 
O=C(NCC(=O)N1CCCC1c1ccccn1)c1ccc2cc(F)ccc2n1

>  <score_type>  (99) 
oracle

>  <origin>  (99) 
autodockgpu

>  <m_score__min__energy>  (99) 
-8.5999999999999996

>  <m_primary>  (99) 
energy

>  <rmsd>  (99) 
6.416992093679956

>  <m_score__min__rmsd>  (99) 
6.416992093679956

>  <meeko>  (99) 
{"free_energy": -8.04, "intermolecular_energy": -9.53, "internal_energy": -1.39, "cluster_size": 2, "cluster_id": 4, "rank_in_cluster": 1}

>  <energy>  (99) 
-6.67

>  <cluster_rmsd>  (99) 
0.82

>  <cluster>  (99) 
6

$$$$

     RDKit          3D

 47 50  0  0  0  0  0  0  0  0999 V2000
  138.7620   74.7220  222.1840 O   0  0  0  0  0  0  0  0  0  0  0  0
  139.9070   75.2030  221.9720 C   0  0  0  0  0  0  0  0  0  0  0  0
  140.1950   76.5930  222.1010 N   0  0  0  0  0  0  0  0  0  0  0  0
  139.0830   77.4500  222.4950 C   0  0  0  0  0  0  0  0  0  0  0  0
  139.5940   78.7230  223.0480 C   0  0  0  0  0  0  0  0  0  0  0  0
  138.9760   79.4380  223.8690 O   0  0  0  0  0  0  0  0  0  0  0  0
  140.8730   79.1790  222.6260 N   0  0  0  0  0  0  0  0  0  0  0  0
  142.1830   78.8410  223.1800 C   0  0  0  0  0  0  0  0  0  0  0  0
  142.9500   80.1590  223.1780 C   0  0  0  0  0  0  0  0  0  0  0  0
  142.2610   80.9980  222.1240 C   0  0  0  0  0  0  0  0  0  0  0  0
  141.1880   80.1040  221.5270 C   0  0  1  0  0  0  0  0  0  0  0  0
  141.7290   79.3710  220.3400 C   0  0  0  0  0  0  0  0  0  0  0  0
  142.1890   79.9840  219.2150 C   0  0  0  0  0  0  0  0  0  0  0  0
  142.6790   79.2360  218.1510 C   0  0  0  0  0  0  0  0  0  0  0  0
  142.6910   77.8590  218.2520 C   0  0  0  0  0  0  0  0  0  0  0  0
  142.2240   77.2480  219.3930 C   0  0  0  0  0  0  0  0  0  0  0  0
  141.7500   78.0100  220.4210 N   0  0  0  0  0  0  0  0  0  0  0  0
  141.0040   74.3260  221.5780 C   0  0  0  0  0  0  0  0  0  0  0  0
  140.8240   72.9450  221.5670 C   0  0  0  0  0  0  0  0  0  0  0  0
  141.8510   72.0990  221.1970 C   0  0  0  0  0  0  0  0  0  0  0  0
  143.0670   72.6370  220.8340 C   0  0  0  0  0  0  0  0  0  0  0  0
  144.1440   71.8440  220.4500 C   0  0  0  0  0  0  0  0  0  0  0  0
  145.3460   72.4350  220.0950 C   0  0  0  0  0  0  0  0  0  0  0  0
  146.3540   71.5870  219.7300 F   0  0  0  0  0  0  0  0  0  0  0  0
  145.5320   73.8070  220.1030 C   0  0  0  0  0  0  0  0  0  0  0  0
  144.4510   74.5980  220.4880 C   0  0  0  0  0  0  0  0  0  0  0  0
  143.2490   74.0150  220.8440 C   0  0  0  0  0  0  0  0  0  0  0  0
  142.2130   74.7940  221.2140 N   0  0  0  0  0  0  0  0  0  0  0  0
  141.1520   76.9470  221.9160 H   0  0  0  0  0  0  0  0  0  0  0  0
  138.4566   77.6607  221.6156 H   0  0  0  0  0  0  0  0  0  0  0  0
  138.4874   76.9365  223.2642 H   0  0  0  0  0  0  0  0  0  0  0  0
  142.0833   78.4507  224.2036 H   0  0  0  0  0  0  0  0  0  0  0  0
  142.6937   78.0590  222.5990 H   0  0  0  0  0  0  0  0  0  0  0  0
  142.8894   80.6454  224.1627 H   0  0  0  0  0  0  0  0  0  0  0  0
  144.0204   80.0192  222.9668 H   0  0  0  0  0  0  0  0  0  0  0  0
  141.8073   81.8904  222.5798 H   0  0  0  0  0  0  0  0  0  0  0  0
  142.9680   81.3515  221.3591 H   0  0  0  0  0  0  0  0  0  0  0  0
  140.3047   80.6526  221.1679 H   0  0  0  0  0  0  0  0  0  0  0  0
  142.1727   81.0818  219.1474 H   0  0  0  0  0  0  0  0  0  0  0  0
  143.0513   79.7330  217.2430 H   0  0  0  0  0  0  0  0  0  0  0  0
  143.0741   77.2501  217.4198 H   0  0  0  0  0  0  0  0  0  0  0  0
  142.2327   76.1512  219.4760 H   0  0  0  0  0  0  0  0  0  0  0  0
  139.8507   72.5224  221.8569 H   0  0  0  0  0  0  0  0  0  0  0  0
  141.7004   71.0094  221.1921 H   0  0  0  0  0  0  0  0  0  0  0  0
  144.0413   70.7490  220.4283 H   0  0  0  0  0  0  0  0  0  0  0  0
  146.4950   74.2550  219.8168 H   0  0  0  0  0  0  0  0  0  0  0  0
  144.5548   75.6929  220.5088 H   0  0  0  0  0  0  0  0  0  0  0  0
  1  2  2  0
  2  3  1  0
  3  4  1  0
  4  5  1  0
  5  6  2  0
  5  7  1  0
  7  8  1  0
  8  9  1  0
  9 10  1  0
 10 11  1  0
 11 12  1  0
 12 13  2  0
 13 14  1  0
 14 15  2  0
 15 16  1  0
 16 17  2  0
  2 18  1  0
 18 19  2  0
 19 20  1  0
 20 21  2  0
 21 22  1  0
 22 23  2  0
 23 24  1  0
 23 25  1  0
 25 26  2  0
 26 27  1  0
 27 28  2  0
 11  7  1  0
 17 12  1  0
 28 18  1  0
 27 21  1  0
  3 29  1  0
  4 30  1  0
  4 31  1  0
  8 32  1  0
  8 33  1  0
  9 34  1  0
  9 35  1  0
 10 36  1  0
 10 37  1  0
 11 38  1  6
 13 39  1  0
 14 40  1  0
 15 41  1  0
 16 42  1  0
 19 43  1  0
 20 44  1  0
 22 45  1  0
 25 46  1  0
 26 47  1  0
M  END
>  <smiles>  (100) 
O=C(NCC(=O)N1CCCC1c1ccccn1)c1ccc2cc(F)ccc2n1

>  <score_type>  (100) 
oracle

>  <origin>  (100) 
autodockgpu

>  <m_score__min__energy>  (100) 
-8.5999999999999996

>  <m_primary>  (100) 
energy

>  <rmsd>  (100) 
6.049230130901446

>  <m_score__min__rmsd>  (100) 
6.049230130901446

>  <meeko>  (100) 
{"free_energy": -6.82, "intermolecular_energy": -8.31, "internal_energy": -2.79, "cluster_size": 11, "cluster_id": 6, "rank_in_cluster": 8}

>  <energy>  (100) 
-6.61

>  <cluster_rmsd>  (100) 
0.4

>  <cluster>  (100) 
6

$$$$
