
     RDKit          3D

 48 51  0  0  0  0  0  0  0  0999 V2000
  139.0390   71.3560  220.8710 O   0  0  0  0  0  0  0  0  0  0  0  0
  139.4190   71.8680  221.9490 C   0  0  0  0  0  0  0  0  0  0  0  0
  139.7080   73.2530  222.0860 N   0  0  0  0  0  0  0  0  0  0  0  0
  139.5830   74.1870  220.9790 C   0  0  0  0  0  0  0  0  0  0  0  0
  140.8040   75.0700  220.9770 C   0  0  0  0  0  0  0  0  0  0  0  0
  141.2780   75.3280  222.1110 O   0  0  0  0  0  0  0  0  0  0  0  0
  141.3330   75.5440  219.7530 N   0  0  0  0  0  0  0  0  0  0  0  0
  140.4730   76.3480  218.8750 C   0  0  0  0  0  0  0  0  0  0  0  0
  141.2460   77.2030  217.9360 C   0  0  0  0  0  0  0  0  0  0  0  0
  142.6330   77.5570  218.3000 C   0  0  0  0  0  0  0  0  0  0  0  0
  143.3230   76.6890  219.2890 C   0  0  0  0  0  0  0  0  0  0  0  0
  142.6640   75.3240  219.2700 C   0  0  1  0  0  0  0  0  0  0  0  0
  143.5100   74.3780  219.9550 C   0  0  0  0  0  0  0  0  0  0  0  0
  143.2940   73.0480  220.2470 C   0  0  0  0  0  0  0  0  0  0  0  0
  144.3410   72.5230  220.9090 N   0  0  0  0  0  0  0  0  0  0  0  0
  145.2340   73.5180  221.0450 C   0  0  0  0  0  0  0  0  0  0  0  0
  144.7480   74.6340  220.4780 N   0  0  0  0  0  0  0  0  0  0  0  0
  139.5720   70.9930  223.1280 C   0  0  0  0  0  0  0  0  0  0  0  0
  139.1390   69.6930  223.1010 C   0  0  0  0  0  0  0  0  0  0  0  0
  139.2730   68.8710  224.1800 C   0  0  0  0  0  0  0  0  0  0  0  0
  139.8560   69.3630  225.3150 C   0  0  0  0  0  0  0  0  0  0  0  0
  140.0340   68.5950  226.4650 C   0  0  0  0  0  0  0  0  0  0  0  0
  140.6180   69.1040  227.5910 C   0  0  0  0  0  0  0  0  0  0  0  0
  140.8430   68.1340  229.0420 Cl  0  0  0  0  0  0  0  0  0  0  0  0
  141.0520   70.4120  227.6080 C   0  0  0  0  0  0  0  0  0  0  0  0
  140.8730   71.1720  226.4660 C   0  0  0  0  0  0  0  0  0  0  0  0
  140.2840   70.6730  225.3180 C   0  0  0  0  0  0  0  0  0  0  0  0
  140.1370   71.4460  224.2460 N   0  0  0  0  0  0  0  0  0  0  0  0
  140.0230   73.5890  223.0400 H   0  0  0  0  0  0  0  0  0  0  0  0
  139.5196   73.6349  220.0297 H   0  0  0  0  0  0  0  0  0  0  0  0
  138.6721   74.7934  221.0907 H   0  0  0  0  0  0  0  0  0  0  0  0
  139.8365   75.6688  218.2888 H   0  0  0  0  0  0  0  0  0  0  0  0
  139.8773   77.0148  219.5157 H   0  0  0  0  0  0  0  0  0  0  0  0
  141.2857   76.6759  216.9713 H   0  0  0  0  0  0  0  0  0  0  0  0
  140.7094   78.1633  217.9348 H   0  0  0  0  0  0  0  0  0  0  0  0
  143.2301   77.5440  217.3763 H   0  0  0  0  0  0  0  0  0  0  0  0
  142.5530   78.5370  218.7932 H   0  0  0  0  0  0  0  0  0  0  0  0
  144.3854   76.5923  219.0209 H   0  0  0  0  0  0  0  0  0  0  0  0
  143.2502   77.1297  220.2942 H   0  0  0  0  0  0  0  0  0  0  0  0
  142.5535   74.8482  218.2844 H   0  0  0  0  0  0  0  0  0  0  0  0
  142.3860   72.4900  219.9748 H   0  0  0  0  0  0  0  0  0  0  0  0
  144.4440   71.5360  221.2520 H   0  0  0  0  0  0  0  0  0  0  0  0
  146.2109   73.4317  221.5432 H   0  0  0  0  0  0  0  0  0  0  0  0
  138.6713   69.3029  222.1850 H   0  0  0  0  0  0  0  0  0  0  0  0
  138.9185   67.8305  224.1386 H   0  0  0  0  0  0  0  0  0  0  0  0
  139.6944   67.5487  226.4661 H   0  0  0  0  0  0  0  0  0  0  0  0
  141.5269   70.8392  228.5035 H   0  0  0  0  0  0  0  0  0  0  0  0
  141.2136   72.2179  226.4710 H   0  0  0  0  0  0  0  0  0  0  0  0
  1  2  2  0
  2  3  1  0
  3  4  1  0
  4  5  1  0
  5  6  2  0
  5  7  1  0
  7  8  1  0
  8  9  1  0
  9 10  1  0
 10 11  1  0
 11 12  1  0
 12 13  1  0
 13 14  2  0
 14 15  1  0
 15 16  1  0
 16 17  2  0
  2 18  1  0
 18 19  2  0
 19 20  1  0
 20 21  2  0
 21 22  1  0
 22 23  2  0
 23 24  1  0
 23 25  1  0
 25 26  2  0
 26 27  1  0
 27 28  2  0
 12  7  1  0
 17 13  1  0
 28 18  1  0
 27 21  1  0
  3 29  1  0
  4 30  1  0
  4 31  1  0
  8 32  1  0
  8 33  1  0
  9 34  1  0
  9 35  1  0
 10 36  1  0
 10 37  1  0
 11 38  1  0
 11 39  1  0
 12 40  1  6
 14 41  1  0
 15 42  1  0
 16 43  1  0
 19 44  1  0
 20 45  1  0
 22 46  1  0
 25 47  1  0
 26 48  1  0
M  END
>  <smiles>  (1) 
O=C(NCC(=O)N1CCCC[C@H]1c1c[nH]cn1)c1ccc2cc(Cl)ccc2n1

>  <score_type>  (1) 
oracle

>  <origin>  (1) 
autodockgpu

>  <m_score__min__energy>  (1) 
-8.7100000000000009

>  <m_primary>  (1) 
energy

>  <rmsd>  (1) 
2.536749359456536

>  <m_score__min__rmsd>  (1) 
2.536749359456536

>  <meeko>  (1) 
{"free_energy": -7.52, "intermolecular_energy": -9.01, "internal_energy": -1.98, "cluster_size": 17, "cluster_id": 3, "rank_in_cluster": 14}

>  <energy>  (1) 
-8.71

>  <cluster_rmsd>  (1) 
0.0

>  <cluster>  (1) 
1

$$$$

     RDKit          3D

 48 51  0  0  0  0  0  0  0  0999 V2000
  139.7290   71.9590  220.8510 O   0  0  0  0  0  0  0  0  0  0  0  0
  139.7010   72.3980  222.0240 C   0  0  0  0  0  0  0  0  0  0  0  0
  139.5580   73.7800  222.3280 N   0  0  0  0  0  0  0  0  0  0  0  0
  139.4330   74.7940  221.2940 C   0  0  0  0  0  0  0  0  0  0  0  0
  140.7570   75.5050  221.1800 C   0  0  0  0  0  0  0  0  0  0  0  0
  141.3030   75.7940  222.2710 O   0  0  0  0  0  0  0  0  0  0  0  0
  141.2950   75.7980  219.9030 N   0  0  0  0  0  0  0  0  0  0  0  0
  140.6310   76.8090  219.0710 C   0  0  0  0  0  0  0  0  0  0  0  0
  141.5350   77.3990  218.0490 C   0  0  0  0  0  0  0  0  0  0  0  0
  142.9900   77.3400  218.2910 C   0  0  0  0  0  0  0  0  0  0  0  0
  143.4830   76.3170  219.2490 C   0  0  0  0  0  0  0  0  0  0  0  0
  142.4610   75.2000  219.3240 C   0  0  1  0  0  0  0  0  0  0  0  0
  143.0540   74.0550  219.9700 C   0  0  0  0  0  0  0  0  0  0  0  0
  144.3250   73.8860  220.4780 C   0  0  0  0  0  0  0  0  0  0  0  0
  144.4780   72.6550  220.9970 N   0  0  0  0  0  0  0  0  0  0  0  0
  143.3020   72.0280  220.8230 C   0  0  0  0  0  0  0  0  0  0  0  0
  142.4420   72.8550  220.2090 N   0  0  0  0  0  0  0  0  0  0  0  0
  139.8200   71.4370  223.1380 C   0  0  0  0  0  0  0  0  0  0  0  0
  139.4280   70.1330  222.9880 C   0  0  0  0  0  0  0  0  0  0  0  0
  139.5320   69.2320  224.0060 C   0  0  0  0  0  0  0  0  0  0  0  0
  140.0410   69.6480  225.2050 C   0  0  0  0  0  0  0  0  0  0  0  0
  140.1840   68.7970  226.2990 C   0  0  0  0  0  0  0  0  0  0  0  0
  140.6950   69.2300  227.4910 C   0  0  0  0  0  0  0  0  0  0  0  0
  140.8740   68.1560  228.8730 Cl  0  0  0  0  0  0  0  0  0  0  0  0
  141.0870   70.5440  227.6320 C   0  0  0  0  0  0  0  0  0  0  0  0
  140.9440   71.3860  226.5440 C   0  0  0  0  0  0  0  0  0  0  0  0
  140.4290   70.9650  225.3320 C   0  0  0  0  0  0  0  0  0  0  0  0
  140.3140   71.8160  224.3160 N   0  0  0  0  0  0  0  0  0  0  0  0
  139.5460   74.0510  223.3520 H   0  0  0  0  0  0  0  0  0  0  0  0
  139.1795   74.3199  220.3343 H   0  0  0  0  0  0  0  0  0  0  0  0
  138.6360   75.5072  221.5511 H   0  0  0  0  0  0  0  0  0  0  0  0
  139.7802   76.3376  218.5573 H   0  0  0  0  0  0  0  0  0  0  0  0
  140.3066   77.6233  219.7355 H   0  0  0  0  0  0  0  0  0  0  0  0
  141.3402   76.8773  217.1004 H   0  0  0  0  0  0  0  0  0  0  0  0
  141.2987   78.4732  218.0619 H   0  0  0  0  0  0  0  0  0  0  0  0
  143.4778   77.1485  217.3239 H   0  0  0  0  0  0  0  0  0  0  0  0
  143.2367   78.3048  218.7582 H   0  0  0  0  0  0  0  0  0  0  0  0
  144.4466   75.9162  218.9013 H   0  0  0  0  0  0  0  0  0  0  0  0
  143.6248   76.7669  220.2427 H   0  0  0  0  0  0  0  0  0  0  0  0
  142.1366   74.7694  218.3651 H   0  0  0  0  0  0  0  0  0  0  0  0
  145.1099   74.6565  220.4609 H   0  0  0  0  0  0  0  0  0  0  0  0
  145.3400   72.2590  221.4480 H   0  0  0  0  0  0  0  0  0  0  0  0
  143.0792   70.9971  221.1354 H   0  0  0  0  0  0  0  0  0  0  0  0
  139.0187   69.8044  222.0213 H   0  0  0  0  0  0  0  0  0  0  0  0
  139.2121   68.1890  223.8653 H   0  0  0  0  0  0  0  0  0  0  0  0
  139.8766   67.7454  226.2007 H   0  0  0  0  0  0  0  0  0  0  0  0
  141.5015   70.9122  228.5821 H   0  0  0  0  0  0  0  0  0  0  0  0
  141.2535   72.4365  226.6476 H   0  0  0  0  0  0  0  0  0  0  0  0
  1  2  2  0
  2  3  1  0
  3  4  1  0
  4  5  1  0
  5  6  2  0
  5  7  1  0
  7  8  1  0
  8  9  1  0
  9 10  1  0
 10 11  1  0
 11 12  1  0
 12 13  1  0
 13 14  2  0
 14 15  1  0
 15 16  1  0
 16 17  2  0
  2 18  1  0
 18 19  2  0
 19 20  1  0
 20 21  2  0
 21 22  1  0
 22 23  2  0
 23 24  1  0
 23 25  1  0
 25 26  2  0
 26 27  1  0
 27 28  2  0
 12  7  1  0
 17 13  1  0
 28 18  1  0
 27 21  1  0
  3 29  1  0
  4 30  1  0
  4 31  1  0
  8 32  1  0
  8 33  1  0
  9 34  1  0
  9 35  1  0
 10 36  1  0
 10 37  1  0
 11 38  1  0
 11 39  1  0
 12 40  1  6
 14 41  1  0
 15 42  1  0
 16 43  1  0
 19 44  1  0
 20 45  1  0
 22 46  1  0
 25 47  1  0
 26 48  1  0
M  END
>  <smiles>  (2) 
O=C(NCC(=O)N1CCCC[C@H]1c1c[nH]cn1)c1ccc2cc(Cl)ccc2n1

>  <score_type>  (2) 
oracle

>  <origin>  (2) 
autodockgpu

>  <m_score__min__energy>  (2) 
-8.7100000000000009

>  <m_primary>  (2) 
energy

>  <rmsd>  (2) 
2.7785048933411565

>  <m_score__min__rmsd>  (2) 
2.7785048933411565

>  <meeko>  (2) 
{"free_energy": -7.7, "intermolecular_energy": -9.19, "internal_energy": -1.95, "cluster_size": 17, "cluster_id": 3, "rank_in_cluster": 6}

>  <energy>  (2) 
-8.7

>  <cluster_rmsd>  (2) 
0.14

>  <cluster>  (2) 
1

$$$$

     RDKit          3D

 48 51  0  0  0  0  0  0  0  0999 V2000
  140.1840   72.4140  220.6480 O   0  0  0  0  0  0  0  0  0  0  0  0
  139.9680   72.8460  221.8040 C   0  0  0  0  0  0  0  0  0  0  0  0
  139.7490   74.2220  222.0860 N   0  0  0  0  0  0  0  0  0  0  0  0
  139.7590   75.2390  221.0480 C   0  0  0  0  0  0  0  0  0  0  0  0
  140.5580   76.4120  221.5550 C   0  0  0  0  0  0  0  0  0  0  0  0
  140.3480   76.7230  222.7520 O   0  0  0  0  0  0  0  0  0  0  0  0
  141.4670   77.0740  220.6940 N   0  0  0  0  0  0  0  0  0  0  0  0
  142.0750   76.3190  219.5920 C   0  0  0  0  0  0  0  0  0  0  0  0
  142.5560   77.1930  218.4900 C   0  0  0  0  0  0  0  0  0  0  0  0
  141.9500   78.5330  218.3520 C   0  0  0  0  0  0  0  0  0  0  0  0
  141.2810   79.1070  219.5480 C   0  0  0  0  0  0  0  0  0  0  0  0
  141.8610   78.4480  220.7830 C   0  0  1  0  0  0  0  0  0  0  0  0
  141.4840   79.2100  221.9490 C   0  0  0  0  0  0  0  0  0  0  0  0
  142.2730   79.7850  222.9220 C   0  0  0  0  0  0  0  0  0  0  0  0
  141.5220   80.4090  223.8470 N   0  0  0  0  0  0  0  0  0  0  0  0
  140.2440   80.2360  223.4680 C   0  0  0  0  0  0  0  0  0  0  0  0
  140.2080   79.5200  222.3330 N   0  0  0  0  0  0  0  0  0  0  0  0
  139.9390   71.8810  222.9200 C   0  0  0  0  0  0  0  0  0  0  0  0
  139.4040   70.6310  222.7570 C   0  0  0  0  0  0  0  0  0  0  0  0
  139.3690   69.7270  223.7770 C   0  0  0  0  0  0  0  0  0  0  0  0
  139.8840   70.0860  224.9930 C   0  0  0  0  0  0  0  0  0  0  0  0
  139.8920   69.2270  226.0910 C   0  0  0  0  0  0  0  0  0  0  0  0
  140.4110   69.6020  227.2990 C   0  0  0  0  0  0  0  0  0  0  0  0
  140.4190   68.5190  228.6850 Cl  0  0  0  0  0  0  0  0  0  0  0  0
  140.9470   70.8620  227.4530 C   0  0  0  0  0  0  0  0  0  0  0  0
  140.9380   71.7120  226.3610 C   0  0  0  0  0  0  0  0  0  0  0  0
  140.4180   71.3490  225.1330 C   0  0  0  0  0  0  0  0  0  0  0  0
  140.4340   72.2040  224.1140 N   0  0  0  0  0  0  0  0  0  0  0  0
  139.5750   74.4870  223.0970 H   0  0  0  0  0  0  0  0  0  0  0  0
  140.2236   74.8369  220.1356 H   0  0  0  0  0  0  0  0  0  0  0  0
  138.7318   75.5508  220.8077 H   0  0  0  0  0  0  0  0  0  0  0  0
  142.9290   75.7486  219.9861 H   0  0  0  0  0  0  0  0  0  0  0  0
  141.2996   75.6588  219.1761 H   0  0  0  0  0  0  0  0  0  0  0  0
  143.6370   77.3363  218.6345 H   0  0  0  0  0  0  0  0  0  0  0  0
  142.2627   76.6633  217.5717 H   0  0  0  0  0  0  0  0  0  0  0  0
  142.7496   79.2279  218.0558 H   0  0  0  0  0  0  0  0  0  0  0  0
  141.1445   78.4030  217.6143 H   0  0  0  0  0  0  0  0  0  0  0  0
  141.4582   80.1919  219.5879 H   0  0  0  0  0  0  0  0  0  0  0  0
  140.1970   78.9271  219.4974 H   0  0  0  0  0  0  0  0  0  0  0  0
  142.9579   78.4437  220.8656 H   0  0  0  0  0  0  0  0  0  0  0  0
  143.3719   79.7395  222.9397 H   0  0  0  0  0  0  0  0  0  0  0  0
  141.8610   80.9280  224.6950 H   0  0  0  0  0  0  0  0  0  0  0  0
  139.3644   80.6212  224.0045 H   0  0  0  0  0  0  0  0  0  0  0  0
  138.9915   70.3488  221.7771 H   0  0  0  0  0  0  0  0  0  0  0  0
  138.9349   68.7277  223.6253 H   0  0  0  0  0  0  0  0  0  0  0  0
  139.4682   68.2177  225.9822 H   0  0  0  0  0  0  0  0  0  0  0  0
  141.3699   71.1830  228.4164 H   0  0  0  0  0  0  0  0  0  0  0  0
  141.3631   72.7201  226.4753 H   0  0  0  0  0  0  0  0  0  0  0  0
  1  2  2  0
  2  3  1  0
  3  4  1  0
  4  5  1  0
  5  6  2  0
  5  7  1  0
  7  8  1  0
  8  9  1  0
  9 10  1  0
 10 11  1  0
 11 12  1  0
 12 13  1  0
 13 14  2  0
 14 15  1  0
 15 16  1  0
 16 17  2  0
  2 18  1  0
 18 19  2  0
 19 20  1  0
 20 21  2  0
 21 22  1  0
 22 23  2  0
 23 24  1  0
 23 25  1  0
 25 26  2  0
 26 27  1  0
 27 28  2  0
 12  7  1  0
 17 13  1  0
 28 18  1  0
 27 21  1  0
  3 29  1  0
  4 30  1  0
  4 31  1  0
  8 32  1  0
  8 33  1  0
  9 34  1  0
  9 35  1  0
 10 36  1  0
 10 37  1  0
 11 38  1  0
 11 39  1  0
 12 40  1  6
 14 41  1  0
 15 42  1  0
 16 43  1  0
 19 44  1  0
 20 45  1  0
 22 46  1  0
 25 47  1  0
 26 48  1  0
M  END
>  <smiles>  (3) 
O=C(NCC(=O)N1CCCC[C@H]1c1c[nH]cn1)c1ccc2cc(Cl)ccc2n1

>  <score_type>  (3) 
oracle

>  <origin>  (3) 
autodockgpu

>  <m_score__min__energy>  (3) 
-8.7100000000000009

>  <m_primary>  (3) 
energy

>  <rmsd>  (3) 
2.175966751011727

>  <m_score__min__rmsd>  (3) 
2.175966751011727

>  <meeko>  (3) 
{"free_energy": -7.98, "intermolecular_energy": -9.47, "internal_energy": -1.66, "cluster_size": 9, "cluster_id": 2, "rank_in_cluster": 3}

>  <energy>  (3) 
-8.7

>  <cluster_rmsd>  (3) 
0.11

>  <cluster>  (3) 
1

$$$$

     RDKit          3D

 48 51  0  0  0  0  0  0  0  0999 V2000
  140.2890   72.4260  220.7030 O   0  0  0  0  0  0  0  0  0  0  0  0
  139.9950   72.8380  221.8500 C   0  0  0  0  0  0  0  0  0  0  0  0
  139.6610   74.1930  222.1210 N   0  0  0  0  0  0  0  0  0  0  0  0
  139.6330   75.2090  221.0830 C   0  0  0  0  0  0  0  0  0  0  0  0
  140.4410   76.3870  221.5660 C   0  0  0  0  0  0  0  0  0  0  0  0
  140.1650   76.7850  222.7230 O   0  0  0  0  0  0  0  0  0  0  0  0
  141.4280   76.9590  220.7270 N   0  0  0  0  0  0  0  0  0  0  0  0
  141.9380   76.1730  219.5960 C   0  0  0  0  0  0  0  0  0  0  0  0
  142.5270   77.0190  218.5250 C   0  0  0  0  0  0  0  0  0  0  0  0
  142.0960   78.4290  218.4380 C   0  0  0  0  0  0  0  0  0  0  0  0
  141.5020   79.0400  219.6550 C   0  0  0  0  0  0  0  0  0  0  0  0
  141.9920   78.2690  220.8640 C   0  0  1  0  0  0  0  0  0  0  0  0
  141.7130   79.0300  222.0580 C   0  0  0  0  0  0  0  0  0  0  0  0
  140.9820   80.1880  222.2170 C   0  0  0  0  0  0  0  0  0  0  0  0
  140.9700   80.5780  223.5040 N   0  0  0  0  0  0  0  0  0  0  0  0
  141.6960   79.6680  224.1770 C   0  0  0  0  0  0  0  0  0  0  0  0
  142.1460   78.7360  223.3220 N   0  0  0  0  0  0  0  0  0  0  0  0
  139.9970   71.8720  222.9650 C   0  0  0  0  0  0  0  0  0  0  0  0
  139.4820   70.6120  222.8070 C   0  0  0  0  0  0  0  0  0  0  0  0
  139.4750   69.7070  223.8260 C   0  0  0  0  0  0  0  0  0  0  0  0
  139.9990   70.0730  225.0360 C   0  0  0  0  0  0  0  0  0  0  0  0
  140.0340   69.2140  226.1330 C   0  0  0  0  0  0  0  0  0  0  0  0
  140.5610   69.5970  227.3350 C   0  0  0  0  0  0  0  0  0  0  0  0
  140.6050   68.5120  228.7200 Cl  0  0  0  0  0  0  0  0  0  0  0  0
  141.0780   70.8660  227.4840 C   0  0  0  0  0  0  0  0  0  0  0  0
  141.0410   71.7160  226.3940 C   0  0  0  0  0  0  0  0  0  0  0  0
  140.5110   71.3450  225.1710 C   0  0  0  0  0  0  0  0  0  0  0  0
  140.5010   72.2010  224.1530 N   0  0  0  0  0  0  0  0  0  0  0  0
  139.4280   74.4410  223.1240 H   0  0  0  0  0  0  0  0  0  0  0  0
  140.0717   74.8093  220.1568 H   0  0  0  0  0  0  0  0  0  0  0  0
  138.5973   75.5146  220.8736 H   0  0  0  0  0  0  0  0  0  0  0  0
  142.7127   75.4856  219.9667 H   0  0  0  0  0  0  0  0  0  0  0  0
  141.0864   75.6310  219.1589 H   0  0  0  0  0  0  0  0  0  0  0  0
  143.6173   77.0188  218.6708 H   0  0  0  0  0  0  0  0  0  0  0  0
  142.1697   76.5648  217.5890 H   0  0  0  0  0  0  0  0  0  0  0  0
  142.9781   79.0272  218.1657 H   0  0  0  0  0  0  0  0  0  0  0  0
  141.2819   78.4285  217.6982 H   0  0  0  0  0  0  0  0  0  0  0  0
  141.8145   80.0918  219.7332 H   0  0  0  0  0  0  0  0  0  0  0  0
  140.4040   79.0007  219.6007 H   0  0  0  0  0  0  0  0  0  0  0  0
  143.0795   78.1234  220.9429 H   0  0  0  0  0  0  0  0  0  0  0  0
  140.4756   80.7222  221.3995 H   0  0  0  0  0  0  0  0  0  0  0  0
  140.4920   81.4220  223.9070 H   0  0  0  0  0  0  0  0  0  0  0  0
  141.8908   79.6847  225.2595 H   0  0  0  0  0  0  0  0  0  0  0  0
  139.0631   70.3233  221.8317 H   0  0  0  0  0  0  0  0  0  0  0  0
  139.0558   68.7008  223.6785 H   0  0  0  0  0  0  0  0  0  0  0  0
  139.6256   68.1980  226.0286 H   0  0  0  0  0  0  0  0  0  0  0  0
  141.5076   71.1931  228.4423 H   0  0  0  0  0  0  0  0  0  0  0  0
  141.4506   72.7310  226.5040 H   0  0  0  0  0  0  0  0  0  0  0  0
  1  2  2  0
  2  3  1  0
  3  4  1  0
  4  5  1  0
  5  6  2  0
  5  7  1  0
  7  8  1  0
  8  9  1  0
  9 10  1  0
 10 11  1  0
 11 12  1  0
 12 13  1  0
 13 14  2  0
 14 15  1  0
 15 16  1  0
 16 17  2  0
  2 18  1  0
 18 19  2  0
 19 20  1  0
 20 21  2  0
 21 22  1  0
 22 23  2  0
 23 24  1  0
 23 25  1  0
 25 26  2  0
 26 27  1  0
 27 28  2  0
 12  7  1  0
 17 13  1  0
 28 18  1  0
 27 21  1  0
  3 29  1  0
  4 30  1  0
  4 31  1  0
  8 32  1  0
  8 33  1  0
  9 34  1  0
  9 35  1  0
 10 36  1  0
 10 37  1  0
 11 38  1  0
 11 39  1  0
 12 40  1  6
 14 41  1  0
 15 42  1  0
 16 43  1  0
 19 44  1  0
 20 45  1  0
 22 46  1  0
 25 47  1  0
 26 48  1  0
M  END
>  <smiles>  (4) 
O=C(NCC(=O)N1CCCC[C@H]1c1c[nH]cn1)c1ccc2cc(Cl)ccc2n1

>  <score_type>  (4) 
oracle

>  <origin>  (4) 
autodockgpu

>  <m_score__min__energy>  (4) 
-8.7100000000000009

>  <m_primary>  (4) 
energy

>  <rmsd>  (4) 
2.1494940208509057

>  <m_score__min__rmsd>  (4) 
2.1494940208509057

>  <meeko>  (4) 
{"free_energy": -7.94, "intermolecular_energy": -9.43, "internal_energy": -1.53, "cluster_size": 9, "cluster_id": 2, "rank_in_cluster": 6}

>  <energy>  (4) 
-8.68

>  <cluster_rmsd>  (4) 
0.16

>  <cluster>  (4) 
1

$$$$

     RDKit          3D

 48 51  0  0  0  0  0  0  0  0999 V2000
  138.9760   71.4510  220.9310 O   0  0  0  0  0  0  0  0  0  0  0  0
  139.3360   71.9590  222.0190 C   0  0  0  0  0  0  0  0  0  0  0  0
  139.5760   73.3510  222.1790 N   0  0  0  0  0  0  0  0  0  0  0  0
  139.4200   74.2970  221.0870 C   0  0  0  0  0  0  0  0  0  0  0  0
  140.5760   75.2620  221.1410 C   0  0  0  0  0  0  0  0  0  0  0  0
  140.9150   75.6250  222.2930 O   0  0  0  0  0  0  0  0  0  0  0  0
  141.1950   75.6920  219.9420 N   0  0  0  0  0  0  0  0  0  0  0  0
  140.5460   76.7430  219.1480 C   0  0  0  0  0  0  0  0  0  0  0  0
  141.4950   77.4620  218.2570 C   0  0  0  0  0  0  0  0  0  0  0  0
  142.9290   77.4460  218.6120 C   0  0  0  0  0  0  0  0  0  0  0  0
  143.3980   76.3640  219.5160 C   0  0  0  0  0  0  0  0  0  0  0  0
  142.4320   75.2010  219.4110 C   0  0  1  0  0  0  0  0  0  0  0  0
  143.0320   74.0300  220.0020 C   0  0  0  0  0  0  0  0  0  0  0  0
  144.3210   73.8250  220.4450 C   0  0  0  0  0  0  0  0  0  0  0  0
  144.4730   72.5800  220.9290 N   0  0  0  0  0  0  0  0  0  0  0  0
  143.2780   71.9790  220.7980 C   0  0  0  0  0  0  0  0  0  0  0  0
  142.4070   72.8370  220.2440 N   0  0  0  0  0  0  0  0  0  0  0  0
  139.5190   71.0700  223.1820 C   0  0  0  0  0  0  0  0  0  0  0  0
  139.1040   69.7650  223.1440 C   0  0  0  0  0  0  0  0  0  0  0  0
  139.2650   68.9300  224.2100 C   0  0  0  0  0  0  0  0  0  0  0  0
  139.8580   69.4150  225.3430 C   0  0  0  0  0  0  0  0  0  0  0  0
  140.0640   68.6340  226.4790 C   0  0  0  0  0  0  0  0  0  0  0  0
  140.6580   69.1360  227.6040 C   0  0  0  0  0  0  0  0  0  0  0  0
  140.9180   68.1500  229.0380 Cl  0  0  0  0  0  0  0  0  0  0  0  0
  141.0740   70.4490  227.6320 C   0  0  0  0  0  0  0  0  0  0  0  0
  140.8680   71.2220  226.5030 C   0  0  0  0  0  0  0  0  0  0  0  0
  140.2680   70.7310  225.3580 C   0  0  0  0  0  0  0  0  0  0  0  0
  140.0950   71.5160  224.2980 N   0  0  0  0  0  0  0  0  0  0  0  0
  139.8790   73.6810  223.1390 H   0  0  0  0  0  0  0  0  0  0  0  0
  139.4243   73.7622  220.1258 H   0  0  0  0  0  0  0  0  0  0  0  0
  138.4660   74.8365  221.1810 H   0  0  0  0  0  0  0  0  0  0  0  0
  139.7628   76.2820  218.5282 H   0  0  0  0  0  0  0  0  0  0  0  0
  140.1297   77.4794  219.8511 H   0  0  0  0  0  0  0  0  0  0  0  0
  141.4015   77.0191  217.2545 H   0  0  0  0  0  0  0  0  0  0  0  0
  141.2033   78.5192  218.3418 H   0  0  0  0  0  0  0  0  0  0  0  0
  143.4998   77.3638  217.6753 H   0  0  0  0  0  0  0  0  0  0  0  0
  143.0886   78.3750  219.1790 H   0  0  0  0  0  0  0  0  0  0  0  0
  144.4049   76.0390  219.2153 H   0  0  0  0  0  0  0  0  0  0  0  0
  143.4390   76.7289  220.5529 H   0  0  0  0  0  0  0  0  0  0  0  0
  142.2048   74.8445  218.3955 H   0  0  0  0  0  0  0  0  0  0  0  0
  145.1198   74.5803  220.4075 H   0  0  0  0  0  0  0  0  0  0  0  0
  145.3480   72.1570  221.3300 H   0  0  0  0  0  0  0  0  0  0  0  0
  143.0495   70.9456  221.0979 H   0  0  0  0  0  0  0  0  0  0  0  0
  138.6285   69.3806  222.2296 H   0  0  0  0  0  0  0  0  0  0  0  0
  138.9241   67.8854  224.1596 H   0  0  0  0  0  0  0  0  0  0  0  0
  139.7393   67.5831  226.4704 H   0  0  0  0  0  0  0  0  0  0  0  0
  141.5561   70.8708  228.5262 H   0  0  0  0  0  0  0  0  0  0  0  0
  141.1955   72.2720  226.5169 H   0  0  0  0  0  0  0  0  0  0  0  0
  1  2  2  0
  2  3  1  0
  3  4  1  0
  4  5  1  0
  5  6  2  0
  5  7  1  0
  7  8  1  0
  8  9  1  0
  9 10  1  0
 10 11  1  0
 11 12  1  0
 12 13  1  0
 13 14  2  0
 14 15  1  0
 15 16  1  0
 16 17  2  0
  2 18  1  0
 18 19  2  0
 19 20  1  0
 20 21  2  0
 21 22  1  0
 22 23  2  0
 23 24  1  0
 23 25  1  0
 25 26  2  0
 26 27  1  0
 27 28  2  0
 12  7  1  0
 17 13  1  0
 28 18  1  0
 27 21  1  0
  3 29  1  0
  4 30  1  0
  4 31  1  0
  8 32  1  0
  8 33  1  0
  9 34  1  0
  9 35  1  0
 10 36  1  0
 10 37  1  0
 11 38  1  0
 11 39  1  0
 12 40  1  6
 14 41  1  0
 15 42  1  0
 16 43  1  0
 19 44  1  0
 20 45  1  0
 22 46  1  0
 25 47  1  0
 26 48  1  0
M  END
>  <smiles>  (5) 
O=C(NCC(=O)N1CCCC[C@H]1c1c[nH]cn1)c1ccc2cc(Cl)ccc2n1

>  <score_type>  (5) 
oracle

>  <origin>  (5) 
autodockgpu

>  <m_score__min__energy>  (5) 
-8.7100000000000009

>  <m_primary>  (5) 
energy

>  <rmsd>  (5) 
2.724488880430728

>  <m_score__min__rmsd>  (5) 
2.724488880430728

>  <meeko>  (5) 
{"free_energy": -7.63, "intermolecular_energy": -9.12, "internal_energy": -2.17, "cluster_size": 17, "cluster_id": 3, "rank_in_cluster": 10}

>  <energy>  (5) 
-8.67

>  <cluster_rmsd>  (5) 
0.2

>  <cluster>  (5) 
1

$$$$

     RDKit          3D

 48 51  0  0  0  0  0  0  0  0999 V2000
  139.1320   71.4110  220.8920 O   0  0  0  0  0  0  0  0  0  0  0  0
  139.3770   71.9340  222.0040 C   0  0  0  0  0  0  0  0  0  0  0  0
  139.5010   73.3390  222.1860 N   0  0  0  0  0  0  0  0  0  0  0  0
  139.3510   74.2810  221.0900 C   0  0  0  0  0  0  0  0  0  0  0  0
  140.4810   75.2750  221.1740 C   0  0  0  0  0  0  0  0  0  0  0  0
  140.7720   75.6530  222.3340 O   0  0  0  0  0  0  0  0  0  0  0  0
  141.1280   75.7120  219.9930 N   0  0  0  0  0  0  0  0  0  0  0  0
  140.5280   76.8070  219.2210 C   0  0  0  0  0  0  0  0  0  0  0  0
  141.5130   77.5130  218.3590 C   0  0  0  0  0  0  0  0  0  0  0  0
  142.9400   77.4340  218.7280 C   0  0  0  0  0  0  0  0  0  0  0  0
  143.3590   76.3120  219.6070 C   0  0  0  0  0  0  0  0  0  0  0  0
  142.3520   75.1890  219.4620 C   0  0  1  0  0  0  0  0  0  0  0  0
  142.9020   73.9820  220.0280 C   0  0  0  0  0  0  0  0  0  0  0  0
  144.1940   73.6930  220.4100 C   0  0  0  0  0  0  0  0  0  0  0  0
  144.2880   72.4400  220.8910 N   0  0  0  0  0  0  0  0  0  0  0  0
  143.0500   71.9200  220.8190 C   0  0  0  0  0  0  0  0  0  0  0  0
  142.2120   72.8330  220.3040 N   0  0  0  0  0  0  0  0  0  0  0  0
  139.5440   71.0510  223.1750 C   0  0  0  0  0  0  0  0  0  0  0  0
  139.1100   69.7520  223.1450 C   0  0  0  0  0  0  0  0  0  0  0  0
  139.2570   68.9230  224.2170 C   0  0  0  0  0  0  0  0  0  0  0  0
  139.8530   69.4070  225.3480 C   0  0  0  0  0  0  0  0  0  0  0  0
  140.0440   68.6320  226.4900 C   0  0  0  0  0  0  0  0  0  0  0  0
  140.6430   69.1320  227.6130 C   0  0  0  0  0  0  0  0  0  0  0  0
  140.8840   68.1530  229.0550 Cl  0  0  0  0  0  0  0  0  0  0  0  0
  141.0770   70.4400  227.6330 C   0  0  0  0  0  0  0  0  0  0  0  0
  140.8850   71.2070  226.4980 C   0  0  0  0  0  0  0  0  0  0  0  0
  140.2820   70.7170  225.3550 C   0  0  0  0  0  0  0  0  0  0  0  0
  140.1230   71.4970  224.2890 N   0  0  0  0  0  0  0  0  0  0  0  0
  139.7100   73.6830  223.1660 H   0  0  0  0  0  0  0  0  0  0  0  0
  139.3943   73.7466  220.1295 H   0  0  0  0  0  0  0  0  0  0  0  0
  138.3818   74.7967  221.1585 H   0  0  0  0  0  0  0  0  0  0  0  0
  139.7350   76.3924  218.5813 H   0  0  0  0  0  0  0  0  0  0  0  0
  140.1320   77.5399  219.9394 H   0  0  0  0  0  0  0  0  0  0  0  0
  141.4144   77.1002  217.3442 H   0  0  0  0  0  0  0  0  0  0  0  0
  141.2598   78.5779  218.4685 H   0  0  0  0  0  0  0  0  0  0  0  0
  143.5179   77.3557  217.7953 H   0  0  0  0  0  0  0  0  0  0  0  0
  143.1270   78.3408  219.3219 H   0  0  0  0  0  0  0  0  0  0  0  0
  144.3563   75.9577  219.3072 H   0  0  0  0  0  0  0  0  0  0  0  0
  143.4025   76.6478  220.6536 H   0  0  0  0  0  0  0  0  0  0  0  0
  142.1227   74.8673  218.4354 H   0  0  0  0  0  0  0  0  0  0  0  0
  145.0377   74.3945  220.3320 H   0  0  0  0  0  0  0  0  0  0  0  0
  145.1510   71.9620  221.2510 H   0  0  0  0  0  0  0  0  0  0  0  0
  142.7680   70.9043  221.1333 H   0  0  0  0  0  0  0  0  0  0  0  0
  138.6306   69.3681  222.2324 H   0  0  0  0  0  0  0  0  0  0  0  0
  138.9022   67.8827  224.1727 H   0  0  0  0  0  0  0  0  0  0  0  0
  139.7026   67.5863  226.4882 H   0  0  0  0  0  0  0  0  0  0  0  0
  141.5620   70.8618  228.5257 H   0  0  0  0  0  0  0  0  0  0  0  0
  141.2271   72.2524  226.5055 H   0  0  0  0  0  0  0  0  0  0  0  0
  1  2  2  0
  2  3  1  0
  3  4  1  0
  4  5  1  0
  5  6  2  0
  5  7  1  0
  7  8  1  0
  8  9  1  0
  9 10  1  0
 10 11  1  0
 11 12  1  0
 12 13  1  0
 13 14  2  0
 14 15  1  0
 15 16  1  0
 16 17  2  0
  2 18  1  0
 18 19  2  0
 19 20  1  0
 20 21  2  0
 21 22  1  0
 22 23  2  0
 23 24  1  0
 23 25  1  0
 25 26  2  0
 26 27  1  0
 27 28  2  0
 12  7  1  0
 17 13  1  0
 28 18  1  0
 27 21  1  0
  3 29  1  0
  4 30  1  0
  4 31  1  0
  8 32  1  0
  8 33  1  0
  9 34  1  0
  9 35  1  0
 10 36  1  0
 10 37  1  0
 11 38  1  0
 11 39  1  0
 12 40  1  6
 14 41  1  0
 15 42  1  0
 16 43  1  0
 19 44  1  0
 20 45  1  0
 22 46  1  0
 25 47  1  0
 26 48  1  0
M  END
>  <smiles>  (6) 
O=C(NCC(=O)N1CCCC[C@H]1c1c[nH]cn1)c1ccc2cc(Cl)ccc2n1

>  <score_type>  (6) 
oracle

>  <origin>  (6) 
autodockgpu

>  <m_score__min__energy>  (6) 
-8.7100000000000009

>  <m_primary>  (6) 
energy

>  <rmsd>  (6) 
2.7211061736253113

>  <m_score__min__rmsd>  (6) 
2.7211061736253113

>  <meeko>  (6) 
{"free_energy": -7.67, "intermolecular_energy": -9.16, "internal_energy": -2.16, "cluster_size": 17, "cluster_id": 3, "rank_in_cluster": 7}

>  <energy>  (6) 
-8.65

>  <cluster_rmsd>  (6) 
0.2

>  <cluster>  (6) 
1

$$$$

     RDKit          3D

 48 51  0  0  0  0  0  0  0  0999 V2000
  139.7750   72.3430  220.6400 O   0  0  0  0  0  0  0  0  0  0  0  0
  139.7260   72.7820  221.8130 C   0  0  0  0  0  0  0  0  0  0  0  0
  139.6070   74.1660  222.1140 N   0  0  0  0  0  0  0  0  0  0  0  0
  139.5300   75.1830  221.0790 C   0  0  0  0  0  0  0  0  0  0  0  0
  140.6550   76.1600  221.3040 C   0  0  0  0  0  0  0  0  0  0  0  0
  141.8090   75.6790  221.1900 O   0  0  0  0  0  0  0  0  0  0  0  0
  140.3680   77.5100  221.6180 N   0  0  0  0  0  0  0  0  0  0  0  0
  139.4280   77.7990  222.7070 C   0  0  0  0  0  0  0  0  0  0  0  0
  139.6090   79.1580  223.2810 C   0  0  0  0  0  0  0  0  0  0  0  0
  140.9220   79.8130  223.1150 C   0  0  0  0  0  0  0  0  0  0  0  0
  141.7970   79.3220  222.0190 C   0  0  0  0  0  0  0  0  0  0  0  0
  140.9250   78.6610  220.9710 C   0  0  1  0  0  0  0  0  0  0  0  0
  141.6900   78.4820  219.7610 C   0  0  0  0  0  0  0  0  0  0  0  0
  142.1910   79.4210  218.8850 C   0  0  0  0  0  0  0  0  0  0  0  0
  142.8480   78.8320  217.8690 N   0  0  0  0  0  0  0  0  0  0  0  0
  142.7700   77.5090  218.0920 C   0  0  0  0  0  0  0  0  0  0  0  0
  142.0790   77.2870  219.2210 N   0  0  0  0  0  0  0  0  0  0  0  0
  139.7970   71.8180  222.9280 C   0  0  0  0  0  0  0  0  0  0  0  0
  139.3080   70.5450  222.7910 C   0  0  0  0  0  0  0  0  0  0  0  0
  139.3650   69.6430  223.8110 C   0  0  0  0  0  0  0  0  0  0  0  0
  139.9260   70.0240  224.9980 C   0  0  0  0  0  0  0  0  0  0  0  0
  140.0260   69.1680  226.0940 C   0  0  0  0  0  0  0  0  0  0  0  0
  140.5900   69.5660  227.2740 C   0  0  0  0  0  0  0  0  0  0  0  0
  140.7170   68.4850  228.6570 Cl  0  0  0  0  0  0  0  0  0  0  0  0
  141.0790   70.8480  227.4010 C   0  0  0  0  0  0  0  0  0  0  0  0
  140.9780   71.6950  226.3130 C   0  0  0  0  0  0  0  0  0  0  0  0
  140.4110   71.3090  225.1120 C   0  0  0  0  0  0  0  0  0  0  0  0
  140.3390   72.1630  224.0950 N   0  0  0  0  0  0  0  0  0  0  0  0
  139.5740   74.4370  223.1380 H   0  0  0  0  0  0  0  0  0  0  0  0
  139.6330   74.7163  220.0882 H   0  0  0  0  0  0  0  0  0  0  0  0
  138.5599   75.6998  221.1214 H   0  0  0  0  0  0  0  0  0  0  0  0
  138.4028   77.7162  222.3171 H   0  0  0  0  0  0  0  0  0  0  0  0
  139.6199   77.0727  223.5105 H   0  0  0  0  0  0  0  0  0  0  0  0
  138.8565   79.8120  222.8162 H   0  0  0  0  0  0  0  0  0  0  0  0
  139.5108   79.0121  224.3669 H   0  0  0  0  0  0  0  0  0  0  0  0
  140.7370   80.8824  222.9357 H   0  0  0  0  0  0  0  0  0  0  0  0
  141.4713   79.5806  224.0393 H   0  0  0  0  0  0  0  0  0  0  0  0
  142.3408   80.1667  221.5709 H   0  0  0  0  0  0  0  0  0  0  0  0
  142.5275   78.6001  222.4130 H   0  0  0  0  0  0  0  0  0  0  0  0
  140.0684   79.2475  220.6073 H   0  0  0  0  0  0  0  0  0  0  0  0
  142.0697   80.5081  219.0011 H   0  0  0  0  0  0  0  0  0  0  0  0
  143.3270   79.3060  217.0640 H   0  0  0  0  0  0  0  0  0  0  0  0
  143.2048   76.7294  217.4492 H   0  0  0  0  0  0  0  0  0  0  0  0
  138.8581   70.2437  221.8335 H   0  0  0  0  0  0  0  0  0  0  0  0
  138.9665   68.6259  223.6814 H   0  0  0  0  0  0  0  0  0  0  0  0
  139.6396   68.1418  226.0066 H   0  0  0  0  0  0  0  0  0  0  0  0
  141.5369   71.1879  228.3416 H   0  0  0  0  0  0  0  0  0  0  0  0
  141.3654   72.7203  226.4066 H   0  0  0  0  0  0  0  0  0  0  0  0
  1  2  2  0
  2  3  1  0
  3  4  1  0
  4  5  1  0
  5  6  2  0
  5  7  1  0
  7  8  1  0
  8  9  1  0
  9 10  1  0
 10 11  1  0
 11 12  1  0
 12 13  1  0
 13 14  2  0
 14 15  1  0
 15 16  1  0
 16 17  2  0
  2 18  1  0
 18 19  2  0
 19 20  1  0
 20 21  2  0
 21 22  1  0
 22 23  2  0
 23 24  1  0
 23 25  1  0
 25 26  2  0
 26 27  1  0
 27 28  2  0
 12  7  1  0
 17 13  1  0
 28 18  1  0
 27 21  1  0
  3 29  1  0
  4 30  1  0
  4 31  1  0
  8 32  1  0
  8 33  1  0
  9 34  1  0
  9 35  1  0
 10 36  1  0
 10 37  1  0
 11 38  1  0
 11 39  1  0
 12 40  1  6
 14 41  1  0
 15 42  1  0
 16 43  1  0
 19 44  1  0
 20 45  1  0
 22 46  1  0
 25 47  1  0
 26 48  1  0
M  END
>  <smiles>  (7) 
O=C(NCC(=O)N1CCCC[C@H]1c1c[nH]cn1)c1ccc2cc(Cl)ccc2n1

>  <score_type>  (7) 
oracle

>  <origin>  (7) 
autodockgpu

>  <m_score__min__energy>  (7) 
-8.7100000000000009

>  <m_primary>  (7) 
energy

>  <rmsd>  (7) 
3.371780994058987

>  <m_score__min__rmsd>  (7) 
3.371780994058987

>  <meeko>  (7) 
{"free_energy": -8.57, "intermolecular_energy": -10.06, "internal_energy": -1.11, "cluster_size": 8, "cluster_id": 1, "rank_in_cluster": 8}

>  <energy>  (7) 
-8.63

>  <cluster_rmsd>  (7) 
0.15

>  <cluster>  (7) 
1

$$$$

     RDKit          3D

 48 51  0  0  0  0  0  0  0  0999 V2000
  140.3060   72.5340  220.7390 O   0  0  0  0  0  0  0  0  0  0  0  0
  139.9530   72.9170  221.8790 C   0  0  0  0  0  0  0  0  0  0  0  0
  139.5460   74.2510  222.1520 N   0  0  0  0  0  0  0  0  0  0  0  0
  139.5070   75.2790  221.1250 C   0  0  0  0  0  0  0  0  0  0  0  0
  140.7090   76.1680  221.3140 C   0  0  0  0  0  0  0  0  0  0  0  0
  141.8200   75.5990  221.1840 O   0  0  0  0  0  0  0  0  0  0  0  0
  140.5340   77.5410  221.6140 N   0  0  0  0  0  0  0  0  0  0  0  0
  139.6380   77.9160  222.7150 C   0  0  0  0  0  0  0  0  0  0  0  0
  139.9350   79.2640  223.2670 C   0  0  0  0  0  0  0  0  0  0  0  0
  141.2920   79.8120  223.0690 C   0  0  0  0  0  0  0  0  0  0  0  0
  142.1060   79.2410  221.9650 C   0  0  0  0  0  0  0  0  0  0  0  0
  141.1660   78.6360  220.9410 C   0  0  1  0  0  0  0  0  0  0  0  0
  141.8930   78.3830  219.7210 C   0  0  0  0  0  0  0  0  0  0  0  0
  142.2660   79.2520  218.7170 C   0  0  0  0  0  0  0  0  0  0  0  0
  142.9330   78.6070  217.7430 N   0  0  0  0  0  0  0  0  0  0  0  0
  142.9900   77.3180  218.1210 C   0  0  0  0  0  0  0  0  0  0  0  0
  142.3710   77.1710  219.3030 N   0  0  0  0  0  0  0  0  0  0  0  0
  139.9600   71.9380  222.9830 C   0  0  0  0  0  0  0  0  0  0  0  0
  139.4730   70.6700  222.8030 C   0  0  0  0  0  0  0  0  0  0  0  0
  139.4730   69.7540  223.8120 C   0  0  0  0  0  0  0  0  0  0  0  0
  139.9730   70.1160  225.0320 C   0  0  0  0  0  0  0  0  0  0  0  0
  140.0130   69.2450  226.1190 C   0  0  0  0  0  0  0  0  0  0  0  0
  140.5170   69.6240  227.3320 C   0  0  0  0  0  0  0  0  0  0  0  0
  140.5660   68.5240  228.7050 Cl  0  0  0  0  0  0  0  0  0  0  0  0
  141.0050   70.9010  227.5030 C   0  0  0  0  0  0  0  0  0  0  0  0
  140.9640   71.7630  226.4220 C   0  0  0  0  0  0  0  0  0  0  0  0
  140.4580   71.3960  225.1890 C   0  0  0  0  0  0  0  0  0  0  0  0
  140.4430   72.2640  224.1810 N   0  0  0  0  0  0  0  0  0  0  0  0
  139.2660   74.4760  223.1490 H   0  0  0  0  0  0  0  0  0  0  0  0
  139.5393   74.8136  220.1288 H   0  0  0  0  0  0  0  0  0  0  0  0
  138.5800   75.8657  221.2050 H   0  0  0  0  0  0  0  0  0  0  0  0
  138.6027   77.9089  222.3433 H   0  0  0  0  0  0  0  0  0  0  0  0
  139.7863   77.1868  223.5251 H   0  0  0  0  0  0  0  0  0  0  0  0
  139.2274   79.9690  222.8063 H   0  0  0  0  0  0  0  0  0  0  0  0
  139.8457   79.1400  224.3563 H   0  0  0  0  0  0  0  0  0  0  0  0
  141.1877   80.8903  222.8783 H   0  0  0  0  0  0  0  0  0  0  0  0
  141.8383   79.5482  223.9866 H   0  0  0  0  0  0  0  0  0  0  0  0
  142.7050   80.0354  221.4958 H   0  0  0  0  0  0  0  0  0  0  0  0
  142.7857   78.4697  222.3564 H   0  0  0  0  0  0  0  0  0  0  0  0
  140.3506   79.2819  220.5832 H   0  0  0  0  0  0  0  0  0  0  0  0
  142.0470   80.3300  218.7132 H   0  0  0  0  0  0  0  0  0  0  0  0
  143.3300   79.0220  216.8640 H   0  0  0  0  0  0  0  0  0  0  0  0
  143.4696   76.5092  217.5501 H   0  0  0  0  0  0  0  0  0  0  0  0
  139.0720   70.3842  221.8194 H   0  0  0  0  0  0  0  0  0  0  0  0
  139.0775   68.7408  223.6477 H   0  0  0  0  0  0  0  0  0  0  0  0
  139.6275   68.2219  225.9974 H   0  0  0  0  0  0  0  0  0  0  0  0
  141.4152   71.2255  228.4707 H   0  0  0  0  0  0  0  0  0  0  0  0
  141.3508   72.7849  226.5490 H   0  0  0  0  0  0  0  0  0  0  0  0
  1  2  2  0
  2  3  1  0
  3  4  1  0
  4  5  1  0
  5  6  2  0
  5  7  1  0
  7  8  1  0
  8  9  1  0
  9 10  1  0
 10 11  1  0
 11 12  1  0
 12 13  1  0
 13 14  2  0
 14 15  1  0
 15 16  1  0
 16 17  2  0
  2 18  1  0
 18 19  2  0
 19 20  1  0
 20 21  2  0
 21 22  1  0
 22 23  2  0
 23 24  1  0
 23 25  1  0
 25 26  2  0
 26 27  1  0
 27 28  2  0
 12  7  1  0
 17 13  1  0
 28 18  1  0
 27 21  1  0
  3 29  1  0
  4 30  1  0
  4 31  1  0
  8 32  1  0
  8 33  1  0
  9 34  1  0
  9 35  1  0
 10 36  1  0
 10 37  1  0
 11 38  1  0
 11 39  1  0
 12 40  1  6
 14 41  1  0
 15 42  1  0
 16 43  1  0
 19 44  1  0
 20 45  1  0
 22 46  1  0
 25 47  1  0
 26 48  1  0
M  END
>  <smiles>  (8) 
O=C(NCC(=O)N1CCCC[C@H]1c1c[nH]cn1)c1ccc2cc(Cl)ccc2n1

>  <score_type>  (8) 
oracle

>  <origin>  (8) 
autodockgpu

>  <m_score__min__energy>  (8) 
-8.7100000000000009

>  <m_primary>  (8) 
energy

>  <rmsd>  (8) 
3.4184288327402883

>  <m_score__min__rmsd>  (8) 
3.4184288327402883

>  <meeko>  (8) 
{"free_energy": -8.7, "intermolecular_energy": -10.19, "internal_energy": -1.03, "cluster_size": 8, "cluster_id": 1, "rank_in_cluster": 2}

>  <energy>  (8) 
-8.57

>  <cluster_rmsd>  (8) 
0.33

>  <cluster>  (8) 
1

$$$$

     RDKit          3D

 48 51  0  0  0  0  0  0  0  0999 V2000
  138.7280   71.4730  221.0260 O   0  0  0  0  0  0  0  0  0  0  0  0
  139.2080   71.9620  222.0750 C   0  0  0  0  0  0  0  0  0  0  0  0
  139.5390   73.3390  222.2030 N   0  0  0  0  0  0  0  0  0  0  0  0
  139.3430   74.2900  221.1220 C   0  0  0  0  0  0  0  0  0  0  0  0
  140.4530   75.3060  221.1910 C   0  0  0  0  0  0  0  0  0  0  0  0
  140.7310   75.7140  222.3450 O   0  0  0  0  0  0  0  0  0  0  0  0
  141.0990   75.7300  220.0050 N   0  0  0  0  0  0  0  0  0  0  0  0
  140.5150   76.8380  219.2390 C   0  0  0  0  0  0  0  0  0  0  0  0
  141.5070   77.5240  218.3680 C   0  0  0  0  0  0  0  0  0  0  0  0
  142.9360   77.4150  218.7240 C   0  0  0  0  0  0  0  0  0  0  0  0
  143.3390   76.2840  219.5990 C   0  0  0  0  0  0  0  0  0  0  0  0
  142.3070   75.1820  219.4620 C   0  0  1  0  0  0  0  0  0  0  0  0
  142.8360   73.9630  220.0230 C   0  0  0  0  0  0  0  0  0  0  0  0
  144.1250   73.6480  220.3960 C   0  0  0  0  0  0  0  0  0  0  0  0
  144.1970   72.3930  220.8740 N   0  0  0  0  0  0  0  0  0  0  0  0
  142.9490   71.8970  220.8090 C   0  0  0  0  0  0  0  0  0  0  0  0
  142.1250   72.8270  220.3010 N   0  0  0  0  0  0  0  0  0  0  0  0
  139.4390   71.0680  223.2260 C   0  0  0  0  0  0  0  0  0  0  0  0
  139.0680   69.7500  223.1800 C   0  0  0  0  0  0  0  0  0  0  0  0
  139.2740   68.9110  224.2340 C   0  0  0  0  0  0  0  0  0  0  0  0
  139.8670   69.4040  225.3630 C   0  0  0  0  0  0  0  0  0  0  0  0
  140.1170   68.6180  226.4870 C   0  0  0  0  0  0  0  0  0  0  0  0
  140.7120   69.1280  227.6080 C   0  0  0  0  0  0  0  0  0  0  0  0
  141.0260   68.1370  229.0280 Cl  0  0  0  0  0  0  0  0  0  0  0  0
  141.0820   70.4550  227.6440 C   0  0  0  0  0  0  0  0  0  0  0  0
  140.8330   71.2310  226.5270 C   0  0  0  0  0  0  0  0  0  0  0  0
  140.2330   70.7320  225.3860 C   0  0  0  0  0  0  0  0  0  0  0  0
  140.0160   71.5220  224.3380 N   0  0  0  0  0  0  0  0  0  0  0  0
  139.9400   73.6550  223.1320 H   0  0  0  0  0  0  0  0  0  0  0  0
  139.3744   73.7675  220.1545 H   0  0  0  0  0  0  0  0  0  0  0  0
  138.3651   74.7842  221.2195 H   0  0  0  0  0  0  0  0  0  0  0  0
  139.7076   76.4405  218.6064 H   0  0  0  0  0  0  0  0  0  0  0  0
  140.1411   77.5786  219.9614 H   0  0  0  0  0  0  0  0  0  0  0  0
  141.3905   77.1139  217.3540 H   0  0  0  0  0  0  0  0  0  0  0  0
  141.2772   78.5938  218.4803 H   0  0  0  0  0  0  0  0  0  0  0  0
  143.5036   77.3248  217.7861 H   0  0  0  0  0  0  0  0  0  0  0  0
  143.1477   78.3176  219.3161 H   0  0  0  0  0  0  0  0  0  0  0  0
  144.3261   75.9091  219.2906 H   0  0  0  0  0  0  0  0  0  0  0  0
  143.3986   76.6181  220.6453 H   0  0  0  0  0  0  0  0  0  0  0  0
  142.0625   74.8665  218.4370 H   0  0  0  0  0  0  0  0  0  0  0  0
  144.9819   74.3328  220.3136 H   0  0  0  0  0  0  0  0  0  0  0  0
  145.0520   71.8960  221.2280 H   0  0  0  0  0  0  0  0  0  0  0  0
  142.6497   70.8862  221.1233 H   0  0  0  0  0  0  0  0  0  0  0  0
  138.5916   69.3589  222.2689 H   0  0  0  0  0  0  0  0  0  0  0  0
  138.9686   67.8558  224.1774 H   0  0  0  0  0  0  0  0  0  0  0  0
  139.8273   67.5569  226.4719 H   0  0  0  0  0  0  0  0  0  0  0  0
  141.5617   70.8846  228.5358 H   0  0  0  0  0  0  0  0  0  0  0  0
  141.1250   72.2913  226.5472 H   0  0  0  0  0  0  0  0  0  0  0  0
  1  2  2  0
  2  3  1  0
  3  4  1  0
  4  5  1  0
  5  6  2  0
  5  7  1  0
  7  8  1  0
  8  9  1  0
  9 10  1  0
 10 11  1  0
 11 12  1  0
 12 13  1  0
 13 14  2  0
 14 15  1  0
 15 16  1  0
 16 17  2  0
  2 18  1  0
 18 19  2  0
 19 20  1  0
 20 21  2  0
 21 22  1  0
 22 23  2  0
 23 24  1  0
 23 25  1  0
 25 26  2  0
 26 27  1  0
 27 28  2  0
 12  7  1  0
 17 13  1  0
 28 18  1  0
 27 21  1  0
  3 29  1  0
  4 30  1  0
  4 31  1  0
  8 32  1  0
  8 33  1  0
  9 34  1  0
  9 35  1  0
 10 36  1  0
 10 37  1  0
 11 38  1  0
 11 39  1  0
 12 40  1  6
 14 41  1  0
 15 42  1  0
 16 43  1  0
 19 44  1  0
 20 45  1  0
 22 46  1  0
 25 47  1  0
 26 48  1  0
M  END
>  <smiles>  (9) 
O=C(NCC(=O)N1CCCC[C@H]1c1c[nH]cn1)c1ccc2cc(Cl)ccc2n1

>  <score_type>  (9) 
oracle

>  <origin>  (9) 
autodockgpu

>  <m_score__min__energy>  (9) 
-8.7100000000000009

>  <m_primary>  (9) 
energy

>  <rmsd>  (9) 
2.722273779806316

>  <m_score__min__rmsd>  (9) 
2.722273779806316

>  <meeko>  (9) 
{"free_energy": -7.59, "intermolecular_energy": -9.08, "internal_energy": -2.23, "cluster_size": 17, "cluster_id": 3, "rank_in_cluster": 11}

>  <energy>  (9) 
-8.29

>  <cluster_rmsd>  (9) 
0.0

>  <cluster>  (9) 
2

$$$$

     RDKit          3D

 48 51  0  0  0  0  0  0  0  0999 V2000
  141.0490   72.7870  221.0030 O   0  0  0  0  0  0  0  0  0  0  0  0
  140.2760   73.0070  221.9650 C   0  0  0  0  0  0  0  0  0  0  0  0
  139.4800   74.1810  222.0620 N   0  0  0  0  0  0  0  0  0  0  0  0
  139.5010   75.2210  221.0460 C   0  0  0  0  0  0  0  0  0  0  0  0
  140.7120   76.0830  221.2900 C   0  0  0  0  0  0  0  0  0  0  0  0
  141.8160   75.4990  221.1720 O   0  0  0  0  0  0  0  0  0  0  0  0
  140.5520   77.4500  221.6260 N   0  0  0  0  0  0  0  0  0  0  0  0
  139.6490   77.8070  222.7260 C   0  0  0  0  0  0  0  0  0  0  0  0
  139.9570   79.1350  223.3180 C   0  0  0  0  0  0  0  0  0  0  0  0
  141.3240   79.6700  223.1510 C   0  0  0  0  0  0  0  0  0  0  0  0
  142.1430   79.1170  222.0420 C   0  0  0  0  0  0  0  0  0  0  0  0
  141.2070   78.5540  220.9910 C   0  0  1  0  0  0  0  0  0  0  0  0
  141.9450   78.3240  219.7720 C   0  0  0  0  0  0  0  0  0  0  0  0
  142.2530   79.1940  218.7470 C   0  0  0  0  0  0  0  0  0  0  0  0
  142.9580   78.5740  217.7840 N   0  0  0  0  0  0  0  0  0  0  0  0
  143.1060   77.3010  218.1900 C   0  0  0  0  0  0  0  0  0  0  0  0
  142.5040   77.1390  219.3790 N   0  0  0  0  0  0  0  0  0  0  0  0
  140.1910   72.0030  223.0430 C   0  0  0  0  0  0  0  0  0  0  0  0
  139.6210   70.7770  222.8190 C   0  0  0  0  0  0  0  0  0  0  0  0
  139.5350   69.8380  223.8030 C   0  0  0  0  0  0  0  0  0  0  0  0
  140.0310   70.1340  225.0430 C   0  0  0  0  0  0  0  0  0  0  0  0
  139.9850   69.2350  226.1080 C   0  0  0  0  0  0  0  0  0  0  0  0
  140.4860   69.5480  227.3400 C   0  0  0  0  0  0  0  0  0  0  0  0
  140.4280   68.4130  228.6850 Cl  0  0  0  0  0  0  0  0  0  0  0  0
  141.0570   70.7830  227.5550 C   0  0  0  0  0  0  0  0  0  0  0  0
  141.1010   71.6730  226.4970 C   0  0  0  0  0  0  0  0  0  0  0  0
  140.5990   71.3730  225.2440 C   0  0  0  0  0  0  0  0  0  0  0  0
  140.6670   72.2650  224.2590 N   0  0  0  0  0  0  0  0  0  0  0  0
  138.8590   74.2750  222.9150 H   0  0  0  0  0  0  0  0  0  0  0  0
  139.5617   74.7657  220.0465 H   0  0  0  0  0  0  0  0  0  0  0  0
  138.5837   75.8258  221.0981 H   0  0  0  0  0  0  0  0  0  0  0  0
  138.6181   77.8240  222.3426 H   0  0  0  0  0  0  0  0  0  0  0  0
  139.7785   77.0542  223.5175 H   0  0  0  0  0  0  0  0  0  0  0  0
  139.2644   79.8618  222.8685 H   0  0  0  0  0  0  0  0  0  0  0  0
  139.8528   78.9826  224.4024 H   0  0  0  0  0  0  0  0  0  0  0  0
  141.2365   80.7543  222.9878 H   0  0  0  0  0  0  0  0  0  0  0  0
  141.8557   79.3753  224.0678 H   0  0  0  0  0  0  0  0  0  0  0  0
  142.7593   79.9147  221.6017 H   0  0  0  0  0  0  0  0  0  0  0  0
  142.8065   78.3254  222.4204 H   0  0  0  0  0  0  0  0  0  0  0  0
  140.4052   79.2213  220.6420 H   0  0  0  0  0  0  0  0  0  0  0  0
  141.9608   80.2542  218.7207 H   0  0  0  0  0  0  0  0  0  0  0  0
  143.3220   78.9960  216.8940 H   0  0  0  0  0  0  0  0  0  0  0  0
  143.6377   76.5145  217.6344 H   0  0  0  0  0  0  0  0  0  0  0  0
  139.2230   70.5451  221.8201 H   0  0  0  0  0  0  0  0  0  0  0  0
  139.0747   68.8590  223.6035 H   0  0  0  0  0  0  0  0  0  0  0  0
  139.5321   68.2448  225.9517 H   0  0  0  0  0  0  0  0  0  0  0  0
  141.4662   71.0536  228.5395 H   0  0  0  0  0  0  0  0  0  0  0  0
  141.5548   72.6618  226.6594 H   0  0  0  0  0  0  0  0  0  0  0  0
  1  2  2  0
  2  3  1  0
  3  4  1  0
  4  5  1  0
  5  6  2  0
  5  7  1  0
  7  8  1  0
  8  9  1  0
  9 10  1  0
 10 11  1  0
 11 12  1  0
 12 13  1  0
 13 14  2  0
 14 15  1  0
 15 16  1  0
 16 17  2  0
  2 18  1  0
 18 19  2  0
 19 20  1  0
 20 21  2  0
 21 22  1  0
 22 23  2  0
 23 24  1  0
 23 25  1  0
 25 26  2  0
 26 27  1  0
 27 28  2  0
 12  7  1  0
 17 13  1  0
 28 18  1  0
 27 21  1  0
  3 29  1  0
  4 30  1  0
  4 31  1  0
  8 32  1  0
  8 33  1  0
  9 34  1  0
  9 35  1  0
 10 36  1  0
 10 37  1  0
 11 38  1  0
 11 39  1  0
 12 40  1  6
 14 41  1  0
 15 42  1  0
 16 43  1  0
 19 44  1  0
 20 45  1  0
 22 46  1  0
 25 47  1  0
 26 48  1  0
M  END
>  <smiles>  (10) 
O=C(NCC(=O)N1CCCC[C@H]1c1c[nH]cn1)c1ccc2cc(Cl)ccc2n1

>  <score_type>  (10) 
oracle

>  <origin>  (10) 
autodockgpu

>  <m_score__min__energy>  (10) 
-8.7100000000000009

>  <m_primary>  (10) 
energy

>  <rmsd>  (10) 
3.427513178467241

>  <m_score__min__rmsd>  (10) 
3.427513178467241

>  <meeko>  (10) 
{"free_energy": -8.7, "intermolecular_energy": -10.19, "internal_energy": -0.96, "cluster_size": 8, "cluster_id": 1, "rank_in_cluster": 3}

>  <energy>  (10) 
-8.06

>  <cluster_rmsd>  (10) 
0.46

>  <cluster>  (10) 
2

$$$$

     RDKit          3D

 48 51  0  0  0  0  0  0  0  0999 V2000
  138.5750   76.9590  222.5960 O   0  0  0  0  0  0  0  0  0  0  0  0
  139.3610   77.0360  221.6230 C   0  0  0  0  0  0  0  0  0  0  0  0
  139.3870   78.1490  220.7380 N   0  0  0  0  0  0  0  0  0  0  0  0
  138.4990   79.2890  220.8970 C   0  0  0  0  0  0  0  0  0  0  0  0
  139.3330   80.5410  220.8110 C   0  0  0  0  0  0  0  0  0  0  0  0
  138.8990   81.4180  220.0260 O   0  0  0  0  0  0  0  0  0  0  0  0
  140.5120   80.6610  221.5870 N   0  0  0  0  0  0  0  0  0  0  0  0
  140.4190   81.2570  222.9260 C   0  0  0  0  0  0  0  0  0  0  0  0
  141.5420   80.8550  223.8140 C   0  0  0  0  0  0  0  0  0  0  0  0
  142.2600   79.6030  223.5040 C   0  0  0  0  0  0  0  0  0  0  0  0
  142.1600   79.0830  222.1160 C   0  0  0  0  0  0  0  0  0  0  0  0
  141.8230   80.2390  221.1950 C   0  0  1  0  0  0  0  0  0  0  0  0
  142.0510   79.8400  219.8280 C   0  0  0  0  0  0  0  0  0  0  0  0
  142.5680   80.5580  218.7710 C   0  0  0  0  0  0  0  0  0  0  0  0
  142.6090   79.8110  217.6530 N   0  0  0  0  0  0  0  0  0  0  0  0
  142.1160   78.6070  217.9910 C   0  0  0  0  0  0  0  0  0  0  0  0
  141.7780   78.6110  219.2900 N   0  0  0  0  0  0  0  0  0  0  0  0
  140.3000   75.9220  221.3870 C   0  0  0  0  0  0  0  0  0  0  0  0
  140.0050   74.6520  221.8070 C   0  0  0  0  0  0  0  0  0  0  0  0
  140.8600   73.6120  221.5970 C   0  0  0  0  0  0  0  0  0  0  0  0
  142.0410   73.8500  220.9500 C   0  0  0  0  0  0  0  0  0  0  0  0
  142.9750   72.8470  220.6920 C   0  0  0  0  0  0  0  0  0  0  0  0
  144.1510   73.1030  220.0440 C   0  0  0  0  0  0  0  0  0  0  0  0
  145.3300   71.8370  219.7190 Cl  0  0  0  0  0  0  0  0  0  0  0  0
  144.4380   74.3840  219.6250 C   0  0  0  0  0  0  0  0  0  0  0  0
  143.5100   75.3770  219.8820 C   0  0  0  0  0  0  0  0  0  0  0  0
  142.3160   75.1350  220.5360 C   0  0  0  0  0  0  0  0  0  0  0  0
  141.4570   76.1260  220.7580 N   0  0  0  0  0  0  0  0  0  0  0  0
  140.0880   78.1190  219.9450 H   0  0  0  0  0  0  0  0  0  0  0  0
  137.7428   79.2880  220.0982 H   0  0  0  0  0  0  0  0  0  0  0  0
  137.9812   79.2392  221.8662 H   0  0  0  0  0  0  0  0  0  0  0  0
  140.4257   82.3523  222.8246 H   0  0  0  0  0  0  0  0  0  0  0  0
  139.4872   80.8959  223.3857 H   0  0  0  0  0  0  0  0  0  0  0  0
  142.2815   81.6691  223.7941 H   0  0  0  0  0  0  0  0  0  0  0  0
  141.0662   80.6637  224.7871 H   0  0  0  0  0  0  0  0  0  0  0  0
  143.3258   79.7726  223.7168 H   0  0  0  0  0  0  0  0  0  0  0  0
  141.7730   78.8380  224.1266 H   0  0  0  0  0  0  0  0  0  0  0  0
  143.1198   78.6369  221.8164 H   0  0  0  0  0  0  0  0  0  0  0  0
  141.3776   78.3121  222.0567 H   0  0  0  0  0  0  0  0  0  0  0  0
  142.4633   81.1299  221.2747 H   0  0  0  0  0  0  0  0  0  0  0  0
  142.9029   81.6039  218.8335 H   0  0  0  0  0  0  0  0  0  0  0  0
  142.9550   80.1050  216.7060 H   0  0  0  0  0  0  0  0  0  0  0  0
  142.0065   77.7511  217.3088 H   0  0  0  0  0  0  0  0  0  0  0  0
  139.0536   74.4670  222.3271 H   0  0  0  0  0  0  0  0  0  0  0  0
  140.6048   72.5991  221.9418 H   0  0  0  0  0  0  0  0  0  0  0  0
  142.7589   71.8194  221.0197 H   0  0  0  0  0  0  0  0  0  0  0  0
  145.3783   74.6104  219.1011 H   0  0  0  0  0  0  0  0  0  0  0  0
  143.7313   76.4028  219.5521 H   0  0  0  0  0  0  0  0  0  0  0  0
  1  2  2  0
  2  3  1  0
  3  4  1  0
  4  5  1  0
  5  6  2  0
  5  7  1  0
  7  8  1  0
  8  9  1  0
  9 10  1  0
 10 11  1  0
 11 12  1  0
 12 13  1  0
 13 14  2  0
 14 15  1  0
 15 16  1  0
 16 17  2  0
  2 18  1  0
 18 19  2  0
 19 20  1  0
 20 21  2  0
 21 22  1  0
 22 23  2  0
 23 24  1  0
 23 25  1  0
 25 26  2  0
 26 27  1  0
 27 28  2  0
 12  7  1  0
 17 13  1  0
 28 18  1  0
 27 21  1  0
  3 29  1  0
  4 30  1  0
  4 31  1  0
  8 32  1  0
  8 33  1  0
  9 34  1  0
  9 35  1  0
 10 36  1  0
 10 37  1  0
 11 38  1  0
 11 39  1  0
 12 40  1  1
 14 41  1  0
 15 42  1  0
 16 43  1  0
 19 44  1  0
 20 45  1  0
 22 46  1  0
 25 47  1  0
 26 48  1  0
M  END
>  <smiles>  (11) 
O=C(NCC(=O)N1CCCC[C@H]1c1c[nH]cn1)c1ccc2cc(Cl)ccc2n1

>  <score_type>  (11) 
oracle

>  <origin>  (11) 
autodockgpu

>  <m_score__min__energy>  (11) 
-8.7100000000000009

>  <m_primary>  (11) 
energy

>  <rmsd>  (11) 
6.756814900146249

>  <m_score__min__rmsd>  (11) 
6.756814900146249

>  <meeko>  (11) 
{"free_energy": -6.22, "intermolecular_energy": -7.71, "internal_energy": -3.06, "cluster_size": 7, "cluster_id": 6, "rank_in_cluster": 5}

>  <energy>  (11) 
-7.98

>  <cluster_rmsd>  (11) 
1.88

>  <cluster>  (11) 
2

$$$$

     RDKit          3D

 48 51  0  0  0  0  0  0  0  0999 V2000
  139.1620   70.6370  221.2150 O   0  0  0  0  0  0  0  0  0  0  0  0
  139.2370   71.4820  222.1380 C   0  0  0  0  0  0  0  0  0  0  0  0
  138.8620   72.8430  221.9690 N   0  0  0  0  0  0  0  0  0  0  0  0
  138.3590   73.3610  220.7080 C   0  0  0  0  0  0  0  0  0  0  0  0
  139.5330   73.5430  219.7810 C   0  0  0  0  0  0  0  0  0  0  0  0
  139.2360   73.7490  218.5790 O   0  0  0  0  0  0  0  0  0  0  0  0
  140.8530   73.4780  220.2890 N   0  0  0  0  0  0  0  0  0  0  0  0
  141.6640   72.2890  219.9990 C   0  0  0  0  0  0  0  0  0  0  0  0
  143.1240   72.5470  220.1040 C   0  0  0  0  0  0  0  0  0  0  0  0
  143.5970   73.9380  219.9530 C   0  0  0  0  0  0  0  0  0  0  0  0
  142.6090   75.0240  220.1830 C   0  0  0  0  0  0  0  0  0  0  0  0
  141.5050   74.4860  221.0710 C   0  0  1  0  0  0  0  0  0  0  0  0
  140.7260   75.5880  221.5810 C   0  0  0  0  0  0  0  0  0  0  0  0
  140.9150   76.9460  221.4360 C   0  0  0  0  0  0  0  0  0  0  0  0
  139.9580   77.6380  222.0790 N   0  0  0  0  0  0  0  0  0  0  0  0
  139.1490   76.7220  222.6410 C   0  0  0  0  0  0  0  0  0  0  0  0
  139.5980   75.4920  222.3500 N   0  0  0  0  0  0  0  0  0  0  0  0
  139.7360   71.0420  223.4550 C   0  0  0  0  0  0  0  0  0  0  0  0
  140.4510   71.8930  224.2560 C   0  0  0  0  0  0  0  0  0  0  0  0
  140.9200   71.5030  225.4760 C   0  0  0  0  0  0  0  0  0  0  0  0
  140.6660   70.2290  225.9040 C   0  0  0  0  0  0  0  0  0  0  0  0
  141.1050   69.7460  227.1350 C   0  0  0  0  0  0  0  0  0  0  0  0
  140.8420   68.4690  227.5460 C   0  0  0  0  0  0  0  0  0  0  0  0
  141.3980   67.8590  229.1010 Cl  0  0  0  0  0  0  0  0  0  0  0  0
  140.1220   67.6220  226.7330 C   0  0  0  0  0  0  0  0  0  0  0  0
  139.6870   68.1040  225.5120 C   0  0  0  0  0  0  0  0  0  0  0  0
  139.9440   69.3920  225.0800 C   0  0  0  0  0  0  0  0  0  0  0  0
  139.5020   69.8070  223.8970 N   0  0  0  0  0  0  0  0  0  0  0  0
  138.9630   73.4790  222.8110 H   0  0  0  0  0  0  0  0  0  0  0  0
  137.6438   72.6491  220.2701 H   0  0  0  0  0  0  0  0  0  0  0  0
  137.8431   74.3196  220.8659 H   0  0  0  0  0  0  0  0  0  0  0  0
  141.3949   71.4973  220.7137 H   0  0  0  0  0  0  0  0  0  0  0  0
  141.4546   71.9908  218.9611 H   0  0  0  0  0  0  0  0  0  0  0  0
  143.4469   72.1980  221.0960 H   0  0  0  0  0  0  0  0  0  0  0  0
  143.5585   72.0153  219.2446 H   0  0  0  0  0  0  0  0  0  0  0  0
  144.4217   74.0855  220.6659 H   0  0  0  0  0  0  0  0  0  0  0  0
  143.8730   74.0282  218.8920 H   0  0  0  0  0  0  0  0  0  0  0  0
  143.1008   75.8754  220.6762 H   0  0  0  0  0  0  0  0  0  0  0  0
  142.1909   75.3639  219.2240 H   0  0  0  0  0  0  0  0  0  0  0  0
  141.8232   73.9903  222.0000 H   0  0  0  0  0  0  0  0  0  0  0  0
  141.7396   77.4030  220.8693 H   0  0  0  0  0  0  0  0  0  0  0  0
  139.8580   78.6820  222.1350 H   0  0  0  0  0  0  0  0  0  0  0  0
  138.2578   76.9467  223.2453 H   0  0  0  0  0  0  0  0  0  0  0  0
  140.6519   72.9165  223.9065 H   0  0  0  0  0  0  0  0  0  0  0  0
  141.4925   72.2009  226.1047 H   0  0  0  0  0  0  0  0  0  0  0  0
  141.6800   70.4117  227.7954 H   0  0  0  0  0  0  0  0  0  0  0  0
  139.8992   66.5913  227.0460 H   0  0  0  0  0  0  0  0  0  0  0  0
  139.1118   67.4338  224.8562 H   0  0  0  0  0  0  0  0  0  0  0  0
  1  2  2  0
  2  3  1  0
  3  4  1  0
  4  5  1  0
  5  6  2  0
  5  7  1  0
  7  8  1  0
  8  9  1  0
  9 10  1  0
 10 11  1  0
 11 12  1  0
 12 13  1  0
 13 14  2  0
 14 15  1  0
 15 16  1  0
 16 17  2  0
  2 18  1  0
 18 19  2  0
 19 20  1  0
 20 21  2  0
 21 22  1  0
 22 23  2  0
 23 24  1  0
 23 25  1  0
 25 26  2  0
 26 27  1  0
 27 28  2  0
 12  7  1  0
 17 13  1  0
 28 18  1  0
 27 21  1  0
  3 29  1  0
  4 30  1  0
  4 31  1  0
  8 32  1  0
  8 33  1  0
  9 34  1  0
  9 35  1  0
 10 36  1  0
 10 37  1  0
 11 38  1  0
 11 39  1  0
 12 40  1  1
 14 41  1  0
 15 42  1  0
 16 43  1  0
 19 44  1  0
 20 45  1  0
 22 46  1  0
 25 47  1  0
 26 48  1  0
M  END
>  <smiles>  (12) 
O=C(NCC(=O)N1CCCC[C@H]1c1c[nH]cn1)c1ccc2cc(Cl)ccc2n1

>  <score_type>  (12) 
oracle

>  <origin>  (12) 
autodockgpu

>  <m_score__min__energy>  (12) 
-8.7100000000000009

>  <m_primary>  (12) 
energy

>  <rmsd>  (12) 
3.2643639495034047

>  <m_score__min__rmsd>  (12) 
3.2643639495034047

>  <meeko>  (12) 
{"free_energy": -6.93, "intermolecular_energy": -8.42, "internal_energy": -2.32, "cluster_size": 1, "cluster_id": 7, "rank_in_cluster": 1}

>  <energy>  (12) 
-7.98

>  <cluster_rmsd>  (12) 
1.87

>  <cluster>  (12) 
2

$$$$

     RDKit          3D

 48 51  0  0  0  0  0  0  0  0999 V2000
  140.0890   72.4990  220.7090 O   0  0  0  0  0  0  0  0  0  0  0  0
  139.8730   72.9010  221.8760 C   0  0  0  0  0  0  0  0  0  0  0  0
  139.5790   74.2580  222.1830 N   0  0  0  0  0  0  0  0  0  0  0  0
  139.5060   75.2880  221.1600 C   0  0  0  0  0  0  0  0  0  0  0  0
  140.7000   76.1920  221.3260 C   0  0  0  0  0  0  0  0  0  0  0  0
  141.8150   75.6340  221.1800 O   0  0  0  0  0  0  0  0  0  0  0  0
  140.5140   77.5630  221.6230 N   0  0  0  0  0  0  0  0  0  0  0  0
  139.6150   77.9330  222.7230 C   0  0  0  0  0  0  0  0  0  0  0  0
  139.9010   79.2840  223.2740 C   0  0  0  0  0  0  0  0  0  0  0  0
  141.2540   79.8420  223.0760 C   0  0  0  0  0  0  0  0  0  0  0  0
  142.0730   79.2760  221.9740 C   0  0  0  0  0  0  0  0  0  0  0  0
  141.1390   78.6630  220.9500 C   0  0  1  0  0  0  0  0  0  0  0  0
  141.8690   78.4140  219.7310 C   0  0  0  0  0  0  0  0  0  0  0  0
  142.2270   79.2820  218.7220 C   0  0  0  0  0  0  0  0  0  0  0  0
  142.9030   78.6410  217.7510 N   0  0  0  0  0  0  0  0  0  0  0  0
  142.9810   77.3560  218.1360 C   0  0  0  0  0  0  0  0  0  0  0  0
  142.3660   77.2070  219.3200 N   0  0  0  0  0  0  0  0  0  0  0  0
  139.9260   71.9210  222.9780 C   0  0  0  0  0  0  0  0  0  0  0  0
  139.4810   70.6380  222.8020 C   0  0  0  0  0  0  0  0  0  0  0  0
  139.5230   69.7200  223.8090 C   0  0  0  0  0  0  0  0  0  0  0  0
  140.0230   70.0980  225.0240 C   0  0  0  0  0  0  0  0  0  0  0  0
  140.1040   69.2270  226.1090 C   0  0  0  0  0  0  0  0  0  0  0  0
  140.6070   69.6210  227.3180 C   0  0  0  0  0  0  0  0  0  0  0  0
  140.7090   68.5220  228.6880 Cl  0  0  0  0  0  0  0  0  0  0  0  0
  141.0530   70.9150  227.4850 C   0  0  0  0  0  0  0  0  0  0  0  0
  140.9710   71.7770  226.4070 C   0  0  0  0  0  0  0  0  0  0  0  0
  140.4650   71.3940  225.1780 C   0  0  0  0  0  0  0  0  0  0  0  0
  140.4090   72.2620  224.1720 N   0  0  0  0  0  0  0  0  0  0  0  0
  139.4120   74.4980  223.2010 H   0  0  0  0  0  0  0  0  0  0  0  0
  139.5235   74.8254  220.1621 H   0  0  0  0  0  0  0  0  0  0  0  0
  138.5736   75.8628  221.2612 H   0  0  0  0  0  0  0  0  0  0  0  0
  138.5800   77.9176  222.3508 H   0  0  0  0  0  0  0  0  0  0  0  0
  139.7690   77.2061  223.5341 H   0  0  0  0  0  0  0  0  0  0  0  0
  139.1882   79.9831  222.8122 H   0  0  0  0  0  0  0  0  0  0  0  0
  139.8117   79.1606  224.3634 H   0  0  0  0  0  0  0  0  0  0  0  0
  141.1416   80.9192  222.8836 H   0  0  0  0  0  0  0  0  0  0  0  0
  141.8016   79.5836  223.9943 H   0  0  0  0  0  0  0  0  0  0  0  0
  142.6666   80.0743  221.5045 H   0  0  0  0  0  0  0  0  0  0  0  0
  142.7579   78.5102  222.3670 H   0  0  0  0  0  0  0  0  0  0  0  0
  140.3193   79.3029  220.5913 H   0  0  0  0  0  0  0  0  0  0  0  0
  141.9913   80.3564  218.7118 H   0  0  0  0  0  0  0  0  0  0  0  0
  143.2930   79.0570  216.8690 H   0  0  0  0  0  0  0  0  0  0  0  0
  143.4723   76.5514  217.5692 H   0  0  0  0  0  0  0  0  0  0  0  0
  139.0791   70.3402  221.8223 H   0  0  0  0  0  0  0  0  0  0  0  0
  139.1612   68.6939  223.6469 H   0  0  0  0  0  0  0  0  0  0  0  0
  139.7528   68.1915  225.9892 H   0  0  0  0  0  0  0  0  0  0  0  0
  141.4625   71.2521  228.4487 H   0  0  0  0  0  0  0  0  0  0  0  0
  141.3232   72.8115  226.5321 H   0  0  0  0  0  0  0  0  0  0  0  0
  1  2  2  0
  2  3  1  0
  3  4  1  0
  4  5  1  0
  5  6  2  0
  5  7  1  0
  7  8  1  0
  8  9  1  0
  9 10  1  0
 10 11  1  0
 11 12  1  0
 12 13  1  0
 13 14  2  0
 14 15  1  0
 15 16  1  0
 16 17  2  0
  2 18  1  0
 18 19  2  0
 19 20  1  0
 20 21  2  0
 21 22  1  0
 22 23  2  0
 23 24  1  0
 23 25  1  0
 25 26  2  0
 26 27  1  0
 27 28  2  0
 12  7  1  0
 17 13  1  0
 28 18  1  0
 27 21  1  0
  3 29  1  0
  4 30  1  0
  4 31  1  0
  8 32  1  0
  8 33  1  0
  9 34  1  0
  9 35  1  0
 10 36  1  0
 10 37  1  0
 11 38  1  0
 11 39  1  0
 12 40  1  6
 14 41  1  0
 15 42  1  0
 16 43  1  0
 19 44  1  0
 20 45  1  0
 22 46  1  0
 25 47  1  0
 26 48  1  0
M  END
>  <smiles>  (13) 
O=C(NCC(=O)N1CCCC[C@H]1c1c[nH]cn1)c1ccc2cc(Cl)ccc2n1

>  <score_type>  (13) 
oracle

>  <origin>  (13) 
autodockgpu

>  <m_score__min__energy>  (13) 
-8.7100000000000009

>  <m_primary>  (13) 
energy

>  <rmsd>  (13) 
3.4199595090560746

>  <m_score__min__rmsd>  (13) 
3.4199595090560746

>  <meeko>  (13) 
{"free_energy": -8.67, "intermolecular_energy": -10.16, "internal_energy": -1.06, "cluster_size": 8, "cluster_id": 1, "rank_in_cluster": 5}

>  <energy>  (13) 
-7.95

>  <cluster_rmsd>  (13) 
1.87

>  <cluster>  (13) 
2

$$$$

     RDKit          3D

 48 51  0  0  0  0  0  0  0  0999 V2000
  139.8740   74.2960  221.9690 O   0  0  0  0  0  0  0  0  0  0  0  0
  140.8870   74.9420  221.6110 C   0  0  0  0  0  0  0  0  0  0  0  0
  141.0120   76.3460  221.7970 N   0  0  0  0  0  0  0  0  0  0  0  0
  139.9690   77.1440  222.4210 C   0  0  0  0  0  0  0  0  0  0  0  0
  139.8230   78.4170  221.6280 C   0  0  0  0  0  0  0  0  0  0  0  0
  139.0280   78.3540  220.6590 O   0  0  0  0  0  0  0  0  0  0  0  0
  140.5570   79.5700  222.0000 N   0  0  0  0  0  0  0  0  0  0  0  0
  140.1110   80.3480  223.1630 C   0  0  0  0  0  0  0  0  0  0  0  0
  141.1990   81.1670  223.7590 C   0  0  0  0  0  0  0  0  0  0  0  0
  142.5950   80.7520  223.5160 C   0  0  0  0  0  0  0  0  0  0  0  0
  142.8530   79.8740  222.3460 C   0  0  0  0  0  0  0  0  0  0  0  0
  141.7310   80.0670  221.3460 C   0  0  1  0  0  0  0  0  0  0  0  0
  142.1200   79.4980  220.0790 C   0  0  0  0  0  0  0  0  0  0  0  0
  142.4890   80.1220  218.9050 C   0  0  0  0  0  0  0  0  0  0  0  0
  142.7740   79.2200  217.9490 N   0  0  0  0  0  0  0  0  0  0  0  0
  142.5890   78.0120  218.5080 C   0  0  0  0  0  0  0  0  0  0  0  0
  142.1980   78.1650  219.7820 N   0  0  0  0  0  0  0  0  0  0  0  0
  141.9960   74.2110  220.9700 C   0  0  0  0  0  0  0  0  0  0  0  0
  143.0670   74.8810  220.4390 C   0  0  0  0  0  0  0  0  0  0  0  0
  144.1000   74.2210  219.8430 C   0  0  0  0  0  0  0  0  0  0  0  0
  144.0600   72.8560  219.7770 C   0  0  0  0  0  0  0  0  0  0  0  0
  145.0720   72.1000  219.1860 C   0  0  0  0  0  0  0  0  0  0  0  0
  145.0150   70.7350  219.1290 C   0  0  0  0  0  0  0  0  0  0  0  0
  146.2910   69.7800  218.3830 Cl  0  0  0  0  0  0  0  0  0  0  0  0
  143.9340   70.0710  219.6660 C   0  0  0  0  0  0  0  0  0  0  0  0
  142.9320   70.8230  220.2510 C   0  0  0  0  0  0  0  0  0  0  0  0
  142.9730   72.2040  220.3180 C   0  0  0  0  0  0  0  0  0  0  0  0
  141.9830   72.8810  220.8920 N   0  0  0  0  0  0  0  0  0  0  0  0
  141.9080   76.8000  221.4600 H   0  0  0  0  0  0  0  0  0  0  0  0
  139.0194   76.5888  222.4148 H   0  0  0  0  0  0  0  0  0  0  0  0
  140.2326   77.3707  223.4646 H   0  0  0  0  0  0  0  0  0  0  0  0
  139.2988   81.0190  222.8466 H   0  0  0  0  0  0  0  0  0  0  0  0
  139.7750   79.6346  223.9299 H   0  0  0  0  0  0  0  0  0  0  0  0
  141.0896   82.1894  223.3683 H   0  0  0  0  0  0  0  0  0  0  0  0
  141.0645   81.0520  224.8447 H   0  0  0  0  0  0  0  0  0  0  0  0
  143.1922   81.6658  223.3809 H   0  0  0  0  0  0  0  0  0  0  0  0
  142.8634   80.1414  224.3907 H   0  0  0  0  0  0  0  0  0  0  0  0
  143.8136   80.1445  221.8833 H   0  0  0  0  0  0  0  0  0  0  0  0
  142.8976   78.8223  222.6654 H   0  0  0  0  0  0  0  0  0  0  0  0
  141.5031   81.1049  221.0617 H   0  0  0  0  0  0  0  0  0  0  0  0
  142.5429   81.2122  218.7690 H   0  0  0  0  0  0  0  0  0  0  0  0
  143.0800   79.4160  216.9630 H   0  0  0  0  0  0  0  0  0  0  0  0
  142.7355   77.0475  217.9997 H   0  0  0  0  0  0  0  0  0  0  0  0
  143.0937   75.9792  220.4952 H   0  0  0  0  0  0  0  0  0  0  0  0
  144.9510   74.7769  219.4225 H   0  0  0  0  0  0  0  0  0  0  0  0
  145.9413   72.6168  218.7532 H   0  0  0  0  0  0  0  0  0  0  0  0
  143.8698   68.9735  219.6304 H   0  0  0  0  0  0  0  0  0  0  0  0
  142.0650   70.3006  220.6816 H   0  0  0  0  0  0  0  0  0  0  0  0
  1  2  2  0
  2  3  1  0
  3  4  1  0
  4  5  1  0
  5  6  2  0
  5  7  1  0
  7  8  1  0
  8  9  1  0
  9 10  1  0
 10 11  1  0
 11 12  1  0
 12 13  1  0
 13 14  2  0
 14 15  1  0
 15 16  1  0
 16 17  2  0
  2 18  1  0
 18 19  2  0
 19 20  1  0
 20 21  2  0
 21 22  1  0
 22 23  2  0
 23 24  1  0
 23 25  1  0
 25 26  2  0
 26 27  1  0
 27 28  2  0
 12  7  1  0
 17 13  1  0
 28 18  1  0
 27 21  1  0
  3 29  1  0
  4 30  1  0
  4 31  1  0
  8 32  1  0
  8 33  1  0
  9 34  1  0
  9 35  1  0
 10 36  1  0
 10 37  1  0
 11 38  1  0
 11 39  1  0
 12 40  1  6
 14 41  1  0
 15 42  1  0
 16 43  1  0
 19 44  1  0
 20 45  1  0
 22 46  1  0
 25 47  1  0
 26 48  1  0
M  END
>  <smiles>  (14) 
O=C(NCC(=O)N1CCCC[C@H]1c1c[nH]cn1)c1ccc2cc(Cl)ccc2n1

>  <score_type>  (14) 
oracle

>  <origin>  (14) 
autodockgpu

>  <m_score__min__energy>  (14) 
-8.7100000000000009

>  <m_primary>  (14) 
energy

>  <rmsd>  (14) 
6.740019407245411

>  <m_score__min__rmsd>  (14) 
6.740019407245411

>  <meeko>  (14) 
{"free_energy": -7.19, "intermolecular_energy": -8.68, "internal_energy": -2.13, "cluster_size": 7, "cluster_id": 6, "rank_in_cluster": 1}

>  <energy>  (14) 
-7.94

>  <cluster_rmsd>  (14) 
1.91

>  <cluster>  (14) 
2

$$$$

     RDKit          3D

 48 51  0  0  0  0  0  0  0  0999 V2000
  139.4620   71.8080  220.6570 O   0  0  0  0  0  0  0  0  0  0  0  0
  139.5410   72.2780  221.8150 C   0  0  0  0  0  0  0  0  0  0  0  0
  139.5030   73.6730  222.0860 N   0  0  0  0  0  0  0  0  0  0  0  0
  139.3680   74.6660  221.0340 C   0  0  0  0  0  0  0  0  0  0  0  0
  140.6130   75.5170  221.0370 C   0  0  0  0  0  0  0  0  0  0  0  0
  141.0730   75.7830  222.1730 O   0  0  0  0  0  0  0  0  0  0  0  0
  141.1750   75.9520  219.8120 N   0  0  0  0  0  0  0  0  0  0  0  0
  140.4290   76.9170  218.9950 C   0  0  0  0  0  0  0  0  0  0  0  0
  141.3010   77.6790  218.0630 C   0  0  0  0  0  0  0  0  0  0  0  0
  142.7360   77.7940  218.3910 C   0  0  0  0  0  0  0  0  0  0  0  0
  143.3080   76.7870  219.3220 C   0  0  0  0  0  0  0  0  0  0  0  0
  142.4390   75.5460  219.2760 C   0  0  1  0  0  0  0  0  0  0  0  0
  143.1430   74.4500  219.8960 C   0  0  0  0  0  0  0  0  0  0  0  0
  142.7090   73.1760  220.1960 C   0  0  0  0  0  0  0  0  0  0  0  0
  143.6850   72.4590  220.7810 N   0  0  0  0  0  0  0  0  0  0  0  0
  144.7520   73.2730  220.8580 C   0  0  0  0  0  0  0  0  0  0  0  0
  144.4400   74.4670  220.3320 N   0  0  0  0  0  0  0  0  0  0  0  0
  139.6780   71.3400  222.9470 C   0  0  0  0  0  0  0  0  0  0  0  0
  139.2500   70.0430  222.8430 C   0  0  0  0  0  0  0  0  0  0  0  0
  139.3700   69.1640  223.8770 C   0  0  0  0  0  0  0  0  0  0  0  0
  139.9330   69.5950  225.0470 C   0  0  0  0  0  0  0  0  0  0  0  0
  140.0960   68.7660  226.1550 C   0  0  0  0  0  0  0  0  0  0  0  0
  140.6610   69.2140  227.3170 C   0  0  0  0  0  0  0  0  0  0  0  0
  140.8660   68.1670  228.7170 Cl  0  0  0  0  0  0  0  0  0  0  0  0
  141.0900   70.5200  227.4110 C   0  0  0  0  0  0  0  0  0  0  0  0
  140.9270   71.3400  226.3090 C   0  0  0  0  0  0  0  0  0  0  0  0
  140.3570   70.9040  225.1280 C   0  0  0  0  0  0  0  0  0  0  0  0
  140.2250   71.7330  224.0970 N   0  0  0  0  0  0  0  0  0  0  0  0
  139.5770   73.9710  223.1010 H   0  0  0  0  0  0  0  0  0  0  0  0
  139.2593   74.1663  220.0601 H   0  0  0  0  0  0  0  0  0  0  0  0
  138.4779   75.2887  221.2070 H   0  0  0  0  0  0  0  0  0  0  0  0
  139.6771   76.3715  218.4059 H   0  0  0  0  0  0  0  0  0  0  0  0
  139.9641   77.6412  219.6801 H   0  0  0  0  0  0  0  0  0  0  0  0
  141.2288   77.1944  217.0782 H   0  0  0  0  0  0  0  0  0  0  0  0
  140.9241   78.7110  218.1175 H   0  0  0  0  0  0  0  0  0  0  0  0
  143.2966   77.7264  217.4470 H   0  0  0  0  0  0  0  0  0  0  0  0
  142.8267   78.7524  218.9233 H   0  0  0  0  0  0  0  0  0  0  0  0
  144.3330   76.5347  219.0125 H   0  0  0  0  0  0  0  0  0  0  0  0
  143.3369   77.1908  220.3448 H   0  0  0  0  0  0  0  0  0  0  0  0
  142.2255   75.1361  218.2778 H   0  0  0  0  0  0  0  0  0  0  0  0
  141.6984   72.7964  219.9848 H   0  0  0  0  0  0  0  0  0  0  0  0
  143.6290   71.4630  221.1120 H   0  0  0  0  0  0  0  0  0  0  0  0
  145.7286   73.0023  221.2856 H   0  0  0  0  0  0  0  0  0  0  0  0
  138.7976   69.7022  221.9000 H   0  0  0  0  0  0  0  0  0  0  0  0
  139.0204   68.1262  223.7730 H   0  0  0  0  0  0  0  0  0  0  0  0
  139.7603   67.7203  226.0932 H   0  0  0  0  0  0  0  0  0  0  0  0
  141.5489   70.8996  228.3358 H   0  0  0  0  0  0  0  0  0  0  0  0
  141.2658   72.3844  226.3756 H   0  0  0  0  0  0  0  0  0  0  0  0
  1  2  2  0
  2  3  1  0
  3  4  1  0
  4  5  1  0
  5  6  2  0
  5  7  1  0
  7  8  1  0
  8  9  1  0
  9 10  1  0
 10 11  1  0
 11 12  1  0
 12 13  1  0
 13 14  2  0
 14 15  1  0
 15 16  1  0
 16 17  2  0
  2 18  1  0
 18 19  2  0
 19 20  1  0
 20 21  2  0
 21 22  1  0
 22 23  2  0
 23 24  1  0
 23 25  1  0
 25 26  2  0
 26 27  1  0
 27 28  2  0
 12  7  1  0
 17 13  1  0
 28 18  1  0
 27 21  1  0
  3 29  1  0
  4 30  1  0
  4 31  1  0
  8 32  1  0
  8 33  1  0
  9 34  1  0
  9 35  1  0
 10 36  1  0
 10 37  1  0
 11 38  1  0
 11 39  1  0
 12 40  1  6
 14 41  1  0
 15 42  1  0
 16 43  1  0
 19 44  1  0
 20 45  1  0
 22 46  1  0
 25 47  1  0
 26 48  1  0
M  END
>  <smiles>  (15) 
O=C(NCC(=O)N1CCCC[C@H]1c1c[nH]cn1)c1ccc2cc(Cl)ccc2n1

>  <score_type>  (15) 
oracle

>  <origin>  (15) 
autodockgpu

>  <m_score__min__energy>  (15) 
-8.7100000000000009

>  <m_primary>  (15) 
energy

>  <rmsd>  (15) 
2.6106839560000115

>  <m_score__min__rmsd>  (15) 
2.6106839560000115

>  <meeko>  (15) 
{"free_energy": -7.39, "intermolecular_energy": -8.88, "internal_energy": -1.87, "cluster_size": 17, "cluster_id": 3, "rank_in_cluster": 17}

>  <energy>  (15) 
-7.93

>  <cluster_rmsd>  (15) 
1.86

>  <cluster>  (15) 
2

$$$$

     RDKit          3D

 48 51  0  0  0  0  0  0  0  0999 V2000
  138.3980   76.6380  222.5960 O   0  0  0  0  0  0  0  0  0  0  0  0
  139.2780   76.8380  221.7260 C   0  0  0  0  0  0  0  0  0  0  0  0
  139.3710   78.0490  220.9870 N   0  0  0  0  0  0  0  0  0  0  0  0
  138.4480   79.1550  221.1860 C   0  0  0  0  0  0  0  0  0  0  0  0
  139.2140   80.4380  220.9950 C   0  0  0  0  0  0  0  0  0  0  0  0
  138.6890   81.2600  220.2060 O   0  0  0  0  0  0  0  0  0  0  0  0
  140.4340   80.6440  221.6830 N   0  0  0  0  0  0  0  0  0  0  0  0
  140.3980   81.2480  223.0210 C   0  0  0  0  0  0  0  0  0  0  0  0
  141.6050   80.9310  223.8300 C   0  0  0  0  0  0  0  0  0  0  0  0
  142.3800   79.7250  223.4770 C   0  0  0  0  0  0  0  0  0  0  0  0
  142.2160   79.1830  222.1040 C   0  0  0  0  0  0  0  0  0  0  0  0
  141.7400   80.3040  221.2020 C   0  0  1  0  0  0  0  0  0  0  0  0
  141.8960   79.9040  219.8240 C   0  0  0  0  0  0  0  0  0  0  0  0
  142.6160   80.4950  218.8080 C   0  0  0  0  0  0  0  0  0  0  0  0
  142.4920   79.8010  217.6620 N   0  0  0  0  0  0  0  0  0  0  0  0
  141.6910   78.7590  217.9420 C   0  0  0  0  0  0  0  0  0  0  0  0
  141.3270   78.8090  219.2330 N   0  0  0  0  0  0  0  0  0  0  0  0
  140.2580   75.7690  221.4580 C   0  0  0  0  0  0  0  0  0  0  0  0
  140.0050   74.4730  221.8260 C   0  0  0  0  0  0  0  0  0  0  0  0
  140.8990   73.4730  221.5860 C   0  0  0  0  0  0  0  0  0  0  0  0
  142.0780   73.7780  220.9620 C   0  0  0  0  0  0  0  0  0  0  0  0
  143.0500   72.8200  220.6770 C   0  0  0  0  0  0  0  0  0  0  0  0
  144.2220   73.1420  220.0530 C   0  0  0  0  0  0  0  0  0  0  0  0
  145.4490   71.9330  219.6940 Cl  0  0  0  0  0  0  0  0  0  0  0  0
  144.4670   74.4480  219.6870 C   0  0  0  0  0  0  0  0  0  0  0  0
  143.5010   75.3960  219.9710 C   0  0  0  0  0  0  0  0  0  0  0  0
  142.3100   75.0870  220.6020 C   0  0  0  0  0  0  0  0  0  0  0  0
  141.4130   76.0370  220.8510 N   0  0  0  0  0  0  0  0  0  0  0  0
  140.1500   78.1210  220.2720 H   0  0  0  0  0  0  0  0  0  0  0  0
  137.6300   79.0955  220.4530 H   0  0  0  0  0  0  0  0  0  0  0  0
  138.0141   79.1147  222.1960 H   0  0  0  0  0  0  0  0  0  0  0  0
  140.3253   82.3401  222.9116 H   0  0  0  0  0  0  0  0  0  0  0  0
  139.5273   80.8315  223.5487 H   0  0  0  0  0  0  0  0  0  0  0  0
  142.2859   81.7915  223.7523 H   0  0  0  0  0  0  0  0  0  0  0  0
  141.2133   80.7206  224.8361 H   0  0  0  0  0  0  0  0  0  0  0  0
  143.4448   79.9665  223.6111 H   0  0  0  0  0  0  0  0  0  0  0  0
  141.9898   78.9372  224.1381 H   0  0  0  0  0  0  0  0  0  0  0  0
  143.1791   78.7962  221.7396 H   0  0  0  0  0  0  0  0  0  0  0  0
  141.4836   78.3622  222.1062 H   0  0  0  0  0  0  0  0  0  0  0  0
  142.3247   81.2353  221.2305 H   0  0  0  0  0  0  0  0  0  0  0  0
  143.2128   81.4123  218.9193 H   0  0  0  0  0  0  0  0  0  0  0  0
  142.9320   80.0250  216.7350 H   0  0  0  0  0  0  0  0  0  0  0  0
  141.3815   77.9849  217.2243 H   0  0  0  0  0  0  0  0  0  0  0  0
  139.0558   74.2341  222.3280 H   0  0  0  0  0  0  0  0  0  0  0  0
  140.6769   72.4390  221.8885 H   0  0  0  0  0  0  0  0  0  0  0  0
  142.8678   71.7736  220.9631 H   0  0  0  0  0  0  0  0  0  0  0  0
  145.4040   74.7282  219.1835 H   0  0  0  0  0  0  0  0  0  0  0  0
  143.6881   76.4409  219.6825 H   0  0  0  0  0  0  0  0  0  0  0  0
  1  2  2  0
  2  3  1  0
  3  4  1  0
  4  5  1  0
  5  6  2  0
  5  7  1  0
  7  8  1  0
  8  9  1  0
  9 10  1  0
 10 11  1  0
 11 12  1  0
 12 13  1  0
 13 14  2  0
 14 15  1  0
 15 16  1  0
 16 17  2  0
  2 18  1  0
 18 19  2  0
 19 20  1  0
 20 21  2  0
 21 22  1  0
 22 23  2  0
 23 24  1  0
 23 25  1  0
 25 26  2  0
 26 27  1  0
 27 28  2  0
 12  7  1  0
 17 13  1  0
 28 18  1  0
 27 21  1  0
  3 29  1  0
  4 30  1  0
  4 31  1  0
  8 32  1  0
  8 33  1  0
  9 34  1  0
  9 35  1  0
 10 36  1  0
 10 37  1  0
 11 38  1  0
 11 39  1  0
 12 40  1  6
 14 41  1  0
 15 42  1  0
 16 43  1  0
 19 44  1  0
 20 45  1  0
 22 46  1  0
 25 47  1  0
 26 48  1  0
M  END
>  <smiles>  (16) 
O=C(NCC(=O)N1CCCC[C@H]1c1c[nH]cn1)c1ccc2cc(Cl)ccc2n1

>  <score_type>  (16) 
oracle

>  <origin>  (16) 
autodockgpu

>  <m_score__min__energy>  (16) 
-8.7100000000000009

>  <m_primary>  (16) 
energy

>  <rmsd>  (16) 
6.711087125601168

>  <m_score__min__rmsd>  (16) 
6.711087125601168

>  <meeko>  (16) 
{"free_energy": -6.2, "intermolecular_energy": -7.69, "internal_energy": -3.0, "cluster_size": 7, "cluster_id": 6, "rank_in_cluster": 7}

>  <energy>  (16) 
-7.56

>  <cluster_rmsd>  (16) 
0.88

>  <cluster>  (16) 
2

$$$$

     RDKit          3D

 48 51  0  0  0  0  0  0  0  0999 V2000
  140.4260   72.5130  220.7170 O   0  0  0  0  0  0  0  0  0  0  0  0
  140.0470   72.8800  221.8540 C   0  0  0  0  0  0  0  0  0  0  0  0
  139.6100   74.2040  222.1310 N   0  0  0  0  0  0  0  0  0  0  0  0
  139.5680   75.2390  221.1120 C   0  0  0  0  0  0  0  0  0  0  0  0
  140.7720   76.1250  221.3010 C   0  0  0  0  0  0  0  0  0  0  0  0
  141.8810   75.5530  221.1730 O   0  0  0  0  0  0  0  0  0  0  0  0
  140.6000   77.4990  221.5990 N   0  0  0  0  0  0  0  0  0  0  0  0
  139.7240   77.8760  222.7150 C   0  0  0  0  0  0  0  0  0  0  0  0
  140.0280   79.2270  223.2570 C   0  0  0  0  0  0  0  0  0  0  0  0
  141.3800   79.7760  223.0320 C   0  0  0  0  0  0  0  0  0  0  0  0
  142.1750   79.2030  221.9150 C   0  0  0  0  0  0  0  0  0  0  0  0
  141.2180   78.5930  220.9110 C   0  0  1  0  0  0  0  0  0  0  0  0
  141.9220   78.3370  219.6780 C   0  0  0  0  0  0  0  0  0  0  0  0
  142.3710   79.2170  218.7170 C   0  0  0  0  0  0  0  0  0  0  0  0
  142.9810   78.5640  217.7110 N   0  0  0  0  0  0  0  0  0  0  0  0
  142.9260   77.2590  218.0270 C   0  0  0  0  0  0  0  0  0  0  0  0
  142.2950   77.1100  219.2020 N   0  0  0  0  0  0  0  0  0  0  0  0
  140.0560   71.8930  222.9500 C   0  0  0  0  0  0  0  0  0  0  0  0
  139.5810   70.6220  222.7580 C   0  0  0  0  0  0  0  0  0  0  0  0
  139.5820   69.6980  223.7600 C   0  0  0  0  0  0  0  0  0  0  0  0
  140.0710   70.0550  224.9860 C   0  0  0  0  0  0  0  0  0  0  0  0
  140.1110   69.1760  226.0670 C   0  0  0  0  0  0  0  0  0  0  0  0
  140.6040   69.5500  227.2860 C   0  0  0  0  0  0  0  0  0  0  0  0
  140.6540   68.4400  228.6510 Cl  0  0  0  0  0  0  0  0  0  0  0  0
  141.0800   70.8300  227.4690 C   0  0  0  0  0  0  0  0  0  0  0  0
  141.0380   71.7000  226.3950 C   0  0  0  0  0  0  0  0  0  0  0  0
  140.5440   71.3380  225.1550 C   0  0  0  0  0  0  0  0  0  0  0  0
  140.5280   72.2140  224.1540 N   0  0  0  0  0  0  0  0  0  0  0  0
  139.3100   74.4150  223.1250 H   0  0  0  0  0  0  0  0  0  0  0  0
  139.5947   74.7805  220.1125 H   0  0  0  0  0  0  0  0  0  0  0  0
  138.6424   75.8266  221.2010 H   0  0  0  0  0  0  0  0  0  0  0  0
  138.6820   77.8653  222.3627 H   0  0  0  0  0  0  0  0  0  0  0  0
  139.8892   77.1501  223.5248 H   0  0  0  0  0  0  0  0  0  0  0  0
  139.3108   79.9291  222.8068 H   0  0  0  0  0  0  0  0  0  0  0  0
  139.9582   79.1073  224.3482 H   0  0  0  0  0  0  0  0  0  0  0  0
  141.2705   80.8535  222.8399 H   0  0  0  0  0  0  0  0  0  0  0  0
  141.9435   79.5154  223.9401 H   0  0  0  0  0  0  0  0  0  0  0  0
  142.7636   79.9971  221.4323 H   0  0  0  0  0  0  0  0  0  0  0  0
  142.8635   78.4345  222.2963 H   0  0  0  0  0  0  0  0  0  0  0  0
  140.3954   79.2368  220.5664 H   0  0  0  0  0  0  0  0  0  0  0  0
  142.2471   80.3089  218.7659 H   0  0  0  0  0  0  0  0  0  0  0  0
  143.4140   78.9860  216.8520 H   0  0  0  0  0  0  0  0  0  0  0  0
  143.3348   76.4399  217.4171 H   0  0  0  0  0  0  0  0  0  0  0  0
  139.1888   70.3402  221.7697 H   0  0  0  0  0  0  0  0  0  0  0  0
  139.1962   68.6828  223.5854 H   0  0  0  0  0  0  0  0  0  0  0  0
  139.7346   68.1508  225.9353 H   0  0  0  0  0  0  0  0  0  0  0  0
  141.4819   71.1506  228.4415 H   0  0  0  0  0  0  0  0  0  0  0  0
  141.4138   72.7246  226.5329 H   0  0  0  0  0  0  0  0  0  0  0  0
  1  2  2  0
  2  3  1  0
  3  4  1  0
  4  5  1  0
  5  6  2  0
  5  7  1  0
  7  8  1  0
  8  9  1  0
  9 10  1  0
 10 11  1  0
 11 12  1  0
 12 13  1  0
 13 14  2  0
 14 15  1  0
 15 16  1  0
 16 17  2  0
  2 18  1  0
 18 19  2  0
 19 20  1  0
 20 21  2  0
 21 22  1  0
 22 23  2  0
 23 24  1  0
 23 25  1  0
 25 26  2  0
 26 27  1  0
 27 28  2  0
 12  7  1  0
 17 13  1  0
 28 18  1  0
 27 21  1  0
  3 29  1  0
  4 30  1  0
  4 31  1  0
  8 32  1  0
  8 33  1  0
  9 34  1  0
  9 35  1  0
 10 36  1  0
 10 37  1  0
 11 38  1  0
 11 39  1  0
 12 40  1  6
 14 41  1  0
 15 42  1  0
 16 43  1  0
 19 44  1  0
 20 45  1  0
 22 46  1  0
 25 47  1  0
 26 48  1  0
M  END
>  <smiles>  (17) 
O=C(NCC(=O)N1CCCC[C@H]1c1c[nH]cn1)c1ccc2cc(Cl)ccc2n1

>  <score_type>  (17) 
oracle

>  <origin>  (17) 
autodockgpu

>  <m_score__min__energy>  (17) 
-8.7100000000000009

>  <m_primary>  (17) 
energy

>  <rmsd>  (17) 
3.4156293784058644

>  <m_score__min__rmsd>  (17) 
3.4156293784058644

>  <meeko>  (17) 
{"free_energy": -8.63, "intermolecular_energy": -10.13, "internal_energy": -1.04, "cluster_size": 8, "cluster_id": 1, "rank_in_cluster": 7}

>  <energy>  (17) 
-7.36

>  <cluster_rmsd>  (17) 
1.98

>  <cluster>  (17) 
2

$$$$

     RDKit          3D

 48 51  0  0  0  0  0  0  0  0999 V2000
  139.5760   71.6700  220.8890 O   0  0  0  0  0  0  0  0  0  0  0  0
  139.6120   72.1540  222.0440 C   0  0  0  0  0  0  0  0  0  0  0  0
  139.5290   73.5500  222.2980 N   0  0  0  0  0  0  0  0  0  0  0  0
  139.3940   74.5280  221.2320 C   0  0  0  0  0  0  0  0  0  0  0  0
  140.6380   75.3790  221.2230 C   0  0  0  0  0  0  0  0  0  0  0  0
  141.0750   75.6960  222.3560 O   0  0  0  0  0  0  0  0  0  0  0  0
  141.2240   75.7620  219.9930 N   0  0  0  0  0  0  0  0  0  0  0  0
  140.5710   76.8050  219.1910 C   0  0  0  0  0  0  0  0  0  0  0  0
  141.5040   77.4780  218.2500 C   0  0  0  0  0  0  0  0  0  0  0  0
  142.9480   77.4400  218.5570 C   0  0  0  0  0  0  0  0  0  0  0  0
  143.4250   76.3740  219.4740 C   0  0  0  0  0  0  0  0  0  0  0  0
  142.4320   75.2300  219.4350 C   0  0  1  0  0  0  0  0  0  0  0  0
  143.0270   74.0630  220.0390 C   0  0  0  0  0  0  0  0  0  0  0  0
  144.3080   73.8660  220.5080 C   0  0  0  0  0  0  0  0  0  0  0  0
  144.4590   72.6220  220.9960 N   0  0  0  0  0  0  0  0  0  0  0  0
  143.2690   72.0140  220.8400 C   0  0  0  0  0  0  0  0  0  0  0  0
  142.4040   72.8660  220.2690 N   0  0  0  0  0  0  0  0  0  0  0  0
  139.7470   71.2320  223.1880 C   0  0  0  0  0  0  0  0  0  0  0  0
  139.3380   69.9280  223.0940 C   0  0  0  0  0  0  0  0  0  0  0  0
  139.4560   69.0630  224.1410 C   0  0  0  0  0  0  0  0  0  0  0  0
  139.9960   69.5160  225.3130 C   0  0  0  0  0  0  0  0  0  0  0  0
  140.1540   68.7030  226.4340 C   0  0  0  0  0  0  0  0  0  0  0  0
  140.6950   69.1730  227.5980 C   0  0  0  0  0  0  0  0  0  0  0  0
  140.8950   68.1470  229.0140 Cl  0  0  0  0  0  0  0  0  0  0  0  0
  141.1040   70.4870  227.6830 C   0  0  0  0  0  0  0  0  0  0  0  0
  140.9450   71.2910  226.5690 C   0  0  0  0  0  0  0  0  0  0  0  0
  140.3990   70.8320  225.3840 C   0  0  0  0  0  0  0  0  0  0  0  0
  140.2700   71.6470  224.3410 N   0  0  0  0  0  0  0  0  0  0  0  0
  139.5690   73.8600  223.3110 H   0  0  0  0  0  0  0  0  0  0  0  0
  139.2856   74.0144  220.2653 H   0  0  0  0  0  0  0  0  0  0  0  0
  138.5037   75.1529  221.3961 H   0  0  0  0  0  0  0  0  0  0  0  0
  139.7582   76.3443  218.6104 H   0  0  0  0  0  0  0  0  0  0  0  0
  140.1940   77.5694  219.8863 H   0  0  0  0  0  0  0  0  0  0  0  0
  141.3672   77.0103  217.2638 H   0  0  0  0  0  0  0  0  0  0  0  0
  141.2379   78.5433  218.3154 H   0  0  0  0  0  0  0  0  0  0  0  0
  143.4846   77.3198  217.6043 H   0  0  0  0  0  0  0  0  0  0  0  0
  143.1460   78.3803  219.0925 H   0  0  0  0  0  0  0  0  0  0  0  0
  144.4139   76.0189  219.1484 H   0  0  0  0  0  0  0  0  0  0  0  0
  143.5096   76.7664  220.4982 H   0  0  0  0  0  0  0  0  0  0  0  0
  142.1632   74.8508  218.4380 H   0  0  0  0  0  0  0  0  0  0  0  0
  145.1025   74.6265  220.4860 H   0  0  0  0  0  0  0  0  0  0  0  0
  145.3270   72.2050  221.4140 H   0  0  0  0  0  0  0  0  0  0  0  0
  143.0407   70.9791  221.1348 H   0  0  0  0  0  0  0  0  0  0  0  0
  138.9031   69.5696  222.1493 H   0  0  0  0  0  0  0  0  0  0  0  0
  139.1228   68.0191  224.0449 H   0  0  0  0  0  0  0  0  0  0  0  0
  139.8339   67.6520  226.3804 H   0  0  0  0  0  0  0  0  0  0  0  0
  141.5439   70.8842  228.6097 H   0  0  0  0  0  0  0  0  0  0  0  0
  141.2668   72.3412  226.6280 H   0  0  0  0  0  0  0  0  0  0  0  0
  1  2  2  0
  2  3  1  0
  3  4  1  0
  4  5  1  0
  5  6  2  0
  5  7  1  0
  7  8  1  0
  8  9  1  0
  9 10  1  0
 10 11  1  0
 11 12  1  0
 12 13  1  0
 13 14  2  0
 14 15  1  0
 15 16  1  0
 16 17  2  0
  2 18  1  0
 18 19  2  0
 19 20  1  0
 20 21  2  0
 21 22  1  0
 22 23  2  0
 23 24  1  0
 23 25  1  0
 25 26  2  0
 26 27  1  0
 27 28  2  0
 12  7  1  0
 17 13  1  0
 28 18  1  0
 27 21  1  0
  3 29  1  0
  4 30  1  0
  4 31  1  0
  8 32  1  0
  8 33  1  0
  9 34  1  0
  9 35  1  0
 10 36  1  0
 10 37  1  0
 11 38  1  0
 11 39  1  0
 12 40  1  6
 14 41  1  0
 15 42  1  0
 16 43  1  0
 19 44  1  0
 20 45  1  0
 22 46  1  0
 25 47  1  0
 26 48  1  0
M  END
>  <smiles>  (18) 
O=C(NCC(=O)N1CCCC[C@H]1c1c[nH]cn1)c1ccc2cc(Cl)ccc2n1

>  <score_type>  (18) 
oracle

>  <origin>  (18) 
autodockgpu

>  <m_score__min__energy>  (18) 
-8.7100000000000009

>  <m_primary>  (18) 
energy

>  <rmsd>  (18) 
2.7427146972128447

>  <m_score__min__rmsd>  (18) 
2.7427146972128447

>  <meeko>  (18) 
{"free_energy": -7.78, "intermolecular_energy": -9.27, "internal_energy": -2.0, "cluster_size": 17, "cluster_id": 3, "rank_in_cluster": 3}

>  <energy>  (18) 
-7.98

>  <cluster_rmsd>  (18) 
0.0

>  <cluster>  (18) 
3

$$$$

     RDKit          3D

 48 51  0  0  0  0  0  0  0  0999 V2000
  139.2530   72.1200  220.8510 O   0  0  0  0  0  0  0  0  0  0  0  0
  139.4150   72.5460  222.0180 C   0  0  0  0  0  0  0  0  0  0  0  0
  139.4160   73.9310  222.3400 N   0  0  0  0  0  0  0  0  0  0  0  0
  139.2280   74.9630  221.3350 C   0  0  0  0  0  0  0  0  0  0  0  0
  139.5960   76.2870  221.9550 C   0  0  0  0  0  0  0  0  0  0  0  0
  140.6060   76.2640  222.7000 O   0  0  0  0  0  0  0  0  0  0  0  0
  138.8210   77.4380  221.6780 N   0  0  0  0  0  0  0  0  0  0  0  0
  137.5230   77.2740  221.0110 C   0  0  0  0  0  0  0  0  0  0  0  0
  136.6030   78.4160  221.2500 C   0  0  0  0  0  0  0  0  0  0  0  0
  136.8280   79.2510  222.4470 C   0  0  0  0  0  0  0  0  0  0  0  0
  138.1810   79.2180  223.0600 C   0  0  0  0  0  0  0  0  0  0  0  0
  139.1750   78.7890  221.9990 C   0  0  1  0  0  0  0  0  0  0  0  0
  140.5130   79.0700  222.4610 C   0  0  0  0  0  0  0  0  0  0  0  0
  141.7100   79.0320  221.7790 C   0  0  0  0  0  0  0  0  0  0  0  0
  142.7350   79.3620  222.5840 N   0  0  0  0  0  0  0  0  0  0  0  0
  142.1970   79.6150  223.7890 C   0  0  0  0  0  0  0  0  0  0  0  0
  140.8670   79.4440  223.7280 N   0  0  0  0  0  0  0  0  0  0  0  0
  139.6120   71.5660  223.1030 C   0  0  0  0  0  0  0  0  0  0  0  0
  139.2700   70.2500  222.9350 C   0  0  0  0  0  0  0  0  0  0  0  0
  139.4460   69.3320  223.9260 C   0  0  0  0  0  0  0  0  0  0  0  0
  139.9770   69.7420  225.1180 C   0  0  0  0  0  0  0  0  0  0  0  0
  140.1910   68.8730  226.1870 C   0  0  0  0  0  0  0  0  0  0  0  0
  140.7230   69.3010  227.3710 C   0  0  0  0  0  0  0  0  0  0  0  0
  140.9930   68.2040  228.7210 Cl  0  0  0  0  0  0  0  0  0  0  0  0
  141.0640   70.6260  227.5310 C   0  0  0  0  0  0  0  0  0  0  0  0
  140.8490   71.4860  226.4690 C   0  0  0  0  0  0  0  0  0  0  0  0
  140.3120   71.0710  225.2650 C   0  0  0  0  0  0  0  0  0  0  0  0
  140.1280   71.9390  224.2740 N   0  0  0  0  0  0  0  0  0  0  0  0
  139.5610   74.1900  223.3570 H   0  0  0  0  0  0  0  0  0  0  0  0
  139.8757   74.7632  220.4686 H   0  0  0  0  0  0  0  0  0  0  0  0
  138.1828   74.9779  220.9924 H   0  0  0  0  0  0  0  0  0  0  0  0
  137.6937   77.1812  219.9283 H   0  0  0  0  0  0  0  0  0  0  0  0
  137.0481   76.3739  221.4286 H   0  0  0  0  0  0  0  0  0  0  0  0
  136.6684   79.0772  220.3734 H   0  0  0  0  0  0  0  0  0  0  0  0
  135.6233   77.9468  221.4235 H   0  0  0  0  0  0  0  0  0  0  0  0
  136.6186   80.2937  222.1659 H   0  0  0  0  0  0  0  0  0  0  0  0
  136.1618   78.8285  223.2136 H   0  0  0  0  0  0  0  0  0  0  0  0
  138.4445   80.2186  223.4334 H   0  0  0  0  0  0  0  0  0  0  0  0
  138.1978   78.5109  223.9025 H   0  0  0  0  0  0  0  0  0  0  0  0
  139.1459   79.3437  221.0495 H   0  0  0  0  0  0  0  0  0  0  0  0
  141.8131   78.7667  220.7165 H   0  0  0  0  0  0  0  0  0  0  0  0
  143.7530   79.4140  222.3270 H   0  0  0  0  0  0  0  0  0  0  0  0
  142.7589   79.9154  224.6857 H   0  0  0  0  0  0  0  0  0  0  0  0
  138.8421   69.9262  221.9748 H   0  0  0  0  0  0  0  0  0  0  0  0
  139.1660   68.2797  223.7704 H   0  0  0  0  0  0  0  0  0  0  0  0
  139.9239   67.8119  226.0742 H   0  0  0  0  0  0  0  0  0  0  0  0
  141.4947   70.9896  228.4756 H   0  0  0  0  0  0  0  0  0  0  0  0
  141.1171   72.5462  226.5879 H   0  0  0  0  0  0  0  0  0  0  0  0
  1  2  2  0
  2  3  1  0
  3  4  1  0
  4  5  1  0
  5  6  2  0
  5  7  1  0
  7  8  1  0
  8  9  1  0
  9 10  1  0
 10 11  1  0
 11 12  1  0
 12 13  1  0
 13 14  2  0
 14 15  1  0
 15 16  1  0
 16 17  2  0
  2 18  1  0
 18 19  2  0
 19 20  1  0
 20 21  2  0
 21 22  1  0
 22 23  2  0
 23 24  1  0
 23 25  1  0
 25 26  2  0
 26 27  1  0
 27 28  2  0
 12  7  1  0
 17 13  1  0
 28 18  1  0
 27 21  1  0
  3 29  1  0
  4 30  1  0
  4 31  1  0
  8 32  1  0
  8 33  1  0
  9 34  1  0
  9 35  1  0
 10 36  1  0
 10 37  1  0
 11 38  1  0
 11 39  1  0
 12 40  1  6
 14 41  1  0
 15 42  1  0
 16 43  1  0
 19 44  1  0
 20 45  1  0
 22 46  1  0
 25 47  1  0
 26 48  1  0
M  END
>  <smiles>  (19) 
O=C(NCC(=O)N1CCCC[C@H]1c1c[nH]cn1)c1ccc2cc(Cl)ccc2n1

>  <score_type>  (19) 
oracle

>  <origin>  (19) 
autodockgpu

>  <m_score__min__energy>  (19) 
-8.7100000000000009

>  <m_primary>  (19) 
energy

>  <rmsd>  (19) 
3.1019963361668776

>  <m_score__min__rmsd>  (19) 
3.1019963361668776

>  <meeko>  (19) 
{"free_energy": -8.06, "intermolecular_energy": -9.55, "internal_energy": -1.69, "cluster_size": 9, "cluster_id": 2, "rank_in_cluster": 2}

>  <energy>  (19) 
-7.81

>  <cluster_rmsd>  (19) 
1.51

>  <cluster>  (19) 
3

$$$$

     RDKit          3D

 48 51  0  0  0  0  0  0  0  0999 V2000
  138.1590   71.8200  221.2570 O   0  0  0  0  0  0  0  0  0  0  0  0
  138.8530   72.2380  222.2140 C   0  0  0  0  0  0  0  0  0  0  0  0
  139.3430   73.5700  222.2880 N   0  0  0  0  0  0  0  0  0  0  0  0
  139.0740   74.5560  221.2540 C   0  0  0  0  0  0  0  0  0  0  0  0
  139.4570   75.9100  221.7940 C   0  0  0  0  0  0  0  0  0  0  0  0
  140.5080   75.9330  222.4790 O   0  0  0  0  0  0  0  0  0  0  0  0
  138.6490   77.0380  221.5140 N   0  0  0  0  0  0  0  0  0  0  0  0
  137.3470   76.8330  220.8670 C   0  0  0  0  0  0  0  0  0  0  0  0
  136.4010   77.9550  221.1050 C   0  0  0  0  0  0  0  0  0  0  0  0
  136.6210   78.8100  222.2890 C   0  0  0  0  0  0  0  0  0  0  0  0
  137.9830   78.8180  222.8830 C   0  0  0  0  0  0  0  0  0  0  0  0
  138.9730   78.4010  221.8140 C   0  0  1  0  0  0  0  0  0  0  0  0
  140.3090   78.7220  222.2540 C   0  0  0  0  0  0  0  0  0  0  0  0
  141.4830   78.7950  221.5350 C   0  0  0  0  0  0  0  0  0  0  0  0
  142.5170   79.1240  222.3300 N   0  0  0  0  0  0  0  0  0  0  0  0
  142.0070   79.2640  223.5660 C   0  0  0  0  0  0  0  0  0  0  0  0
  140.6870   79.0260  223.5330 N   0  0  0  0  0  0  0  0  0  0  0  0
  139.1740   71.3030  223.3100 C   0  0  0  0  0  0  0  0  0  0  0  0
  138.8770   69.9700  223.2080 C   0  0  0  0  0  0  0  0  0  0  0  0
  139.1670   69.0930  224.2110 C   0  0  0  0  0  0  0  0  0  0  0  0
  139.7700   69.5640  225.3440 C   0  0  0  0  0  0  0  0  0  0  0  0
  140.1020   68.7400  226.4190 C   0  0  0  0  0  0  0  0  0  0  0  0
  140.7050   69.2280  227.5440 C   0  0  0  0  0  0  0  0  0  0  0  0
  141.1250   68.1880  228.9010 Cl  0  0  0  0  0  0  0  0  0  0  0  0
  141.0010   70.5710  227.6370 C   0  0  0  0  0  0  0  0  0  0  0  0
  140.6700   71.3850  226.5690 C   0  0  0  0  0  0  0  0  0  0  0  0
  140.0600   70.9090  225.4230 C   0  0  0  0  0  0  0  0  0  0  0  0
  139.7630   71.7350  224.4240 N   0  0  0  0  0  0  0  0  0  0  0  0
  139.9210   73.8260  223.1380 H   0  0  0  0  0  0  0  0  0  0  0  0
  139.6694   74.3292  220.3573 H   0  0  0  0  0  0  0  0  0  0  0  0
  138.0094   74.5408  220.9778 H   0  0  0  0  0  0  0  0  0  0  0  0
  137.5055   76.7311  219.7833 H   0  0  0  0  0  0  0  0  0  0  0  0
  136.9008   75.9264  221.3018 H   0  0  0  0  0  0  0  0  0  0  0  0
  136.4379   78.6069  220.2197 H   0  0  0  0  0  0  0  0  0  0  0  0
  135.4358   77.4636  221.2973 H   0  0  0  0  0  0  0  0  0  0  0  0
  136.3816   79.8436  221.9987 H   0  0  0  0  0  0  0  0  0  0  0  0
  135.9761   78.3806  223.0698 H   0  0  0  0  0  0  0  0  0  0  0  0
  138.2264   79.8293  223.2407 H   0  0  0  0  0  0  0  0  0  0  0  0
  138.0288   78.1216  223.7332 H   0  0  0  0  0  0  0  0  0  0  0  0
  138.9174   78.9424  220.8581 H   0  0  0  0  0  0  0  0  0  0  0  0
  141.5636   78.6088  220.4539 H   0  0  0  0  0  0  0  0  0  0  0  0
  143.5210   79.2480  222.0460 H   0  0  0  0  0  0  0  0  0  0  0  0
  142.5823   79.5319  224.4644 H   0  0  0  0  0  0  0  0  0  0  0  0
  138.3922   69.5973  222.2936 H   0  0  0  0  0  0  0  0  0  0  0  0
  138.9202   68.0258  224.1104 H   0  0  0  0  0  0  0  0  0  0  0  0
  139.8718   67.6660  226.3596 H   0  0  0  0  0  0  0  0  0  0  0  0
  141.4861   70.9832  228.5341 H   0  0  0  0  0  0  0  0  0  0  0  0
  140.9022   72.4582  226.6341 H   0  0  0  0  0  0  0  0  0  0  0  0
  1  2  2  0
  2  3  1  0
  3  4  1  0
  4  5  1  0
  5  6  2  0
  5  7  1  0
  7  8  1  0
  8  9  1  0
  9 10  1  0
 10 11  1  0
 11 12  1  0
 12 13  1  0
 13 14  2  0
 14 15  1  0
 15 16  1  0
 16 17  2  0
  2 18  1  0
 18 19  2  0
 19 20  1  0
 20 21  2  0
 21 22  1  0
 22 23  2  0
 23 24  1  0
 23 25  1  0
 25 26  2  0
 26 27  1  0
 27 28  2  0
 12  7  1  0
 17 13  1  0
 28 18  1  0
 27 21  1  0
  3 29  1  0
  4 30  1  0
  4 31  1  0
  8 32  1  0
  8 33  1  0
  9 34  1  0
  9 35  1  0
 10 36  1  0
 10 37  1  0
 11 38  1  0
 11 39  1  0
 12 40  1  6
 14 41  1  0
 15 42  1  0
 16 43  1  0
 19 44  1  0
 20 45  1  0
 22 46  1  0
 25 47  1  0
 26 48  1  0
M  END
>  <smiles>  (20) 
O=C(NCC(=O)N1CCCC[C@H]1c1c[nH]cn1)c1ccc2cc(Cl)ccc2n1

>  <score_type>  (20) 
oracle

>  <origin>  (20) 
autodockgpu

>  <m_score__min__energy>  (20) 
-8.7100000000000009

>  <m_primary>  (20) 
energy

>  <rmsd>  (20) 
2.9264548846584515

>  <m_score__min__rmsd>  (20) 
2.9264548846584515

>  <meeko>  (20) 
{"free_energy": -7.56, "intermolecular_energy": -9.05, "internal_energy": -1.89, "cluster_size": 9, "cluster_id": 2, "rank_in_cluster": 8}

>  <energy>  (20) 
-7.78

>  <cluster_rmsd>  (20) 
1.68

>  <cluster>  (20) 
3

$$$$

     RDKit          3D

 48 51  0  0  0  0  0  0  0  0999 V2000
  134.9420   68.4890  224.9670 O   0  0  0  0  0  0  0  0  0  0  0  0
  135.4280   69.6420  225.0350 C   0  0  0  0  0  0  0  0  0  0  0  0
  136.7360   69.9560  224.5760 N   0  0  0  0  0  0  0  0  0  0  0  0
  137.6140   68.9590  223.9870 C   0  0  0  0  0  0  0  0  0  0  0  0
  138.7700   68.7440  224.9290 C   0  0  0  0  0  0  0  0  0  0  0  0
  139.2700   67.5940  224.9060 O   0  0  0  0  0  0  0  0  0  0  0  0
  139.2140   69.8030  225.7570 N   0  0  0  0  0  0  0  0  0  0  0  0
  139.1920   69.6200  227.2140 C   0  0  0  0  0  0  0  0  0  0  0  0
  140.1350   70.5230  227.9230 C   0  0  0  0  0  0  0  0  0  0  0  0
  141.2820   71.0630  227.1660 C   0  0  0  0  0  0  0  0  0  0  0  0
  141.1780   71.0780  225.6840 C   0  0  0  0  0  0  0  0  0  0  0  0
  139.7090   71.0700  225.3090 C   0  0  1  0  0  0  0  0  0  0  0  0
  139.5740   71.4220  223.9160 C   0  0  0  0  0  0  0  0  0  0  0  0
  140.5240   71.4660  222.9180 C   0  0  0  0  0  0  0  0  0  0  0  0
  139.9810   71.8510  221.7500 N   0  0  0  0  0  0  0  0  0  0  0  0
  138.6750   72.0570  221.9960 C   0  0  0  0  0  0  0  0  0  0  0  0
  138.4190   71.8040  223.2890 N   0  0  0  0  0  0  0  0  0  0  0  0
  134.6050   70.7190  225.6190 C   0  0  0  0  0  0  0  0  0  0  0  0
  133.5550   70.4310  226.4510 C   0  0  0  0  0  0  0  0  0  0  0  0
  132.7850   71.4130  226.9990 C   0  0  0  0  0  0  0  0  0  0  0  0
  133.0730   72.7180  226.7060 C   0  0  0  0  0  0  0  0  0  0  0  0
  132.3400   73.7850  227.2200 C   0  0  0  0  0  0  0  0  0  0  0  0
  132.6420   75.0830  226.9170 C   0  0  0  0  0  0  0  0  0  0  0  0
  131.7160   76.4320  227.5660 Cl  0  0  0  0  0  0  0  0  0  0  0  0
  133.7010   75.3630  226.0800 C   0  0  0  0  0  0  0  0  0  0  0  0
  134.4260   74.3010  225.5700 C   0  0  0  0  0  0  0  0  0  0  0  0
  134.1340   72.9830  225.8670 C   0  0  0  0  0  0  0  0  0  0  0  0
  134.8640   71.9980  225.3510 N   0  0  0  0  0  0  0  0  0  0  0  0
  137.0560   70.9610  224.6780 H   0  0  0  0  0  0  0  0  0  0  0  0
  137.0664   68.0154  223.8462 H   0  0  0  0  0  0  0  0  0  0  0  0
  137.9776   69.3005  223.0066 H   0  0  0  0  0  0  0  0  0  0  0  0
  138.1734   69.8202  227.5778 H   0  0  0  0  0  0  0  0  0  0  0  0
  139.5045   68.5861  227.4222 H   0  0  0  0  0  0  0  0  0  0  0  0
  139.5524   71.3810  228.2897 H   0  0  0  0  0  0  0  0  0  0  0  0
  140.5918   69.8888  228.6970 H   0  0  0  0  0  0  0  0  0  0  0  0
  141.4359   72.1009  227.4963 H   0  0  0  0  0  0  0  0  0  0  0  0
  142.1112   70.3734  227.3825 H   0  0  0  0  0  0  0  0  0  0  0  0
  141.6582   71.9844  225.2867 H   0  0  0  0  0  0  0  0  0  0  0  0
  141.6818   70.1968  225.2601 H   0  0  0  0  0  0  0  0  0  0  0  0
  139.0764   71.8289  225.7928 H   0  0  0  0  0  0  0  0  0  0  0  0
  141.5865   71.2186  223.0588 H   0  0  0  0  0  0  0  0  0  0  0  0
  140.4730   71.9690  220.8300 H   0  0  0  0  0  0  0  0  0  0  0  0
  137.9320   72.3823  221.2529 H   0  0  0  0  0  0  0  0  0  0  0  0
  133.3277   69.3800  226.6826 H   0  0  0  0  0  0  0  0  0  0  0  0
  131.9468   71.1608  227.6651 H   0  0  0  0  0  0  0  0  0  0  0  0
  131.4927   73.5767  227.8898 H   0  0  0  0  0  0  0  0  0  0  0  0
  133.9619   76.4008  225.8251 H   0  0  0  0  0  0  0  0  0  0  0  0
  135.2713   74.5146  224.8992 H   0  0  0  0  0  0  0  0  0  0  0  0
  1  2  2  0
  2  3  1  0
  3  4  1  0
  4  5  1  0
  5  6  2  0
  5  7  1  0
  7  8  1  0
  8  9  1  0
  9 10  1  0
 10 11  1  0
 11 12  1  0
 12 13  1  0
 13 14  2  0
 14 15  1  0
 15 16  1  0
 16 17  2  0
  2 18  1  0
 18 19  2  0
 19 20  1  0
 20 21  2  0
 21 22  1  0
 22 23  2  0
 23 24  1  0
 23 25  1  0
 25 26  2  0
 26 27  1  0
 27 28  2  0
 12  7  1  0
 17 13  1  0
 28 18  1  0
 27 21  1  0
  3 29  1  0
  4 30  1  0
  4 31  1  0
  8 32  1  0
  8 33  1  0
  9 34  1  0
  9 35  1  0
 10 36  1  0
 10 37  1  0
 11 38  1  0
 11 39  1  0
 12 40  1  1
 14 41  1  0
 15 42  1  0
 16 43  1  0
 19 44  1  0
 20 45  1  0
 22 46  1  0
 25 47  1  0
 26 48  1  0
M  END
>  <smiles>  (21) 
O=C(NCC(=O)N1CCCC[C@H]1c1c[nH]cn1)c1ccc2cc(Cl)ccc2n1

>  <score_type>  (21) 
oracle

>  <origin>  (21) 
autodockgpu

>  <m_score__min__energy>  (21) 
-8.7100000000000009

>  <m_primary>  (21) 
energy

>  <rmsd>  (21) 
8.12737121818674

>  <m_score__min__rmsd>  (21) 
8.12737121818674

>  <meeko>  (21) 
{"free_energy": -7.56, "intermolecular_energy": -9.05, "internal_energy": -2.36, "cluster_size": 7, "cluster_id": 4, "rank_in_cluster": 1}

>  <energy>  (21) 
-7.74

>  <cluster_rmsd>  (21) 
1.68

>  <cluster>  (21) 
3

$$$$

     RDKit          3D

 48 51  0  0  0  0  0  0  0  0999 V2000
  138.6140   76.9850  222.6740 O   0  0  0  0  0  0  0  0  0  0  0  0
  139.3660   77.0570  221.6750 C   0  0  0  0  0  0  0  0  0  0  0  0
  139.3530   78.1600  220.7770 N   0  0  0  0  0  0  0  0  0  0  0  0
  138.4620   79.2940  220.9510 C   0  0  0  0  0  0  0  0  0  0  0  0
  139.2870   80.5510  220.8540 C   0  0  0  0  0  0  0  0  0  0  0  0
  138.8340   81.4280  220.0790 O   0  0  0  0  0  0  0  0  0  0  0  0
  140.4790   80.6760  221.6080 N   0  0  0  0  0  0  0  0  0  0  0  0
  140.4080   81.2690  222.9490 C   0  0  0  0  0  0  0  0  0  0  0  0
  141.5490   80.8720  223.8160 C   0  0  0  0  0  0  0  0  0  0  0  0
  142.2680   79.6240  223.4900 C   0  0  0  0  0  0  0  0  0  0  0  0
  142.1450   79.1060  222.1030 C   0  0  0  0  0  0  0  0  0  0  0  0
  141.7850   80.2620  221.1910 C   0  0  1  0  0  0  0  0  0  0  0  0
  141.9900   79.8660  219.8190 C   0  0  0  0  0  0  0  0  0  0  0  0
  142.5760   80.5540  218.7780 C   0  0  0  0  0  0  0  0  0  0  0  0
  142.5620   79.8240  217.6480 N   0  0  0  0  0  0  0  0  0  0  0  0
  141.9650   78.6610  217.9630 C   0  0  0  0  0  0  0  0  0  0  0  0
  141.6180   78.6740  219.2590 N   0  0  0  0  0  0  0  0  0  0  0  0
  140.3060   75.9480  221.4210 C   0  0  0  0  0  0  0  0  0  0  0  0
  140.0060   74.6690  221.8080 C   0  0  0  0  0  0  0  0  0  0  0  0
  140.8630   73.6330  221.5820 C   0  0  0  0  0  0  0  0  0  0  0  0
  142.0500   73.8850  220.9510 C   0  0  0  0  0  0  0  0  0  0  0  0
  142.9850   72.8870  220.6780 C   0  0  0  0  0  0  0  0  0  0  0  0
  144.1670   73.1570  220.0470 C   0  0  0  0  0  0  0  0  0  0  0  0
  145.3470   71.8980  219.7030 Cl  0  0  0  0  0  0  0  0  0  0  0  0
  144.4590   74.4470  219.6600 C   0  0  0  0  0  0  0  0  0  0  0  0
  143.5290   75.4350  219.9330 C   0  0  0  0  0  0  0  0  0  0  0  0
  142.3290   75.1790  220.5700 C   0  0  0  0  0  0  0  0  0  0  0  0
  141.4690   76.1650  220.8080 N   0  0  0  0  0  0  0  0  0  0  0  0
  140.0290   78.1260  219.9610 H   0  0  0  0  0  0  0  0  0  0  0  0
  137.6936   79.2897  220.1639 H   0  0  0  0  0  0  0  0  0  0  0  0
  137.9598   79.2400  221.9282 H   0  0  0  0  0  0  0  0  0  0  0  0
  140.4070   82.3645  222.8492 H   0  0  0  0  0  0  0  0  0  0  0  0
  139.4869   80.9017  223.4251 H   0  0  0  0  0  0  0  0  0  0  0  0
  142.2836   81.6902  223.7843 H   0  0  0  0  0  0  0  0  0  0  0  0
  141.0923   80.6767  224.7975 H   0  0  0  0  0  0  0  0  0  0  0  0
  143.3367   79.7989  223.6833 H   0  0  0  0  0  0  0  0  0  0  0  0
  141.7967   78.8553  224.1200 H   0  0  0  0  0  0  0  0  0  0  0  0
  143.1014   78.6655  221.7847 H   0  0  0  0  0  0  0  0  0  0  0  0
  141.3658   78.3310  222.0566 H   0  0  0  0  0  0  0  0  0  0  0  0
  142.4215   81.1564  221.2606 H   0  0  0  0  0  0  0  0  0  0  0  0
  142.9991   81.5660  218.8604 H   0  0  0  0  0  0  0  0  0  0  0  0
  142.9400   80.1020  216.7080 H   0  0  0  0  0  0  0  0  0  0  0  0
  141.7885   77.8283  217.2663 H   0  0  0  0  0  0  0  0  0  0  0  0
  139.0493   74.4726  222.3140 H   0  0  0  0  0  0  0  0  0  0  0  0
  140.6044   72.6127  221.9015 H   0  0  0  0  0  0  0  0  0  0  0  0
  142.7648   71.8522  220.9793 H   0  0  0  0  0  0  0  0  0  0  0  0
  145.4037   74.6845  219.1490 H   0  0  0  0  0  0  0  0  0  0  0  0
  143.7543   76.4682  219.6302 H   0  0  0  0  0  0  0  0  0  0  0  0
  1  2  2  0
  2  3  1  0
  3  4  1  0
  4  5  1  0
  5  6  2  0
  5  7  1  0
  7  8  1  0
  8  9  1  0
  9 10  1  0
 10 11  1  0
 11 12  1  0
 12 13  1  0
 13 14  2  0
 14 15  1  0
 15 16  1  0
 16 17  2  0
  2 18  1  0
 18 19  2  0
 19 20  1  0
 20 21  2  0
 21 22  1  0
 22 23  2  0
 23 24  1  0
 23 25  1  0
 25 26  2  0
 26 27  1  0
 27 28  2  0
 12  7  1  0
 17 13  1  0
 28 18  1  0
 27 21  1  0
  3 29  1  0
  4 30  1  0
  4 31  1  0
  8 32  1  0
  8 33  1  0
  9 34  1  0
  9 35  1  0
 10 36  1  0
 10 37  1  0
 11 38  1  0
 11 39  1  0
 12 40  1  1
 14 41  1  0
 15 42  1  0
 16 43  1  0
 19 44  1  0
 20 45  1  0
 22 46  1  0
 25 47  1  0
 26 48  1  0
M  END
>  <smiles>  (22) 
O=C(NCC(=O)N1CCCC[C@H]1c1c[nH]cn1)c1ccc2cc(Cl)ccc2n1

>  <score_type>  (22) 
oracle

>  <origin>  (22) 
autodockgpu

>  <m_score__min__energy>  (22) 
-8.7100000000000009

>  <m_primary>  (22) 
energy

>  <rmsd>  (22) 
6.76644650044639

>  <m_score__min__rmsd>  (22) 
6.76644650044639

>  <meeko>  (22) 
{"free_energy": -6.24, "intermolecular_energy": -7.73, "internal_energy": -3.04, "cluster_size": 7, "cluster_id": 6, "rank_in_cluster": 3}

>  <energy>  (22) 
-7.73

>  <cluster_rmsd>  (22) 
1.53

>  <cluster>  (22) 
3

$$$$

     RDKit          3D

 48 51  0  0  0  0  0  0  0  0999 V2000
  134.9430   68.5150  224.9490 O   0  0  0  0  0  0  0  0  0  0  0  0
  135.4640   69.6520  225.0370 C   0  0  0  0  0  0  0  0  0  0  0  0
  136.7860   69.9310  224.5970 N   0  0  0  0  0  0  0  0  0  0  0  0
  137.6410   68.9140  224.0080 C   0  0  0  0  0  0  0  0  0  0  0  0
  138.8340   68.7310  224.9100 C   0  0  0  0  0  0  0  0  0  0  0  0
  139.3700   67.5980  224.8610 O   0  0  0  0  0  0  0  0  0  0  0  0
  139.2710   69.7990  225.7310 N   0  0  0  0  0  0  0  0  0  0  0  0
  139.2080   69.6410  227.1890 C   0  0  0  0  0  0  0  0  0  0  0  0
  140.1450   70.5440  227.9080 C   0  0  0  0  0  0  0  0  0  0  0  0
  141.3180   71.0560  227.1720 C   0  0  0  0  0  0  0  0  0  0  0  0
  141.2520   71.0460  225.6880 C   0  0  0  0  0  0  0  0  0  0  0  0
  139.7940   71.0510  225.2740 C   0  0  1  0  0  0  0  0  0  0  0  0
  139.7000   71.3800  223.8730 C   0  0  0  0  0  0  0  0  0  0  0  0
  138.6310   71.8620  223.1480 C   0  0  0  0  0  0  0  0  0  0  0  0
  138.9610   72.0320  221.8550 N   0  0  0  0  0  0  0  0  0  0  0  0
  140.2480   71.6590  221.7470 C   0  0  0  0  0  0  0  0  0  0  0  0
  140.7020   71.2670  222.9480 N   0  0  0  0  0  0  0  0  0  0  0  0
  134.6660   70.7470  225.6220 C   0  0  0  0  0  0  0  0  0  0  0  0
  133.6180   70.4820  226.4640 C   0  0  0  0  0  0  0  0  0  0  0  0
  132.8710   71.4810  227.0140 C   0  0  0  0  0  0  0  0  0  0  0  0
  133.1820   72.7790  226.7130 C   0  0  0  0  0  0  0  0  0  0  0  0
  132.4740   73.8630  227.2290 C   0  0  0  0  0  0  0  0  0  0  0  0
  132.7980   75.1540  226.9170 C   0  0  0  0  0  0  0  0  0  0  0  0
  131.9040   76.5220  227.5680 Cl  0  0  0  0  0  0  0  0  0  0  0  0
  133.8550   75.4090  226.0700 C   0  0  0  0  0  0  0  0  0  0  0  0
  134.5550   74.3320  225.5600 C   0  0  0  0  0  0  0  0  0  0  0  0
  134.2410   73.0200  225.8640 C   0  0  0  0  0  0  0  0  0  0  0  0
  134.9480   72.0200  225.3470 N   0  0  0  0  0  0  0  0  0  0  0  0
  137.1350   70.9250  224.7150 H   0  0  0  0  0  0  0  0  0  0  0  0
  137.0892   67.9663  223.9216 H   0  0  0  0  0  0  0  0  0  0  0  0
  137.9649   69.2216  223.0028 H   0  0  0  0  0  0  0  0  0  0  0  0
  138.1830   69.8608  227.5222 H   0  0  0  0  0  0  0  0  0  0  0  0
  139.5004   68.6067  227.4227 H   0  0  0  0  0  0  0  0  0  0  0  0
  139.5648   71.4156  228.2453 H   0  0  0  0  0  0  0  0  0  0  0  0
  140.5731   69.9172  228.7042 H   0  0  0  0  0  0  0  0  0  0  0  0
  141.4769   72.0975  227.4881 H   0  0  0  0  0  0  0  0  0  0  0  0
  142.1324   70.3601  227.4219 H   0  0  0  0  0  0  0  0  0  0  0  0
  141.7549   71.9387  225.2877 H   0  0  0  0  0  0  0  0  0  0  0  0
  141.7539   70.1503  225.2934 H   0  0  0  0  0  0  0  0  0  0  0  0
  139.1592   71.8269  225.7268 H   0  0  0  0  0  0  0  0  0  0  0  0
  137.6390   72.0790  223.5710 H   0  0  0  0  0  0  0  0  0  0  0  0
  138.3430   72.3850  221.0830 H   0  0  0  0  0  0  0  0  0  0  0  0
  140.8377   71.6728  220.8185 H   0  0  0  0  0  0  0  0  0  0  0  0
  133.3731   69.4364  226.7023 H   0  0  0  0  0  0  0  0  0  0  0  0
  132.0333   71.2478  227.6877 H   0  0  0  0  0  0  0  0  0  0  0  0
  131.6292   73.6741  227.9077 H   0  0  0  0  0  0  0  0  0  0  0  0
  134.1335   76.4403  225.8075 H   0  0  0  0  0  0  0  0  0  0  0  0
  135.3992   74.5270  224.8823 H   0  0  0  0  0  0  0  0  0  0  0  0
  1  2  2  0
  2  3  1  0
  3  4  1  0
  4  5  1  0
  5  6  2  0
  5  7  1  0
  7  8  1  0
  8  9  1  0
  9 10  1  0
 10 11  1  0
 11 12  1  0
 12 13  1  0
 13 14  2  0
 14 15  1  0
 15 16  1  0
 16 17  2  0
  2 18  1  0
 18 19  2  0
 19 20  1  0
 20 21  2  0
 21 22  1  0
 22 23  2  0
 23 24  1  0
 23 25  1  0
 25 26  2  0
 26 27  1  0
 27 28  2  0
 12  7  1  0
 17 13  1  0
 28 18  1  0
 27 21  1  0
  3 29  1  0
  4 30  1  0
  4 31  1  0
  8 32  1  0
  8 33  1  0
  9 34  1  0
  9 35  1  0
 10 36  1  0
 10 37  1  0
 11 38  1  0
 11 39  1  0
 12 40  1  1
 14 41  1  0
 15 42  1  0
 16 43  1  0
 19 44  1  0
 20 45  1  0
 22 46  1  0
 25 47  1  0
 26 48  1  0
M  END
>  <smiles>  (23) 
O=C(NCC(=O)N1CCCC[C@H]1c1c[nH]cn1)c1ccc2cc(Cl)ccc2n1

>  <score_type>  (23) 
oracle

>  <origin>  (23) 
autodockgpu

>  <m_score__min__energy>  (23) 
-8.7100000000000009

>  <m_primary>  (23) 
energy

>  <rmsd>  (23) 
8.106525848901025

>  <m_score__min__rmsd>  (23) 
8.106525848901025

>  <meeko>  (23) 
{"free_energy": -7.52, "intermolecular_energy": -9.01, "internal_energy": -1.69, "cluster_size": 7, "cluster_id": 4, "rank_in_cluster": 4}

>  <energy>  (23) 
-7.7

>  <cluster_rmsd>  (23) 
1.67

>  <cluster>  (23) 
3

$$$$

     RDKit          3D

 48 51  0  0  0  0  0  0  0  0999 V2000
  139.6190   71.7980  220.8700 O   0  0  0  0  0  0  0  0  0  0  0  0
  139.6400   72.2640  222.0330 C   0  0  0  0  0  0  0  0  0  0  0  0
  139.5370   73.6550  222.3090 N   0  0  0  0  0  0  0  0  0  0  0  0
  139.3980   74.6480  221.2570 C   0  0  0  0  0  0  0  0  0  0  0  0
  140.6720   75.4510  221.2060 C   0  0  0  0  0  0  0  0  0  0  0  0
  141.1490   75.7660  222.3230 O   0  0  0  0  0  0  0  0  0  0  0  0
  141.2420   75.7960  219.9560 N   0  0  0  0  0  0  0  0  0  0  0  0
  140.5840   76.8220  219.1380 C   0  0  0  0  0  0  0  0  0  0  0  0
  141.5080   77.4610  218.1630 C   0  0  0  0  0  0  0  0  0  0  0  0
  142.9560   77.4190  218.4470 C   0  0  0  0  0  0  0  0  0  0  0  0
  143.4380   76.3730  219.3860 C   0  0  0  0  0  0  0  0  0  0  0  0
  142.4350   75.2380  219.3930 C   0  0  1  0  0  0  0  0  0  0  0  0
  143.0300   74.0820  220.0190 C   0  0  0  0  0  0  0  0  0  0  0  0
  144.3110   73.8940  220.4930 C   0  0  0  0  0  0  0  0  0  0  0  0
  144.4610   72.6590  221.0030 N   0  0  0  0  0  0  0  0  0  0  0  0
  143.2720   72.0480  220.8580 C   0  0  0  0  0  0  0  0  0  0  0  0
  142.4080   72.8900  220.2700 N   0  0  0  0  0  0  0  0  0  0  0  0
  139.7780   71.3260  223.1640 C   0  0  0  0  0  0  0  0  0  0  0  0
  139.3900   70.0180  223.0450 C   0  0  0  0  0  0  0  0  0  0  0  0
  139.5110   69.1380  224.0790 C   0  0  0  0  0  0  0  0  0  0  0  0
  140.0330   69.5800  225.2630 C   0  0  0  0  0  0  0  0  0  0  0  0
  140.1930   68.7510  226.3730 C   0  0  0  0  0  0  0  0  0  0  0  0
  140.7170   69.2100  227.5490 C   0  0  0  0  0  0  0  0  0  0  0  0
  140.9180   68.1650  228.9500 Cl  0  0  0  0  0  0  0  0  0  0  0  0
  141.1050   70.5280  227.6580 C   0  0  0  0  0  0  0  0  0  0  0  0
  140.9440   71.3480  226.5560 C   0  0  0  0  0  0  0  0  0  0  0  0
  140.4160   70.9000  225.3590 C   0  0  0  0  0  0  0  0  0  0  0  0
  140.2840   71.7300  224.3280 N   0  0  0  0  0  0  0  0  0  0  0  0
  139.5660   73.9490  223.3270 H   0  0  0  0  0  0  0  0  0  0  0  0
  139.2323   74.1484  220.2911 H   0  0  0  0  0  0  0  0  0  0  0  0
  138.5394   75.3046  221.4612 H   0  0  0  0  0  0  0  0  0  0  0  0
  139.7575   76.3532  218.5839 H   0  0  0  0  0  0  0  0  0  0  0  0
  140.2246   77.6081  219.8183 H   0  0  0  0  0  0  0  0  0  0  0  0
  141.3510   76.9675  217.1925 H   0  0  0  0  0  0  0  0  0  0  0  0
  141.2521   78.5300  218.2036 H   0  0  0  0  0  0  0  0  0  0  0  0
  143.4759   77.2679  217.4895 H   0  0  0  0  0  0  0  0  0  0  0  0
  143.1716   78.3720  218.9523 H   0  0  0  0  0  0  0  0  0  0  0  0
  144.4186   76.0002  219.0553 H   0  0  0  0  0  0  0  0  0  0  0  0
  143.5417   76.7921  220.3978 H   0  0  0  0  0  0  0  0  0  0  0  0
  142.1465   74.8346  218.4111 H   0  0  0  0  0  0  0  0  0  0  0  0
  145.1054   74.6541  220.4585 H   0  0  0  0  0  0  0  0  0  0  0  0
  145.3290   72.2500  221.4300 H   0  0  0  0  0  0  0  0  0  0  0  0
  143.0432   71.0189  221.1722 H   0  0  0  0  0  0  0  0  0  0  0  0
  138.9699   69.6685  222.0904 H   0  0  0  0  0  0  0  0  0  0  0  0
  139.1944   68.0910  223.9630 H   0  0  0  0  0  0  0  0  0  0  0  0
  139.8885   67.6965  226.2999 H   0  0  0  0  0  0  0  0  0  0  0  0
  141.5306   70.9167  228.5949 H   0  0  0  0  0  0  0  0  0  0  0  0
  141.2491   72.4019  226.6351 H   0  0  0  0  0  0  0  0  0  0  0  0
  1  2  2  0
  2  3  1  0
  3  4  1  0
  4  5  1  0
  5  6  2  0
  5  7  1  0
  7  8  1  0
  8  9  1  0
  9 10  1  0
 10 11  1  0
 11 12  1  0
 12 13  1  0
 13 14  2  0
 14 15  1  0
 15 16  1  0
 16 17  2  0
  2 18  1  0
 18 19  2  0
 19 20  1  0
 20 21  2  0
 21 22  1  0
 22 23  2  0
 23 24  1  0
 23 25  1  0
 25 26  2  0
 26 27  1  0
 27 28  2  0
 12  7  1  0
 17 13  1  0
 28 18  1  0
 27 21  1  0
  3 29  1  0
  4 30  1  0
  4 31  1  0
  8 32  1  0
  8 33  1  0
  9 34  1  0
  9 35  1  0
 10 36  1  0
 10 37  1  0
 11 38  1  0
 11 39  1  0
 12 40  1  6
 14 41  1  0
 15 42  1  0
 16 43  1  0
 19 44  1  0
 20 45  1  0
 22 46  1  0
 25 47  1  0
 26 48  1  0
M  END
>  <smiles>  (24) 
O=C(NCC(=O)N1CCCC[C@H]1c1c[nH]cn1)c1ccc2cc(Cl)ccc2n1

>  <score_type>  (24) 
oracle

>  <origin>  (24) 
autodockgpu

>  <m_score__min__energy>  (24) 
-8.7100000000000009

>  <m_primary>  (24) 
energy

>  <rmsd>  (24) 
2.7468788414331793

>  <m_score__min__rmsd>  (24) 
2.7468788414331793

>  <meeko>  (24) 
{"free_energy": -7.74, "intermolecular_energy": -9.24, "internal_energy": -1.99, "cluster_size": 17, "cluster_id": 3, "rank_in_cluster": 4}

>  <energy>  (24) 
-7.67

>  <cluster_rmsd>  (24) 
1.72

>  <cluster>  (24) 
3

$$$$

     RDKit          3D

 48 51  0  0  0  0  0  0  0  0999 V2000
  138.5500   76.9470  222.5720 O   0  0  0  0  0  0  0  0  0  0  0  0
  139.3540   77.0370  221.6150 C   0  0  0  0  0  0  0  0  0  0  0  0
  139.3930   78.1600  220.7440 N   0  0  0  0  0  0  0  0  0  0  0  0
  138.5000   79.2960  220.8980 C   0  0  0  0  0  0  0  0  0  0  0  0
  139.3310   80.5520  220.8280 C   0  0  0  0  0  0  0  0  0  0  0  0
  138.8940   81.4370  220.0530 O   0  0  0  0  0  0  0  0  0  0  0  0
  140.5090   80.6660  221.6050 N   0  0  0  0  0  0  0  0  0  0  0  0
  140.4190   81.2650  222.9420 C   0  0  0  0  0  0  0  0  0  0  0  0
  141.5380   80.8590  223.8320 C   0  0  0  0  0  0  0  0  0  0  0  0
  142.2490   79.6010  223.5260 C   0  0  0  0  0  0  0  0  0  0  0  0
  142.1460   79.0790  222.1390 C   0  0  0  0  0  0  0  0  0  0  0  0
  141.8180   80.2350  221.2150 C   0  0  1  0  0  0  0  0  0  0  0  0
  142.0450   79.8300  219.8490 C   0  0  0  0  0  0  0  0  0  0  0  0
  142.5540   80.5470  218.7870 C   0  0  0  0  0  0  0  0  0  0  0  0
  142.5960   79.7960  217.6730 N   0  0  0  0  0  0  0  0  0  0  0  0
  142.1130   78.5890  218.0180 C   0  0  0  0  0  0  0  0  0  0  0  0
  141.7800   78.5980  219.3180 N   0  0  0  0  0  0  0  0  0  0  0  0
  140.3000   75.9280  221.3840 C   0  0  0  0  0  0  0  0  0  0  0  0
  140.0180   74.6600  221.8210 C   0  0  0  0  0  0  0  0  0  0  0  0
  140.8800   73.6250  221.6160 C   0  0  0  0  0  0  0  0  0  0  0  0
  142.0550   73.8650  220.9570 C   0  0  0  0  0  0  0  0  0  0  0  0
  142.9940   72.8670  220.7030 C   0  0  0  0  0  0  0  0  0  0  0  0
  144.1630   73.1250  220.0430 C   0  0  0  0  0  0  0  0  0  0  0  0
  145.3500   71.8650  219.7230 Cl  0  0  0  0  0  0  0  0  0  0  0  0
  144.4360   74.4030  219.6070 C   0  0  0  0  0  0  0  0  0  0  0  0
  143.5020   75.3910  219.8600 C   0  0  0  0  0  0  0  0  0  0  0  0
  142.3150   75.1480  220.5270 C   0  0  0  0  0  0  0  0  0  0  0  0
  141.4500   76.1340  220.7440 N   0  0  0  0  0  0  0  0  0  0  0  0
  140.1100   78.1410  219.9640 H   0  0  0  0  0  0  0  0  0  0  0  0
  137.7533   79.2965  220.0903 H   0  0  0  0  0  0  0  0  0  0  0  0
  137.9712   79.2397  221.8609 H   0  0  0  0  0  0  0  0  0  0  0  0
  140.4323   82.3600  222.8381 H   0  0  0  0  0  0  0  0  0  0  0  0
  139.4849   80.9098  223.4016 H   0  0  0  0  0  0  0  0  0  0  0  0
  142.2825   81.6685  223.8107 H   0  0  0  0  0  0  0  0  0  0  0  0
  141.0601   80.6735  224.8052 H   0  0  0  0  0  0  0  0  0  0  0  0
  143.3157   79.7644  223.7390 H   0  0  0  0  0  0  0  0  0  0  0  0
  141.7577   78.8404  224.1507 H   0  0  0  0  0  0  0  0  0  0  0  0
  143.1027   78.6253  221.8410 H   0  0  0  0  0  0  0  0  0  0  0  0
  141.3578   78.3139  222.0810 H   0  0  0  0  0  0  0  0  0  0  0  0
  142.4636   81.1222  221.2926 H   0  0  0  0  0  0  0  0  0  0  0  0
  142.8824   81.5953  218.8439 H   0  0  0  0  0  0  0  0  0  0  0  0
  142.9380   80.0870  216.7230 H   0  0  0  0  0  0  0  0  0  0  0  0
  142.0075   77.7289  217.3404 H   0  0  0  0  0  0  0  0  0  0  0  0
  139.0721   74.4732  222.3505 H   0  0  0  0  0  0  0  0  0  0  0  0
  140.6357   72.6140  221.9740 H   0  0  0  0  0  0  0  0  0  0  0  0
  142.7884   71.8415  221.0436 H   0  0  0  0  0  0  0  0  0  0  0  0
  145.3702   74.6311  219.0729 H   0  0  0  0  0  0  0  0  0  0  0  0
  143.7122   76.4144  219.5159 H   0  0  0  0  0  0  0  0  0  0  0  0
  1  2  2  0
  2  3  1  0
  3  4  1  0
  4  5  1  0
  5  6  2  0
  5  7  1  0
  7  8  1  0
  8  9  1  0
  9 10  1  0
 10 11  1  0
 11 12  1  0
 12 13  1  0
 13 14  2  0
 14 15  1  0
 15 16  1  0
 16 17  2  0
  2 18  1  0
 18 19  2  0
 19 20  1  0
 20 21  2  0
 21 22  1  0
 22 23  2  0
 23 24  1  0
 23 25  1  0
 25 26  2  0
 26 27  1  0
 27 28  2  0
 12  7  1  0
 17 13  1  0
 28 18  1  0
 27 21  1  0
  3 29  1  0
  4 30  1  0
  4 31  1  0
  8 32  1  0
  8 33  1  0
  9 34  1  0
  9 35  1  0
 10 36  1  0
 10 37  1  0
 11 38  1  0
 11 39  1  0
 12 40  1  1
 14 41  1  0
 15 42  1  0
 16 43  1  0
 19 44  1  0
 20 45  1  0
 22 46  1  0
 25 47  1  0
 26 48  1  0
M  END
>  <smiles>  (25) 
O=C(NCC(=O)N1CCCC[C@H]1c1c[nH]cn1)c1ccc2cc(Cl)ccc2n1

>  <score_type>  (25) 
oracle

>  <origin>  (25) 
autodockgpu

>  <m_score__min__energy>  (25) 
-8.7100000000000009

>  <m_primary>  (25) 
energy

>  <rmsd>  (25) 
6.7663506086995815

>  <m_score__min__rmsd>  (25) 
6.7663506086995815

>  <meeko>  (25) 
{"free_energy": -6.21, "intermolecular_energy": -7.7, "internal_energy": -3.06, "cluster_size": 7, "cluster_id": 6, "rank_in_cluster": 6}

>  <energy>  (25) 
-7.65

>  <cluster_rmsd>  (25) 
1.65

>  <cluster>  (25) 
3

$$$$

     RDKit          3D

 48 51  0  0  0  0  0  0  0  0999 V2000
  138.7740   71.3890  220.9890 O   0  0  0  0  0  0  0  0  0  0  0  0
  139.2250   71.8920  222.0450 C   0  0  0  0  0  0  0  0  0  0  0  0
  139.5330   73.2740  222.1710 N   0  0  0  0  0  0  0  0  0  0  0  0
  139.3460   74.2150  221.0800 C   0  0  0  0  0  0  0  0  0  0  0  0
  140.4360   75.2520  221.1690 C   0  0  0  0  0  0  0  0  0  0  0  0
  140.6780   75.6730  222.3270 O   0  0  0  0  0  0  0  0  0  0  0  0
  141.1040   75.6800  219.9970 N   0  0  0  0  0  0  0  0  0  0  0  0
  140.5310   76.7870  219.2210 C   0  0  0  0  0  0  0  0  0  0  0  0
  141.5370   77.4770  218.3710 C   0  0  0  0  0  0  0  0  0  0  0  0
  142.9590   77.3730  218.7550 C   0  0  0  0  0  0  0  0  0  0  0  0
  143.3490   76.2420  219.6360 C   0  0  0  0  0  0  0  0  0  0  0  0
  142.3230   75.1370  219.4770 C   0  0  1  0  0  0  0  0  0  0  0  0
  142.8460   73.9190  220.0470 C   0  0  0  0  0  0  0  0  0  0  0  0
  144.1270   73.6100  220.4520 C   0  0  0  0  0  0  0  0  0  0  0  0
  144.1940   72.3540  220.9260 N   0  0  0  0  0  0  0  0  0  0  0  0
  142.9510   71.8500  220.8270 C   0  0  0  0  0  0  0  0  0  0  0  0
  142.1350   72.7780  220.3020 N   0  0  0  0  0  0  0  0  0  0  0  0
  139.4450   71.0080  223.2060 C   0  0  0  0  0  0  0  0  0  0  0  0
  139.0680   69.6920  223.1710 C   0  0  0  0  0  0  0  0  0  0  0  0
  139.2640   68.8620  224.2340 C   0  0  0  0  0  0  0  0  0  0  0  0
  139.8540   69.3630  225.3620 C   0  0  0  0  0  0  0  0  0  0  0  0
  140.0930   68.5880  226.4950 C   0  0  0  0  0  0  0  0  0  0  0  0
  140.6840   69.1060  227.6140 C   0  0  0  0  0  0  0  0  0  0  0  0
  140.9860   68.1270  229.0450 Cl  0  0  0  0  0  0  0  0  0  0  0  0
  141.0610   70.4310  227.6390 C   0  0  0  0  0  0  0  0  0  0  0  0
  140.8210   71.1980  226.5130 C   0  0  0  0  0  0  0  0  0  0  0  0
  140.2250   70.6900  225.3730 C   0  0  0  0  0  0  0  0  0  0  0  0
  140.0190   71.4700  224.3160 N   0  0  0  0  0  0  0  0  0  0  0  0
  139.9100   73.6020  223.1060 H   0  0  0  0  0  0  0  0  0  0  0  0
  139.4099   73.6876  220.1168 H   0  0  0  0  0  0  0  0  0  0  0  0
  138.3573   74.6920  221.1513 H   0  0  0  0  0  0  0  0  0  0  0  0
  139.7376   76.3875  218.5722 H   0  0  0  0  0  0  0  0  0  0  0  0
  140.1403   77.5253  219.9367 H   0  0  0  0  0  0  0  0  0  0  0  0
  141.4421   77.0674  217.3545 H   0  0  0  0  0  0  0  0  0  0  0  0
  141.3011   78.5459  218.4798 H   0  0  0  0  0  0  0  0  0  0  0  0
  143.5454   77.2867  217.8284 H   0  0  0  0  0  0  0  0  0  0  0  0
  143.1554   78.2754  219.3526 H   0  0  0  0  0  0  0  0  0  0  0  0
  144.3431   75.8707  219.3461 H   0  0  0  0  0  0  0  0  0  0  0  0
  143.3877   76.5745  220.6838 H   0  0  0  0  0  0  0  0  0  0  0  0
  142.0986   74.8222  218.4472 H   0  0  0  0  0  0  0  0  0  0  0  0
  144.9816   74.3002  220.3948 H   0  0  0  0  0  0  0  0  0  0  0  0
  145.0430   71.8610  221.3000 H   0  0  0  0  0  0  0  0  0  0  0  0
  142.6500   70.8360  221.1289 H   0  0  0  0  0  0  0  0  0  0  0  0
  138.5946   69.2944  222.2612 H   0  0  0  0  0  0  0  0  0  0  0  0
  138.9533   67.8079  224.1858 H   0  0  0  0  0  0  0  0  0  0  0  0
  139.7976   67.5284  226.4891 H   0  0  0  0  0  0  0  0  0  0  0  0
  141.5391   70.8665  228.5288 H   0  0  0  0  0  0  0  0  0  0  0  0
  141.1169   72.2574  226.5249 H   0  0  0  0  0  0  0  0  0  0  0  0
  1  2  2  0
  2  3  1  0
  3  4  1  0
  4  5  1  0
  5  6  2  0
  5  7  1  0
  7  8  1  0
  8  9  1  0
  9 10  1  0
 10 11  1  0
 11 12  1  0
 12 13  1  0
 13 14  2  0
 14 15  1  0
 15 16  1  0
 16 17  2  0
  2 18  1  0
 18 19  2  0
 19 20  1  0
 20 21  2  0
 21 22  1  0
 22 23  2  0
 23 24  1  0
 23 25  1  0
 25 26  2  0
 26 27  1  0
 27 28  2  0
 12  7  1  0
 17 13  1  0
 28 18  1  0
 27 21  1  0
  3 29  1  0
  4 30  1  0
  4 31  1  0
  8 32  1  0
  8 33  1  0
  9 34  1  0
  9 35  1  0
 10 36  1  0
 10 37  1  0
 11 38  1  0
 11 39  1  0
 12 40  1  6
 14 41  1  0
 15 42  1  0
 16 43  1  0
 19 44  1  0
 20 45  1  0
 22 46  1  0
 25 47  1  0
 26 48  1  0
M  END
>  <smiles>  (26) 
O=C(NCC(=O)N1CCCC[C@H]1c1c[nH]cn1)c1ccc2cc(Cl)ccc2n1

>  <score_type>  (26) 
oracle

>  <origin>  (26) 
autodockgpu

>  <m_score__min__energy>  (26) 
-8.7100000000000009

>  <m_primary>  (26) 
energy

>  <rmsd>  (26) 
2.728559679898879

>  <m_score__min__rmsd>  (26) 
2.728559679898879

>  <meeko>  (26) 
{"free_energy": -7.55, "intermolecular_energy": -9.04, "internal_energy": -2.23, "cluster_size": 17, "cluster_id": 3, "rank_in_cluster": 12}

>  <energy>  (26) 
-7.64

>  <cluster_rmsd>  (26) 
1.75

>  <cluster>  (26) 
3

$$$$

     RDKit          3D

 48 51  0  0  0  0  0  0  0  0999 V2000
  140.3080   72.4490  220.6760 O   0  0  0  0  0  0  0  0  0  0  0  0
  140.0490   72.8740  221.8260 C   0  0  0  0  0  0  0  0  0  0  0  0
  139.7750   74.2420  222.0990 N   0  0  0  0  0  0  0  0  0  0  0  0
  139.7730   75.2570  221.0600 C   0  0  0  0  0  0  0  0  0  0  0  0
  140.6700   76.3820  221.5080 C   0  0  0  0  0  0  0  0  0  0  0  0
  140.6500   76.6220  222.7390 O   0  0  0  0  0  0  0  0  0  0  0  0
  141.4570   77.0800  220.5600 N   0  0  0  0  0  0  0  0  0  0  0  0
  141.9550   76.3560  219.3830 C   0  0  0  0  0  0  0  0  0  0  0  0
  142.2830   77.2580  218.2480 C   0  0  0  0  0  0  0  0  0  0  0  0
  141.6310   78.5820  218.2010 C   0  0  0  0  0  0  0  0  0  0  0  0
  141.0870   79.1220  219.4750 C   0  0  0  0  0  0  0  0  0  0  0  0
  141.8220   78.4640  220.6250 C   0  0  1  0  0  0  0  0  0  0  0  0
  141.5610   79.2000  221.8380 C   0  0  0  0  0  0  0  0  0  0  0  0
  142.4420   79.7400  222.7510 C   0  0  0  0  0  0  0  0  0  0  0  0
  141.7840   80.3480  223.7550 N   0  0  0  0  0  0  0  0  0  0  0  0
  140.4750   80.2010  223.4870 C   0  0  0  0  0  0  0  0  0  0  0  0
  140.3290   79.5150  222.3420 N   0  0  0  0  0  0  0  0  0  0  0  0
  140.0290   71.9100  222.9430 C   0  0  0  0  0  0  0  0  0  0  0  0
  139.4910   70.6600  222.7860 C   0  0  0  0  0  0  0  0  0  0  0  0
  139.4640   69.7580  223.8070 C   0  0  0  0  0  0  0  0  0  0  0  0
  139.9900   70.1170  225.0180 C   0  0  0  0  0  0  0  0  0  0  0  0
  140.0050   69.2600  226.1170 C   0  0  0  0  0  0  0  0  0  0  0  0
  140.5350   69.6350  227.3200 C   0  0  0  0  0  0  0  0  0  0  0  0
  140.5540   68.5530  228.7070 Cl  0  0  0  0  0  0  0  0  0  0  0  0
  141.0740   70.8950  227.4680 C   0  0  0  0  0  0  0  0  0  0  0  0
  141.0570   71.7430  226.3760 C   0  0  0  0  0  0  0  0  0  0  0  0
  140.5250   71.3790  225.1520 C   0  0  0  0  0  0  0  0  0  0  0  0
  140.5350   72.2330  224.1330 N   0  0  0  0  0  0  0  0  0  0  0  0
  139.5680   74.5010  223.1050 H   0  0  0  0  0  0  0  0  0  0  0  0
  140.1512   74.8296  220.1196 H   0  0  0  0  0  0  0  0  0  0  0  0
  138.7514   75.6272  220.8887 H   0  0  0  0  0  0  0  0  0  0  0  0
  142.8634   75.8049  219.6678 H   0  0  0  0  0  0  0  0  0  0  0  0
  141.1553   75.6792  219.0477 H   0  0  0  0  0  0  0  0  0  0  0  0
  143.3693   77.4295  218.2705 H   0  0  0  0  0  0  0  0  0  0  0  0
  141.8994   76.7324  217.3611 H   0  0  0  0  0  0  0  0  0  0  0  0
  142.3736   79.3025  217.8276 H   0  0  0  0  0  0  0  0  0  0  0  0
  140.7507   78.4395  217.5570 H   0  0  0  0  0  0  0  0  0  0  0  0
  141.2383   80.2109  219.5118 H   0  0  0  0  0  0  0  0  0  0  0  0
  140.0095   78.9122  219.5453 H   0  0  0  0  0  0  0  0  0  0  0  0
  142.9208   78.4896  220.5815 H   0  0  0  0  0  0  0  0  0  0  0  0
  143.5374   79.6815  222.6694 H   0  0  0  0  0  0  0  0  0  0  0  0
  142.2050   80.8410  224.5820 H   0  0  0  0  0  0  0  0  0  0  0  0
  139.6519   80.5831  224.1087 H   0  0  0  0  0  0  0  0  0  0  0  0
  139.0697   70.3770  221.8101 H   0  0  0  0  0  0  0  0  0  0  0  0
  139.0272   68.7592  223.6603 H   0  0  0  0  0  0  0  0  0  0  0  0
  139.5776   68.2518  226.0133 H   0  0  0  0  0  0  0  0  0  0  0  0
  141.5053   71.2167  228.4274 H   0  0  0  0  0  0  0  0  0  0  0  0
  141.4849   72.7504  226.4853 H   0  0  0  0  0  0  0  0  0  0  0  0
  1  2  2  0
  2  3  1  0
  3  4  1  0
  4  5  1  0
  5  6  2  0
  5  7  1  0
  7  8  1  0
  8  9  1  0
  9 10  1  0
 10 11  1  0
 11 12  1  0
 12 13  1  0
 13 14  2  0
 14 15  1  0
 15 16  1  0
 16 17  2  0
  2 18  1  0
 18 19  2  0
 19 20  1  0
 20 21  2  0
 21 22  1  0
 22 23  2  0
 23 24  1  0
 23 25  1  0
 25 26  2  0
 26 27  1  0
 27 28  2  0
 12  7  1  0
 17 13  1  0
 28 18  1  0
 27 21  1  0
  3 29  1  0
  4 30  1  0
  4 31  1  0
  8 32  1  0
  8 33  1  0
  9 34  1  0
  9 35  1  0
 10 36  1  0
 10 37  1  0
 11 38  1  0
 11 39  1  0
 12 40  1  6
 14 41  1  0
 15 42  1  0
 16 43  1  0
 19 44  1  0
 20 45  1  0
 22 46  1  0
 25 47  1  0
 26 48  1  0
M  END
>  <smiles>  (27) 
O=C(NCC(=O)N1CCCC[C@H]1c1c[nH]cn1)c1ccc2cc(Cl)ccc2n1

>  <score_type>  (27) 
oracle

>  <origin>  (27) 
autodockgpu

>  <m_score__min__energy>  (27) 
-8.7100000000000009

>  <m_primary>  (27) 
energy

>  <rmsd>  (27) 
2.1303010580315616

>  <m_score__min__rmsd>  (27) 
2.1303010580315616

>  <meeko>  (27) 
{"free_energy": -7.93, "intermolecular_energy": -9.43, "internal_energy": -1.65, "cluster_size": 9, "cluster_id": 2, "rank_in_cluster": 7}

>  <energy>  (27) 
-7.63

>  <cluster_rmsd>  (27) 
1.67

>  <cluster>  (27) 
3

$$$$

     RDKit          3D

 48 51  0  0  0  0  0  0  0  0999 V2000
  138.9520   71.5570  221.0050 O   0  0  0  0  0  0  0  0  0  0  0  0
  139.3280   72.0480  222.0950 C   0  0  0  0  0  0  0  0  0  0  0  0
  139.5610   73.4380  222.2760 N   0  0  0  0  0  0  0  0  0  0  0  0
  139.3790   74.4030  221.2050 C   0  0  0  0  0  0  0  0  0  0  0  0
  140.6160   75.2620  221.1390 C   0  0  0  0  0  0  0  0  0  0  0  0
  141.0750   75.6220  222.2500 O   0  0  0  0  0  0  0  0  0  0  0  0
  141.1740   75.6040  219.8830 N   0  0  0  0  0  0  0  0  0  0  0  0
  140.4820   76.5930  219.0480 C   0  0  0  0  0  0  0  0  0  0  0  0
  141.3840   77.2460  218.0620 C   0  0  0  0  0  0  0  0  0  0  0  0
  142.8320   77.2590  218.3470 C   0  0  0  0  0  0  0  0  0  0  0  0
  143.3500   76.2460  219.3030 C   0  0  0  0  0  0  0  0  0  0  0  0
  142.3860   75.0770  219.3300 C   0  0  1  0  0  0  0  0  0  0  0  0
  143.0200   73.9530  219.9750 C   0  0  0  0  0  0  0  0  0  0  0  0
  144.3020   73.8220  220.4630 C   0  0  0  0  0  0  0  0  0  0  0  0
  144.4960   72.5990  220.9900 N   0  0  0  0  0  0  0  0  0  0  0  0
  143.3330   71.9400  220.8400 C   0  0  0  0  0  0  0  0  0  0  0  0
  142.4420   72.7400  220.2340 N   0  0  0  0  0  0  0  0  0  0  0  0
  139.5370   71.1400  223.2390 C   0  0  0  0  0  0  0  0  0  0  0  0
  139.1410   69.8290  223.1800 C   0  0  0  0  0  0  0  0  0  0  0  0
  139.3270   68.9770  224.2270 C   0  0  0  0  0  0  0  0  0  0  0  0
  139.9250   69.4490  225.3630 C   0  0  0  0  0  0  0  0  0  0  0  0
  140.1540   68.6490  226.4820 C   0  0  0  0  0  0  0  0  0  0  0  0
  140.7530   69.1380  227.6090 C   0  0  0  0  0  0  0  0  0  0  0  0
  141.0430   68.1290  229.0220 Cl  0  0  0  0  0  0  0  0  0  0  0  0
  141.1490   70.4570  227.6590 C   0  0  0  0  0  0  0  0  0  0  0  0
  140.9190   71.2480  226.5480 C   0  0  0  0  0  0  0  0  0  0  0  0
  140.3150   70.7700  225.4000 C   0  0  0  0  0  0  0  0  0  0  0  0
  140.1180   71.5730  224.3580 N   0  0  0  0  0  0  0  0  0  0  0  0
  139.8780   73.7540  223.2370 H   0  0  0  0  0  0  0  0  0  0  0  0
  139.2375   73.8777  220.2489 H   0  0  0  0  0  0  0  0  0  0  0  0
  138.4914   75.0240  221.3960 H   0  0  0  0  0  0  0  0  0  0  0  0
  139.6719   76.0872  218.5023 H   0  0  0  0  0  0  0  0  0  0  0  0
  140.0961   77.3780  219.7149 H   0  0  0  0  0  0  0  0  0  0  0  0
  141.2449   76.7302  217.1004 H   0  0  0  0  0  0  0  0  0  0  0  0
  141.0913   78.3061  218.0834 H   0  0  0  0  0  0  0  0  0  0  0  0
  143.3576   77.1106  217.3921 H   0  0  0  0  0  0  0  0  0  0  0  0
  143.0135   78.2269  218.8371 H   0  0  0  0  0  0  0  0  0  0  0  0
  144.3427   75.9015  218.9776 H   0  0  0  0  0  0  0  0  0  0  0  0
  143.4397   76.6853  220.3075 H   0  0  0  0  0  0  0  0  0  0  0  0
  142.1116   74.6466  218.3556 H   0  0  0  0  0  0  0  0  0  0  0  0
  145.0659   74.6126  220.4266 H   0  0  0  0  0  0  0  0  0  0  0  0
  145.3750   72.2300  221.4300 H   0  0  0  0  0  0  0  0  0  0  0  0
  143.1419   70.9062  221.1637 H   0  0  0  0  0  0  0  0  0  0  0  0
  138.6607   69.4551  222.2638 H   0  0  0  0  0  0  0  0  0  0  0  0
  139.0020   67.9283  224.1598 H   0  0  0  0  0  0  0  0  0  0  0  0
  139.8436   67.5940  226.4569 H   0  0  0  0  0  0  0  0  0  0  0  0
  141.6339   70.8688  228.5564 H   0  0  0  0  0  0  0  0  0  0  0  0
  141.2300   72.3027  226.5792 H   0  0  0  0  0  0  0  0  0  0  0  0
  1  2  2  0
  2  3  1  0
  3  4  1  0
  4  5  1  0
  5  6  2  0
  5  7  1  0
  7  8  1  0
  8  9  1  0
  9 10  1  0
 10 11  1  0
 11 12  1  0
 12 13  1  0
 13 14  2  0
 14 15  1  0
 15 16  1  0
 16 17  2  0
  2 18  1  0
 18 19  2  0
 19 20  1  0
 20 21  2  0
 21 22  1  0
 22 23  2  0
 23 24  1  0
 23 25  1  0
 25 26  2  0
 26 27  1  0
 27 28  2  0
 12  7  1  0
 17 13  1  0
 28 18  1  0
 27 21  1  0
  3 29  1  0
  4 30  1  0
  4 31  1  0
  8 32  1  0
  8 33  1  0
  9 34  1  0
  9 35  1  0
 10 36  1  0
 10 37  1  0
 11 38  1  0
 11 39  1  0
 12 40  1  6
 14 41  1  0
 15 42  1  0
 16 43  1  0
 19 44  1  0
 20 45  1  0
 22 46  1  0
 25 47  1  0
 26 48  1  0
M  END
>  <smiles>  (28) 
O=C(NCC(=O)N1CCCC[C@H]1c1c[nH]cn1)c1ccc2cc(Cl)ccc2n1

>  <score_type>  (28) 
oracle

>  <origin>  (28) 
autodockgpu

>  <m_score__min__energy>  (28) 
-8.7100000000000009

>  <m_primary>  (28) 
energy

>  <rmsd>  (28) 
2.711477032824379

>  <m_score__min__rmsd>  (28) 
2.711477032824379

>  <meeko>  (28) 
{"free_energy": -7.55, "intermolecular_energy": -9.04, "internal_energy": -2.12, "cluster_size": 17, "cluster_id": 3, "rank_in_cluster": 13}

>  <energy>  (28) 
-7.59

>  <cluster_rmsd>  (28) 
1.75

>  <cluster>  (28) 
3

$$$$

     RDKit          3D

 48 51  0  0  0  0  0  0  0  0999 V2000
  140.0900   71.6460  220.7500 O   0  0  0  0  0  0  0  0  0  0  0  0
  139.8690   72.1180  221.8890 C   0  0  0  0  0  0  0  0  0  0  0  0
  139.5830   73.4930  222.1120 N   0  0  0  0  0  0  0  0  0  0  0  0
  139.5240   74.4600  221.0300 C   0  0  0  0  0  0  0  0  0  0  0  0
  140.8580   75.1570  220.9560 C   0  0  0  0  0  0  0  0  0  0  0  0
  141.4160   75.3580  222.0620 O   0  0  0  0  0  0  0  0  0  0  0  0
  141.3920   75.5330  219.7000 N   0  0  0  0  0  0  0  0  0  0  0  0
  140.5520   76.3040  218.7760 C   0  0  0  0  0  0  0  0  0  0  0  0
  141.3440   77.0710  217.7790 C   0  0  0  0  0  0  0  0  0  0  0  0
  142.7440   77.4030  218.1110 C   0  0  0  0  0  0  0  0  0  0  0  0
  143.4140   76.5800  219.1510 C   0  0  0  0  0  0  0  0  0  0  0  0
  142.7110   75.2390  219.2250 C   0  0  1  0  0  0  0  0  0  0  0  0
  143.5320   74.3130  219.9660 C   0  0  0  0  0  0  0  0  0  0  0  0
  143.2810   73.0090  220.3360 C   0  0  0  0  0  0  0  0  0  0  0  0
  144.3140   72.4960  221.0290 N   0  0  0  0  0  0  0  0  0  0  0  0
  145.2340   73.4740  221.1060 C   0  0  0  0  0  0  0  0  0  0  0  0
  144.7780   74.5660  220.4730 N   0  0  0  0  0  0  0  0  0  0  0  0
  139.9080   71.2060  223.0480 C   0  0  0  0  0  0  0  0  0  0  0  0
  139.4210   69.9280  222.9560 C   0  0  0  0  0  0  0  0  0  0  0  0
  139.4500   69.0720  224.0160 C   0  0  0  0  0  0  0  0  0  0  0  0
  139.9800   69.5070  225.2000 C   0  0  0  0  0  0  0  0  0  0  0  0
  140.0500   68.7010  226.3350 C   0  0  0  0  0  0  0  0  0  0  0  0
  140.5830   69.1510  227.5100 C   0  0  0  0  0  0  0  0  0  0  0  0
  140.6710   68.1340  228.9430 Cl  0  0  0  0  0  0  0  0  0  0  0  0
  141.0720   70.4370  227.5930 C   0  0  0  0  0  0  0  0  0  0  0  0
  141.0000   71.2350  226.4650 C   0  0  0  0  0  0  0  0  0  0  0  0
  140.4640   70.7950  225.2680 C   0  0  0  0  0  0  0  0  0  0  0  0
  140.4200   71.6020  224.2120 N   0  0  0  0  0  0  0  0  0  0  0  0
  139.4110   73.7940  223.1140 H   0  0  0  0  0  0  0  0  0  0  0  0
  139.3185   73.9452  220.0799 H   0  0  0  0  0  0  0  0  0  0  0  0
  138.7211   75.1894  221.2124 H   0  0  0  0  0  0  0  0  0  0  0  0
  139.8906   75.6082  218.2389 H   0  0  0  0  0  0  0  0  0  0  0  0
  139.9822   77.0299  219.3747 H   0  0  0  0  0  0  0  0  0  0  0  0
  141.3593   76.4815  216.8504 H   0  0  0  0  0  0  0  0  0  0  0  0
  140.8381   78.0459  217.7185 H   0  0  0  0  0  0  0  0  0  0  0  0
  143.3331   77.3102  217.1867 H   0  0  0  0  0  0  0  0  0  0  0  0
  142.6990   78.4152  218.5393 H   0  0  0  0  0  0  0  0  0  0  0  0
  144.4707   76.4315  218.8837 H   0  0  0  0  0  0  0  0  0  0  0  0
  143.3639   77.0877  220.1255 H   0  0  0  0  0  0  0  0  0  0  0  0
  142.5771   74.7038  218.2733 H   0  0  0  0  0  0  0  0  0  0  0  0
  142.3582   72.4604  220.0964 H   0  0  0  0  0  0  0  0  0  0  0  0
  144.3900   71.5290  221.4310 H   0  0  0  0  0  0  0  0  0  0  0  0
  146.2085   73.3917  221.6095 H   0  0  0  0  0  0  0  0  0  0  0  0
  138.9956   69.5844  222.0015 H   0  0  0  0  0  0  0  0  0  0  0  0
  139.0545   68.0499  223.9214 H   0  0  0  0  0  0  0  0  0  0  0  0
  139.6647   67.6720  226.2833 H   0  0  0  0  0  0  0  0  0  0  0  0
  141.5069   70.8178  228.5289 H   0  0  0  0  0  0  0  0  0  0  0  0
  141.3856   72.2636  226.5225 H   0  0  0  0  0  0  0  0  0  0  0  0
  1  2  2  0
  2  3  1  0
  3  4  1  0
  4  5  1  0
  5  6  2  0
  5  7  1  0
  7  8  1  0
  8  9  1  0
  9 10  1  0
 10 11  1  0
 11 12  1  0
 12 13  1  0
 13 14  2  0
 14 15  1  0
 15 16  1  0
 16 17  2  0
  2 18  1  0
 18 19  2  0
 19 20  1  0
 20 21  2  0
 21 22  1  0
 22 23  2  0
 23 24  1  0
 23 25  1  0
 25 26  2  0
 26 27  1  0
 27 28  2  0
 12  7  1  0
 17 13  1  0
 28 18  1  0
 27 21  1  0
  3 29  1  0
  4 30  1  0
  4 31  1  0
  8 32  1  0
  8 33  1  0
  9 34  1  0
  9 35  1  0
 10 36  1  0
 10 37  1  0
 11 38  1  0
 11 39  1  0
 12 40  1  6
 14 41  1  0
 15 42  1  0
 16 43  1  0
 19 44  1  0
 20 45  1  0
 22 46  1  0
 25 47  1  0
 26 48  1  0
M  END
>  <smiles>  (29) 
O=C(NCC(=O)N1CCCC[C@H]1c1c[nH]cn1)c1ccc2cc(Cl)ccc2n1

>  <score_type>  (29) 
oracle

>  <origin>  (29) 
autodockgpu

>  <m_score__min__energy>  (29) 
-8.7100000000000009

>  <m_primary>  (29) 
energy

>  <rmsd>  (29) 
2.581984725939596

>  <m_score__min__rmsd>  (29) 
2.581984725939596

>  <meeko>  (29) 
{"free_energy": -7.73, "intermolecular_energy": -9.22, "internal_energy": -1.66, "cluster_size": 17, "cluster_id": 3, "rank_in_cluster": 5}

>  <energy>  (29) 
-7.55

>  <cluster_rmsd>  (29) 
1.74

>  <cluster>  (29) 
3

$$$$

     RDKit          3D

 48 51  0  0  0  0  0  0  0  0999 V2000
  134.9970   68.4900  225.0040 O   0  0  0  0  0  0  0  0  0  0  0  0
  135.4830   69.6450  225.0390 C   0  0  0  0  0  0  0  0  0  0  0  0
  136.7780   69.9520  224.5400 N   0  0  0  0  0  0  0  0  0  0  0  0
  137.6430   68.9450  223.9470 C   0  0  0  0  0  0  0  0  0  0  0  0
  138.8030   68.7210  224.8830 C   0  0  0  0  0  0  0  0  0  0  0  0
  139.3270   67.5820  224.8180 O   0  0  0  0  0  0  0  0  0  0  0  0
  139.2250   69.7580  225.7490 N   0  0  0  0  0  0  0  0  0  0  0  0
  139.1600   69.5400  227.1990 C   0  0  0  0  0  0  0  0  0  0  0  0
  140.0840   70.4240  227.9570 C   0  0  0  0  0  0  0  0  0  0  0  0
  141.2530   70.9790  227.2470 C   0  0  0  0  0  0  0  0  0  0  0  0
  141.1910   71.0300  225.7640 C   0  0  0  0  0  0  0  0  0  0  0  0
  139.7350   71.0350  225.3460 C   0  0  1  0  0  0  0  0  0  0  0  0
  139.6400   71.4200  223.9590 C   0  0  0  0  0  0  0  0  0  0  0  0
  140.6240   71.5140  222.9970 C   0  0  0  0  0  0  0  0  0  0  0  0
  140.1130   71.9180  221.8210 N   0  0  0  0  0  0  0  0  0  0  0  0
  138.7950   72.0850  222.0240 C   0  0  0  0  0  0  0  0  0  0  0  0
  138.4990   71.7910  223.3000 N   0  0  0  0  0  0  0  0  0  0  0  0
  134.6730   70.7310  225.6230 C   0  0  0  0  0  0  0  0  0  0  0  0
  133.6240   70.4550  226.4610 C   0  0  0  0  0  0  0  0  0  0  0  0
  132.8660   71.4460  227.0090 C   0  0  0  0  0  0  0  0  0  0  0  0
  133.1660   72.7470  226.7120 C   0  0  0  0  0  0  0  0  0  0  0  0
  132.4460   73.8230  227.2270 C   0  0  0  0  0  0  0  0  0  0  0  0
  132.7590   75.1170  226.9190 C   0  0  0  0  0  0  0  0  0  0  0  0
  131.8490   76.4760  227.5690 Cl  0  0  0  0  0  0  0  0  0  0  0  0
  133.8170   75.3840  226.0770 C   0  0  0  0  0  0  0  0  0  0  0  0
  134.5300   74.3140  225.5670 C   0  0  0  0  0  0  0  0  0  0  0  0
  134.2260   73.0000  225.8680 C   0  0  0  0  0  0  0  0  0  0  0  0
  134.9440   72.0070  225.3510 N   0  0  0  0  0  0  0  0  0  0  0  0
  137.0990   70.9590  224.6160 H   0  0  0  0  0  0  0  0  0  0  0  0
  137.0856   68.0064  223.8115 H   0  0  0  0  0  0  0  0  0  0  0  0
  138.0036   69.2808  222.9636 H   0  0  0  0  0  0  0  0  0  0  0  0
  138.1315   69.7338  227.5377 H   0  0  0  0  0  0  0  0  0  0  0  0
  139.4643   68.5006  227.3913 H   0  0  0  0  0  0  0  0  0  0  0  0
  139.4925   71.2744  228.3271 H   0  0  0  0  0  0  0  0  0  0  0  0
  140.5170   69.7704  228.7286 H   0  0  0  0  0  0  0  0  0  0  0  0
  141.3995   72.0081  227.6067 H   0  0  0  0  0  0  0  0  0  0  0  0
  142.0746   70.2825  227.4704 H   0  0  0  0  0  0  0  0  0  0  0  0
  141.6843   71.9444  225.4028 H   0  0  0  0  0  0  0  0  0  0  0  0
  141.7045   70.1574  225.3341 H   0  0  0  0  0  0  0  0  0  0  0  0
  139.0908   71.7846  225.8288 H   0  0  0  0  0  0  0  0  0  0  0  0
  141.6867   71.2882  223.1693 H   0  0  0  0  0  0  0  0  0  0  0  0
  140.6340   72.0720  220.9220 H   0  0  0  0  0  0  0  0  0  0  0  0
  138.0712   72.4118  221.2629 H   0  0  0  0  0  0  0  0  0  0  0  0
  133.3880   69.4069  226.6971 H   0  0  0  0  0  0  0  0  0  0  0  0
  132.0275   71.2039  227.6785 H   0  0  0  0  0  0  0  0  0  0  0  0
  131.6002   73.6249  227.9018 H   0  0  0  0  0  0  0  0  0  0  0  0
  134.0867   76.4185  225.8179 H   0  0  0  0  0  0  0  0  0  0  0  0
  135.3751   74.5178  224.8930 H   0  0  0  0  0  0  0  0  0  0  0  0
  1  2  2  0
  2  3  1  0
  3  4  1  0
  4  5  1  0
  5  6  2  0
  5  7  1  0
  7  8  1  0
  8  9  1  0
  9 10  1  0
 10 11  1  0
 11 12  1  0
 12 13  1  0
 13 14  2  0
 14 15  1  0
 15 16  1  0
 16 17  2  0
  2 18  1  0
 18 19  2  0
 19 20  1  0
 20 21  2  0
 21 22  1  0
 22 23  2  0
 23 24  1  0
 23 25  1  0
 25 26  2  0
 26 27  1  0
 27 28  2  0
 12  7  1  0
 17 13  1  0
 28 18  1  0
 27 21  1  0
  3 29  1  0
  4 30  1  0
  4 31  1  0
  8 32  1  0
  8 33  1  0
  9 34  1  0
  9 35  1  0
 10 36  1  0
 10 37  1  0
 11 38  1  0
 11 39  1  0
 12 40  1  1
 14 41  1  0
 15 42  1  0
 16 43  1  0
 19 44  1  0
 20 45  1  0
 22 46  1  0
 25 47  1  0
 26 48  1  0
M  END
>  <smiles>  (30) 
O=C(NCC(=O)N1CCCC[C@H]1c1c[nH]cn1)c1ccc2cc(Cl)ccc2n1

>  <score_type>  (30) 
oracle

>  <origin>  (30) 
autodockgpu

>  <m_score__min__energy>  (30) 
-8.7100000000000009

>  <m_primary>  (30) 
energy

>  <rmsd>  (30) 
8.12031425560761

>  <m_score__min__rmsd>  (30) 
8.12031425560761

>  <meeko>  (30) 
{"free_energy": -7.52, "intermolecular_energy": -9.01, "internal_energy": -2.4, "cluster_size": 7, "cluster_id": 4, "rank_in_cluster": 5}

>  <energy>  (30) 
-7.55

>  <cluster_rmsd>  (30) 
1.68

>  <cluster>  (30) 
3

$$$$

     RDKit          3D

 48 51  0  0  0  0  0  0  0  0999 V2000
  138.5360   76.1480  222.6920 O   0  0  0  0  0  0  0  0  0  0  0  0
  139.4460   76.4160  221.8730 C   0  0  0  0  0  0  0  0  0  0  0  0
  139.5820   77.6930  221.2630 N   0  0  0  0  0  0  0  0  0  0  0  0
  138.6730   78.7910  221.5460 C   0  0  0  0  0  0  0  0  0  0  0  0
  139.3340   80.0690  221.0950 C   0  0  0  0  0  0  0  0  0  0  0  0
  138.7660   80.6560  220.1440 O   0  0  0  0  0  0  0  0  0  0  0  0
  140.5100   80.5220  221.7400 N   0  0  0  0  0  0  0  0  0  0  0  0
  140.3850   81.2720  222.9960 C   0  0  0  0  0  0  0  0  0  0  0  0
  141.6200   81.2240  223.8220 C   0  0  0  0  0  0  0  0  0  0  0  0
  142.5560   80.1030  223.6080 C   0  0  0  0  0  0  0  0  0  0  0  0
  142.4750   79.3830  222.3110 C   0  0  0  0  0  0  0  0  0  0  0  0
  141.8530   80.3100  221.2870 C   0  0  1  0  0  0  0  0  0  0  0  0
  142.0690   79.7730  219.9660 C   0  0  0  0  0  0  0  0  0  0  0  0
  142.5490   80.3880  218.8290 C   0  0  0  0  0  0  0  0  0  0  0  0
  142.5930   79.5270  217.7960 N   0  0  0  0  0  0  0  0  0  0  0  0
  142.1390   78.3530  218.2700 C   0  0  0  0  0  0  0  0  0  0  0  0
  141.8230   78.4880  219.5670 N   0  0  0  0  0  0  0  0  0  0  0  0
  140.4160   75.3600  221.5290 C   0  0  0  0  0  0  0  0  0  0  0  0
  140.1380   74.0410  221.7740 C   0  0  0  0  0  0  0  0  0  0  0  0
  141.0220   73.0520  221.4620 C   0  0  0  0  0  0  0  0  0  0  0  0
  142.2170   73.3920  220.8890 C   0  0  0  0  0  0  0  0  0  0  0  0
  143.1800   72.4490  220.5370 C   0  0  0  0  0  0  0  0  0  0  0  0
  144.3690   72.8070  219.9650 C   0  0  0  0  0  0  0  0  0  0  0  0
  145.5850   71.6160  219.5200 Cl  0  0  0  0  0  0  0  0  0  0  0  0
  144.6390   74.1360  219.7210 C   0  0  0  0  0  0  0  0  0  0  0  0
  143.6810   75.0700  220.0710 C   0  0  0  0  0  0  0  0  0  0  0  0
  142.4740   74.7250  220.6510 C   0  0  0  0  0  0  0  0  0  0  0  0
  141.5860   75.6630  220.9680 N   0  0  0  0  0  0  0  0  0  0  0  0
  140.3850   77.8210  220.5830 H   0  0  0  0  0  0  0  0  0  0  0  0
  137.7296   78.6453  220.9995 H   0  0  0  0  0  0  0  0  0  0  0  0
  138.4490   78.8349  222.6221 H   0  0  0  0  0  0  0  0  0  0  0  0
  140.1627   82.3225  222.7572 H   0  0  0  0  0  0  0  0  0  0  0  0
  139.5778   80.8063  223.5805 H   0  0  0  0  0  0  0  0  0  0  0  0
  142.1758   82.1543  223.6330 H   0  0  0  0  0  0  0  0  0  0  0  0
  141.2561   81.0843  224.8506 H   0  0  0  0  0  0  0  0  0  0  0  0
  143.5765   80.5030  223.7002 H   0  0  0  0  0  0  0  0  0  0  0  0
  142.2756   79.3542  224.3635 H   0  0  0  0  0  0  0  0  0  0  0  0
  143.4842   79.0921  221.9841 H   0  0  0  0  0  0  0  0  0  0  0  0
  141.8628   78.4756  222.4202 H   0  0  0  0  0  0  0  0  0  0  0  0
  142.3032   81.3095  221.1960 H   0  0  0  0  0  0  0  0  0  0  0  0
  142.8554   81.4430  218.7738 H   0  0  0  0  0  0  0  0  0  0  0  0
  142.9150   79.7270  216.8170 H   0  0  0  0  0  0  0  0  0  0  0  0
  142.0419   77.4263  217.6853 H   0  0  0  0  0  0  0  0  0  0  0  0
  139.1757   73.7732  222.2348 H   0  0  0  0  0  0  0  0  0  0  0  0
  140.7791   71.9990  221.6672 H   0  0  0  0  0  0  0  0  0  0  0  0
  142.9777   71.3842  220.7249 H   0  0  0  0  0  0  0  0  0  0  0  0
  145.5892   74.4452  219.2610 H   0  0  0  0  0  0  0  0  0  0  0  0
  143.8881   76.1333  219.8798 H   0  0  0  0  0  0  0  0  0  0  0  0
  1  2  2  0
  2  3  1  0
  3  4  1  0
  4  5  1  0
  5  6  2  0
  5  7  1  0
  7  8  1  0
  8  9  1  0
  9 10  1  0
 10 11  1  0
 11 12  1  0
 12 13  1  0
 13 14  2  0
 14 15  1  0
 15 16  1  0
 16 17  2  0
  2 18  1  0
 18 19  2  0
 19 20  1  0
 20 21  2  0
 21 22  1  0
 22 23  2  0
 23 24  1  0
 23 25  1  0
 25 26  2  0
 26 27  1  0
 27 28  2  0
 12  7  1  0
 17 13  1  0
 28 18  1  0
 27 21  1  0
  3 29  1  0
  4 30  1  0
  4 31  1  0
  8 32  1  0
  8 33  1  0
  9 34  1  0
  9 35  1  0
 10 36  1  0
 10 37  1  0
 11 38  1  0
 11 39  1  0
 12 40  1  6
 14 41  1  0
 15 42  1  0
 16 43  1  0
 19 44  1  0
 20 45  1  0
 22 46  1  0
 25 47  1  0
 26 48  1  0
M  END
>  <smiles>  (31) 
O=C(NCC(=O)N1CCCC[C@H]1c1c[nH]cn1)c1ccc2cc(Cl)ccc2n1

>  <score_type>  (31) 
oracle

>  <origin>  (31) 
autodockgpu

>  <m_score__min__energy>  (31) 
-8.7100000000000009

>  <m_primary>  (31) 
energy

>  <rmsd>  (31) 
6.597273404143615

>  <m_score__min__rmsd>  (31) 
6.597273404143615

>  <meeko>  (31) 
{"free_energy": -6.38, "intermolecular_energy": -7.87, "internal_energy": -2.86, "cluster_size": 7, "cluster_id": 6, "rank_in_cluster": 2}

>  <energy>  (31) 
-7.52

>  <cluster_rmsd>  (31) 
1.55

>  <cluster>  (31) 
3

$$$$

     RDKit          3D

 48 51  0  0  0  0  0  0  0  0999 V2000
  140.0990   72.4810  220.6780 O   0  0  0  0  0  0  0  0  0  0  0  0
  139.8730   72.8750  221.8460 C   0  0  0  0  0  0  0  0  0  0  0  0
  139.5710   74.2290  222.1590 N   0  0  0  0  0  0  0  0  0  0  0  0
  139.5010   75.2650  221.1430 C   0  0  0  0  0  0  0  0  0  0  0  0
  140.7080   76.1530  221.3020 C   0  0  0  0  0  0  0  0  0  0  0  0
  141.8140   75.5840  221.1370 O   0  0  0  0  0  0  0  0  0  0  0  0
  140.5420   77.5240  221.6150 N   0  0  0  0  0  0  0  0  0  0  0  0
  139.6420   77.8940  222.7140 C   0  0  0  0  0  0  0  0  0  0  0  0
  139.9460   79.2340  223.2820 C   0  0  0  0  0  0  0  0  0  0  0  0
  141.3080   79.7730  223.1000 C   0  0  0  0  0  0  0  0  0  0  0  0
  142.1250   79.2070  221.9950 C   0  0  0  0  0  0  0  0  0  0  0  0
  141.1880   78.6210  220.9590 C   0  0  1  0  0  0  0  0  0  0  0  0
  141.9210   78.3750  219.7410 C   0  0  0  0  0  0  0  0  0  0  0  0
  142.2520   79.2390  218.7180 C   0  0  0  0  0  0  0  0  0  0  0  0
  142.9430   78.6030  217.7550 N   0  0  0  0  0  0  0  0  0  0  0  0
  143.0570   77.3260  218.1570 C   0  0  0  0  0  0  0  0  0  0  0  0
  142.4490   77.1770  219.3450 N   0  0  0  0  0  0  0  0  0  0  0  0
  139.9220   71.8880  222.9430 C   0  0  0  0  0  0  0  0  0  0  0  0
  139.4770   70.6060  222.7560 C   0  0  0  0  0  0  0  0  0  0  0  0
  139.5160   69.6820  223.7580 C   0  0  0  0  0  0  0  0  0  0  0  0
  140.0120   70.0520  224.9780 C   0  0  0  0  0  0  0  0  0  0  0  0
  140.0890   69.1750  226.0580 C   0  0  0  0  0  0  0  0  0  0  0  0
  140.5870   69.5620  227.2700 C   0  0  0  0  0  0  0  0  0  0  0  0
  140.6840   68.4540  228.6340 Cl  0  0  0  0  0  0  0  0  0  0  0  0
  141.0330   70.8540  227.4470 C   0  0  0  0  0  0  0  0  0  0  0  0
  140.9550   71.7230  226.3740 C   0  0  0  0  0  0  0  0  0  0  0  0
  140.4530   71.3480  225.1410 C   0  0  0  0  0  0  0  0  0  0  0  0
  140.4010   72.2220  224.1400 N   0  0  0  0  0  0  0  0  0  0  0  0
  139.3950   74.4610  223.1780 H   0  0  0  0  0  0  0  0  0  0  0  0
  139.5027   74.8078  220.1425 H   0  0  0  0  0  0  0  0  0  0  0  0
  138.5770   75.8509  221.2567 H   0  0  0  0  0  0  0  0  0  0  0  0
  138.6091   77.8988  222.3358 H   0  0  0  0  0  0  0  0  0  0  0  0
  139.7793   77.1551  223.5173 H   0  0  0  0  0  0  0  0  0  0  0  0
  139.2475   79.9494  222.8234 H   0  0  0  0  0  0  0  0  0  0  0  0
  139.8478   79.0993  224.3693 H   0  0  0  0  0  0  0  0  0  0  0  0
  141.2138   80.8542  222.9205 H   0  0  0  0  0  0  0  0  0  0  0  0
  141.8458   79.4953  224.0185 H   0  0  0  0  0  0  0  0  0  0  0  0
  142.7335   80.0015  221.5384 H   0  0  0  0  0  0  0  0  0  0  0  0
  142.7957   78.4260  222.3827 H   0  0  0  0  0  0  0  0  0  0  0  0
  140.3806   79.2779  220.6032 H   0  0  0  0  0  0  0  0  0  0  0  0
  141.9862   80.3061  218.6930 H   0  0  0  0  0  0  0  0  0  0  0  0
  143.3190   79.0180  216.8660 H   0  0  0  0  0  0  0  0  0  0  0  0
  143.5685   76.5273  217.5999 H   0  0  0  0  0  0  0  0  0  0  0  0
  139.0783   70.3147  221.7731 H   0  0  0  0  0  0  0  0  0  0  0  0
  139.1549   68.6569  223.5882 H   0  0  0  0  0  0  0  0  0  0  0  0
  139.7384   68.1401  225.9310 H   0  0  0  0  0  0  0  0  0  0  0  0
  141.4395   71.1846  228.4142 H   0  0  0  0  0  0  0  0  0  0  0  0
  141.3073   72.7566  226.5068 H   0  0  0  0  0  0  0  0  0  0  0  0
  1  2  2  0
  2  3  1  0
  3  4  1  0
  4  5  1  0
  5  6  2  0
  5  7  1  0
  7  8  1  0
  8  9  1  0
  9 10  1  0
 10 11  1  0
 11 12  1  0
 12 13  1  0
 13 14  2  0
 14 15  1  0
 15 16  1  0
 16 17  2  0
  2 18  1  0
 18 19  2  0
 19 20  1  0
 20 21  2  0
 21 22  1  0
 22 23  2  0
 23 24  1  0
 23 25  1  0
 25 26  2  0
 26 27  1  0
 27 28  2  0
 12  7  1  0
 17 13  1  0
 28 18  1  0
 27 21  1  0
  3 29  1  0
  4 30  1  0
  4 31  1  0
  8 32  1  0
  8 33  1  0
  9 34  1  0
  9 35  1  0
 10 36  1  0
 10 37  1  0
 11 38  1  0
 11 39  1  0
 12 40  1  6
 14 41  1  0
 15 42  1  0
 16 43  1  0
 19 44  1  0
 20 45  1  0
 22 46  1  0
 25 47  1  0
 26 48  1  0
M  END
>  <smiles>  (32) 
O=C(NCC(=O)N1CCCC[C@H]1c1c[nH]cn1)c1ccc2cc(Cl)ccc2n1

>  <score_type>  (32) 
oracle

>  <origin>  (32) 
autodockgpu

>  <m_score__min__energy>  (32) 
-8.7100000000000009

>  <m_primary>  (32) 
energy

>  <rmsd>  (32) 
3.4103404553678303

>  <m_score__min__rmsd>  (32) 
3.4103404553678303

>  <meeko>  (32) 
{"free_energy": -8.65, "intermolecular_energy": -10.14, "internal_energy": -1.04, "cluster_size": 8, "cluster_id": 1, "rank_in_cluster": 6}

>  <energy>  (32) 
-7.47

>  <cluster_rmsd>  (32) 
1.79

>  <cluster>  (32) 
3

$$$$

     RDKit          3D

 48 51  0  0  0  0  0  0  0  0999 V2000
  140.0520   72.3830  220.6580 O   0  0  0  0  0  0  0  0  0  0  0  0
  139.8850   72.8220  221.8190 C   0  0  0  0  0  0  0  0  0  0  0  0
  139.7030   74.2030  222.1040 N   0  0  0  0  0  0  0  0  0  0  0  0
  139.6950   75.2170  221.0620 C   0  0  0  0  0  0  0  0  0  0  0  0
  140.4690   76.4070  221.5670 C   0  0  0  0  0  0  0  0  0  0  0  0
  140.2050   76.7550  222.7440 O   0  0  0  0  0  0  0  0  0  0  0  0
  141.4150   77.0440  220.7280 N   0  0  0  0  0  0  0  0  0  0  0  0
  142.0400   76.2680  219.6500 C   0  0  0  0  0  0  0  0  0  0  0  0
  142.5680   77.1230  218.5550 C   0  0  0  0  0  0  0  0  0  0  0  0
  141.9920   78.4720  218.3880 C   0  0  0  0  0  0  0  0  0  0  0  0
  141.2990   79.0700  219.5580 C   0  0  0  0  0  0  0  0  0  0  0  0
  141.8310   78.4120  220.8160 C   0  0  1  0  0  0  0  0  0  0  0  0
  141.4360   79.1920  221.9630 C   0  0  0  0  0  0  0  0  0  0  0  0
  142.2080   79.7780  222.9430 C   0  0  0  0  0  0  0  0  0  0  0  0
  141.4420   80.4170  223.8450 N   0  0  0  0  0  0  0  0  0  0  0  0
  140.1700   80.2420  223.4450 C   0  0  0  0  0  0  0  0  0  0  0  0
  140.1540   79.5100  222.3200 N   0  0  0  0  0  0  0  0  0  0  0  0
  139.8790   71.8620  222.9400 C   0  0  0  0  0  0  0  0  0  0  0  0
  139.3550   70.6050  222.7870 C   0  0  0  0  0  0  0  0  0  0  0  0
  139.3400   69.7050  223.8100 C   0  0  0  0  0  0  0  0  0  0  0  0
  139.8640   70.0740  225.0190 C   0  0  0  0  0  0  0  0  0  0  0  0
  139.8920   69.2200  226.1200 C   0  0  0  0  0  0  0  0  0  0  0  0
  140.4200   69.6040  227.3210 C   0  0  0  0  0  0  0  0  0  0  0  0
  140.4540   68.5270  228.7120 Cl  0  0  0  0  0  0  0  0  0  0  0  0
  140.9450   70.8700  227.4650 C   0  0  0  0  0  0  0  0  0  0  0  0
  140.9160   71.7160  226.3700 C   0  0  0  0  0  0  0  0  0  0  0  0
  140.3860   71.3430  225.1490 C   0  0  0  0  0  0  0  0  0  0  0  0
  140.3830   72.1940  224.1270 N   0  0  0  0  0  0  0  0  0  0  0  0
  139.5700   74.4740  223.1200 H   0  0  0  0  0  0  0  0  0  0  0  0
  140.1697   74.8214  220.1520 H   0  0  0  0  0  0  0  0  0  0  0  0
  138.6624   75.5073  220.8181 H   0  0  0  0  0  0  0  0  0  0  0  0
  142.8718   75.6857  220.0731 H   0  0  0  0  0  0  0  0  0  0  0  0
  141.2647   75.6183  219.2178 H   0  0  0  0  0  0  0  0  0  0  0  0
  143.6470   77.2476  218.7290 H   0  0  0  0  0  0  0  0  0  0  0  0
  142.2904   76.5905  217.6334 H   0  0  0  0  0  0  0  0  0  0  0  0
  142.8131   79.1490  218.1096 H   0  0  0  0  0  0  0  0  0  0  0  0
  141.2060   78.3497  217.6283 H   0  0  0  0  0  0  0  0  0  0  0  0
  141.4950   80.1518  219.5931 H   0  0  0  0  0  0  0  0  0  0  0  0
  140.2137   78.9099  219.4773 H   0  0  0  0  0  0  0  0  0  0  0  0
  142.9247   78.3882  220.9306 H   0  0  0  0  0  0  0  0  0  0  0  0
  143.3062   79.7294  222.9822 H   0  0  0  0  0  0  0  0  0  0  0  0
  141.7670   80.9470  224.6910 H   0  0  0  0  0  0  0  0  0  0  0  0
  139.2815   80.6370  223.9594 H   0  0  0  0  0  0  0  0  0  0  0  0
  138.9353   70.3149  221.8125 H   0  0  0  0  0  0  0  0  0  0  0  0
  138.9147   68.7007  223.6666 H   0  0  0  0  0  0  0  0  0  0  0  0
  139.4767   68.2064  226.0195 H   0  0  0  0  0  0  0  0  0  0  0  0
  141.3748   71.1987  228.4227 H   0  0  0  0  0  0  0  0  0  0  0  0
  141.3325   72.7286  226.4759 H   0  0  0  0  0  0  0  0  0  0  0  0
  1  2  2  0
  2  3  1  0
  3  4  1  0
  4  5  1  0
  5  6  2  0
  5  7  1  0
  7  8  1  0
  8  9  1  0
  9 10  1  0
 10 11  1  0
 11 12  1  0
 12 13  1  0
 13 14  2  0
 14 15  1  0
 15 16  1  0
 16 17  2  0
  2 18  1  0
 18 19  2  0
 19 20  1  0
 20 21  2  0
 21 22  1  0
 22 23  2  0
 23 24  1  0
 23 25  1  0
 25 26  2  0
 26 27  1  0
 27 28  2  0
 12  7  1  0
 17 13  1  0
 28 18  1  0
 27 21  1  0
  3 29  1  0
  4 30  1  0
  4 31  1  0
  8 32  1  0
  8 33  1  0
  9 34  1  0
  9 35  1  0
 10 36  1  0
 10 37  1  0
 11 38  1  0
 11 39  1  0
 12 40  1  6
 14 41  1  0
 15 42  1  0
 16 43  1  0
 19 44  1  0
 20 45  1  0
 22 46  1  0
 25 47  1  0
 26 48  1  0
M  END
>  <smiles>  (33) 
O=C(NCC(=O)N1CCCC[C@H]1c1c[nH]cn1)c1ccc2cc(Cl)ccc2n1

>  <score_type>  (33) 
oracle

>  <origin>  (33) 
autodockgpu

>  <m_score__min__energy>  (33) 
-8.7100000000000009

>  <m_primary>  (33) 
energy

>  <rmsd>  (33) 
2.1520836212270376

>  <m_score__min__rmsd>  (33) 
2.1520836212270376

>  <meeko>  (33) 
{"free_energy": -7.98, "intermolecular_energy": -9.47, "internal_energy": -1.64, "cluster_size": 9, "cluster_id": 2, "rank_in_cluster": 4}

>  <energy>  (33) 
-7.43

>  <cluster_rmsd>  (33) 
1.66

>  <cluster>  (33) 
3

$$$$

     RDKit          3D

 48 51  0  0  0  0  0  0  0  0999 V2000
  138.3270   71.6560  221.3130 O   0  0  0  0  0  0  0  0  0  0  0  0
  139.0820   72.0510  222.2320 C   0  0  0  0  0  0  0  0  0  0  0  0
  139.6920   73.3350  222.2310 N   0  0  0  0  0  0  0  0  0  0  0  0
  139.4840   74.2940  221.1590 C   0  0  0  0  0  0  0  0  0  0  0  0
  140.6420   75.2580  221.1670 C   0  0  0  0  0  0  0  0  0  0  0  0
  141.0100   75.6390  222.3050 O   0  0  0  0  0  0  0  0  0  0  0  0
  141.2310   75.6670  219.9460 N   0  0  0  0  0  0  0  0  0  0  0  0
  140.5490   76.6840  219.1370 C   0  0  0  0  0  0  0  0  0  0  0  0
  141.4690   77.3960  218.2110 C   0  0  0  0  0  0  0  0  0  0  0  0
  142.9080   77.4160  218.5400 C   0  0  0  0  0  0  0  0  0  0  0  0
  143.4130   76.3680  219.4630 C   0  0  0  0  0  0  0  0  0  0  0  0
  142.4680   75.1850  219.4060 C   0  0  1  0  0  0  0  0  0  0  0  0
  143.1000   74.0410  220.0180 C   0  0  0  0  0  0  0  0  0  0  0  0
  144.3920   73.8830  220.4720 C   0  0  0  0  0  0  0  0  0  0  0  0
  144.5800   72.6500  220.9740 N   0  0  0  0  0  0  0  0  0  0  0  0
  143.4050   72.0100  220.8430 C   0  0  0  0  0  0  0  0  0  0  0  0
  142.5110   72.8330  220.2710 N   0  0  0  0  0  0  0  0  0  0  0  0
  139.3480   71.1410  223.3630 C   0  0  0  0  0  0  0  0  0  0  0  0
  138.9990   69.8180  223.3000 C   0  0  0  0  0  0  0  0  0  0  0  0
  139.2380   68.9640  224.3360 C   0  0  0  0  0  0  0  0  0  0  0  0
  139.8420   69.4480  225.4630 C   0  0  0  0  0  0  0  0  0  0  0  0
  140.1250   68.6480  226.5690 C   0  0  0  0  0  0  0  0  0  0  0  0
  140.7300   69.1490  227.6880 C   0  0  0  0  0  0  0  0  0  0  0  0
  141.0870   68.1390  229.0850 Cl  0  0  0  0  0  0  0  0  0  0  0  0
  141.0790   70.4810  227.7410 C   0  0  0  0  0  0  0  0  0  0  0  0
  140.7970   71.2720  226.6420 C   0  0  0  0  0  0  0  0  0  0  0  0
  140.1850   70.7820  225.5030 C   0  0  0  0  0  0  0  0  0  0  0  0
  139.9370   71.5860  224.4730 N   0  0  0  0  0  0  0  0  0  0  0  0
  140.3150   73.5750  223.0540 H   0  0  0  0  0  0  0  0  0  0  0  0
  139.4406   73.7703  220.1926 H   0  0  0  0  0  0  0  0  0  0  0  0
  138.5365   74.8330  221.3063 H   0  0  0  0  0  0  0  0  0  0  0  0
  139.7640   76.1926  218.5435 H   0  0  0  0  0  0  0  0  0  0  0  0
  140.1310   77.4310  219.8278 H   0  0  0  0  0  0  0  0  0  0  0  0
  141.3664   76.9249  217.2223 H   0  0  0  0  0  0  0  0  0  0  0  0
  141.1592   78.4496  218.2737 H   0  0  0  0  0  0  0  0  0  0  0  0
  143.4637   77.3194  217.5956 H   0  0  0  0  0  0  0  0  0  0  0  0
  143.0599   78.3626  219.0793 H   0  0  0  0  0  0  0  0  0  0  0  0
  144.4206   76.0539  219.1529 H   0  0  0  0  0  0  0  0  0  0  0  0
  143.4651   76.7611  220.4890 H   0  0  0  0  0  0  0  0  0  0  0  0
  142.2308   74.7974  218.4042 H   0  0  0  0  0  0  0  0  0  0  0  0
  145.1668   74.6627  220.4292 H   0  0  0  0  0  0  0  0  0  0  0  0
  145.4650   72.2600  221.3860 H   0  0  0  0  0  0  0  0  0  0  0  0
  143.2068   70.9741  221.1555 H   0  0  0  0  0  0  0  0  0  0  0  0
  138.5135   69.4346  222.3905 H   0  0  0  0  0  0  0  0  0  0  0  0
  138.9500   67.9047  224.2661 H   0  0  0  0  0  0  0  0  0  0  0  0
  139.8536   67.5824  226.5406 H   0  0  0  0  0  0  0  0  0  0  0  0
  141.5677   70.9030  228.6316 H   0  0  0  0  0  0  0  0  0  0  0  0
  141.0714   72.3367  226.6755 H   0  0  0  0  0  0  0  0  0  0  0  0
  1  2  2  0
  2  3  1  0
  3  4  1  0
  4  5  1  0
  5  6  2  0
  5  7  1  0
  7  8  1  0
  8  9  1  0
  9 10  1  0
 10 11  1  0
 11 12  1  0
 12 13  1  0
 13 14  2  0
 14 15  1  0
 15 16  1  0
 16 17  2  0
  2 18  1  0
 18 19  2  0
 19 20  1  0
 20 21  2  0
 21 22  1  0
 22 23  2  0
 23 24  1  0
 23 25  1  0
 25 26  2  0
 26 27  1  0
 27 28  2  0
 12  7  1  0
 17 13  1  0
 28 18  1  0
 27 21  1  0
  3 29  1  0
  4 30  1  0
  4 31  1  0
  8 32  1  0
  8 33  1  0
  9 34  1  0
  9 35  1  0
 10 36  1  0
 10 37  1  0
 11 38  1  0
 11 39  1  0
 12 40  1  6
 14 41  1  0
 15 42  1  0
 16 43  1  0
 19 44  1  0
 20 45  1  0
 22 46  1  0
 25 47  1  0
 26 48  1  0
M  END
>  <smiles>  (34) 
O=C(NCC(=O)N1CCCC[C@H]1c1c[nH]cn1)c1ccc2cc(Cl)ccc2n1

>  <score_type>  (34) 
oracle

>  <origin>  (34) 
autodockgpu

>  <m_score__min__energy>  (34) 
-8.7100000000000009

>  <m_primary>  (34) 
energy

>  <rmsd>  (34) 
2.732720664183692

>  <m_score__min__rmsd>  (34) 
2.732720664183692

>  <meeko>  (34) 
{"free_energy": -7.43, "intermolecular_energy": -8.92, "internal_energy": -2.16, "cluster_size": 17, "cluster_id": 3, "rank_in_cluster": 16}

>  <energy>  (34) 
-7.39

>  <cluster_rmsd>  (34) 
1.69

>  <cluster>  (34) 
3

$$$$

     RDKit          3D

 48 51  0  0  0  0  0  0  0  0999 V2000
  140.3280   74.0900  222.0830 O   0  0  0  0  0  0  0  0  0  0  0  0
  140.2800   72.8670  221.8140 C   0  0  0  0  0  0  0  0  0  0  0  0
  140.3040   72.3680  220.4840 N   0  0  0  0  0  0  0  0  0  0  0  0
  140.3890   73.2420  219.3260 C   0  0  0  0  0  0  0  0  0  0  0  0
  141.8050   73.1950  218.8120 C   0  0  0  0  0  0  0  0  0  0  0  0
  142.3190   72.0510  218.7700 O   0  0  0  0  0  0  0  0  0  0  0  0
  142.4550   74.3900  218.4180 N   0  0  0  0  0  0  0  0  0  0  0  0
  141.7570   75.3090  217.5110 C   0  0  0  0  0  0  0  0  0  0  0  0
  142.2690   76.7030  217.5960 C   0  0  0  0  0  0  0  0  0  0  0  0
  142.9620   77.1140  218.8340 C   0  0  0  0  0  0  0  0  0  0  0  0
  143.5220   76.0400  219.6940 C   0  0  0  0  0  0  0  0  0  0  0  0
  143.7590   74.8140  218.8340 C   0  0  1  0  0  0  0  0  0  0  0  0
  144.6010   73.8870  219.5500 C   0  0  0  0  0  0  0  0  0  0  0  0
  144.6080   73.5500  220.8870 C   0  0  0  0  0  0  0  0  0  0  0  0
  145.5640   72.6410  221.1500 N   0  0  0  0  0  0  0  0  0  0  0  0
  146.1760   72.3930  219.9790 C   0  0  0  0  0  0  0  0  0  0  0  0
  145.6080   73.1320  219.0140 N   0  0  0  0  0  0  0  0  0  0  0  0
  140.1940   71.9050  222.9300 C   0  0  0  0  0  0  0  0  0  0  0  0
  139.6260   70.6710  222.7540 C   0  0  0  0  0  0  0  0  0  0  0  0
  139.5390   69.7710  223.7740 C   0  0  0  0  0  0  0  0  0  0  0  0
  140.0330   70.1150  225.0020 C   0  0  0  0  0  0  0  0  0  0  0  0
  139.9860   69.2590  226.1010 C   0  0  0  0  0  0  0  0  0  0  0  0
  140.4850   69.6200  227.3210 C   0  0  0  0  0  0  0  0  0  0  0  0
  140.4260   68.5390  228.7080 Cl  0  0  0  0  0  0  0  0  0  0  0  0
  141.0550   70.8640  227.4880 C   0  0  0  0  0  0  0  0  0  0  0  0
  141.0990   71.7120  226.3960 C   0  0  0  0  0  0  0  0  0  0  0  0
  140.5990   71.3620  225.1550 C   0  0  0  0  0  0  0  0  0  0  0  0
  140.6680   72.2150  224.1360 N   0  0  0  0  0  0  0  0  0  0  0  0
  140.2580   71.3160  220.3610 H   0  0  0  0  0  0  0  0  0  0  0  0
  139.6963   72.8956  218.5449 H   0  0  0  0  0  0  0  0  0  0  0  0
  140.1160   74.2711  219.6023 H   0  0  0  0  0  0  0  0  0  0  0  0
  141.8857   74.9497  216.4793 H   0  0  0  0  0  0  0  0  0  0  0  0
  140.6980   75.3266  217.8081 H   0  0  0  0  0  0  0  0  0  0  0  0
  142.9750   76.8432  216.7642 H   0  0  0  0  0  0  0  0  0  0  0  0
  141.3652   77.3294  217.5667 H   0  0  0  0  0  0  0  0  0  0  0  0
  143.7947   77.7713  218.5431 H   0  0  0  0  0  0  0  0  0  0  0  0
  142.1821   77.5876  219.4483 H   0  0  0  0  0  0  0  0  0  0  0  0
  144.4729   76.3745  220.1344 H   0  0  0  0  0  0  0  0  0  0  0  0
  142.8203   75.8019  220.5069 H   0  0  0  0  0  0  0  0  0  0  0  0
  144.3356   74.9692  217.9102 H   0  0  0  0  0  0  0  0  0  0  0  0
  143.9228   73.9689  221.6387 H   0  0  0  0  0  0  0  0  0  0  0  0
  145.7910   72.2110  222.0810 H   0  0  0  0  0  0  0  0  0  0  0  0
  147.0122   71.6931  219.8345 H   0  0  0  0  0  0  0  0  0  0  0  0
  139.2300   70.3994  221.7643 H   0  0  0  0  0  0  0  0  0  0  0  0
  139.0793   68.7849  223.6122 H   0  0  0  0  0  0  0  0  0  0  0  0
  139.5338   68.2632  225.9828 H   0  0  0  0  0  0  0  0  0  0  0  0
  141.4631   71.1734  228.4615 H   0  0  0  0  0  0  0  0  0  0  0  0
  141.5510   72.7072  226.5200 H   0  0  0  0  0  0  0  0  0  0  0  0
  1  2  2  0
  2  3  1  0
  3  4  1  0
  4  5  1  0
  5  6  2  0
  5  7  1  0
  7  8  1  0
  8  9  1  0
  9 10  1  0
 10 11  1  0
 11 12  1  0
 12 13  1  0
 13 14  2  0
 14 15  1  0
 15 16  1  0
 16 17  2  0
  2 18  1  0
 18 19  2  0
 19 20  1  0
 20 21  2  0
 21 22  1  0
 22 23  2  0
 23 24  1  0
 23 25  1  0
 25 26  2  0
 26 27  1  0
 27 28  2  0
 12  7  1  0
 17 13  1  0
 28 18  1  0
 27 21  1  0
  3 29  1  0
  4 30  1  0
  4 31  1  0
  8 32  1  0
  8 33  1  0
  9 34  1  0
  9 35  1  0
 10 36  1  0
 10 37  1  0
 11 38  1  0
 11 39  1  0
 12 40  1  6
 14 41  1  0
 15 42  1  0
 16 43  1  0
 19 44  1  0
 20 45  1  0
 22 46  1  0
 25 47  1  0
 26 48  1  0
M  END
>  <smiles>  (35) 
O=C(NCC(=O)N1CCCC[C@H]1c1c[nH]cn1)c1ccc2cc(Cl)ccc2n1

>  <score_type>  (35) 
oracle

>  <origin>  (35) 
autodockgpu

>  <m_score__min__energy>  (35) 
-8.7100000000000009

>  <m_primary>  (35) 
energy

>  <rmsd>  (35) 
3.580909450977284

>  <m_score__min__rmsd>  (35) 
3.580909450977284

>  <meeko>  (35) 
{"free_energy": -7.98, "intermolecular_energy": -9.48, "internal_energy": -1.47, "cluster_size": 17, "cluster_id": 3, "rank_in_cluster": 1}

>  <energy>  (35) 
-7.56

>  <cluster_rmsd>  (35) 
0.0

>  <cluster>  (35) 
4

$$$$

     RDKit          3D

 48 51  0  0  0  0  0  0  0  0999 V2000
  134.8990   68.5060  224.9300 O   0  0  0  0  0  0  0  0  0  0  0  0
  135.4310   69.6340  225.0450 C   0  0  0  0  0  0  0  0  0  0  0  0
  136.7660   69.9030  224.6360 N   0  0  0  0  0  0  0  0  0  0  0  0
  137.6200   68.8840  224.0490 C   0  0  0  0  0  0  0  0  0  0  0  0
  138.8240   68.7180  224.9400 C   0  0  0  0  0  0  0  0  0  0  0  0
  139.3980   67.6060  224.8590 O   0  0  0  0  0  0  0  0  0  0  0  0
  139.2300   69.7790  225.7850 N   0  0  0  0  0  0  0  0  0  0  0  0
  139.1950   69.5780  227.2390 C   0  0  0  0  0  0  0  0  0  0  0  0
  140.1060   70.4970  227.9710 C   0  0  0  0  0  0  0  0  0  0  0  0
  141.2460   71.0770  227.2340 C   0  0  0  0  0  0  0  0  0  0  0  0
  141.1580   71.1070  225.7510 C   0  0  0  0  0  0  0  0  0  0  0  0
  139.6950   71.0640  225.3580 C   0  0  1  0  0  0  0  0  0  0  0  0
  139.5660   71.4290  223.9680 C   0  0  0  0  0  0  0  0  0  0  0  0
  140.5310   71.5360  222.9890 C   0  0  0  0  0  0  0  0  0  0  0  0
  139.9890   71.9110  221.8160 N   0  0  0  0  0  0  0  0  0  0  0  0
  138.6700   72.0460  222.0410 C   0  0  0  0  0  0  0  0  0  0  0  0
  138.4050   71.7610  223.3250 N   0  0  0  0  0  0  0  0  0  0  0  0
  134.6360   70.7310  225.6300 C   0  0  0  0  0  0  0  0  0  0  0  0
  133.5920   70.4680  226.4780 C   0  0  0  0  0  0  0  0  0  0  0  0
  132.8470   71.4690  227.0280 C   0  0  0  0  0  0  0  0  0  0  0  0
  133.1550   72.7650  226.7200 C   0  0  0  0  0  0  0  0  0  0  0  0
  132.4480   73.8510  227.2360 C   0  0  0  0  0  0  0  0  0  0  0  0
  132.7700   75.1410  226.9180 C   0  0  0  0  0  0  0  0  0  0  0  0
  131.8780   76.5110  227.5680 Cl  0  0  0  0  0  0  0  0  0  0  0  0
  133.8230   75.3940  226.0650 C   0  0  0  0  0  0  0  0  0  0  0  0
  134.5220   74.3150  225.5550 C   0  0  0  0  0  0  0  0  0  0  0  0
  134.2100   73.0050  225.8660 C   0  0  0  0  0  0  0  0  0  0  0  0
  134.9150   72.0030  225.3490 N   0  0  0  0  0  0  0  0  0  0  0  0
  137.1250   70.8900  224.7750 H   0  0  0  0  0  0  0  0  0  0  0  0
  137.0726   67.9324  223.9795 H   0  0  0  0  0  0  0  0  0  0  0  0
  137.9310   69.1817  223.0367 H   0  0  0  0  0  0  0  0  0  0  0  0
  138.1671   69.7473  227.5923 H   0  0  0  0  0  0  0  0  0  0  0  0
  139.5318   68.5501  227.4389 H   0  0  0  0  0  0  0  0  0  0  0  0
  139.4966   71.3343  228.3420 H   0  0  0  0  0  0  0  0  0  0  0  0
  140.5710   69.8653  228.7422 H   0  0  0  0  0  0  0  0  0  0  0  0
  141.3678   72.1146  227.5783 H   0  0  0  0  0  0  0  0  0  0  0  0
  142.0914   70.4078  227.4519 H   0  0  0  0  0  0  0  0  0  0  0  0
  141.6181   72.0307  225.3701 H   0  0  0  0  0  0  0  0  0  0  0  0
  141.6899   70.2444  225.3232 H   0  0  0  0  0  0  0  0  0  0  0  0
  139.0367   71.8000  225.8427 H   0  0  0  0  0  0  0  0  0  0  0  0
  141.6021   71.3407  223.1461 H   0  0  0  0  0  0  0  0  0  0  0  0
  140.4900   72.0670  220.9060 H   0  0  0  0  0  0  0  0  0  0  0  0
  137.9243   72.3438  221.2892 H   0  0  0  0  0  0  0  0  0  0  0  0
  133.3489   69.4231  226.7211 H   0  0  0  0  0  0  0  0  0  0  0  0
  132.0132   71.2379  227.7073 H   0  0  0  0  0  0  0  0  0  0  0  0
  131.6063   73.6639  227.9191 H   0  0  0  0  0  0  0  0  0  0  0  0
  134.0994   76.4246  225.7976 H   0  0  0  0  0  0  0  0  0  0  0  0
  135.3627   74.5078  224.8723 H   0  0  0  0  0  0  0  0  0  0  0  0
  1  2  2  0
  2  3  1  0
  3  4  1  0
  4  5  1  0
  5  6  2  0
  5  7  1  0
  7  8  1  0
  8  9  1  0
  9 10  1  0
 10 11  1  0
 11 12  1  0
 12 13  1  0
 13 14  2  0
 14 15  1  0
 15 16  1  0
 16 17  2  0
  2 18  1  0
 18 19  2  0
 19 20  1  0
 20 21  2  0
 21 22  1  0
 22 23  2  0
 23 24  1  0
 23 25  1  0
 25 26  2  0
 26 27  1  0
 27 28  2  0
 12  7  1  0
 17 13  1  0
 28 18  1  0
 27 21  1  0
  3 29  1  0
  4 30  1  0
  4 31  1  0
  8 32  1  0
  8 33  1  0
  9 34  1  0
  9 35  1  0
 10 36  1  0
 10 37  1  0
 11 38  1  0
 11 39  1  0
 12 40  1  1
 14 41  1  0
 15 42  1  0
 16 43  1  0
 19 44  1  0
 20 45  1  0
 22 46  1  0
 25 47  1  0
 26 48  1  0
M  END
>  <smiles>  (36) 
O=C(NCC(=O)N1CCCC[C@H]1c1c[nH]cn1)c1ccc2cc(Cl)ccc2n1

>  <score_type>  (36) 
oracle

>  <origin>  (36) 
autodockgpu

>  <m_score__min__energy>  (36) 
-8.7100000000000009

>  <m_primary>  (36) 
energy

>  <rmsd>  (36) 
8.137086919151258

>  <m_score__min__rmsd>  (36) 
8.137086919151258

>  <meeko>  (36) 
{"free_energy": -7.56, "intermolecular_energy": -9.05, "internal_energy": -2.38, "cluster_size": 7, "cluster_id": 4, "rank_in_cluster": 2}

>  <energy>  (36) 
-7.56

>  <cluster_rmsd>  (36) 
0.09

>  <cluster>  (36) 
4

$$$$

     RDKit          3D

 48 51  0  0  0  0  0  0  0  0999 V2000
  139.8040   72.6150  220.7220 O   0  0  0  0  0  0  0  0  0  0  0  0
  139.7380   72.9690  221.9220 C   0  0  0  0  0  0  0  0  0  0  0  0
  139.5600   74.3220  222.3190 N   0  0  0  0  0  0  0  0  0  0  0  0
  139.4400   75.4050  221.3580 C   0  0  0  0  0  0  0  0  0  0  0  0
  139.8110   76.6880  222.0560 C   0  0  0  0  0  0  0  0  0  0  0  0
  140.8710   76.6440  222.7260 O   0  0  0  0  0  0  0  0  0  0  0  0
  138.9830   77.8290  221.9270 N   0  0  0  0  0  0  0  0  0  0  0  0
  137.6240   77.6610  221.3960 C   0  0  0  0  0  0  0  0  0  0  0  0
  136.7090   78.7630  221.7950 C   0  0  0  0  0  0  0  0  0  0  0  0
  137.0440   79.5420  223.0040 C   0  0  0  0  0  0  0  0  0  0  0  0
  138.4560   79.5170  223.4630 C   0  0  0  0  0  0  0  0  0  0  0  0
  139.3380   79.1710  222.2800 C   0  0  1  0  0  0  0  0  0  0  0  0
  140.7110   79.4690  222.6080 C   0  0  0  0  0  0  0  0  0  0  0  0
  141.8480   79.3650  221.8350 C   0  0  0  0  0  0  0  0  0  0  0  0
  142.9390   79.7400  222.5270 N   0  0  0  0  0  0  0  0  0  0  0  0
  142.5030   80.0860  223.7510 C   0  0  0  0  0  0  0  0  0  0  0  0
  141.1720   79.9280  223.8120 N   0  0  0  0  0  0  0  0  0  0  0  0
  139.8490   71.9330  222.9670 C   0  0  0  0  0  0  0  0  0  0  0  0
  139.4620   70.6420  222.7230 C   0  0  0  0  0  0  0  0  0  0  0  0
  139.5580   69.6720  223.6770 C   0  0  0  0  0  0  0  0  0  0  0  0
  140.0550   70.0050  224.9070 C   0  0  0  0  0  0  0  0  0  0  0  0
  140.1890   69.0800  225.9410 C   0  0  0  0  0  0  0  0  0  0  0  0
  140.6870   69.4300  227.1650 C   0  0  0  0  0  0  0  0  0  0  0  0
  140.8560   68.2620  228.4700 Cl  0  0  0  0  0  0  0  0  0  0  0  0
  141.0750   70.7310  227.4000 C   0  0  0  0  0  0  0  0  0  0  0  0
  140.9400   71.6470  226.3730 C   0  0  0  0  0  0  0  0  0  0  0  0
  140.4380   71.3100  225.1290 C   0  0  0  0  0  0  0  0  0  0  0  0
  140.3300   72.2290  224.1740 N   0  0  0  0  0  0  0  0  0  0  0  0
  139.5170   74.5190  223.3600 H   0  0  0  0  0  0  0  0  0  0  0  0
  140.1201   75.2302  220.5113 H   0  0  0  0  0  0  0  0  0  0  0  0
  138.4114   75.4625  220.9725 H   0  0  0  0  0  0  0  0  0  0  0  0
  137.6773   77.6287  220.2978 H   0  0  0  0  0  0  0  0  0  0  0  0
  137.2188   76.7270  221.8126 H   0  0  0  0  0  0  0  0  0  0  0  0
  136.6626   79.4699  220.9535 H   0  0  0  0  0  0  0  0  0  0  0  0
  135.7656   78.2572  222.0482 H   0  0  0  0  0  0  0  0  0  0  0  0
  136.7805   80.5911  222.8042 H   0  0  0  0  0  0  0  0  0  0  0  0
  136.4760   79.0620  223.8145 H   0  0  0  0  0  0  0  0  0  0  0  0
  138.7356   80.5047  223.8584 H   0  0  0  0  0  0  0  0  0  0  0  0
  138.5812   78.7685  224.2592 H   0  0  0  0  0  0  0  0  0  0  0  0
  139.1923   79.7712  221.3698 H   0  0  0  0  0  0  0  0  0  0  0  0
  141.8613   79.0208  220.7903 H   0  0  0  0  0  0  0  0  0  0  0  0
  143.9320   79.7600  222.1840 H   0  0  0  0  0  0  0  0  0  0  0  0
  143.1388   80.4431  224.5745 H   0  0  0  0  0  0  0  0  0  0  0  0
  139.0633   70.3806  221.7317 H   0  0  0  0  0  0  0  0  0  0  0  0
  139.2415   68.6408  223.4612 H   0  0  0  0  0  0  0  0  0  0  0  0
  139.8850   68.0373  225.7669 H   0  0  0  0  0  0  0  0  0  0  0  0
  141.4807   71.0325  228.3770 H   0  0  0  0  0  0  0  0  0  0  0  0
  141.2449   72.6884  226.5531 H   0  0  0  0  0  0  0  0  0  0  0  0
  1  2  2  0
  2  3  1  0
  3  4  1  0
  4  5  1  0
  5  6  2  0
  5  7  1  0
  7  8  1  0
  8  9  1  0
  9 10  1  0
 10 11  1  0
 11 12  1  0
 12 13  1  0
 13 14  2  0
 14 15  1  0
 15 16  1  0
 16 17  2  0
  2 18  1  0
 18 19  2  0
 19 20  1  0
 20 21  2  0
 21 22  1  0
 22 23  2  0
 23 24  1  0
 23 25  1  0
 25 26  2  0
 26 27  1  0
 27 28  2  0
 12  7  1  0
 17 13  1  0
 28 18  1  0
 27 21  1  0
  3 29  1  0
  4 30  1  0
  4 31  1  0
  8 32  1  0
  8 33  1  0
  9 34  1  0
  9 35  1  0
 10 36  1  0
 10 37  1  0
 11 38  1  0
 11 39  1  0
 12 40  1  6
 14 41  1  0
 15 42  1  0
 16 43  1  0
 19 44  1  0
 20 45  1  0
 22 46  1  0
 25 47  1  0
 26 48  1  0
M  END
>  <smiles>  (37) 
O=C(NCC(=O)N1CCCC[C@H]1c1c[nH]cn1)c1ccc2cc(Cl)ccc2n1

>  <score_type>  (37) 
oracle

>  <origin>  (37) 
autodockgpu

>  <m_score__min__energy>  (37) 
-8.7100000000000009

>  <m_primary>  (37) 
energy

>  <rmsd>  (37) 
3.4160227478888405

>  <m_score__min__rmsd>  (37) 
3.4160227478888405

>  <meeko>  (37) 
{"free_energy": -8.29, "intermolecular_energy": -9.78, "internal_energy": -1.46, "cluster_size": 9, "cluster_id": 2, "rank_in_cluster": 1}

>  <energy>  (37) 
-7.53

>  <cluster_rmsd>  (37) 
0.1

>  <cluster>  (37) 
4

$$$$

     RDKit          3D

 48 51  0  0  0  0  0  0  0  0999 V2000
  141.0760   72.8070  221.0660 O   0  0  0  0  0  0  0  0  0  0  0  0
  140.2580   73.0040  221.9940 C   0  0  0  0  0  0  0  0  0  0  0  0
  139.4140   74.1470  222.0490 N   0  0  0  0  0  0  0  0  0  0  0  0
  139.4340   75.1780  221.0260 C   0  0  0  0  0  0  0  0  0  0  0  0
  140.6350   76.0540  221.2740 C   0  0  0  0  0  0  0  0  0  0  0  0
  141.7460   75.4850  221.1440 O   0  0  0  0  0  0  0  0  0  0  0  0
  140.4590   77.4150  221.6240 N   0  0  0  0  0  0  0  0  0  0  0  0
  139.5230   77.7510  222.7040 C   0  0  0  0  0  0  0  0  0  0  0  0
  139.8090   79.0730  223.3240 C   0  0  0  0  0  0  0  0  0  0  0  0
  141.1770   79.6160  223.2020 C   0  0  0  0  0  0  0  0  0  0  0  0
  142.0290   79.0830  222.1080 C   0  0  0  0  0  0  0  0  0  0  0  0
  141.1260   78.5310  221.0230 C   0  0  1  0  0  0  0  0  0  0  0  0
  141.8970   78.3220  219.8230 C   0  0  0  0  0  0  0  0  0  0  0  0
  142.1760   79.1910  218.7890 C   0  0  0  0  0  0  0  0  0  0  0  0
  142.9330   78.5950  217.8490 N   0  0  0  0  0  0  0  0  0  0  0  0
  143.1430   77.3390  218.2790 C   0  0  0  0  0  0  0  0  0  0  0  0
  142.5280   77.1640  219.4600 N   0  0  0  0  0  0  0  0  0  0  0  0
  140.1690   72.0060  223.0770 C   0  0  0  0  0  0  0  0  0  0  0  0
  139.5810   70.7870  222.8640 C   0  0  0  0  0  0  0  0  0  0  0  0
  139.4910   69.8530  223.8530 C   0  0  0  0  0  0  0  0  0  0  0  0
  140.0030   70.1470  225.0860 C   0  0  0  0  0  0  0  0  0  0  0  0
  139.9550   69.2530  226.1550 C   0  0  0  0  0  0  0  0  0  0  0  0
  140.4720   69.5640  227.3820 C   0  0  0  0  0  0  0  0  0  0  0  0
  140.4120   68.4360  228.7310 Cl  0  0  0  0  0  0  0  0  0  0  0  0
  141.0630   70.7920  227.5850 C   0  0  0  0  0  0  0  0  0  0  0  0
  141.1090   71.6770  226.5230 C   0  0  0  0  0  0  0  0  0  0  0  0
  140.5900   71.3790  225.2760 C   0  0  0  0  0  0  0  0  0  0  0  0
  140.6610   72.2650  224.2880 N   0  0  0  0  0  0  0  0  0  0  0  0
  138.7560   74.2220  222.8760 H   0  0  0  0  0  0  0  0  0  0  0  0
  139.5080   74.7155  220.0307 H   0  0  0  0  0  0  0  0  0  0  0  0
  138.5104   75.7742  221.0651 H   0  0  0  0  0  0  0  0  0  0  0  0
  138.5031   77.7691  222.2923 H   0  0  0  0  0  0  0  0  0  0  0  0
  139.6331   76.9868  223.4875 H   0  0  0  0  0  0  0  0  0  0  0  0
  139.1255   79.8033  222.8664 H   0  0  0  0  0  0  0  0  0  0  0  0
  139.6762   78.9043  224.4029 H   0  0  0  0  0  0  0  0  0  0  0  0
  141.0887   80.7022  223.0521 H   0  0  0  0  0  0  0  0  0  0  0  0
  141.6848   79.3100  224.1285 H   0  0  0  0  0  0  0  0  0  0  0  0
  142.6532   79.8900  221.6967 H   0  0  0  0  0  0  0  0  0  0  0  0
  142.6854   78.2888  222.4933 H   0  0  0  0  0  0  0  0  0  0  0  0
  140.3315   79.2001  220.6609 H   0  0  0  0  0  0  0  0  0  0  0  0
  141.8263   80.2328  218.7391 H   0  0  0  0  0  0  0  0  0  0  0  0
  143.2900   79.0220  216.9580 H   0  0  0  0  0  0  0  0  0  0  0  0
  143.7273   76.5739  217.7468 H   0  0  0  0  0  0  0  0  0  0  0  0
  139.1711   70.5560  221.8697 H   0  0  0  0  0  0  0  0  0  0  0  0
  139.0148   68.8799  223.6622 H   0  0  0  0  0  0  0  0  0  0  0  0
  139.4874   68.2684  226.0068 H   0  0  0  0  0  0  0  0  0  0  0  0
  141.4863   71.0610  228.5640 H   0  0  0  0  0  0  0  0  0  0  0  0
  141.5784   72.6599  226.6767 H   0  0  0  0  0  0  0  0  0  0  0  0
  1  2  2  0
  2  3  1  0
  3  4  1  0
  4  5  1  0
  5  6  2  0
  5  7  1  0
  7  8  1  0
  8  9  1  0
  9 10  1  0
 10 11  1  0
 11 12  1  0
 12 13  1  0
 13 14  2  0
 14 15  1  0
 15 16  1  0
 16 17  2  0
  2 18  1  0
 18 19  2  0
 19 20  1  0
 20 21  2  0
 21 22  1  0
 22 23  2  0
 23 24  1  0
 23 25  1  0
 25 26  2  0
 26 27  1  0
 27 28  2  0
 12  7  1  0
 17 13  1  0
 28 18  1  0
 27 21  1  0
  3 29  1  0
  4 30  1  0
  4 31  1  0
  8 32  1  0
  8 33  1  0
  9 34  1  0
  9 35  1  0
 10 36  1  0
 10 37  1  0
 11 38  1  0
 11 39  1  0
 12 40  1  6
 14 41  1  0
 15 42  1  0
 16 43  1  0
 19 44  1  0
 20 45  1  0
 22 46  1  0
 25 47  1  0
 26 48  1  0
M  END
>  <smiles>  (38) 
O=C(NCC(=O)N1CCCC[C@H]1c1c[nH]cn1)c1ccc2cc(Cl)ccc2n1

>  <score_type>  (38) 
oracle

>  <origin>  (38) 
autodockgpu

>  <m_score__min__energy>  (38) 
-8.7100000000000009

>  <m_primary>  (38) 
energy

>  <rmsd>  (38) 
3.4038590071136876

>  <m_score__min__rmsd>  (38) 
3.4038590071136876

>  <meeko>  (38) 
{"free_energy": -8.68, "intermolecular_energy": -10.17, "internal_energy": -0.94, "cluster_size": 8, "cluster_id": 1, "rank_in_cluster": 4}

>  <energy>  (38) 
-7.52

>  <cluster_rmsd>  (38) 
0.7

>  <cluster>  (38) 
4

$$$$

     RDKit          3D

 48 51  0  0  0  0  0  0  0  0999 V2000
  139.5860   72.0310  220.4850 O   0  0  0  0  0  0  0  0  0  0  0  0
  140.0580   72.4430  221.5700 C   0  0  0  0  0  0  0  0  0  0  0  0
  140.6500   73.7270  221.7160 N   0  0  0  0  0  0  0  0  0  0  0  0
  140.7520   74.6670  220.6120 C   0  0  0  0  0  0  0  0  0  0  0  0
  141.1440   76.0070  221.1780 C   0  0  0  0  0  0  0  0  0  0  0  0
  140.9110   76.1580  222.4020 O   0  0  0  0  0  0  0  0  0  0  0  0
  141.7300   76.9860  220.3400 N   0  0  0  0  0  0  0  0  0  0  0  0
  142.2840   76.5680  219.0460 C   0  0  0  0  0  0  0  0  0  0  0  0
  142.3720   77.6850  218.0680 C   0  0  0  0  0  0  0  0  0  0  0  0
  141.4830   78.8480  218.2610 C   0  0  0  0  0  0  0  0  0  0  0  0
  140.9230   79.0630  219.6210 C   0  0  0  0  0  0  0  0  0  0  0  0
  141.8340   78.3860  220.6250 C   0  0  1  0  0  0  0  0  0  0  0  0
  141.5120   78.8560  221.9500 C   0  0  0  0  0  0  0  0  0  0  0  0
  142.3390   79.3280  222.9470 C   0  0  0  0  0  0  0  0  0  0  0  0
  141.6350   79.6620  224.0420 N   0  0  0  0  0  0  0  0  0  0  0  0
  140.3480   79.4040  223.7510 C   0  0  0  0  0  0  0  0  0  0  0  0
  140.2610   78.9210  222.5020 N   0  0  0  0  0  0  0  0  0  0  0  0
  139.9960   71.5540  222.7460 C   0  0  0  0  0  0  0  0  0  0  0  0
  139.3700   70.3370  222.6770 C   0  0  0  0  0  0  0  0  0  0  0  0
  139.3040   69.5040  223.7540 C   0  0  0  0  0  0  0  0  0  0  0  0
  139.8790   69.8990  224.9300 C   0  0  0  0  0  0  0  0  0  0  0  0
  139.8600   69.1120  226.0800 C   0  0  0  0  0  0  0  0  0  0  0  0
  140.4410   69.5220  227.2480 C   0  0  0  0  0  0  0  0  0  0  0  0
  140.4160   68.5290  228.7000 Cl  0  0  0  0  0  0  0  0  0  0  0  0
  141.0690   70.7480  227.3070 C   0  0  0  0  0  0  0  0  0  0  0  0
  141.0860   71.5270  226.1640 C   0  0  0  0  0  0  0  0  0  0  0  0
  140.5040   71.1260  224.9750 C   0  0  0  0  0  0  0  0  0  0  0  0
  140.5490   71.9130  223.9040 N   0  0  0  0  0  0  0  0  0  0  0  0
  141.0210   73.9820  222.6760 H   0  0  0  0  0  0  0  0  0  0  0  0
  141.5166   74.3245  219.8992 H   0  0  0  0  0  0  0  0  0  0  0  0
  139.7906   74.7415  220.0828 H   0  0  0  0  0  0  0  0  0  0  0  0
  143.2940   76.1644  219.2102 H   0  0  0  0  0  0  0  0  0  0  0  0
  141.6055   75.8118  218.6244 H   0  0  0  0  0  0  0  0  0  0  0  0
  143.4068   78.0574  218.0893 H   0  0  0  0  0  0  0  0  0  0  0  0
  142.0426   77.2428  217.1162 H   0  0  0  0  0  0  0  0  0  0  0  0
  142.0552   79.7486  217.9937 H   0  0  0  0  0  0  0  0  0  0  0  0
  140.6086   78.6419  217.6262 H   0  0  0  0  0  0  0  0  0  0  0  0
  140.8699   80.1407  219.8350 H   0  0  0  0  0  0  0  0  0  0  0  0
  139.9097   78.6397  219.6841 H   0  0  0  0  0  0  0  0  0  0  0  0
  142.9044   78.6302  220.5568 H   0  0  0  0  0  0  0  0  0  0  0  0
  143.4316   79.4192  222.8579 H   0  0  0  0  0  0  0  0  0  0  0  0
  142.0090   80.0470  224.9450 H   0  0  0  0  0  0  0  0  0  0  0  0
  139.4983   79.5640  224.4311 H   0  0  0  0  0  0  0  0  0  0  0  0
  138.9090   70.0243  221.7285 H   0  0  0  0  0  0  0  0  0  0  0  0
  138.7969   68.5308  223.6783 H   0  0  0  0  0  0  0  0  0  0  0  0
  139.3626   68.1314  226.0471 H   0  0  0  0  0  0  0  0  0  0  0  0
  141.5430   71.0967  228.2364 H   0  0  0  0  0  0  0  0  0  0  0  0
  141.5836   72.5073  226.2023 H   0  0  0  0  0  0  0  0  0  0  0  0
  1  2  2  0
  2  3  1  0
  3  4  1  0
  4  5  1  0
  5  6  2  0
  5  7  1  0
  7  8  1  0
  8  9  1  0
  9 10  1  0
 10 11  1  0
 11 12  1  0
 12 13  1  0
 13 14  2  0
 14 15  1  0
 15 16  1  0
 16 17  2  0
  2 18  1  0
 18 19  2  0
 19 20  1  0
 20 21  2  0
 21 22  1  0
 22 23  2  0
 23 24  1  0
 23 25  1  0
 25 26  2  0
 26 27  1  0
 27 28  2  0
 12  7  1  0
 17 13  1  0
 28 18  1  0
 27 21  1  0
  3 29  1  0
  4 30  1  0
  4 31  1  0
  8 32  1  0
  8 33  1  0
  9 34  1  0
  9 35  1  0
 10 36  1  0
 10 37  1  0
 11 38  1  0
 11 39  1  0
 12 40  1  6
 14 41  1  0
 15 42  1  0
 16 43  1  0
 19 44  1  0
 20 45  1  0
 22 46  1  0
 25 47  1  0
 26 48  1  0
M  END
>  <smiles>  (39) 
O=C(NCC(=O)N1CCCC[C@H]1c1c[nH]cn1)c1ccc2cc(Cl)ccc2n1

>  <score_type>  (39) 
oracle

>  <origin>  (39) 
autodockgpu

>  <m_score__min__energy>  (39) 
-8.7100000000000009

>  <m_primary>  (39) 
energy

>  <rmsd>  (39) 
2.235412429960915

>  <m_score__min__rmsd>  (39) 
2.235412429960915

>  <meeko>  (39) 
{"free_energy": -7.2, "intermolecular_energy": -8.7, "internal_energy": -1.96, "cluster_size": 1, "cluster_id": 5, "rank_in_cluster": 1}

>  <energy>  (39) 
-7.52

>  <cluster_rmsd>  (39) 
0.1

>  <cluster>  (39) 
4

$$$$

     RDKit          3D

 48 51  0  0  0  0  0  0  0  0999 V2000
  138.9890   71.4310  220.9100 O   0  0  0  0  0  0  0  0  0  0  0  0
  139.3070   71.9460  222.0080 C   0  0  0  0  0  0  0  0  0  0  0  0
  139.4900   73.3460  222.1790 N   0  0  0  0  0  0  0  0  0  0  0  0
  139.3190   74.2920  221.0890 C   0  0  0  0  0  0  0  0  0  0  0  0
  140.4310   75.3050  221.1760 C   0  0  0  0  0  0  0  0  0  0  0  0
  140.6910   75.7130  222.3340 O   0  0  0  0  0  0  0  0  0  0  0  0
  141.0970   75.7280  220.0010 N   0  0  0  0  0  0  0  0  0  0  0  0
  140.5270   76.8350  219.2240 C   0  0  0  0  0  0  0  0  0  0  0  0
  141.5340   77.5190  218.3700 C   0  0  0  0  0  0  0  0  0  0  0  0
  142.9570   77.4090  218.7490 C   0  0  0  0  0  0  0  0  0  0  0  0
  143.3440   76.2780  219.6320 C   0  0  0  0  0  0  0  0  0  0  0  0
  142.3130   75.1780  219.4790 C   0  0  1  0  0  0  0  0  0  0  0  0
  142.8310   73.9590  220.0500 C   0  0  0  0  0  0  0  0  0  0  0  0
  144.1160   73.6390  220.4340 C   0  0  0  0  0  0  0  0  0  0  0  0
  144.1770   72.3850  220.9190 N   0  0  0  0  0  0  0  0  0  0  0  0
  142.9270   71.8960  220.8470 C   0  0  0  0  0  0  0  0  0  0  0  0
  142.1130   72.8280  220.3280 N   0  0  0  0  0  0  0  0  0  0  0  0
  139.5000   71.0590  223.1710 C   0  0  0  0  0  0  0  0  0  0  0  0
  139.0870   69.7530  223.1370 C   0  0  0  0  0  0  0  0  0  0  0  0
  139.2580   68.9200  224.2020 C   0  0  0  0  0  0  0  0  0  0  0  0
  139.8580   69.4070  225.3300 C   0  0  0  0  0  0  0  0  0  0  0  0
  140.0740   68.6270  226.4650 C   0  0  0  0  0  0  0  0  0  0  0  0
  140.6760   69.1300  227.5850 C   0  0  0  0  0  0  0  0  0  0  0  0
  140.9480   68.1460  229.0180 Cl  0  0  0  0  0  0  0  0  0  0  0  0
  141.0890   70.4450  227.6090 C   0  0  0  0  0  0  0  0  0  0  0  0
  140.8740   71.2160  226.4810 C   0  0  0  0  0  0  0  0  0  0  0  0
  140.2660   70.7230  225.3410 C   0  0  0  0  0  0  0  0  0  0  0  0
  140.0840   71.5070  224.2820 N   0  0  0  0  0  0  0  0  0  0  0  0
  139.7590   73.6830  223.1470 H   0  0  0  0  0  0  0  0  0  0  0  0
  139.3686   73.7644  220.1251 H   0  0  0  0  0  0  0  0  0  0  0  0
  138.3408   74.7896  221.1635 H   0  0  0  0  0  0  0  0  0  0  0  0
  139.7305   76.4372  218.5779 H   0  0  0  0  0  0  0  0  0  0  0  0
  140.1409   77.5766  219.9388 H   0  0  0  0  0  0  0  0  0  0  0  0
  141.4338   77.1086  217.3544 H   0  0  0  0  0  0  0  0  0  0  0  0
  141.3037   78.5891  218.4789 H   0  0  0  0  0  0  0  0  0  0  0  0
  143.5396   77.3170  217.8205 H   0  0  0  0  0  0  0  0  0  0  0  0
  143.1606   78.3121  219.3430 H   0  0  0  0  0  0  0  0  0  0  0  0
  144.3354   75.9012  219.3403 H   0  0  0  0  0  0  0  0  0  0  0  0
  143.3870   76.6131  220.6788 H   0  0  0  0  0  0  0  0  0  0  0  0
  142.0849   74.8620  218.4504 H   0  0  0  0  0  0  0  0  0  0  0  0
  144.9773   74.3186  220.3545 H   0  0  0  0  0  0  0  0  0  0  0  0
  145.0270   71.8860  221.2810 H   0  0  0  0  0  0  0  0  0  0  0  0
  142.6193   70.8887  221.1641 H   0  0  0  0  0  0  0  0  0  0  0  0
  138.6050   69.3669  222.2267 H   0  0  0  0  0  0  0  0  0  0  0  0
  138.9193   67.8745  224.1550 H   0  0  0  0  0  0  0  0  0  0  0  0
  139.7506   67.5756  226.4595 H   0  0  0  0  0  0  0  0  0  0  0  0
  141.5756   70.8690  228.4997 H   0  0  0  0  0  0  0  0  0  0  0  0
  141.2006   72.2663  226.4912 H   0  0  0  0  0  0  0  0  0  0  0  0
  1  2  2  0
  2  3  1  0
  3  4  1  0
  4  5  1  0
  5  6  2  0
  5  7  1  0
  7  8  1  0
  8  9  1  0
  9 10  1  0
 10 11  1  0
 11 12  1  0
 12 13  1  0
 13 14  2  0
 14 15  1  0
 15 16  1  0
 16 17  2  0
  2 18  1  0
 18 19  2  0
 19 20  1  0
 20 21  2  0
 21 22  1  0
 22 23  2  0
 23 24  1  0
 23 25  1  0
 25 26  2  0
 26 27  1  0
 27 28  2  0
 12  7  1  0
 17 13  1  0
 28 18  1  0
 27 21  1  0
  3 29  1  0
  4 30  1  0
  4 31  1  0
  8 32  1  0
  8 33  1  0
  9 34  1  0
  9 35  1  0
 10 36  1  0
 10 37  1  0
 11 38  1  0
 11 39  1  0
 12 40  1  6
 14 41  1  0
 15 42  1  0
 16 43  1  0
 19 44  1  0
 20 45  1  0
 22 46  1  0
 25 47  1  0
 26 48  1  0
M  END
>  <smiles>  (40) 
O=C(NCC(=O)N1CCCC[C@H]1c1c[nH]cn1)c1ccc2cc(Cl)ccc2n1

>  <score_type>  (40) 
oracle

>  <origin>  (40) 
autodockgpu

>  <m_score__min__energy>  (40) 
-8.7100000000000009

>  <m_primary>  (40) 
energy

>  <rmsd>  (40) 
2.719402810351042

>  <m_score__min__rmsd>  (40) 
2.719402810351042

>  <meeko>  (40) 
{"free_energy": -7.64, "intermolecular_energy": -9.13, "internal_energy": -2.18, "cluster_size": 17, "cluster_id": 3, "rank_in_cluster": 9}

>  <energy>  (40) 
-7.5

>  <cluster_rmsd>  (40) 
0.13

>  <cluster>  (40) 
4

$$$$

     RDKit          3D

 48 51  0  0  0  0  0  0  0  0999 V2000
  140.7910   72.6830  220.8750 O   0  0  0  0  0  0  0  0  0  0  0  0
  140.1690   72.9760  221.9220 C   0  0  0  0  0  0  0  0  0  0  0  0
  139.5160   74.2250  222.1080 N   0  0  0  0  0  0  0  0  0  0  0  0
  139.5200   75.2640  221.0920 C   0  0  0  0  0  0  0  0  0  0  0  0
  140.7180   76.1450  221.3330 C   0  0  0  0  0  0  0  0  0  0  0  0
  141.8300   75.5730  221.2320 O   0  0  0  0  0  0  0  0  0  0  0  0
  140.5380   77.5140  221.6480 N   0  0  0  0  0  0  0  0  0  0  0  0
  139.6440   77.8730  222.7560 C   0  0  0  0  0  0  0  0  0  0  0  0
  139.9370   79.2170  223.3210 C   0  0  0  0  0  0  0  0  0  0  0  0
  141.2910   79.7730  223.1240 C   0  0  0  0  0  0  0  0  0  0  0  0
  142.1040   79.2170  222.0120 C   0  0  0  0  0  0  0  0  0  0  0  0
  141.1630   78.6190  220.9850 C   0  0  1  0  0  0  0  0  0  0  0  0
  141.8860   78.3820  219.7590 C   0  0  0  0  0  0  0  0  0  0  0  0
  142.2770   79.2670  218.7770 C   0  0  0  0  0  0  0  0  0  0  0  0
  142.9320   78.6340  217.7880 N   0  0  0  0  0  0  0  0  0  0  0  0
  142.9650   77.3350  218.1350 C   0  0  0  0  0  0  0  0  0  0  0  0
  142.3420   77.1720  219.3120 N   0  0  0  0  0  0  0  0  0  0  0  0
  140.1130   71.9790  223.0090 C   0  0  0  0  0  0  0  0  0  0  0  0
  139.5590   70.7430  222.8020 C   0  0  0  0  0  0  0  0  0  0  0  0
  139.4990   69.8100  223.7940 C   0  0  0  0  0  0  0  0  0  0  0  0
  140.0070   70.1230  225.0250 C   0  0  0  0  0  0  0  0  0  0  0  0
  139.9890   69.2320  226.0970 C   0  0  0  0  0  0  0  0  0  0  0  0
  140.5010   69.5620  227.3200 C   0  0  0  0  0  0  0  0  0  0  0  0
  140.4780   68.4370  228.6740 Cl  0  0  0  0  0  0  0  0  0  0  0  0
  141.0570   70.8070  227.5180 C   0  0  0  0  0  0  0  0  0  0  0  0
  141.0730   71.6890  226.4530 C   0  0  0  0  0  0  0  0  0  0  0  0
  140.5600   71.3720  225.2090 C   0  0  0  0  0  0  0  0  0  0  0  0
  140.6010   72.2570  224.2170 N   0  0  0  0  0  0  0  0  0  0  0  0
  139.0170   74.3770  223.0310 H   0  0  0  0  0  0  0  0  0  0  0  0
  139.5861   74.8089  220.0927 H   0  0  0  0  0  0  0  0  0  0  0  0
  138.5937   75.8549  221.1456 H   0  0  0  0  0  0  0  0  0  0  0  0
  138.6074   77.8649  222.3879 H   0  0  0  0  0  0  0  0  0  0  0  0
  139.7982   77.1360  223.5579 H   0  0  0  0  0  0  0  0  0  0  0  0
  139.2247   79.9236  222.8700 H   0  0  0  0  0  0  0  0  0  0  0  0
  139.8519   79.0815  224.4093 H   0  0  0  0  0  0  0  0  0  0  0  0
  141.1812   80.8527  222.9445 H   0  0  0  0  0  0  0  0  0  0  0  0
  141.8414   79.5023  224.0371 H   0  0  0  0  0  0  0  0  0  0  0  0
  142.6983   80.0186  221.5492 H   0  0  0  0  0  0  0  0  0  0  0  0
  142.7883   78.4447  222.3931 H   0  0  0  0  0  0  0  0  0  0  0  0
  140.3439   79.2658  220.6376 H   0  0  0  0  0  0  0  0  0  0  0  0
  142.0791   80.3488  218.7996 H   0  0  0  0  0  0  0  0  0  0  0  0
  143.3380   79.0630  216.9200 H   0  0  0  0  0  0  0  0  0  0  0  0
  143.4304   76.5313  217.5455 H   0  0  0  0  0  0  0  0  0  0  0  0
  139.1523   70.4973  221.8099 H   0  0  0  0  0  0  0  0  0  0  0  0
  139.0501   68.8231  223.6080 H   0  0  0  0  0  0  0  0  0  0  0  0
  139.5496   68.2338  225.9540 H   0  0  0  0  0  0  0  0  0  0  0  0
  141.4759   71.0911  228.4946 H   0  0  0  0  0  0  0  0  0  0  0  0
  141.5130   72.6861  226.6022 H   0  0  0  0  0  0  0  0  0  0  0  0
  1  2  2  0
  2  3  1  0
  3  4  1  0
  4  5  1  0
  5  6  2  0
  5  7  1  0
  7  8  1  0
  8  9  1  0
  9 10  1  0
 10 11  1  0
 11 12  1  0
 12 13  1  0
 13 14  2  0
 14 15  1  0
 15 16  1  0
 16 17  2  0
  2 18  1  0
 18 19  2  0
 19 20  1  0
 20 21  2  0
 21 22  1  0
 22 23  2  0
 23 24  1  0
 23 25  1  0
 25 26  2  0
 26 27  1  0
 27 28  2  0
 12  7  1  0
 17 13  1  0
 28 18  1  0
 27 21  1  0
  3 29  1  0
  4 30  1  0
  4 31  1  0
  8 32  1  0
  8 33  1  0
  9 34  1  0
  9 35  1  0
 10 36  1  0
 10 37  1  0
 11 38  1  0
 11 39  1  0
 12 40  1  6
 14 41  1  0
 15 42  1  0
 16 43  1  0
 19 44  1  0
 20 45  1  0
 22 46  1  0
 25 47  1  0
 26 48  1  0
M  END
>  <smiles>  (41) 
O=C(NCC(=O)N1CCCC[C@H]1c1c[nH]cn1)c1ccc2cc(Cl)ccc2n1

>  <score_type>  (41) 
oracle

>  <origin>  (41) 
autodockgpu

>  <m_score__min__energy>  (41) 
-8.7100000000000009

>  <m_primary>  (41) 
energy

>  <rmsd>  (41) 
3.4366499775640857

>  <m_score__min__rmsd>  (41) 
3.4366499775640857

>  <meeko>  (41) 
{"free_energy": -8.71, "intermolecular_energy": -10.2, "internal_energy": -0.99, "cluster_size": 8, "cluster_id": 1, "rank_in_cluster": 1}

>  <energy>  (41) 
-6.44

>  <cluster_rmsd>  (41) 
1.0

>  <cluster>  (41) 
4

$$$$

     RDKit          3D

 48 51  0  0  0  0  0  0  0  0999 V2000
  134.9190   68.4910  224.9640 O   0  0  0  0  0  0  0  0  0  0  0  0
  135.4400   69.6270  225.0450 C   0  0  0  0  0  0  0  0  0  0  0  0
  136.7620   69.9030  224.5990 N   0  0  0  0  0  0  0  0  0  0  0  0
  137.6140   68.8820  224.0120 C   0  0  0  0  0  0  0  0  0  0  0  0
  138.8030   68.6920  224.9180 C   0  0  0  0  0  0  0  0  0  0  0  0
  139.3580   67.5700  224.8400 O   0  0  0  0  0  0  0  0  0  0  0  0
  139.2160   69.7430  225.7730 N   0  0  0  0  0  0  0  0  0  0  0  0
  139.1670   69.5330  227.2250 C   0  0  0  0  0  0  0  0  0  0  0  0
  140.0840   70.4370  227.9690 C   0  0  0  0  0  0  0  0  0  0  0  0
  141.2380   71.0060  227.2450 C   0  0  0  0  0  0  0  0  0  0  0  0
  141.1620   71.0450  225.7620 C   0  0  0  0  0  0  0  0  0  0  0  0
  139.7020   71.0240  225.3570 C   0  0  1  0  0  0  0  0  0  0  0  0
  139.5890   71.3990  223.9680 C   0  0  0  0  0  0  0  0  0  0  0  0
  140.5600   71.4820  222.9930 C   0  0  0  0  0  0  0  0  0  0  0  0
  140.0330   71.8780  221.8200 N   0  0  0  0  0  0  0  0  0  0  0  0
  138.7180   72.0500  222.0400 C   0  0  0  0  0  0  0  0  0  0  0  0
  138.4400   71.7660  223.3220 N   0  0  0  0  0  0  0  0  0  0  0  0
  134.6460   70.7260  225.6280 C   0  0  0  0  0  0  0  0  0  0  0  0
  133.5940   70.4660  226.4660 C   0  0  0  0  0  0  0  0  0  0  0  0
  132.8500   71.4680  227.0140 C   0  0  0  0  0  0  0  0  0  0  0  0
  133.1680   72.7640  226.7140 C   0  0  0  0  0  0  0  0  0  0  0  0
  132.4630   73.8520  227.2280 C   0  0  0  0  0  0  0  0  0  0  0  0
  132.7940   75.1410  226.9180 C   0  0  0  0  0  0  0  0  0  0  0  0
  131.9040   76.5130  227.5660 Cl  0  0  0  0  0  0  0  0  0  0  0  0
  133.8550   75.3920  226.0740 C   0  0  0  0  0  0  0  0  0  0  0  0
  134.5520   74.3110  225.5650 C   0  0  0  0  0  0  0  0  0  0  0  0
  134.2300   73.0010  225.8690 C   0  0  0  0  0  0  0  0  0  0  0  0
  134.9340   71.9970  225.3540 N   0  0  0  0  0  0  0  0  0  0  0  0
  137.1120   70.8970  224.7120 H   0  0  0  0  0  0  0  0  0  0  0  0
  137.0576   67.9373  223.9228 H   0  0  0  0  0  0  0  0  0  0  0  0
  137.9430   69.1889  223.0082 H   0  0  0  0  0  0  0  0  0  0  0  0
  138.1386   69.7126  227.5716 H   0  0  0  0  0  0  0  0  0  0  0  0
  139.4890   68.4997  227.4214 H   0  0  0  0  0  0  0  0  0  0  0  0
  139.4823   71.2803  228.3388 H   0  0  0  0  0  0  0  0  0  0  0  0
  140.5343   69.7953  228.7407 H   0  0  0  0  0  0  0  0  0  0  0  0
  141.3707   72.0400  227.5960 H   0  0  0  0  0  0  0  0  0  0  0  0
  142.0730   70.3250  227.4664 H   0  0  0  0  0  0  0  0  0  0  0  0
  141.6376   71.9644  225.3897 H   0  0  0  0  0  0  0  0  0  0  0  0
  141.6854   70.1774  225.3339 H   0  0  0  0  0  0  0  0  0  0  0  0
  139.0497   71.7661  225.8406 H   0  0  0  0  0  0  0  0  0  0  0  0
  141.6243   71.2547  223.1527 H   0  0  0  0  0  0  0  0  0  0  0  0
  140.5420   72.0240  220.9130 H   0  0  0  0  0  0  0  0  0  0  0  0
  137.9843   72.3731  221.2868 H   0  0  0  0  0  0  0  0  0  0  0  0
  133.3432   69.4215  226.7028 H   0  0  0  0  0  0  0  0  0  0  0  0
  132.0093   71.2386  227.6852 H   0  0  0  0  0  0  0  0  0  0  0  0
  131.6148   73.6669  227.9034 H   0  0  0  0  0  0  0  0  0  0  0  0
  134.1390   76.4221  225.8130 H   0  0  0  0  0  0  0  0  0  0  0  0
  135.3988   74.5016  224.8893 H   0  0  0  0  0  0  0  0  0  0  0  0
  1  2  2  0
  2  3  1  0
  3  4  1  0
  4  5  1  0
  5  6  2  0
  5  7  1  0
  7  8  1  0
  8  9  1  0
  9 10  1  0
 10 11  1  0
 11 12  1  0
 12 13  1  0
 13 14  2  0
 14 15  1  0
 15 16  1  0
 16 17  2  0
  2 18  1  0
 18 19  2  0
 19 20  1  0
 20 21  2  0
 21 22  1  0
 22 23  2  0
 23 24  1  0
 23 25  1  0
 25 26  2  0
 26 27  1  0
 27 28  2  0
 12  7  1  0
 17 13  1  0
 28 18  1  0
 27 21  1  0
  3 29  1  0
  4 30  1  0
  4 31  1  0
  8 32  1  0
  8 33  1  0
  9 34  1  0
  9 35  1  0
 10 36  1  0
 10 37  1  0
 11 38  1  0
 11 39  1  0
 12 40  1  1
 14 41  1  0
 15 42  1  0
 16 43  1  0
 19 44  1  0
 20 45  1  0
 22 46  1  0
 25 47  1  0
 26 48  1  0
M  END
>  <smiles>  (42) 
O=C(NCC(=O)N1CCCC[C@H]1c1c[nH]cn1)c1ccc2cc(Cl)ccc2n1

>  <score_type>  (42) 
oracle

>  <origin>  (42) 
autodockgpu

>  <m_score__min__energy>  (42) 
-8.7100000000000009

>  <m_primary>  (42) 
energy

>  <rmsd>  (42) 
8.138855597892693

>  <m_score__min__rmsd>  (42) 
8.138855597892693

>  <meeko>  (42) 
{"free_energy": -7.53, "intermolecular_energy": -9.02, "internal_energy": -2.4, "cluster_size": 7, "cluster_id": 4, "rank_in_cluster": 3}

>  <energy>  (42) 
-7.2

>  <cluster_rmsd>  (42) 
0.0

>  <cluster>  (42) 
5

$$$$

     RDKit          3D

 48 51  0  0  0  0  0  0  0  0999 V2000
  139.7880   72.0090  220.8170 O   0  0  0  0  0  0  0  0  0  0  0  0
  139.7360   72.4410  221.9920 C   0  0  0  0  0  0  0  0  0  0  0  0
  139.5780   73.8200  222.3010 N   0  0  0  0  0  0  0  0  0  0  0  0
  139.4640   74.8390  221.2710 C   0  0  0  0  0  0  0  0  0  0  0  0
  140.8110   75.4990  221.1200 C   0  0  0  0  0  0  0  0  0  0  0  0
  141.3880   75.7850  222.1970 O   0  0  0  0  0  0  0  0  0  0  0  0
  141.3340   75.7510  219.8290 N   0  0  0  0  0  0  0  0  0  0  0  0
  140.6650   76.7400  218.9740 C   0  0  0  0  0  0  0  0  0  0  0  0
  141.5600   77.2940  217.9250 C   0  0  0  0  0  0  0  0  0  0  0  0
  143.0180   77.2360  218.1520 C   0  0  0  0  0  0  0  0  0  0  0  0
  143.5170   76.2400  219.1340 C   0  0  0  0  0  0  0  0  0  0  0  0
  142.4910   75.1310  219.2550 C   0  0  1  0  0  0  0  0  0  0  0  0
  143.0880   74.0030  219.9280 C   0  0  0  0  0  0  0  0  0  0  0  0
  144.3490   73.8590  220.4650 C   0  0  0  0  0  0  0  0  0  0  0  0
  144.5090   72.6370  221.0030 N   0  0  0  0  0  0  0  0  0  0  0  0
  143.3460   71.9900  220.8120 C   0  0  0  0  0  0  0  0  0  0  0  0
  142.4870   72.7970  220.1690 N   0  0  0  0  0  0  0  0  0  0  0  0
  139.8420   71.4750  223.1020 C   0  0  0  0  0  0  0  0  0  0  0  0
  139.4440   70.1730  222.9430 C   0  0  0  0  0  0  0  0  0  0  0  0
  139.5360   69.2670  223.9570 C   0  0  0  0  0  0  0  0  0  0  0  0
  140.0400   69.6750  225.1620 C   0  0  0  0  0  0  0  0  0  0  0  0
  140.1700   68.8180  226.2540 C   0  0  0  0  0  0  0  0  0  0  0  0
  140.6750   69.2430  227.4510 C   0  0  0  0  0  0  0  0  0  0  0  0
  140.8390   68.1620  228.8290 Cl  0  0  0  0  0  0  0  0  0  0  0  0
  141.0740   70.5540  227.6000 C   0  0  0  0  0  0  0  0  0  0  0  0
  140.9430   71.4020  226.5150 C   0  0  0  0  0  0  0  0  0  0  0  0
  140.4340   70.9890  225.2980 C   0  0  0  0  0  0  0  0  0  0  0  0
  140.3300   71.8450  224.2850 N   0  0  0  0  0  0  0  0  0  0  0  0
  139.5460   74.0850  223.3260 H   0  0  0  0  0  0  0  0  0  0  0  0
  139.1660   74.3760  220.3187 H   0  0  0  0  0  0  0  0  0  0  0  0
  138.7027   75.5822  221.5503 H   0  0  0  0  0  0  0  0  0  0  0  0
  139.8062   76.2576  218.4843 H   0  0  0  0  0  0  0  0  0  0  0  0
  140.3517   77.5757  219.6171 H   0  0  0  0  0  0  0  0  0  0  0  0
  141.3523   76.7444  216.9950 H   0  0  0  0  0  0  0  0  0  0  0  0
  141.3286   78.3693  217.9083 H   0  0  0  0  0  0  0  0  0  0  0  0
  143.4939   77.0137  217.1855 H   0  0  0  0  0  0  0  0  0  0  0  0
  143.2744   78.2132  218.5870 H   0  0  0  0  0  0  0  0  0  0  0  0
  144.4744   75.8240  218.7872 H   0  0  0  0  0  0  0  0  0  0  0  0
  143.6725   76.7190  220.1119 H   0  0  0  0  0  0  0  0  0  0  0  0
  142.1525   74.6735  218.3137 H   0  0  0  0  0  0  0  0  0  0  0  0
  145.1228   74.6408  220.4549 H   0  0  0  0  0  0  0  0  0  0  0  0
  145.3670   72.2600  221.4770 H   0  0  0  0  0  0  0  0  0  0  0  0
  143.1316   70.9598  221.1326 H   0  0  0  0  0  0  0  0  0  0  0  0
  139.0399   69.8511  221.9719 H   0  0  0  0  0  0  0  0  0  0  0  0
  139.2110   68.2265  223.8094 H   0  0  0  0  0  0  0  0  0  0  0  0
  139.8569   67.7687  226.1492 H   0  0  0  0  0  0  0  0  0  0  0  0
  141.4848   70.9155  228.5543 H   0  0  0  0  0  0  0  0  0  0  0  0
  141.2574   72.4503  226.6254 H   0  0  0  0  0  0  0  0  0  0  0  0
  1  2  2  0
  2  3  1  0
  3  4  1  0
  4  5  1  0
  5  6  2  0
  5  7  1  0
  7  8  1  0
  8  9  1  0
  9 10  1  0
 10 11  1  0
 11 12  1  0
 12 13  1  0
 13 14  2  0
 14 15  1  0
 15 16  1  0
 16 17  2  0
  2 18  1  0
 18 19  2  0
 19 20  1  0
 20 21  2  0
 21 22  1  0
 22 23  2  0
 23 24  1  0
 23 25  1  0
 25 26  2  0
 26 27  1  0
 27 28  2  0
 12  7  1  0
 17 13  1  0
 28 18  1  0
 27 21  1  0
  3 29  1  0
  4 30  1  0
  4 31  1  0
  8 32  1  0
  8 33  1  0
  9 34  1  0
  9 35  1  0
 10 36  1  0
 10 37  1  0
 11 38  1  0
 11 39  1  0
 12 40  1  6
 14 41  1  0
 15 42  1  0
 16 43  1  0
 19 44  1  0
 20 45  1  0
 22 46  1  0
 25 47  1  0
 26 48  1  0
M  END
>  <smiles>  (43) 
O=C(NCC(=O)N1CCCC[C@H]1c1c[nH]cn1)c1ccc2cc(Cl)ccc2n1

>  <score_type>  (43) 
oracle

>  <origin>  (43) 
autodockgpu

>  <m_score__min__energy>  (43) 
-8.7100000000000009

>  <m_primary>  (43) 
energy

>  <rmsd>  (43) 
2.7979460828829423

>  <m_score__min__rmsd>  (43) 
2.7979460828829423

>  <meeko>  (43) 
{"free_energy": -7.65, "intermolecular_energy": -9.15, "internal_energy": -1.93, "cluster_size": 17, "cluster_id": 3, "rank_in_cluster": 8}

>  <energy>  (43) 
-7.19

>  <cluster_rmsd>  (43) 
0.0

>  <cluster>  (43) 
6

$$$$

     RDKit          3D

 48 51  0  0  0  0  0  0  0  0999 V2000
  134.7880   68.5140  224.9370 O   0  0  0  0  0  0  0  0  0  0  0  0
  135.2690   69.6280  224.6260 C   0  0  0  0  0  0  0  0  0  0  0  0
  136.3560   69.7740  223.7210 N   0  0  0  0  0  0  0  0  0  0  0  0
  136.9940   68.6360  223.0820 C   0  0  0  0  0  0  0  0  0  0  0  0
  138.4530   68.6510  223.4580 C   0  0  0  0  0  0  0  0  0  0  0  0
  139.2220   68.1010  222.6330 O   0  0  0  0  0  0  0  0  0  0  0  0
  138.8660   69.2580  224.6690 N   0  0  0  0  0  0  0  0  0  0  0  0
  138.8180   68.4710  225.9070 C   0  0  0  0  0  0  0  0  0  0  0  0
  139.7340   68.9900  226.9560 C   0  0  0  0  0  0  0  0  0  0  0  0
  140.8880   69.8080  226.5290 C   0  0  0  0  0  0  0  0  0  0  0  0
  140.8110   70.4530  225.1930 C   0  0  0  0  0  0  0  0  0  0  0  0
  139.3500   70.5980  224.8150 C   0  0  1  0  0  0  0  0  0  0  0  0
  139.2360   71.5090  223.7030 C   0  0  0  0  0  0  0  0  0  0  0  0
  140.2150   72.2020  223.0230 C   0  0  0  0  0  0  0  0  0  0  0  0
  139.6830   72.9550  222.0440 N   0  0  0  0  0  0  0  0  0  0  0  0
  138.3550   72.7470  222.0930 C   0  0  0  0  0  0  0  0  0  0  0  0
  138.0760   71.8840  223.0820 N   0  0  0  0  0  0  0  0  0  0  0  0
  134.6810   70.8400  225.2280 C   0  0  0  0  0  0  0  0  0  0  0  0
  133.6960   70.7490  226.1760 C   0  0  0  0  0  0  0  0  0  0  0  0
  133.1420   71.8590  226.7420 C   0  0  0  0  0  0  0  0  0  0  0  0
  133.5850   73.0910  226.3480 C   0  0  0  0  0  0  0  0  0  0  0  0
  133.0760   74.2780  226.8720 C   0  0  0  0  0  0  0  0  0  0  0  0
  133.5310   75.5020  226.4670 C   0  0  0  0  0  0  0  0  0  0  0  0
  132.8880   77.0000  227.1280 Cl  0  0  0  0  0  0  0  0  0  0  0  0
  134.5220   75.5830  225.5130 C   0  0  0  0  0  0  0  0  0  0  0  0
  135.0250   74.4030  224.9940 C   0  0  0  0  0  0  0  0  0  0  0  0
  134.5770   73.1580  225.3930 C   0  0  0  0  0  0  0  0  0  0  0  0
  135.0950   72.0530  224.8630 N   0  0  0  0  0  0  0  0  0  0  0  0
  136.6910   70.7600  223.5230 H   0  0  0  0  0  0  0  0  0  0  0  0
  136.5280   67.7023  223.4301 H   0  0  0  0  0  0  0  0  0  0  0  0
  136.8794   68.6962  221.9896 H   0  0  0  0  0  0  0  0  0  0  0  0
  137.7896   68.4918  226.2969 H   0  0  0  0  0  0  0  0  0  0  0  0
  139.1412   67.4485  225.6619 H   0  0  0  0  0  0  0  0  0  0  0  0
  139.1318   69.6063  227.6398 H   0  0  0  0  0  0  0  0  0  0  0  0
  140.1852   68.0884  227.3960 H   0  0  0  0  0  0  0  0  0  0  0  0
  141.0202   70.6065  227.2739 H   0  0  0  0  0  0  0  0  0  0  0  0
  141.7236   69.0969  226.4506 H   0  0  0  0  0  0  0  0  0  0  0  0
  141.2850   71.4449  225.2315 H   0  0  0  0  0  0  0  0  0  0  0  0
  141.3354   69.8389  224.4461 H   0  0  0  0  0  0  0  0  0  0  0  0
  138.6968   71.0754  225.5603 H   0  0  0  0  0  0  0  0  0  0  0  0
  141.2896   72.1463  223.2512 H   0  0  0  0  0  0  0  0  0  0  0  0
  140.1960   73.5800  221.3740 H   0  0  0  0  0  0  0  0  0  0  0  0
  137.6135   73.2117  221.4265 H   0  0  0  0  0  0  0  0  0  0  0  0
  133.3431   69.7551  226.4885 H   0  0  0  0  0  0  0  0  0  0  0  0
  132.3526   71.7649  227.5022 H   0  0  0  0  0  0  0  0  0  0  0  0
  132.2845   74.2285  227.6342 H   0  0  0  0  0  0  0  0  0  0  0  0
  134.9024   76.5578  225.1737 H   0  0  0  0  0  0  0  0  0  0  0  0
  135.8154   74.4583  224.2310 H   0  0  0  0  0  0  0  0  0  0  0  0
  1  2  2  0
  2  3  1  0
  3  4  1  0
  4  5  1  0
  5  6  2  0
  5  7  1  0
  7  8  1  0
  8  9  1  0
  9 10  1  0
 10 11  1  0
 11 12  1  0
 12 13  1  0
 13 14  2  0
 14 15  1  0
 15 16  1  0
 16 17  2  0
  2 18  1  0
 18 19  2  0
 19 20  1  0
 20 21  2  0
 21 22  1  0
 22 23  2  0
 23 24  1  0
 23 25  1  0
 25 26  2  0
 26 27  1  0
 27 28  2  0
 12  7  1  0
 17 13  1  0
 28 18  1  0
 27 21  1  0
  3 29  1  0
  4 30  1  0
  4 31  1  0
  8 32  1  0
  8 33  1  0
  9 34  1  0
  9 35  1  0
 10 36  1  0
 10 37  1  0
 11 38  1  0
 11 39  1  0
 12 40  1  1
 14 41  1  0
 15 42  1  0
 16 43  1  0
 19 44  1  0
 20 45  1  0
 22 46  1  0
 25 47  1  0
 26 48  1  0
M  END
>  <smiles>  (44) 
O=C(NCC(=O)N1CCCC[C@H]1c1c[nH]cn1)c1ccc2cc(Cl)ccc2n1

>  <score_type>  (44) 
oracle

>  <origin>  (44) 
autodockgpu

>  <m_score__min__energy>  (44) 
-8.7100000000000009

>  <m_primary>  (44) 
energy

>  <rmsd>  (44) 
7.944908602308674

>  <m_score__min__rmsd>  (44) 
7.944908602308674

>  <meeko>  (44) 
{"free_energy": -6.44, "intermolecular_energy": -7.93, "internal_energy": -2.78, "cluster_size": 7, "cluster_id": 4, "rank_in_cluster": 7}

>  <energy>  (44) 
-6.38

>  <cluster_rmsd>  (44) 
1.36

>  <cluster>  (44) 
6

$$$$

     RDKit          3D

 48 51  0  0  0  0  0  0  0  0999 V2000
  134.9730   68.4960  225.0250 O   0  0  0  0  0  0  0  0  0  0  0  0
  135.4800   69.6410  225.0520 C   0  0  0  0  0  0  0  0  0  0  0  0
  136.7810   69.9210  224.5520 N   0  0  0  0  0  0  0  0  0  0  0  0
  137.6260   68.8950  223.9660 C   0  0  0  0  0  0  0  0  0  0  0  0
  138.8060   68.6880  224.8800 C   0  0  0  0  0  0  0  0  0  0  0  0
  139.3480   67.5580  224.8040 O   0  0  0  0  0  0  0  0  0  0  0  0
  139.2250   69.7300  225.7410 N   0  0  0  0  0  0  0  0  0  0  0  0
  139.1810   69.5100  227.1920 C   0  0  0  0  0  0  0  0  0  0  0  0
  140.1030   70.4050  227.9400 C   0  0  0  0  0  0  0  0  0  0  0  0
  141.2570   70.9750  227.2160 C   0  0  0  0  0  0  0  0  0  0  0  0
  141.1760   71.0260  225.7330 C   0  0  0  0  0  0  0  0  0  0  0  0
  139.7140   71.0130  225.3330 C   0  0  1  0  0  0  0  0  0  0  0  0
  139.5980   71.3980  223.9480 C   0  0  0  0  0  0  0  0  0  0  0  0
  140.5650   71.4850  222.9690 C   0  0  0  0  0  0  0  0  0  0  0  0
  140.0360   71.8910  221.8010 N   0  0  0  0  0  0  0  0  0  0  0  0
  138.7230   72.0660  222.0280 C   0  0  0  0  0  0  0  0  0  0  0  0
  138.4480   71.7750  223.3090 N   0  0  0  0  0  0  0  0  0  0  0  0
  134.6900   70.7460  225.6300 C   0  0  0  0  0  0  0  0  0  0  0  0
  133.6400   70.4950  226.4730 C   0  0  0  0  0  0  0  0  0  0  0  0
  132.9000   71.5030  227.0160 C   0  0  0  0  0  0  0  0  0  0  0  0
  133.2210   72.7960  226.7060 C   0  0  0  0  0  0  0  0  0  0  0  0
  132.5200   73.8890  227.2130 C   0  0  0  0  0  0  0  0  0  0  0  0
  132.8540   75.1750  226.8930 C   0  0  0  0  0  0  0  0  0  0  0  0
  131.9690   76.5550  227.5330 Cl  0  0  0  0  0  0  0  0  0  0  0  0
  133.9120   75.4170  226.0440 C   0  0  0  0  0  0  0  0  0  0  0  0
  134.6050   74.3310  225.5410 C   0  0  0  0  0  0  0  0  0  0  0  0
  134.2810   73.0240  225.8550 C   0  0  0  0  0  0  0  0  0  0  0  0
  134.9810   72.0150  225.3450 N   0  0  0  0  0  0  0  0  0  0  0  0
  137.1200   70.9230  224.6210 H   0  0  0  0  0  0  0  0  0  0  0  0
  137.0606   67.9566  223.8675 H   0  0  0  0  0  0  0  0  0  0  0  0
  137.9656   69.2036  222.9663 H   0  0  0  0  0  0  0  0  0  0  0  0
  138.1544   69.6903  227.5436 H   0  0  0  0  0  0  0  0  0  0  0  0
  139.5012   68.4744  227.3792 H   0  0  0  0  0  0  0  0  0  0  0  0
  139.5055   71.2478  228.3178 H   0  0  0  0  0  0  0  0  0  0  0  0
  140.5531   69.7565  228.7061 H   0  0  0  0  0  0  0  0  0  0  0  0
  141.3952   72.0057  227.5746 H   0  0  0  0  0  0  0  0  0  0  0  0
  142.0898   70.2887  227.4290 H   0  0  0  0  0  0  0  0  0  0  0  0
  141.6533   71.9467  225.3663 H   0  0  0  0  0  0  0  0  0  0  0  0
  141.6951   70.1602  225.2961 H   0  0  0  0  0  0  0  0  0  0  0  0
  139.0660   71.7536  225.8245 H   0  0  0  0  0  0  0  0  0  0  0  0
  141.6292   71.2529  223.1230 H   0  0  0  0  0  0  0  0  0  0  0  0
  140.5430   72.0420  220.8940 H   0  0  0  0  0  0  0  0  0  0  0  0
  137.9876   72.3966  221.2797 H   0  0  0  0  0  0  0  0  0  0  0  0
  133.3873   69.4529  226.7183 H   0  0  0  0  0  0  0  0  0  0  0  0
  132.0603   71.2806  227.6909 H   0  0  0  0  0  0  0  0  0  0  0  0
  131.6724   73.7111  227.8911 H   0  0  0  0  0  0  0  0  0  0  0  0
  134.1972   76.4445  225.7741 H   0  0  0  0  0  0  0  0  0  0  0  0
  135.4505   74.5150  224.8618 H   0  0  0  0  0  0  0  0  0  0  0  0
  1  2  2  0
  2  3  1  0
  3  4  1  0
  4  5  1  0
  5  6  2  0
  5  7  1  0
  7  8  1  0
  8  9  1  0
  9 10  1  0
 10 11  1  0
 11 12  1  0
 12 13  1  0
 13 14  2  0
 14 15  1  0
 15 16  1  0
 16 17  2  0
  2 18  1  0
 18 19  2  0
 19 20  1  0
 20 21  2  0
 21 22  1  0
 22 23  2  0
 23 24  1  0
 23 25  1  0
 25 26  2  0
 26 27  1  0
 27 28  2  0
 12  7  1  0
 17 13  1  0
 28 18  1  0
 27 21  1  0
  3 29  1  0
  4 30  1  0
  4 31  1  0
  8 32  1  0
  8 33  1  0
  9 34  1  0
  9 35  1  0
 10 36  1  0
 10 37  1  0
 11 38  1  0
 11 39  1  0
 12 40  1  1
 14 41  1  0
 15 42  1  0
 16 43  1  0
 19 44  1  0
 20 45  1  0
 22 46  1  0
 25 47  1  0
 26 48  1  0
M  END
>  <smiles>  (45) 
O=C(NCC(=O)N1CCCC[C@H]1c1c[nH]cn1)c1ccc2cc(Cl)ccc2n1

>  <score_type>  (45) 
oracle

>  <origin>  (45) 
autodockgpu

>  <m_score__min__energy>  (45) 
-8.7100000000000009

>  <m_primary>  (45) 
energy

>  <rmsd>  (45) 
8.119142800654288

>  <m_score__min__rmsd>  (45) 
8.119142800654288

>  <meeko>  (45) 
{"free_energy": -7.5, "intermolecular_energy": -8.99, "internal_energy": -2.42, "cluster_size": 7, "cluster_id": 4, "rank_in_cluster": 6}

>  <energy>  (45) 
-6.24

>  <cluster_rmsd>  (45) 
1.58

>  <cluster>  (45) 
6

$$$$

     RDKit          3D

 48 51  0  0  0  0  0  0  0  0999 V2000
  139.6080   73.3720  220.2020 O   0  0  0  0  0  0  0  0  0  0  0  0
  139.5870   73.5530  221.4420 C   0  0  0  0  0  0  0  0  0  0  0  0
  139.5740   74.8450  222.0330 N   0  0  0  0  0  0  0  0  0  0  0  0
  139.5840   76.0630  221.2400 C   0  0  0  0  0  0  0  0  0  0  0  0
  140.7280   76.9190  221.7190 C   0  0  0  0  0  0  0  0  0  0  0  0
  140.8910   76.9440  222.9630 O   0  0  0  0  0  0  0  0  0  0  0  0
  141.5270   77.6220  220.7850 N   0  0  0  0  0  0  0  0  0  0  0  0
  142.1190   76.8820  219.6630 C   0  0  0  0  0  0  0  0  0  0  0  0
  142.4590   77.7570  218.5100 C   0  0  0  0  0  0  0  0  0  0  0  0
  141.7460   79.0430  218.3800 C   0  0  0  0  0  0  0  0  0  0  0  0
  141.1120   79.6000  219.6020 C   0  0  0  0  0  0  0  0  0  0  0  0
  141.8180   79.0240  220.8130 C   0  0  1  0  0  0  0  0  0  0  0  0
  141.4600   79.7900  221.9820 C   0  0  0  0  0  0  0  0  0  0  0  0
  142.2640   80.4450  222.8910 C   0  0  0  0  0  0  0  0  0  0  0  0
  141.5270   81.0400  223.8450 N   0  0  0  0  0  0  0  0  0  0  0  0
  140.2440   80.7690  223.5500 C   0  0  0  0  0  0  0  0  0  0  0  0
  140.1910   80.0210  222.4370 N   0  0  0  0  0  0  0  0  0  0  0  0
  139.5740   72.3700  222.3250 C   0  0  0  0  0  0  0  0  0  0  0  0
  138.9340   71.2180  221.9500 C   0  0  0  0  0  0  0  0  0  0  0  0
  138.9120   70.1170  222.7520 C   0  0  0  0  0  0  0  0  0  0  0  0
  139.5480   70.1700  223.9620 C   0  0  0  0  0  0  0  0  0  0  0  0
  139.5770   69.0930  224.8460 C   0  0  0  0  0  0  0  0  0  0  0  0
  140.2170   69.1640  226.0520 C   0  0  0  0  0  0  0  0  0  0  0  0
  140.2540   67.8050  227.1690 Cl  0  0  0  0  0  0  0  0  0  0  0  0
  140.8590   70.3270  226.4200 C   0  0  0  0  0  0  0  0  0  0  0  0
  140.8280   71.3940  225.5410 C   0  0  0  0  0  0  0  0  0  0  0  0
  140.1850   71.3390  224.3180 C   0  0  0  0  0  0  0  0  0  0  0  0
  140.1860   72.3940  223.5080 N   0  0  0  0  0  0  0  0  0  0  0  0
  139.5560   74.8930  223.0920 H   0  0  0  0  0  0  0  0  0  0  0  0
  139.7219   75.8157  220.1771 H   0  0  0  0  0  0  0  0  0  0  0  0
  138.6307   76.6004  221.3517 H   0  0  0  0  0  0  0  0  0  0  0  0
  143.0381   76.3893  220.0131 H   0  0  0  0  0  0  0  0  0  0  0  0
  141.3715   76.1533  219.3162 H   0  0  0  0  0  0  0  0  0  0  0  0
  143.5331   77.9843  218.5778 H   0  0  0  0  0  0  0  0  0  0  0  0
  142.1469   77.1802  217.6269 H   0  0  0  0  0  0  0  0  0  0  0  0
  142.4704   79.7865  218.0161 H   0  0  0  0  0  0  0  0  0  0  0  0
  140.9078   78.8321  217.6996 H   0  0  0  0  0  0  0  0  0  0  0  0
  141.2070   80.6959  219.6031 H   0  0  0  0  0  0  0  0  0  0  0  0
  140.0442   79.3370  219.6268 H   0  0  0  0  0  0  0  0  0  0  0  0
  142.9149   79.1052  220.8230 H   0  0  0  0  0  0  0  0  0  0  0  0
  143.3625   80.4764  222.8420 H   0  0  0  0  0  0  0  0  0  0  0  0
  141.8790   81.6040  224.6590 H   0  0  0  0  0  0  0  0  0  0  0  0
  139.3731   81.1076  224.1304 H   0  0  0  0  0  0  0  0  0  0  0  0
  138.4246   71.1812  220.9758 H   0  0  0  0  0  0  0  0  0  0  0  0
  138.3922   69.2018  222.4324 H   0  0  0  0  0  0  0  0  0  0  0  0
  139.0699   68.1581  224.5651 H   0  0  0  0  0  0  0  0  0  0  0  0
  141.3810   70.4041  227.3852 H   0  0  0  0  0  0  0  0  0  0  0  0
  141.3366   72.3265  225.8269 H   0  0  0  0  0  0  0  0  0  0  0  0
  1  2  2  0
  2  3  1  0
  3  4  1  0
  4  5  1  0
  5  6  2  0
  5  7  1  0
  7  8  1  0
  8  9  1  0
  9 10  1  0
 10 11  1  0
 11 12  1  0
 12 13  1  0
 13 14  2  0
 14 15  1  0
 15 16  1  0
 16 17  2  0
  2 18  1  0
 18 19  2  0
 19 20  1  0
 20 21  2  0
 21 22  1  0
 22 23  2  0
 23 24  1  0
 23 25  1  0
 25 26  2  0
 26 27  1  0
 27 28  2  0
 12  7  1  0
 17 13  1  0
 28 18  1  0
 27 21  1  0
  3 29  1  0
  4 30  1  0
  4 31  1  0
  8 32  1  0
  8 33  1  0
  9 34  1  0
  9 35  1  0
 10 36  1  0
 10 37  1  0
 11 38  1  0
 11 39  1  0
 12 40  1  6
 14 41  1  0
 15 42  1  0
 16 43  1  0
 19 44  1  0
 20 45  1  0
 22 46  1  0
 25 47  1  0
 26 48  1  0
M  END
>  <smiles>  (46) 
O=C(NCC(=O)N1CCCC[C@H]1c1c[nH]cn1)c1ccc2cc(Cl)ccc2n1

>  <score_type>  (46) 
oracle

>  <origin>  (46) 
autodockgpu

>  <m_score__min__energy>  (46) 
-8.7100000000000009

>  <m_primary>  (46) 
energy

>  <rmsd>  (46) 
2.6586746619682367

>  <m_score__min__rmsd>  (46) 
2.6586746619682367

>  <meeko>  (46) 
{"free_energy": -7.36, "intermolecular_energy": -8.85, "internal_energy": -1.72, "cluster_size": 9, "cluster_id": 2, "rank_in_cluster": 9}

>  <energy>  (46) 
-6.23

>  <cluster_rmsd>  (46) 
1.44

>  <cluster>  (46) 
6

$$$$

     RDKit          3D

 48 51  0  0  0  0  0  0  0  0999 V2000
  138.5530   71.4930  221.0570 O   0  0  0  0  0  0  0  0  0  0  0  0
  139.0800   71.9710  222.0880 C   0  0  0  0  0  0  0  0  0  0  0  0
  139.4500   73.3390  222.2020 N   0  0  0  0  0  0  0  0  0  0  0  0
  139.2430   74.2930  221.1250 C   0  0  0  0  0  0  0  0  0  0  0  0
  140.3580   75.3050  221.1820 C   0  0  0  0  0  0  0  0  0  0  0  0
  140.6280   75.7380  222.3280 O   0  0  0  0  0  0  0  0  0  0  0  0
  141.0170   75.7000  219.9920 N   0  0  0  0  0  0  0  0  0  0  0  0
  140.4550   76.8060  219.2060 C   0  0  0  0  0  0  0  0  0  0  0  0
  141.4630   77.4610  218.3300 C   0  0  0  0  0  0  0  0  0  0  0  0
  142.8880   77.3330  218.6940 C   0  0  0  0  0  0  0  0  0  0  0  0
  143.2670   76.2080  219.5880 C   0  0  0  0  0  0  0  0  0  0  0  0
  142.2160   75.1230  219.4630 C   0  0  1  0  0  0  0  0  0  0  0  0
  142.7220   73.9030  220.0450 C   0  0  0  0  0  0  0  0  0  0  0  0
  144.0020   73.5760  220.4410 C   0  0  0  0  0  0  0  0  0  0  0  0
  144.0500   72.3260  220.9330 N   0  0  0  0  0  0  0  0  0  0  0  0
  142.7970   71.8450  220.8540 C   0  0  0  0  0  0  0  0  0  0  0  0
  141.9930   72.7800  220.3240 N   0  0  0  0  0  0  0  0  0  0  0  0
  139.3260   71.0730  223.2330 C   0  0  0  0  0  0  0  0  0  0  0  0
  138.9950   69.7460  223.1700 C   0  0  0  0  0  0  0  0  0  0  0  0
  139.2160   68.9020  224.2180 C   0  0  0  0  0  0  0  0  0  0  0  0
  139.7830   69.4010  225.3580 C   0  0  0  0  0  0  0  0  0  0  0  0
  140.0440   68.6130  226.4780 C   0  0  0  0  0  0  0  0  0  0  0  0
  140.6120   69.1290  227.6090 C   0  0  0  0  0  0  0  0  0  0  0  0
  140.9420   68.1340  229.0230 Cl  0  0  0  0  0  0  0  0  0  0  0  0
  140.9420   70.4660  227.6620 C   0  0  0  0  0  0  0  0  0  0  0  0
  140.6810   71.2460  226.5500 C   0  0  0  0  0  0  0  0  0  0  0  0
  140.1080   70.7400  225.3980 C   0  0  0  0  0  0  0  0  0  0  0  0
  139.8780   71.5330  224.3550 N   0  0  0  0  0  0  0  0  0  0  0  0
  139.8900   73.6460  223.1160 H   0  0  0  0  0  0  0  0  0  0  0  0
  139.2600   73.7724  220.1562 H   0  0  0  0  0  0  0  0  0  0  0  0
  138.2681   74.7903  221.2358 H   0  0  0  0  0  0  0  0  0  0  0  0
  139.6441   76.4125  218.5754 H   0  0  0  0  0  0  0  0  0  0  0  0
  140.0897   77.5638  219.9147 H   0  0  0  0  0  0  0  0  0  0  0  0
  141.3440   77.0376  217.3218 H   0  0  0  0  0  0  0  0  0  0  0  0
  141.2515   78.5362  218.4256 H   0  0  0  0  0  0  0  0  0  0  0  0
  143.4581   77.2189  217.7602 H   0  0  0  0  0  0  0  0  0  0  0  0
  143.1131   78.2407  219.2732 H   0  0  0  0  0  0  0  0  0  0  0  0
  144.2484   75.8108  219.2897 H   0  0  0  0  0  0  0  0  0  0  0  0
  143.3283   76.5568  220.6294 H   0  0  0  0  0  0  0  0  0  0  0  0
  141.9693   74.7964  218.4420 H   0  0  0  0  0  0  0  0  0  0  0  0
  144.8688   74.2489  220.3644 H   0  0  0  0  0  0  0  0  0  0  0  0
  144.8940   71.8220  221.3050 H   0  0  0  0  0  0  0  0  0  0  0  0
  142.4801   70.8414  221.1739 H   0  0  0  0  0  0  0  0  0  0  0  0
  138.5391   69.3505  222.2504 H   0  0  0  0  0  0  0  0  0  0  0  0
  138.9431   67.8387  224.1477 H   0  0  0  0  0  0  0  0  0  0  0  0
  139.7851   67.5442  226.4507 H   0  0  0  0  0  0  0  0  0  0  0  0
  141.3999   70.9004  228.5629 H   0  0  0  0  0  0  0  0  0  0  0  0
  140.9404   72.3145  226.5836 H   0  0  0  0  0  0  0  0  0  0  0  0
  1  2  2  0
  2  3  1  0
  3  4  1  0
  4  5  1  0
  5  6  2  0
  5  7  1  0
  7  8  1  0
  8  9  1  0
  9 10  1  0
 10 11  1  0
 11 12  1  0
 12 13  1  0
 13 14  2  0
 14 15  1  0
 15 16  1  0
 16 17  2  0
  2 18  1  0
 18 19  2  0
 19 20  1  0
 20 21  2  0
 21 22  1  0
 22 23  2  0
 23 24  1  0
 23 25  1  0
 25 26  2  0
 26 27  1  0
 27 28  2  0
 12  7  1  0
 17 13  1  0
 28 18  1  0
 27 21  1  0
  3 29  1  0
  4 30  1  0
  4 31  1  0
  8 32  1  0
  8 33  1  0
  9 34  1  0
  9 35  1  0
 10 36  1  0
 10 37  1  0
 11 38  1  0
 11 39  1  0
 12 40  1  6
 14 41  1  0
 15 42  1  0
 16 43  1  0
 19 44  1  0
 20 45  1  0
 22 46  1  0
 25 47  1  0
 26 48  1  0
M  END
>  <smiles>  (47) 
O=C(NCC(=O)N1CCCC[C@H]1c1c[nH]cn1)c1ccc2cc(Cl)ccc2n1

>  <score_type>  (47) 
oracle

>  <origin>  (47) 
autodockgpu

>  <m_score__min__energy>  (47) 
-8.7100000000000009

>  <m_primary>  (47) 
energy

>  <rmsd>  (47) 
2.7028358690197782

>  <m_score__min__rmsd>  (47) 
2.7028358690197782

>  <meeko>  (47) 
{"free_energy": -7.47, "intermolecular_energy": -8.96, "internal_energy": -2.23, "cluster_size": 17, "cluster_id": 3, "rank_in_cluster": 15}

>  <energy>  (47) 
-6.22

>  <cluster_rmsd>  (47) 
1.57

>  <cluster>  (47) 
6

$$$$

     RDKit          3D

 48 51  0  0  0  0  0  0  0  0999 V2000
  140.1940   72.4120  220.6350 O   0  0  0  0  0  0  0  0  0  0  0  0
  139.9820   72.8410  221.7930 C   0  0  0  0  0  0  0  0  0  0  0  0
  139.7560   74.2160  222.0770 N   0  0  0  0  0  0  0  0  0  0  0  0
  139.7530   75.2340  221.0400 C   0  0  0  0  0  0  0  0  0  0  0  0
  140.6200   76.3740  221.5060 C   0  0  0  0  0  0  0  0  0  0  0  0
  140.5220   76.6550  222.7250 O   0  0  0  0  0  0  0  0  0  0  0  0
  141.4650   77.0430  220.5880 N   0  0  0  0  0  0  0  0  0  0  0  0
  141.9940   76.2950  219.4400 C   0  0  0  0  0  0  0  0  0  0  0  0
  142.3940   77.1770  218.3120 C   0  0  0  0  0  0  0  0  0  0  0  0
  141.7790   78.5160  218.2250 C   0  0  0  0  0  0  0  0  0  0  0  0
  141.1950   79.0820  219.4680 C   0  0  0  0  0  0  0  0  0  0  0  0
  141.8610   78.4180  220.6560 C   0  0  1  0  0  0  0  0  0  0  0  0
  141.5670   79.1730  221.8500 C   0  0  0  0  0  0  0  0  0  0  0  0
  142.4220   79.7270  222.7780 C   0  0  0  0  0  0  0  0  0  0  0  0
  141.7370   80.3510  223.7530 N   0  0  0  0  0  0  0  0  0  0  0  0
  140.4360   80.1980  223.4520 C   0  0  0  0  0  0  0  0  0  0  0  0
  140.3210   79.4950  222.3140 N   0  0  0  0  0  0  0  0  0  0  0  0
  139.9670   71.8760  222.9090 C   0  0  0  0  0  0  0  0  0  0  0  0
  139.4130   70.6320  222.7570 C   0  0  0  0  0  0  0  0  0  0  0  0
  139.3900   69.7280  223.7770 C   0  0  0  0  0  0  0  0  0  0  0  0
  139.9370   70.0790  224.9810 C   0  0  0  0  0  0  0  0  0  0  0  0
  139.9580   69.2190  226.0780 C   0  0  0  0  0  0  0  0  0  0  0  0
  140.5090   69.5870  227.2740 C   0  0  0  0  0  0  0  0  0  0  0  0
  140.5360   68.5020  228.6590 Cl  0  0  0  0  0  0  0  0  0  0  0  0
  141.0650   70.8400  227.4170 C   0  0  0  0  0  0  0  0  0  0  0  0
  141.0420   71.6910  226.3270 C   0  0  0  0  0  0  0  0  0  0  0  0
  140.4890   71.3350  225.1100 C   0  0  0  0  0  0  0  0  0  0  0  0
  140.4930   72.1910  224.0920 N   0  0  0  0  0  0  0  0  0  0  0  0
  139.5860   74.4790  223.0900 H   0  0  0  0  0  0  0  0  0  0  0  0
  140.1557   74.8163  220.1054 H   0  0  0  0  0  0  0  0  0  0  0  0
  138.7278   75.5852  220.8516 H   0  0  0  0  0  0  0  0  0  0  0  0
  142.8746   75.7236  219.7686 H   0  0  0  0  0  0  0  0  0  0  0  0
  141.1919   75.6358  219.0764 H   0  0  0  0  0  0  0  0  0  0  0  0
  143.4824   77.3212  218.3801 H   0  0  0  0  0  0  0  0  0  0  0  0
  142.0359   76.6524  217.4139 H   0  0  0  0  0  0  0  0  0  0  0  0
  142.5553   79.2137  217.8777 H   0  0  0  0  0  0  0  0  0  0  0  0
  140.9239   78.3892  217.5448 H   0  0  0  0  0  0  0  0  0  0  0  0
  141.3728   80.1670  219.5012 H   0  0  0  0  0  0  0  0  0  0  0  0
  140.1105   78.8997  219.4926 H   0  0  0  0  0  0  0  0  0  0  0  0
  142.9610   78.4161  220.6609 H   0  0  0  0  0  0  0  0  0  0  0  0
  143.5192   79.6669  222.7280 H   0  0  0  0  0  0  0  0  0  0  0  0
  142.1340   80.8570  224.5840 H   0  0  0  0  0  0  0  0  0  0  0  0
  139.5962   80.5881  224.0457 H   0  0  0  0  0  0  0  0  0  0  0  0
  138.9753   70.3556  221.7864 H   0  0  0  0  0  0  0  0  0  0  0  0
  138.9399   68.7344  223.6347 H   0  0  0  0  0  0  0  0  0  0  0  0
  139.5186   68.2155  225.9785 H   0  0  0  0  0  0  0  0  0  0  0  0
  141.5142   71.1542  228.3707 H   0  0  0  0  0  0  0  0  0  0  0  0
  141.4822   72.6936  226.4323 H   0  0  0  0  0  0  0  0  0  0  0  0
  1  2  2  0
  2  3  1  0
  3  4  1  0
  4  5  1  0
  5  6  2  0
  5  7  1  0
  7  8  1  0
  8  9  1  0
  9 10  1  0
 10 11  1  0
 11 12  1  0
 12 13  1  0
 13 14  2  0
 14 15  1  0
 15 16  1  0
 16 17  2  0
  2 18  1  0
 18 19  2  0
 19 20  1  0
 20 21  2  0
 21 22  1  0
 22 23  2  0
 23 24  1  0
 23 25  1  0
 25 26  2  0
 26 27  1  0
 27 28  2  0
 12  7  1  0
 17 13  1  0
 28 18  1  0
 27 21  1  0
  3 29  1  0
  4 30  1  0
  4 31  1  0
  8 32  1  0
  8 33  1  0
  9 34  1  0
  9 35  1  0
 10 36  1  0
 10 37  1  0
 11 38  1  0
 11 39  1  0
 12 40  1  6
 14 41  1  0
 15 42  1  0
 16 43  1  0
 19 44  1  0
 20 45  1  0
 22 46  1  0
 25 47  1  0
 26 48  1  0
M  END
>  <smiles>  (48) 
O=C(NCC(=O)N1CCCC[C@H]1c1c[nH]cn1)c1ccc2cc(Cl)ccc2n1

>  <score_type>  (48) 
oracle

>  <origin>  (48) 
autodockgpu

>  <m_score__min__energy>  (48) 
-8.7100000000000009

>  <m_primary>  (48) 
energy

>  <rmsd>  (48) 
2.1197424362438535

>  <m_score__min__rmsd>  (48) 
2.1197424362438535

>  <meeko>  (48) 
{"free_energy": -7.95, "intermolecular_energy": -9.44, "internal_energy": -1.65, "cluster_size": 9, "cluster_id": 2, "rank_in_cluster": 5}

>  <energy>  (48) 
-6.21

>  <cluster_rmsd>  (48) 
1.56

>  <cluster>  (48) 
6

$$$$

     RDKit          3D

 48 51  0  0  0  0  0  0  0  0999 V2000
  140.5600   71.9360  220.8230 O   0  0  0  0  0  0  0  0  0  0  0  0
  140.0640   72.3240  221.9060 C   0  0  0  0  0  0  0  0  0  0  0  0
  139.5120   73.6220  222.0810 N   0  0  0  0  0  0  0  0  0  0  0  0
  139.4800   74.6040  221.0100 C   0  0  0  0  0  0  0  0  0  0  0  0
  140.8520   75.2180  220.9020 C   0  0  0  0  0  0  0  0  0  0  0  0
  141.4570   75.3650  221.9910 O   0  0  0  0  0  0  0  0  0  0  0  0
  141.3670   75.5800  219.6330 N   0  0  0  0  0  0  0  0  0  0  0  0
  140.5090   76.3340  218.7110 C   0  0  0  0  0  0  0  0  0  0  0  0
  141.2830   77.0930  217.6940 C   0  0  0  0  0  0  0  0  0  0  0  0
  142.6850   77.4390  218.0030 C   0  0  0  0  0  0  0  0  0  0  0  0
  143.3740   76.6330  219.0440 C   0  0  0  0  0  0  0  0  0  0  0  0
  142.6820   75.2890  219.1450 C   0  0  1  0  0  0  0  0  0  0  0  0
  143.5180   74.3780  219.8870 C   0  0  0  0  0  0  0  0  0  0  0  0
  143.3280   73.0450  220.1850 C   0  0  0  0  0  0  0  0  0  0  0  0
  144.3530   72.5610  220.9090 N   0  0  0  0  0  0  0  0  0  0  0  0
  145.2070   73.5860  221.0780 C   0  0  0  0  0  0  0  0  0  0  0  0
  144.7190   74.6780  220.4710 N   0  0  0  0  0  0  0  0  0  0  0  0
  140.0540   71.3900  223.0490 C   0  0  0  0  0  0  0  0  0  0  0  0
  139.5440   70.1250  222.9200 C   0  0  0  0  0  0  0  0  0  0  0  0
  139.5270   69.2500  223.9640 C   0  0  0  0  0  0  0  0  0  0  0  0
  140.0330   69.6520  225.1700 C   0  0  0  0  0  0  0  0  0  0  0  0
  140.0560   68.8240  226.2910 C   0  0  0  0  0  0  0  0  0  0  0  0
  140.5660   69.2430  227.4880 C   0  0  0  0  0  0  0  0  0  0  0  0
  140.5960   68.1990  228.9040 Cl  0  0  0  0  0  0  0  0  0  0  0  0
  141.0780   70.5170  227.6080 C   0  0  0  0  0  0  0  0  0  0  0  0
  141.0530   71.3360  226.4930 C   0  0  0  0  0  0  0  0  0  0  0  0
  140.5410   70.9290  225.2750 C   0  0  0  0  0  0  0  0  0  0  0  0
  140.5410   71.7550  224.2330 N   0  0  0  0  0  0  0  0  0  0  0  0
  139.1170   73.8540  223.0360 H   0  0  0  0  0  0  0  0  0  0  0  0
  139.2143   74.1140  220.0617 H   0  0  0  0  0  0  0  0  0  0  0  0
  138.7295   75.3792  221.2238 H   0  0  0  0  0  0  0  0  0  0  0  0
  139.8448   75.6274  218.1918 H   0  0  0  0  0  0  0  0  0  0  0  0
  139.9422   77.0636  219.3080 H   0  0  0  0  0  0  0  0  0  0  0  0
  141.2903   76.4914  216.7731 H   0  0  0  0  0  0  0  0  0  0  0  0
  140.7697   78.0636  217.6276 H   0  0  0  0  0  0  0  0  0  0  0  0
  143.2625   77.3390  217.0722 H   0  0  0  0  0  0  0  0  0  0  0  0
  142.6389   78.4562  218.4191 H   0  0  0  0  0  0  0  0  0  0  0  0
  144.4279   76.4880  218.7643 H   0  0  0  0  0  0  0  0  0  0  0  0
  143.3329   77.1527  220.0126 H   0  0  0  0  0  0  0  0  0  0  0  0
  142.5403   74.7407  218.2020 H   0  0  0  0  0  0  0  0  0  0  0  0
  142.4537   72.4555  219.8719 H   0  0  0  0  0  0  0  0  0  0  0  0
  144.4680   71.5820  221.2710 H   0  0  0  0  0  0  0  0  0  0  0  0
  146.1580   73.5365  221.6285 H   0  0  0  0  0  0  0  0  0  0  0  0
  139.1377   69.8076  221.9483 H   0  0  0  0  0  0  0  0  0  0  0  0
  139.1138   68.2382  223.8396 H   0  0  0  0  0  0  0  0  0  0  0  0
  139.6521   67.8040  226.2101 H   0  0  0  0  0  0  0  0  0  0  0  0
  141.4943   70.8723  228.5622 H   0  0  0  0  0  0  0  0  0  0  0  0
  141.4580   72.3551  226.5795 H   0  0  0  0  0  0  0  0  0  0  0  0
  1  2  2  0
  2  3  1  0
  3  4  1  0
  4  5  1  0
  5  6  2  0
  5  7  1  0
  7  8  1  0
  8  9  1  0
  9 10  1  0
 10 11  1  0
 11 12  1  0
 12 13  1  0
 13 14  2  0
 14 15  1  0
 15 16  1  0
 16 17  2  0
  2 18  1  0
 18 19  2  0
 19 20  1  0
 20 21  2  0
 21 22  1  0
 22 23  2  0
 23 24  1  0
 23 25  1  0
 25 26  2  0
 26 27  1  0
 27 28  2  0
 12  7  1  0
 17 13  1  0
 28 18  1  0
 27 21  1  0
  3 29  1  0
  4 30  1  0
  4 31  1  0
  8 32  1  0
  8 33  1  0
  9 34  1  0
  9 35  1  0
 10 36  1  0
 10 37  1  0
 11 38  1  0
 11 39  1  0
 12 40  1  6
 14 41  1  0
 15 42  1  0
 16 43  1  0
 19 44  1  0
 20 45  1  0
 22 46  1  0
 25 47  1  0
 26 48  1  0
M  END
>  <smiles>  (49) 
O=C(NCC(=O)N1CCCC[C@H]1c1c[nH]cn1)c1ccc2cc(Cl)ccc2n1

>  <score_type>  (49) 
oracle

>  <origin>  (49) 
autodockgpu

>  <m_score__min__energy>  (49) 
-8.7100000000000009

>  <m_primary>  (49) 
energy

>  <rmsd>  (49) 
2.5756557352838563

>  <m_score__min__rmsd>  (49) 
2.5756557352838563

>  <meeko>  (49) 
{"free_energy": -7.81, "intermolecular_energy": -9.3, "internal_energy": -1.6, "cluster_size": 17, "cluster_id": 3, "rank_in_cluster": 2}

>  <energy>  (49) 
-6.2

>  <cluster_rmsd>  (49) 
1.56

>  <cluster>  (49) 
6

$$$$

     RDKit          3D

 48 51  0  0  0  0  0  0  0  0999 V2000
  138.2830   76.2590  222.4230 O   0  0  0  0  0  0  0  0  0  0  0  0
  139.3040   76.5640  221.7640 C   0  0  0  0  0  0  0  0  0  0  0  0
  139.5410   77.8760  221.2720 N   0  0  0  0  0  0  0  0  0  0  0  0
  138.6130   78.9710  221.4970 C   0  0  0  0  0  0  0  0  0  0  0  0
  139.3060   80.2540  221.1160 C   0  0  0  0  0  0  0  0  0  0  0  0
  138.7380   80.9190  220.2160 O   0  0  0  0  0  0  0  0  0  0  0  0
  140.5080   80.6280  221.7630 N   0  0  0  0  0  0  0  0  0  0  0  0
  140.4300   81.3560  223.0350 C   0  0  0  0  0  0  0  0  0  0  0  0
  141.6650   81.2230  223.8530 C   0  0  0  0  0  0  0  0  0  0  0  0
  142.5370   80.0570  223.6090 C   0  0  0  0  0  0  0  0  0  0  0  0
  142.4110   79.3710  222.2970 C   0  0  0  0  0  0  0  0  0  0  0  0
  141.8350   80.3530  221.2970 C   0  0  1  0  0  0  0  0  0  0  0  0
  142.0150   79.8340  219.9630 C   0  0  0  0  0  0  0  0  0  0  0  0
  142.5650   80.4310  218.8480 C   0  0  0  0  0  0  0  0  0  0  0  0
  142.5380   79.5980  217.7920 N   0  0  0  0  0  0  0  0  0  0  0  0
  141.9700   78.4600  218.2280 C   0  0  0  0  0  0  0  0  0  0  0  0
  141.6520   78.5890  219.5260 N   0  0  0  0  0  0  0  0  0  0  0  0
  140.3030   75.5130  221.4890 C   0  0  0  0  0  0  0  0  0  0  0  0
  140.0680   74.2090  221.8370 C   0  0  0  0  0  0  0  0  0  0  0  0
  140.9790   73.2260  221.5900 C   0  0  0  0  0  0  0  0  0  0  0  0
  142.1570   73.5570  220.9780 C   0  0  0  0  0  0  0  0  0  0  0  0
  143.1450   72.6190  220.6860 C   0  0  0  0  0  0  0  0  0  0  0  0
  144.3160   72.9680  220.0740 C   0  0  0  0  0  0  0  0  0  0  0  0
  145.5640   71.7830  219.7060 Cl  0  0  0  0  0  0  0  0  0  0  0  0
  144.5430   74.2820  219.7270 C   0  0  0  0  0  0  0  0  0  0  0  0
  143.5610   75.2110  220.0170 C   0  0  0  0  0  0  0  0  0  0  0  0
  142.3710   74.8750  220.6360 C   0  0  0  0  0  0  0  0  0  0  0  0
  141.4580   75.8080  220.8930 N   0  0  0  0  0  0  0  0  0  0  0  0
  140.4360   78.0330  220.7250 H   0  0  0  0  0  0  0  0  0  0  0  0
  137.7153   78.8331  220.8765 H   0  0  0  0  0  0  0  0  0  0  0  0
  138.3061   79.0012  222.5529 H   0  0  0  0  0  0  0  0  0  0  0  0
  140.2641   82.4220  222.8200 H   0  0  0  0  0  0  0  0  0  0  0  0
  139.6014   80.9222  223.6141 H   0  0  0  0  0  0  0  0  0  0  0  0
  142.2700   82.1254  223.6806 H   0  0  0  0  0  0  0  0  0  0  0  0
  141.2993   81.0816  224.8807 H   0  0  0  0  0  0  0  0  0  0  0  0
  143.5784   80.3983  223.7041 H   0  0  0  0  0  0  0  0  0  0  0  0
  142.2189   79.3083  224.3494 H   0  0  0  0  0  0  0  0  0  0  0  0
  143.4014   79.0333  221.9578 H   0  0  0  0  0  0  0  0  0  0  0  0
  141.7513   78.4957  222.3901 H   0  0  0  0  0  0  0  0  0  0  0  0
  142.3384   81.3284  221.2247 H   0  0  0  0  0  0  0  0  0  0  0  0
  142.9718   81.4528  218.8252 H   0  0  0  0  0  0  0  0  0  0  0  0
  142.8900   79.7930  216.8220 H   0  0  0  0  0  0  0  0  0  0  0  0
  141.7933   77.5629  217.6164 H   0  0  0  0  0  0  0  0  0  0  0  0
  139.1191   73.9486  222.3287 H   0  0  0  0  0  0  0  0  0  0  0  0
  140.7709   72.1849  221.8776 H   0  0  0  0  0  0  0  0  0  0  0  0
  142.9774   71.5659  220.9562 H   0  0  0  0  0  0  0  0  0  0  0  0
  145.4787   74.5832  219.2334 H   0  0  0  0  0  0  0  0  0  0  0  0
  143.7337   76.2624  219.7436 H   0  0  0  0  0  0  0  0  0  0  0  0
  1  2  2  0
  2  3  1  0
  3  4  1  0
  4  5  1  0
  5  6  2  0
  5  7  1  0
  7  8  1  0
  8  9  1  0
  9 10  1  0
 10 11  1  0
 11 12  1  0
 12 13  1  0
 13 14  2  0
 14 15  1  0
 15 16  1  0
 16 17  2  0
  2 18  1  0
 18 19  2  0
 19 20  1  0
 20 21  2  0
 21 22  1  0
 22 23  2  0
 23 24  1  0
 23 25  1  0
 25 26  2  0
 26 27  1  0
 27 28  2  0
 12  7  1  0
 17 13  1  0
 28 18  1  0
 27 21  1  0
  3 29  1  0
  4 30  1  0
  4 31  1  0
  8 32  1  0
  8 33  1  0
  9 34  1  0
  9 35  1  0
 10 36  1  0
 10 37  1  0
 11 38  1  0
 11 39  1  0
 12 40  1  6
 14 41  1  0
 15 42  1  0
 16 43  1  0
 19 44  1  0
 20 45  1  0
 22 46  1  0
 25 47  1  0
 26 48  1  0
M  END
>  <smiles>  (50) 
O=C(NCC(=O)N1CCCC[C@H]1c1c[nH]cn1)c1ccc2cc(Cl)ccc2n1

>  <score_type>  (50) 
oracle

>  <origin>  (50) 
autodockgpu

>  <m_score__min__energy>  (50) 
-8.7100000000000009

>  <m_primary>  (50) 
energy

>  <rmsd>  (50) 
6.655191811840869

>  <m_score__min__rmsd>  (50) 
6.655191811840869

>  <meeko>  (50) 
{"free_energy": -6.23, "intermolecular_energy": -7.72, "internal_energy": -2.93, "cluster_size": 7, "cluster_id": 6, "rank_in_cluster": 4}

>  <energy>  (50) 
-6.93

>  <cluster_rmsd>  (50) 
0.0

>  <cluster>  (50) 
7

$$$$
