
     RDKit          3D

 49 52  0  0  0  0  0  0  0  0999 V2000
  140.4460   73.0590  222.6440 O   0  0  0  0  0  0  0  0  0  0  0  0
  140.4440   71.7830  222.7260 C   0  0  0  0  0  0  0  0  0  0  0  0
  140.4980   70.9730  221.5650 N   0  0  0  0  0  0  0  0  0  0  0  0
  140.5580   71.5690  220.2230 C   0  0  0  0  0  0  0  0  0  0  0  0
  141.9250   71.3000  219.7030 C   0  0  0  0  0  0  0  0  0  0  0  0
  142.2980   70.1240  219.3880 O   0  0  0  0  0  0  0  0  0  0  0  0
  142.8370   72.3840  219.5550 N   0  0  0  0  0  0  0  0  0  0  0  0
  143.8000   72.6260  218.4840 C   0  0  0  0  0  0  0  0  0  0  0  0
  144.8800   73.4880  219.0800 C   0  0  2  0  0  0  0  0  0  0  0  0
  146.1670   73.0320  218.8320 O   0  0  0  0  0  0  0  0  0  0  0  0
  144.5330   73.5040  220.5340 C   0  0  0  0  0  0  0  0  0  0  0  0
  143.0010   73.5040  220.4660 C   0  0  1  0  0  0  0  0  0  0  0  0
  142.4730   74.7610  219.8810 C   0  0  0  0  0  0  0  0  0  0  0  0
  143.2630   75.9010  220.0710 C   0  0  0  0  0  0  0  0  0  0  0  0
  142.8860   77.1350  219.5770 C   0  0  0  0  0  0  0  0  0  0  0  0
  141.6960   77.2130  218.8840 C   0  0  0  0  0  0  0  0  0  0  0  0
  141.1970   78.7450  218.2540 Cl  0  0  0  0  0  0  0  0  0  0  0  0
  140.9250   76.0800  218.7030 C   0  0  0  0  0  0  0  0  0  0  0  0
  139.4080   76.1710  217.8200 Cl  0  0  0  0  0  0  0  0  0  0  0  0
  141.2900   74.8430  219.1900 C   0  0  0  0  0  0  0  0  0  0  0  0
  140.3860   71.1570  224.0430 C   0  0  0  0  0  0  0  0  0  0  0  0
  140.6970   71.8880  225.1760 C   0  0  0  0  0  0  0  0  0  0  0  0
  140.6580   71.3510  226.4370 C   0  0  0  0  0  0  0  0  0  0  0  0
  140.2970   70.0280  226.6010 C   0  0  0  0  0  0  0  0  0  0  0  0
  140.2550   69.4820  227.8460 C   0  0  0  0  0  0  0  0  0  0  0  0
  139.8970   68.1720  228.0060 C   0  0  0  0  0  0  0  0  0  0  0  0
  139.5890   67.4470  226.8790 C   0  0  0  0  0  0  0  0  0  0  0  0
  139.6290   67.9910  225.6160 C   0  0  0  0  0  0  0  0  0  0  0  0
  139.9930   69.3220  225.4550 C   0  0  0  0  0  0  0  0  0  0  0  0
  140.0360   69.8670  224.2220 N   0  0  0  0  0  0  0  0  0  0  0  0
  140.4940   69.9360  221.6990 H   0  0  0  0  0  0  0  0  0  0  0  0
  139.8045   71.1073  219.5680 H   0  0  0  0  0  0  0  0  0  0  0  0
  140.3505   72.6487  220.2573 H   0  0  0  0  0  0  0  0  0  0  0  0
  144.2233   71.6747  218.1292 H   0  0  0  0  0  0  0  0  0  0  0  0
  143.3259   73.1158  217.6207 H   0  0  0  0  0  0  0  0  0  0  0  0
  144.9052   74.4921  218.6315 H   0  0  0  0  0  0  0  0  0  0  0  0
  146.7370   73.7890  218.6020 H   0  0  0  0  0  0  0  0  0  0  0  0
  144.9149   72.6112  221.0508 H   0  0  0  0  0  0  0  0  0  0  0  0
  144.9632   74.3469  221.0948 H   0  0  0  0  0  0  0  0  0  0  0  0
  142.4775   73.4285  221.4305 H   0  0  0  0  0  0  0  0  0  0  0  0
  144.2076   75.8121  220.6276 H   0  0  0  0  0  0  0  0  0  0  0  0
  143.5136   78.0251  219.7311 H   0  0  0  0  0  0  0  0  0  0  0  0
  140.6581   73.9568  219.0311 H   0  0  0  0  0  0  0  0  0  0  0  0
  140.9873   72.9427  225.0603 H   0  0  0  0  0  0  0  0  0  0  0  0
  140.9122   71.9688  227.3109 H   0  0  0  0  0  0  0  0  0  0  0  0
  140.5090   70.0941  228.7240 H   0  0  0  0  0  0  0  0  0  0  0  0
  139.8567   67.7127  229.0047 H   0  0  0  0  0  0  0  0  0  0  0  0
  139.2996   66.3917  226.9915 H   0  0  0  0  0  0  0  0  0  0  0  0
  139.3746   67.3764  224.7399 H   0  0  0  0  0  0  0  0  0  0  0  0
  1  2  2  0
  2  3  1  0
  3  4  1  0
  4  5  1  0
  5  6  2  0
  5  7  1  0
  7  8  1  0
  8  9  1  0
  9 10  1  0
  9 11  1  0
 11 12  1  0
 12 13  1  0
 13 14  2  0
 14 15  1  0
 15 16  2  0
 16 17  1  0
 16 18  1  0
 18 19  1  0
 18 20  2  0
  2 21  1  0
 21 22  2  0
 22 23  1  0
 23 24  2  0
 24 25  1  0
 25 26  2  0
 26 27  1  0
 27 28  2  0
 28 29  1  0
 29 30  2  0
 12  7  1  0
 20 13  1  0
 30 21  1  0
 29 24  1  0
  3 31  1  0
  4 32  1  0
  4 33  1  0
  8 34  1  0
  8 35  1  0
  9 36  1  6
 10 37  1  0
 11 38  1  0
 11 39  1  0
 12 40  1  1
 14 41  1  0
 15 42  1  0
 20 43  1  0
 22 44  1  0
 23 45  1  0
 25 46  1  0
 26 47  1  0
 27 48  1  0
 28 49  1  0
M  END
>  <smiles>  (1) 
O=C(NCC(=O)N1C[C@H](O)C[C@H]1c1ccc(Cl)c(Cl)c1)c1ccc2ccccc2n1

>  <score_type>  (1) 
oracle

>  <origin>  (1) 
autodockgpu

>  <m_score__min__energy>  (1) 
-9.2300000000000004

>  <m_primary>  (1) 
energy

>  <rmsd>  (1) 
4.172463418971298

>  <m_score__min__rmsd>  (1) 
4.172463418971298

>  <meeko>  (1) 
{"free_energy": -8.06, "intermolecular_energy": -9.85, "internal_energy": -1.73, "cluster_size": 1, "cluster_id": 5, "rank_in_cluster": 1}

>  <energy>  (1) 
-9.23

>  <cluster_rmsd>  (1) 
0.0

>  <cluster>  (1) 
1

$$$$

     RDKit          3D

 49 52  0  0  0  0  0  0  0  0999 V2000
  142.5200   77.3720  217.4520 O   0  0  0  0  0  0  0  0  0  0  0  0
  142.5640   77.8990  218.6170 C   0  0  0  0  0  0  0  0  0  0  0  0
  143.0060   77.1590  219.7410 N   0  0  0  0  0  0  0  0  0  0  0  0
  143.4300   75.7570  219.6110 C   0  0  0  0  0  0  0  0  0  0  0  0
  142.1950   74.9650  219.3640 C   0  0  0  0  0  0  0  0  0  0  0  0
  142.0580   74.2560  218.3150 O   0  0  0  0  0  0  0  0  0  0  0  0
  141.1440   75.0010  220.3240 N   0  0  0  0  0  0  0  0  0  0  0  0
  141.0730   74.3380  221.6240 C   0  0  0  0  0  0  0  0  0  0  0  0
  139.6090   74.1810  221.9340 C   0  0  2  0  0  0  0  0  0  0  0  0
  139.2510   72.9030  222.3360 O   0  0  0  0  0  0  0  0  0  0  0  0
  138.9490   74.6030  220.6610 C   0  0  0  0  0  0  0  0  0  0  0  0
  139.8900   75.7250  220.2040 C   0  0  1  0  0  0  0  0  0  0  0  0
  139.8480   76.8910  221.1210 C   0  0  0  0  0  0  0  0  0  0  0  0
  138.5940   77.4940  221.2820 C   0  0  0  0  0  0  0  0  0  0  0  0
  138.4170   78.5880  222.1070 C   0  0  0  0  0  0  0  0  0  0  0  0
  139.5220   79.0740  222.7750 C   0  0  0  0  0  0  0  0  0  0  0  0
  139.3310   80.4430  223.8150 Cl  0  0  0  0  0  0  0  0  0  0  0  0
  140.7530   78.4700  222.6080 C   0  0  0  0  0  0  0  0  0  0  0  0
  142.1650   79.0830  223.4560 Cl  0  0  0  0  0  0  0  0  0  0  0  0
  140.9440   77.3780  221.7880 C   0  0  0  0  0  0  0  0  0  0  0  0
  142.1500   79.2890  218.7820 C   0  0  0  0  0  0  0  0  0  0  0  0
  142.0170   80.1120  217.6780 C   0  0  0  0  0  0  0  0  0  0  0  0
  141.6320   81.4230  217.7760 C   0  0  0  0  0  0  0  0  0  0  0  0
  141.3620   81.9620  219.0190 C   0  0  0  0  0  0  0  0  0  0  0  0
  140.9790   83.2630  219.1310 C   0  0  0  0  0  0  0  0  0  0  0  0
  140.7120   83.7930  220.3620 C   0  0  0  0  0  0  0  0  0  0  0  0
  140.8450   82.9730  221.4590 C   0  0  0  0  0  0  0  0  0  0  0  0
  141.2320   81.6570  221.3550 C   0  0  0  0  0  0  0  0  0  0  0  0
  141.5020   81.1200  220.1020 C   0  0  0  0  0  0  0  0  0  0  0  0
  141.8830   79.8310  219.9880 N   0  0  0  0  0  0  0  0  0  0  0  0
  143.0180   77.6460  220.6650 H   0  0  0  0  0  0  0  0  0  0  0  0
  144.1272   75.6472  218.7673 H   0  0  0  0  0  0  0  0  0  0  0  0
  143.9498   75.4123  220.5171 H   0  0  0  0  0  0  0  0  0  0  0  0
  141.5609   73.3532  221.5773 H   0  0  0  0  0  0  0  0  0  0  0  0
  141.5876   74.9221  222.4012 H   0  0  0  0  0  0  0  0  0  0  0  0
  139.3006   74.7846  222.8004 H   0  0  0  0  0  0  0  0  0  0  0  0
  138.6900   72.9610  223.1310 H   0  0  0  0  0  0  0  0  0  0  0  0
  138.9157   73.7808  219.9310 H   0  0  0  0  0  0  0  0  0  0  0  0
  137.8984   74.9089  220.7737 H   0  0  0  0  0  0  0  0  0  0  0  0
  139.6716   76.1631  219.2189 H   0  0  0  0  0  0  0  0  0  0  0  0
  137.7289   77.0865  220.7383 H   0  0  0  0  0  0  0  0  0  0  0  0
  137.4286   79.0557  222.2272 H   0  0  0  0  0  0  0  0  0  0  0  0
  141.9355   76.9156  221.6731 H   0  0  0  0  0  0  0  0  0  0  0  0
  142.2289   79.6970  216.6815 H   0  0  0  0  0  0  0  0  0  0  0  0
  141.5385   82.0420  216.8715 H   0  0  0  0  0  0  0  0  0  0  0  0
  140.8843   83.8880  218.2308 H   0  0  0  0  0  0  0  0  0  0  0  0
  140.4005   84.8422  220.4725 H   0  0  0  0  0  0  0  0  0  0  0  0
  140.6339   83.3853  222.4567 H   0  0  0  0  0  0  0  0  0  0  0  0
  141.3270   81.0344  222.2569 H   0  0  0  0  0  0  0  0  0  0  0  0
  1  2  2  0
  2  3  1  0
  3  4  1  0
  4  5  1  0
  5  6  2  0
  5  7  1  0
  7  8  1  0
  8  9  1  0
  9 10  1  0
  9 11  1  0
 11 12  1  0
 12 13  1  0
 13 14  2  0
 14 15  1  0
 15 16  2  0
 16 17  1  0
 16 18  1  0
 18 19  1  0
 18 20  2  0
  2 21  1  0
 21 22  2  0
 22 23  1  0
 23 24  2  0
 24 25  1  0
 25 26  2  0
 26 27  1  0
 27 28  2  0
 28 29  1  0
 29 30  2  0
 12  7  1  0
 20 13  1  0
 30 21  1  0
 29 24  1  0
  3 31  1  0
  4 32  1  0
  4 33  1  0
  8 34  1  0
  8 35  1  0
  9 36  1  1
 10 37  1  0
 11 38  1  0
 11 39  1  0
 12 40  1  6
 14 41  1  0
 15 42  1  0
 20 43  1  0
 22 44  1  0
 23 45  1  0
 25 46  1  0
 26 47  1  0
 27 48  1  0
 28 49  1  0
M  END
>  <smiles>  (2) 
O=C(NCC(=O)N1C[C@H](O)C[C@H]1c1ccc(Cl)c(Cl)c1)c1ccc2ccccc2n1

>  <score_type>  (2) 
oracle

>  <origin>  (2) 
autodockgpu

>  <m_score__min__energy>  (2) 
-9.2300000000000004

>  <m_primary>  (2) 
energy

>  <rmsd>  (2) 
9.75870391221568

>  <m_score__min__rmsd>  (2) 
9.75870391221568

>  <meeko>  (2) 
{"free_energy": -6.39, "intermolecular_energy": -8.18, "internal_energy": -2.9, "cluster_size": 1, "cluster_id": 9, "rank_in_cluster": 1}

>  <energy>  (2) 
-8.99

>  <cluster_rmsd>  (2) 
0.82

>  <cluster>  (2) 
1

$$$$

     RDKit          3D

 49 52  0  0  0  0  0  0  0  0999 V2000
  141.1780   74.8090  221.3410 O   0  0  0  0  0  0  0  0  0  0  0  0
  140.1050   75.1470  221.9490 C   0  0  0  0  0  0  0  0  0  0  0  0
  139.0740   74.2080  222.1960 N   0  0  0  0  0  0  0  0  0  0  0  0
  139.1990   72.8090  221.7620 C   0  0  0  0  0  0  0  0  0  0  0  0
  138.2530   72.0230  222.5990 C   0  0  0  0  0  0  0  0  0  0  0  0
  137.1730   72.5320  223.0400 O   0  0  0  0  0  0  0  0  0  0  0  0
  138.5650   70.6690  222.9120 N   0  0  0  0  0  0  0  0  0  0  0  0
  139.6160   69.8220  222.3530 C   0  0  0  0  0  0  0  0  0  0  0  0
  139.1490   68.4030  222.5300 C   0  0  2  0  0  0  0  0  0  0  0  0
  139.2430   67.6310  221.3820 O   0  0  0  0  0  0  0  0  0  0  0  0
  137.7430   68.5700  223.0120 C   0  0  0  0  0  0  0  0  0  0  0  0
  137.8820   69.8280  223.8790 C   0  0  1  0  0  0  0  0  0  0  0  0
  138.7240   69.5840  225.0770 C   0  0  0  0  0  0  0  0  0  0  0  0
  138.7680   68.2610  225.5310 C   0  0  0  0  0  0  0  0  0  0  0  0
  139.5140   67.8980  226.6360 C   0  0  0  0  0  0  0  0  0  0  0  0
  140.2210   68.8890  227.2860 C   0  0  0  0  0  0  0  0  0  0  0  0
  141.1640   68.4660  228.6730 Cl  0  0  0  0  0  0  0  0  0  0  0  0
  140.1690   70.1920  226.8270 C   0  0  0  0  0  0  0  0  0  0  0  0
  141.0670   71.4590  227.6490 Cl  0  0  0  0  0  0  0  0  0  0  0  0
  139.4290   70.5660  225.7260 C   0  0  0  0  0  0  0  0  0  0  0  0
  139.9480   76.5290  222.3950 C   0  0  0  0  0  0  0  0  0  0  0  0
  141.0610   77.2990  222.6820 C   0  0  0  0  0  0  0  0  0  0  0  0
  140.9710   78.6000  223.1030 C   0  0  0  0  0  0  0  0  0  0  0  0
  139.7260   79.1820  223.2520 C   0  0  0  0  0  0  0  0  0  0  0  0
  139.6230   80.4720  223.6700 C   0  0  0  0  0  0  0  0  0  0  0  0
  138.3910   81.0460  223.8170 C   0  0  0  0  0  0  0  0  0  0  0  0
  137.2850   80.2790  223.5310 C   0  0  0  0  0  0  0  0  0  0  0  0
  137.3810   78.9730  223.1080 C   0  0  0  0  0  0  0  0  0  0  0  0
  138.6350   78.3920  222.9590 C   0  0  0  0  0  0  0  0  0  0  0  0
  138.7420   77.1130  222.5460 N   0  0  0  0  0  0  0  0  0  0  0  0
  138.2220   74.5470  222.6980 H   0  0  0  0  0  0  0  0  0  0  0  0
  138.9339   72.7155  220.6985 H   0  0  0  0  0  0  0  0  0  0  0  0
  140.2308   72.4461  221.8789 H   0  0  0  0  0  0  0  0  0  0  0  0
  139.7591   70.0461  221.2856 H   0  0  0  0  0  0  0  0  0  0  0  0
  140.5791   69.9931  222.8562 H   0  0  0  0  0  0  0  0  0  0  0  0
  139.7823   67.8415  223.2326 H   0  0  0  0  0  0  0  0  0  0  0  0
  138.9970   66.7110  221.5920 H   0  0  0  0  0  0  0  0  0  0  0  0
  137.0452   68.7294  222.1767 H   0  0  0  0  0  0  0  0  0  0  0  0
  137.3368   67.6955  223.5413 H   0  0  0  0  0  0  0  0  0  0  0  0
  136.9469   70.2282  224.2977 H   0  0  0  0  0  0  0  0  0  0  0  0
  138.1943   67.4907  224.9948 H   0  0  0  0  0  0  0  0  0  0  0  0
  139.5433   66.8554  226.9854 H   0  0  0  0  0  0  0  0  0  0  0  0
  139.4046   71.6103  225.3813 H   0  0  0  0  0  0  0  0  0  0  0  0
  142.0582   76.8489  222.5677 H   0  0  0  0  0  0  0  0  0  0  0  0
  141.8821   79.1766  223.3206 H   0  0  0  0  0  0  0  0  0  0  0  0
  140.5306   81.0533  223.8897 H   0  0  0  0  0  0  0  0  0  0  0  0
  138.2871   82.0882  224.1533 H   0  0  0  0  0  0  0  0  0  0  0  0
  136.2866   80.7266  223.6448 H   0  0  0  0  0  0  0  0  0  0  0  0
  136.4722   78.3931  222.8894 H   0  0  0  0  0  0  0  0  0  0  0  0
  1  2  2  0
  2  3  1  0
  3  4  1  0
  4  5  1  0
  5  6  2  0
  5  7  1  0
  7  8  1  0
  8  9  1  0
  9 10  1  0
  9 11  1  0
 11 12  1  0
 12 13  1  0
 13 14  2  0
 14 15  1  0
 15 16  2  0
 16 17  1  0
 16 18  1  0
 18 19  1  0
 18 20  2  0
  2 21  1  0
 21 22  2  0
 22 23  1  0
 23 24  2  0
 24 25  1  0
 25 26  2  0
 26 27  1  0
 27 28  2  0
 28 29  1  0
 29 30  2  0
 12  7  1  0
 20 13  1  0
 30 21  1  0
 29 24  1  0
  3 31  1  0
  4 32  1  0
  4 33  1  0
  8 34  1  0
  8 35  1  0
  9 36  1  1
 10 37  1  0
 11 38  1  0
 11 39  1  0
 12 40  1  1
 14 41  1  0
 15 42  1  0
 20 43  1  0
 22 44  1  0
 23 45  1  0
 25 46  1  0
 26 47  1  0
 27 48  1  0
 28 49  1  0
M  END
>  <smiles>  (3) 
O=C(NCC(=O)N1C[C@H](O)C[C@H]1c1ccc(Cl)c(Cl)c1)c1ccc2ccccc2n1

>  <score_type>  (3) 
oracle

>  <origin>  (3) 
autodockgpu

>  <m_score__min__energy>  (3) 
-9.2300000000000004

>  <m_primary>  (3) 
energy

>  <rmsd>  (3) 
8.476598595024317

>  <m_score__min__rmsd>  (3) 
8.476598595024317

>  <meeko>  (3) 
{"free_energy": -8.04, "intermolecular_energy": -9.83, "internal_energy": -1.79, "cluster_size": 18, "cluster_id": 2, "rank_in_cluster": 17}

>  <energy>  (3) 
-8.73

>  <cluster_rmsd>  (3) 
0.71

>  <cluster>  (3) 
1

$$$$

     RDKit          3D

 49 52  0  0  0  0  0  0  0  0999 V2000
  140.4730   74.1150  222.2050 O   0  0  0  0  0  0  0  0  0  0  0  0
  139.5130   74.9240  221.9630 C   0  0  0  0  0  0  0  0  0  0  0  0
  138.3210   74.4820  221.3380 N   0  0  0  0  0  0  0  0  0  0  0  0
  138.1430   73.0770  220.9440 C   0  0  0  0  0  0  0  0  0  0  0  0
  137.7860   72.3350  222.1820 C   0  0  0  0  0  0  0  0  0  0  0  0
  136.9780   72.8200  223.0400 O   0  0  0  0  0  0  0  0  0  0  0  0
  138.3610   71.0530  222.4130 N   0  0  0  0  0  0  0  0  0  0  0  0
  139.5870   70.4890  221.8530 C   0  0  0  0  0  0  0  0  0  0  0  0
  139.4200   68.9950  221.9000 C   0  0  2  0  0  0  0  0  0  0  0  0
  139.7180   68.3560  220.7050 O   0  0  0  0  0  0  0  0  0  0  0  0
  137.9930   68.8290  222.3140 C   0  0  0  0  0  0  0  0  0  0  0  0
  137.8320   70.0120  223.2770 C   0  0  1  0  0  0  0  0  0  0  0  0
  138.6580   69.8480  224.4980 C   0  0  0  0  0  0  0  0  0  0  0  0
  138.6200   68.5820  225.0950 C   0  0  0  0  0  0  0  0  0  0  0  0
  139.3430   68.2960  226.2370 C   0  0  0  0  0  0  0  0  0  0  0  0
  140.1130   69.3050  226.7780 C   0  0  0  0  0  0  0  0  0  0  0  0
  141.0300   68.9780  228.2080 Cl  0  0  0  0  0  0  0  0  0  0  0  0
  140.1430   70.5510  226.1790 C   0  0  0  0  0  0  0  0  0  0  0  0
  141.1220   71.8400  226.8620 Cl  0  0  0  0  0  0  0  0  0  0  0  0
  139.4260   70.8480  225.0400 C   0  0  0  0  0  0  0  0  0  0  0  0
  139.6550   76.3270  222.3410 C   0  0  0  0  0  0  0  0  0  0  0  0
  138.5350   77.1240  222.4940 C   0  0  0  0  0  0  0  0  0  0  0  0
  138.6110   78.4460  222.8470 C   0  0  0  0  0  0  0  0  0  0  0  0
  139.8490   79.0220  223.0630 C   0  0  0  0  0  0  0  0  0  0  0  0
  139.9390   80.3330  223.4140 C   0  0  0  0  0  0  0  0  0  0  0  0
  141.1640   80.9000  223.6280 C   0  0  0  0  0  0  0  0  0  0  0  0
  142.2770   80.1060  223.4750 C   0  0  0  0  0  0  0  0  0  0  0  0
  142.1950   78.7790  223.1210 C   0  0  0  0  0  0  0  0  0  0  0  0
  140.9480   78.2040  222.9040 C   0  0  0  0  0  0  0  0  0  0  0  0
  140.8540   76.9050  222.5550 N   0  0  0  0  0  0  0  0  0  0  0  0
  137.5730   75.1930  221.1670 H   0  0  0  0  0  0  0  0  0  0  0  0
  137.3357   72.9895  220.2020 H   0  0  0  0  0  0  0  0  0  0  0  0
  139.0581   72.6724  220.4869 H   0  0  0  0  0  0  0  0  0  0  0  0
  139.7220   70.8253  220.8144 H   0  0  0  0  0  0  0  0  0  0  0  0
  140.4727   70.8118  222.4199 H   0  0  0  0  0  0  0  0  0  0  0  0
  140.1287   68.5195  222.5940 H   0  0  0  0  0  0  0  0  0  0  0  0
  138.9330   68.3710  220.1270 H   0  0  0  0  0  0  0  0  0  0  0  0
  137.3105   68.9106  221.4552 H   0  0  0  0  0  0  0  0  0  0  0  0
  137.7583   67.8488  222.7545 H   0  0  0  0  0  0  0  0  0  0  0  0
  136.8183   70.1752  223.6716 H   0  0  0  0  0  0  0  0  0  0  0  0
  137.9985   67.7949  224.6431 H   0  0  0  0  0  0  0  0  0  0  0  0
  139.3061   67.2984  226.6990 H   0  0  0  0  0  0  0  0  0  0  0  0
  139.4677   71.8477  224.5831 H   0  0  0  0  0  0  0  0  0  0  0  0
  137.5433   76.6788  222.3256 H   0  0  0  0  0  0  0  0  0  0  0  0
  137.6943   79.0439  222.9576 H   0  0  0  0  0  0  0  0  0  0  0  0
  139.0262   80.9366  223.5256 H   0  0  0  0  0  0  0  0  0  0  0  0
  141.2571   81.9582  223.9137 H   0  0  0  0  0  0  0  0  0  0  0  0
  143.2700   80.5488  223.6420 H   0  0  0  0  0  0  0  0  0  0  0  0
  143.1093   78.1775  223.0105 H   0  0  0  0  0  0  0  0  0  0  0  0
  1  2  2  0
  2  3  1  0
  3  4  1  0
  4  5  1  0
  5  6  2  0
  5  7  1  0
  7  8  1  0
  8  9  1  0
  9 10  1  0
  9 11  1  0
 11 12  1  0
 12 13  1  0
 13 14  2  0
 14 15  1  0
 15 16  2  0
 16 17  1  0
 16 18  1  0
 18 19  1  0
 18 20  2  0
  2 21  1  0
 21 22  2  0
 22 23  1  0
 23 24  2  0
 24 25  1  0
 25 26  2  0
 26 27  1  0
 27 28  2  0
 28 29  1  0
 29 30  2  0
 12  7  1  0
 20 13  1  0
 30 21  1  0
 29 24  1  0
  3 31  1  0
  4 32  1  0
  4 33  1  0
  8 34  1  0
  8 35  1  0
  9 36  1  1
 10 37  1  0
 11 38  1  0
 11 39  1  0
 12 40  1  1
 14 41  1  0
 15 42  1  0
 20 43  1  0
 22 44  1  0
 23 45  1  0
 25 46  1  0
 26 47  1  0
 27 48  1  0
 28 49  1  0
M  END
>  <smiles>  (4) 
O=C(NCC(=O)N1C[C@H](O)C[C@H]1c1ccc(Cl)c(Cl)c1)c1ccc2ccccc2n1

>  <score_type>  (4) 
oracle

>  <origin>  (4) 
autodockgpu

>  <m_score__min__energy>  (4) 
-9.2300000000000004

>  <m_primary>  (4) 
energy

>  <rmsd>  (4) 
8.047423042824073

>  <m_score__min__rmsd>  (4) 
8.047423042824073

>  <meeko>  (4) 
{"free_energy": -8.47, "intermolecular_energy": -10.26, "internal_energy": -1.42, "cluster_size": 18, "cluster_id": 2, "rank_in_cluster": 7}

>  <energy>  (4) 
-8.55

>  <cluster_rmsd>  (4) 
1.13

>  <cluster>  (4) 
1

$$$$

     RDKit          3D

 49 52  0  0  0  0  0  0  0  0999 V2000
  135.6440   75.1630  221.6900 O   0  0  0  0  0  0  0  0  0  0  0  0
  135.9320   74.3700  222.6510 C   0  0  0  0  0  0  0  0  0  0  0  0
  137.1390   73.6280  222.6530 N   0  0  0  0  0  0  0  0  0  0  0  0
  138.1050   73.7430  221.5510 C   0  0  0  0  0  0  0  0  0  0  0  0
  139.0920   74.7770  221.9630 C   0  0  0  0  0  0  0  0  0  0  0  0
  140.2910   74.4690  222.2660 O   0  0  0  0  0  0  0  0  0  0  0  0
  138.6860   76.1400  222.0190 N   0  0  0  0  0  0  0  0  0  0  0  0
  137.8030   76.7900  222.9840 C   0  0  0  0  0  0  0  0  0  0  0  0
  137.2260   77.9890  222.2830 C   0  0  2  0  0  0  0  0  0  0  0  0
  135.8480   78.0990  222.3940 O   0  0  0  0  0  0  0  0  0  0  0  0
  137.6890   77.8090  220.8730 C   0  0  0  0  0  0  0  0  0  0  0  0
  139.0770   77.1960  221.1000 C   0  0  1  0  0  0  0  0  0  0  0  0
  140.0080   78.1560  221.7420 C   0  0  0  0  0  0  0  0  0  0  0  0
  140.8790   77.6160  222.6960 C   0  0  0  0  0  0  0  0  0  0  0  0
  141.7960   78.4010  223.3680 C   0  0  0  0  0  0  0  0  0  0  0  0
  141.8290   79.7470  223.0690 C   0  0  0  0  0  0  0  0  0  0  0  0
  142.9660   80.7560  223.8950 Cl  0  0  0  0  0  0  0  0  0  0  0  0
  140.9640   80.2680  222.1250 C   0  0  0  0  0  0  0  0  0  0  0  0
  141.0010   81.9820  221.7390 Cl  0  0  0  0  0  0  0  0  0  0  0  0
  140.0450   79.4960  221.4480 C   0  0  0  0  0  0  0  0  0  0  0  0
  134.9950   74.2320  223.7610 C   0  0  0  0  0  0  0  0  0  0  0  0
  134.2280   75.3100  224.1640 C   0  0  0  0  0  0  0  0  0  0  0  0
  133.3330   75.2360  225.1990 C   0  0  0  0  0  0  0  0  0  0  0  0
  133.1790   74.0440  225.8800 C   0  0  0  0  0  0  0  0  0  0  0  0
  132.2950   73.9560  226.9100 C   0  0  0  0  0  0  0  0  0  0  0  0
  132.1430   72.7760  227.5820 C   0  0  0  0  0  0  0  0  0  0  0  0
  132.9060   71.7040  227.1810 C   0  0  0  0  0  0  0  0  0  0  0  0
  133.8030   71.7840  226.1400 C   0  0  0  0  0  0  0  0  0  0  0  0
  133.9550   72.9850  225.4580 C   0  0  0  0  0  0  0  0  0  0  0  0
  134.8310   73.0760  224.4370 N   0  0  0  0  0  0  0  0  0  0  0  0
  137.3160   72.9970  223.4670 H   0  0  0  0  0  0  0  0  0  0  0  0
  138.6099   72.7798  221.3857 H   0  0  0  0  0  0  0  0  0  0  0  0
  137.6059   74.0206  220.6109 H   0  0  0  0  0  0  0  0  0  0  0  0
  136.9996   76.1032  223.2888 H   0  0  0  0  0  0  0  0  0  0  0  0
  138.3484   77.0814  223.8937 H   0  0  0  0  0  0  0  0  0  0  0  0
  137.5648   78.9348  222.7310 H   0  0  0  0  0  0  0  0  0  0  0  0
  135.4350   77.2580  222.1220 H   0  0  0  0  0  0  0  0  0  0  0  0
  137.0314   77.1259  220.3154 H   0  0  0  0  0  0  0  0  0  0  0  0
  137.6919   78.7317  220.2741 H   0  0  0  0  0  0  0  0  0  0  0  0
  139.6161   76.8800  220.1947 H   0  0  0  0  0  0  0  0  0  0  0  0
  140.8320   76.5393  222.9161 H   0  0  0  0  0  0  0  0  0  0  0  0
  142.4764   77.9674  224.1157 H   0  0  0  0  0  0  0  0  0  0  0  0
  139.3678   79.9364  220.7014 H   0  0  0  0  0  0  0  0  0  0  0  0
  134.3411   76.2660  223.6318 H   0  0  0  0  0  0  0  0  0  0  0  0
  132.7420   76.1185  225.4852 H   0  0  0  0  0  0  0  0  0  0  0  0
  131.7021   74.8353  227.2022 H   0  0  0  0  0  0  0  0  0  0  0  0
  131.4329   72.6862  228.4173 H   0  0  0  0  0  0  0  0  0  0  0  0
  132.7952   70.7471  227.7121 H   0  0  0  0  0  0  0  0  0  0  0  0
  134.3952   70.9035  225.8501 H   0  0  0  0  0  0  0  0  0  0  0  0
  1  2  2  0
  2  3  1  0
  3  4  1  0
  4  5  1  0
  5  6  2  0
  5  7  1  0
  7  8  1  0
  8  9  1  0
  9 10  1  0
  9 11  1  0
 11 12  1  0
 12 13  1  0
 13 14  2  0
 14 15  1  0
 15 16  2  0
 16 17  1  0
 16 18  1  0
 18 19  1  0
 18 20  2  0
  2 21  1  0
 21 22  2  0
 22 23  1  0
 23 24  2  0
 24 25  1  0
 25 26  2  0
 26 27  1  0
 27 28  2  0
 28 29  1  0
 29 30  2  0
 12  7  1  0
 20 13  1  0
 30 21  1  0
 29 24  1  0
  3 31  1  0
  4 32  1  0
  4 33  1  0
  8 34  1  0
  8 35  1  0
  9 36  1  1
 10 37  1  0
 11 38  1  0
 11 39  1  0
 12 40  1  6
 14 41  1  0
 15 42  1  0
 20 43  1  0
 22 44  1  0
 23 45  1  0
 25 46  1  0
 26 47  1  0
 27 48  1  0
 28 49  1  0
M  END
>  <smiles>  (5) 
O=C(NCC(=O)N1C[C@H](O)C[C@H]1c1ccc(Cl)c(Cl)c1)c1ccc2ccccc2n1

>  <score_type>  (5) 
oracle

>  <origin>  (5) 
autodockgpu

>  <m_score__min__energy>  (5) 
-9.2300000000000004

>  <m_primary>  (5) 
energy

>  <rmsd>  (5) 
6.067348660769864

>  <m_score__min__rmsd>  (5) 
6.067348660769864

>  <meeko>  (5) 
{"free_energy": -6.92, "intermolecular_energy": -8.71, "internal_energy": -2.4, "cluster_size": 1, "cluster_id": 8, "rank_in_cluster": 1}

>  <energy>  (5) 
-8.53

>  <cluster_rmsd>  (5) 
1.06

>  <cluster>  (5) 
1

$$$$

     RDKit          3D

 49 52  0  0  0  0  0  0  0  0999 V2000
  139.4910   70.3650  221.5900 O   0  0  0  0  0  0  0  0  0  0  0  0
  139.4120   71.2810  222.4780 C   0  0  0  0  0  0  0  0  0  0  0  0
  138.9340   72.5750  222.1580 N   0  0  0  0  0  0  0  0  0  0  0  0
  138.5100   72.9130  220.7910 C   0  0  0  0  0  0  0  0  0  0  0  0
  138.3070   74.3870  220.7660 C   0  0  0  0  0  0  0  0  0  0  0  0
  137.1680   74.8970  220.5110 O   0  0  0  0  0  0  0  0  0  0  0  0
  139.4120   75.2440  221.0330 N   0  0  0  0  0  0  0  0  0  0  0  0
  139.8720   75.7660  222.3170 C   0  0  0  0  0  0  0  0  0  0  0  0
  140.6160   77.0370  222.0110 C   0  0  2  0  0  0  0  0  0  0  0  0
  140.2370   78.1160  222.7940 O   0  0  0  0  0  0  0  0  0  0  0  0
  140.3440   77.2420  220.5550 C   0  0  0  0  0  0  0  0  0  0  0  0
  140.3350   75.7930  220.0540 C   0  0  1  0  0  0  0  0  0  0  0  0
  141.6740   75.1630  220.1590 C   0  0  0  0  0  0  0  0  0  0  0  0
  142.7660   76.0180  219.9720 C   0  0  0  0  0  0  0  0  0  0  0  0
  144.0680   75.5590  220.0430 C   0  0  0  0  0  0  0  0  0  0  0  0
  144.2610   74.2190  220.3060 C   0  0  0  0  0  0  0  0  0  0  0  0
  145.8800   73.6140  220.4010 Cl  0  0  0  0  0  0  0  0  0  0  0  0
  143.1750   73.3850  220.4890 C   0  0  0  0  0  0  0  0  0  0  0  0
  143.4140   71.6760  220.8260 Cl  0  0  0  0  0  0  0  0  0  0  0  0
  141.8720   73.8300  220.4210 C   0  0  0  0  0  0  0  0  0  0  0  0
  139.8240   70.9800  223.8460 C   0  0  0  0  0  0  0  0  0  0  0  0
  140.5770   71.8920  224.5640 C   0  0  0  0  0  0  0  0  0  0  0  0
  140.9900   71.6610  225.8500 C   0  0  0  0  0  0  0  0  0  0  0  0
  140.6510   70.4730  226.4700 C   0  0  0  0  0  0  0  0  0  0  0  0
  141.0550   70.2310  227.7460 C   0  0  0  0  0  0  0  0  0  0  0  0
  140.7180   69.0560  228.3570 C   0  0  0  0  0  0  0  0  0  0  0  0
  139.9690   68.1490  227.6420 C   0  0  0  0  0  0  0  0  0  0  0  0
  139.5560   68.3870  226.3510 C   0  0  0  0  0  0  0  0  0  0  0  0
  139.9000   69.5820  225.7320 C   0  0  0  0  0  0  0  0  0  0  0  0
  139.5020   69.8270  224.4670 N   0  0  0  0  0  0  0  0  0  0  0  0
  138.8940   73.2800  222.9290 H   0  0  0  0  0  0  0  0  0  0  0  0
  139.2879   72.6239  220.0690 H   0  0  0  0  0  0  0  0  0  0  0  0
  137.5885   72.3790  220.5160 H   0  0  0  0  0  0  0  0  0  0  0  0
  139.0142   75.9748  222.9731 H   0  0  0  0  0  0  0  0  0  0  0  0
  140.5147   75.0407  222.8375 H   0  0  0  0  0  0  0  0  0  0  0  0
  141.6883   76.9573  222.2428 H   0  0  0  0  0  0  0  0  0  0  0  0
  139.2670   78.2110  222.7630 H   0  0  0  0  0  0  0  0  0  0  0  0
  139.3734   77.7327  220.3902 H   0  0  0  0  0  0  0  0  0  0  0  0
  141.0683   77.8943  220.0452 H   0  0  0  0  0  0  0  0  0  0  0  0
  140.0653   75.6522  218.9969 H   0  0  0  0  0  0  0  0  0  0  0  0
  142.5836   77.0825  219.7632 H   0  0  0  0  0  0  0  0  0  0  0  0
  144.9201   76.2386  219.8949 H   0  0  0  0  0  0  0  0  0  0  0  0
  141.0249   73.1445  220.5707 H   0  0  0  0  0  0  0  0  0  0  0  0
  140.8555   72.8412  224.0829 H   0  0  0  0  0  0  0  0  0  0  0  0
  141.5865   72.4149  226.3846 H   0  0  0  0  0  0  0  0  0  0  0  0
  141.6525   70.9805  228.2857 H   0  0  0  0  0  0  0  0  0  0  0  0
  141.0354   68.8416  229.3882 H   0  0  0  0  0  0  0  0  0  0  0  0
  139.6902   67.1985  228.1204 H   0  0  0  0  0  0  0  0  0  0  0  0
  138.9580   67.6365  225.8133 H   0  0  0  0  0  0  0  0  0  0  0  0
  1  2  2  0
  2  3  1  0
  3  4  1  0
  4  5  1  0
  5  6  2  0
  5  7  1  0
  7  8  1  0
  8  9  1  0
  9 10  1  0
  9 11  1  0
 11 12  1  0
 12 13  1  0
 13 14  2  0
 14 15  1  0
 15 16  2  0
 16 17  1  0
 16 18  1  0
 18 19  1  0
 18 20  2  0
  2 21  1  0
 21 22  2  0
 22 23  1  0
 23 24  2  0
 24 25  1  0
 25 26  2  0
 26 27  1  0
 27 28  2  0
 28 29  1  0
 29 30  2  0
 12  7  1  0
 20 13  1  0
 30 21  1  0
 29 24  1  0
  3 31  1  0
  4 32  1  0
  4 33  1  0
  8 34  1  0
  8 35  1  0
  9 36  1  6
 10 37  1  0
 11 38  1  0
 11 39  1  0
 12 40  1  6
 14 41  1  0
 15 42  1  0
 20 43  1  0
 22 44  1  0
 23 45  1  0
 25 46  1  0
 26 47  1  0
 27 48  1  0
 28 49  1  0
M  END
>  <smiles>  (6) 
O=C(NCC(=O)N1C[C@H](O)C[C@H]1c1ccc(Cl)c(Cl)c1)c1ccc2ccccc2n1

>  <score_type>  (6) 
oracle

>  <origin>  (6) 
autodockgpu

>  <m_score__min__energy>  (6) 
-9.2300000000000004

>  <m_primary>  (6) 
energy

>  <rmsd>  (6) 
3.1076354189030995

>  <m_score__min__rmsd>  (6) 
3.1076354189030995

>  <meeko>  (6) 
{"free_energy": -8.09, "intermolecular_energy": -9.88, "internal_energy": -1.69, "cluster_size": 7, "cluster_id": 4, "rank_in_cluster": 4}

>  <energy>  (6) 
-8.52

>  <cluster_rmsd>  (6) 
1.13

>  <cluster>  (6) 
1

$$$$

     RDKit          3D

 49 52  0  0  0  0  0  0  0  0999 V2000
  139.0640   71.0980  221.3450 O   0  0  0  0  0  0  0  0  0  0  0  0
  139.3190   71.8140  222.3730 C   0  0  0  0  0  0  0  0  0  0  0  0
  139.3390   73.2280  222.2970 N   0  0  0  0  0  0  0  0  0  0  0  0
  139.0670   73.9260  221.0320 C   0  0  0  0  0  0  0  0  0  0  0  0
  140.3870   74.1570  220.3860 C   0  0  0  0  0  0  0  0  0  0  0  0
  141.1620   73.1910  220.0900 O   0  0  0  0  0  0  0  0  0  0  0  0
  140.7920   75.4900  220.0940 N   0  0  0  0  0  0  0  0  0  0  0  0
  140.3420   76.3640  219.0130 C   0  0  0  0  0  0  0  0  0  0  0  0
  141.4570   77.3470  218.7770 C   0  0  2  0  0  0  0  0  0  0  0  0
  141.8190   77.4810  217.4450 O   0  0  0  0  0  0  0  0  0  0  0  0
  142.5600   76.8150  219.6350 C   0  0  0  0  0  0  0  0  0  0  0  0
  141.7640   76.2790  220.8310 C   0  0  1  0  0  0  0  0  0  0  0  0
  141.1100   77.3700  221.5950 C   0  0  0  0  0  0  0  0  0  0  0  0
  139.7920   77.1270  221.9980 C   0  0  0  0  0  0  0  0  0  0  0  0
  139.0680   78.0600  222.7150 C   0  0  0  0  0  0  0  0  0  0  0  0
  139.6900   79.2520  223.0260 C   0  0  0  0  0  0  0  0  0  0  0  0
  138.8100   80.4420  223.9230 Cl  0  0  0  0  0  0  0  0  0  0  0  0
  140.9920   79.4800  222.6220 C   0  0  0  0  0  0  0  0  0  0  0  0
  141.7900   80.9960  223.0150 Cl  0  0  0  0  0  0  0  0  0  0  0  0
  141.7240   78.5570  221.9070 C   0  0  0  0  0  0  0  0  0  0  0  0
  139.5940   71.1540  223.6460 C   0  0  0  0  0  0  0  0  0  0  0  0
  139.3510   69.8000  223.7960 C   0  0  0  0  0  0  0  0  0  0  0  0
  139.5910   69.1300  224.9670 C   0  0  0  0  0  0  0  0  0  0  0  0
  140.0960   69.8200  226.0530 C   0  0  0  0  0  0  0  0  0  0  0  0
  140.3380   69.1680  227.2220 C   0  0  0  0  0  0  0  0  0  0  0  0
  140.8380   69.8510  228.2950 C   0  0  0  0  0  0  0  0  0  0  0  0
  141.0800   71.1970  228.1450 C   0  0  0  0  0  0  0  0  0  0  0  0
  140.8380   71.8650  226.9660 C   0  0  0  0  0  0  0  0  0  0  0  0
  140.3290   71.1670  225.8760 C   0  0  0  0  0  0  0  0  0  0  0  0
  140.0870   71.8110  224.7160 N   0  0  0  0  0  0  0  0  0  0  0  0
  139.5540   73.7560  223.1730 H   0  0  0  0  0  0  0  0  0  0  0  0
  138.4303   73.3052  220.3845 H   0  0  0  0  0  0  0  0  0  0  0  0
  138.5375   74.8743  221.2063 H   0  0  0  0  0  0  0  0  0  0  0  0
  140.1516   75.7772  218.1022 H   0  0  0  0  0  0  0  0  0  0  0  0
  139.4045   76.8762  219.2752 H   0  0  0  0  0  0  0  0  0  0  0  0
  141.1662   78.3757  219.0362 H   0  0  0  0  0  0  0  0  0  0  0  0
  142.0510   76.6050  217.0850 H   0  0  0  0  0  0  0  0  0  0  0  0
  143.1163   76.0132  219.1274 H   0  0  0  0  0  0  0  0  0  0  0  0
  143.3299   77.5558  219.8967 H   0  0  0  0  0  0  0  0  0  0  0  0
  142.3478   75.7437  221.5943 H   0  0  0  0  0  0  0  0  0  0  0  0
  139.3202   76.1682  221.7371 H   0  0  0  0  0  0  0  0  0  0  0  0
  138.0323   77.8598  223.0269 H   0  0  0  0  0  0  0  0  0  0  0  0
  142.7595   78.7635  221.5985 H   0  0  0  0  0  0  0  0  0  0  0  0
  138.9486   69.2384  222.9400 H   0  0  0  0  0  0  0  0  0  0  0  0
  139.3836   68.0523  225.0421 H   0  0  0  0  0  0  0  0  0  0  0  0
  140.1312   68.0907  227.3038 H   0  0  0  0  0  0  0  0  0  0  0  0
  141.0405   69.3408  229.2482 H   0  0  0  0  0  0  0  0  0  0  0  0
  141.4821   71.7608  228.9997 H   0  0  0  0  0  0  0  0  0  0  0  0
  141.0455   72.9423  226.8866 H   0  0  0  0  0  0  0  0  0  0  0  0
  1  2  2  0
  2  3  1  0
  3  4  1  0
  4  5  1  0
  5  6  2  0
  5  7  1  0
  7  8  1  0
  8  9  1  0
  9 10  1  0
  9 11  1  0
 11 12  1  0
 12 13  1  0
 13 14  2  0
 14 15  1  0
 15 16  2  0
 16 17  1  0
 16 18  1  0
 18 19  1  0
 18 20  2  0
  2 21  1  0
 21 22  2  0
 22 23  1  0
 23 24  2  0
 24 25  1  0
 25 26  2  0
 26 27  1  0
 27 28  2  0
 28 29  1  0
 29 30  2  0
 12  7  1  0
 20 13  1  0
 30 21  1  0
 29 24  1  0
  3 31  1  0
  4 32  1  0
  4 33  1  0
  8 34  1  0
  8 35  1  0
  9 36  1  1
 10 37  1  0
 11 38  1  0
 11 39  1  0
 12 40  1  1
 14 41  1  0
 15 42  1  0
 20 43  1  0
 22 44  1  0
 23 45  1  0
 25 46  1  0
 26 47  1  0
 27 48  1  0
 28 49  1  0
M  END
>  <smiles>  (7) 
O=C(NCC(=O)N1C[C@H](O)C[C@H]1c1ccc(Cl)c(Cl)c1)c1ccc2ccccc2n1

>  <score_type>  (7) 
oracle

>  <origin>  (7) 
autodockgpu

>  <m_score__min__energy>  (7) 
-9.2300000000000004

>  <m_primary>  (7) 
energy

>  <rmsd>  (7) 
1.5414073944519722

>  <m_score__min__rmsd>  (7) 
1.5414073944519722

>  <meeko>  (7) 
{"free_energy": -8.28, "intermolecular_energy": -10.07, "internal_energy": -1.51, "cluster_size": 9, "cluster_id": 3, "rank_in_cluster": 5}

>  <energy>  (7) 
-8.44

>  <cluster_rmsd>  (7) 
1.17

>  <cluster>  (7) 
1

$$$$

     RDKit          3D

 49 52  0  0  0  0  0  0  0  0999 V2000
  141.4040   75.2520  221.2680 O   0  0  0  0  0  0  0  0  0  0  0  0
  140.3270   75.4790  221.9190 C   0  0  0  0  0  0  0  0  0  0  0  0
  139.4040   74.4400  222.1960 N   0  0  0  0  0  0  0  0  0  0  0  0
  139.6510   73.0630  221.7460 C   0  0  0  0  0  0  0  0  0  0  0  0
  138.4780   72.2600  222.1840 C   0  0  0  0  0  0  0  0  0  0  0  0
  137.3110   72.7680  222.2500 O   0  0  0  0  0  0  0  0  0  0  0  0
  138.6650   70.8940  222.5360 N   0  0  0  0  0  0  0  0  0  0  0  0
  139.6400   69.9410  222.0110 C   0  0  0  0  0  0  0  0  0  0  0  0
  139.0460   68.5750  222.2210 C   0  0  2  0  0  0  0  0  0  0  0  0
  139.0790   67.7660  221.0950 O   0  0  0  0  0  0  0  0  0  0  0  0
  137.6580   68.8800  222.6840 C   0  0  0  0  0  0  0  0  0  0  0  0
  137.9020   70.1430  223.5190 C   0  0  1  0  0  0  0  0  0  0  0  0
  138.7100   69.8590  224.7310 C   0  0  0  0  0  0  0  0  0  0  0  0
  138.6820   68.5350  225.1840 C   0  0  0  0  0  0  0  0  0  0  0  0
  139.3900   68.1360  226.3010 C   0  0  0  0  0  0  0  0  0  0  0  0
  140.1330   69.0910  226.9650 C   0  0  0  0  0  0  0  0  0  0  0  0
  141.0300   68.6220  228.3680 Cl  0  0  0  0  0  0  0  0  0  0  0  0
  140.1520   70.3950  226.5070 C   0  0  0  0  0  0  0  0  0  0  0  0
  141.0970   71.6160  227.3460 Cl  0  0  0  0  0  0  0  0  0  0  0  0
  139.4500   70.8050  225.3940 C   0  0  0  0  0  0  0  0  0  0  0  0
  140.0500   76.8360  222.3810 C   0  0  0  0  0  0  0  0  0  0  0  0
  141.0920   77.6910  222.6940 C   0  0  0  0  0  0  0  0  0  0  0  0
  140.8890   78.9740  223.1320 C   0  0  0  0  0  0  0  0  0  0  0  0
  139.5990   79.4480  223.2730 C   0  0  0  0  0  0  0  0  0  0  0  0
  139.3840   80.7190  223.7070 C   0  0  0  0  0  0  0  0  0  0  0  0
  138.1070   81.1870  223.8450 C   0  0  0  0  0  0  0  0  0  0  0  0
  137.0720   80.3350  223.5340 C   0  0  0  0  0  0  0  0  0  0  0  0
  137.2810   79.0480  223.0940 C   0  0  0  0  0  0  0  0  0  0  0  0
  138.5800   78.5750  222.9540 C   0  0  0  0  0  0  0  0  0  0  0  0
  138.7980   77.3150  222.5250 N   0  0  0  0  0  0  0  0  0  0  0  0
  138.5430   74.6900  222.7320 H   0  0  0  0  0  0  0  0  0  0  0  0
  139.7452   73.0321  220.6505 H   0  0  0  0  0  0  0  0  0  0  0  0
  140.5855   72.6670  222.1701 H   0  0  0  0  0  0  0  0  0  0  0  0
  139.8113   70.1218  220.9396 H   0  0  0  0  0  0  0  0  0  0  0  0
  140.6104   70.0388  222.5196 H   0  0  0  0  0  0  0  0  0  0  0  0
  139.6211   67.9787  222.9446 H   0  0  0  0  0  0  0  0  0  0  0  0
  138.2280   67.2970  221.0110 H   0  0  0  0  0  0  0  0  0  0  0  0
  136.9839   69.0786  221.8378 H   0  0  0  0  0  0  0  0  0  0  0  0
  137.1712   68.0598  223.2320 H   0  0  0  0  0  0  0  0  0  0  0  0
  137.0028   70.6351  223.9182 H   0  0  0  0  0  0  0  0  0  0  0  0
  138.0812   67.7936  224.6369 H   0  0  0  0  0  0  0  0  0  0  0  0
  139.3626   67.0930  226.6493 H   0  0  0  0  0  0  0  0  0  0  0  0
  139.4818   71.8496  225.0508 H   0  0  0  0  0  0  0  0  0  0  0  0
  142.1244   77.3266  222.5871 H   0  0  0  0  0  0  0  0  0  0  0  0
  141.7464   79.6210  223.3693 H   0  0  0  0  0  0  0  0  0  0  0  0
  140.2375   81.3702  223.9469 H   0  0  0  0  0  0  0  0  0  0  0  0
  137.9129   82.2121  224.1936 H   0  0  0  0  0  0  0  0  0  0  0  0
  136.0386   80.6964  223.6412 H   0  0  0  0  0  0  0  0  0  0  0  0
  136.4261   78.3985  222.8549 H   0  0  0  0  0  0  0  0  0  0  0  0
  1  2  2  0
  2  3  1  0
  3  4  1  0
  4  5  1  0
  5  6  2  0
  5  7  1  0
  7  8  1  0
  8  9  1  0
  9 10  1  0
  9 11  1  0
 11 12  1  0
 12 13  1  0
 13 14  2  0
 14 15  1  0
 15 16  2  0
 16 17  1  0
 16 18  1  0
 18 19  1  0
 18 20  2  0
  2 21  1  0
 21 22  2  0
 22 23  1  0
 23 24  2  0
 24 25  1  0
 25 26  2  0
 26 27  1  0
 27 28  2  0
 28 29  1  0
 29 30  2  0
 12  7  1  0
 20 13  1  0
 30 21  1  0
 29 24  1  0
  3 31  1  0
  4 32  1  0
  4 33  1  0
  8 34  1  0
  8 35  1  0
  9 36  1  1
 10 37  1  0
 11 38  1  0
 11 39  1  0
 12 40  1  1
 14 41  1  0
 15 42  1  0
 20 43  1  0
 22 44  1  0
 23 45  1  0
 25 46  1  0
 26 47  1  0
 27 48  1  0
 28 49  1  0
M  END
>  <smiles>  (8) 
O=C(NCC(=O)N1C[C@H](O)C[C@H]1c1ccc(Cl)c(Cl)c1)c1ccc2ccccc2n1

>  <score_type>  (8) 
oracle

>  <origin>  (8) 
autodockgpu

>  <m_score__min__energy>  (8) 
-9.2300000000000004

>  <m_primary>  (8) 
energy

>  <rmsd>  (8) 
8.489575083907361

>  <m_score__min__rmsd>  (8) 
8.489575083907361

>  <meeko>  (8) 
{"free_energy": -8.12, "intermolecular_energy": -9.91, "internal_energy": -1.7, "cluster_size": 18, "cluster_id": 2, "rank_in_cluster": 15}

>  <energy>  (8) 
-8.41

>  <cluster_rmsd>  (8) 
1.63

>  <cluster>  (8) 
1

$$$$

     RDKit          3D

 49 52  0  0  0  0  0  0  0  0999 V2000
  138.9690   70.5190  221.5800 O   0  0  0  0  0  0  0  0  0  0  0  0
  139.0470   71.3920  222.5110 C   0  0  0  0  0  0  0  0  0  0  0  0
  138.6550   72.7360  222.2920 N   0  0  0  0  0  0  0  0  0  0  0  0
  138.1440   73.1760  220.9860 C   0  0  0  0  0  0  0  0  0  0  0  0
  139.3210   73.2590  220.0800 C   0  0  0  0  0  0  0  0  0  0  0  0
  139.5450   72.3680  219.1970 O   0  0  0  0  0  0  0  0  0  0  0  0
  140.2150   74.3600  220.2030 N   0  0  0  0  0  0  0  0  0  0  0  0
  140.6590   75.2940  219.1720 C   0  0  0  0  0  0  0  0  0  0  0  0
  141.9900   75.8240  219.6320 C   0  0  2  0  0  0  0  0  0  0  0  0
  142.9810   75.7770  218.6630 O   0  0  0  0  0  0  0  0  0  0  0  0
  142.2940   74.9760  220.8250 C   0  0  0  0  0  0  0  0  0  0  0  0
  140.8910   74.7910  221.4150 C   0  0  1  0  0  0  0  0  0  0  0  0
  140.3310   76.0680  221.9220 C   0  0  0  0  0  0  0  0  0  0  0  0
  138.9340   76.1680  221.9120 C   0  0  0  0  0  0  0  0  0  0  0  0
  138.2850   77.3030  222.3580 C   0  0  0  0  0  0  0  0  0  0  0  0
  139.0610   78.3470  222.8170 C   0  0  0  0  0  0  0  0  0  0  0  0
  138.2760   79.7830  223.3810 Cl  0  0  0  0  0  0  0  0  0  0  0  0
  140.4380   78.2370  222.8220 C   0  0  0  0  0  0  0  0  0  0  0  0
  141.4330   79.5620  223.4070 Cl  0  0  0  0  0  0  0  0  0  0  0  0
  141.0980   77.1100  222.3810 C   0  0  0  0  0  0  0  0  0  0  0  0
  139.5500   70.9890  223.8210 C   0  0  0  0  0  0  0  0  0  0  0  0
  140.3270   71.8580  224.5660 C   0  0  0  0  0  0  0  0  0  0  0  0
  140.8240   71.5310  225.8010 C   0  0  0  0  0  0  0  0  0  0  0  0
  140.5500   70.2880  226.3370 C   0  0  0  0  0  0  0  0  0  0  0  0
  141.0380   69.9500  227.5610 C   0  0  0  0  0  0  0  0  0  0  0  0
  140.7640   68.7200  228.0900 C   0  0  0  0  0  0  0  0  0  0  0  0
  139.9920   67.8570  227.3480 C   0  0  0  0  0  0  0  0  0  0  0  0
  139.4940   68.1900  226.1090 C   0  0  0  0  0  0  0  0  0  0  0  0
  139.7730   69.4420  225.5730 C   0  0  0  0  0  0  0  0  0  0  0  0
  139.2920   69.7800  224.3600 N   0  0  0  0  0  0  0  0  0  0  0  0
  138.7430   73.4010  223.0930 H   0  0  0  0  0  0  0  0  0  0  0  0
  137.4158   72.4486  220.5978 H   0  0  0  0  0  0  0  0  0  0  0  0
  137.6324   74.1466  221.0647 H   0  0  0  0  0  0  0  0  0  0  0  0
  140.7675   74.7750  218.2082 H   0  0  0  0  0  0  0  0  0  0  0  0
  139.9320   76.1067  219.0269 H   0  0  0  0  0  0  0  0  0  0  0  0
  141.9524   76.8985  219.8646 H   0  0  0  0  0  0  0  0  0  0  0  0
  143.8470   75.9470  219.0800 H   0  0  0  0  0  0  0  0  0  0  0  0
  142.7403   74.0137  220.5339 H   0  0  0  0  0  0  0  0  0  0  0  0
  143.0248   75.4151  221.5201 H   0  0  0  0  0  0  0  0  0  0  0  0
  140.8196   74.1155  222.2802 H   0  0  0  0  0  0  0  0  0  0  0  0
  138.3386   75.3214  221.5396 H   0  0  0  0  0  0  0  0  0  0  0  0
  137.1872   77.3719  222.3475 H   0  0  0  0  0  0  0  0  0  0  0  0
  142.1962   77.0480  222.3963 H   0  0  0  0  0  0  0  0  0  0  0  0
  140.5550   72.8508  224.1509 H   0  0  0  0  0  0  0  0  0  0  0  0
  141.4364   72.2531  226.3609 H   0  0  0  0  0  0  0  0  0  0  0  0
  141.6531   70.6667  228.1250 H   0  0  0  0  0  0  0  0  0  0  0  0
  141.1490   68.4293  229.0786 H   0  0  0  0  0  0  0  0  0  0  0  0
  139.7639   66.8631  227.7604 H   0  0  0  0  0  0  0  0  0  0  0  0
  138.8799   67.4709  225.5470 H   0  0  0  0  0  0  0  0  0  0  0  0
  1  2  2  0
  2  3  1  0
  3  4  1  0
  4  5  1  0
  5  6  2  0
  5  7  1  0
  7  8  1  0
  8  9  1  0
  9 10  1  0
  9 11  1  0
 11 12  1  0
 12 13  1  0
 13 14  2  0
 14 15  1  0
 15 16  2  0
 16 17  1  0
 16 18  1  0
 18 19  1  0
 18 20  2  0
  2 21  1  0
 21 22  2  0
 22 23  1  0
 23 24  2  0
 24 25  1  0
 25 26  2  0
 26 27  1  0
 27 28  2  0
 28 29  1  0
 29 30  2  0
 12  7  1  0
 20 13  1  0
 30 21  1  0
 29 24  1  0
  3 31  1  0
  4 32  1  0
  4 33  1  0
  8 34  1  0
  8 35  1  0
  9 36  1  1
 10 37  1  0
 11 38  1  0
 11 39  1  0
 12 40  1  1
 14 41  1  0
 15 42  1  0
 20 43  1  0
 22 44  1  0
 23 45  1  0
 25 46  1  0
 26 47  1  0
 27 48  1  0
 28 49  1  0
M  END
>  <smiles>  (9) 
O=C(NCC(=O)N1C[C@H](O)C[C@H]1c1ccc(Cl)c(Cl)c1)c1ccc2ccccc2n1

>  <score_type>  (9) 
oracle

>  <origin>  (9) 
autodockgpu

>  <m_score__min__energy>  (9) 
-9.2300000000000004

>  <m_primary>  (9) 
energy

>  <rmsd>  (9) 
2.9037437313308745

>  <m_score__min__rmsd>  (9) 
2.9037437313308745

>  <meeko>  (9) 
{"free_energy": -8.03, "intermolecular_energy": -9.82, "internal_energy": -1.46, "cluster_size": 9, "cluster_id": 3, "rank_in_cluster": 8}

>  <energy>  (9) 
-8.34

>  <cluster_rmsd>  (9) 
1.2

>  <cluster>  (9) 
1

$$$$

     RDKit          3D

 49 52  0  0  0  0  0  0  0  0999 V2000
  138.5270   76.2400  220.3850 O   0  0  0  0  0  0  0  0  0  0  0  0
  138.9680   76.2340  221.5850 C   0  0  0  0  0  0  0  0  0  0  0  0
  138.9710   75.0480  222.3600 N   0  0  0  0  0  0  0  0  0  0  0  0
  138.4660   73.7810  221.8130 C   0  0  0  0  0  0  0  0  0  0  0  0
  139.5890   72.8080  221.9000 C   0  0  0  0  0  0  0  0  0  0  0  0
  140.7800   73.1380  221.5930 O   0  0  0  0  0  0  0  0  0  0  0  0
  139.3230   71.4800  222.3360 N   0  0  0  0  0  0  0  0  0  0  0  0
  139.9600   70.2350  221.9120 C   0  0  0  0  0  0  0  0  0  0  0  0
  138.9580   69.1430  222.1690 C   0  0  2  0  0  0  0  0  0  0  0  0
  138.7640   68.2900  221.0930 O   0  0  0  0  0  0  0  0  0  0  0  0
  137.7260   69.9000  222.5480 C   0  0  0  0  0  0  0  0  0  0  0  0
  138.3340   71.0760  223.3210 C   0  0  1  0  0  0  0  0  0  0  0  0
  138.9760   70.6350  224.5850 C   0  0  0  0  0  0  0  0  0  0  0  0
  138.6640   69.3360  225.0050 C   0  0  0  0  0  0  0  0  0  0  0  0
  139.1940   68.8030  226.1640 C   0  0  0  0  0  0  0  0  0  0  0  0
  140.0480   69.5950  226.9030 C   0  0  0  0  0  0  0  0  0  0  0  0
  140.7280   68.9540  228.3600 Cl  0  0  0  0  0  0  0  0  0  0  0  0
  140.3490   70.8750  226.4770 C   0  0  0  0  0  0  0  0  0  0  0  0
  141.4370   71.8890  227.4120 Cl  0  0  0  0  0  0  0  0  0  0  0  0
  139.8270   71.4190  225.3230 C   0  0  0  0  0  0  0  0  0  0  0  0
  139.4770   77.4760  222.1600 C   0  0  0  0  0  0  0  0  0  0  0  0
  138.6000   78.4210  222.6630 C   0  0  0  0  0  0  0  0  0  0  0  0
  139.0230   79.6030  223.2140 C   0  0  0  0  0  0  0  0  0  0  0  0
  140.3750   79.8780  223.2760 C   0  0  0  0  0  0  0  0  0  0  0  0
  140.8090   81.0470  223.8200 C   0  0  0  0  0  0  0  0  0  0  0  0
  142.1470   81.3170  223.8810 C   0  0  0  0  0  0  0  0  0  0  0  0
  143.0180   80.3770  223.3800 C   0  0  0  0  0  0  0  0  0  0  0  0
  142.5880   79.1910  222.8290 C   0  0  0  0  0  0  0  0  0  0  0  0
  141.2260   78.9190  222.7680 C   0  0  0  0  0  0  0  0  0  0  0  0
  140.7930   77.7610  222.2290 N   0  0  0  0  0  0  0  0  0  0  0  0
  139.3440   75.1090  223.3340 H   0  0  0  0  0  0  0  0  0  0  0  0
  137.6088   73.4263  222.4041 H   0  0  0  0  0  0  0  0  0  0  0  0
  138.1240   73.9032  220.7747 H   0  0  0  0  0  0  0  0  0  0  0  0
  140.2096   70.2795  220.8416 H   0  0  0  0  0  0  0  0  0  0  0  0
  140.8969   70.0569  222.4602 H   0  0  0  0  0  0  0  0  0  0  0  0
  139.2941   68.4465  222.9512 H   0  0  0  0  0  0  0  0  0  0  0  0
  138.8980   68.7840  220.2630 H   0  0  0  0  0  0  0  0  0  0  0  0
  137.1727   70.2421  221.6609 H   0  0  0  0  0  0  0  0  0  0  0  0
  136.9900   69.3138  223.1178 H   0  0  0  0  0  0  0  0  0  0  0  0
  137.6265   71.8524  223.6476 H   0  0  0  0  0  0  0  0  0  0  0  0
  137.9803   68.7252  224.3972 H   0  0  0  0  0  0  0  0  0  0  0  0
  138.9435   67.7817  226.4866 H   0  0  0  0  0  0  0  0  0  0  0  0
  140.0824   72.4410  225.0062 H   0  0  0  0  0  0  0  0  0  0  0  0
  137.5203   78.2156  222.6189 H   0  0  0  0  0  0  0  0  0  0  0  0
  138.2915   80.3264  223.6035 H   0  0  0  0  0  0  0  0  0  0  0  0
  140.0827   81.7748  224.2108 H   0  0  0  0  0  0  0  0  0  0  0  0
  142.5165   82.2568  224.3171 H   0  0  0  0  0  0  0  0  0  0  0  0
  144.0982   80.5808  223.4213 H   0  0  0  0  0  0  0  0  0  0  0  0
  143.3164   78.4642  222.4400 H   0  0  0  0  0  0  0  0  0  0  0  0
  1  2  2  0
  2  3  1  0
  3  4  1  0
  4  5  1  0
  5  6  2  0
  5  7  1  0
  7  8  1  0
  8  9  1  0
  9 10  1  0
  9 11  1  0
 11 12  1  0
 12 13  1  0
 13 14  2  0
 14 15  1  0
 15 16  2  0
 16 17  1  0
 16 18  1  0
 18 19  1  0
 18 20  2  0
  2 21  1  0
 21 22  2  0
 22 23  1  0
 23 24  2  0
 24 25  1  0
 25 26  2  0
 26 27  1  0
 27 28  2  0
 28 29  1  0
 29 30  2  0
 12  7  1  0
 20 13  1  0
 30 21  1  0
 29 24  1  0
  3 31  1  0
  4 32  1  0
  4 33  1  0
  8 34  1  0
  8 35  1  0
  9 36  1  1
 10 37  1  0
 11 38  1  0
 11 39  1  0
 12 40  1  1
 14 41  1  0
 15 42  1  0
 20 43  1  0
 22 44  1  0
 23 45  1  0
 25 46  1  0
 26 47  1  0
 27 48  1  0
 28 49  1  0
M  END
>  <smiles>  (10) 
O=C(NCC(=O)N1C[C@H](O)C[C@H]1c1ccc(Cl)c(Cl)c1)c1ccc2ccccc2n1

>  <score_type>  (10) 
oracle

>  <origin>  (10) 
autodockgpu

>  <m_score__min__energy>  (10) 
-9.2300000000000004

>  <m_primary>  (10) 
energy

>  <rmsd>  (10) 
8.315833672396815

>  <m_score__min__rmsd>  (10) 
8.315833672396815

>  <meeko>  (10) 
{"free_energy": -8.74, "intermolecular_energy": -10.53, "internal_energy": -1.0, "cluster_size": 18, "cluster_id": 2, "rank_in_cluster": 4}

>  <energy>  (10) 
-8.26

>  <cluster_rmsd>  (10) 
1.26

>  <cluster>  (10) 
1

$$$$

     RDKit          3D

 49 52  0  0  0  0  0  0  0  0999 V2000
  137.9100   70.8420  222.0060 O   0  0  0  0  0  0  0  0  0  0  0  0
  138.7290   71.3020  222.8730 C   0  0  0  0  0  0  0  0  0  0  0  0
  139.2640   72.6090  222.7570 N   0  0  0  0  0  0  0  0  0  0  0  0
  138.8960   73.4840  221.6350 C   0  0  0  0  0  0  0  0  0  0  0  0
  139.8970   74.5850  221.6140 C   0  0  0  0  0  0  0  0  0  0  0  0
  141.1050   74.3930  221.9720 O   0  0  0  0  0  0  0  0  0  0  0  0
  139.4950   75.8800  221.1830 N   0  0  0  0  0  0  0  0  0  0  0  0
  138.2370   76.5780  221.4430 C   0  0  0  0  0  0  0  0  0  0  0  0
  138.0660   77.5640  220.3190 C   0  0  2  0  0  0  0  0  0  0  0  0
  136.8140   77.5290  219.7240 O   0  0  0  0  0  0  0  0  0  0  0  0
  139.1730   77.2000  219.3820 C   0  0  0  0  0  0  0  0  0  0  0  0
  140.2730   76.8020  220.3730 C   0  0  1  0  0  0  0  0  0  0  0  0
  140.7450   77.9600  221.1720 C   0  0  0  0  0  0  0  0  0  0  0  0
  141.1130   77.6800  222.4930 C   0  0  0  0  0  0  0  0  0  0  0  0
  141.5700   78.6680  223.3430 C   0  0  0  0  0  0  0  0  0  0  0  0
  141.6530   79.9530  222.8480 C   0  0  0  0  0  0  0  0  0  0  0  0
  142.2210   81.2130  223.8890 Cl  0  0  0  0  0  0  0  0  0  0  0  0
  141.2870   80.2170  221.5420 C   0  0  0  0  0  0  0  0  0  0  0  0
  141.3910   81.8510  220.9030 Cl  0  0  0  0  0  0  0  0  0  0  0  0
  140.8300   79.2400  220.6830 C   0  0  0  0  0  0  0  0  0  0  0  0
  139.1160   70.4590  224.0000 C   0  0  0  0  0  0  0  0  0  0  0  0
  138.8470   69.1020  223.9800 C   0  0  0  0  0  0  0  0  0  0  0  0
  139.1880   68.2650  225.0100 C   0  0  0  0  0  0  0  0  0  0  0  0
  139.8260   68.7810  226.1220 C   0  0  0  0  0  0  0  0  0  0  0  0
  140.1690   67.9620  227.1530 C   0  0  0  0  0  0  0  0  0  0  0  0
  140.8010   68.4740  228.2510 C   0  0  0  0  0  0  0  0  0  0  0  0
  141.0680   69.8230  228.2700 C   0  0  0  0  0  0  0  0  0  0  0  0
  140.7240   70.6590  227.2320 C   0  0  0  0  0  0  0  0  0  0  0  0
  140.0820   70.1360  226.1160 C   0  0  0  0  0  0  0  0  0  0  0  0
  139.7390   70.9450  225.0930 N   0  0  0  0  0  0  0  0  0  0  0  0
  139.9290   72.9260  223.4980 H   0  0  0  0  0  0  0  0  0  0  0  0
  138.9275   72.9232  220.6892 H   0  0  0  0  0  0  0  0  0  0  0  0
  137.8750   73.8759  221.7535 H   0  0  0  0  0  0  0  0  0  0  0  0
  137.4000   75.8643  221.4553 H   0  0  0  0  0  0  0  0  0  0  0  0
  138.2520   77.0821  222.4206 H   0  0  0  0  0  0  0  0  0  0  0  0
  138.1212   78.6059  220.6673 H   0  0  0  0  0  0  0  0  0  0  0  0
  136.1870   78.0460  220.2630 H   0  0  0  0  0  0  0  0  0  0  0  0
  138.8917   76.3591  218.7310 H   0  0  0  0  0  0  0  0  0  0  0  0
  139.4586   78.0003  218.6835 H   0  0  0  0  0  0  0  0  0  0  0  0
  141.1963   76.4016  219.9291 H   0  0  0  0  0  0  0  0  0  0  0  0
  141.0363   76.6471  222.8635 H   0  0  0  0  0  0  0  0  0  0  0  0
  141.8580   78.4381  224.3794 H   0  0  0  0  0  0  0  0  0  0  0  0
  140.5449   79.4767  219.6473 H   0  0  0  0  0  0  0  0  0  0  0  0
  138.3387   68.6777  223.1015 H   0  0  0  0  0  0  0  0  0  0  0  0
  138.9558   67.1913  224.9522 H   0  0  0  0  0  0  0  0  0  0  0  0
  139.9376   66.8878  227.1026 H   0  0  0  0  0  0  0  0  0  0  0  0
  141.0873   67.8273  229.0935 H   0  0  0  0  0  0  0  0  0  0  0  0
  141.5755   70.2499  229.1476 H   0  0  0  0  0  0  0  0  0  0  0  0
  140.9555   71.7330  227.2855 H   0  0  0  0  0  0  0  0  0  0  0  0
  1  2  2  0
  2  3  1  0
  3  4  1  0
  4  5  1  0
  5  6  2  0
  5  7  1  0
  7  8  1  0
  8  9  1  0
  9 10  1  0
  9 11  1  0
 11 12  1  0
 12 13  1  0
 13 14  2  0
 14 15  1  0
 15 16  2  0
 16 17  1  0
 16 18  1  0
 18 19  1  0
 18 20  2  0
  2 21  1  0
 21 22  2  0
 22 23  1  0
 23 24  2  0
 24 25  1  0
 25 26  2  0
 26 27  1  0
 27 28  2  0
 28 29  1  0
 29 30  2  0
 12  7  1  0
 20 13  1  0
 30 21  1  0
 29 24  1  0
  3 31  1  0
  4 32  1  0
  4 33  1  0
  8 34  1  0
  8 35  1  0
  9 36  1  1
 10 37  1  0
 11 38  1  0
 11 39  1  0
 12 40  1  6
 14 41  1  0
 15 42  1  0
 20 43  1  0
 22 44  1  0
 23 45  1  0
 25 46  1  0
 26 47  1  0
 27 48  1  0
 28 49  1  0
M  END
>  <smiles>  (11) 
O=C(NCC(=O)N1C[C@H](O)C[C@H]1c1ccc(Cl)c(Cl)c1)c1ccc2ccccc2n1

>  <score_type>  (11) 
oracle

>  <origin>  (11) 
autodockgpu

>  <m_score__min__energy>  (11) 
-9.2300000000000004

>  <m_primary>  (11) 
energy

>  <rmsd>  (11) 
1.8610708490016419

>  <m_score__min__rmsd>  (11) 
1.8610708490016419

>  <meeko>  (11) 
{"free_energy": -8.53, "intermolecular_energy": -10.32, "internal_energy": -1.73, "cluster_size": 11, "cluster_id": 1, "rank_in_cluster": 5}

>  <energy>  (11) 
-8.07

>  <cluster_rmsd>  (11) 
1.69

>  <cluster>  (11) 
1

$$$$

     RDKit          3D

 49 52  0  0  0  0  0  0  0  0999 V2000
  139.4860   71.1370  221.3120 O   0  0  0  0  0  0  0  0  0  0  0  0
  139.5460   71.8600  222.3650 C   0  0  0  0  0  0  0  0  0  0  0  0
  139.3720   73.2650  222.3010 N   0  0  0  0  0  0  0  0  0  0  0  0
  139.1150   73.9420  221.0220 C   0  0  0  0  0  0  0  0  0  0  0  0
  140.4440   74.2000  220.4070 C   0  0  0  0  0  0  0  0  0  0  0  0
  141.2470   73.2490  220.1330 O   0  0  0  0  0  0  0  0  0  0  0  0
  140.8270   75.5400  220.1190 N   0  0  0  0  0  0  0  0  0  0  0  0
  140.3500   76.4160  219.0510 C   0  0  0  0  0  0  0  0  0  0  0  0
  141.4480   77.4150  218.8070 C   0  0  2  0  0  0  0  0  0  0  0  0
  141.7870   77.5640  217.4700 O   0  0  0  0  0  0  0  0  0  0  0  0
  142.5710   76.8910  219.6430 C   0  0  0  0  0  0  0  0  0  0  0  0
  141.8000   76.3360  220.8480 C   0  0  1  0  0  0  0  0  0  0  0  0
  141.1440   77.4130  221.6290 C   0  0  0  0  0  0  0  0  0  0  0  0
  139.8270   77.1590  222.0310 C   0  0  0  0  0  0  0  0  0  0  0  0
  139.1020   78.0780  222.7640 C   0  0  0  0  0  0  0  0  0  0  0  0
  139.7200   79.2670  223.0920 C   0  0  0  0  0  0  0  0  0  0  0  0
  138.8370   80.4390  224.0090 Cl  0  0  0  0  0  0  0  0  0  0  0  0
  141.0200   79.5070  222.6900 C   0  0  0  0  0  0  0  0  0  0  0  0
  141.8140   81.0190  223.1040 Cl  0  0  0  0  0  0  0  0  0  0  0  0
  141.7540   78.5970  221.9580 C   0  0  0  0  0  0  0  0  0  0  0  0
  139.8000   71.2200  223.6520 C   0  0  0  0  0  0  0  0  0  0  0  0
  139.5230   69.8760  223.8280 C   0  0  0  0  0  0  0  0  0  0  0  0
  139.7420   69.2240  225.0140 C   0  0  0  0  0  0  0  0  0  0  0  0
  140.2600   69.9230  226.0870 C   0  0  0  0  0  0  0  0  0  0  0  0
  140.4820   69.2890  227.2700 C   0  0  0  0  0  0  0  0  0  0  0  0
  140.9960   69.9820  228.3310 C   0  0  0  0  0  0  0  0  0  0  0  0
  141.2710   71.3190  228.1540 C   0  0  0  0  0  0  0  0  0  0  0  0
  141.0490   71.9680  226.9610 C   0  0  0  0  0  0  0  0  0  0  0  0
  140.5280   71.2610  225.8840 C   0  0  0  0  0  0  0  0  0  0  0  0
  140.3060   71.8860  224.7100 N   0  0  0  0  0  0  0  0  0  0  0  0
  139.4330   73.8000  223.1970 H   0  0  0  0  0  0  0  0  0  0  0  0
  138.5110   73.2982  220.3658 H   0  0  0  0  0  0  0  0  0  0  0  0
  138.5575   74.8783  221.1722 H   0  0  0  0  0  0  0  0  0  0  0  0
  140.1545   75.8335  218.1386 H   0  0  0  0  0  0  0  0  0  0  0  0
  139.4096   76.9136  219.3302 H   0  0  0  0  0  0  0  0  0  0  0  0
  141.1485   78.4376  219.0801 H   0  0  0  0  0  0  0  0  0  0  0  0
  141.9700   76.6870  217.0850 H   0  0  0  0  0  0  0  0  0  0  0  0
  143.1292   76.1000  219.1207 H   0  0  0  0  0  0  0  0  0  0  0  0
  143.3358   77.6394  219.8979 H   0  0  0  0  0  0  0  0  0  0  0  0
  142.4016   75.8028  221.5988 H   0  0  0  0  0  0  0  0  0  0  0  0
  139.3577   76.2029  221.7559 H   0  0  0  0  0  0  0  0  0  0  0  0
  138.0679   77.8692  223.0754 H   0  0  0  0  0  0  0  0  0  0  0  0
  142.7879   78.8122  221.6501 H   0  0  0  0  0  0  0  0  0  0  0  0
  139.1101   69.3073  222.9818 H   0  0  0  0  0  0  0  0  0  0  0  0
  139.5073   68.1537  225.1103 H   0  0  0  0  0  0  0  0  0  0  0  0
  140.2481   68.2191  227.3731 H   0  0  0  0  0  0  0  0  0  0  0  0
  141.1837   69.4867  229.2951 H   0  0  0  0  0  0  0  0  0  0  0  0
  141.6839   71.8905  228.9983 H   0  0  0  0  0  0  0  0  0  0  0  0
  141.2822   73.0383  226.8606 H   0  0  0  0  0  0  0  0  0  0  0  0
  1  2  2  0
  2  3  1  0
  3  4  1  0
  4  5  1  0
  5  6  2  0
  5  7  1  0
  7  8  1  0
  8  9  1  0
  9 10  1  0
  9 11  1  0
 11 12  1  0
 12 13  1  0
 13 14  2  0
 14 15  1  0
 15 16  2  0
 16 17  1  0
 16 18  1  0
 18 19  1  0
 18 20  2  0
  2 21  1  0
 21 22  2  0
 22 23  1  0
 23 24  2  0
 24 25  1  0
 25 26  2  0
 26 27  1  0
 27 28  2  0
 28 29  1  0
 29 30  2  0
 12  7  1  0
 20 13  1  0
 30 21  1  0
 29 24  1  0
  3 31  1  0
  4 32  1  0
  4 33  1  0
  8 34  1  0
  8 35  1  0
  9 36  1  1
 10 37  1  0
 11 38  1  0
 11 39  1  0
 12 40  1  1
 14 41  1  0
 15 42  1  0
 20 43  1  0
 22 44  1  0
 23 45  1  0
 25 46  1  0
 26 47  1  0
 27 48  1  0
 28 49  1  0
M  END
>  <smiles>  (12) 
O=C(NCC(=O)N1C[C@H](O)C[C@H]1c1ccc(Cl)c(Cl)c1)c1ccc2ccccc2n1

>  <score_type>  (12) 
oracle

>  <origin>  (12) 
autodockgpu

>  <m_score__min__energy>  (12) 
-9.2300000000000004

>  <m_primary>  (12) 
energy

>  <rmsd>  (12) 
1.5979899063604532

>  <m_score__min__rmsd>  (12) 
1.5979899063604532

>  <meeko>  (12) 
{"free_energy": -8.37, "intermolecular_energy": -10.16, "internal_energy": -1.48, "cluster_size": 9, "cluster_id": 3, "rank_in_cluster": 4}

>  <energy>  (12) 
-8.84

>  <cluster_rmsd>  (12) 
0.0

>  <cluster>  (12) 
2

$$$$

     RDKit          3D

 49 52  0  0  0  0  0  0  0  0999 V2000
  137.2470   76.3650  222.4050 O   0  0  0  0  0  0  0  0  0  0  0  0
  138.5250   76.4000  222.4460 C   0  0  0  0  0  0  0  0  0  0  0  0
  139.2990   75.2360  222.2170 N   0  0  0  0  0  0  0  0  0  0  0  0
  138.6620   73.9440  221.9220 C   0  0  0  0  0  0  0  0  0  0  0  0
  139.7630   72.9530  221.7880 C   0  0  0  0  0  0  0  0  0  0  0  0
  140.9050   73.2840  221.3300 O   0  0  0  0  0  0  0  0  0  0  0  0
  139.5340   71.6040  222.1820 N   0  0  0  0  0  0  0  0  0  0  0  0
  140.2770   70.4050  221.8030 C   0  0  0  0  0  0  0  0  0  0  0  0
  139.3180   69.2540  221.9530 C   0  0  2  0  0  0  0  0  0  0  0  0
  139.2740   68.4110  220.8530 O   0  0  0  0  0  0  0  0  0  0  0  0
  138.0160   69.9360  222.2240 C   0  0  0  0  0  0  0  0  0  0  0  0
  138.4820   71.1300  223.0650 C   0  0  1  0  0  0  0  0  0  0  0  0
  139.0280   70.7030  224.3770 C   0  0  0  0  0  0  0  0  0  0  0  0
  138.6080   69.4470  224.8330 C   0  0  0  0  0  0  0  0  0  0  0  0
  139.0410   68.9310  226.0380 C   0  0  0  0  0  0  0  0  0  0  0  0
  139.9100   69.6960  226.7890 C   0  0  0  0  0  0  0  0  0  0  0  0
  140.4700   69.0770  228.3040 Cl  0  0  0  0  0  0  0  0  0  0  0  0
  140.3180   70.9340  226.3280 C   0  0  0  0  0  0  0  0  0  0  0  0
  141.4250   71.9140  227.2790 Cl  0  0  0  0  0  0  0  0  0  0  0  0
  139.8930   71.4600  225.1270 C   0  0  0  0  0  0  0  0  0  0  0  0
  139.1900   77.6670  222.7360 C   0  0  0  0  0  0  0  0  0  0  0  0
  138.4440   78.7960  223.0230 C   0  0  0  0  0  0  0  0  0  0  0  0
  139.0160   80.0090  223.3020 C   0  0  0  0  0  0  0  0  0  0  0  0
  140.3920   80.1280  223.3010 C   0  0  0  0  0  0  0  0  0  0  0  0
  140.9740   81.3270  223.5760 C   0  0  0  0  0  0  0  0  0  0  0  0
  142.3360   81.4420  223.5740 C   0  0  0  0  0  0  0  0  0  0  0  0
  143.0770   80.3190  223.2890 C   0  0  0  0  0  0  0  0  0  0  0  0
  142.4970   79.1020  223.0090 C   0  0  0  0  0  0  0  0  0  0  0  0
  141.1120   78.9870  223.0120 C   0  0  0  0  0  0  0  0  0  0  0  0
  140.5320   77.8010  222.7390 N   0  0  0  0  0  0  0  0  0  0  0  0
  140.3390   75.3310  222.2650 H   0  0  0  0  0  0  0  0  0  0  0  0
  137.9887   73.6558  222.7427 H   0  0  0  0  0  0  0  0  0  0  0  0
  138.0598   73.9973  221.0030 H   0  0  0  0  0  0  0  0  0  0  0  0
  140.6204   70.4823  220.7608 H   0  0  0  0  0  0  0  0  0  0  0  0
  141.1688   70.2694  222.4325 H   0  0  0  0  0  0  0  0  0  0  0  0
  139.6177   68.5634  222.7550 H   0  0  0  0  0  0  0  0  0  0  0  0
  139.9190   67.6900  220.9740 H   0  0  0  0  0  0  0  0  0  0  0  0
  137.5294   70.2627  221.2931 H   0  0  0  0  0  0  0  0  0  0  0  0
  137.2644   69.3006  222.7153 H   0  0  0  0  0  0  0  0  0  0  0  0
  137.7046   71.8604  223.3335 H   0  0  0  0  0  0  0  0  0  0  0  0
  137.9154   68.8566  224.2151 H   0  0  0  0  0  0  0  0  0  0  0  0
  138.7048   67.9437  226.3876 H   0  0  0  0  0  0  0  0  0  0  0  0
  140.2337   72.4477  224.7831 H   0  0  0  0  0  0  0  0  0  0  0  0
  137.3469   78.7165  223.0273 H   0  0  0  0  0  0  0  0  0  0  0  0
  138.3844   80.8815  223.5251 H   0  0  0  0  0  0  0  0  0  0  0  0
  140.3483   82.2036  223.7999 H   0  0  0  0  0  0  0  0  0  0  0  0
  142.8243   82.4029  223.7935 H   0  0  0  0  0  0  0  0  0  0  0  0
  144.1743   80.3959  223.2846 H   0  0  0  0  0  0  0  0  0  0  0  0
  143.1252   78.2273  222.7846 H   0  0  0  0  0  0  0  0  0  0  0  0
  1  2  2  0
  2  3  1  0
  3  4  1  0
  4  5  1  0
  5  6  2  0
  5  7  1  0
  7  8  1  0
  8  9  1  0
  9 10  1  0
  9 11  1  0
 11 12  1  0
 12 13  1  0
 13 14  2  0
 14 15  1  0
 15 16  2  0
 16 17  1  0
 16 18  1  0
 18 19  1  0
 18 20  2  0
  2 21  1  0
 21 22  2  0
 22 23  1  0
 23 24  2  0
 24 25  1  0
 25 26  2  0
 26 27  1  0
 27 28  2  0
 28 29  1  0
 29 30  2  0
 12  7  1  0
 20 13  1  0
 30 21  1  0
 29 24  1  0
  3 31  1  0
  4 32  1  0
  4 33  1  0
  8 34  1  0
  8 35  1  0
  9 36  1  1
 10 37  1  0
 11 38  1  0
 11 39  1  0
 12 40  1  1
 14 41  1  0
 15 42  1  0
 20 43  1  0
 22 44  1  0
 23 45  1  0
 25 46  1  0
 26 47  1  0
 27 48  1  0
 28 49  1  0
M  END
>  <smiles>  (13) 
O=C(NCC(=O)N1C[C@H](O)C[C@H]1c1ccc(Cl)c(Cl)c1)c1ccc2ccccc2n1

>  <score_type>  (13) 
oracle

>  <origin>  (13) 
autodockgpu

>  <m_score__min__energy>  (13) 
-9.2300000000000004

>  <m_primary>  (13) 
energy

>  <rmsd>  (13) 
8.384259417291329

>  <m_score__min__rmsd>  (13) 
8.384259417291329

>  <meeko>  (13) 
{"free_energy": -8.17, "intermolecular_energy": -9.96, "internal_energy": -1.79, "cluster_size": 18, "cluster_id": 2, "rank_in_cluster": 14}

>  <energy>  (13) 
-8.8

>  <cluster_rmsd>  (13) 
0.35

>  <cluster>  (13) 
2

$$$$

     RDKit          3D

 49 52  0  0  0  0  0  0  0  0999 V2000
  137.2910   76.3060  222.5840 O   0  0  0  0  0  0  0  0  0  0  0  0
  138.5590   76.4190  222.4580 C   0  0  0  0  0  0  0  0  0  0  0  0
  139.3620   75.3150  222.0820 N   0  0  0  0  0  0  0  0  0  0  0  0
  138.7670   73.9960  221.8220 C   0  0  0  0  0  0  0  0  0  0  0  0
  139.8440   72.9960  222.0510 C   0  0  0  0  0  0  0  0  0  0  0  0
  141.0750   73.3200  222.0010 O   0  0  0  0  0  0  0  0  0  0  0  0
  139.4890   71.6460  222.3320 N   0  0  0  0  0  0  0  0  0  0  0  0
  140.1160   70.4180  221.8500 C   0  0  0  0  0  0  0  0  0  0  0  0
  139.0540   69.3540  221.9100 C   0  0  2  0  0  0  0  0  0  0  0  0
  138.9310   68.6140  220.7440 O   0  0  0  0  0  0  0  0  0  0  0  0
  137.8210   70.1290  222.2470 C   0  0  0  0  0  0  0  0  0  0  0  0
  138.3980   71.2000  223.1810 C   0  0  1  0  0  0  0  0  0  0  0  0
  138.9010   70.6150  224.4490 C   0  0  0  0  0  0  0  0  0  0  0  0
  138.5020   69.2990  224.7140 C   0  0  0  0  0  0  0  0  0  0  0  0
  138.9000   68.6370  225.8590 C   0  0  0  0  0  0  0  0  0  0  0  0
  139.7110   69.3180  226.7440 C   0  0  0  0  0  0  0  0  0  0  0  0
  140.2260   68.5150  228.1880 Cl  0  0  0  0  0  0  0  0  0  0  0  0
  140.0980   70.6160  226.4710 C   0  0  0  0  0  0  0  0  0  0  0  0
  141.1320   71.4880  227.5930 Cl  0  0  0  0  0  0  0  0  0  0  0  0
  139.7080   71.2870  225.3320 C   0  0  0  0  0  0  0  0  0  0  0  0
  139.1830   77.7150  222.7100 C   0  0  0  0  0  0  0  0  0  0  0  0
  138.4010   78.8460  222.8680 C   0  0  0  0  0  0  0  0  0  0  0  0
  138.9330   80.0860  223.1060 C   0  0  0  0  0  0  0  0  0  0  0  0
  140.3040   80.2320  223.1930 C   0  0  0  0  0  0  0  0  0  0  0  0
  140.8460   81.4570  223.4280 C   0  0  0  0  0  0  0  0  0  0  0  0
  142.2030   81.5990  223.5140 C   0  0  0  0  0  0  0  0  0  0  0  0
  142.9790   80.4740  223.3560 C   0  0  0  0  0  0  0  0  0  0  0  0
  142.4390   79.2310  223.1180 C   0  0  0  0  0  0  0  0  0  0  0  0
  141.0600   79.0890  223.0310 C   0  0  0  0  0  0  0  0  0  0  0  0
  140.5190   77.8760  222.7980 N   0  0  0  0  0  0  0  0  0  0  0  0
  140.3910   75.4730  221.9970 H   0  0  0  0  0  0  0  0  0  0  0  0
  137.9277   73.8152  222.5097 H   0  0  0  0  0  0  0  0  0  0  0  0
  138.3746   73.9311  220.7964 H   0  0  0  0  0  0  0  0  0  0  0  0
  140.4665   70.5492  220.8156 H   0  0  0  0  0  0  0  0  0  0  0  0
  140.9900   70.1474  222.4607 H   0  0  0  0  0  0  0  0  0  0  0  0
  139.2882   68.5737  222.6491 H   0  0  0  0  0  0  0  0  0  0  0  0
  139.3990   67.7650  220.8510 H   0  0  0  0  0  0  0  0  0  0  0  0
  137.3669   70.5763  221.3505 H   0  0  0  0  0  0  0  0  0  0  0  0
  137.0130   69.5278  222.6893 H   0  0  0  0  0  0  0  0  0  0  0  0
  137.6933   71.9754  223.5159 H   0  0  0  0  0  0  0  0  0  0  0  0
  137.8551   68.7793  223.9918 H   0  0  0  0  0  0  0  0  0  0  0  0
  138.5817   67.6031  226.0585 H   0  0  0  0  0  0  0  0  0  0  0  0
  140.0310   72.3206  225.1385 H   0  0  0  0  0  0  0  0  0  0  0  0
  137.3078   78.7452  222.7997 H   0  0  0  0  0  0  0  0  0  0  0  0
  138.2738   80.9582  223.2268 H   0  0  0  0  0  0  0  0  0  0  0  0
  140.1925   82.3336  223.5489 H   0  0  0  0  0  0  0  0  0  0  0  0
  142.6599   82.5815  223.7035 H   0  0  0  0  0  0  0  0  0  0  0  0
  144.0726   80.5719  223.4225 H   0  0  0  0  0  0  0  0  0  0  0  0
  143.0947   78.3560  222.9975 H   0  0  0  0  0  0  0  0  0  0  0  0
  1  2  2  0
  2  3  1  0
  3  4  1  0
  4  5  1  0
  5  6  2  0
  5  7  1  0
  7  8  1  0
  8  9  1  0
  9 10  1  0
  9 11  1  0
 11 12  1  0
 12 13  1  0
 13 14  2  0
 14 15  1  0
 15 16  2  0
 16 17  1  0
 16 18  1  0
 18 19  1  0
 18 20  2  0
  2 21  1  0
 21 22  2  0
 22 23  1  0
 23 24  2  0
 24 25  1  0
 25 26  2  0
 26 27  1  0
 27 28  2  0
 28 29  1  0
 29 30  2  0
 12  7  1  0
 20 13  1  0
 30 21  1  0
 29 24  1  0
  3 31  1  0
  4 32  1  0
  4 33  1  0
  8 34  1  0
  8 35  1  0
  9 36  1  1
 10 37  1  0
 11 38  1  0
 11 39  1  0
 12 40  1  1
 14 41  1  0
 15 42  1  0
 20 43  1  0
 22 44  1  0
 23 45  1  0
 25 46  1  0
 26 47  1  0
 27 48  1  0
 28 49  1  0
M  END
>  <smiles>  (14) 
O=C(NCC(=O)N1C[C@H](O)C[C@H]1c1ccc(Cl)c(Cl)c1)c1ccc2ccccc2n1

>  <score_type>  (14) 
oracle

>  <origin>  (14) 
autodockgpu

>  <m_score__min__energy>  (14) 
-9.2300000000000004

>  <m_primary>  (14) 
energy

>  <rmsd>  (14) 
8.426541687160643

>  <m_score__min__rmsd>  (14) 
8.426541687160643

>  <meeko>  (14) 
{"free_energy": -8.43, "intermolecular_energy": -10.22, "internal_energy": -1.71, "cluster_size": 18, "cluster_id": 2, "rank_in_cluster": 9}

>  <energy>  (14) 
-8.8

>  <cluster_rmsd>  (14) 
0.15

>  <cluster>  (14) 
2

$$$$

     RDKit          3D

 49 52  0  0  0  0  0  0  0  0999 V2000
  137.3070   76.0830  222.4530 O   0  0  0  0  0  0  0  0  0  0  0  0
  138.5790   76.1990  222.3940 C   0  0  0  0  0  0  0  0  0  0  0  0
  139.4030   75.0950  222.0660 N   0  0  0  0  0  0  0  0  0  0  0  0
  138.8250   73.7740  221.7810 C   0  0  0  0  0  0  0  0  0  0  0  0
  139.8420   72.7710  222.1980 C   0  0  0  0  0  0  0  0  0  0  0  0
  141.0790   73.0650  222.2650 O   0  0  0  0  0  0  0  0  0  0  0  0
  139.4200   71.4520  222.5300 N   0  0  0  0  0  0  0  0  0  0  0  0
  139.9350   70.1780  222.0360 C   0  0  0  0  0  0  0  0  0  0  0  0
  138.8130   69.1860  222.1840 C   0  0  2  0  0  0  0  0  0  0  0  0
  138.5690   68.4350  221.0440 O   0  0  0  0  0  0  0  0  0  0  0  0
  137.6560   70.0460  222.5810 C   0  0  0  0  0  0  0  0  0  0  0  0
  138.3580   71.0930  223.4540 C   0  0  1  0  0  0  0  0  0  0  0  0
  138.9020   70.4980  224.7010 C   0  0  0  0  0  0  0  0  0  0  0  0
  138.5400   69.1700  224.9510 C   0  0  0  0  0  0  0  0  0  0  0  0
  138.9780   68.4980  226.0760 C   0  0  0  0  0  0  0  0  0  0  0  0
  139.7920   69.1820  226.9550 C   0  0  0  0  0  0  0  0  0  0  0  0
  140.3570   68.3670  228.3730 Cl  0  0  0  0  0  0  0  0  0  0  0  0
  140.1430   70.4930  226.6960 C   0  0  0  0  0  0  0  0  0  0  0  0
  141.1810   71.3710  227.8110 Cl  0  0  0  0  0  0  0  0  0  0  0  0
  139.7120   71.1740  225.5780 C   0  0  0  0  0  0  0  0  0  0  0  0
  139.1860   77.4980  222.6720 C   0  0  0  0  0  0  0  0  0  0  0  0
  138.3890   78.6080  222.8850 C   0  0  0  0  0  0  0  0  0  0  0  0
  138.9050   79.8500  223.1500 C   0  0  0  0  0  0  0  0  0  0  0  0
  140.2750   80.0180  223.2090 C   0  0  0  0  0  0  0  0  0  0  0  0
  140.8020   81.2450  223.4710 C   0  0  0  0  0  0  0  0  0  0  0  0
  142.1570   81.4080  223.5300 C   0  0  0  0  0  0  0  0  0  0  0  0
  142.9490   80.3030  223.3180 C   0  0  0  0  0  0  0  0  0  0  0  0
  142.4250   79.0580  223.0530 C   0  0  0  0  0  0  0  0  0  0  0  0
  141.0460   78.8940  222.9940 C   0  0  0  0  0  0  0  0  0  0  0  0
  140.5210   77.6800  222.7340 N   0  0  0  0  0  0  0  0  0  0  0  0
  140.4350   75.2550  222.0350 H   0  0  0  0  0  0  0  0  0  0  0  0
  137.8959   73.6340  222.3530 H   0  0  0  0  0  0  0  0  0  0  0  0
  138.5761   73.6695  220.7146 H   0  0  0  0  0  0  0  0  0  0  0  0
  140.2270   70.2687  220.9793 H   0  0  0  0  0  0  0  0  0  0  0  0
  140.8267   69.8614  222.5970 H   0  0  0  0  0  0  0  0  0  0  0  0
  139.0434   68.4044  222.9229 H   0  0  0  0  0  0  0  0  0  0  0  0
  138.2700   69.0260  220.3280 H   0  0  0  0  0  0  0  0  0  0  0  0
  137.1753   70.5064  221.7052 H   0  0  0  0  0  0  0  0  0  0  0  0
  136.8412   69.5063  223.0858 H   0  0  0  0  0  0  0  0  0  0  0  0
  137.7268   71.9185  223.8148 H   0  0  0  0  0  0  0  0  0  0  0  0
  137.8901   68.6475  224.2336 H   0  0  0  0  0  0  0  0  0  0  0  0
  138.6877   67.4538  226.2642 H   0  0  0  0  0  0  0  0  0  0  0  0
  140.0059   72.2183  225.3960 H   0  0  0  0  0  0  0  0  0  0  0  0
  137.2964   78.4894  222.8399 H   0  0  0  0  0  0  0  0  0  0  0  0
  138.2338   80.7058  223.3143 H   0  0  0  0  0  0  0  0  0  0  0  0
  140.1369   82.1056  223.6353 H   0  0  0  0  0  0  0  0  0  0  0  0
  142.6011   82.3921  223.7405 H   0  0  0  0  0  0  0  0  0  0  0  0
  144.0420   80.4189  223.3619 H   0  0  0  0  0  0  0  0  0  0  0  0
  143.0926   78.1993  222.8891 H   0  0  0  0  0  0  0  0  0  0  0  0
  1  2  2  0
  2  3  1  0
  3  4  1  0
  4  5  1  0
  5  6  2  0
  5  7  1  0
  7  8  1  0
  8  9  1  0
  9 10  1  0
  9 11  1  0
 11 12  1  0
 12 13  1  0
 13 14  2  0
 14 15  1  0
 15 16  2  0
 16 17  1  0
 16 18  1  0
 18 19  1  0
 18 20  2  0
  2 21  1  0
 21 22  2  0
 22 23  1  0
 23 24  2  0
 24 25  1  0
 25 26  2  0
 26 27  1  0
 27 28  2  0
 28 29  1  0
 29 30  2  0
 12  7  1  0
 20 13  1  0
 30 21  1  0
 29 24  1  0
  3 31  1  0
  4 32  1  0
  4 33  1  0
  8 34  1  0
  8 35  1  0
  9 36  1  1
 10 37  1  0
 11 38  1  0
 11 39  1  0
 12 40  1  1
 14 41  1  0
 15 42  1  0
 20 43  1  0
 22 44  1  0
 23 45  1  0
 25 46  1  0
 26 47  1  0
 27 48  1  0
 28 49  1  0
M  END
>  <smiles>  (15) 
O=C(NCC(=O)N1C[C@H](O)C[C@H]1c1ccc(Cl)c(Cl)c1)c1ccc2ccccc2n1

>  <score_type>  (15) 
oracle

>  <origin>  (15) 
autodockgpu

>  <m_score__min__energy>  (15) 
-9.2300000000000004

>  <m_primary>  (15) 
energy

>  <rmsd>  (15) 
8.392003959730415

>  <m_score__min__rmsd>  (15) 
8.392003959730415

>  <meeko>  (15) 
{"free_energy": -8.57, "intermolecular_energy": -10.36, "internal_energy": -1.54, "cluster_size": 18, "cluster_id": 2, "rank_in_cluster": 5}

>  <energy>  (15) 
-8.74

>  <cluster_rmsd>  (15) 
1.1

>  <cluster>  (15) 
2

$$$$

     RDKit          3D

 49 52  0  0  0  0  0  0  0  0999 V2000
  138.4160   75.6630  220.8490 O   0  0  0  0  0  0  0  0  0  0  0  0
  139.4870   75.7980  221.5340 C   0  0  0  0  0  0  0  0  0  0  0  0
  140.3690   74.7080  221.7390 N   0  0  0  0  0  0  0  0  0  0  0  0
  140.0860   73.3830  221.1710 C   0  0  0  0  0  0  0  0  0  0  0  0
  138.9760   72.8070  221.9770 C   0  0  0  0  0  0  0  0  0  0  0  0
  137.9850   73.5160  222.3470 O   0  0  0  0  0  0  0  0  0  0  0  0
  139.0250   71.4320  222.3430 N   0  0  0  0  0  0  0  0  0  0  0  0
  139.9520   70.3990  221.8860 C   0  0  0  0  0  0  0  0  0  0  0  0
  139.2340   69.0880  222.0560 C   0  0  2  0  0  0  0  0  0  0  0  0
  139.2770   68.2720  220.9360 O   0  0  0  0  0  0  0  0  0  0  0  0
  137.8470   69.5100  222.4230 C   0  0  0  0  0  0  0  0  0  0  0  0
  138.1370   70.7540  223.2720 C   0  0  1  0  0  0  0  0  0  0  0  0
  138.8340   70.4110  224.5360 C   0  0  0  0  0  0  0  0  0  0  0  0
  138.6050   69.1210  225.0280 C   0  0  0  0  0  0  0  0  0  0  0  0
  139.1930   68.6750  226.1960 C   0  0  0  0  0  0  0  0  0  0  0  0
  140.0210   69.5480  226.8710 C   0  0  0  0  0  0  0  0  0  0  0  0
  140.7710   69.0190  228.3380 Cl  0  0  0  0  0  0  0  0  0  0  0  0
  140.2400   70.8190  226.3750 C   0  0  0  0  0  0  0  0  0  0  0  0
  141.2940   71.9360  227.2290 Cl  0  0  0  0  0  0  0  0  0  0  0  0
  139.6590   71.2760  225.2110 C   0  0  0  0  0  0  0  0  0  0  0  0
  139.7990   77.1010  222.1140 C   0  0  0  0  0  0  0  0  0  0  0  0
  138.7850   77.9150  222.5860 C   0  0  0  0  0  0  0  0  0  0  0  0
  139.0210   79.1460  223.1390 C   0  0  0  0  0  0  0  0  0  0  0  0
  140.3190   79.6100  223.2360 C   0  0  0  0  0  0  0  0  0  0  0  0
  140.5680   80.8310  223.7820 C   0  0  0  0  0  0  0  0  0  0  0  0
  141.8530   81.2870  223.8770 C   0  0  0  0  0  0  0  0  0  0  0  0
  142.8610   80.4770  223.4080 C   0  0  0  0  0  0  0  0  0  0  0  0
  142.6180   79.2410  222.8540 C   0  0  0  0  0  0  0  0  0  0  0  0
  141.3110   78.7790  222.7580 C   0  0  0  0  0  0  0  0  0  0  0  0
  141.0600   77.5690  222.2160 N   0  0  0  0  0  0  0  0  0  0  0  0
  141.2270   74.8830  222.3090 H   0  0  0  0  0  0  0  0  0  0  0  0
  139.7818   73.4778  220.1182 H   0  0  0  0  0  0  0  0  0  0  0  0
  140.9766   72.7382  221.2019 H   0  0  0  0  0  0  0  0  0  0  0  0
  140.2100   70.5585  220.8286 H   0  0  0  0  0  0  0  0  0  0  0  0
  140.8907   70.4199  222.4591 H   0  0  0  0  0  0  0  0  0  0  0  0
  139.7067   68.4507  222.8178 H   0  0  0  0  0  0  0  0  0  0  0  0
  139.9340   67.5650  221.0780 H   0  0  0  0  0  0  0  0  0  0  0  0
  137.2509   69.7582  221.5325 H   0  0  0  0  0  0  0  0  0  0  0  0
  137.2578   68.7364  222.9371 H   0  0  0  0  0  0  0  0  0  0  0  0
  137.2571   71.3219  223.6084 H   0  0  0  0  0  0  0  0  0  0  0  0
  137.9399   68.4450  224.4706 H   0  0  0  0  0  0  0  0  0  0  0  0
  139.0074   67.6590  226.5746 H   0  0  0  0  0  0  0  0  0  0  0  0
  139.8490   72.2933  224.8381 H   0  0  0  0  0  0  0  0  0  0  0  0
  137.7466   77.5593  222.5144 H   0  0  0  0  0  0  0  0  0  0  0  0
  138.1840   79.7601  223.5029 H   0  0  0  0  0  0  0  0  0  0  0  0
  139.7357   81.4508  224.1468 H   0  0  0  0  0  0  0  0  0  0  0  0
  142.0743   82.2715  224.3150 H   0  0  0  0  0  0  0  0  0  0  0  0
  143.9003   80.8305  223.4784 H   0  0  0  0  0  0  0  0  0  0  0  0
  143.4522   78.6233  222.4899 H   0  0  0  0  0  0  0  0  0  0  0  0
  1  2  2  0
  2  3  1  0
  3  4  1  0
  4  5  1  0
  5  6  2  0
  5  7  1  0
  7  8  1  0
  8  9  1  0
  9 10  1  0
  9 11  1  0
 11 12  1  0
 12 13  1  0
 13 14  2  0
 14 15  1  0
 15 16  2  0
 16 17  1  0
 16 18  1  0
 18 19  1  0
 18 20  2  0
  2 21  1  0
 21 22  2  0
 22 23  1  0
 23 24  2  0
 24 25  1  0
 25 26  2  0
 26 27  1  0
 27 28  2  0
 28 29  1  0
 29 30  2  0
 12  7  1  0
 20 13  1  0
 30 21  1  0
 29 24  1  0
  3 31  1  0
  4 32  1  0
  4 33  1  0
  8 34  1  0
  8 35  1  0
  9 36  1  1
 10 37  1  0
 11 38  1  0
 11 39  1  0
 12 40  1  1
 14 41  1  0
 15 42  1  0
 20 43  1  0
 22 44  1  0
 23 45  1  0
 25 46  1  0
 26 47  1  0
 27 48  1  0
 28 49  1  0
M  END
>  <smiles>  (16) 
O=C(NCC(=O)N1C[C@H](O)C[C@H]1c1ccc(Cl)c(Cl)c1)c1ccc2ccccc2n1

>  <score_type>  (16) 
oracle

>  <origin>  (16) 
autodockgpu

>  <m_score__min__energy>  (16) 
-9.2300000000000004

>  <m_primary>  (16) 
energy

>  <rmsd>  (16) 
8.261535394871377

>  <m_score__min__rmsd>  (16) 
8.261535394871377

>  <meeko>  (16) 
{"free_energy": -8.23, "intermolecular_energy": -10.01, "internal_energy": -1.25, "cluster_size": 18, "cluster_id": 2, "rank_in_cluster": 12}

>  <energy>  (16) 
-8.57

>  <cluster_rmsd>  (16) 
1.17

>  <cluster>  (16) 
2

$$$$

     RDKit          3D

 49 52  0  0  0  0  0  0  0  0999 V2000
  139.9760   73.5400  222.3460 O   0  0  0  0  0  0  0  0  0  0  0  0
  140.1800   72.2800  222.2700 C   0  0  0  0  0  0  0  0  0  0  0  0
  140.4390   71.6520  221.0270 N   0  0  0  0  0  0  0  0  0  0  0  0
  140.4820   72.4260  219.7780 C   0  0  0  0  0  0  0  0  0  0  0  0
  141.7440   73.2130  219.8150 C   0  0  0  0  0  0  0  0  0  0  0  0
  141.7330   74.4860  219.8770 O   0  0  0  0  0  0  0  0  0  0  0  0
  142.9910   72.5270  219.7790 N   0  0  0  0  0  0  0  0  0  0  0  0
  143.9280   72.2810  220.8730 C   0  0  0  0  0  0  0  0  0  0  0  0
  145.2790   72.1010  220.2340 C   0  0  2  0  0  0  0  0  0  0  0  0
  146.2840   72.8560  220.8180 O   0  0  0  0  0  0  0  0  0  0  0  0
  145.0250   72.4630  218.8060 C   0  0  0  0  0  0  0  0  0  0  0  0
  143.6060   71.9140  218.6150 C   0  0  1  0  0  0  0  0  0  0  0  0
  143.5690   70.4330  218.6990 C   0  0  0  0  0  0  0  0  0  0  0  0
  142.2950   69.8550  218.7090 C   0  0  0  0  0  0  0  0  0  0  0  0
  142.1190   68.4860  218.7840 C   0  0  0  0  0  0  0  0  0  0  0  0
  143.2490   67.6980  218.8500 C   0  0  0  0  0  0  0  0  0  0  0  0
  143.0630   65.9810  218.9450 Cl  0  0  0  0  0  0  0  0  0  0  0  0
  144.5030   68.2810  218.8390 C   0  0  0  0  0  0  0  0  0  0  0  0
  145.9470   67.2830  218.9210 Cl  0  0  0  0  0  0  0  0  0  0  0  0
  144.6910   69.6440  218.7640 C   0  0  0  0  0  0  0  0  0  0  0  0
  140.1440   71.4810  223.4910 C   0  0  0  0  0  0  0  0  0  0  0  0
  139.6020   70.2080  223.4750 C   0  0  0  0  0  0  0  0  0  0  0  0
  139.5430   69.4150  224.5920 C   0  0  0  0  0  0  0  0  0  0  0  0
  140.0400   69.8910  225.7900 C   0  0  0  0  0  0  0  0  0  0  0  0
  139.9870   69.1150  226.9060 C   0  0  0  0  0  0  0  0  0  0  0  0
  140.4800   69.5870  228.0900 C   0  0  0  0  0  0  0  0  0  0  0  0
  141.0190   70.8520  228.1050 C   0  0  0  0  0  0  0  0  0  0  0  0
  141.0760   71.6440  226.9810 C   0  0  0  0  0  0  0  0  0  0  0  0
  140.5740   71.1620  225.7780 C   0  0  0  0  0  0  0  0  0  0  0  0
  140.6240   71.9290  224.6690 N   0  0  0  0  0  0  0  0  0  0  0  0
  140.5980   70.6190  221.0320 H   0  0  0  0  0  0  0  0  0  0  0  0
  140.4809   71.7493  218.9108 H   0  0  0  0  0  0  0  0  0  0  0  0
  139.6047   73.0831  219.6856 H   0  0  0  0  0  0  0  0  0  0  0  0
  143.9431   73.1379  221.5625 H   0  0  0  0  0  0  0  0  0  0  0  0
  143.6391   71.3952  221.4576 H   0  0  0  0  0  0  0  0  0  0  0  0
  145.6652   71.0784  220.3574 H   0  0  0  0  0  0  0  0  0  0  0  0
  146.6910   72.3450  221.5420 H   0  0  0  0  0  0  0  0  0  0  0  0
  145.0614   73.5516  218.6523 H   0  0  0  0  0  0  0  0  0  0  0  0
  145.7657   72.0637  218.0975 H   0  0  0  0  0  0  0  0  0  0  0  0
  143.1350   72.1292  217.6445 H   0  0  0  0  0  0  0  0  0  0  0  0
  141.4105   70.5068  218.6558 H   0  0  0  0  0  0  0  0  0  0  0  0
  141.1132   68.0408  218.7908 H   0  0  0  0  0  0  0  0  0  0  0  0
  145.6997   70.0826  218.7565 H   0  0  0  0  0  0  0  0  0  0  0  0
  139.2023   69.8164  222.5280 H   0  0  0  0  0  0  0  0  0  0  0  0
  139.1036   68.4082  224.5348 H   0  0  0  0  0  0  0  0  0  0  0  0
  139.5475   68.1079  226.8555 H   0  0  0  0  0  0  0  0  0  0  0  0
  140.4467   68.9740  229.0027 H   0  0  0  0  0  0  0  0  0  0  0  0
  141.4196   71.2456  229.0508 H   0  0  0  0  0  0  0  0  0  0  0  0
  141.5156   72.6509  227.0343 H   0  0  0  0  0  0  0  0  0  0  0  0
  1  2  2  0
  2  3  1  0
  3  4  1  0
  4  5  1  0
  5  6  2  0
  5  7  1  0
  7  8  1  0
  8  9  1  0
  9 10  1  0
  9 11  1  0
 11 12  1  0
 12 13  1  0
 13 14  2  0
 14 15  1  0
 15 16  2  0
 16 17  1  0
 16 18  1  0
 18 19  1  0
 18 20  2  0
  2 21  1  0
 21 22  2  0
 22 23  1  0
 23 24  2  0
 24 25  1  0
 25 26  2  0
 26 27  1  0
 27 28  2  0
 28 29  1  0
 29 30  2  0
 12  7  1  0
 20 13  1  0
 30 21  1  0
 29 24  1  0
  3 31  1  0
  4 32  1  0
  4 33  1  0
  8 34  1  0
  8 35  1  0
  9 36  1  6
 10 37  1  0
 11 38  1  0
 11 39  1  0
 12 40  1  6
 14 41  1  0
 15 42  1  0
 20 43  1  0
 22 44  1  0
 23 45  1  0
 25 46  1  0
 26 47  1  0
 27 48  1  0
 28 49  1  0
M  END
>  <smiles>  (17) 
O=C(NCC(=O)N1C[C@H](O)C[C@H]1c1ccc(Cl)c(Cl)c1)c1ccc2ccccc2n1

>  <score_type>  (17) 
oracle

>  <origin>  (17) 
autodockgpu

>  <m_score__min__energy>  (17) 
-9.2300000000000004

>  <m_primary>  (17) 
energy

>  <rmsd>  (17) 
4.0255566503111915

>  <m_score__min__rmsd>  (17) 
4.0255566503111915

>  <meeko>  (17) 
{"free_energy": -7.91, "intermolecular_energy": -9.7, "internal_energy": -1.33, "cluster_size": 1, "cluster_id": 7, "rank_in_cluster": 1}

>  <energy>  (17) 
-8.51

>  <cluster_rmsd>  (17) 
1.18

>  <cluster>  (17) 
2

$$$$

     RDKit          3D

 49 52  0  0  0  0  0  0  0  0999 V2000
  140.7390   71.5590  221.8580 O   0  0  0  0  0  0  0  0  0  0  0  0
  139.8140   71.6780  222.7340 C   0  0  0  0  0  0  0  0  0  0  0  0
  138.7940   72.6520  222.5960 N   0  0  0  0  0  0  0  0  0  0  0  0
  138.7610   73.5610  221.4420 C   0  0  0  0  0  0  0  0  0  0  0  0
  139.6730   74.6900  221.7690 C   0  0  0  0  0  0  0  0  0  0  0  0
  140.9180   74.5040  221.9670 O   0  0  0  0  0  0  0  0  0  0  0  0
  139.1410   76.0070  221.8620 N   0  0  0  0  0  0  0  0  0  0  0  0
  138.1600   76.5290  222.8100 C   0  0  0  0  0  0  0  0  0  0  0  0
  137.5060   77.7020  222.1320 C   0  0  2  0  0  0  0  0  0  0  0  0
  136.1200   77.6820  222.1810 O   0  0  0  0  0  0  0  0  0  0  0  0
  138.0460   77.6290  220.7400 C   0  0  0  0  0  0  0  0  0  0  0  0
  139.4720   77.1340  221.0070 C   0  0  1  0  0  0  0  0  0  0  0  0
  140.2820   78.1450  221.7330 C   0  0  0  0  0  0  0  0  0  0  0  0
  141.0330   77.6640  222.8120 C   0  0  0  0  0  0  0  0  0  0  0  0
  141.8290   78.4990  223.5710 C   0  0  0  0  0  0  0  0  0  0  0  0
  141.8630   79.8360  223.2310 C   0  0  0  0  0  0  0  0  0  0  0  0
  142.8510   80.9070  224.1640 Cl  0  0  0  0  0  0  0  0  0  0  0  0
  141.1170   80.2980  222.1640 C   0  0  0  0  0  0  0  0  0  0  0  0
  141.1570   82.0000  221.7250 Cl  0  0  0  0  0  0  0  0  0  0  0  0
  140.3190   79.4750  221.3990 C   0  0  0  0  0  0  0  0  0  0  0  0
  139.8170   70.7910  223.8930 C   0  0  0  0  0  0  0  0  0  0  0  0
  139.1990   69.5550  223.8260 C   0  0  0  0  0  0  0  0  0  0  0  0
  139.1720   68.6830  224.8830 C   0  0  0  0  0  0  0  0  0  0  0  0
  139.7790   69.0370  226.0720 C   0  0  0  0  0  0  0  0  0  0  0  0
  139.7590   68.1820  227.1290 C   0  0  0  0  0  0  0  0  0  0  0  0
  140.3620   68.5340  228.3040 C   0  0  0  0  0  0  0  0  0  0  0  0
  140.9750   69.7640  228.3700 C   0  0  0  0  0  0  0  0  0  0  0  0
  141.0010   70.6350  227.3050 C   0  0  0  0  0  0  0  0  0  0  0  0
  140.3880   70.2750  226.1110 C   0  0  0  0  0  0  0  0  0  0  0  0
  140.4050   71.1200  225.0610 N   0  0  0  0  0  0  0  0  0  0  0  0
  138.0680   72.6990  223.3450 H   0  0  0  0  0  0  0  0  0  0  0  0
  139.1094   73.0404  220.5378 H   0  0  0  0  0  0  0  0  0  0  0  0
  137.7394   73.9183  221.2455 H   0  0  0  0  0  0  0  0  0  0  0  0
  137.4110   75.7590  223.0469 H   0  0  0  0  0  0  0  0  0  0  0  0
  138.6352   76.8262  223.7565 H   0  0  0  0  0  0  0  0  0  0  0  0
  137.7354   78.6533  222.6344 H   0  0  0  0  0  0  0  0  0  0  0  0
  135.7890   76.9620  221.6120 H   0  0  0  0  0  0  0  0  0  0  0  0
  137.4793   76.9158  220.1234 H   0  0  0  0  0  0  0  0  0  0  0  0
  137.9908   78.5749  220.1813 H   0  0  0  0  0  0  0  0  0  0  0  0
  140.0764   76.9091  220.1159 H   0  0  0  0  0  0  0  0  0  0  0  0
  140.9879   76.5936  223.0616 H   0  0  0  0  0  0  0  0  0  0  0  0
  142.4156   78.1119  224.4172 H   0  0  0  0  0  0  0  0  0  0  0  0
  139.7350   79.8689  220.5542 H   0  0  0  0  0  0  0  0  0  0  0  0
  138.7094   69.2602  222.8861 H   0  0  0  0  0  0  0  0  0  0  0  0
  138.6708   67.7087  224.7851 H   0  0  0  0  0  0  0  0  0  0  0  0
  139.2576   67.2071  227.0385 H   0  0  0  0  0  0  0  0  0  0  0  0
  140.3573   67.8553  229.1696 H   0  0  0  0  0  0  0  0  0  0  0  0
  141.4628   70.0624  229.3097 H   0  0  0  0  0  0  0  0  0  0  0  0
  141.5034   71.6091  227.3981 H   0  0  0  0  0  0  0  0  0  0  0  0
  1  2  2  0
  2  3  1  0
  3  4  1  0
  4  5  1  0
  5  6  2  0
  5  7  1  0
  7  8  1  0
  8  9  1  0
  9 10  1  0
  9 11  1  0
 11 12  1  0
 12 13  1  0
 13 14  2  0
 14 15  1  0
 15 16  2  0
 16 17  1  0
 16 18  1  0
 18 19  1  0
 18 20  2  0
  2 21  1  0
 21 22  2  0
 22 23  1  0
 23 24  2  0
 24 25  1  0
 25 26  2  0
 26 27  1  0
 27 28  2  0
 28 29  1  0
 29 30  2  0
 12  7  1  0
 20 13  1  0
 30 21  1  0
 29 24  1  0
  3 31  1  0
  4 32  1  0
  4 33  1  0
  8 34  1  0
  8 35  1  0
  9 36  1  1
 10 37  1  0
 11 38  1  0
 11 39  1  0
 12 40  1  6
 14 41  1  0
 15 42  1  0
 20 43  1  0
 22 44  1  0
 23 45  1  0
 25 46  1  0
 26 47  1  0
 27 48  1  0
 28 49  1  0
M  END
>  <smiles>  (18) 
O=C(NCC(=O)N1C[C@H](O)C[C@H]1c1ccc(Cl)c(Cl)c1)c1ccc2ccccc2n1

>  <score_type>  (18) 
oracle

>  <origin>  (18) 
autodockgpu

>  <m_score__min__energy>  (18) 
-9.2300000000000004

>  <m_primary>  (18) 
energy

>  <rmsd>  (18) 
2.5542859675147067

>  <m_score__min__rmsd>  (18) 
2.5542859675147067

>  <meeko>  (18) 
{"free_energy": -9.23, "intermolecular_energy": -11.02, "internal_energy": -1.17, "cluster_size": 11, "cluster_id": 1, "rank_in_cluster": 1}

>  <energy>  (18) 
-8.47

>  <cluster_rmsd>  (18) 
0.87

>  <cluster>  (18) 
2

$$$$

     RDKit          3D

 49 52  0  0  0  0  0  0  0  0999 V2000
  141.3280   71.9980  222.1760 O   0  0  0  0  0  0  0  0  0  0  0  0
  140.3490   72.0800  222.9950 C   0  0  0  0  0  0  0  0  0  0  0  0
  139.2170   72.8820  222.7090 N   0  0  0  0  0  0  0  0  0  0  0  0
  139.1260   73.6490  221.4590 C   0  0  0  0  0  0  0  0  0  0  0  0
  140.0370   74.8150  221.6130 C   0  0  0  0  0  0  0  0  0  0  0  0
  141.2720   74.6630  221.8880 O   0  0  0  0  0  0  0  0  0  0  0  0
  139.5160   76.1290  221.4480 N   0  0  0  0  0  0  0  0  0  0  0  0
  138.3290   76.7230  222.0590 C   0  0  0  0  0  0  0  0  0  0  0  0
  137.8890   77.8250  221.1340 C   0  0  2  0  0  0  0  0  0  0  0  0
  136.5380   77.7950  220.8230 O   0  0  0  0  0  0  0  0  0  0  0  0
  138.7710   77.6350  219.9420 C   0  0  0  0  0  0  0  0  0  0  0  0
  140.0730   77.1800  220.6140 C   0  0  1  0  0  0  0  0  0  0  0  0
  140.6790   78.2590  221.4330 C   0  0  0  0  0  0  0  0  0  0  0  0
  141.2010   77.8650  222.6710 C   0  0  0  0  0  0  0  0  0  0  0  0
  141.7920   78.7700  223.5300 C   0  0  0  0  0  0  0  0  0  0  0  0
  141.8550   80.0880  223.1290 C   0  0  0  0  0  0  0  0  0  0  0  0
  142.5900   81.2460  224.1840 Cl  0  0  0  0  0  0  0  0  0  0  0  0
  141.3370   80.4650  221.9050 C   0  0  0  0  0  0  0  0  0  0  0  0
  141.4130   82.1430  221.3870 Cl  0  0  0  0  0  0  0  0  0  0  0  0
  140.7440   79.5720  221.0380 C   0  0  0  0  0  0  0  0  0  0  0  0
  140.4070   71.3300  224.2470 C   0  0  0  0  0  0  0  0  0  0  0  0
  140.9920   71.8900  225.3680 C   0  0  0  0  0  0  0  0  0  0  0  0
  141.0740   71.2320  226.5670 C   0  0  0  0  0  0  0  0  0  0  0  0
  140.5560   69.9550  226.6780 C   0  0  0  0  0  0  0  0  0  0  0  0
  140.6310   69.2900  227.8620 C   0  0  0  0  0  0  0  0  0  0  0  0
  140.1170   68.0280  227.9700 C   0  0  0  0  0  0  0  0  0  0  0  0
  139.5360   67.4720  226.8540 C   0  0  0  0  0  0  0  0  0  0  0  0
  139.4560   68.1380  225.6530 C   0  0  0  0  0  0  0  0  0  0  0  0
  139.9790   69.4210  225.5460 C   0  0  0  0  0  0  0  0  0  0  0  0
  139.9070   70.0840  224.3730 N   0  0  0  0  0  0  0  0  0  0  0  0
  138.4510   72.9060  223.4190 H   0  0  0  0  0  0  0  0  0  0  0  0
  139.4434   73.0283  220.6081 H   0  0  0  0  0  0  0  0  0  0  0  0
  138.0930   73.9735  221.2651 H   0  0  0  0  0  0  0  0  0  0  0  0
  137.5341   75.9694  222.1598 H   0  0  0  0  0  0  0  0  0  0  0  0
  138.5460   77.1074  223.0665 H   0  0  0  0  0  0  0  0  0  0  0  0
  137.9927   78.8193  221.5930 H   0  0  0  0  0  0  0  0  0  0  0  0
  136.3880   77.1530  220.1040 H   0  0  0  0  0  0  0  0  0  0  0  0
  138.3748   76.8642  219.2645 H   0  0  0  0  0  0  0  0  0  0  0  0
  138.8751   78.5271  219.3069 H   0  0  0  0  0  0  0  0  0  0  0  0
  140.8860   76.8837  219.9349 H   0  0  0  0  0  0  0  0  0  0  0  0
  141.1386   76.8074  222.9668 H   0  0  0  0  0  0  0  0  0  0  0  0
  142.1987   78.4507  224.5009 H   0  0  0  0  0  0  0  0  0  0  0  0
  140.3392   79.8986  220.0687 H   0  0  0  0  0  0  0  0  0  0  0  0
  141.4086   72.9054  225.2940 H   0  0  0  0  0  0  0  0  0  0  0  0
  141.5479   71.7156  227.4339 H   0  0  0  0  0  0  0  0  0  0  0  0
  141.1050   69.7675  228.7322 H   0  0  0  0  0  0  0  0  0  0  0  0
  140.1664   67.4746  228.9193 H   0  0  0  0  0  0  0  0  0  0  0  0
  139.1196   66.4563  226.9246 H   0  0  0  0  0  0  0  0  0  0  0  0
  138.9816   67.6586  224.7840 H   0  0  0  0  0  0  0  0  0  0  0  0
  1  2  2  0
  2  3  1  0
  3  4  1  0
  4  5  1  0
  5  6  2  0
  5  7  1  0
  7  8  1  0
  8  9  1  0
  9 10  1  0
  9 11  1  0
 11 12  1  0
 12 13  1  0
 13 14  2  0
 14 15  1  0
 15 16  2  0
 16 17  1  0
 16 18  1  0
 18 19  1  0
 18 20  2  0
  2 21  1  0
 21 22  2  0
 22 23  1  0
 23 24  2  0
 24 25  1  0
 25 26  2  0
 26 27  1  0
 27 28  2  0
 28 29  1  0
 29 30  2  0
 12  7  1  0
 20 13  1  0
 30 21  1  0
 29 24  1  0
  3 31  1  0
  4 32  1  0
  4 33  1  0
  8 34  1  0
  8 35  1  0
  9 36  1  1
 10 37  1  0
 11 38  1  0
 11 39  1  0
 12 40  1  6
 14 41  1  0
 15 42  1  0
 20 43  1  0
 22 44  1  0
 23 45  1  0
 25 46  1  0
 26 47  1  0
 27 48  1  0
 28 49  1  0
M  END
>  <smiles>  (19) 
O=C(NCC(=O)N1C[C@H](O)C[C@H]1c1ccc(Cl)c(Cl)c1)c1ccc2ccccc2n1

>  <score_type>  (19) 
oracle

>  <origin>  (19) 
autodockgpu

>  <m_score__min__energy>  (19) 
-9.2300000000000004

>  <m_primary>  (19) 
energy

>  <rmsd>  (19) 
3.1911507430136345

>  <m_score__min__rmsd>  (19) 
3.1911507430136345

>  <meeko>  (19) 
{"free_energy": -8.99, "intermolecular_energy": -10.78, "internal_energy": -1.18, "cluster_size": 11, "cluster_id": 1, "rank_in_cluster": 2}

>  <energy>  (19) 
-8.46

>  <cluster_rmsd>  (19) 
1.2

>  <cluster>  (19) 
2

$$$$

     RDKit          3D

 49 52  0  0  0  0  0  0  0  0999 V2000
  137.8850   70.9010  222.0100 O   0  0  0  0  0  0  0  0  0  0  0  0
  138.7040   71.3620  222.8770 C   0  0  0  0  0  0  0  0  0  0  0  0
  139.2410   72.6680  222.7590 N   0  0  0  0  0  0  0  0  0  0  0  0
  138.8760   73.5410  221.6340 C   0  0  0  0  0  0  0  0  0  0  0  0
  139.8800   74.6390  221.6110 C   0  0  0  0  0  0  0  0  0  0  0  0
  141.0860   74.4460  221.9720 O   0  0  0  0  0  0  0  0  0  0  0  0
  139.4810   75.9350  221.1760 N   0  0  0  0  0  0  0  0  0  0  0  0
  138.2230   76.6340  221.4270 C   0  0  0  0  0  0  0  0  0  0  0  0
  138.0590   77.6180  220.3000 C   0  0  2  0  0  0  0  0  0  0  0  0
  136.8110   77.5830  219.6980 O   0  0  0  0  0  0  0  0  0  0  0  0
  139.1710   77.2510  219.3700 C   0  0  0  0  0  0  0  0  0  0  0  0
  140.2650   76.8530  220.3680 C   0  0  1  0  0  0  0  0  0  0  0  0
  140.7340   78.0130  221.1660 C   0  0  0  0  0  0  0  0  0  0  0  0
  141.0830   77.7370  222.4940 C   0  0  0  0  0  0  0  0  0  0  0  0
  141.5350   78.7270  223.3450 C   0  0  0  0  0  0  0  0  0  0  0  0
  141.6330   80.0090  222.8440 C   0  0  0  0  0  0  0  0  0  0  0  0
  142.1950   81.2700  223.8860 Cl  0  0  0  0  0  0  0  0  0  0  0  0
  141.2850   80.2680  221.5320 C   0  0  0  0  0  0  0  0  0  0  0  0
  141.4090   81.8980  220.8860 Cl  0  0  0  0  0  0  0  0  0  0  0  0
  140.8340   79.2890  220.6720 C   0  0  0  0  0  0  0  0  0  0  0  0
  139.0890   70.5210  224.0070 C   0  0  0  0  0  0  0  0  0  0  0  0
  138.8100   69.1660  223.9930 C   0  0  0  0  0  0  0  0  0  0  0  0
  139.1480   68.3310  225.0260 C   0  0  0  0  0  0  0  0  0  0  0  0
  139.7930   68.8460  226.1340 C   0  0  0  0  0  0  0  0  0  0  0  0
  140.1340   68.0290  227.1660 C   0  0  0  0  0  0  0  0  0  0  0  0
  140.7720   68.5410  228.2610 C   0  0  0  0  0  0  0  0  0  0  0  0
  141.0490   69.8880  228.2730 C   0  0  0  0  0  0  0  0  0  0  0  0
  140.7080   70.7220  227.2330 C   0  0  0  0  0  0  0  0  0  0  0  0
  140.0590   70.2000  226.1210 C   0  0  0  0  0  0  0  0  0  0  0  0
  139.7190   71.0070  225.0960 N   0  0  0  0  0  0  0  0  0  0  0  0
  139.9060   72.9860  223.5000 H   0  0  0  0  0  0  0  0  0  0  0  0
  138.9068   72.9776  220.6898 H   0  0  0  0  0  0  0  0  0  0  0  0
  137.8560   73.9359  221.7505 H   0  0  0  0  0  0  0  0  0  0  0  0
  137.3855   75.9210  221.4359 H   0  0  0  0  0  0  0  0  0  0  0  0
  138.2329   77.1401  222.4036 H   0  0  0  0  0  0  0  0  0  0  0  0
  138.1129   78.6605  220.6467 H   0  0  0  0  0  0  0  0  0  0  0  0
  136.8220   76.9330  218.9710 H   0  0  0  0  0  0  0  0  0  0  0  0
  138.8923   76.4095  218.7187 H   0  0  0  0  0  0  0  0  0  0  0  0
  139.4617   78.0499  218.6720 H   0  0  0  0  0  0  0  0  0  0  0  0
  141.1900   76.4490  219.9307 H   0  0  0  0  0  0  0  0  0  0  0  0
  140.9950   76.7065  222.8687 H   0  0  0  0  0  0  0  0  0  0  0  0
  141.8075   78.5010  224.3865 H   0  0  0  0  0  0  0  0  0  0  0  0
  140.5651   79.5219  219.6311 H   0  0  0  0  0  0  0  0  0  0  0  0
  138.2963   68.7418  223.1177 H   0  0  0  0  0  0  0  0  0  0  0  0
  138.9075   67.2589  224.9733 H   0  0  0  0  0  0  0  0  0  0  0  0
  139.8964   66.9560  227.1196 H   0  0  0  0  0  0  0  0  0  0  0  0
  141.0550   67.8960  229.1059 H   0  0  0  0  0  0  0  0  0  0  0  0
  141.5626   70.3149  229.1471 H   0  0  0  0  0  0  0  0  0  0  0  0
  140.9476   71.7945  227.2817 H   0  0  0  0  0  0  0  0  0  0  0  0
  1  2  2  0
  2  3  1  0
  3  4  1  0
  4  5  1  0
  5  6  2  0
  5  7  1  0
  7  8  1  0
  8  9  1  0
  9 10  1  0
  9 11  1  0
 11 12  1  0
 12 13  1  0
 13 14  2  0
 14 15  1  0
 15 16  2  0
 16 17  1  0
 16 18  1  0
 18 19  1  0
 18 20  2  0
  2 21  1  0
 21 22  2  0
 22 23  1  0
 23 24  2  0
 24 25  1  0
 25 26  2  0
 26 27  1  0
 27 28  2  0
 28 29  1  0
 29 30  2  0
 12  7  1  0
 20 13  1  0
 30 21  1  0
 29 24  1  0
  3 31  1  0
  4 32  1  0
  4 33  1  0
  8 34  1  0
  8 35  1  0
  9 36  1  1
 10 37  1  0
 11 38  1  0
 11 39  1  0
 12 40  1  6
 14 41  1  0
 15 42  1  0
 20 43  1  0
 22 44  1  0
 23 45  1  0
 25 46  1  0
 26 47  1  0
 27 48  1  0
 28 49  1  0
M  END
>  <smiles>  (20) 
O=C(NCC(=O)N1C[C@H](O)C[C@H]1c1ccc(Cl)c(Cl)c1)c1ccc2ccccc2n1

>  <score_type>  (20) 
oracle

>  <origin>  (20) 
autodockgpu

>  <m_score__min__energy>  (20) 
-9.2300000000000004

>  <m_primary>  (20) 
energy

>  <rmsd>  (20) 
1.8594092046395927

>  <m_score__min__rmsd>  (20) 
1.8594092046395927

>  <meeko>  (20) 
{"free_energy": -8.55, "intermolecular_energy": -10.34, "internal_energy": -1.74, "cluster_size": 11, "cluster_id": 1, "rank_in_cluster": 4}

>  <energy>  (20) 
-8.43

>  <cluster_rmsd>  (20) 
1.23

>  <cluster>  (20) 
2

$$$$

     RDKit          3D

 49 52  0  0  0  0  0  0  0  0999 V2000
  141.6210   75.3920  221.3020 O   0  0  0  0  0  0  0  0  0  0  0  0
  140.5260   75.6150  221.9250 C   0  0  0  0  0  0  0  0  0  0  0  0
  139.6190   74.5660  222.2130 N   0  0  0  0  0  0  0  0  0  0  0  0
  139.9020   73.1820  221.8070 C   0  0  0  0  0  0  0  0  0  0  0  0
  138.6420   72.4180  222.0090 C   0  0  0  0  0  0  0  0  0  0  0  0
  137.5020   72.9430  221.7900 O   0  0  0  0  0  0  0  0  0  0  0  0
  138.7130   71.0680  222.4560 N   0  0  0  0  0  0  0  0  0  0  0  0
  139.5760   69.9920  221.9750 C   0  0  0  0  0  0  0  0  0  0  0  0
  138.8650   68.7070  222.3030 C   0  0  2  0  0  0  0  0  0  0  0  0
  138.7820   67.8200  221.2400 O   0  0  0  0  0  0  0  0  0  0  0  0
  137.5290   69.1760  222.7830 C   0  0  0  0  0  0  0  0  0  0  0  0
  137.9190   70.4660  223.5140 C   0  0  1  0  0  0  0  0  0  0  0  0
  138.7400   70.1930  224.7190 C   0  0  0  0  0  0  0  0  0  0  0  0
  138.6180   68.9070  225.2610 C   0  0  0  0  0  0  0  0  0  0  0  0
  139.3270   68.5230  226.3830 C   0  0  0  0  0  0  0  0  0  0  0  0
  140.1670   69.4520  226.9600 C   0  0  0  0  0  0  0  0  0  0  0  0
  141.0680   69.0000  228.3660 Cl  0  0  0  0  0  0  0  0  0  0  0  0
  140.2790   70.7170  226.4160 C   0  0  0  0  0  0  0  0  0  0  0  0
  141.3490   71.9060  227.1460 Cl  0  0  0  0  0  0  0  0  0  0  0  0
  139.5780   71.1130  225.2970 C   0  0  0  0  0  0  0  0  0  0  0  0
  140.2130   76.9780  222.3440 C   0  0  0  0  0  0  0  0  0  0  0  0
  141.2260   77.9080  222.5000 C   0  0  0  0  0  0  0  0  0  0  0  0
  140.9890   79.2010  222.8900 C   0  0  0  0  0  0  0  0  0  0  0  0
  139.6920   79.6080  223.1420 C   0  0  0  0  0  0  0  0  0  0  0  0
  139.4430   80.8870  223.5300 C   0  0  0  0  0  0  0  0  0  0  0  0
  138.1600   81.2880  223.7780 C   0  0  0  0  0  0  0  0  0  0  0  0
  137.1540   80.3620  223.6220 C   0  0  0  0  0  0  0  0  0  0  0  0
  137.3980   79.0660  223.2290 C   0  0  0  0  0  0  0  0  0  0  0  0
  138.7030   78.6610  222.9780 C   0  0  0  0  0  0  0  0  0  0  0  0
  138.9550   77.3930  222.5930 N   0  0  0  0  0  0  0  0  0  0  0  0
  138.7420   74.8130  222.7250 H   0  0  0  0  0  0  0  0  0  0  0  0
  140.2008   73.1497  220.7489 H   0  0  0  0  0  0  0  0  0  0  0  0
  140.7260   72.7544  222.3970 H   0  0  0  0  0  0  0  0  0  0  0  0
  139.7250   70.0791  220.8886 H   0  0  0  0  0  0  0  0  0  0  0  0
  140.5691   70.0329  222.4463 H   0  0  0  0  0  0  0  0  0  0  0  0
  139.4077   68.1111  223.0515 H   0  0  0  0  0  0  0  0  0  0  0  0
  139.6550   67.4110  221.0940 H   0  0  0  0  0  0  0  0  0  0  0  0
  136.8460   69.3772  221.9445 H   0  0  0  0  0  0  0  0  0  0  0  0
  136.9885   68.4473  223.4050 H   0  0  0  0  0  0  0  0  0  0  0  0
  137.0847   71.0692  223.9014 H   0  0  0  0  0  0  0  0  0  0  0  0
  137.9408   68.1849  224.7814 H   0  0  0  0  0  0  0  0  0  0  0  0
  139.2249   67.5109  226.8016 H   0  0  0  0  0  0  0  0  0  0  0  0
  139.6862   72.1267  224.8837 H   0  0  0  0  0  0  0  0  0  0  0  0
  142.2627   77.5975  222.3033 H   0  0  0  0  0  0  0  0  0  0  0  0
  141.8238   79.9085  223.0014 H   0  0  0  0  0  0  0  0  0  0  0  0
  140.2737   81.5989  223.6443 H   0  0  0  0  0  0  0  0  0  0  0  0
  137.9386   82.3186  224.0924 H   0  0  0  0  0  0  0  0  0  0  0  0
  136.1163   80.6692  223.8188 H   0  0  0  0  0  0  0  0  0  0  0  0
  136.5658   78.3558  223.1144 H   0  0  0  0  0  0  0  0  0  0  0  0
  1  2  2  0
  2  3  1  0
  3  4  1  0
  4  5  1  0
  5  6  2  0
  5  7  1  0
  7  8  1  0
  8  9  1  0
  9 10  1  0
  9 11  1  0
 11 12  1  0
 12 13  1  0
 13 14  2  0
 14 15  1  0
 15 16  2  0
 16 17  1  0
 16 18  1  0
 18 19  1  0
 18 20  2  0
  2 21  1  0
 21 22  2  0
 22 23  1  0
 23 24  2  0
 24 25  1  0
 25 26  2  0
 26 27  1  0
 27 28  2  0
 28 29  1  0
 29 30  2  0
 12  7  1  0
 20 13  1  0
 30 21  1  0
 29 24  1  0
  3 31  1  0
  4 32  1  0
  4 33  1  0
  8 34  1  0
  8 35  1  0
  9 36  1  1
 10 37  1  0
 11 38  1  0
 11 39  1  0
 12 40  1  1
 14 41  1  0
 15 42  1  0
 20 43  1  0
 22 44  1  0
 23 45  1  0
 25 46  1  0
 26 47  1  0
 27 48  1  0
 28 49  1  0
M  END
>  <smiles>  (21) 
O=C(NCC(=O)N1C[C@H](O)C[C@H]1c1ccc(Cl)c(Cl)c1)c1ccc2ccccc2n1

>  <score_type>  (21) 
oracle

>  <origin>  (21) 
autodockgpu

>  <m_score__min__energy>  (21) 
-9.2300000000000004

>  <m_primary>  (21) 
energy

>  <rmsd>  (21) 
8.513793336240568

>  <m_score__min__rmsd>  (21) 
8.513793336240568

>  <meeko>  (21) 
{"free_energy": -7.98, "intermolecular_energy": -9.77, "internal_energy": -1.62, "cluster_size": 18, "cluster_id": 2, "rank_in_cluster": 18}

>  <energy>  (21) 
-8.36

>  <cluster_rmsd>  (21) 
1.79

>  <cluster>  (21) 
2

$$$$

     RDKit          3D

 49 52  0  0  0  0  0  0  0  0999 V2000
  138.0050   70.8460  221.9720 O   0  0  0  0  0  0  0  0  0  0  0  0
  138.7700   71.3610  222.8580 C   0  0  0  0  0  0  0  0  0  0  0  0
  139.2590   72.6840  222.7260 N   0  0  0  0  0  0  0  0  0  0  0  0
  138.9060   73.5140  221.5650 C   0  0  0  0  0  0  0  0  0  0  0  0
  139.7860   74.7120  221.6200 C   0  0  0  0  0  0  0  0  0  0  0  0
  141.0500   74.6150  221.5000 O   0  0  0  0  0  0  0  0  0  0  0  0
  139.1990   75.9950  221.8130 N   0  0  0  0  0  0  0  0  0  0  0  0
  138.2580   76.4220  222.8450 C   0  0  0  0  0  0  0  0  0  0  0  0
  137.5070   77.5920  222.2690 C   0  0  2  0  0  0  0  0  0  0  0  0
  136.1300   77.4990  222.4020 O   0  0  0  0  0  0  0  0  0  0  0  0
  137.9590   77.6110  220.8440 C   0  0  0  0  0  0  0  0  0  0  0  0
  139.4220   77.1770  220.9970 C   0  0  1  0  0  0  0  0  0  0  0  0
  140.2280   78.1910  221.7210 C   0  0  0  0  0  0  0  0  0  0  0  0
  141.0240   77.7040  222.7650 C   0  0  0  0  0  0  0  0  0  0  0  0
  141.8230   78.5420  223.5190 C   0  0  0  0  0  0  0  0  0  0  0  0
  141.8120   79.8870  223.2110 C   0  0  0  0  0  0  0  0  0  0  0  0
  142.8010   80.9620  224.1380 Cl  0  0  0  0  0  0  0  0  0  0  0  0
  141.0220   80.3550  222.1780 C   0  0  0  0  0  0  0  0  0  0  0  0
  141.0040   82.0660  221.7790 Cl  0  0  0  0  0  0  0  0  0  0  0  0
  140.2210   79.5290  221.4180 C   0  0  0  0  0  0  0  0  0  0  0  0
  139.1410   70.5650  224.0240 C   0  0  0  0  0  0  0  0  0  0  0  0
  138.8680   69.2090  224.0570 C   0  0  0  0  0  0  0  0  0  0  0  0
  139.1940   68.4150  225.1250 C   0  0  0  0  0  0  0  0  0  0  0  0
  139.8210   68.9750  226.2220 C   0  0  0  0  0  0  0  0  0  0  0  0
  140.1500   68.1980  227.2890 C   0  0  0  0  0  0  0  0  0  0  0  0
  140.7710   68.7530  228.3730 C   0  0  0  0  0  0  0  0  0  0  0  0
  141.0420   70.1020  228.3380 C   0  0  0  0  0  0  0  0  0  0  0  0
  140.7130   70.8950  227.2630 C   0  0  0  0  0  0  0  0  0  0  0  0
  140.0820   70.3280  226.1620 C   0  0  0  0  0  0  0  0  0  0  0  0
  139.7530   71.0940  225.1030 N   0  0  0  0  0  0  0  0  0  0  0  0
  139.8810   73.0470  223.4840 H   0  0  0  0  0  0  0  0  0  0  0  0
  139.0800   72.9570  220.6325 H   0  0  0  0  0  0  0  0  0  0  0  0
  137.8438   73.7989  221.5876 H   0  0  0  0  0  0  0  0  0  0  0  0
  137.5628   75.6052  223.0889 H   0  0  0  0  0  0  0  0  0  0  0  0
  138.7790   76.6976  223.7738 H   0  0  0  0  0  0  0  0  0  0  0  0
  137.7230   78.5289  222.8034 H   0  0  0  0  0  0  0  0  0  0  0  0
  135.8620   76.5640  222.3320 H   0  0  0  0  0  0  0  0  0  0  0  0
  137.3884   76.8992  220.2294 H   0  0  0  0  0  0  0  0  0  0  0  0
  137.8228   78.5778  220.3373 H   0  0  0  0  0  0  0  0  0  0  0  0
  139.9786   77.0260  220.0603 H   0  0  0  0  0  0  0  0  0  0  0  0
  141.0130   76.6274  222.9905 H   0  0  0  0  0  0  0  0  0  0  0  0
  142.4463   78.1505  224.3365 H   0  0  0  0  0  0  0  0  0  0  0  0
  139.6010   79.9271  220.6012 H   0  0  0  0  0  0  0  0  0  0  0  0
  138.3691   68.7498  223.1908 H   0  0  0  0  0  0  0  0  0  0  0  0
  138.9586   67.3406  225.1094 H   0  0  0  0  0  0  0  0  0  0  0  0
  139.9163   67.1231  227.2796 H   0  0  0  0  0  0  0  0  0  0  0  0
  141.0453   68.1412  229.2451 H   0  0  0  0  0  0  0  0  0  0  0  0
  141.5408   70.5638  229.2028 H   0  0  0  0  0  0  0  0  0  0  0  0
  140.9475   71.9696  227.2747 H   0  0  0  0  0  0  0  0  0  0  0  0
  1  2  2  0
  2  3  1  0
  3  4  1  0
  4  5  1  0
  5  6  2  0
  5  7  1  0
  7  8  1  0
  8  9  1  0
  9 10  1  0
  9 11  1  0
 11 12  1  0
 12 13  1  0
 13 14  2  0
 14 15  1  0
 15 16  2  0
 16 17  1  0
 16 18  1  0
 18 19  1  0
 18 20  2  0
  2 21  1  0
 21 22  2  0
 22 23  1  0
 23 24  2  0
 24 25  1  0
 25 26  2  0
 26 27  1  0
 27 28  2  0
 28 29  1  0
 29 30  2  0
 12  7  1  0
 20 13  1  0
 30 21  1  0
 29 24  1  0
  3 31  1  0
  4 32  1  0
  4 33  1  0
  8 34  1  0
  8 35  1  0
  9 36  1  1
 10 37  1  0
 11 38  1  0
 11 39  1  0
 12 40  1  6
 14 41  1  0
 15 42  1  0
 20 43  1  0
 22 44  1  0
 23 45  1  0
 25 46  1  0
 26 47  1  0
 27 48  1  0
 28 49  1  0
M  END
>  <smiles>  (22) 
O=C(NCC(=O)N1C[C@H](O)C[C@H]1c1ccc(Cl)c(Cl)c1)c1ccc2ccccc2n1

>  <score_type>  (22) 
oracle

>  <origin>  (22) 
autodockgpu

>  <m_score__min__energy>  (22) 
-9.2300000000000004

>  <m_primary>  (22) 
energy

>  <rmsd>  (22) 
2.576965820154985

>  <m_score__min__rmsd>  (22) 
2.576965820154985

>  <meeko>  (22) 
{"free_energy": -8.73, "intermolecular_energy": -10.52, "internal_energy": -1.45, "cluster_size": 11, "cluster_id": 1, "rank_in_cluster": 3}

>  <energy>  (22) 
-8.36

>  <cluster_rmsd>  (22) 
1.26

>  <cluster>  (22) 
2

$$$$

     RDKit          3D

 49 52  0  0  0  0  0  0  0  0999 V2000
  138.8680   70.4850  221.3800 O   0  0  0  0  0  0  0  0  0  0  0  0
  138.8750   71.2780  222.3830 C   0  0  0  0  0  0  0  0  0  0  0  0
  138.4930   72.6350  222.2490 N   0  0  0  0  0  0  0  0  0  0  0  0
  138.0740   73.1820  220.9510 C   0  0  0  0  0  0  0  0  0  0  0  0
  139.2920   73.2250  220.0980 C   0  0  0  0  0  0  0  0  0  0  0  0
  139.5500   72.3010  219.2600 O   0  0  0  0  0  0  0  0  0  0  0  0
  140.1880   74.3230  220.2230 N   0  0  0  0  0  0  0  0  0  0  0  0
  140.6310   75.2620  219.1950 C   0  0  0  0  0  0  0  0  0  0  0  0
  141.9640   75.7870  219.6530 C   0  0  2  0  0  0  0  0  0  0  0  0
  142.9530   75.7430  218.6810 O   0  0  0  0  0  0  0  0  0  0  0  0
  142.2700   74.9340  220.8420 C   0  0  0  0  0  0  0  0  0  0  0  0
  140.8680   74.7490  221.4350 C   0  0  1  0  0  0  0  0  0  0  0  0
  140.3120   76.0250  221.9490 C   0  0  0  0  0  0  0  0  0  0  0  0
  138.9150   76.1110  221.9810 C   0  0  0  0  0  0  0  0  0  0  0  0
  138.2690   77.2440  222.4380 C   0  0  0  0  0  0  0  0  0  0  0  0
  139.0480   78.2990  222.8650 C   0  0  0  0  0  0  0  0  0  0  0  0
  138.2680   79.7310  223.4420 Cl  0  0  0  0  0  0  0  0  0  0  0  0
  140.4260   78.2010  222.8290 C   0  0  0  0  0  0  0  0  0  0  0  0
  141.4260   79.5400  223.3720 Cl  0  0  0  0  0  0  0  0  0  0  0  0
  141.0830   77.0770  222.3760 C   0  0  0  0  0  0  0  0  0  0  0  0
  139.2870   70.7670  223.6870 C   0  0  0  0  0  0  0  0  0  0  0  0
  139.1390   69.4250  223.9880 C   0  0  0  0  0  0  0  0  0  0  0  0
  139.5080   68.8920  225.1950 C   0  0  0  0  0  0  0  0  0  0  0  0
  140.0510   69.7150  226.1640 C   0  0  0  0  0  0  0  0  0  0  0  0
  140.4210   69.2000  227.3670 C   0  0  0  0  0  0  0  0  0  0  0  0
  140.9590   70.0150  228.3230 C   0  0  0  0  0  0  0  0  0  0  0  0
  141.1050   71.3500  228.0230 C   0  0  0  0  0  0  0  0  0  0  0  0
  140.7330   71.8790  226.8080 C   0  0  0  0  0  0  0  0  0  0  0  0
  140.1870   71.0480  225.8380 C   0  0  0  0  0  0  0  0  0  0  0  0
  139.8180   71.5550  224.6440 N   0  0  0  0  0  0  0  0  0  0  0  0
  138.5210   73.2320  223.1060 H   0  0  0  0  0  0  0  0  0  0  0  0
  137.3122   72.5337  220.4934 H   0  0  0  0  0  0  0  0  0  0  0  0
  137.6325   74.1830  221.0649 H   0  0  0  0  0  0  0  0  0  0  0  0
  140.7354   74.7478  218.2282 H   0  0  0  0  0  0  0  0  0  0  0  0
  139.9052   76.0769  219.0567 H   0  0  0  0  0  0  0  0  0  0  0  0
  141.9287   76.8606  219.8897 H   0  0  0  0  0  0  0  0  0  0  0  0
  142.5740   75.3910  217.8540 H   0  0  0  0  0  0  0  0  0  0  0  0
  142.7140   73.9721  220.5460 H   0  0  0  0  0  0  0  0  0  0  0  0
  143.0034   75.3692  221.5368 H   0  0  0  0  0  0  0  0  0  0  0  0
  140.7972   74.0703  222.2978 H   0  0  0  0  0  0  0  0  0  0  0  0
  138.3168   75.2556  221.6338 H   0  0  0  0  0  0  0  0  0  0  0  0
  137.1708   77.3024  222.4604 H   0  0  0  0  0  0  0  0  0  0  0  0
  142.1816   77.0253  222.3575 H   0  0  0  0  0  0  0  0  0  0  0  0
  138.7073   68.7583  223.2270 H   0  0  0  0  0  0  0  0  0  0  0  0
  139.3733   67.8181  225.3914 H   0  0  0  0  0  0  0  0  0  0  0  0
  140.2872   68.1273  227.5706 H   0  0  0  0  0  0  0  0  0  0  0  0
  141.2656   69.6165  229.3013 H   0  0  0  0  0  0  0  0  0  0  0  0
  141.5351   72.0194  228.7826 H   0  0  0  0  0  0  0  0  0  0  0  0
  140.8671   72.9520  226.6066 H   0  0  0  0  0  0  0  0  0  0  0  0
  1  2  2  0
  2  3  1  0
  3  4  1  0
  4  5  1  0
  5  6  2  0
  5  7  1  0
  7  8  1  0
  8  9  1  0
  9 10  1  0
  9 11  1  0
 11 12  1  0
 12 13  1  0
 13 14  2  0
 14 15  1  0
 15 16  2  0
 16 17  1  0
 16 18  1  0
 18 19  1  0
 18 20  2  0
  2 21  1  0
 21 22  2  0
 22 23  1  0
 23 24  2  0
 24 25  1  0
 25 26  2  0
 26 27  1  0
 27 28  2  0
 28 29  1  0
 29 30  2  0
 12  7  1  0
 20 13  1  0
 30 21  1  0
 29 24  1  0
  3 31  1  0
  4 32  1  0
  4 33  1  0
  8 34  1  0
  8 35  1  0
  9 36  1  1
 10 37  1  0
 11 38  1  0
 11 39  1  0
 12 40  1  1
 14 41  1  0
 15 42  1  0
 20 43  1  0
 22 44  1  0
 23 45  1  0
 25 46  1  0
 26 47  1  0
 27 48  1  0
 28 49  1  0
M  END
>  <smiles>  (23) 
O=C(NCC(=O)N1C[C@H](O)C[C@H]1c1ccc(Cl)c(Cl)c1)c1ccc2ccccc2n1

>  <score_type>  (23) 
oracle

>  <origin>  (23) 
autodockgpu

>  <m_score__min__energy>  (23) 
-9.2300000000000004

>  <m_primary>  (23) 
energy

>  <rmsd>  (23) 
1.9837215764894467

>  <m_score__min__rmsd>  (23) 
1.9837215764894467

>  <meeko>  (23) 
{"free_energy": -7.91, "intermolecular_energy": -9.7, "internal_energy": -1.65, "cluster_size": 9, "cluster_id": 3, "rank_in_cluster": 9}

>  <energy>  (23) 
-8.23

>  <cluster_rmsd>  (23) 
1.06

>  <cluster>  (23) 
2

$$$$

     RDKit          3D

 49 52  0  0  0  0  0  0  0  0999 V2000
  140.1340   71.7880  221.6290 O   0  0  0  0  0  0  0  0  0  0  0  0
  139.3900   71.8840  222.6640 C   0  0  0  0  0  0  0  0  0  0  0  0
  138.1790   72.6170  222.6330 N   0  0  0  0  0  0  0  0  0  0  0  0
  137.7310   73.2950  221.4070 C   0  0  0  0  0  0  0  0  0  0  0  0
  137.9260   74.7520  221.6370 C   0  0  0  0  0  0  0  0  0  0  0  0
  136.9930   75.4820  222.1040 O   0  0  0  0  0  0  0  0  0  0  0  0
  139.1840   75.3400  221.3260 N   0  0  0  0  0  0  0  0  0  0  0  0
  139.7540   75.6370  220.0140 C   0  0  0  0  0  0  0  0  0  0  0  0
  141.2470   75.6520  220.1990 C   0  0  2  0  0  0  0  0  0  0  0  0
  141.9390   74.8950  219.2650 O   0  0  0  0  0  0  0  0  0  0  0  0
  141.4160   75.1560  221.5990 C   0  0  0  0  0  0  0  0  0  0  0  0
  140.1910   75.7790  222.2780 C   0  0  1  0  0  0  0  0  0  0  0  0
  140.2790   77.2590  222.3300 C   0  0  0  0  0  0  0  0  0  0  0  0
  139.1060   77.9520  222.0090 C   0  0  0  0  0  0  0  0  0  0  0  0
  139.0530   79.3320  222.0190 C   0  0  0  0  0  0  0  0  0  0  0  0
  140.2020   80.0160  222.3570 C   0  0  0  0  0  0  0  0  0  0  0  0
  140.1670   81.7460  222.3770 Cl  0  0  0  0  0  0  0  0  0  0  0  0
  141.3540   79.3210  222.6720 C   0  0  0  0  0  0  0  0  0  0  0  0
  142.8220   80.1850  223.1040 Cl  0  0  0  0  0  0  0  0  0  0  0  0
  141.4200   77.9440  222.6660 C   0  0  0  0  0  0  0  0  0  0  0  0
  139.8050   71.2230  223.8990 C   0  0  0  0  0  0  0  0  0  0  0  0
  140.6420   71.8720  224.7890 C   0  0  0  0  0  0  0  0  0  0  0  0
  141.0610   71.2990  225.9610 C   0  0  0  0  0  0  0  0  0  0  0  0
  140.6410   70.0230  226.2820 C   0  0  0  0  0  0  0  0  0  0  0  0
  141.0500   69.4420  227.4420 C   0  0  0  0  0  0  0  0  0  0  0  0
  140.6330   68.1790  227.7590 C   0  0  0  0  0  0  0  0  0  0  0  0
  139.8000   67.5360  226.8730 C   0  0  0  0  0  0  0  0  0  0  0  0
  139.3810   68.1160  225.6970 C   0  0  0  0  0  0  0  0  0  0  0  0
  139.8070   69.4000  225.3780 C   0  0  0  0  0  0  0  0  0  0  0  0
  139.4040   69.9790  224.2280 N   0  0  0  0  0  0  0  0  0  0  0  0
  137.6160   72.6580  223.5120 H   0  0  0  0  0  0  0  0  0  0  0  0
  138.3310   72.9620  220.5473 H   0  0  0  0  0  0  0  0  0  0  0  0
  136.6786   73.0638  221.1855 H   0  0  0  0  0  0  0  0  0  0  0  0
  139.4673   74.8609  219.2891 H   0  0  0  0  0  0  0  0  0  0  0  0
  139.3883   76.5993  219.6265 H   0  0  0  0  0  0  0  0  0  0  0  0
  141.6759   76.6525  220.0409 H   0  0  0  0  0  0  0  0  0  0  0  0
  141.3310   74.6360  218.5470 H   0  0  0  0  0  0  0  0  0  0  0  0
  141.3884   74.0573  221.6447 H   0  0  0  0  0  0  0  0  0  0  0  0
  142.3771   75.4232  222.0625 H   0  0  0  0  0  0  0  0  0  0  0  0
  140.0273   75.4934  223.3276 H   0  0  0  0  0  0  0  0  0  0  0  0
  138.2033   77.3829  221.7420 H   0  0  0  0  0  0  0  0  0  0  0  0
  138.1260   79.8674  221.7660 H   0  0  0  0  0  0  0  0  0  0  0  0
  142.3503   77.4151  222.9204 H   0  0  0  0  0  0  0  0  0  0  0  0
  140.9848   72.8886  224.5461 H   0  0  0  0  0  0  0  0  0  0  0  0
  141.7267   71.8509  226.6409 H   0  0  0  0  0  0  0  0  0  0  0  0
  141.7166   69.9885  228.1254 H   0  0  0  0  0  0  0  0  0  0  0  0
  140.9532   67.6928  228.6923 H   0  0  0  0  0  0  0  0  0  0  0  0
  139.4555   66.5194  227.1135 H   0  0  0  0  0  0  0  0  0  0  0  0
  138.7143   67.5677  225.0152 H   0  0  0  0  0  0  0  0  0  0  0  0
  1  2  2  0
  2  3  1  0
  3  4  1  0
  4  5  1  0
  5  6  2  0
  5  7  1  0
  7  8  1  0
  8  9  1  0
  9 10  1  0
  9 11  1  0
 11 12  1  0
 12 13  1  0
 13 14  2  0
 14 15  1  0
 15 16  2  0
 16 17  1  0
 16 18  1  0
 18 19  1  0
 18 20  2  0
  2 21  1  0
 21 22  2  0
 22 23  1  0
 23 24  2  0
 24 25  1  0
 25 26  2  0
 26 27  1  0
 27 28  2  0
 28 29  1  0
 29 30  2  0
 12  7  1  0
 20 13  1  0
 30 21  1  0
 29 24  1  0
  3 31  1  0
  4 32  1  0
  4 33  1  0
  8 34  1  0
  8 35  1  0
  9 36  1  1
 10 37  1  0
 11 38  1  0
 11 39  1  0
 12 40  1  1
 14 41  1  0
 15 42  1  0
 20 43  1  0
 22 44  1  0
 23 45  1  0
 25 46  1  0
 26 47  1  0
 27 48  1  0
 28 49  1  0
M  END
>  <smiles>  (24) 
O=C(NCC(=O)N1C[C@H](O)C[C@H]1c1ccc(Cl)c(Cl)c1)c1ccc2ccccc2n1

>  <score_type>  (24) 
oracle

>  <origin>  (24) 
autodockgpu

>  <m_score__min__energy>  (24) 
-9.2300000000000004

>  <m_primary>  (24) 
energy

>  <rmsd>  (24) 
3.008087024470155

>  <m_score__min__rmsd>  (24) 
3.008087024470155

>  <meeko>  (24) 
{"free_energy": -8.07, "intermolecular_energy": -9.86, "internal_energy": -1.54, "cluster_size": 11, "cluster_id": 1, "rank_in_cluster": 11}

>  <energy>  (24) 
-8.21

>  <cluster_rmsd>  (24) 
1.24

>  <cluster>  (24) 
2

$$$$

     RDKit          3D

 49 52  0  0  0  0  0  0  0  0999 V2000
  141.1080   71.7950  221.5430 O   0  0  0  0  0  0  0  0  0  0  0  0
  140.3250   72.2130  222.4640 C   0  0  0  0  0  0  0  0  0  0  0  0
  139.5700   73.4000  222.3020 N   0  0  0  0  0  0  0  0  0  0  0  0
  139.6590   74.1960  221.0700 C   0  0  0  0  0  0  0  0  0  0  0  0
  140.9020   75.0050  221.1800 C   0  0  0  0  0  0  0  0  0  0  0  0
  142.0490   74.4560  221.2570 O   0  0  0  0  0  0  0  0  0  0  0  0
  140.8060   76.4250  221.1990 N   0  0  0  0  0  0  0  0  0  0  0  0
  140.6650   77.3460  220.0730 C   0  0  0  0  0  0  0  0  0  0  0  0
  141.2170   78.6650  220.5390 C   0  0  2  0  0  0  0  0  0  0  0  0
  142.1200   79.2420  219.6570 O   0  0  0  0  0  0  0  0  0  0  0  0
  141.8240   78.3270  221.8620 C   0  0  0  0  0  0  0  0  0  0  0  0
  140.8310   77.2770  222.3760 C   0  0  1  0  0  0  0  0  0  0  0  0
  139.4960   77.8640  222.6490 C   0  0  0  0  0  0  0  0  0  0  0  0
  138.3990   77.0490  222.3470 C   0  0  0  0  0  0  0  0  0  0  0  0
  137.1010   77.4750  222.5530 C   0  0  0  0  0  0  0  0  0  0  0  0
  136.9150   78.7400  223.0710 C   0  0  0  0  0  0  0  0  0  0  0  0
  135.3010   79.3010  223.3410 Cl  0  0  0  0  0  0  0  0  0  0  0  0
  138.0070   79.5340  223.3660 C   0  0  0  0  0  0  0  0  0  0  0  0
  137.7780   81.1460  224.0280 Cl  0  0  0  0  0  0  0  0  0  0  0  0
  139.3070   79.1210  223.1650 C   0  0  0  0  0  0  0  0  0  0  0  0
  140.2130   71.4460  223.7010 C   0  0  0  0  0  0  0  0  0  0  0  0
  139.5850   70.2130  223.7030 C   0  0  0  0  0  0  0  0  0  0  0  0
  139.4520   69.4520  224.8340 C   0  0  0  0  0  0  0  0  0  0  0  0
  139.9590   69.9200  226.0320 C   0  0  0  0  0  0  0  0  0  0  0  0
  139.8340   69.1750  227.1630 C   0  0  0  0  0  0  0  0  0  0  0  0
  140.3360   69.6400  228.3460 C   0  0  0  0  0  0  0  0  0  0  0  0
  140.9600   70.8660  228.3430 C   0  0  0  0  0  0  0  0  0  0  0  0
  141.0910   71.6260  227.2040 C   0  0  0  0  0  0  0  0  0  0  0  0
  140.5800   71.1510  226.0020 C   0  0  0  0  0  0  0  0  0  0  0  0
  140.7010   71.8870  224.8780 N   0  0  0  0  0  0  0  0  0  0  0  0
  138.9490   73.6890  223.0920 H   0  0  0  0  0  0  0  0  0  0  0  0
  139.7124   73.5343  220.1929 H   0  0  0  0  0  0  0  0  0  0  0  0
  138.7750   74.8390  220.9466 H   0  0  0  0  0  0  0  0  0  0  0  0
  141.2344   76.9790  219.2064 H   0  0  0  0  0  0  0  0  0  0  0  0
  139.6146   77.4389  219.7599 H   0  0  0  0  0  0  0  0  0  0  0  0
  140.4394   79.4401  220.6067 H   0  0  0  0  0  0  0  0  0  0  0  0
  142.9520   78.7340  219.6720 H   0  0  0  0  0  0  0  0  0  0  0  0
  142.8342   77.9068  221.7481 H   0  0  0  0  0  0  0  0  0  0  0  0
  141.9626   79.1883  222.5321 H   0  0  0  0  0  0  0  0  0  0  0  0
  141.0973   76.7892  223.3253 H   0  0  0  0  0  0  0  0  0  0  0  0
  138.5747   76.0442  221.9353 H   0  0  0  0  0  0  0  0  0  0  0  0
  136.2450   76.8275  222.3122 H   0  0  0  0  0  0  0  0  0  0  0  0
  140.1586   79.7733  223.4086 H   0  0  0  0  0  0  0  0  0  0  0  0
  139.1757   69.8281  222.7573 H   0  0  0  0  0  0  0  0  0  0  0  0
  138.9459   68.4764  224.7895 H   0  0  0  0  0  0  0  0  0  0  0  0
  139.3290   68.1985  227.1255 H   0  0  0  0  0  0  0  0  0  0  0  0
  140.2440   69.0525  229.2714 H   0  0  0  0  0  0  0  0  0  0  0  0
  141.3698   71.2533  229.2875 H   0  0  0  0  0  0  0  0  0  0  0  0
  141.5963   72.6022  227.2442 H   0  0  0  0  0  0  0  0  0  0  0  0
  1  2  2  0
  2  3  1  0
  3  4  1  0
  4  5  1  0
  5  6  2  0
  5  7  1  0
  7  8  1  0
  8  9  1  0
  9 10  1  0
  9 11  1  0
 11 12  1  0
 12 13  1  0
 13 14  2  0
 14 15  1  0
 15 16  2  0
 16 17  1  0
 16 18  1  0
 18 19  1  0
 18 20  2  0
  2 21  1  0
 21 22  2  0
 22 23  1  0
 23 24  2  0
 24 25  1  0
 25 26  2  0
 26 27  1  0
 27 28  2  0
 28 29  1  0
 29 30  2  0
 12  7  1  0
 20 13  1  0
 30 21  1  0
 29 24  1  0
  3 31  1  0
  4 32  1  0
  4 33  1  0
  8 34  1  0
  8 35  1  0
  9 36  1  1
 10 37  1  0
 11 38  1  0
 11 39  1  0
 12 40  1  1
 14 41  1  0
 15 42  1  0
 20 43  1  0
 22 44  1  0
 23 45  1  0
 25 46  1  0
 26 47  1  0
 27 48  1  0
 28 49  1  0
M  END
>  <smiles>  (25) 
O=C(NCC(=O)N1C[C@H](O)C[C@H]1c1ccc(Cl)c(Cl)c1)c1ccc2ccccc2n1

>  <score_type>  (25) 
oracle

>  <origin>  (25) 
autodockgpu

>  <m_score__min__energy>  (25) 
-9.2300000000000004

>  <m_primary>  (25) 
energy

>  <rmsd>  (25) 
2.3342845078434475

>  <m_score__min__rmsd>  (25) 
2.3342845078434475

>  <meeko>  (25) 
{"free_energy": -8.51, "intermolecular_energy": -10.3, "internal_energy": -1.31, "cluster_size": 9, "cluster_id": 3, "rank_in_cluster": 2}

>  <energy>  (25) 
-8.17

>  <cluster_rmsd>  (25) 
1.25

>  <cluster>  (25) 
2

$$$$

     RDKit          3D

 49 52  0  0  0  0  0  0  0  0999 V2000
  137.2740   76.2070  222.4700 O   0  0  0  0  0  0  0  0  0  0  0  0
  138.5490   76.2990  222.4290 C   0  0  0  0  0  0  0  0  0  0  0  0
  139.3570   75.1740  222.1300 N   0  0  0  0  0  0  0  0  0  0  0  0
  138.7590   73.8600  221.8560 C   0  0  0  0  0  0  0  0  0  0  0  0
  139.8130   72.8500  222.1440 C   0  0  0  0  0  0  0  0  0  0  0  0
  141.0510   73.1480  222.0980 O   0  0  0  0  0  0  0  0  0  0  0  0
  139.4280   71.5210  222.4770 N   0  0  0  0  0  0  0  0  0  0  0  0
  139.9910   70.2600  221.9990 C   0  0  0  0  0  0  0  0  0  0  0  0
  138.8980   69.2350  222.1360 C   0  0  2  0  0  0  0  0  0  0  0  0
  138.6970   68.4700  220.9960 O   0  0  0  0  0  0  0  0  0  0  0  0
  137.7090   70.0600  222.5080 C   0  0  0  0  0  0  0  0  0  0  0  0
  138.3630   71.1330  223.3860 C   0  0  1  0  0  0  0  0  0  0  0  0
  138.9060   70.5630  224.6450 C   0  0  0  0  0  0  0  0  0  0  0  0
  138.5300   69.2450  224.9280 C   0  0  0  0  0  0  0  0  0  0  0  0
  138.9660   68.5960  226.0680 C   0  0  0  0  0  0  0  0  0  0  0  0
  139.7900   69.2920  226.9270 C   0  0  0  0  0  0  0  0  0  0  0  0
  140.3520   68.5060  228.3620 Cl  0  0  0  0  0  0  0  0  0  0  0  0
  140.1540   70.5930  226.6350 C   0  0  0  0  0  0  0  0  0  0  0  0
  141.2050   71.4860  227.7250 Cl  0  0  0  0  0  0  0  0  0  0  0  0
  139.7270   71.2520  225.5020 C   0  0  0  0  0  0  0  0  0  0  0  0
  139.1760   77.5900  222.6960 C   0  0  0  0  0  0  0  0  0  0  0  0
  138.3960   78.7160  222.8940 C   0  0  0  0  0  0  0  0  0  0  0  0
  138.9310   79.9510  223.1490 C   0  0  0  0  0  0  0  0  0  0  0  0
  140.3040   80.0970  223.2120 C   0  0  0  0  0  0  0  0  0  0  0  0
  140.8490   81.3180  223.4630 C   0  0  0  0  0  0  0  0  0  0  0  0
  142.2070   81.4600  223.5260 C   0  0  0  0  0  0  0  0  0  0  0  0
  142.9810   80.3400  223.3290 C   0  0  0  0  0  0  0  0  0  0  0  0
  142.4380   79.1020  223.0750 C   0  0  0  0  0  0  0  0  0  0  0  0
  141.0570   78.9600  223.0110 C   0  0  0  0  0  0  0  0  0  0  0  0
  140.5130   77.7510  222.7620 N   0  0  0  0  0  0  0  0  0  0  0  0
  140.3920   75.3150  222.1120 H   0  0  0  0  0  0  0  0  0  0  0  0
  137.8871   73.6959  222.5062 H   0  0  0  0  0  0  0  0  0  0  0  0
  138.4129   73.7890  220.8143 H   0  0  0  0  0  0  0  0  0  0  0  0
  140.2968   70.3533  220.9465 H   0  0  0  0  0  0  0  0  0  0  0  0
  140.8833   69.9747  222.5755 H   0  0  0  0  0  0  0  0  0  0  0  0
  139.1395   68.4659  222.8845 H   0  0  0  0  0  0  0  0  0  0  0  0
  139.1450   67.6110  221.1020 H   0  0  0  0  0  0  0  0  0  0  0  0
  137.2291   70.5003  221.6215 H   0  0  0  0  0  0  0  0  0  0  0  0
  136.9029   69.4980  223.0023 H   0  0  0  0  0  0  0  0  0  0  0  0
  137.6996   71.9393  223.7320 H   0  0  0  0  0  0  0  0  0  0  0  0
  137.8714   68.7125  224.2261 H   0  0  0  0  0  0  0  0  0  0  0  0
  138.6659   67.5597  226.2825 H   0  0  0  0  0  0  0  0  0  0  0  0
  140.0320   72.2881  225.2933 H   0  0  0  0  0  0  0  0  0  0  0  0
  137.3017   78.6151  222.8446 H   0  0  0  0  0  0  0  0  0  0  0  0
  138.2734   80.8193  223.3024 H   0  0  0  0  0  0  0  0  0  0  0  0
  140.1970   82.1907  223.6152 H   0  0  0  0  0  0  0  0  0  0  0  0
  142.6664   82.4389  223.7278 H   0  0  0  0  0  0  0  0  0  0  0  0
  144.0756   80.4381  223.3764 H   0  0  0  0  0  0  0  0  0  0  0  0
  143.0921   78.2307  222.9236 H   0  0  0  0  0  0  0  0  0  0  0  0
  1  2  2  0
  2  3  1  0
  3  4  1  0
  4  5  1  0
  5  6  2  0
  5  7  1  0
  7  8  1  0
  8  9  1  0
  9 10  1  0
  9 11  1  0
 11 12  1  0
 12 13  1  0
 13 14  2  0
 14 15  1  0
 15 16  2  0
 16 17  1  0
 16 18  1  0
 18 19  1  0
 18 20  2  0
  2 21  1  0
 21 22  2  0
 22 23  1  0
 23 24  2  0
 24 25  1  0
 25 26  2  0
 26 27  1  0
 27 28  2  0
 28 29  1  0
 29 30  2  0
 12  7  1  0
 20 13  1  0
 30 21  1  0
 29 24  1  0
  3 31  1  0
  4 32  1  0
  4 33  1  0
  8 34  1  0
  8 35  1  0
  9 36  1  1
 10 37  1  0
 11 38  1  0
 11 39  1  0
 12 40  1  1
 14 41  1  0
 15 42  1  0
 20 43  1  0
 22 44  1  0
 23 45  1  0
 25 46  1  0
 26 47  1  0
 27 48  1  0
 28 49  1  0
M  END
>  <smiles>  (26) 
O=C(NCC(=O)N1C[C@H](O)C[C@H]1c1ccc(Cl)c(Cl)c1)c1ccc2ccccc2n1

>  <score_type>  (26) 
oracle

>  <origin>  (26) 
autodockgpu

>  <m_score__min__energy>  (26) 
-9.2300000000000004

>  <m_primary>  (26) 
energy

>  <rmsd>  (26) 
8.412690801210088

>  <m_score__min__rmsd>  (26) 
8.412690801210088

>  <meeko>  (26) 
{"free_energy": -8.51, "intermolecular_energy": -10.3, "internal_energy": -1.66, "cluster_size": 18, "cluster_id": 2, "rank_in_cluster": 6}

>  <energy>  (26) 
-8.12

>  <cluster_rmsd>  (26) 
0.91

>  <cluster>  (26) 
2

$$$$

     RDKit          3D

 49 52  0  0  0  0  0  0  0  0999 V2000
  138.7380   72.0400  221.5220 O   0  0  0  0  0  0  0  0  0  0  0  0
  139.8350   71.9770  222.1750 C   0  0  0  0  0  0  0  0  0  0  0  0
  141.0310   72.5310  221.6560 N   0  0  0  0  0  0  0  0  0  0  0  0
  141.0550   73.1990  220.3470 C   0  0  0  0  0  0  0  0  0  0  0  0
  141.3660   74.6300  220.6110 C   0  0  0  0  0  0  0  0  0  0  0  0
  142.5200   75.1150  220.3750 O   0  0  0  0  0  0  0  0  0  0  0  0
  140.3490   75.4750  221.1390 N   0  0  0  0  0  0  0  0  0  0  0  0
  139.5390   75.2860  222.3400 C   0  0  0  0  0  0  0  0  0  0  0  0
  138.2720   76.0670  222.1170 C   0  0  2  0  0  0  0  0  0  0  0  0
  137.1140   75.3530  222.3850 O   0  0  0  0  0  0  0  0  0  0  0  0
  138.3850   76.4890  220.6880 C   0  0  0  0  0  0  0  0  0  0  0  0
  139.8950   76.7350  220.5760 C   0  0  1  0  0  0  0  0  0  0  0  0
  140.3310   77.8870  221.4030 C   0  0  0  0  0  0  0  0  0  0  0  0
  141.7120   78.1100  221.4580 C   0  0  0  0  0  0  0  0  0  0  0  0
  142.2500   79.1490  222.1920 C   0  0  0  0  0  0  0  0  0  0  0  0
  141.3780   79.9700  222.8770 C   0  0  0  0  0  0  0  0  0  0  0  0
  142.0230   81.2790  223.8060 Cl  0  0  0  0  0  0  0  0  0  0  0  0
  140.0170   79.7390  222.8150 C   0  0  0  0  0  0  0  0  0  0  0  0
  138.9000   80.7810  223.6840 Cl  0  0  0  0  0  0  0  0  0  0  0  0
  139.4680   78.7060  222.0860 C   0  0  0  0  0  0  0  0  0  0  0  0
  139.8480   71.3200  223.4790 C   0  0  0  0  0  0  0  0  0  0  0  0
  139.2300   70.0930  223.6460 C   0  0  0  0  0  0  0  0  0  0  0  0
  139.2120   69.4320  224.8470 C   0  0  0  0  0  0  0  0  0  0  0  0
  139.8300   70.0000  225.9450 C   0  0  0  0  0  0  0  0  0  0  0  0
  139.8190   69.3550  227.1420 C   0  0  0  0  0  0  0  0  0  0  0  0
  140.4310   69.9180  228.2270 C   0  0  0  0  0  0  0  0  0  0  0  0
  141.0450   71.1370  228.0590 C   0  0  0  0  0  0  0  0  0  0  0  0
  141.0610   71.7970  226.8510 C   0  0  0  0  0  0  0  0  0  0  0  0
  140.4380   71.2220  225.7500 C   0  0  0  0  0  0  0  0  0  0  0  0
  140.4460   71.8590  224.5610 N   0  0  0  0  0  0  0  0  0  0  0  0
  141.8950   72.4460  222.2380 H   0  0  0  0  0  0  0  0  0  0  0  0
  141.8302   72.7531  219.7065 H   0  0  0  0  0  0  0  0  0  0  0  0
  140.0924   73.0898  219.8260 H   0  0  0  0  0  0  0  0  0  0  0  0
  139.3099   74.2195  222.4819 H   0  0  0  0  0  0  0  0  0  0  0  0
  140.0694   75.6298  223.2403 H   0  0  0  0  0  0  0  0  0  0  0  0
  138.1791   76.9153  222.8111 H   0  0  0  0  0  0  0  0  0  0  0  0
  137.3160   74.6380  223.0170 H   0  0  0  0  0  0  0  0  0  0  0  0
  138.0531   75.6939  220.0042 H   0  0  0  0  0  0  0  0  0  0  0  0
  137.7626   77.3554  220.4197 H   0  0  0  0  0  0  0  0  0  0  0  0
  140.2681   76.9829  219.5713 H   0  0  0  0  0  0  0  0  0  0  0  0
  142.3856   77.4409  220.9026 H   0  0  0  0  0  0  0  0  0  0  0  0
  143.3366   79.3162  222.2292 H   0  0  0  0  0  0  0  0  0  0  0  0
  138.3804   78.5446  222.0532 H   0  0  0  0  0  0  0  0  0  0  0  0
  138.7335   69.6297  222.7807 H   0  0  0  0  0  0  0  0  0  0  0  0
  138.7097   68.4574  224.9360 H   0  0  0  0  0  0  0  0  0  0  0  0
  139.3178   68.3805  227.2372 H   0  0  0  0  0  0  0  0  0  0  0  0
  140.4323   69.4119  229.2037 H   0  0  0  0  0  0  0  0  0  0  0  0
  141.5423   71.6024  228.9228 H   0  0  0  0  0  0  0  0  0  0  0  0
  141.5628   72.7715  226.7581 H   0  0  0  0  0  0  0  0  0  0  0  0
  1  2  2  0
  2  3  1  0
  3  4  1  0
  4  5  1  0
  5  6  2  0
  5  7  1  0
  7  8  1  0
  8  9  1  0
  9 10  1  0
  9 11  1  0
 11 12  1  0
 12 13  1  0
 13 14  2  0
 14 15  1  0
 15 16  2  0
 16 17  1  0
 16 18  1  0
 18 19  1  0
 18 20  2  0
  2 21  1  0
 21 22  2  0
 22 23  1  0
 23 24  2  0
 24 25  1  0
 25 26  2  0
 26 27  1  0
 27 28  2  0
 28 29  1  0
 29 30  2  0
 12  7  1  0
 20 13  1  0
 30 21  1  0
 29 24  1  0
  3 31  1  0
  4 32  1  0
  4 33  1  0
  8 34  1  0
  8 35  1  0
  9 36  1  1
 10 37  1  0
 11 38  1  0
 11 39  1  0
 12 40  1  6
 14 41  1  0
 15 42  1  0
 20 43  1  0
 22 44  1  0
 23 45  1  0
 25 46  1  0
 26 47  1  0
 27 48  1  0
 28 49  1  0
M  END
>  <smiles>  (27) 
O=C(NCC(=O)N1C[C@H](O)C[C@H]1c1ccc(Cl)c(Cl)c1)c1ccc2ccccc2n1

>  <score_type>  (27) 
oracle

>  <origin>  (27) 
autodockgpu

>  <m_score__min__energy>  (27) 
-9.2300000000000004

>  <m_primary>  (27) 
energy

>  <rmsd>  (27) 
2.621331427061299

>  <m_score__min__rmsd>  (27) 
2.621331427061299

>  <meeko>  (27) 
{"free_energy": -8.41, "intermolecular_energy": -10.2, "internal_energy": -1.44, "cluster_size": 11, "cluster_id": 1, "rank_in_cluster": 8}

>  <energy>  (27) 
-8.08

>  <cluster_rmsd>  (27) 
0.87

>  <cluster>  (27) 
2

$$$$

     RDKit          3D

 49 52  0  0  0  0  0  0  0  0999 V2000
  137.8970   70.9010  222.0390 O   0  0  0  0  0  0  0  0  0  0  0  0
  138.7290   71.3530  222.8980 C   0  0  0  0  0  0  0  0  0  0  0  0
  139.2760   72.6540  222.7770 N   0  0  0  0  0  0  0  0  0  0  0  0
  138.9060   73.5330  221.6580 C   0  0  0  0  0  0  0  0  0  0  0  0
  139.9540   74.5870  221.5860 C   0  0  0  0  0  0  0  0  0  0  0  0
  141.1490   74.3640  221.9680 O   0  0  0  0  0  0  0  0  0  0  0  0
  139.6120   75.8720  221.0780 N   0  0  0  0  0  0  0  0  0  0  0  0
  138.3470   76.5930  221.1970 C   0  0  0  0  0  0  0  0  0  0  0  0
  138.2950   77.5420  220.0300 C   0  0  2  0  0  0  0  0  0  0  0  0
  137.1030   77.5010  219.3230 O   0  0  0  0  0  0  0  0  0  0  0  0
  139.4780   77.1340  219.2120 C   0  0  0  0  0  0  0  0  0  0  0  0
  140.4760   76.7560  220.3140 C   0  0  1  0  0  0  0  0  0  0  0  0
  140.8890   77.9350  221.1140 C   0  0  0  0  0  0  0  0  0  0  0  0
  141.1940   77.6830  222.4570 C   0  0  0  0  0  0  0  0  0  0  0  0
  141.5920   78.6930  223.3120 C   0  0  0  0  0  0  0  0  0  0  0  0
  141.6810   79.9700  222.7990 C   0  0  0  0  0  0  0  0  0  0  0  0
  142.1760   81.2560  223.8450 Cl  0  0  0  0  0  0  0  0  0  0  0  0
  141.3780   80.2060  221.4710 C   0  0  0  0  0  0  0  0  0  0  0  0
  141.4900   81.8300  220.8100 Cl  0  0  0  0  0  0  0  0  0  0  0  0
  140.9800   79.2070  220.6080 C   0  0  0  0  0  0  0  0  0  0  0  0
  139.1190   70.5070  224.0220 C   0  0  0  0  0  0  0  0  0  0  0  0
  138.8370   69.1520  224.0040 C   0  0  0  0  0  0  0  0  0  0  0  0
  139.1790   68.3120  225.0310 C   0  0  0  0  0  0  0  0  0  0  0  0
  139.8320   68.8220  226.1380 C   0  0  0  0  0  0  0  0  0  0  0  0
  140.1770   67.9990  227.1650 C   0  0  0  0  0  0  0  0  0  0  0  0
  140.8240   68.5050  228.2570 C   0  0  0  0  0  0  0  0  0  0  0  0
  141.1030   69.8520  228.2740 C   0  0  0  0  0  0  0  0  0  0  0  0
  140.7580   70.6910  227.2390 C   0  0  0  0  0  0  0  0  0  0  0  0
  140.1010   70.1740  226.1290 C   0  0  0  0  0  0  0  0  0  0  0  0
  139.7560   70.9870  225.1090 N   0  0  0  0  0  0  0  0  0  0  0  0
  139.9510   72.9650  223.5110 H   0  0  0  0  0  0  0  0  0  0  0  0
  138.8767   72.9611  220.7188 H   0  0  0  0  0  0  0  0  0  0  0  0
  137.9090   73.9723  221.8094 H   0  0  0  0  0  0  0  0  0  0  0  0
  137.5018   75.8902  221.1553 H   0  0  0  0  0  0  0  0  0  0  0  0
  138.2796   77.1301  222.1546 H   0  0  0  0  0  0  0  0  0  0  0  0
  138.3332   78.5944  220.3477 H   0  0  0  0  0  0  0  0  0  0  0  0
  136.7510   76.5920  219.3380 H   0  0  0  0  0  0  0  0  0  0  0  0
  139.2456   76.2753  218.5650 H   0  0  0  0  0  0  0  0  0  0  0  0
  139.8389   77.9071  218.5177 H   0  0  0  0  0  0  0  0  0  0  0  0
  141.4301   76.3288  219.9718 H   0  0  0  0  0  0  0  0  0  0  0  0
  141.1148   76.6553  222.8412 H   0  0  0  0  0  0  0  0  0  0  0  0
  141.8297   78.4855  224.3658 H   0  0  0  0  0  0  0  0  0  0  0  0
  140.7446   79.4215  219.5551 H   0  0  0  0  0  0  0  0  0  0  0  0
  138.3174   68.7326  223.1299 H   0  0  0  0  0  0  0  0  0  0  0  0
  138.9361   67.2406  224.9753 H   0  0  0  0  0  0  0  0  0  0  0  0
  139.9353   66.9270  227.1163 H   0  0  0  0  0  0  0  0  0  0  0  0
  141.1128   67.8554  229.0964 H   0  0  0  0  0  0  0  0  0  0  0  0
  141.6212   70.2743  229.1475 H   0  0  0  0  0  0  0  0  0  0  0  0
  141.0005   71.7627  227.2900 H   0  0  0  0  0  0  0  0  0  0  0  0
  1  2  2  0
  2  3  1  0
  3  4  1  0
  4  5  1  0
  5  6  2  0
  5  7  1  0
  7  8  1  0
  8  9  1  0
  9 10  1  0
  9 11  1  0
 11 12  1  0
 12 13  1  0
 13 14  2  0
 14 15  1  0
 15 16  2  0
 16 17  1  0
 16 18  1  0
 18 19  1  0
 18 20  2  0
  2 21  1  0
 21 22  2  0
 22 23  1  0
 23 24  2  0
 24 25  1  0
 25 26  2  0
 26 27  1  0
 27 28  2  0
 28 29  1  0
 29 30  2  0
 12  7  1  0
 20 13  1  0
 30 21  1  0
 29 24  1  0
  3 31  1  0
  4 32  1  0
  4 33  1  0
  8 34  1  0
  8 35  1  0
  9 36  1  1
 10 37  1  0
 11 38  1  0
 11 39  1  0
 12 40  1  6
 14 41  1  0
 15 42  1  0
 20 43  1  0
 22 44  1  0
 23 45  1  0
 25 46  1  0
 26 47  1  0
 27 48  1  0
 28 49  1  0
M  END
>  <smiles>  (28) 
O=C(NCC(=O)N1C[C@H](O)C[C@H]1c1ccc(Cl)c(Cl)c1)c1ccc2ccccc2n1

>  <score_type>  (28) 
oracle

>  <origin>  (28) 
autodockgpu

>  <m_score__min__energy>  (28) 
-9.2300000000000004

>  <m_primary>  (28) 
energy

>  <rmsd>  (28) 
1.7441546190865562

>  <m_score__min__rmsd>  (28) 
1.7441546190865562

>  <meeko>  (28) 
{"free_energy": -8.44, "intermolecular_energy": -10.23, "internal_energy": -1.76, "cluster_size": 11, "cluster_id": 1, "rank_in_cluster": 7}

>  <energy>  (28) 
-8.04

>  <cluster_rmsd>  (28) 
0.91

>  <cluster>  (28) 
2

$$$$

     RDKit          3D

 49 52  0  0  0  0  0  0  0  0999 V2000
  140.2720   70.8840  221.3070 O   0  0  0  0  0  0  0  0  0  0  0  0
  140.0100   71.5770  222.3490 C   0  0  0  0  0  0  0  0  0  0  0  0
  139.7790   72.9720  222.2650 N   0  0  0  0  0  0  0  0  0  0  0  0
  139.8300   73.6750  220.9750 C   0  0  0  0  0  0  0  0  0  0  0  0
  140.0670   75.1100  221.2870 C   0  0  0  0  0  0  0  0  0  0  0  0
  139.9480   75.5620  222.4720 O   0  0  0  0  0  0  0  0  0  0  0  0
  140.4360   75.9960  220.2360 N   0  0  0  0  0  0  0  0  0  0  0  0
  139.6250   76.4720  219.1170 C   0  0  0  0  0  0  0  0  0  0  0  0
  140.5930   76.8390  218.0250 C   0  0  2  0  0  0  0  0  0  0  0  0
  140.2720   76.3080  216.7850 O   0  0  0  0  0  0  0  0  0  0  0  0
  141.9000   76.3450  218.5550 C   0  0  0  0  0  0  0  0  0  0  0  0
  141.7310   76.6280  220.0530 C   0  0  1  0  0  0  0  0  0  0  0  0
  141.6700   78.0830  220.3390 C   0  0  0  0  0  0  0  0  0  0  0  0
  141.4270   78.4320  221.6720 C   0  0  0  0  0  0  0  0  0  0  0  0
  141.3460   79.7520  222.0730 C   0  0  0  0  0  0  0  0  0  0  0  0
  141.5140   80.7260  221.1100 C   0  0  0  0  0  0  0  0  0  0  0  0
  141.4170   82.3880  221.5810 Cl  0  0  0  0  0  0  0  0  0  0  0  0
  141.7540   80.3680  219.7970 C   0  0  0  0  0  0  0  0  0  0  0  0
  141.9700   81.6030  218.5650 Cl  0  0  0  0  0  0  0  0  0  0  0  0
  141.8370   79.0550  219.3850 C   0  0  0  0  0  0  0  0  0  0  0  0
  139.9520   70.9100  223.6470 C   0  0  0  0  0  0  0  0  0  0  0  0
  139.4490   69.6250  223.7480 C   0  0  0  0  0  0  0  0  0  0  0  0
  139.3710   68.9530  224.9400 C   0  0  0  0  0  0  0  0  0  0  0  0
  139.8070   69.5690  226.0970 C   0  0  0  0  0  0  0  0  0  0  0  0
  139.7350   68.9130  227.2870 C   0  0  0  0  0  0  0  0  0  0  0  0
  140.1690   69.5240  228.4310 C   0  0  0  0  0  0  0  0  0  0  0  0
  140.6690   70.8010  228.3290 C   0  0  0  0  0  0  0  0  0  0  0  0
  140.7450   71.4720  227.1290 C   0  0  0  0  0  0  0  0  0  0  0  0
  140.3040   70.8490  225.9680 C   0  0  0  0  0  0  0  0  0  0  0  0
  140.3740   71.4960  224.7860 N   0  0  0  0  0  0  0  0  0  0  0  0
  139.5700   73.4810  223.1530 H   0  0  0  0  0  0  0  0  0  0  0  0
  140.6505   73.2793  220.3584 H   0  0  0  0  0  0  0  0  0  0  0  0
  138.8961   73.5390  220.4099 H   0  0  0  0  0  0  0  0  0  0  0  0
  138.9453   75.6782  218.7735 H   0  0  0  0  0  0  0  0  0  0  0  0
  139.0039   77.3318  219.4086 H   0  0  0  0  0  0  0  0  0  0  0  0
  140.5932   77.9188  217.8151 H   0  0  0  0  0  0  0  0  0  0  0  0
  141.0910   76.1510  216.2810 H   0  0  0  0  0  0  0  0  0  0  0  0
  142.0359   75.2712  218.3591 H   0  0  0  0  0  0  0  0  0  0  0  0
  142.7828   76.8177  218.0999 H   0  0  0  0  0  0  0  0  0  0  0  0
  142.5436   76.2715  220.7031 H   0  0  0  0  0  0  0  0  0  0  0  0
  141.2972   77.6356  222.4196 H   0  0  0  0  0  0  0  0  0  0  0  0
  141.1543   80.0171  223.1232 H   0  0  0  0  0  0  0  0  0  0  0  0
  142.0295   78.7968  218.3332 H   0  0  0  0  0  0  0  0  0  0  0  0
  139.0976   69.1225  222.8348 H   0  0  0  0  0  0  0  0  0  0  0  0
  138.9645   67.9315  224.9751 H   0  0  0  0  0  0  0  0  0  0  0  0
  139.3280   67.8919  227.3288 H   0  0  0  0  0  0  0  0  0  0  0  0
  140.1197   69.0101  229.4023 H   0  0  0  0  0  0  0  0  0  0  0  0
  141.0216   71.3056  229.2406 H   0  0  0  0  0  0  0  0  0  0  0  0
  141.1517   72.4933  227.0898 H   0  0  0  0  0  0  0  0  0  0  0  0
  1  2  2  0
  2  3  1  0
  3  4  1  0
  4  5  1  0
  5  6  2  0
  5  7  1  0
  7  8  1  0
  8  9  1  0
  9 10  1  0
  9 11  1  0
 11 12  1  0
 12 13  1  0
 13 14  2  0
 14 15  1  0
 15 16  2  0
 16 17  1  0
 16 18  1  0
 18 19  1  0
 18 20  2  0
  2 21  1  0
 21 22  2  0
 22 23  1  0
 23 24  2  0
 24 25  1  0
 25 26  2  0
 26 27  1  0
 27 28  2  0
 28 29  1  0
 29 30  2  0
 12  7  1  0
 20 13  1  0
 30 21  1  0
 29 24  1  0
  3 31  1  0
  4 32  1  0
  4 33  1  0
  8 34  1  0
  8 35  1  0
  9 36  1  6
 10 37  1  0
 11 38  1  0
 11 39  1  0
 12 40  1  1
 14 41  1  0
 15 42  1  0
 20 43  1  0
 22 44  1  0
 23 45  1  0
 25 46  1  0
 26 47  1  0
 27 48  1  0
 28 49  1  0
M  END
>  <smiles>  (29) 
O=C(NCC(=O)N1C[C@H](O)C[C@H]1c1ccc(Cl)c(Cl)c1)c1ccc2ccccc2n1

>  <score_type>  (29) 
oracle

>  <origin>  (29) 
autodockgpu

>  <m_score__min__energy>  (29) 
-9.2300000000000004

>  <m_primary>  (29) 
energy

>  <rmsd>  (29) 
1.3214556349747146

>  <m_score__min__rmsd>  (29) 
1.3214556349747146

>  <meeko>  (29) 
{"free_energy": -8.06, "intermolecular_energy": -9.85, "internal_energy": -1.67, "cluster_size": 9, "cluster_id": 3, "rank_in_cluster": 6}

>  <energy>  (29) 
-7.98

>  <cluster_rmsd>  (29) 
0.94

>  <cluster>  (29) 
2

$$$$

     RDKit          3D

 49 52  0  0  0  0  0  0  0  0999 V2000
  141.5550   74.8390  221.0800 O   0  0  0  0  0  0  0  0  0  0  0  0
  140.5400   75.1590  221.7900 C   0  0  0  0  0  0  0  0  0  0  0  0
  139.5670   74.1970  222.1560 N   0  0  0  0  0  0  0  0  0  0  0  0
  139.6870   72.7940  221.7330 C   0  0  0  0  0  0  0  0  0  0  0  0
  138.5140   72.0800  222.3040 C   0  0  0  0  0  0  0  0  0  0  0  0
  137.3890   72.6590  222.4510 O   0  0  0  0  0  0  0  0  0  0  0  0
  138.6540   70.7180  222.6950 N   0  0  0  0  0  0  0  0  0  0  0  0
  139.5790   69.7120  222.1790 C   0  0  0  0  0  0  0  0  0  0  0  0
  138.9350   68.3780  222.4430 C   0  0  2  0  0  0  0  0  0  0  0  0
  138.9120   67.5340  221.3420 O   0  0  0  0  0  0  0  0  0  0  0  0
  137.5710   68.7530  222.9250 C   0  0  0  0  0  0  0  0  0  0  0  0
  137.8830   70.0290  223.7150 C   0  0  1  0  0  0  0  0  0  0  0  0
  138.7040   69.7490  224.9180 C   0  0  0  0  0  0  0  0  0  0  0  0
  138.7040   68.4200  225.3600 C   0  0  0  0  0  0  0  0  0  0  0  0
  139.4270   68.0240  226.4690 C   0  0  0  0  0  0  0  0  0  0  0  0
  140.1570   68.9860  227.1350 C   0  0  0  0  0  0  0  0  0  0  0  0
  141.0720   68.5220  228.5280 Cl  0  0  0  0  0  0  0  0  0  0  0  0
  140.1490   70.2940  226.6890 C   0  0  0  0  0  0  0  0  0  0  0  0
  141.0780   71.5250  227.5330 Cl  0  0  0  0  0  0  0  0  0  0  0  0
  139.4320   70.7020  225.5850 C   0  0  0  0  0  0  0  0  0  0  0  0
  140.3900   76.5440  222.2280 C   0  0  0  0  0  0  0  0  0  0  0  0
  139.1300   77.1020  222.3530 C   0  0  0  0  0  0  0  0  0  0  0  0
  138.9310   78.3950  222.7590 C   0  0  0  0  0  0  0  0  0  0  0  0
  140.0210   79.1890  223.0600 C   0  0  0  0  0  0  0  0  0  0  0  0
  139.8380   80.4740  223.4640 C   0  0  0  0  0  0  0  0  0  0  0  0
  140.9190   81.2570  223.7620 C   0  0  0  0  0  0  0  0  0  0  0  0
  142.1710   80.7010  223.6370 C   0  0  0  0  0  0  0  0  0  0  0  0
  142.3650   79.4010  223.2290 C   0  0  0  0  0  0  0  0  0  0  0  0
  141.2650   78.6070  222.9270 C   0  0  0  0  0  0  0  0  0  0  0  0
  141.4420   77.3320  222.5250 N   0  0  0  0  0  0  0  0  0  0  0  0
  138.7610   74.5220  222.7370 H   0  0  0  0  0  0  0  0  0  0  0  0
  139.6762   72.7257  220.6352 H   0  0  0  0  0  0  0  0  0  0  0  0
  140.6314   72.3519  222.0832 H   0  0  0  0  0  0  0  0  0  0  0  0
  139.7339   69.8540  221.0993 H   0  0  0  0  0  0  0  0  0  0  0  0
  140.5638   69.7856  222.6636 H   0  0  0  0  0  0  0  0  0  0  0  0
  139.5009   67.7805  223.1729 H   0  0  0  0  0  0  0  0  0  0  0  0
  138.8640   68.0690  220.5280 H   0  0  0  0  0  0  0  0  0  0  0  0
  136.8870   68.9533  222.0872 H   0  0  0  0  0  0  0  0  0  0  0  0
  137.0641   67.9701  223.5082 H   0  0  0  0  0  0  0  0  0  0  0  0
  137.0129   70.5691  224.1165 H   0  0  0  0  0  0  0  0  0  0  0  0
  138.1134   67.6724  224.8103 H   0  0  0  0  0  0  0  0  0  0  0  0
  139.4205   66.9778  226.8088 H   0  0  0  0  0  0  0  0  0  0  0  0
  139.4429   71.7502  225.2517 H   0  0  0  0  0  0  0  0  0  0  0  0
  138.2526   76.4821  222.1167 H   0  0  0  0  0  0  0  0  0  0  0  0
  137.9111   78.7982  222.8448 H   0  0  0  0  0  0  0  0  0  0  0  0
  138.8209   80.8838  223.5512 H   0  0  0  0  0  0  0  0  0  0  0  0
  140.7913   82.2988  224.0913 H   0  0  0  0  0  0  0  0  0  0  0  0
  143.0503   81.3187  223.8720 H   0  0  0  0  0  0  0  0  0  0  0  0
  143.3830   78.9934  223.1426 H   0  0  0  0  0  0  0  0  0  0  0  0
  1  2  2  0
  2  3  1  0
  3  4  1  0
  4  5  1  0
  5  6  2  0
  5  7  1  0
  7  8  1  0
  8  9  1  0
  9 10  1  0
  9 11  1  0
 11 12  1  0
 12 13  1  0
 13 14  2  0
 14 15  1  0
 15 16  2  0
 16 17  1  0
 16 18  1  0
 18 19  1  0
 18 20  2  0
  2 21  1  0
 21 22  2  0
 22 23  1  0
 23 24  2  0
 24 25  1  0
 25 26  2  0
 26 27  1  0
 27 28  2  0
 28 29  1  0
 29 30  2  0
 12  7  1  0
 20 13  1  0
 30 21  1  0
 29 24  1  0
  3 31  1  0
  4 32  1  0
  4 33  1  0
  8 34  1  0
  8 35  1  0
  9 36  1  1
 10 37  1  0
 11 38  1  0
 11 39  1  0
 12 40  1  1
 14 41  1  0
 15 42  1  0
 20 43  1  0
 22 44  1  0
 23 45  1  0
 25 46  1  0
 26 47  1  0
 27 48  1  0
 28 49  1  0
M  END
>  <smiles>  (30) 
O=C(NCC(=O)N1C[C@H](O)C[C@H]1c1ccc(Cl)c(Cl)c1)c1ccc2ccccc2n1

>  <score_type>  (30) 
oracle

>  <origin>  (30) 
autodockgpu

>  <m_score__min__energy>  (30) 
-9.2300000000000004

>  <m_primary>  (30) 
energy

>  <rmsd>  (30) 
8.341020589412295

>  <m_score__min__rmsd>  (30) 
8.341020589412295

>  <meeko>  (30) 
{"free_energy": -8.84, "intermolecular_energy": -10.63, "internal_energy": -1.46, "cluster_size": 18, "cluster_id": 2, "rank_in_cluster": 1}

>  <energy>  (30) 
-8.52

>  <cluster_rmsd>  (30) 
0.0

>  <cluster>  (30) 
3

$$$$

     RDKit          3D

 49 52  0  0  0  0  0  0  0  0999 V2000
  141.2940   75.1300  221.3090 O   0  0  0  0  0  0  0  0  0  0  0  0
  140.2180   75.4100  221.9420 C   0  0  0  0  0  0  0  0  0  0  0  0
  139.2320   74.4230  222.1850 N   0  0  0  0  0  0  0  0  0  0  0  0
  139.4080   73.0400  221.7200 C   0  0  0  0  0  0  0  0  0  0  0  0
  138.3570   72.2310  222.3940 C   0  0  0  0  0  0  0  0  0  0  0  0
  137.2300   72.7340  222.7080 O   0  0  0  0  0  0  0  0  0  0  0  0
  138.6190   70.8650  222.6940 N   0  0  0  0  0  0  0  0  0  0  0  0
  139.6540   69.9920  222.1440 C   0  0  0  0  0  0  0  0  0  0  0  0
  139.1370   68.5860  222.2910 C   0  0  2  0  0  0  0  0  0  0  0  0
  139.2300   67.8270  221.1340 O   0  0  0  0  0  0  0  0  0  0  0  0
  137.7290   68.7920  222.7470 C   0  0  0  0  0  0  0  0  0  0  0  0
  137.8900   70.0320  223.6350 C   0  0  1  0  0  0  0  0  0  0  0  0
  138.6990   69.7450  224.8450 C   0  0  0  0  0  0  0  0  0  0  0  0
  138.6880   68.4160  225.2850 C   0  0  0  0  0  0  0  0  0  0  0  0
  139.3990   68.0150  226.4000 C   0  0  0  0  0  0  0  0  0  0  0  0
  140.1280   68.9720  227.0740 C   0  0  0  0  0  0  0  0  0  0  0  0
  141.0290   68.5000  228.4740 Cl  0  0  0  0  0  0  0  0  0  0  0  0
  140.1320   70.2810  226.6300 C   0  0  0  0  0  0  0  0  0  0  0  0
  141.0590   71.5060  227.4830 Cl  0  0  0  0  0  0  0  0  0  0  0  0
  139.4270   70.6940  225.5200 C   0  0  0  0  0  0  0  0  0  0  0  0
  140.0110   76.7740  222.4180 C   0  0  0  0  0  0  0  0  0  0  0  0
  141.0940   77.5770  222.7260 C   0  0  0  0  0  0  0  0  0  0  0  0
  140.9570   78.8640  223.1760 C   0  0  0  0  0  0  0  0  0  0  0  0
  139.6920   79.3970  223.3360 C   0  0  0  0  0  0  0  0  0  0  0  0
  139.5410   80.6730  223.7820 C   0  0  0  0  0  0  0  0  0  0  0  0
  138.2890   81.1990  223.9390 C   0  0  0  0  0  0  0  0  0  0  0  0
  137.2130   80.3990  223.6330 C   0  0  0  0  0  0  0  0  0  0  0  0
  137.3560   79.1070  223.1800 C   0  0  0  0  0  0  0  0  0  0  0  0
  138.6300   78.5750  223.0210 C   0  0  0  0  0  0  0  0  0  0  0  0
  138.7840   77.3110  222.5790 N   0  0  0  0  0  0  0  0  0  0  0  0
  138.3750   74.7150  222.7070 H   0  0  0  0  0  0  0  0  0  0  0  0
  139.2860   72.9877  220.6280 H   0  0  0  0  0  0  0  0  0  0  0  0
  140.4138   72.6646  221.9596 H   0  0  0  0  0  0  0  0  0  0  0  0
  139.8266   70.2261  221.0832 H   0  0  0  0  0  0  0  0  0  0  0  0
  140.6116   70.1246  222.6688 H   0  0  0  0  0  0  0  0  0  0  0  0
  139.7368   67.9941  222.9980 H   0  0  0  0  0  0  0  0  0  0  0  0
  138.7870   68.2980  220.4040 H   0  0  0  0  0  0  0  0  0  0  0  0
  137.0540   68.9858  221.9003 H   0  0  0  0  0  0  0  0  0  0  0  0
  137.2844   67.9237  223.2554 H   0  0  0  0  0  0  0  0  0  0  0  0
  136.9595   70.4554  224.0410 H   0  0  0  0  0  0  0  0  0  0  0  0
  138.0984   67.6721  224.7291 H   0  0  0  0  0  0  0  0  0  0  0  0
  139.3840   66.9684  226.7383 H   0  0  0  0  0  0  0  0  0  0  0  0
  139.4467   71.7425  225.1878 H   0  0  0  0  0  0  0  0  0  0  0  0
  142.1070   77.1657  222.6048 H   0  0  0  0  0  0  0  0  0  0  0  0
  141.8466   79.4680  223.4080 H   0  0  0  0  0  0  0  0  0  0  0  0
  140.4266   81.2819  224.0165 H   0  0  0  0  0  0  0  0  0  0  0  0
  138.1468   82.2288  224.2985 H   0  0  0  0  0  0  0  0  0  0  0  0
  136.1989   80.8073  223.7550 H   0  0  0  0  0  0  0  0  0  0  0  0
  136.4688   78.5004  222.9457 H   0  0  0  0  0  0  0  0  0  0  0  0
  1  2  2  0
  2  3  1  0
  3  4  1  0
  4  5  1  0
  5  6  2  0
  5  7  1  0
  7  8  1  0
  8  9  1  0
  9 10  1  0
  9 11  1  0
 11 12  1  0
 12 13  1  0
 13 14  2  0
 14 15  1  0
 15 16  2  0
 16 17  1  0
 16 18  1  0
 18 19  1  0
 18 20  2  0
  2 21  1  0
 21 22  2  0
 22 23  1  0
 23 24  2  0
 24 25  1  0
 25 26  2  0
 26 27  1  0
 27 28  2  0
 28 29  1  0
 29 30  2  0
 12  7  1  0
 20 13  1  0
 30 21  1  0
 29 24  1  0
  3 31  1  0
  4 32  1  0
  4 33  1  0
  8 34  1  0
  8 35  1  0
  9 36  1  1
 10 37  1  0
 11 38  1  0
 11 39  1  0
 12 40  1  1
 14 41  1  0
 15 42  1  0
 20 43  1  0
 22 44  1  0
 23 45  1  0
 25 46  1  0
 26 47  1  0
 27 48  1  0
 28 49  1  0
M  END
>  <smiles>  (31) 
O=C(NCC(=O)N1C[C@H](O)C[C@H]1c1ccc(Cl)c(Cl)c1)c1ccc2ccccc2n1

>  <score_type>  (31) 
oracle

>  <origin>  (31) 
autodockgpu

>  <m_score__min__energy>  (31) 
-9.2300000000000004

>  <m_primary>  (31) 
energy

>  <rmsd>  (31) 
8.477707099670807

>  <m_score__min__rmsd>  (31) 
8.477707099670807

>  <meeko>  (31) 
{"free_energy": -8.08, "intermolecular_energy": -9.87, "internal_energy": -1.8, "cluster_size": 18, "cluster_id": 2, "rank_in_cluster": 16}

>  <energy>  (31) 
-8.51

>  <cluster_rmsd>  (31) 
1.5

>  <cluster>  (31) 
3

$$$$

     RDKit          3D

 49 52  0  0  0  0  0  0  0  0999 V2000
  139.3510   70.7220  221.3020 O   0  0  0  0  0  0  0  0  0  0  0  0
  139.2820   71.5250  222.2950 C   0  0  0  0  0  0  0  0  0  0  0  0
  138.8720   72.8700  222.1230 N   0  0  0  0  0  0  0  0  0  0  0  0
  138.5100   73.3920  220.7970 C   0  0  0  0  0  0  0  0  0  0  0  0
  138.4200   74.8700  220.9370 C   0  0  0  0  0  0  0  0  0  0  0  0
  137.3020   75.4780  220.8710 O   0  0  0  0  0  0  0  0  0  0  0  0
  139.6100   75.6210  221.1500 N   0  0  0  0  0  0  0  0  0  0  0  0
  140.1570   76.1290  222.4060 C   0  0  0  0  0  0  0  0  0  0  0  0
  141.0130   77.3120  222.0420 C   0  0  2  0  0  0  0  0  0  0  0  0
  140.7640   78.4440  222.8030 O   0  0  0  0  0  0  0  0  0  0  0  0
  140.7190   77.5040  220.5890 C   0  0  0  0  0  0  0  0  0  0  0  0
  140.5540   76.0500  220.1310 C   0  0  1  0  0  0  0  0  0  0  0  0
  141.8270   75.2940  220.2190 C   0  0  0  0  0  0  0  0  0  0  0  0
  142.9950   76.0430  220.0320 C   0  0  0  0  0  0  0  0  0  0  0  0
  144.2470   75.4610  220.0880 C   0  0  0  0  0  0  0  0  0  0  0  0
  144.3140   74.1060  220.3360 C   0  0  0  0  0  0  0  0  0  0  0  0
  145.8670   73.3480  220.4110 Cl  0  0  0  0  0  0  0  0  0  0  0  0
  143.1540   73.3770  220.5180 C   0  0  0  0  0  0  0  0  0  0  0  0
  143.2310   71.6500  220.8350 Cl  0  0  0  0  0  0  0  0  0  0  0  0
  141.8990   73.9460  220.4650 C   0  0  0  0  0  0  0  0  0  0  0  0
  139.6340   71.0400  223.6260 C   0  0  0  0  0  0  0  0  0  0  0  0
  139.4500   69.7080  223.9530 C   0  0  0  0  0  0  0  0  0  0  0  0
  139.7630   69.1990  225.1860 C   0  0  0  0  0  0  0  0  0  0  0  0
  140.2840   70.0360  226.1540 C   0  0  0  0  0  0  0  0  0  0  0  0
  140.5990   69.5440  227.3830 C   0  0  0  0  0  0  0  0  0  0  0  0
  141.1150   70.3740  228.3390 C   0  0  0  0  0  0  0  0  0  0  0  0
  141.2970   71.6970  228.0120 C   0  0  0  0  0  0  0  0  0  0  0  0
  140.9820   72.2030  226.7720 C   0  0  0  0  0  0  0  0  0  0  0  0
  140.4570   71.3580  225.8020 C   0  0  0  0  0  0  0  0  0  0  0  0
  140.1430   71.8420  224.5820 N   0  0  0  0  0  0  0  0  0  0  0  0
  138.8360   73.4760  222.9740 H   0  0  0  0  0  0  0  0  0  0  0  0
  139.2820   73.1261  220.0599 H   0  0  0  0  0  0  0  0  0  0  0  0
  137.5579   72.9661  220.4474 H   0  0  0  0  0  0  0  0  0  0  0  0
  139.3437   76.4391  223.0786 H   0  0  0  0  0  0  0  0  0  0  0  0
  140.7403   75.3579  222.9306 H   0  0  0  0  0  0  0  0  0  0  0  0
  142.0789   77.1329  222.2465 H   0  0  0  0  0  0  0  0  0  0  0  0
  140.9490   79.2380  222.2690 H   0  0  0  0  0  0  0  0  0  0  0  0
  139.7963   78.0831  220.4363 H   0  0  0  0  0  0  0  0  0  0  0  0
  141.4878   78.0683  220.0408 H   0  0  0  0  0  0  0  0  0  0  0  0
  140.2416   75.9084  219.0858 H   0  0  0  0  0  0  0  0  0  0  0  0
  142.9139   77.1223  219.8355 H   0  0  0  0  0  0  0  0  0  0  0  0
  145.1590   76.0580  219.9398 H   0  0  0  0  0  0  0  0  0  0  0  0
  140.9912   73.3429  220.6141 H   0  0  0  0  0  0  0  0  0  0  0  0
  139.0356   69.0303  223.1921 H   0  0  0  0  0  0  0  0  0  0  0  0
  139.6009   68.1330  225.4034 H   0  0  0  0  0  0  0  0  0  0  0  0
  140.4386   68.4791  227.6071 H   0  0  0  0  0  0  0  0  0  0  0  0
  141.3763   69.9953  229.3382 H   0  0  0  0  0  0  0  0  0  0  0  0
  141.7105   72.3772  228.7712 H   0  0  0  0  0  0  0  0  0  0  0  0
  141.1445   73.2681  226.5503 H   0  0  0  0  0  0  0  0  0  0  0  0
  1  2  2  0
  2  3  1  0
  3  4  1  0
  4  5  1  0
  5  6  2  0
  5  7  1  0
  7  8  1  0
  8  9  1  0
  9 10  1  0
  9 11  1  0
 11 12  1  0
 12 13  1  0
 13 14  2  0
 14 15  1  0
 15 16  2  0
 16 17  1  0
 16 18  1  0
 18 19  1  0
 18 20  2  0
  2 21  1  0
 21 22  2  0
 22 23  1  0
 23 24  2  0
 24 25  1  0
 25 26  2  0
 26 27  1  0
 27 28  2  0
 28 29  1  0
 29 30  2  0
 12  7  1  0
 20 13  1  0
 30 21  1  0
 29 24  1  0
  3 31  1  0
  4 32  1  0
  4 33  1  0
  8 34  1  0
  8 35  1  0
  9 36  1  6
 10 37  1  0
 11 38  1  0
 11 39  1  0
 12 40  1  6
 14 41  1  0
 15 42  1  0
 20 43  1  0
 22 44  1  0
 23 45  1  0
 25 46  1  0
 26 47  1  0
 27 48  1  0
 28 49  1  0
M  END
>  <smiles>  (32) 
O=C(NCC(=O)N1C[C@H](O)C[C@H]1c1ccc(Cl)c(Cl)c1)c1ccc2ccccc2n1

>  <score_type>  (32) 
oracle

>  <origin>  (32) 
autodockgpu

>  <m_score__min__energy>  (32) 
-9.2300000000000004

>  <m_primary>  (32) 
energy

>  <rmsd>  (32) 
2.3261259403411723

>  <m_score__min__rmsd>  (32) 
2.3261259403411723

>  <meeko>  (32) 
{"free_energy": -8.07, "intermolecular_energy": -9.86, "internal_energy": -1.86, "cluster_size": 7, "cluster_id": 4, "rank_in_cluster": 5}

>  <energy>  (32) 
-8.38

>  <cluster_rmsd>  (32) 
0.34

>  <cluster>  (32) 
3

$$$$

     RDKit          3D

 49 52  0  0  0  0  0  0  0  0999 V2000
  141.3410   74.8620  220.9490 O   0  0  0  0  0  0  0  0  0  0  0  0
  140.3810   75.1970  221.7250 C   0  0  0  0  0  0  0  0  0  0  0  0
  139.3960   74.2590  222.1210 N   0  0  0  0  0  0  0  0  0  0  0  0
  139.4390   72.8670  221.6540 C   0  0  0  0  0  0  0  0  0  0  0  0
  138.3920   72.1340  222.4160 C   0  0  0  0  0  0  0  0  0  0  0  0
  137.3080   72.7000  222.7710 O   0  0  0  0  0  0  0  0  0  0  0  0
  138.6100   70.7680  222.7550 N   0  0  0  0  0  0  0  0  0  0  0  0
  139.5960   69.8390  222.2100 C   0  0  0  0  0  0  0  0  0  0  0  0
  139.0310   68.4600  222.4160 C   0  0  2  0  0  0  0  0  0  0  0  0
  139.0660   67.6600  221.2830 O   0  0  0  0  0  0  0  0  0  0  0  0
  137.6430   68.7350  222.8980 C   0  0  0  0  0  0  0  0  0  0  0  0
  137.8730   69.9960  223.7400 C   0  0  1  0  0  0  0  0  0  0  0  0
  138.7000   69.7170  224.9400 C   0  0  0  0  0  0  0  0  0  0  0  0
  138.7070   68.3880  225.3800 C   0  0  0  0  0  0  0  0  0  0  0  0
  139.4360   67.9940  226.4850 C   0  0  0  0  0  0  0  0  0  0  0  0
  140.1650   68.9580  227.1500 C   0  0  0  0  0  0  0  0  0  0  0  0
  141.0880   68.4950  228.5390 Cl  0  0  0  0  0  0  0  0  0  0  0  0
  140.1500   70.2670  226.7060 C   0  0  0  0  0  0  0  0  0  0  0  0
  141.0760   71.5010  227.5480 Cl  0  0  0  0  0  0  0  0  0  0  0  0
  139.4270   70.6730  225.6050 C   0  0  0  0  0  0  0  0  0  0  0  0
  140.3080   76.5720  222.2090 C   0  0  0  0  0  0  0  0  0  0  0  0
  139.0790   77.1570  222.4610 C   0  0  0  0  0  0  0  0  0  0  0  0
  138.9520   78.4440  222.9150 C   0  0  0  0  0  0  0  0  0  0  0  0
  140.0860   79.2020  223.1350 C   0  0  0  0  0  0  0  0  0  0  0  0
  139.9750   80.4810  223.5860 C   0  0  0  0  0  0  0  0  0  0  0  0
  141.0980   81.2290  223.8030 C   0  0  0  0  0  0  0  0  0  0  0  0
  142.3180   80.6460  223.5520 C   0  0  0  0  0  0  0  0  0  0  0  0
  142.4400   79.3530  223.0960 C   0  0  0  0  0  0  0  0  0  0  0  0
  141.2970   78.5950  222.8760 C   0  0  0  0  0  0  0  0  0  0  0  0
  141.4030   77.3270  222.4290 N   0  0  0  0  0  0  0  0  0  0  0  0
  138.6370   74.5960  222.7570 H   0  0  0  0  0  0  0  0  0  0  0  0
  139.2266   72.8211  220.5757 H   0  0  0  0  0  0  0  0  0  0  0  0
  140.4326   72.4235  221.8153 H   0  0  0  0  0  0  0  0  0  0  0  0
  139.7501   70.0319  221.1381 H   0  0  0  0  0  0  0  0  0  0  0  0
  140.5708   69.9515  222.7071 H   0  0  0  0  0  0  0  0  0  0  0  0
  139.6262   67.8691  223.1277 H   0  0  0  0  0  0  0  0  0  0  0  0
  138.7090   68.1600  220.5260 H   0  0  0  0  0  0  0  0  0  0  0  0
  136.9551   68.9272  222.0615 H   0  0  0  0  0  0  0  0  0  0  0  0
  137.1785   67.9015  223.4453 H   0  0  0  0  0  0  0  0  0  0  0  0
  136.9698   70.4687  224.1532 H   0  0  0  0  0  0  0  0  0  0  0  0
  138.1170   67.6387  224.8319 H   0  0  0  0  0  0  0  0  0  0  0  0
  139.4353   66.9473  226.8232 H   0  0  0  0  0  0  0  0  0  0  0  0
  139.4323   71.7215  225.2723 H   0  0  0  0  0  0  0  0  0  0  0  0
  138.1677   76.5652  222.2900 H   0  0  0  0  0  0  0  0  0  0  0  0
  137.9553   78.8699  223.1027 H   0  0  0  0  0  0  0  0  0  0  0  0
  138.9813   80.9129  223.7759 H   0  0  0  0  0  0  0  0  0  0  0  0
  141.0283   82.2647  224.1669 H   0  0  0  0  0  0  0  0  0  0  0  0
  143.2310   81.2354  223.7221 H   0  0  0  0  0  0  0  0  0  0  0  0
  143.4349   78.9233  222.9073 H   0  0  0  0  0  0  0  0  0  0  0  0
  1  2  2  0
  2  3  1  0
  3  4  1  0
  4  5  1  0
  5  6  2  0
  5  7  1  0
  7  8  1  0
  8  9  1  0
  9 10  1  0
  9 11  1  0
 11 12  1  0
 12 13  1  0
 13 14  2  0
 14 15  1  0
 15 16  2  0
 16 17  1  0
 16 18  1  0
 18 19  1  0
 18 20  2  0
  2 21  1  0
 21 22  2  0
 22 23  1  0
 23 24  2  0
 24 25  1  0
 25 26  2  0
 26 27  1  0
 27 28  2  0
 28 29  1  0
 29 30  2  0
 12  7  1  0
 20 13  1  0
 30 21  1  0
 29 24  1  0
  3 31  1  0
  4 32  1  0
  4 33  1  0
  8 34  1  0
  8 35  1  0
  9 36  1  1
 10 37  1  0
 11 38  1  0
 11 39  1  0
 12 40  1  1
 14 41  1  0
 15 42  1  0
 20 43  1  0
 22 44  1  0
 23 45  1  0
 25 46  1  0
 26 47  1  0
 27 48  1  0
 28 49  1  0
M  END
>  <smiles>  (33) 
O=C(NCC(=O)N1C[C@H](O)C[C@H]1c1ccc(Cl)c(Cl)c1)c1ccc2ccccc2n1

>  <score_type>  (33) 
oracle

>  <origin>  (33) 
autodockgpu

>  <m_score__min__energy>  (33) 
-9.2300000000000004

>  <m_primary>  (33) 
energy

>  <rmsd>  (33) 
8.330847802885328

>  <m_score__min__rmsd>  (33) 
8.330847802885328

>  <meeko>  (33) 
{"free_energy": -8.8, "intermolecular_energy": -10.59, "internal_energy": -1.54, "cluster_size": 18, "cluster_id": 2, "rank_in_cluster": 3}

>  <energy>  (33) 
-8.37

>  <cluster_rmsd>  (33) 
0.32

>  <cluster>  (33) 
3

$$$$

     RDKit          3D

 49 52  0  0  0  0  0  0  0  0999 V2000
  138.8820   70.5080  221.4040 O   0  0  0  0  0  0  0  0  0  0  0  0
  139.0550   71.3230  222.3740 C   0  0  0  0  0  0  0  0  0  0  0  0
  138.8720   72.7170  222.2030 N   0  0  0  0  0  0  0  0  0  0  0  0
  138.4770   73.2790  220.9030 C   0  0  0  0  0  0  0  0  0  0  0  0
  138.3520   74.7480  221.1000 C   0  0  0  0  0  0  0  0  0  0  0  0
  137.2140   75.3170  221.1600 O   0  0  0  0  0  0  0  0  0  0  0  0
  139.5320   75.5350  221.2230 N   0  0  0  0  0  0  0  0  0  0  0  0
  140.1180   76.1170  222.4280 C   0  0  0  0  0  0  0  0  0  0  0  0
  140.9300   77.2980  221.9700 C   0  0  2  0  0  0  0  0  0  0  0  0
  140.6860   78.4620  222.6840 O   0  0  0  0  0  0  0  0  0  0  0  0
  140.5710   77.4110  220.5230 C   0  0  0  0  0  0  0  0  0  0  0  0
  140.4210   75.9320  220.1450 C   0  0  1  0  0  0  0  0  0  0  0  0
  141.7150   75.2090  220.2160 C   0  0  0  0  0  0  0  0  0  0  0  0
  142.8590   75.9820  219.9860 C   0  0  0  0  0  0  0  0  0  0  0  0
  144.1260   75.4320  220.0220 C   0  0  0  0  0  0  0  0  0  0  0  0
  144.2320   74.0840  220.2940 C   0  0  0  0  0  0  0  0  0  0  0  0
  145.8060   73.3660  220.3450 Cl  0  0  0  0  0  0  0  0  0  0  0  0
  143.0960   73.3310  220.5190 C   0  0  0  0  0  0  0  0  0  0  0  0
  143.2230   71.6130  220.8670 Cl  0  0  0  0  0  0  0  0  0  0  0  0
  141.8260   73.8680  220.4860 C   0  0  0  0  0  0  0  0  0  0  0  0
  139.4470   70.7990  223.6790 C   0  0  0  0  0  0  0  0  0  0  0  0
  139.3160   69.4500  223.9560 C   0  0  0  0  0  0  0  0  0  0  0  0
  139.6690   68.9050  225.1630 C   0  0  0  0  0  0  0  0  0  0  0  0
  140.1780   69.7220  226.1540 C   0  0  0  0  0  0  0  0  0  0  0  0
  140.5320   69.1950  227.3570 C   0  0  0  0  0  0  0  0  0  0  0  0
  141.0350   70.0040  228.3370 C   0  0  0  0  0  0  0  0  0  0  0  0
  141.1660   71.3450  228.0600 C   0  0  0  0  0  0  0  0  0  0  0  0
  140.8100   71.8870  226.8450 C   0  0  0  0  0  0  0  0  0  0  0  0
  140.2980   71.0620  225.8510 C   0  0  0  0  0  0  0  0  0  0  0  0
  139.9460   71.5810  224.6580 N   0  0  0  0  0  0  0  0  0  0  0  0
  139.0280   73.3310  223.0340 H   0  0  0  0  0  0  0  0  0  0  0  0
  139.2442   73.0608  220.1455 H   0  0  0  0  0  0  0  0  0  0  0  0
  137.5307   72.8423  220.5511 H   0  0  0  0  0  0  0  0  0  0  0  0
  139.3260   76.4431  223.1182 H   0  0  0  0  0  0  0  0  0  0  0  0
  140.7403   75.3860  222.9650 H   0  0  0  0  0  0  0  0  0  0  0  0
  142.0073   77.1517  222.1376 H   0  0  0  0  0  0  0  0  0  0  0  0
  139.7610   78.4610  222.9940 H   0  0  0  0  0  0  0  0  0  0  0  0
  139.6295   77.9620  220.3818 H   0  0  0  0  0  0  0  0  0  0  0  0
  141.3026   77.9635  219.9151 H   0  0  0  0  0  0  0  0  0  0  0  0
  140.0681   75.7311  219.1227 H   0  0  0  0  0  0  0  0  0  0  0  0
  142.7465   77.0549  219.7710 H   0  0  0  0  0  0  0  0  0  0  0  0
  145.0191   76.0478  219.8401 H   0  0  0  0  0  0  0  0  0  0  0  0
  140.9373   73.2461  220.6688 H   0  0  0  0  0  0  0  0  0  0  0  0
  138.9121   68.7879  223.1759 H   0  0  0  0  0  0  0  0  0  0  0  0
  139.5481   67.8263  225.3411 H   0  0  0  0  0  0  0  0  0  0  0  0
  140.4134   68.1170  227.5412 H   0  0  0  0  0  0  0  0  0  0  0  0
  141.3258   69.5957  229.3162 H   0  0  0  0  0  0  0  0  0  0  0  0
  141.5702   72.0093  228.8380 H   0  0  0  0  0  0  0  0  0  0  0  0
  140.9301   72.9651  226.6628 H   0  0  0  0  0  0  0  0  0  0  0  0
  1  2  2  0
  2  3  1  0
  3  4  1  0
  4  5  1  0
  5  6  2  0
  5  7  1  0
  7  8  1  0
  8  9  1  0
  9 10  1  0
  9 11  1  0
 11 12  1  0
 12 13  1  0
 13 14  2  0
 14 15  1  0
 15 16  2  0
 16 17  1  0
 16 18  1  0
 18 19  1  0
 18 20  2  0
  2 21  1  0
 21 22  2  0
 22 23  1  0
 23 24  2  0
 24 25  1  0
 25 26  2  0
 26 27  1  0
 27 28  2  0
 28 29  1  0
 29 30  2  0
 12  7  1  0
 20 13  1  0
 30 21  1  0
 29 24  1  0
  3 31  1  0
  4 32  1  0
  4 33  1  0
  8 34  1  0
  8 35  1  0
  9 36  1  6
 10 37  1  0
 11 38  1  0
 11 39  1  0
 12 40  1  6
 14 41  1  0
 15 42  1  0
 20 43  1  0
 22 44  1  0
 23 45  1  0
 25 46  1  0
 26 47  1  0
 27 48  1  0
 28 49  1  0
M  END
>  <smiles>  (34) 
O=C(NCC(=O)N1C[C@H](O)C[C@H]1c1ccc(Cl)c(Cl)c1)c1ccc2ccccc2n1

>  <score_type>  (34) 
oracle

>  <origin>  (34) 
autodockgpu

>  <m_score__min__energy>  (34) 
-9.2300000000000004

>  <m_primary>  (34) 
energy

>  <rmsd>  (34) 
2.2696576701800577

>  <m_score__min__rmsd>  (34) 
2.2696576701800577

>  <meeko>  (34) 
{"free_energy": -8.02, "intermolecular_energy": -9.81, "internal_energy": -1.81, "cluster_size": 7, "cluster_id": 4, "rank_in_cluster": 6}

>  <energy>  (34) 
-8.28

>  <cluster_rmsd>  (34) 
0.36

>  <cluster>  (34) 
3

$$$$

     RDKit          3D

 49 52  0  0  0  0  0  0  0  0999 V2000
  137.2600   76.3360  222.7030 O   0  0  0  0  0  0  0  0  0  0  0  0
  138.5200   76.4490  222.5110 C   0  0  0  0  0  0  0  0  0  0  0  0
  139.3070   75.3350  222.1320 N   0  0  0  0  0  0  0  0  0  0  0  0
  138.7060   74.0070  221.9440 C   0  0  0  0  0  0  0  0  0  0  0  0
  139.8080   73.0200  222.1010 C   0  0  0  0  0  0  0  0  0  0  0  0
  141.0300   73.3630  221.9910 O   0  0  0  0  0  0  0  0  0  0  0  0
  139.4880   71.6610  222.3810 N   0  0  0  0  0  0  0  0  0  0  0  0
  140.1530   70.4500  221.9060 C   0  0  0  0  0  0  0  0  0  0  0  0
  139.1200   69.3580  221.9580 C   0  0  2  0  0  0  0  0  0  0  0  0
  139.0290   68.6130  220.7920 O   0  0  0  0  0  0  0  0  0  0  0  0
  137.8630   70.0990  222.2810 C   0  0  0  0  0  0  0  0  0  0  0  0
  138.4010   71.1860  223.2200 C   0  0  1  0  0  0  0  0  0  0  0  0
  138.9080   70.6160  224.4930 C   0  0  0  0  0  0  0  0  0  0  0  0
  138.5200   69.3000  224.7690 C   0  0  0  0  0  0  0  0  0  0  0  0
  138.9230   68.6520  225.9210 C   0  0  0  0  0  0  0  0  0  0  0  0
  139.7260   69.3470  226.8010 C   0  0  0  0  0  0  0  0  0  0  0  0
  140.2470   68.5620  228.2520 Cl  0  0  0  0  0  0  0  0  0  0  0  0
  140.1030   70.6460  226.5170 C   0  0  0  0  0  0  0  0  0  0  0  0
  141.1270   71.5370  227.6320 Cl  0  0  0  0  0  0  0  0  0  0  0  0
  139.7080   71.3040  225.3720 C   0  0  0  0  0  0  0  0  0  0  0  0
  139.1490   77.7550  222.6880 C   0  0  0  0  0  0  0  0  0  0  0  0
  138.3770   78.9020  222.7250 C   0  0  0  0  0  0  0  0  0  0  0  0
  138.9150   80.1510  222.8890 C   0  0  0  0  0  0  0  0  0  0  0  0
  140.2840   80.2890  223.0240 C   0  0  0  0  0  0  0  0  0  0  0  0
  140.8320   81.5240  223.1870 C   0  0  0  0  0  0  0  0  0  0  0  0
  142.1850   81.6580  223.3200 C   0  0  0  0  0  0  0  0  0  0  0  0
  142.9520   80.5170  223.2820 C   0  0  0  0  0  0  0  0  0  0  0  0
  142.4060   79.2640  223.1180 C   0  0  0  0  0  0  0  0  0  0  0  0
  141.0300   79.1300  222.9830 C   0  0  0  0  0  0  0  0  0  0  0  0
  140.4830   77.9080  222.8200 N   0  0  0  0  0  0  0  0  0  0  0  0
  140.3310   75.4930  221.9900 H   0  0  0  0  0  0  0  0  0  0  0  0
  137.9275   73.8313  222.7010 H   0  0  0  0  0  0  0  0  0  0  0  0
  138.2318   73.9207  220.9552 H   0  0  0  0  0  0  0  0  0  0  0  0
  140.5090   70.5897  220.8746 H   0  0  0  0  0  0  0  0  0  0  0  0
  141.0288   70.2040  222.5245 H   0  0  0  0  0  0  0  0  0  0  0  0
  139.3680   68.5861  222.7014 H   0  0  0  0  0  0  0  0  0  0  0  0
  139.8320   68.7530  220.2560 H   0  0  0  0  0  0  0  0  0  0  0  0
  137.4063   70.5331  221.3794 H   0  0  0  0  0  0  0  0  0  0  0  0
  137.0669   69.4763  222.7152 H   0  0  0  0  0  0  0  0  0  0  0  0
  137.6718   71.9417  223.5474 H   0  0  0  0  0  0  0  0  0  0  0  0
  137.8783   68.7683  224.0510 H   0  0  0  0  0  0  0  0  0  0  0  0
  138.6139   67.6170  226.1291 H   0  0  0  0  0  0  0  0  0  0  0  0
  140.0211   72.3390  225.1703 H   0  0  0  0  0  0  0  0  0  0  0  0
  137.2863   78.8074  222.6184 H   0  0  0  0  0  0  0  0  0  0  0  0
  138.2632   81.0368  222.9131 H   0  0  0  0  0  0  0  0  0  0  0  0
  140.1858   82.4139  223.2116 H   0  0  0  0  0  0  0  0  0  0  0  0
  142.6466   82.6475  223.4533 H   0  0  0  0  0  0  0  0  0  0  0  0
  144.0431   80.6092  223.3866 H   0  0  0  0  0  0  0  0  0  0  0  0
  143.0544   78.3757  223.0940 H   0  0  0  0  0  0  0  0  0  0  0  0
  1  2  2  0
  2  3  1  0
  3  4  1  0
  4  5  1  0
  5  6  2  0
  5  7  1  0
  7  8  1  0
  8  9  1  0
  9 10  1  0
  9 11  1  0
 11 12  1  0
 12 13  1  0
 13 14  2  0
 14 15  1  0
 15 16  2  0
 16 17  1  0
 16 18  1  0
 18 19  1  0
 18 20  2  0
  2 21  1  0
 21 22  2  0
 22 23  1  0
 23 24  2  0
 24 25  1  0
 25 26  2  0
 26 27  1  0
 27 28  2  0
 28 29  1  0
 29 30  2  0
 12  7  1  0
 20 13  1  0
 30 21  1  0
 29 24  1  0
  3 31  1  0
  4 32  1  0
  4 33  1  0
  8 34  1  0
  8 35  1  0
  9 36  1  1
 10 37  1  0
 11 38  1  0
 11 39  1  0
 12 40  1  1
 14 41  1  0
 15 42  1  0
 20 43  1  0
 22 44  1  0
 23 45  1  0
 25 46  1  0
 26 47  1  0
 27 48  1  0
 28 49  1  0
M  END
>  <smiles>  (35) 
O=C(NCC(=O)N1C[C@H](O)C[C@H]1c1ccc(Cl)c(Cl)c1)c1ccc2ccccc2n1

>  <score_type>  (35) 
oracle

>  <origin>  (35) 
autodockgpu

>  <m_score__min__energy>  (35) 
-9.2300000000000004

>  <m_primary>  (35) 
energy

>  <rmsd>  (35) 
8.4766416754481

>  <m_score__min__rmsd>  (35) 
8.4766416754481

>  <meeko>  (35) 
{"free_energy": -8.36, "intermolecular_energy": -10.15, "internal_energy": -1.75, "cluster_size": 18, "cluster_id": 2, "rank_in_cluster": 11}

>  <energy>  (35) 
-8.06

>  <cluster_rmsd>  (35) 
1.61

>  <cluster>  (35) 
3

$$$$

     RDKit          3D

 49 52  0  0  0  0  0  0  0  0999 V2000
  140.0710   70.9310  221.3640 O   0  0  0  0  0  0  0  0  0  0  0  0
  139.9100   71.5850  222.4510 C   0  0  0  0  0  0  0  0  0  0  0  0
  139.7030   72.9860  222.4410 N   0  0  0  0  0  0  0  0  0  0  0  0
  139.6650   73.7410  221.1800 C   0  0  0  0  0  0  0  0  0  0  0  0
  139.7300   75.1810  221.5490 C   0  0  0  0  0  0  0  0  0  0  0  0
  139.4090   75.5840  222.7140 O   0  0  0  0  0  0  0  0  0  0  0  0
  140.1590   76.1270  220.5770 N   0  0  0  0  0  0  0  0  0  0  0  0
  139.4420   76.6180  219.4030 C   0  0  0  0  0  0  0  0  0  0  0  0
  140.4940   77.0730  218.4290 C   0  0  2  0  0  0  0  0  0  0  0  0
  140.3220   76.5850  217.1420 O   0  0  0  0  0  0  0  0  0  0  0  0
  141.7640   76.6100  219.0670 C   0  0  0  0  0  0  0  0  0  0  0  0
  141.4360   76.8190  220.5510 C   0  0  1  0  0  0  0  0  0  0  0  0
  141.2820   78.2560  220.8870 C   0  0  0  0  0  0  0  0  0  0  0  0
  141.8990   79.1570  220.0110 C   0  0  0  0  0  0  0  0  0  0  0  0
  141.8330   80.5220  220.2080 C   0  0  0  0  0  0  0  0  0  0  0  0
  141.1320   80.9780  221.3060 C   0  0  0  0  0  0  0  0  0  0  0  0
  141.0310   82.6830  221.5810 Cl  0  0  0  0  0  0  0  0  0  0  0  0
  140.5270   80.0790  222.1630 C   0  0  0  0  0  0  0  0  0  0  0  0
  139.6320   80.6520  223.5630 Cl  0  0  0  0  0  0  0  0  0  0  0  0
  140.5860   78.7140  221.9770 C   0  0  0  0  0  0  0  0  0  0  0  0
  139.9410   70.8670  223.7220 C   0  0  0  0  0  0  0  0  0  0  0  0
  139.4710   69.5680  223.7990 C   0  0  0  0  0  0  0  0  0  0  0  0
  139.4770   68.8470  224.9650 C   0  0  0  0  0  0  0  0  0  0  0  0
  139.9680   69.4270  226.1200 C   0  0  0  0  0  0  0  0  0  0  0  0
  139.9800   68.7230  227.2840 C   0  0  0  0  0  0  0  0  0  0  0  0
  140.4670   69.2980  228.4240 C   0  0  0  0  0  0  0  0  0  0  0  0
  140.9340   70.5900  228.3460 C   0  0  0  0  0  0  0  0  0  0  0  0
  140.9260   71.3080  227.1720 C   0  0  0  0  0  0  0  0  0  0  0  0
  140.4300   70.7220  226.0140 C   0  0  0  0  0  0  0  0  0  0  0  0
  140.4170   71.4160  224.8580 N   0  0  0  0  0  0  0  0  0  0  0  0
  139.5780   73.4620  223.3630 H   0  0  0  0  0  0  0  0  0  0  0  0
  140.5247   73.4710  220.5491 H   0  0  0  0  0  0  0  0  0  0  0  0
  138.7518   73.5170  220.6090 H   0  0  0  0  0  0  0  0  0  0  0  0
  138.8364   75.8128  218.9616 H   0  0  0  0  0  0  0  0  0  0  0  0
  138.7571   77.4378  219.6653 H   0  0  0  0  0  0  0  0  0  0  0  0
  140.4644   78.1601  218.2637 H   0  0  0  0  0  0  0  0  0  0  0  0
  140.6310   77.2520  216.5010 H   0  0  0  0  0  0  0  0  0  0  0  0
  141.9671   75.5524  218.8428 H   0  0  0  0  0  0  0  0  0  0  0  0
  142.6649   77.1384  218.7219 H   0  0  0  0  0  0  0  0  0  0  0  0
  142.1955   76.4676  221.2649 H   0  0  0  0  0  0  0  0  0  0  0  0
  142.4509   78.7672  219.1430 H   0  0  0  0  0  0  0  0  0  0  0  0
  142.3220   81.2216  219.5141 H   0  0  0  0  0  0  0  0  0  0  0  0
  140.0946   78.0199  222.6748 H   0  0  0  0  0  0  0  0  0  0  0  0
  139.0765   69.0946  222.8878 H   0  0  0  0  0  0  0  0  0  0  0  0
  139.0944   67.8158  224.9815 H   0  0  0  0  0  0  0  0  0  0  0  0
  139.5980   67.6917  227.3075 H   0  0  0  0  0  0  0  0  0  0  0  0
  140.4851   68.7450  229.3747 H   0  0  0  0  0  0  0  0  0  0  0  0
  141.3283   71.0665  229.2556 H   0  0  0  0  0  0  0  0  0  0  0  0
  141.3096   72.3387  227.1506 H   0  0  0  0  0  0  0  0  0  0  0  0
  1  2  2  0
  2  3  1  0
  3  4  1  0
  4  5  1  0
  5  6  2  0
  5  7  1  0
  7  8  1  0
  8  9  1  0
  9 10  1  0
  9 11  1  0
 11 12  1  0
 12 13  1  0
 13 14  2  0
 14 15  1  0
 15 16  2  0
 16 17  1  0
 16 18  1  0
 18 19  1  0
 18 20  2  0
  2 21  1  0
 21 22  2  0
 22 23  1  0
 23 24  2  0
 24 25  1  0
 25 26  2  0
 26 27  1  0
 27 28  2  0
 28 29  1  0
 29 30  2  0
 12  7  1  0
 20 13  1  0
 30 21  1  0
 29 24  1  0
  3 31  1  0
  4 32  1  0
  4 33  1  0
  8 34  1  0
  8 35  1  0
  9 36  1  6
 10 37  1  0
 11 38  1  0
 11 39  1  0
 12 40  1  1
 14 41  1  0
 15 42  1  0
 20 43  1  0
 22 44  1  0
 23 45  1  0
 25 46  1  0
 26 47  1  0
 27 48  1  0
 28 49  1  0
M  END
>  <smiles>  (36) 
O=C(NCC(=O)N1C[C@H](O)C[C@H]1c1ccc(Cl)c(Cl)c1)c1ccc2ccccc2n1

>  <score_type>  (36) 
oracle

>  <origin>  (36) 
autodockgpu

>  <m_score__min__energy>  (36) 
-9.2300000000000004

>  <m_primary>  (36) 
energy

>  <rmsd>  (36) 
1.3451411169139884

>  <m_score__min__rmsd>  (36) 
1.3451411169139884

>  <meeko>  (36) 
{"free_energy": -8.05, "intermolecular_energy": -9.84, "internal_energy": -1.76, "cluster_size": 9, "cluster_id": 3, "rank_in_cluster": 7}

>  <energy>  (36) 
-8.05

>  <cluster_rmsd>  (36) 
1.38

>  <cluster>  (36) 
3

$$$$

     RDKit          3D

 49 52  0  0  0  0  0  0  0  0999 V2000
  134.9700   68.4580  224.6720 O   0  0  0  0  0  0  0  0  0  0  0  0
  135.0920   69.6410  224.2030 C   0  0  0  0  0  0  0  0  0  0  0  0
  135.7720   69.8820  222.9840 N   0  0  0  0  0  0  0  0  0  0  0  0
  136.3630   68.7790  222.2130 C   0  0  0  0  0  0  0  0  0  0  0  0
  137.6060   69.3160  221.5970 C   0  0  0  0  0  0  0  0  0  0  0  0
  137.9980   68.9340  220.4460 O   0  0  0  0  0  0  0  0  0  0  0  0
  138.3750   70.2770  222.3120 N   0  0  0  0  0  0  0  0  0  0  0  0
  138.0000   71.6320  222.7090 C   0  0  0  0  0  0  0  0  0  0  0  0
  139.2880   72.3960  222.8560 C   0  0  2  0  0  0  0  0  0  0  0  0
  139.2960   73.6200  222.2020 O   0  0  0  0  0  0  0  0  0  0  0  0
  140.3080   71.4410  222.3260 C   0  0  0  0  0  0  0  0  0  0  0  0
  139.7300   70.1040  222.8070 C   0  0  1  0  0  0  0  0  0  0  0  0
  139.7560   69.9890  224.2860 C   0  0  0  0  0  0  0  0  0  0  0  0
  139.1320   68.8560  224.8210 C   0  0  0  0  0  0  0  0  0  0  0  0
  139.0850   68.6280  226.1820 C   0  0  0  0  0  0  0  0  0  0  0  0
  139.6780   69.5600  227.0090 C   0  0  0  0  0  0  0  0  0  0  0  0
  139.6350   69.3020  228.7200 Cl  0  0  0  0  0  0  0  0  0  0  0  0
  140.2910   70.6740  226.4690 C   0  0  0  0  0  0  0  0  0  0  0  0
  141.0480   71.8650  227.5170 Cl  0  0  0  0  0  0  0  0  0  0  0  0
  140.3440   70.9130  225.1130 C   0  0  0  0  0  0  0  0  0  0  0  0
  134.5160   70.7600  224.9440 C   0  0  0  0  0  0  0  0  0  0  0  0
  133.6360   70.5270  225.9860 C   0  0  0  0  0  0  0  0  0  0  0  0
  133.0670   71.5380  226.7150 C   0  0  0  0  0  0  0  0  0  0  0  0
  133.3730   72.8510  226.4090 C   0  0  0  0  0  0  0  0  0  0  0  0
  132.8160   73.8650  227.1240 C   0  0  0  0  0  0  0  0  0  0  0  0
  133.1200   75.1630  226.8210 C   0  0  0  0  0  0  0  0  0  0  0  0
  133.9950   75.3930  225.7850 C   0  0  0  0  0  0  0  0  0  0  0  0
  134.5640   74.3730  225.0570 C   0  0  0  0  0  0  0  0  0  0  0  0
  134.2530   73.0550  225.3670 C   0  0  0  0  0  0  0  0  0  0  0  0
  134.8040   72.0470  224.6600 N   0  0  0  0  0  0  0  0  0  0  0  0
  135.8370   70.8720  222.6550 H   0  0  0  0  0  0  0  0  0  0  0  0
  136.6014   67.9354  222.8774 H   0  0  0  0  0  0  0  0  0  0  0  0
  135.6656   68.4095  221.4467 H   0  0  0  0  0  0  0  0  0  0  0  0
  137.3678   72.0947  221.9369 H   0  0  0  0  0  0  0  0  0  0  0  0
  137.4244   71.6310  223.6464 H   0  0  0  0  0  0  0  0  0  0  0  0
  139.4771   72.6946  223.8977 H   0  0  0  0  0  0  0  0  0  0  0  0
  138.8850   74.2930  222.7750 H   0  0  0  0  0  0  0  0  0  0  0  0
  140.3702   71.4834  221.2286 H   0  0  0  0  0  0  0  0  0  0  0  0
  141.3358   71.6398  222.6637 H   0  0  0  0  0  0  0  0  0  0  0  0
  140.2615   69.2023  222.4687 H   0  0  0  0  0  0  0  0  0  0  0  0
  138.6670   68.1284  224.1395 H   0  0  0  0  0  0  0  0  0  0  0  0
  138.5920   67.7345  226.5927 H   0  0  0  0  0  0  0  0  0  0  0  0
  140.8381   71.8090  224.7093 H   0  0  0  0  0  0  0  0  0  0  0  0
  133.3827   69.4870  226.2396 H   0  0  0  0  0  0  0  0  0  0  0  0
  132.3729   71.3070  227.5365 H   0  0  0  0  0  0  0  0  0  0  0  0
  132.1207   73.6407  227.9463 H   0  0  0  0  0  0  0  0  0  0  0  0
  132.6791   75.9965  227.3874 H   0  0  0  0  0  0  0  0  0  0  0  0
  134.2497   76.4319  225.5285 H   0  0  0  0  0  0  0  0  0  0  0  0
  135.2599   74.5997  224.2358 H   0  0  0  0  0  0  0  0  0  0  0  0
  1  2  2  0
  2  3  1  0
  3  4  1  0
  4  5  1  0
  5  6  2  0
  5  7  1  0
  7  8  1  0
  8  9  1  0
  9 10  1  0
  9 11  1  0
 11 12  1  0
 12 13  1  0
 13 14  2  0
 14 15  1  0
 15 16  2  0
 16 17  1  0
 16 18  1  0
 18 19  1  0
 18 20  2  0
  2 21  1  0
 21 22  2  0
 22 23  1  0
 23 24  2  0
 24 25  1  0
 25 26  2  0
 26 27  1  0
 27 28  2  0
 28 29  1  0
 29 30  2  0
 12  7  1  0
 20 13  1  0
 30 21  1  0
 29 24  1  0
  3 31  1  0
  4 32  1  0
  4 33  1  0
  8 34  1  0
  8 35  1  0
  9 36  1  1
 10 37  1  0
 11 38  1  0
 11 39  1  0
 12 40  1  6
 14 41  1  0
 15 42  1  0
 20 43  1  0
 22 44  1  0
 23 45  1  0
 25 46  1  0
 26 47  1  0
 27 48  1  0
 28 49  1  0
M  END
>  <smiles>  (37) 
O=C(NCC(=O)N1C[C@H](O)C[C@H]1c1ccc(Cl)c(Cl)c1)c1ccc2ccccc2n1

>  <score_type>  (37) 
oracle

>  <origin>  (37) 
autodockgpu

>  <m_score__min__energy>  (37) 
-9.2300000000000004

>  <m_primary>  (37) 
energy

>  <rmsd>  (37) 
6.860674410920979

>  <m_score__min__rmsd>  (37) 
6.860674410920979

>  <meeko>  (37) 
{"free_energy": -7.95, "intermolecular_energy": -9.74, "internal_energy": -1.75, "cluster_size": 1, "cluster_id": 6, "rank_in_cluster": 1}

>  <energy>  (37) 
-8.03

>  <cluster_rmsd>  (37) 
1.37

>  <cluster>  (37) 
3

$$$$

     RDKit          3D

 49 52  0  0  0  0  0  0  0  0999 V2000
  139.2210   70.6160  221.3200 O   0  0  0  0  0  0  0  0  0  0  0  0
  139.2340   71.4460  222.2920 C   0  0  0  0  0  0  0  0  0  0  0  0
  138.9060   72.8110  222.0970 N   0  0  0  0  0  0  0  0  0  0  0  0
  138.5380   73.3220  220.7690 C   0  0  0  0  0  0  0  0  0  0  0  0
  138.4600   74.8030  220.8950 C   0  0  0  0  0  0  0  0  0  0  0  0
  137.3490   75.4200  220.8190 O   0  0  0  0  0  0  0  0  0  0  0  0
  139.6570   75.5440  221.1060 N   0  0  0  0  0  0  0  0  0  0  0  0
  140.2000   76.0630  222.3600 C   0  0  0  0  0  0  0  0  0  0  0  0
  141.0700   77.2320  221.9870 C   0  0  2  0  0  0  0  0  0  0  0  0
  140.8270   78.3760  222.7320 O   0  0  0  0  0  0  0  0  0  0  0  0
  140.7880   77.4090  220.5300 C   0  0  0  0  0  0  0  0  0  0  0  0
  140.6110   75.9510  220.0890 C   0  0  1  0  0  0  0  0  0  0  0  0
  141.8760   75.1840  220.1940 C   0  0  0  0  0  0  0  0  0  0  0  0
  143.0530   75.9230  220.0240 C   0  0  0  0  0  0  0  0  0  0  0  0
  144.2990   75.3300  220.0980 C   0  0  0  0  0  0  0  0  0  0  0  0
  144.3500   73.9740  220.3470 C   0  0  0  0  0  0  0  0  0  0  0  0
  145.8960   73.2020  220.4440 Cl  0  0  0  0  0  0  0  0  0  0  0  0
  143.1810   73.2550  220.5130 C   0  0  0  0  0  0  0  0  0  0  0  0
  143.2390   71.5280  220.8310 Cl  0  0  0  0  0  0  0  0  0  0  0  0
  141.9330   73.8350  220.4420 C   0  0  0  0  0  0  0  0  0  0  0  0
  139.5950   70.9720  223.6250 C   0  0  0  0  0  0  0  0  0  0  0  0
  139.4040   69.6450  223.9670 C   0  0  0  0  0  0  0  0  0  0  0  0
  139.7260   69.1460  225.2030 C   0  0  0  0  0  0  0  0  0  0  0  0
  140.2620   69.9890  226.1570 C   0  0  0  0  0  0  0  0  0  0  0  0
  140.5850   69.5080  227.3880 C   0  0  0  0  0  0  0  0  0  0  0  0
  141.1170   70.3430  228.3300 C   0  0  0  0  0  0  0  0  0  0  0  0
  141.3060   71.6620  227.9890 C   0  0  0  0  0  0  0  0  0  0  0  0
  140.9820   72.1570  226.7460 C   0  0  0  0  0  0  0  0  0  0  0  0
  140.4420   71.3060  225.7890 C   0  0  0  0  0  0  0  0  0  0  0  0
  140.1200   71.7800  224.5690 N   0  0  0  0  0  0  0  0  0  0  0  0
  138.9360   73.4380  222.9320 H   0  0  0  0  0  0  0  0  0  0  0  0
  139.3024   73.0430  220.0288 H   0  0  0  0  0  0  0  0  0  0  0  0
  137.5802   72.8997  220.4308 H   0  0  0  0  0  0  0  0  0  0  0  0
  139.3849   76.3900  223.0224 H   0  0  0  0  0  0  0  0  0  0  0  0
  140.7716   75.2931  222.8991 H   0  0  0  0  0  0  0  0  0  0  0  0
  142.1326   77.0445  222.2008 H   0  0  0  0  0  0  0  0  0  0  0  0
  141.6600   78.6780  223.1380 H   0  0  0  0  0  0  0  0  0  0  0  0
  139.8725   77.9956  220.3638 H   0  0  0  0  0  0  0  0  0  0  0  0
  141.5663   77.9585  219.9802 H   0  0  0  0  0  0  0  0  0  0  0  0
  140.3033   75.7995  219.0438 H   0  0  0  0  0  0  0  0  0  0  0  0
  142.9841   77.0029  219.8265 H   0  0  0  0  0  0  0  0  0  0  0  0
  145.2183   75.9188  219.9631 H   0  0  0  0  0  0  0  0  0  0  0  0
  141.0179   73.2401  220.5787 H   0  0  0  0  0  0  0  0  0  0  0  0
  138.9767   68.9629  223.2173 H   0  0  0  0  0  0  0  0  0  0  0  0
  139.5589   68.0834  225.4329 H   0  0  0  0  0  0  0  0  0  0  0  0
  140.4179   68.4469  227.6251 H   0  0  0  0  0  0  0  0  0  0  0  0
  141.3857   69.9717  229.3300 H   0  0  0  0  0  0  0  0  0  0  0  0
  141.7318   72.3467  228.7372 H   0  0  0  0  0  0  0  0  0  0  0  0
  141.1493   73.2187  226.5118 H   0  0  0  0  0  0  0  0  0  0  0  0
  1  2  2  0
  2  3  1  0
  3  4  1  0
  4  5  1  0
  5  6  2  0
  5  7  1  0
  7  8  1  0
  8  9  1  0
  9 10  1  0
  9 11  1  0
 11 12  1  0
 12 13  1  0
 13 14  2  0
 14 15  1  0
 15 16  2  0
 16 17  1  0
 16 18  1  0
 18 19  1  0
 18 20  2  0
  2 21  1  0
 21 22  2  0
 22 23  1  0
 23 24  2  0
 24 25  1  0
 25 26  2  0
 26 27  1  0
 27 28  2  0
 28 29  1  0
 29 30  2  0
 12  7  1  0
 20 13  1  0
 30 21  1  0
 29 24  1  0
  3 31  1  0
  4 32  1  0
  4 33  1  0
  8 34  1  0
  8 35  1  0
  9 36  1  6
 10 37  1  0
 11 38  1  0
 11 39  1  0
 12 40  1  6
 14 41  1  0
 15 42  1  0
 20 43  1  0
 22 44  1  0
 23 45  1  0
 25 46  1  0
 26 47  1  0
 27 48  1  0
 28 49  1  0
M  END
>  <smiles>  (38) 
O=C(NCC(=O)N1C[C@H](O)C[C@H]1c1ccc(Cl)c(Cl)c1)c1ccc2ccccc2n1

>  <score_type>  (38) 
oracle

>  <origin>  (38) 
autodockgpu

>  <m_score__min__energy>  (38) 
-9.2300000000000004

>  <m_primary>  (38) 
energy

>  <rmsd>  (38) 
2.300842112938695

>  <m_score__min__rmsd>  (38) 
2.300842112938695

>  <meeko>  (38) 
{"free_energy": -8.1, "intermolecular_energy": -9.89, "internal_energy": -1.84, "cluster_size": 7, "cluster_id": 4, "rank_in_cluster": 3}

>  <energy>  (38) 
-7.91

>  <cluster_rmsd>  (38) 
1.21

>  <cluster>  (38) 
3

$$$$

     RDKit          3D

 49 52  0  0  0  0  0  0  0  0999 V2000
  139.7310   71.1520  221.2420 O   0  0  0  0  0  0  0  0  0  0  0  0
  139.6070   71.8630  222.2980 C   0  0  0  0  0  0  0  0  0  0  0  0
  139.3030   73.2440  222.2200 N   0  0  0  0  0  0  0  0  0  0  0  0
  139.1190   73.9110  220.9230 C   0  0  0  0  0  0  0  0  0  0  0  0
  140.4810   74.1820  220.3910 C   0  0  0  0  0  0  0  0  0  0  0  0
  141.3150   73.2410  220.1850 O   0  0  0  0  0  0  0  0  0  0  0  0
  140.8600   75.5250  220.1070 N   0  0  0  0  0  0  0  0  0  0  0  0
  140.3900   76.3970  219.0330 C   0  0  0  0  0  0  0  0  0  0  0  0
  141.4860   77.4020  218.8000 C   0  0  2  0  0  0  0  0  0  0  0  0
  141.8390   77.5520  217.4680 O   0  0  0  0  0  0  0  0  0  0  0  0
  142.6020   76.8840  219.6500 C   0  0  0  0  0  0  0  0  0  0  0  0
  141.8210   76.3260  220.8460 C   0  0  1  0  0  0  0  0  0  0  0  0
  141.1500   77.4000  221.6190 C   0  0  0  0  0  0  0  0  0  0  0  0
  139.8270   77.1430  221.9980 C   0  0  0  0  0  0  0  0  0  0  0  0
  139.0890   78.0590  222.7210 C   0  0  0  0  0  0  0  0  0  0  0  0
  139.6990   79.2480  223.0630 C   0  0  0  0  0  0  0  0  0  0  0  0
  138.8000   80.4170  223.9680 Cl  0  0  0  0  0  0  0  0  0  0  0  0
  141.0060   79.4900  222.6840 C   0  0  0  0  0  0  0  0  0  0  0  0
  141.7910   81.0020  223.1170 Cl  0  0  0  0  0  0  0  0  0  0  0  0
  141.7530   78.5840  221.9620 C   0  0  0  0  0  0  0  0  0  0  0  0
  139.7840   71.2330  223.6020 C   0  0  0  0  0  0  0  0  0  0  0  0
  139.4150   69.9130  223.7940 C   0  0  0  0  0  0  0  0  0  0  0  0
  139.5590   69.2720  224.9970 C   0  0  0  0  0  0  0  0  0  0  0  0
  140.0930   69.9570  226.0730 C   0  0  0  0  0  0  0  0  0  0  0  0
  140.2410   69.3330  227.2720 C   0  0  0  0  0  0  0  0  0  0  0  0
  140.7700   70.0120  228.3340 C   0  0  0  0  0  0  0  0  0  0  0  0
  141.1360   71.3240  228.1420 C   0  0  0  0  0  0  0  0  0  0  0  0
  140.9900   71.9630  226.9320 C   0  0  0  0  0  0  0  0  0  0  0  0
  140.4520   71.2700  225.8530 C   0  0  0  0  0  0  0  0  0  0  0  0
  140.3030   71.8850  224.6620 N   0  0  0  0  0  0  0  0  0  0  0  0
  139.2160   73.7710  223.1190 H   0  0  0  0  0  0  0  0  0  0  0  0
  138.5652   73.2563  220.2341 H   0  0  0  0  0  0  0  0  0  0  0  0
  138.5421   74.8412  221.0322 H   0  0  0  0  0  0  0  0  0  0  0  0
  140.2077   75.8125  218.1192 H   0  0  0  0  0  0  0  0  0  0  0  0
  139.4438   76.8898  219.3011 H   0  0  0  0  0  0  0  0  0  0  0  0
  141.1784   78.4235  219.0681 H   0  0  0  0  0  0  0  0  0  0  0  0
  142.4930   78.2720  217.3880 H   0  0  0  0  0  0  0  0  0  0  0  0
  143.1703   76.0956  219.1348 H   0  0  0  0  0  0  0  0  0  0  0  0
  143.3596   77.6368  219.9134 H   0  0  0  0  0  0  0  0  0  0  0  0
  142.4175   75.7965  221.6035 H   0  0  0  0  0  0  0  0  0  0  0  0
  139.3637   76.1870  221.7125 H   0  0  0  0  0  0  0  0  0  0  0  0
  138.0501   77.8478  223.0143 H   0  0  0  0  0  0  0  0  0  0  0  0
  142.7916   78.8015  221.6722 H   0  0  0  0  0  0  0  0  0  0  0  0
  138.9888   69.3556  222.9468 H   0  0  0  0  0  0  0  0  0  0  0  0
  139.2523   68.2212  225.1056 H   0  0  0  0  0  0  0  0  0  0  0  0
  139.9353   68.2826  227.3873 H   0  0  0  0  0  0  0  0  0  0  0  0
  140.8990   69.5244  229.3116 H   0  0  0  0  0  0  0  0  0  0  0  0
  141.5616   71.8837  228.9879 H   0  0  0  0  0  0  0  0  0  0  0  0
  141.2964   73.0134  226.8192 H   0  0  0  0  0  0  0  0  0  0  0  0
  1  2  2  0
  2  3  1  0
  3  4  1  0
  4  5  1  0
  5  6  2  0
  5  7  1  0
  7  8  1  0
  8  9  1  0
  9 10  1  0
  9 11  1  0
 11 12  1  0
 12 13  1  0
 13 14  2  0
 14 15  1  0
 15 16  2  0
 16 17  1  0
 16 18  1  0
 18 19  1  0
 18 20  2  0
  2 21  1  0
 21 22  2  0
 22 23  1  0
 23 24  2  0
 24 25  1  0
 25 26  2  0
 26 27  1  0
 27 28  2  0
 28 29  1  0
 29 30  2  0
 12  7  1  0
 20 13  1  0
 30 21  1  0
 29 24  1  0
  3 31  1  0
  4 32  1  0
  4 33  1  0
  8 34  1  0
  8 35  1  0
  9 36  1  1
 10 37  1  0
 11 38  1  0
 11 39  1  0
 12 40  1  1
 14 41  1  0
 15 42  1  0
 20 43  1  0
 22 44  1  0
 23 45  1  0
 25 46  1  0
 26 47  1  0
 27 48  1  0
 28 49  1  0
M  END
>  <smiles>  (39) 
O=C(NCC(=O)N1C[C@H](O)C[C@H]1c1ccc(Cl)c(Cl)c1)c1ccc2ccccc2n1

>  <score_type>  (39) 
oracle

>  <origin>  (39) 
autodockgpu

>  <m_score__min__energy>  (39) 
-9.2300000000000004

>  <m_primary>  (39) 
energy

>  <rmsd>  (39) 
1.5876272463269665

>  <m_score__min__rmsd>  (39) 
1.5876272463269665

>  <meeko>  (39) 
{"free_energy": -8.52, "intermolecular_energy": -10.31, "internal_energy": -1.39, "cluster_size": 9, "cluster_id": 3, "rank_in_cluster": 1}

>  <energy>  (39) 
-8.21

>  <cluster_rmsd>  (39) 
0.0

>  <cluster>  (39) 
4

$$$$

     RDKit          3D

 49 52  0  0  0  0  0  0  0  0999 V2000
  137.1550   76.2340  222.4290 O   0  0  0  0  0  0  0  0  0  0  0  0
  138.4320   76.2920  222.4350 C   0  0  0  0  0  0  0  0  0  0  0  0
  139.2200   75.1410  222.1870 N   0  0  0  0  0  0  0  0  0  0  0  0
  138.5980   73.8370  221.9140 C   0  0  0  0  0  0  0  0  0  0  0  0
  139.6760   72.8210  222.0450 C   0  0  0  0  0  0  0  0  0  0  0  0
  140.9000   73.1220  221.8640 O   0  0  0  0  0  0  0  0  0  0  0  0
  139.3290   71.4810  222.3800 N   0  0  0  0  0  0  0  0  0  0  0  0
  139.9420   70.2380  221.9200 C   0  0  0  0  0  0  0  0  0  0  0  0
  138.8820   69.1770  222.0450 C   0  0  2  0  0  0  0  0  0  0  0  0
  138.7250   68.3990  220.9080 O   0  0  0  0  0  0  0  0  0  0  0  0
  137.6590   69.9640  222.3920 C   0  0  0  0  0  0  0  0  0  0  0  0
  138.2630   71.0640  223.2740 C   0  0  1  0  0  0  0  0  0  0  0  0
  138.8020   70.5200  224.5450 C   0  0  0  0  0  0  0  0  0  0  0  0
  138.4310   69.2050  224.8520 C   0  0  0  0  0  0  0  0  0  0  0  0
  138.8640   68.5800  226.0050 C   0  0  0  0  0  0  0  0  0  0  0  0
  139.6820   69.2950  226.8540 C   0  0  0  0  0  0  0  0  0  0  0  0
  140.2410   68.5390  228.3070 Cl  0  0  0  0  0  0  0  0  0  0  0  0
  140.0420   70.5920  226.5400 C   0  0  0  0  0  0  0  0  0  0  0  0
  141.0840   71.5100  227.6180 Cl  0  0  0  0  0  0  0  0  0  0  0  0
  139.6160   71.2280  225.3940 C   0  0  0  0  0  0  0  0  0  0  0  0
  139.0830   77.5710  222.7030 C   0  0  0  0  0  0  0  0  0  0  0  0
  138.3240   78.7040  222.9330 C   0  0  0  0  0  0  0  0  0  0  0  0
  138.8820   79.9290  223.1900 C   0  0  0  0  0  0  0  0  0  0  0  0
  140.2580   80.0560  223.2220 C   0  0  0  0  0  0  0  0  0  0  0  0
  140.8260   81.2660  223.4750 C   0  0  0  0  0  0  0  0  0  0  0  0
  142.1860   81.3880  223.5080 C   0  0  0  0  0  0  0  0  0  0  0  0
  142.9400   80.2610  223.2780 C   0  0  0  0  0  0  0  0  0  0  0  0
  142.3740   79.0330  223.0220 C   0  0  0  0  0  0  0  0  0  0  0  0
  140.9900   78.9110  222.9900 C   0  0  0  0  0  0  0  0  0  0  0  0
  140.4240   77.7130  222.7390 N   0  0  0  0  0  0  0  0  0  0  0  0
  140.2590   75.2540  222.2060 H   0  0  0  0  0  0  0  0  0  0  0  0
  137.7973   73.6378  222.6415 H   0  0  0  0  0  0  0  0  0  0  0  0
  138.1474   73.8127  220.9108 H   0  0  0  0  0  0  0  0  0  0  0  0
  140.2624   70.3356  220.8722 H   0  0  0  0  0  0  0  0  0  0  0  0
  140.8334   69.9866  222.5134 H   0  0  0  0  0  0  0  0  0  0  0  0
  139.1379   68.4209  222.8019 H   0  0  0  0  0  0  0  0  0  0  0  0
  137.8610   68.5970  220.5000 H   0  0  0  0  0  0  0  0  0  0  0  0
  137.1794   70.3826  221.4949 H   0  0  0  0  0  0  0  0  0  0  0  0
  136.8638   69.3783  222.8764 H   0  0  0  0  0  0  0  0  0  0  0  0
  137.5684   71.8506  223.6038 H   0  0  0  0  0  0  0  0  0  0  0  0
  137.7783   68.6560  224.1573 H   0  0  0  0  0  0  0  0  0  0  0  0
  138.5664   67.5470  226.2381 H   0  0  0  0  0  0  0  0  0  0  0  0
  139.9163   72.2619  225.1685 H   0  0  0  0  0  0  0  0  0  0  0  0
  137.2276   78.6184  222.9086 H   0  0  0  0  0  0  0  0  0  0  0  0
  138.2401   80.8041  223.3694 H   0  0  0  0  0  0  0  0  0  0  0  0
  140.1902   82.1458  223.6530 H   0  0  0  0  0  0  0  0  0  0  0  0
  142.6635   82.3577  223.7122 H   0  0  0  0  0  0  0  0  0  0  0  0
  144.0366   80.3443  223.2995 H   0  0  0  0  0  0  0  0  0  0  0  0
  143.0121   78.1548  222.8441 H   0  0  0  0  0  0  0  0  0  0  0  0
  1  2  2  0
  2  3  1  0
  3  4  1  0
  4  5  1  0
  5  6  2  0
  5  7  1  0
  7  8  1  0
  8  9  1  0
  9 10  1  0
  9 11  1  0
 11 12  1  0
 12 13  1  0
 13 14  2  0
 14 15  1  0
 15 16  2  0
 16 17  1  0
 16 18  1  0
 18 19  1  0
 18 20  2  0
  2 21  1  0
 21 22  2  0
 22 23  1  0
 23 24  2  0
 24 25  1  0
 25 26  2  0
 26 27  1  0
 27 28  2  0
 28 29  1  0
 29 30  2  0
 12  7  1  0
 20 13  1  0
 30 21  1  0
 29 24  1  0
  3 31  1  0
  4 32  1  0
  4 33  1  0
  8 34  1  0
  8 35  1  0
  9 36  1  1
 10 37  1  0
 11 38  1  0
 11 39  1  0
 12 40  1  1
 14 41  1  0
 15 42  1  0
 20 43  1  0
 22 44  1  0
 23 45  1  0
 25 46  1  0
 26 47  1  0
 27 48  1  0
 28 49  1  0
M  END
>  <smiles>  (40) 
O=C(NCC(=O)N1C[C@H](O)C[C@H]1c1ccc(Cl)c(Cl)c1)c1ccc2ccccc2n1

>  <score_type>  (40) 
oracle

>  <origin>  (40) 
autodockgpu

>  <m_score__min__energy>  (40) 
-9.2300000000000004

>  <m_primary>  (40) 
energy

>  <rmsd>  (40) 
8.395646204635195

>  <m_score__min__rmsd>  (40) 
8.395646204635195

>  <meeko>  (40) 
{"free_energy": -8.46, "intermolecular_energy": -10.25, "internal_energy": -1.7, "cluster_size": 18, "cluster_id": 2, "rank_in_cluster": 8}

>  <energy>  (40) 
-8.13

>  <cluster_rmsd>  (40) 
0.39

>  <cluster>  (40) 
4

$$$$

     RDKit          3D

 49 52  0  0  0  0  0  0  0  0999 V2000
  139.8400   75.9730  219.9060 O   0  0  0  0  0  0  0  0  0  0  0  0
  140.8110   76.2270  220.6970 C   0  0  0  0  0  0  0  0  0  0  0  0
  141.6270   75.1900  221.2140 N   0  0  0  0  0  0  0  0  0  0  0  0
  141.3870   73.7840  220.8580 C   0  0  0  0  0  0  0  0  0  0  0  0
  140.2660   73.3180  221.7170 C   0  0  0  0  0  0  0  0  0  0  0  0
  139.5640   74.1350  222.3970 O   0  0  0  0  0  0  0  0  0  0  0  0
  139.9720   71.9270  221.7800 N   0  0  0  0  0  0  0  0  0  0  0  0
  140.7510   70.8060  221.2590 C   0  0  0  0  0  0  0  0  0  0  0  0
  139.7710   69.6870  221.0280 C   0  0  2  0  0  0  0  0  0  0  0  0
  139.8750   69.0950  219.7780 O   0  0  0  0  0  0  0  0  0  0  0  0
  138.4490   70.3460  221.2590 C   0  0  0  0  0  0  0  0  0  0  0  0
  138.8030   71.3180  222.3910 C   0  0  1  0  0  0  0  0  0  0  0  0
  139.1550   70.6040  223.6430 C   0  0  0  0  0  0  0  0  0  0  0  0
  138.6860   69.2900  223.7490 C   0  0  0  0  0  0  0  0  0  0  0  0
  138.9430   68.5150  224.8630 C   0  0  0  0  0  0  0  0  0  0  0  0
  139.6840   69.0800  225.8800 C   0  0  0  0  0  0  0  0  0  0  0  0
  140.0220   68.1350  227.2890 Cl  0  0  0  0  0  0  0  0  0  0  0  0
  140.1420   70.3790  225.7640 C   0  0  0  0  0  0  0  0  0  0  0  0
  141.0870   71.1050  227.0560 Cl  0  0  0  0  0  0  0  0  0  0  0  0
  139.8920   71.1620  224.6580 C   0  0  0  0  0  0  0  0  0  0  0  0
  141.0780   77.6130  221.0710 C   0  0  0  0  0  0  0  0  0  0  0  0
  140.9500   78.6240  220.1360 C   0  0  0  0  0  0  0  0  0  0  0  0
  141.1880   79.9400  220.4320 C   0  0  0  0  0  0  0  0  0  0  0  0
  141.5720   80.2900  221.7130 C   0  0  0  0  0  0  0  0  0  0  0  0
  141.8110   81.5930  222.0210 C   0  0  0  0  0  0  0  0  0  0  0  0
  142.1900   81.9370  223.2890 C   0  0  0  0  0  0  0  0  0  0  0  0
  142.3160   80.9310  224.2180 C   0  0  0  0  0  0  0  0  0  0  0  0
  142.0760   79.6100  223.9150 C   0  0  0  0  0  0  0  0  0  0  0  0
  141.6900   79.2630  222.6260 C   0  0  0  0  0  0  0  0  0  0  0  0
  141.4530   77.9720  222.3160 N   0  0  0  0  0  0  0  0  0  0  0  0
  142.4050   75.4630  221.8560 H   0  0  0  0  0  0  0  0  0  0  0  0
  141.1118   73.7022  219.7961 H   0  0  0  0  0  0  0  0  0  0  0  0
  142.2889   73.1739  221.0142 H   0  0  0  0  0  0  0  0  0  0  0  0
  141.2391   71.0869  220.3141 H   0  0  0  0  0  0  0  0  0  0  0  0
  141.5435   70.5072  221.9609 H   0  0  0  0  0  0  0  0  0  0  0  0
  139.9495   68.8325  221.6973 H   0  0  0  0  0  0  0  0  0  0  0  0
  139.2800   69.5520  219.1560 H   0  0  0  0  0  0  0  0  0  0  0  0
  138.1009   70.8794  220.3622 H   0  0  0  0  0  0  0  0  0  0  0  0
  137.6302   69.6509  221.4965 H   0  0  0  0  0  0  0  0  0  0  0  0
  138.0022   72.0051  222.7019 H   0  0  0  0  0  0  0  0  0  0  0  0
  138.0973   68.8631  222.9236 H   0  0  0  0  0  0  0  0  0  0  0  0
  138.5696   67.4829  224.9366 H   0  0  0  0  0  0  0  0  0  0  0  0
  140.2681   72.1935  224.5910 H   0  0  0  0  0  0  0  0  0  0  0  0
  140.6445   78.3604  219.1127 H   0  0  0  0  0  0  0  0  0  0  0  0
  141.0745   80.7120  219.6567 H   0  0  0  0  0  0  0  0  0  0  0  0
  141.6995   82.3699  221.2503 H   0  0  0  0  0  0  0  0  0  0  0  0
  142.3878   82.9852  223.5574 H   0  0  0  0  0  0  0  0  0  0  0  0
  142.6202   81.1920  225.2424 H   0  0  0  0  0  0  0  0  0  0  0  0
  142.1889   78.8349  224.6873 H   0  0  0  0  0  0  0  0  0  0  0  0
  1  2  2  0
  2  3  1  0
  3  4  1  0
  4  5  1  0
  5  6  2  0
  5  7  1  0
  7  8  1  0
  8  9  1  0
  9 10  1  0
  9 11  1  0
 11 12  1  0
 12 13  1  0
 13 14  2  0
 14 15  1  0
 15 16  2  0
 16 17  1  0
 16 18  1  0
 18 19  1  0
 18 20  2  0
  2 21  1  0
 21 22  2  0
 22 23  1  0
 23 24  2  0
 24 25  1  0
 25 26  2  0
 26 27  1  0
 27 28  2  0
 28 29  1  0
 29 30  2  0
 12  7  1  0
 20 13  1  0
 30 21  1  0
 29 24  1  0
  3 31  1  0
  4 32  1  0
  4 33  1  0
  8 34  1  0
  8 35  1  0
  9 36  1  1
 10 37  1  0
 11 38  1  0
 11 39  1  0
 12 40  1  1
 14 41  1  0
 15 42  1  0
 20 43  1  0
 22 44  1  0
 23 45  1  0
 25 46  1  0
 26 47  1  0
 27 48  1  0
 28 49  1  0
M  END
>  <smiles>  (41) 
O=C(NCC(=O)N1C[C@H](O)C[C@H]1c1ccc(Cl)c(Cl)c1)c1ccc2ccccc2n1

>  <score_type>  (41) 
oracle

>  <origin>  (41) 
autodockgpu

>  <m_score__min__energy>  (41) 
-9.2300000000000004

>  <m_primary>  (41) 
energy

>  <rmsd>  (41) 
8.517155652896935

>  <m_score__min__rmsd>  (41) 
8.517155652896935

>  <meeko>  (41) 
{"free_energy": -8.36, "intermolecular_energy": -10.15, "internal_energy": -1.25, "cluster_size": 18, "cluster_id": 2, "rank_in_cluster": 10}

>  <energy>  (41) 
-8.1

>  <cluster_rmsd>  (41) 
0.27

>  <cluster>  (41) 
4

$$$$

     RDKit          3D

 49 52  0  0  0  0  0  0  0  0999 V2000
  137.9000   70.8680  221.8400 O   0  0  0  0  0  0  0  0  0  0  0  0
  138.6770   71.3100  222.7550 C   0  0  0  0  0  0  0  0  0  0  0  0
  139.1760   72.6350  222.7180 N   0  0  0  0  0  0  0  0  0  0  0  0
  138.8190   73.5520  221.6260 C   0  0  0  0  0  0  0  0  0  0  0  0
  139.8710   74.6040  221.5990 C   0  0  0  0  0  0  0  0  0  0  0  0
  141.0410   74.3870  222.0530 O   0  0  0  0  0  0  0  0  0  0  0  0
  139.5600   75.8820  221.0530 N   0  0  0  0  0  0  0  0  0  0  0  0
  138.3030   76.6220  221.1230 C   0  0  0  0  0  0  0  0  0  0  0  0
  138.2930   77.5440  219.9340 C   0  0  2  0  0  0  0  0  0  0  0  0
  137.1190   77.5040  219.1980 O   0  0  0  0  0  0  0  0  0  0  0  0
  139.4910   77.1010  219.1560 C   0  0  0  0  0  0  0  0  0  0  0  0
  140.4550   76.7360  220.2910 C   0  0  1  0  0  0  0  0  0  0  0  0
  140.8650   77.9270  221.0750 C   0  0  0  0  0  0  0  0  0  0  0  0
  141.1720   77.6960  222.4210 C   0  0  0  0  0  0  0  0  0  0  0  0
  141.5670   78.7190  223.2610 C   0  0  0  0  0  0  0  0  0  0  0  0
  141.6510   79.9890  222.7300 C   0  0  0  0  0  0  0  0  0  0  0  0
  142.1420   81.2910  223.7580 Cl  0  0  0  0  0  0  0  0  0  0  0  0
  141.3450   80.2050  221.4000 C   0  0  0  0  0  0  0  0  0  0  0  0
  141.4500   81.8210  220.7160 Cl  0  0  0  0  0  0  0  0  0  0  0  0
  140.9500   79.1930  220.5510 C   0  0  0  0  0  0  0  0  0  0  0  0
  139.0520   70.4250  223.8540 C   0  0  0  0  0  0  0  0  0  0  0  0
  138.7630   69.0740  223.7910 C   0  0  0  0  0  0  0  0  0  0  0  0
  139.0920   68.1990  224.7930 C   0  0  0  0  0  0  0  0  0  0  0  0
  139.7380   68.6690  225.9200 C   0  0  0  0  0  0  0  0  0  0  0  0
  140.0700   67.8120  226.9230 C   0  0  0  0  0  0  0  0  0  0  0  0
  140.7100   68.2790  228.0370 C   0  0  0  0  0  0  0  0  0  0  0  0
  140.9970   69.6230  228.0990 C   0  0  0  0  0  0  0  0  0  0  0  0
  140.6650   70.4970  227.0890 C   0  0  0  0  0  0  0  0  0  0  0  0
  140.0140   70.0200  225.9580 C   0  0  0  0  0  0  0  0  0  0  0  0
  139.6830   70.8670  224.9610 N   0  0  0  0  0  0  0  0  0  0  0  0
  139.8070   72.9350  223.4950 H   0  0  0  0  0  0  0  0  0  0  0  0
  138.7965   73.0120  220.6679 H   0  0  0  0  0  0  0  0  0  0  0  0
  137.8220   73.9894  221.7829 H   0  0  0  0  0  0  0  0  0  0  0  0
  137.4496   75.9296  221.0760 H   0  0  0  0  0  0  0  0  0  0  0  0
  138.2192   77.1823  222.0659 H   0  0  0  0  0  0  0  0  0  0  0  0
  138.3373   78.6029  220.2286 H   0  0  0  0  0  0  0  0  0  0  0  0
  136.7460   76.6040  219.2370 H   0  0  0  0  0  0  0  0  0  0  0  0
  139.2631   76.2305  218.5234 H   0  0  0  0  0  0  0  0  0  0  0  0
  139.8800   77.8527  218.4534 H   0  0  0  0  0  0  0  0  0  0  0  0
  141.4113   76.2886  219.9823 H   0  0  0  0  0  0  0  0  0  0  0  0
  141.0968   76.6737  222.8201 H   0  0  0  0  0  0  0  0  0  0  0  0
  141.8064   78.5272  224.3174 H   0  0  0  0  0  0  0  0  0  0  0  0
  140.7124   79.3921  219.4956 H   0  0  0  0  0  0  0  0  0  0  0  0
  138.2479   68.6859  222.8999 H   0  0  0  0  0  0  0  0  0  0  0  0
  138.8438   67.1314  224.7007 H   0  0  0  0  0  0  0  0  0  0  0  0
  139.8235   66.7434  226.8376 H   0  0  0  0  0  0  0  0  0  0  0  0
  140.9868   67.6014  228.8581 H   0  0  0  0  0  0  0  0  0  0  0  0
  141.5112   70.0139  228.9894 H   0  0  0  0  0  0  0  0  0  0  0  0
  140.9131   71.5651  227.1765 H   0  0  0  0  0  0  0  0  0  0  0  0
  1  2  2  0
  2  3  1  0
  3  4  1  0
  4  5  1  0
  5  6  2  0
  5  7  1  0
  7  8  1  0
  8  9  1  0
  9 10  1  0
  9 11  1  0
 11 12  1  0
 12 13  1  0
 13 14  2  0
 14 15  1  0
 15 16  2  0
 16 17  1  0
 16 18  1  0
 18 19  1  0
 18 20  2  0
  2 21  1  0
 21 22  2  0
 22 23  1  0
 23 24  2  0
 24 25  1  0
 25 26  2  0
 26 27  1  0
 27 28  2  0
 28 29  1  0
 29 30  2  0
 12  7  1  0
 20 13  1  0
 30 21  1  0
 29 24  1  0
  3 31  1  0
  4 32  1  0
  4 33  1  0
  8 34  1  0
  8 35  1  0
  9 36  1  1
 10 37  1  0
 11 38  1  0
 11 39  1  0
 12 40  1  6
 14 41  1  0
 15 42  1  0
 20 43  1  0
 22 44  1  0
 23 45  1  0
 25 46  1  0
 26 47  1  0
 27 48  1  0
 28 49  1  0
M  END
>  <smiles>  (42) 
O=C(NCC(=O)N1C[C@H](O)C[C@H]1c1ccc(Cl)c(Cl)c1)c1ccc2ccccc2n1

>  <score_type>  (42) 
oracle

>  <origin>  (42) 
autodockgpu

>  <m_score__min__energy>  (42) 
-9.2300000000000004

>  <m_primary>  (42) 
energy

>  <rmsd>  (42) 
1.704594986266763

>  <m_score__min__rmsd>  (42) 
1.704594986266763

>  <meeko>  (42) 
{"free_energy": -8.34, "intermolecular_energy": -10.13, "internal_energy": -1.78, "cluster_size": 11, "cluster_id": 1, "rank_in_cluster": 9}

>  <energy>  (42) 
-8.09

>  <cluster_rmsd>  (42) 
0.89

>  <cluster>  (42) 
4

$$$$

     RDKit          3D

 49 52  0  0  0  0  0  0  0  0999 V2000
  141.5570   72.2080  221.9430 O   0  0  0  0  0  0  0  0  0  0  0  0
  140.5100   72.3090  222.6700 C   0  0  0  0  0  0  0  0  0  0  0  0
  139.5760   73.3550  222.4700 N   0  0  0  0  0  0  0  0  0  0  0  0
  139.7770   74.3640  221.4200 C   0  0  0  0  0  0  0  0  0  0  0  0
  138.6740   75.3510  221.5680 C   0  0  0  0  0  0  0  0  0  0  0  0
  137.5970   75.0580  222.1820 O   0  0  0  0  0  0  0  0  0  0  0  0
  138.8270   76.6520  221.0100 N   0  0  0  0  0  0  0  0  0  0  0  0
  137.8350   77.7170  220.8930 C   0  0  0  0  0  0  0  0  0  0  0  0
  138.2790   78.5780  219.7410 C   0  0  2  0  0  0  0  0  0  0  0  0
  137.2760   78.8520  218.8230 O   0  0  0  0  0  0  0  0  0  0  0  0
  139.4130   77.7990  219.1580 C   0  0  0  0  0  0  0  0  0  0  0  0
  140.0380   77.2030  220.4250 C   0  0  1  0  0  0  0  0  0  0  0  0
  140.6320   78.2490  221.2940 C   0  0  0  0  0  0  0  0  0  0  0  0
  141.0900   77.8150  222.5440 C   0  0  0  0  0  0  0  0  0  0  0  0
  141.6650   78.6870  223.4480 C   0  0  0  0  0  0  0  0  0  0  0  0
  141.7750   80.0120  223.0800 C   0  0  0  0  0  0  0  0  0  0  0  0
  142.4900   81.1280  224.1920 Cl  0  0  0  0  0  0  0  0  0  0  0  0
  141.3200   80.4280  221.8440 C   0  0  0  0  0  0  0  0  0  0  0  0
  141.4580   82.1140  221.3680 Cl  0  0  0  0  0  0  0  0  0  0  0  0
  140.7450   79.5680  220.9330 C   0  0  0  0  0  0  0  0  0  0  0  0
  140.2790   71.3230  223.7220 C   0  0  0  0  0  0  0  0  0  0  0  0
  139.5500   70.1780  223.4560 C   0  0  0  0  0  0  0  0  0  0  0  0
  139.3030   69.2210  224.4060 C   0  0  0  0  0  0  0  0  0  0  0  0
  139.7960   69.3910  225.6860 C   0  0  0  0  0  0  0  0  0  0  0  0
  139.5590   68.4490  226.6380 C   0  0  0  0  0  0  0  0  0  0  0  0
  140.0470   68.6190  227.9030 C   0  0  0  0  0  0  0  0  0  0  0  0
  140.7720   69.7580  228.1660 C   0  0  0  0  0  0  0  0  0  0  0  0
  141.0170   70.7160  227.2090 C   0  0  0  0  0  0  0  0  0  0  0  0
  140.5200   70.5410  225.9230 C   0  0  0  0  0  0  0  0  0  0  0  0
  140.7520   71.4730  224.9760 N   0  0  0  0  0  0  0  0  0  0  0  0
  138.7410   73.3830  223.0970 H   0  0  0  0  0  0  0  0  0  0  0  0
  140.7505   74.8593  221.5500 H   0  0  0  0  0  0  0  0  0  0  0  0
  139.7697   73.9054  220.4202 H   0  0  0  0  0  0  0  0  0  0  0  0
  136.8409   77.2919  220.6906 H   0  0  0  0  0  0  0  0  0  0  0  0
  137.7594   78.2991  221.8233 H   0  0  0  0  0  0  0  0  0  0  0  0
  138.5712   79.5880  220.0642 H   0  0  0  0  0  0  0  0  0  0  0  0
  136.6340   78.1180  218.8190 H   0  0  0  0  0  0  0  0  0  0  0  0
  139.0555   77.0137  218.4757 H   0  0  0  0  0  0  0  0  0  0  0  0
  140.1065   78.3950  218.5466 H   0  0  0  0  0  0  0  0  0  0  0  0
  140.8673   76.4981  220.2654 H   0  0  0  0  0  0  0  0  0  0  0  0
  140.9894   76.7531  222.8129 H   0  0  0  0  0  0  0  0  0  0  0  0
  142.0228   78.3369  224.4275 H   0  0  0  0  0  0  0  0  0  0  0  0
  140.3906   79.9252  219.9548 H   0  0  0  0  0  0  0  0  0  0  0  0
  139.1524   70.0293  222.4412 H   0  0  0  0  0  0  0  0  0  0  0  0
  138.7173   68.3253  224.1517 H   0  0  0  0  0  0  0  0  0  0  0  0
  138.9747   67.5507  226.3897 H   0  0  0  0  0  0  0  0  0  0  0  0
  139.8657   67.8685  228.6865 H   0  0  0  0  0  0  0  0  0  0  0  0
  141.1711   69.9088  229.1799 H   0  0  0  0  0  0  0  0  0  0  0  0
  141.6017   71.6133  227.4599 H   0  0  0  0  0  0  0  0  0  0  0  0
  1  2  2  0
  2  3  1  0
  3  4  1  0
  4  5  1  0
  5  6  2  0
  5  7  1  0
  7  8  1  0
  8  9  1  0
  9 10  1  0
  9 11  1  0
 11 12  1  0
 12 13  1  0
 13 14  2  0
 14 15  1  0
 15 16  2  0
 16 17  1  0
 16 18  1  0
 18 19  1  0
 18 20  2  0
  2 21  1  0
 21 22  2  0
 22 23  1  0
 23 24  2  0
 24 25  1  0
 25 26  2  0
 26 27  1  0
 27 28  2  0
 28 29  1  0
 29 30  2  0
 12  7  1  0
 20 13  1  0
 30 21  1  0
 29 24  1  0
  3 31  1  0
  4 32  1  0
  4 33  1  0
  8 34  1  0
  8 35  1  0
  9 36  1  1
 10 37  1  0
 11 38  1  0
 11 39  1  0
 12 40  1  6
 14 41  1  0
 15 42  1  0
 20 43  1  0
 22 44  1  0
 23 45  1  0
 25 46  1  0
 26 47  1  0
 27 48  1  0
 28 49  1  0
M  END
>  <smiles>  (43) 
O=C(NCC(=O)N1C[C@H](O)C[C@H]1c1ccc(Cl)c(Cl)c1)c1ccc2ccccc2n1

>  <score_type>  (43) 
oracle

>  <origin>  (43) 
autodockgpu

>  <m_score__min__energy>  (43) 
-9.2300000000000004

>  <m_primary>  (43) 
energy

>  <rmsd>  (43) 
2.1970811218506126

>  <m_score__min__rmsd>  (43) 
2.1970811218506126

>  <meeko>  (43) 
{"free_energy": -8.26, "intermolecular_energy": -10.05, "internal_energy": -1.58, "cluster_size": 11, "cluster_id": 1, "rank_in_cluster": 10}

>  <energy>  (43) 
-8.07

>  <cluster_rmsd>  (43) 
0.34

>  <cluster>  (43) 
4

$$$$

     RDKit          3D

 49 52  0  0  0  0  0  0  0  0999 V2000
  137.9840   70.8250  221.9530 O   0  0  0  0  0  0  0  0  0  0  0  0
  138.7570   71.3050  222.8510 C   0  0  0  0  0  0  0  0  0  0  0  0
  139.2550   72.6280  222.7610 N   0  0  0  0  0  0  0  0  0  0  0  0
  138.9010   73.4990  221.6310 C   0  0  0  0  0  0  0  0  0  0  0  0
  139.9300   74.5710  221.5870 C   0  0  0  0  0  0  0  0  0  0  0  0
  141.1300   74.3590  221.9600 O   0  0  0  0  0  0  0  0  0  0  0  0
  139.5650   75.8640  221.1160 N   0  0  0  0  0  0  0  0  0  0  0  0
  138.3040   76.5790  221.2980 C   0  0  0  0  0  0  0  0  0  0  0  0
  138.2030   77.5490  220.1530 C   0  0  2  0  0  0  0  0  0  0  0  0
  136.9840   77.5170  219.4920 O   0  0  0  0  0  0  0  0  0  0  0  0
  139.3540   77.1600  219.2810 C   0  0  0  0  0  0  0  0  0  0  0  0
  140.3950   76.7650  220.3350 C   0  0  1  0  0  0  0  0  0  0  0  0
  140.8370   77.9310  221.1410 C   0  0  0  0  0  0  0  0  0  0  0  0
  141.1710   77.6600  222.4730 C   0  0  0  0  0  0  0  0  0  0  0  0
  141.5960   78.6560  223.3310 C   0  0  0  0  0  0  0  0  0  0  0  0
  141.6840   79.9380  222.8320 C   0  0  0  0  0  0  0  0  0  0  0  0
  142.2140   81.2070  223.8820 Cl  0  0  0  0  0  0  0  0  0  0  0  0
  141.3520   80.1930  221.5150 C   0  0  0  0  0  0  0  0  0  0  0  0
  141.4620   81.8250  220.8710 Cl  0  0  0  0  0  0  0  0  0  0  0  0
  140.9260   79.2090  220.6490 C   0  0  0  0  0  0  0  0  0  0  0  0
  139.1290   70.4680  223.9880 C   0  0  0  0  0  0  0  0  0  0  0  0
  138.8450   69.1140  223.9780 C   0  0  0  0  0  0  0  0  0  0  0  0
  139.1710   68.2820  225.0170 C   0  0  0  0  0  0  0  0  0  0  0  0
  139.8100   68.8000  226.1270 C   0  0  0  0  0  0  0  0  0  0  0  0
  140.1400   67.9860  227.1660 C   0  0  0  0  0  0  0  0  0  0  0  0
  140.7730   68.5000  228.2630 C   0  0  0  0  0  0  0  0  0  0  0  0
  141.0550   69.8460  228.2710 C   0  0  0  0  0  0  0  0  0  0  0  0
  140.7250   70.6770  227.2250 C   0  0  0  0  0  0  0  0  0  0  0  0
  140.0820   70.1520  226.1110 C   0  0  0  0  0  0  0  0  0  0  0  0
  139.7530   70.9560  225.0790 N   0  0  0  0  0  0  0  0  0  0  0  0
  139.8820   72.9620  223.5270 H   0  0  0  0  0  0  0  0  0  0  0  0
  138.9088   72.9258  220.6922 H   0  0  0  0  0  0  0  0  0  0  0  0
  137.8923   73.9202  221.7537 H   0  0  0  0  0  0  0  0  0  0  0  0
  137.4595   75.8744  221.2766 H   0  0  0  0  0  0  0  0  0  0  0  0
  138.2737   77.0982  222.2673 H   0  0  0  0  0  0  0  0  0  0  0  0
  138.2504   78.5953  220.4893 H   0  0  0  0  0  0  0  0  0  0  0  0
  136.5330   78.3740  219.6090 H   0  0  0  0  0  0  0  0  0  0  0  0
  139.0983   76.3128  218.6277 H   0  0  0  0  0  0  0  0  0  0  0  0
  139.6852   77.9469  218.5874 H   0  0  0  0  0  0  0  0  0  0  0  0
  141.3358   76.3475  219.9469 H   0  0  0  0  0  0  0  0  0  0  0  0
  141.0932   76.6281  222.8460 H   0  0  0  0  0  0  0  0  0  0  0  0
  141.8553   78.4336  224.3766 H   0  0  0  0  0  0  0  0  0  0  0  0
  140.6676   79.4390  219.6048 H   0  0  0  0  0  0  0  0  0  0  0  0
  138.3369   68.6879  223.1003 H   0  0  0  0  0  0  0  0  0  0  0  0
  138.9260   67.2108  224.9676 H   0  0  0  0  0  0  0  0  0  0  0  0
  139.8973   66.9140  227.1232 H   0  0  0  0  0  0  0  0  0  0  0  0
  141.0481   67.8575  229.1124 H   0  0  0  0  0  0  0  0  0  0  0  0
  141.5638   70.2747  229.1470 H   0  0  0  0  0  0  0  0  0  0  0  0
  140.9685   71.7488  227.2706 H   0  0  0  0  0  0  0  0  0  0  0  0
  1  2  2  0
  2  3  1  0
  3  4  1  0
  4  5  1  0
  5  6  2  0
  5  7  1  0
  7  8  1  0
  8  9  1  0
  9 10  1  0
  9 11  1  0
 11 12  1  0
 12 13  1  0
 13 14  2  0
 14 15  1  0
 15 16  2  0
 16 17  1  0
 16 18  1  0
 18 19  1  0
 18 20  2  0
  2 21  1  0
 21 22  2  0
 22 23  1  0
 23 24  2  0
 24 25  1  0
 25 26  2  0
 26 27  1  0
 27 28  2  0
 28 29  1  0
 29 30  2  0
 12  7  1  0
 20 13  1  0
 30 21  1  0
 29 24  1  0
  3 31  1  0
  4 32  1  0
  4 33  1  0
  8 34  1  0
  8 35  1  0
  9 36  1  1
 10 37  1  0
 11 38  1  0
 11 39  1  0
 12 40  1  6
 14 41  1  0
 15 42  1  0
 20 43  1  0
 22 44  1  0
 23 45  1  0
 25 46  1  0
 26 47  1  0
 27 48  1  0
 28 49  1  0
M  END
>  <smiles>  (44) 
O=C(NCC(=O)N1C[C@H](O)C[C@H]1c1ccc(Cl)c(Cl)c1)c1ccc2ccccc2n1

>  <score_type>  (44) 
oracle

>  <origin>  (44) 
autodockgpu

>  <m_score__min__energy>  (44) 
-9.2300000000000004

>  <m_primary>  (44) 
energy

>  <rmsd>  (44) 
1.782924167145339

>  <m_score__min__rmsd>  (44) 
1.782924167145339

>  <meeko>  (44) 
{"free_energy": -8.52, "intermolecular_energy": -10.3, "internal_energy": -1.72, "cluster_size": 11, "cluster_id": 1, "rank_in_cluster": 6}

>  <energy>  (44) 
-8.02

>  <cluster_rmsd>  (44) 
0.53

>  <cluster>  (44) 
4

$$$$

     RDKit          3D

 49 52  0  0  0  0  0  0  0  0999 V2000
  140.1220   71.1200  221.2100 O   0  0  0  0  0  0  0  0  0  0  0  0
  139.5520   71.7020  222.1960 C   0  0  0  0  0  0  0  0  0  0  0  0
  138.7340   72.8420  222.0020 N   0  0  0  0  0  0  0  0  0  0  0  0
  138.5100   73.3990  220.6600 C   0  0  0  0  0  0  0  0  0  0  0  0
  138.4430   74.8760  220.8230 C   0  0  0  0  0  0  0  0  0  0  0  0
  137.3370   75.5040  220.7470 O   0  0  0  0  0  0  0  0  0  0  0  0
  139.6420   75.6020  221.0680 N   0  0  0  0  0  0  0  0  0  0  0  0
  140.1670   76.0940  222.3400 C   0  0  0  0  0  0  0  0  0  0  0  0
  141.0540   77.2610  222.0030 C   0  0  2  0  0  0  0  0  0  0  0  0
  140.8080   78.3950  222.7630 O   0  0  0  0  0  0  0  0  0  0  0  0
  140.8010   77.4660  220.5440 C   0  0  0  0  0  0  0  0  0  0  0  0
  140.6190   76.0170  220.0760 C   0  0  1  0  0  0  0  0  0  0  0  0
  141.8750   75.2350  220.1920 C   0  0  0  0  0  0  0  0  0  0  0  0
  143.0610   75.9580  220.0170 C   0  0  0  0  0  0  0  0  0  0  0  0
  144.2990   75.3510  220.0990 C   0  0  0  0  0  0  0  0  0  0  0  0
  144.3330   73.9970  220.3610 C   0  0  0  0  0  0  0  0  0  0  0  0
  145.8700   73.2080  220.4700 Cl  0  0  0  0  0  0  0  0  0  0  0  0
  143.1560   73.2950  220.5320 C   0  0  0  0  0  0  0  0  0  0  0  0
  143.1920   71.5700  220.8670 Cl  0  0  0  0  0  0  0  0  0  0  0  0
  141.9140   73.8890  220.4520 C   0  0  0  0  0  0  0  0  0  0  0  0
  139.7530   71.1760  223.5430 C   0  0  0  0  0  0  0  0  0  0  0  0
  139.3400   69.8930  223.8580 C   0  0  0  0  0  0  0  0  0  0  0  0
  139.5040   69.3490  225.1050 C   0  0  0  0  0  0  0  0  0  0  0  0
  140.1030   70.0980  226.1000 C   0  0  0  0  0  0  0  0  0  0  0  0
  140.2720   69.5700  227.3420 C   0  0  0  0  0  0  0  0  0  0  0  0
  140.8650   70.3130  228.3250 C   0  0  0  0  0  0  0  0  0  0  0  0
  141.2740   71.5880  228.0100 C   0  0  0  0  0  0  0  0  0  0  0  0
  141.1080   72.1290  226.7560 C   0  0  0  0  0  0  0  0  0  0  0  0
  140.5050   71.3720  225.7580 C   0  0  0  0  0  0  0  0  0  0  0  0
  140.3350   71.8920  224.5250 N   0  0  0  0  0  0  0  0  0  0  0  0
  138.2960   73.2720  222.8480 H   0  0  0  0  0  0  0  0  0  0  0  0
  139.3407   73.1275  219.9921 H   0  0  0  0  0  0  0  0  0  0  0  0
  137.5846   73.0050  220.2146 H   0  0  0  0  0  0  0  0  0  0  0  0
  139.3432   76.4171  222.9934 H   0  0  0  0  0  0  0  0  0  0  0  0
  140.7219   75.3096  222.8756 H   0  0  0  0  0  0  0  0  0  0  0  0
  142.1106   77.0593  222.2332 H   0  0  0  0  0  0  0  0  0  0  0  0
  141.6030   78.6100  223.2870 H   0  0  0  0  0  0  0  0  0  0  0  0
  139.8942   78.0640  220.3708 H   0  0  0  0  0  0  0  0  0  0  0  0
  141.5940   78.0177  220.0180 H   0  0  0  0  0  0  0  0  0  0  0  0
  140.3300   75.8863  219.0227 H   0  0  0  0  0  0  0  0  0  0  0  0
  143.0055   77.0367  219.8089 H   0  0  0  0  0  0  0  0  0  0  0  0
  145.2257   75.9272  219.9602 H   0  0  0  0  0  0  0  0  0  0  0  0
  140.9914   73.3064  220.5912 H   0  0  0  0  0  0  0  0  0  0  0  0
  138.8609   69.2857  223.0759 H   0  0  0  0  0  0  0  0  0  0  0  0
  139.1616   68.3244  225.3123 H   0  0  0  0  0  0  0  0  0  0  0  0
  139.9319   68.5459  227.5556 H   0  0  0  0  0  0  0  0  0  0  0  0
  141.0104   69.9040  229.3357 H   0  0  0  0  0  0  0  0  0  0  0  0
  141.7520   72.1983  228.7904 H   0  0  0  0  0  0  0  0  0  0  0  0
  141.4499   73.1529  226.5446 H   0  0  0  0  0  0  0  0  0  0  0  0
  1  2  2  0
  2  3  1  0
  3  4  1  0
  4  5  1  0
  5  6  2  0
  5  7  1  0
  7  8  1  0
  8  9  1  0
  9 10  1  0
  9 11  1  0
 11 12  1  0
 12 13  1  0
 13 14  2  0
 14 15  1  0
 15 16  2  0
 16 17  1  0
 16 18  1  0
 18 19  1  0
 18 20  2  0
  2 21  1  0
 21 22  2  0
 22 23  1  0
 23 24  2  0
 24 25  1  0
 25 26  2  0
 26 27  1  0
 27 28  2  0
 28 29  1  0
 29 30  2  0
 12  7  1  0
 20 13  1  0
 30 21  1  0
 29 24  1  0
  3 31  1  0
  4 32  1  0
  4 33  1  0
  8 34  1  0
  8 35  1  0
  9 36  1  6
 10 37  1  0
 11 38  1  0
 11 39  1  0
 12 40  1  6
 14 41  1  0
 15 42  1  0
 20 43  1  0
 22 44  1  0
 23 45  1  0
 25 46  1  0
 26 47  1  0
 27 48  1  0
 28 49  1  0
M  END
>  <smiles>  (45) 
O=C(NCC(=O)N1C[C@H](O)C[C@H]1c1ccc(Cl)c(Cl)c1)c1ccc2ccccc2n1

>  <score_type>  (45) 
oracle

>  <origin>  (45) 
autodockgpu

>  <m_score__min__energy>  (45) 
-9.2300000000000004

>  <m_primary>  (45) 
energy

>  <rmsd>  (45) 
2.30369401094976

>  <m_score__min__rmsd>  (45) 
2.30369401094976

>  <meeko>  (45) 
{"free_energy": -8.21, "intermolecular_energy": -10.0, "internal_energy": -1.82, "cluster_size": 7, "cluster_id": 4, "rank_in_cluster": 1}

>  <energy>  (45) 
-7.86

>  <cluster_rmsd>  (45) 
0.47

>  <cluster>  (45) 
4

$$$$

     RDKit          3D

 49 52  0  0  0  0  0  0  0  0999 V2000
  139.5240   71.0710  221.2870 O   0  0  0  0  0  0  0  0  0  0  0  0
  139.5460   71.8100  222.3300 C   0  0  0  0  0  0  0  0  0  0  0  0
  139.3530   73.2100  222.2420 N   0  0  0  0  0  0  0  0  0  0  0  0
  139.1210   73.8660  220.9480 C   0  0  0  0  0  0  0  0  0  0  0  0
  140.4630   74.1240  220.3600 C   0  0  0  0  0  0  0  0  0  0  0  0
  141.2660   73.1730  220.0920 O   0  0  0  0  0  0  0  0  0  0  0  0
  140.8560   75.4660  220.0910 N   0  0  0  0  0  0  0  0  0  0  0  0
  140.4020   76.3530  219.0230 C   0  0  0  0  0  0  0  0  0  0  0  0
  141.5080   77.3500  218.8080 C   0  0  2  0  0  0  0  0  0  0  0  0
  141.8740   77.5100  217.4800 O   0  0  0  0  0  0  0  0  0  0  0  0
  142.6130   76.8140  219.6610 C   0  0  0  0  0  0  0  0  0  0  0  0
  141.8180   76.2510  220.8460 C   0  0  1  0  0  0  0  0  0  0  0  0
  141.1510   77.3240  221.6250 C   0  0  0  0  0  0  0  0  0  0  0  0
  139.8290   77.0670  222.0070 C   0  0  0  0  0  0  0  0  0  0  0  0
  139.0940   77.9820  222.7350 C   0  0  0  0  0  0  0  0  0  0  0  0
  139.7070   79.1690  223.0790 C   0  0  0  0  0  0  0  0  0  0  0  0
  138.8120   80.3360  223.9900 Cl  0  0  0  0  0  0  0  0  0  0  0  0
  141.0130   79.4110  222.6950 C   0  0  0  0  0  0  0  0  0  0  0  0
  141.8000   80.9210  223.1300 Cl  0  0  0  0  0  0  0  0  0  0  0  0
  141.7560   78.5060  221.9690 C   0  0  0  0  0  0  0  0  0  0  0  0
  139.7740   71.1900  223.6330 C   0  0  0  0  0  0  0  0  0  0  0  0
  139.4570   69.8590  223.8360 C   0  0  0  0  0  0  0  0  0  0  0  0
  139.6500   69.2280  225.0370 C   0  0  0  0  0  0  0  0  0  0  0  0
  140.1820   69.9350  226.0990 C   0  0  0  0  0  0  0  0  0  0  0  0
  140.3790   69.3210  227.2970 C   0  0  0  0  0  0  0  0  0  0  0  0
  140.9050   70.0220  228.3450 C   0  0  0  0  0  0  0  0  0  0  0  0
  141.2190   71.3460  228.1420 C   0  0  0  0  0  0  0  0  0  0  0  0
  141.0240   71.9750  226.9330 C   0  0  0  0  0  0  0  0  0  0  0  0
  140.4890   71.2600  225.8680 C   0  0  0  0  0  0  0  0  0  0  0  0
  140.2910   71.8650  224.6790 N   0  0  0  0  0  0  0  0  0  0  0  0
  139.3820   73.7580  223.1320 H   0  0  0  0  0  0  0  0  0  0  0  0
  138.5366   73.2084  220.2877 H   0  0  0  0  0  0  0  0  0  0  0  0
  138.5538   74.8004  221.0711 H   0  0  0  0  0  0  0  0  0  0  0  0
  140.2210   75.7795  218.1019 H   0  0  0  0  0  0  0  0  0  0  0  0
  139.4585   76.8517  219.2896 H   0  0  0  0  0  0  0  0  0  0  0  0
  141.2061   78.3713  219.0834 H   0  0  0  0  0  0  0  0  0  0  0  0
  141.2350   77.0400  216.9120 H   0  0  0  0  0  0  0  0  0  0  0  0
  143.1783   76.0257  219.1422 H   0  0  0  0  0  0  0  0  0  0  0  0
  143.3751   77.5575  219.9374 H   0  0  0  0  0  0  0  0  0  0  0  0
  142.4033   75.7085  221.6031 H   0  0  0  0  0  0  0  0  0  0  0  0
  139.3639   76.1123  221.7201 H   0  0  0  0  0  0  0  0  0  0  0  0
  138.0555   77.7715  223.0304 H   0  0  0  0  0  0  0  0  0  0  0  0
  142.7940   78.7229  221.6766 H   0  0  0  0  0  0  0  0  0  0  0  0
  139.0329   69.2839  222.9997 H   0  0  0  0  0  0  0  0  0  0  0  0
  139.3837   68.1673  225.1550 H   0  0  0  0  0  0  0  0  0  0  0  0
  140.1148   68.2605  227.4217 H   0  0  0  0  0  0  0  0  0  0  0  0
  141.0723   69.5427  229.3209 H   0  0  0  0  0  0  0  0  0  0  0  0
  141.6418   71.9238  228.9771 H   0  0  0  0  0  0  0  0  0  0  0  0
  141.2896   73.0354  226.8108 H   0  0  0  0  0  0  0  0  0  0  0  0
  1  2  2  0
  2  3  1  0
  3  4  1  0
  4  5  1  0
  5  6  2  0
  5  7  1  0
  7  8  1  0
  8  9  1  0
  9 10  1  0
  9 11  1  0
 11 12  1  0
 12 13  1  0
 13 14  2  0
 14 15  1  0
 15 16  2  0
 16 17  1  0
 16 18  1  0
 18 19  1  0
 18 20  2  0
  2 21  1  0
 21 22  2  0
 22 23  1  0
 23 24  2  0
 24 25  1  0
 25 26  2  0
 26 27  1  0
 27 28  2  0
 28 29  1  0
 29 30  2  0
 12  7  1  0
 20 13  1  0
 30 21  1  0
 29 24  1  0
  3 31  1  0
  4 32  1  0
  4 33  1  0
  8 34  1  0
  8 35  1  0
  9 36  1  1
 10 37  1  0
 11 38  1  0
 11 39  1  0
 12 40  1  1
 14 41  1  0
 15 42  1  0
 20 43  1  0
 22 44  1  0
 23 45  1  0
 25 46  1  0
 26 47  1  0
 27 48  1  0
 28 49  1  0
M  END
>  <smiles>  (46) 
O=C(NCC(=O)N1C[C@H](O)C[C@H]1c1ccc(Cl)c(Cl)c1)c1ccc2ccccc2n1

>  <score_type>  (46) 
oracle

>  <origin>  (46) 
autodockgpu

>  <m_score__min__energy>  (46) 
-9.2300000000000004

>  <m_primary>  (46) 
energy

>  <rmsd>  (46) 
1.6002270348221566

>  <m_score__min__rmsd>  (46) 
1.6002270348221566

>  <meeko>  (46) 
{"free_energy": -8.38, "intermolecular_energy": -10.17, "internal_energy": -1.46, "cluster_size": 9, "cluster_id": 3, "rank_in_cluster": 3}

>  <energy>  (46) 
-8.06

>  <cluster_rmsd>  (46) 
0.0

>  <cluster>  (46) 
5

$$$$

     RDKit          3D

 49 52  0  0  0  0  0  0  0  0999 V2000
  141.4230   74.9200  220.7980 O   0  0  0  0  0  0  0  0  0  0  0  0
  140.4830   75.2010  221.6170 C   0  0  0  0  0  0  0  0  0  0  0  0
  139.5680   74.2110  222.0520 N   0  0  0  0  0  0  0  0  0  0  0  0
  139.6660   72.8230  221.5770 C   0  0  0  0  0  0  0  0  0  0  0  0
  138.4800   72.1080  222.1180 C   0  0  0  0  0  0  0  0  0  0  0  0
  137.3460   72.6800  222.2190 O   0  0  0  0  0  0  0  0  0  0  0  0
  138.6160   70.7530  222.5320 N   0  0  0  0  0  0  0  0  0  0  0  0
  139.5350   69.7330  222.0310 C   0  0  0  0  0  0  0  0  0  0  0  0
  138.8880   68.4070  222.3210 C   0  0  2  0  0  0  0  0  0  0  0  0
  138.8570   67.5440  221.2360 O   0  0  0  0  0  0  0  0  0  0  0  0
  137.5260   68.7950  222.8020 C   0  0  0  0  0  0  0  0  0  0  0  0
  137.8470   70.0850  223.5680 C   0  0  1  0  0  0  0  0  0  0  0  0
  138.6720   69.8220  224.7730 C   0  0  0  0  0  0  0  0  0  0  0  0
  138.6420   68.5100  225.2580 C   0  0  0  0  0  0  0  0  0  0  0  0
  139.3660   68.1320  226.3730 C   0  0  0  0  0  0  0  0  0  0  0  0
  140.1270   69.0960  227.0010 C   0  0  0  0  0  0  0  0  0  0  0  0
  141.0430   68.6530  228.4000 Cl  0  0  0  0  0  0  0  0  0  0  0  0
  140.1480   70.3880  226.5120 C   0  0  0  0  0  0  0  0  0  0  0  0
  141.1160   71.6220  227.3060 Cl  0  0  0  0  0  0  0  0  0  0  0  0
  139.4310   70.7780  225.4010 C   0  0  0  0  0  0  0  0  0  0  0  0
  140.3560   76.5700  222.1090 C   0  0  0  0  0  0  0  0  0  0  0  0
  139.1050   77.1120  222.3440 C   0  0  0  0  0  0  0  0  0  0  0  0
  138.9280   78.3910  222.8060 C   0  0  0  0  0  0  0  0  0  0  0  0
  140.0320   79.1840  223.0510 C   0  0  0  0  0  0  0  0  0  0  0  0
  139.8710   80.4550  223.5080 C   0  0  0  0  0  0  0  0  0  0  0  0
  140.9650   81.2370  223.7500 C   0  0  0  0  0  0  0  0  0  0  0  0
  142.2080   80.6970  223.5160 C   0  0  0  0  0  0  0  0  0  0  0  0
  142.3810   79.4120  223.0530 C   0  0  0  0  0  0  0  0  0  0  0  0
  141.2670   78.6180  222.8080 C   0  0  0  0  0  0  0  0  0  0  0  0
  141.4220   77.3580  222.3530 N   0  0  0  0  0  0  0  0  0  0  0  0
  138.8210   74.5040  222.7220 H   0  0  0  0  0  0  0  0  0  0  0  0
  139.6573   72.7960  220.4774 H   0  0  0  0  0  0  0  0  0  0  0  0
  140.6019   72.3524  221.9125 H   0  0  0  0  0  0  0  0  0  0  0  0
  139.6865   69.8548  220.9483 H   0  0  0  0  0  0  0  0  0  0  0  0
  140.5215   69.8114  222.5113 H   0  0  0  0  0  0  0  0  0  0  0  0
  139.4556   67.8211  223.0590 H   0  0  0  0  0  0  0  0  0  0  0  0
  138.5050   66.6810  221.5210 H   0  0  0  0  0  0  0  0  0  0  0  0
  136.8390   68.9825  221.9636 H   0  0  0  0  0  0  0  0  0  0  0  0
  137.0184   68.0245  223.4010 H   0  0  0  0  0  0  0  0  0  0  0  0
  136.9814   70.6366  223.9635 H   0  0  0  0  0  0  0  0  0  0  0  0
  138.0267   67.7604  224.7388 H   0  0  0  0  0  0  0  0  0  0  0  0
  139.3364   67.0979  226.7468 H   0  0  0  0  0  0  0  0  0  0  0  0
  139.4657   71.8138  225.0325 H   0  0  0  0  0  0  0  0  0  0  0  0
  138.2167   76.4922  222.1526 H   0  0  0  0  0  0  0  0  0  0  0  0
  137.9148   78.7823  222.9801 H   0  0  0  0  0  0  0  0  0  0  0  0
  138.8606   80.8531  223.6827 H   0  0  0  0  0  0  0  0  0  0  0  0
  140.8549   82.2668  224.1206 H   0  0  0  0  0  0  0  0  0  0  0  0
  143.0978   81.3152  223.7060 H   0  0  0  0  0  0  0  0  0  0  0  0
  143.3927   79.0170  222.8784 H   0  0  0  0  0  0  0  0  0  0  0  0
  1  2  2  0
  2  3  1  0
  3  4  1  0
  4  5  1  0
  5  6  2  0
  5  7  1  0
  7  8  1  0
  8  9  1  0
  9 10  1  0
  9 11  1  0
 11 12  1  0
 12 13  1  0
 13 14  2  0
 14 15  1  0
 15 16  2  0
 16 17  1  0
 16 18  1  0
 18 19  1  0
 18 20  2  0
  2 21  1  0
 21 22  2  0
 22 23  1  0
 23 24  2  0
 24 25  1  0
 25 26  2  0
 26 27  1  0
 27 28  2  0
 28 29  1  0
 29 30  2  0
 12  7  1  0
 20 13  1  0
 30 21  1  0
 29 24  1  0
  3 31  1  0
  4 32  1  0
  4 33  1  0
  8 34  1  0
  8 35  1  0
  9 36  1  1
 10 37  1  0
 11 38  1  0
 11 39  1  0
 12 40  1  1
 14 41  1  0
 15 42  1  0
 20 43  1  0
 22 44  1  0
 23 45  1  0
 25 46  1  0
 26 47  1  0
 27 48  1  0
 28 49  1  0
M  END
>  <smiles>  (47) 
O=C(NCC(=O)N1C[C@H](O)C[C@H]1c1ccc(Cl)c(Cl)c1)c1ccc2ccccc2n1

>  <score_type>  (47) 
oracle

>  <origin>  (47) 
autodockgpu

>  <m_score__min__energy>  (47) 
-9.2300000000000004

>  <m_primary>  (47) 
energy

>  <rmsd>  (47) 
8.316532285787153

>  <m_score__min__rmsd>  (47) 
8.316532285787153

>  <meeko>  (47) 
{"free_energy": -8.8, "intermolecular_energy": -10.59, "internal_energy": -1.39, "cluster_size": 18, "cluster_id": 2, "rank_in_cluster": 2}

>  <energy>  (47) 
-7.95

>  <cluster_rmsd>  (47) 
0.0

>  <cluster>  (47) 
6

$$$$

     RDKit          3D

 49 52  0  0  0  0  0  0  0  0999 V2000
  140.1050   71.0180  221.2270 O   0  0  0  0  0  0  0  0  0  0  0  0
  139.4790   71.6440  222.1500 C   0  0  0  0  0  0  0  0  0  0  0  0
  138.6330   72.7390  221.8520 N   0  0  0  0  0  0  0  0  0  0  0  0
  138.4410   73.1970  220.4680 C   0  0  0  0  0  0  0  0  0  0  0  0
  138.4040   74.6840  220.5190 C   0  0  0  0  0  0  0  0  0  0  0  0
  137.3630   75.3360  220.1790 O   0  0  0  0  0  0  0  0  0  0  0  0
  139.5580   75.3920  220.9570 N   0  0  0  0  0  0  0  0  0  0  0  0
  139.9690   75.7110  222.3220 C   0  0  0  0  0  0  0  0  0  0  0  0
  140.8440   76.9310  222.2220 C   0  0  2  0  0  0  0  0  0  0  0  0
  140.5070   77.9420  223.1090 O   0  0  0  0  0  0  0  0  0  0  0  0
  140.6970   77.3330  220.7890 C   0  0  0  0  0  0  0  0  0  0  0  0
  140.5940   75.9610  220.1120 C   0  0  1  0  0  0  0  0  0  0  0  0
  141.8610   75.1950  220.2180 C   0  0  0  0  0  0  0  0  0  0  0  0
  143.0370   75.9360  220.0470 C   0  0  0  0  0  0  0  0  0  0  0  0
  144.2840   75.3450  220.1220 C   0  0  0  0  0  0  0  0  0  0  0  0
  144.3370   73.9890  220.3710 C   0  0  0  0  0  0  0  0  0  0  0  0
  145.8840   73.2200  220.4690 Cl  0  0  0  0  0  0  0  0  0  0  0  0
  143.1690   73.2690  220.5380 C   0  0  0  0  0  0  0  0  0  0  0  0
  143.2290   71.5420  220.8570 Cl  0  0  0  0  0  0  0  0  0  0  0  0
  141.9200   73.8470  220.4670 C   0  0  0  0  0  0  0  0  0  0  0  0
  139.6470   71.2150  223.5360 C   0  0  0  0  0  0  0  0  0  0  0  0
  139.0380   70.0570  223.9850 C   0  0  0  0  0  0  0  0  0  0  0  0
  139.1620   69.6080  225.2740 C   0  0  0  0  0  0  0  0  0  0  0  0
  139.9220   70.3290  226.1750 C   0  0  0  0  0  0  0  0  0  0  0  0
  140.0540   69.8960  227.4570 C   0  0  0  0  0  0  0  0  0  0  0  0
  140.8070   70.6110  228.3460 C   0  0  0  0  0  0  0  0  0  0  0  0
  141.4120   71.7620  227.8980 C   0  0  0  0  0  0  0  0  0  0  0  0
  141.2840   72.2080  226.6020 C   0  0  0  0  0  0  0  0  0  0  0  0
  140.5180   71.4790  225.7000 C   0  0  0  0  0  0  0  0  0  0  0  0
  140.3850   71.9060  224.4280 N   0  0  0  0  0  0  0  0  0  0  0  0
  138.1500   73.2080  222.6510 H   0  0  0  0  0  0  0  0  0  0  0  0
  139.2753   72.8586  219.8361 H   0  0  0  0  0  0  0  0  0  0  0  0
  137.5142   72.7895  220.0380 H   0  0  0  0  0  0  0  0  0  0  0  0
  139.0882   75.9234  222.9458 H   0  0  0  0  0  0  0  0  0  0  0  0
  140.5048   74.8701  222.7864 H   0  0  0  0  0  0  0  0  0  0  0  0
  141.8854   76.7198  222.5064 H   0  0  0  0  0  0  0  0  0  0  0  0
  139.5360   78.0180  223.1550 H   0  0  0  0  0  0  0  0  0  0  0  0
  139.7888   77.9324  220.6283 H   0  0  0  0  0  0  0  0  0  0  0  0
  141.5116   77.9672  220.4091 H   0  0  0  0  0  0  0  0  0  0  0  0
  140.3889   75.9738  219.0314 H   0  0  0  0  0  0  0  0  0  0  0  0
  142.9664   77.0155  219.8480 H   0  0  0  0  0  0  0  0  0  0  0  0
  145.2025   75.9353  219.9878 H   0  0  0  0  0  0  0  0  0  0  0  0
  141.0059   73.2508  220.6046 H   0  0  0  0  0  0  0  0  0  0  0  0
  138.4295   69.4728  223.2789 H   0  0  0  0  0  0  0  0  0  0  0  0
  138.6605   68.6810  225.5888 H   0  0  0  0  0  0  0  0  0  0  0  0
  139.5548   68.9702  227.7789 H   0  0  0  0  0  0  0  0  0  0  0  0
  140.9254   70.2763  229.3871 H   0  0  0  0  0  0  0  0  0  0  0  0
  142.0211   72.3482  228.6018 H   0  0  0  0  0  0  0  0  0  0  0  0
  141.7841   73.1343  226.2827 H   0  0  0  0  0  0  0  0  0  0  0  0
  1  2  2  0
  2  3  1  0
  3  4  1  0
  4  5  1  0
  5  6  2  0
  5  7  1  0
  7  8  1  0
  8  9  1  0
  9 10  1  0
  9 11  1  0
 11 12  1  0
 12 13  1  0
 13 14  2  0
 14 15  1  0
 15 16  2  0
 16 17  1  0
 16 18  1  0
 18 19  1  0
 18 20  2  0
  2 21  1  0
 21 22  2  0
 22 23  1  0
 23 24  2  0
 24 25  1  0
 25 26  2  0
 26 27  1  0
 27 28  2  0
 28 29  1  0
 29 30  2  0
 12  7  1  0
 20 13  1  0
 30 21  1  0
 29 24  1  0
  3 31  1  0
  4 32  1  0
  4 33  1  0
  8 34  1  0
  8 35  1  0
  9 36  1  6
 10 37  1  0
 11 38  1  0
 11 39  1  0
 12 40  1  6
 14 41  1  0
 15 42  1  0
 20 43  1  0
 22 44  1  0
 23 45  1  0
 25 46  1  0
 26 47  1  0
 27 48  1  0
 28 49  1  0
M  END
>  <smiles>  (48) 
O=C(NCC(=O)N1C[C@H](O)C[C@H]1c1ccc(Cl)c(Cl)c1)c1ccc2ccccc2n1

>  <score_type>  (48) 
oracle

>  <origin>  (48) 
autodockgpu

>  <m_score__min__energy>  (48) 
-9.2300000000000004

>  <m_primary>  (48) 
energy

>  <rmsd>  (48) 
2.3754279560319955

>  <m_score__min__rmsd>  (48) 
2.3754279560319955

>  <meeko>  (48) 
{"free_energy": -7.86, "intermolecular_energy": -9.65, "internal_energy": -1.89, "cluster_size": 7, "cluster_id": 4, "rank_in_cluster": 7}

>  <energy>  (48) 
-7.91

>  <cluster_rmsd>  (48) 
0.0

>  <cluster>  (48) 
7

$$$$

     RDKit          3D

 49 52  0  0  0  0  0  0  0  0999 V2000
  139.4940   70.7130  221.2600 O   0  0  0  0  0  0  0  0  0  0  0  0
  139.3390   71.5130  222.2460 C   0  0  0  0  0  0  0  0  0  0  0  0
  138.8620   72.8330  222.0510 N   0  0  0  0  0  0  0  0  0  0  0  0
  138.5280   73.3310  220.7100 C   0  0  0  0  0  0  0  0  0  0  0  0
  138.4320   74.8110  220.8220 C   0  0  0  0  0  0  0  0  0  0  0  0
  137.3180   75.4180  220.7000 O   0  0  0  0  0  0  0  0  0  0  0  0
  139.6130   75.5660  221.0720 N   0  0  0  0  0  0  0  0  0  0  0  0
  140.1270   76.0590  222.3470 C   0  0  0  0  0  0  0  0  0  0  0  0
  140.9850   77.2520  222.0190 C   0  0  2  0  0  0  0  0  0  0  0  0
  140.7110   78.3720  222.7900 O   0  0  0  0  0  0  0  0  0  0  0  0
  140.7230   77.4630  220.5630 C   0  0  0  0  0  0  0  0  0  0  0  0
  140.5770   76.0140  220.0810 C   0  0  1  0  0  0  0  0  0  0  0  0
  141.8530   75.2630  220.1880 C   0  0  0  0  0  0  0  0  0  0  0  0
  143.0190   76.0170  220.0150 C   0  0  0  0  0  0  0  0  0  0  0  0
  144.2730   75.4410  220.0890 C   0  0  0  0  0  0  0  0  0  0  0  0
  144.3420   74.0870  220.3420 C   0  0  0  0  0  0  0  0  0  0  0  0
  145.8980   73.3360  220.4400 Cl  0  0  0  0  0  0  0  0  0  0  0  0
  143.1830   73.3530  220.5110 C   0  0  0  0  0  0  0  0  0  0  0  0
  143.2640   71.6280  220.8340 Cl  0  0  0  0  0  0  0  0  0  0  0  0
  141.9270   73.9160  220.4390 C   0  0  0  0  0  0  0  0  0  0  0  0
  139.6620   71.0510  223.5920 C   0  0  0  0  0  0  0  0  0  0  0  0
  139.4370   69.7330  223.9490 C   0  0  0  0  0  0  0  0  0  0  0  0
  139.7220   69.2460  225.1980 C   0  0  0  0  0  0  0  0  0  0  0  0
  140.2550   70.0920  226.1520 C   0  0  0  0  0  0  0  0  0  0  0  0
  140.5420   69.6220  227.3960 C   0  0  0  0  0  0  0  0  0  0  0  0
  141.0700   70.4600  228.3370 C   0  0  0  0  0  0  0  0  0  0  0  0
  141.2940   71.7690  227.9810 C   0  0  0  0  0  0  0  0  0  0  0  0
  141.0070   72.2530  226.7250 C   0  0  0  0  0  0  0  0  0  0  0  0
  140.4700   71.3990  225.7690 C   0  0  0  0  0  0  0  0  0  0  0  0
  140.1830   71.8620  224.5350 N   0  0  0  0  0  0  0  0  0  0  0  0
  138.7580   73.4380  222.8970 H   0  0  0  0  0  0  0  0  0  0  0  0
  139.3162   73.0542  219.9944 H   0  0  0  0  0  0  0  0  0  0  0  0
  137.5844   72.8971  220.3477 H   0  0  0  0  0  0  0  0  0  0  0  0
  139.2963   76.3555  223.0043 H   0  0  0  0  0  0  0  0  0  0  0  0
  140.7019   75.2839  222.8749 H   0  0  0  0  0  0  0  0  0  0  0  0
  142.0470   77.0759  222.2450 H   0  0  0  0  0  0  0  0  0  0  0  0
  139.7600   78.3920  223.0020 H   0  0  0  0  0  0  0  0  0  0  0  0
  139.8006   78.0390  220.3975 H   0  0  0  0  0  0  0  0  0  0  0  0
  141.5006   78.0394  220.0404 H   0  0  0  0  0  0  0  0  0  0  0  0
  140.2894   75.8853  219.0271 H   0  0  0  0  0  0  0  0  0  0  0  0
  142.9353   77.0954  219.8150 H   0  0  0  0  0  0  0  0  0  0  0  0
  145.1843   76.0415  219.9510 H   0  0  0  0  0  0  0  0  0  0  0  0
  141.0198   73.3095  220.5773 H   0  0  0  0  0  0  0  0  0  0  0  0
  139.0122   69.0485  223.2000 H   0  0  0  0  0  0  0  0  0  0  0  0
  139.5281   68.1904  225.4391 H   0  0  0  0  0  0  0  0  0  0  0  0
  140.3491   68.5678  227.6441 H   0  0  0  0  0  0  0  0  0  0  0  0
  141.3085   70.0986  229.3482 H   0  0  0  0  0  0  0  0  0  0  0  0
  141.7187   72.4554  228.7283 H   0  0  0  0  0  0  0  0  0  0  0  0
  141.2011   73.3076  226.4797 H   0  0  0  0  0  0  0  0  0  0  0  0
  1  2  2  0
  2  3  1  0
  3  4  1  0
  4  5  1  0
  5  6  2  0
  5  7  1  0
  7  8  1  0
  8  9  1  0
  9 10  1  0
  9 11  1  0
 11 12  1  0
 12 13  1  0
 13 14  2  0
 14 15  1  0
 15 16  2  0
 16 17  1  0
 16 18  1  0
 18 19  1  0
 18 20  2  0
  2 21  1  0
 21 22  2  0
 22 23  1  0
 23 24  2  0
 24 25  1  0
 25 26  2  0
 26 27  1  0
 27 28  2  0
 28 29  1  0
 29 30  2  0
 12  7  1  0
 20 13  1  0
 30 21  1  0
 29 24  1  0
  3 31  1  0
  4 32  1  0
  4 33  1  0
  8 34  1  0
  8 35  1  0
  9 36  1  6
 10 37  1  0
 11 38  1  0
 11 39  1  0
 12 40  1  6
 14 41  1  0
 15 42  1  0
 20 43  1  0
 22 44  1  0
 23 45  1  0
 25 46  1  0
 26 47  1  0
 27 48  1  0
 28 49  1  0
M  END
>  <smiles>  (49) 
O=C(NCC(=O)N1C[C@H](O)C[C@H]1c1ccc(Cl)c(Cl)c1)c1ccc2ccccc2n1

>  <score_type>  (49) 
oracle

>  <origin>  (49) 
autodockgpu

>  <m_score__min__energy>  (49) 
-9.2300000000000004

>  <m_primary>  (49) 
energy

>  <rmsd>  (49) 
2.3175766805264653

>  <m_score__min__rmsd>  (49) 
2.3175766805264653

>  <meeko>  (49) 
{"free_energy": -8.13, "intermolecular_energy": -9.92, "internal_energy": -1.87, "cluster_size": 7, "cluster_id": 4, "rank_in_cluster": 2}

>  <energy>  (49) 
-6.92

>  <cluster_rmsd>  (49) 
0.0

>  <cluster>  (49) 
8

$$$$

     RDKit          3D

 49 52  0  0  0  0  0  0  0  0999 V2000
  137.3550   76.2880  222.4420 O   0  0  0  0  0  0  0  0  0  0  0  0
  138.6300   76.3660  222.3820 C   0  0  0  0  0  0  0  0  0  0  0  0
  139.4160   75.2530  221.9980 N   0  0  0  0  0  0  0  0  0  0  0  0
  138.7950   73.9660  221.6530 C   0  0  0  0  0  0  0  0  0  0  0  0
  139.8870   72.9550  221.6670 C   0  0  0  0  0  0  0  0  0  0  0  0
  141.0830   73.2620  221.3580 O   0  0  0  0  0  0  0  0  0  0  0  0
  139.5840   71.6130  222.0350 N   0  0  0  0  0  0  0  0  0  0  0  0
  140.2680   70.3830  221.6410 C   0  0  0  0  0  0  0  0  0  0  0  0
  139.2510   69.2810  221.7620 C   0  0  2  0  0  0  0  0  0  0  0  0
  139.1730   68.4610  220.6470 O   0  0  0  0  0  0  0  0  0  0  0  0
  137.9820   70.0240  222.0330 C   0  0  0  0  0  0  0  0  0  0  0  0
  138.5020   71.1780  222.9000 C   0  0  1  0  0  0  0  0  0  0  0  0
  139.0120   70.7000  224.2090 C   0  0  0  0  0  0  0  0  0  0  0  0
  138.5570   69.4410  224.6180 C   0  0  0  0  0  0  0  0  0  0  0  0
  138.9550   68.8800  225.8160 C   0  0  0  0  0  0  0  0  0  0  0  0
  139.8240   69.6040  226.6060 C   0  0  0  0  0  0  0  0  0  0  0  0
  140.3400   68.9280  228.1130 Cl  0  0  0  0  0  0  0  0  0  0  0  0
  140.2660   70.8460  226.1910 C   0  0  0  0  0  0  0  0  0  0  0  0
  141.3740   71.7740  227.1920 Cl  0  0  0  0  0  0  0  0  0  0  0  0
  139.8760   71.4170  224.9980 C   0  0  0  0  0  0  0  0  0  0  0  0
  139.2800   77.6300  222.7180 C   0  0  0  0  0  0  0  0  0  0  0  0
  138.5200   78.7390  223.0430 C   0  0  0  0  0  0  0  0  0  0  0  0
  139.0770   79.9490  223.3660 C   0  0  0  0  0  0  0  0  0  0  0  0
  140.4520   80.0840  223.3710 C   0  0  0  0  0  0  0  0  0  0  0  0
  141.0190   81.2790  223.6900 C   0  0  0  0  0  0  0  0  0  0  0  0
  142.3790   81.4100  223.6950 C   0  0  0  0  0  0  0  0  0  0  0  0
  143.1340   80.3070  223.3710 C   0  0  0  0  0  0  0  0  0  0  0  0
  142.5690   79.0940  223.0480 C   0  0  0  0  0  0  0  0  0  0  0  0
  141.1850   78.9630  223.0440 C   0  0  0  0  0  0  0  0  0  0  0  0
  140.6200   77.7800  222.7280 N   0  0  0  0  0  0  0  0  0  0  0  0
  140.4530   75.3810  221.9680 H   0  0  0  0  0  0  0  0  0  0  0  0
  138.0250   73.7045  222.3938 H   0  0  0  0  0  0  0  0  0  0  0  0
  138.3057   74.0106  220.6688 H   0  0  0  0  0  0  0  0  0  0  0  0
  140.6248   70.4605  220.6034 H   0  0  0  0  0  0  0  0  0  0  0  0
  141.1453   70.1908  222.2761 H   0  0  0  0  0  0  0  0  0  0  0  0
  139.5088   68.5627  222.5542 H   0  0  0  0  0  0  0  0  0  0  0  0
  138.2630   68.4780  220.2970 H   0  0  0  0  0  0  0  0  0  0  0  0
  137.5221   70.3915  221.1038 H   0  0  0  0  0  0  0  0  0  0  0  0
  137.1933   69.4199  222.5053 H   0  0  0  0  0  0  0  0  0  0  0  0
  137.7613   71.9432  223.1753 H   0  0  0  0  0  0  0  0  0  0  0  0
  137.8650   68.8842  223.9690 H   0  0  0  0  0  0  0  0  0  0  0  0
  138.5916   67.8902  226.1293 H   0  0  0  0  0  0  0  0  0  0  0  0
  140.2428   72.4076  224.6911 H   0  0  0  0  0  0  0  0  0  0  0  0
  137.4239   78.6461  223.0422 H   0  0  0  0  0  0  0  0  0  0  0  0
  138.4347   80.8054  223.6191 H   0  0  0  0  0  0  0  0  0  0  0  0
  140.3826   82.1395  223.9438 H   0  0  0  0  0  0  0  0  0  0  0  0
  142.8554   82.3681  223.9503 H   0  0  0  0  0  0  0  0  0  0  0  0
  144.2303   80.3975  223.3699 H   0  0  0  0  0  0  0  0  0  0  0  0
  143.2077   78.2349  222.7950 H   0  0  0  0  0  0  0  0  0  0  0  0
  1  2  2  0
  2  3  1  0
  3  4  1  0
  4  5  1  0
  5  6  2  0
  5  7  1  0
  7  8  1  0
  8  9  1  0
  9 10  1  0
  9 11  1  0
 11 12  1  0
 12 13  1  0
 13 14  2  0
 14 15  1  0
 15 16  2  0
 16 17  1  0
 16 18  1  0
 18 19  1  0
 18 20  2  0
  2 21  1  0
 21 22  2  0
 22 23  1  0
 23 24  2  0
 24 25  1  0
 25 26  2  0
 26 27  1  0
 27 28  2  0
 28 29  1  0
 29 30  2  0
 12  7  1  0
 20 13  1  0
 30 21  1  0
 29 24  1  0
  3 31  1  0
  4 32  1  0
  4 33  1  0
  8 34  1  0
  8 35  1  0
  9 36  1  1
 10 37  1  0
 11 38  1  0
 11 39  1  0
 12 40  1  1
 14 41  1  0
 15 42  1  0
 20 43  1  0
 22 44  1  0
 23 45  1  0
 25 46  1  0
 26 47  1  0
 27 48  1  0
 28 49  1  0
M  END
>  <smiles>  (50) 
O=C(NCC(=O)N1C[C@H](O)C[C@H]1c1ccc(Cl)c(Cl)c1)c1ccc2ccccc2n1

>  <score_type>  (50) 
oracle

>  <origin>  (50) 
autodockgpu

>  <m_score__min__energy>  (50) 
-9.2300000000000004

>  <m_primary>  (50) 
energy

>  <rmsd>  (50) 
8.321797482690693

>  <m_score__min__rmsd>  (50) 
8.321797482690693

>  <meeko>  (50) 
{"free_energy": -8.21, "intermolecular_energy": -10.0, "internal_energy": -1.81, "cluster_size": 18, "cluster_id": 2, "rank_in_cluster": 13}

>  <energy>  (50) 
-6.39

>  <cluster_rmsd>  (50) 
0.0

>  <cluster>  (50) 
9

$$$$
