
     RDKit          3D

 48 51  0  0  0  0  0  0  0  0999 V2000
  140.4160   71.0190  221.3470 O   0  0  0  0  0  0  0  0  0  0  0  0
  140.1770   71.5050  222.5010 C   0  0  0  0  0  0  0  0  0  0  0  0
  140.0680   72.9220  222.5710 N   0  0  0  0  0  0  0  0  0  0  0  0
  140.2420   73.6470  221.3200 C   0  0  0  0  0  0  0  0  0  0  0  0
  140.4290   75.0800  221.6020 C   0  0  0  0  0  0  0  0  0  0  0  0
  139.8390   75.5810  222.6020 O   0  0  0  0  0  0  0  0  0  0  0  0
  141.2680   75.8560  220.7400 N   0  0  0  0  0  0  0  0  0  0  0  0
  142.5490   75.4320  220.1590 C   0  0  0  0  0  0  0  0  0  0  0  0
  142.5490   76.2520  218.8760 C   0  0  0  0  0  0  0  0  0  0  0  0
  142.1120   77.5930  219.4240 C   0  0  0  0  0  0  0  0  0  0  0  0
  140.9580   77.1870  220.3180 C   0  0  2  0  0  0  0  0  0  0  0  0
  140.7860   78.1280  221.4520 C   0  0  0  0  0  0  0  0  0  0  0  0
  139.5040   78.3140  221.9230 C   0  0  0  0  0  0  0  0  0  0  0  0
  139.3020   79.1890  222.9850 C   0  0  0  0  0  0  0  0  0  0  0  0
  140.3260   79.8760  223.5830 C   0  0  0  0  0  0  0  0  0  0  0  0
  141.6090   79.6870  223.1070 C   0  0  0  0  0  0  0  0  0  0  0  0
  142.9580   80.5220  223.8130 Cl  0  0  0  0  0  0  0  0  0  0  0  0
  141.8290   78.8100  222.0400 C   0  0  0  0  0  0  0  0  0  0  0  0
  140.0250   70.6550  223.6790 C   0  0  0  0  0  0  0  0  0  0  0  0
  139.3910   69.4410  223.5170 C   0  0  0  0  0  0  0  0  0  0  0  0
  139.2560   68.6450  224.6590 C   0  0  0  0  0  0  0  0  0  0  0  0
  139.7370   69.0730  225.8610 C   0  0  0  0  0  0  0  0  0  0  0  0
  139.6080   68.2970  226.9840 C   0  0  0  0  0  0  0  0  0  0  0  0
  140.0830   68.6950  228.2190 C   0  0  0  0  0  0  0  0  0  0  0  0
  140.7150   69.9320  228.3190 C   0  0  0  0  0  0  0  0  0  0  0  0
  140.8540   70.7270  227.1990 C   0  0  0  0  0  0  0  0  0  0  0  0
  140.3670   70.2970  225.9810 C   0  0  0  0  0  0  0  0  0  0  0  0
  140.4920   71.0570  224.8770 N   0  0  0  0  0  0  0  0  0  0  0  0
  139.8720   73.3960  223.4820 H   0  0  0  0  0  0  0  0  0  0  0  0
  141.1257   73.2594  220.7920 H   0  0  0  0  0  0  0  0  0  0  0  0
  139.3492   73.5116  220.6919 H   0  0  0  0  0  0  0  0  0  0  0  0
  143.3972   75.6929  220.8090 H   0  0  0  0  0  0  0  0  0  0  0  0
  142.6519   74.3467  220.0124 H   0  0  0  0  0  0  0  0  0  0  0  0
  143.5502   76.3023  218.4232 H   0  0  0  0  0  0  0  0  0  0  0  0
  141.9170   75.8519  218.0694 H   0  0  0  0  0  0  0  0  0  0  0  0
  142.9167   78.0746  219.9990 H   0  0  0  0  0  0  0  0  0  0  0  0
  141.8459   78.3299  218.6519 H   0  0  0  0  0  0  0  0  0  0  0  0
  139.9922   77.2187  219.7924 H   0  0  0  0  0  0  0  0  0  0  0  0
  138.6567   77.7805  221.4675 H   0  0  0  0  0  0  0  0  0  0  0  0
  138.2785   79.3356  223.3603 H   0  0  0  0  0  0  0  0  0  0  0  0
  140.1311   80.5610  224.4213 H   0  0  0  0  0  0  0  0  0  0  0  0
  142.8520   78.6622  221.6638 H   0  0  0  0  0  0  0  0  0  0  0  0
  139.0103   69.1149  222.5379 H   0  0  0  0  0  0  0  0  0  0  0  0
  138.7582   67.6667  224.5870 H   0  0  0  0  0  0  0  0  0  0  0  0
  139.1077   67.3211  226.8986 H   0  0  0  0  0  0  0  0  0  0  0  0
  139.9648   68.0501  229.1022 H   0  0  0  0  0  0  0  0  0  0  0  0
  141.1030   70.2752  229.2894 H   0  0  0  0  0  0  0  0  0  0  0  0
  141.3533   71.7040  227.2772 H   0  0  0  0  0  0  0  0  0  0  0  0
  1  2  2  0
  2  3  1  0
  3  4  1  0
  4  5  1  0
  5  6  2  0
  5  7  1  0
  7  8  1  0
  8  9  1  0
  9 10  1  0
 10 11  1  0
 11 12  1  0
 12 13  2  0
 13 14  1  0
 14 15  2  0
 15 16  1  0
 16 17  1  0
 16 18  2  0
  2 19  1  0
 19 20  2  0
 20 21  1  0
 21 22  2  0
 22 23  1  0
 23 24  2  0
 24 25  1  0
 25 26  2  0
 26 27  1  0
 27 28  2  0
 11  7  1  0
 18 12  1  0
 28 19  1  0
 27 22  1  0
  3 29  1  0
  4 30  1  0
  4 31  1  0
  8 32  1  0
  8 33  1  0
  9 34  1  0
  9 35  1  0
 10 36  1  0
 10 37  1  0
 11 38  1  6
 13 39  1  0
 14 40  1  0
 15 41  1  0
 18 42  1  0
 20 43  1  0
 21 44  1  0
 23 45  1  0
 24 46  1  0
 25 47  1  0
 26 48  1  0
M  END
>  <smiles>  (1) 
O=C(NCC(=O)N1CCCC1c1cccc(Cl)c1)c1ccc2ccccc2n1

>  <score_type>  (1) 
oracle

>  <origin>  (1) 
autodockgpu

>  <m_score__min__energy>  (1) 
-9.4700000000000006

>  <m_primary>  (1) 
energy

>  <rmsd>  (1) 
1.9762862935328156

>  <m_score__min__rmsd>  (1) 
1.9762862935328156

>  <meeko>  (1) 
{"free_energy": -9.15, "intermolecular_energy": -10.64, "internal_energy": -1.66, "cluster_size": 31, "cluster_id": 1, "rank_in_cluster": 23}

>  <energy>  (1) 
-9.47

>  <cluster_rmsd>  (1) 
0.0

>  <cluster>  (1) 
1

$$$$

     RDKit          3D

 48 51  0  0  0  0  0  0  0  0999 V2000
  141.1280   71.8910  221.5220 O   0  0  0  0  0  0  0  0  0  0  0  0
  140.2570   72.1520  222.4140 C   0  0  0  0  0  0  0  0  0  0  0  0
  139.3750   73.2310  222.1270 N   0  0  0  0  0  0  0  0  0  0  0  0
  139.5720   73.9060  220.8520 C   0  0  0  0  0  0  0  0  0  0  0  0
  138.8480   75.1890  220.8570 C   0  0  0  0  0  0  0  0  0  0  0  0
  137.6830   75.2280  220.3690 O   0  0  0  0  0  0  0  0  0  0  0  0
  139.4850   76.3460  221.4100 N   0  0  0  0  0  0  0  0  0  0  0  0
  138.8750   77.6690  221.5990 C   0  0  0  0  0  0  0  0  0  0  0  0
  139.6680   78.1640  222.8010 C   0  0  0  0  0  0  0  0  0  0  0  0
  141.0660   77.7760  222.3680 C   0  0  0  0  0  0  0  0  0  0  0  0
  140.8400   76.3650  221.8670 C   0  0  2  0  0  0  0  0  0  0  0  0
  141.8120   75.9970  220.8080 C   0  0  0  0  0  0  0  0  0  0  0  0
  141.9190   76.8510  219.7300 C   0  0  0  0  0  0  0  0  0  0  0  0
  142.8190   76.5410  218.7170 C   0  0  0  0  0  0  0  0  0  0  0  0
  143.6060   75.4190  218.7450 C   0  0  0  0  0  0  0  0  0  0  0  0
  143.4950   74.5660  219.8260 C   0  0  0  0  0  0  0  0  0  0  0  0
  144.4590   73.1250  219.9310 Cl  0  0  0  0  0  0  0  0  0  0  0  0
  142.5950   74.8640  220.8530 C   0  0  0  0  0  0  0  0  0  0  0  0
  140.1720   71.3890  223.6570 C   0  0  0  0  0  0  0  0  0  0  0  0
  139.5730   70.1480  223.6070 C   0  0  0  0  0  0  0  0  0  0  0  0
  139.5020   69.4360  224.8090 C   0  0  0  0  0  0  0  0  0  0  0  0
  140.0080   69.9670  225.9580 C   0  0  0  0  0  0  0  0  0  0  0  0
  139.9430   69.2740  227.1390 C   0  0  0  0  0  0  0  0  0  0  0  0
  140.4450   69.7770  228.3240 C   0  0  0  0  0  0  0  0  0  0  0  0
  141.0390   71.0370  228.3110 C   0  0  0  0  0  0  0  0  0  0  0  0
  141.1150   71.7500  227.1300 C   0  0  0  0  0  0  0  0  0  0  0  0
  140.6020   71.2150  225.9660 C   0  0  0  0  0  0  0  0  0  0  0  0
  140.6650   71.8930  224.8050 N   0  0  0  0  0  0  0  0  0  0  0  0
  138.6320   73.5080  222.8100 H   0  0  0  0  0  0  0  0  0  0  0  0
  140.6452   74.0915  220.6976 H   0  0  0  0  0  0  0  0  0  0  0  0
  139.1881   73.2722  220.0391 H   0  0  0  0  0  0  0  0  0  0  0  0
  139.0220   78.3144  220.7204 H   0  0  0  0  0  0  0  0  0  0  0  0
  137.7841   77.6576  221.7397 H   0  0  0  0  0  0  0  0  0  0  0  0
  139.5690   79.2512  222.9363 H   0  0  0  0  0  0  0  0  0  0  0  0
  139.3502   77.7502  223.7694 H   0  0  0  0  0  0  0  0  0  0  0  0
  141.4366   78.4331  221.5675 H   0  0  0  0  0  0  0  0  0  0  0  0
  141.8225   77.8564  223.1625 H   0  0  0  0  0  0  0  0  0  0  0  0
  141.0004   75.6136  222.6542 H   0  0  0  0  0  0  0  0  0  0  0  0
  141.3033   77.7608  219.6730 H   0  0  0  0  0  0  0  0  0  0  0  0
  142.9030   77.2235  217.8584 H   0  0  0  0  0  0  0  0  0  0  0  0
  144.3087   75.2031  217.9267 H   0  0  0  0  0  0  0  0  0  0  0  0
  142.5103   74.1823  221.7121 H   0  0  0  0  0  0  0  0  0  0  0  0
  139.1710   69.7383  222.6686 H   0  0  0  0  0  0  0  0  0  0  0  0
  139.0345   68.4405  224.8272 H   0  0  0  0  0  0  0  0  0  0  0  0
  139.4732   68.2794  227.1435 H   0  0  0  0  0  0  0  0  0  0  0  0
  140.3772   69.1962  229.2557 H   0  0  0  0  0  0  0  0  0  0  0  0
  141.4468   71.4635  229.2393 H   0  0  0  0  0  0  0  0  0  0  0  0
  141.5847   72.7446  227.1176 H   0  0  0  0  0  0  0  0  0  0  0  0
  1  2  2  0
  2  3  1  0
  3  4  1  0
  4  5  1  0
  5  6  2  0
  5  7  1  0
  7  8  1  0
  8  9  1  0
  9 10  1  0
 10 11  1  0
 11 12  1  0
 12 13  2  0
 13 14  1  0
 14 15  2  0
 15 16  1  0
 16 17  1  0
 16 18  2  0
  2 19  1  0
 19 20  2  0
 20 21  1  0
 21 22  2  0
 22 23  1  0
 23 24  2  0
 24 25  1  0
 25 26  2  0
 26 27  1  0
 27 28  2  0
 11  7  1  0
 18 12  1  0
 28 19  1  0
 27 22  1  0
  3 29  1  0
  4 30  1  0
  4 31  1  0
  8 32  1  0
  8 33  1  0
  9 34  1  0
  9 35  1  0
 10 36  1  0
 10 37  1  0
 11 38  1  1
 13 39  1  0
 14 40  1  0
 15 41  1  0
 18 42  1  0
 20 43  1  0
 21 44  1  0
 23 45  1  0
 24 46  1  0
 25 47  1  0
 26 48  1  0
M  END
>  <smiles>  (2) 
O=C(NCC(=O)N1CCCC1c1cccc(Cl)c1)c1ccc2ccccc2n1

>  <score_type>  (2) 
oracle

>  <origin>  (2) 
autodockgpu

>  <m_score__min__energy>  (2) 
-9.4700000000000006

>  <m_primary>  (2) 
energy

>  <rmsd>  (2) 
2.7050184019229695

>  <m_score__min__rmsd>  (2) 
2.7050184019229695

>  <meeko>  (2) 
{"free_energy": -8.31, "intermolecular_energy": -9.8, "internal_energy": -1.54, "cluster_size": 17, "cluster_id": 2, "rank_in_cluster": 14}

>  <energy>  (2) 
-9.36

>  <cluster_rmsd>  (2) 
0.23

>  <cluster>  (2) 
1

$$$$

     RDKit          3D

 48 51  0  0  0  0  0  0  0  0999 V2000
  141.3230   71.9280  221.5640 O   0  0  0  0  0  0  0  0  0  0  0  0
  140.5270   72.2770  222.4950 C   0  0  0  0  0  0  0  0  0  0  0  0
  139.9090   73.5490  222.3430 N   0  0  0  0  0  0  0  0  0  0  0  0
  140.2580   74.2990  221.1450 C   0  0  0  0  0  0  0  0  0  0  0  0
  140.5360   75.7010  221.5040 C   0  0  0  0  0  0  0  0  0  0  0  0
  140.0690   76.1510  222.5890 O   0  0  0  0  0  0  0  0  0  0  0  0
  141.3230   76.5040  220.6180 N   0  0  0  0  0  0  0  0  0  0  0  0
  142.5110   76.0680  219.8710 C   0  0  0  0  0  0  0  0  0  0  0  0
  142.4230   76.9880  218.6610 C   0  0  0  0  0  0  0  0  0  0  0  0
  142.1200   78.3000  219.3530 C   0  0  0  0  0  0  0  0  0  0  0  0
  141.0450   77.8780  220.3330 C   0  0  2  0  0  0  0  0  0  0  0  0
  141.0440   78.7310  221.5470 C   0  0  0  0  0  0  0  0  0  0  0  0
  142.2710   79.0680  222.0780 C   0  0  0  0  0  0  0  0  0  0  0  0
  142.3120   79.8670  223.2150 C   0  0  0  0  0  0  0  0  0  0  0  0
  141.1800   80.3320  223.8330 C   0  0  0  0  0  0  0  0  0  0  0  0
  139.9530   79.9910  223.2980 C   0  0  0  0  0  0  0  0  0  0  0  0
  138.4750   80.5440  224.0250 Cl  0  0  0  0  0  0  0  0  0  0  0  0
  139.8950   79.1900  222.1540 C   0  0  0  0  0  0  0  0  0  0  0  0
  140.2670   71.4200  223.6490 C   0  0  0  0  0  0  0  0  0  0  0  0
  139.5950   70.2360  223.4310 C   0  0  0  0  0  0  0  0  0  0  0  0
  139.3560   69.4330  224.5500 C   0  0  0  0  0  0  0  0  0  0  0  0
  139.7790   69.8240  225.7850 C   0  0  0  0  0  0  0  0  0  0  0  0
  139.5490   69.0420  226.8870 C   0  0  0  0  0  0  0  0  0  0  0  0
  139.9630   69.4030  228.1550 C   0  0  0  0  0  0  0  0  0  0  0  0
  140.6380   70.6110  228.3120 C   0  0  0  0  0  0  0  0  0  0  0  0
  140.8790   71.4130  227.2140 C   0  0  0  0  0  0  0  0  0  0  0  0
  140.4510   71.0200  225.9630 C   0  0  0  0  0  0  0  0  0  0  0  0
  140.6760   71.7870  224.8800 N   0  0  0  0  0  0  0  0  0  0  0  0
  139.2430   73.9070  223.0660 H   0  0  0  0  0  0  0  0  0  0  0  0
  141.1519   73.8552  220.6825 H   0  0  0  0  0  0  0  0  0  0  0  0
  139.4196   74.2630  220.4338 H   0  0  0  0  0  0  0  0  0  0  0  0
  143.4356   76.2350  220.4430 H   0  0  0  0  0  0  0  0  0  0  0  0
  142.5372   74.9944  219.6327 H   0  0  0  0  0  0  0  0  0  0  0  0
  143.3730   77.0276  218.1078 H   0  0  0  0  0  0  0  0  0  0  0  0
  141.6896   76.6846  217.8994 H   0  0  0  0  0  0  0  0  0  0  0  0
  143.0055   78.6952  219.8723 H   0  0  0  0  0  0  0  0  0  0  0  0
  141.8161   79.1086  218.6719 H   0  0  0  0  0  0  0  0  0  0  0  0
  140.0333   77.9978  219.9182 H   0  0  0  0  0  0  0  0  0  0  0  0
  143.2006   78.7112  221.6105 H   0  0  0  0  0  0  0  0  0  0  0  0
  143.2919   80.1369  223.6356 H   0  0  0  0  0  0  0  0  0  0  0  0
  141.2472   80.9612  224.7328 H   0  0  0  0  0  0  0  0  0  0  0  0
  138.9157   78.9215  221.7310 H   0  0  0  0  0  0  0  0  0  0  0  0
  139.2631   69.9378  222.4256 H   0  0  0  0  0  0  0  0  0  0  0  0
  138.8224   68.4782  224.4328 H   0  0  0  0  0  0  0  0  0  0  0  0
  139.0139   68.0898  226.7569 H   0  0  0  0  0  0  0  0  0  0  0  0
  139.7643   68.7521  229.0192 H   0  0  0  0  0  0  0  0  0  0  0  0
  140.9787   70.9259  229.3094 H   0  0  0  0  0  0  0  0  0  0  0  0
  141.4131   72.3667  227.3372 H   0  0  0  0  0  0  0  0  0  0  0  0
  1  2  2  0
  2  3  1  0
  3  4  1  0
  4  5  1  0
  5  6  2  0
  5  7  1  0
  7  8  1  0
  8  9  1  0
  9 10  1  0
 10 11  1  0
 11 12  1  0
 12 13  2  0
 13 14  1  0
 14 15  2  0
 15 16  1  0
 16 17  1  0
 16 18  2  0
  2 19  1  0
 19 20  2  0
 20 21  1  0
 21 22  2  0
 22 23  1  0
 23 24  2  0
 24 25  1  0
 25 26  2  0
 26 27  1  0
 27 28  2  0
 11  7  1  0
 18 12  1  0
 28 19  1  0
 27 22  1  0
  3 29  1  0
  4 30  1  0
  4 31  1  0
  8 32  1  0
  8 33  1  0
  9 34  1  0
  9 35  1  0
 10 36  1  0
 10 37  1  0
 11 38  1  6
 13 39  1  0
 14 40  1  0
 15 41  1  0
 18 42  1  0
 20 43  1  0
 21 44  1  0
 23 45  1  0
 24 46  1  0
 25 47  1  0
 26 48  1  0
M  END
>  <smiles>  (3) 
O=C(NCC(=O)N1CCCC1c1cccc(Cl)c1)c1ccc2ccccc2n1

>  <score_type>  (3) 
oracle

>  <origin>  (3) 
autodockgpu

>  <m_score__min__energy>  (3) 
-9.4700000000000006

>  <m_primary>  (3) 
energy

>  <rmsd>  (3) 
2.1219508464498245

>  <m_score__min__rmsd>  (3) 
2.1219508464498245

>  <meeko>  (3) 
{"free_energy": -9.36, "intermolecular_energy": -10.86, "internal_energy": -1.58, "cluster_size": 31, "cluster_id": 1, "rank_in_cluster": 2}

>  <energy>  (3) 
-9.34

>  <cluster_rmsd>  (3) 
0.3

>  <cluster>  (3) 
1

$$$$

     RDKit          3D

 48 51  0  0  0  0  0  0  0  0999 V2000
  141.4120   71.5990  221.5530 O   0  0  0  0  0  0  0  0  0  0  0  0
  140.6590   72.0160  222.4920 C   0  0  0  0  0  0  0  0  0  0  0  0
  140.1720   73.3460  222.3580 N   0  0  0  0  0  0  0  0  0  0  0  0
  140.5910   74.0710  221.1670 C   0  0  0  0  0  0  0  0  0  0  0  0
  140.5810   75.5190  221.4410 C   0  0  0  0  0  0  0  0  0  0  0  0
  139.9580   75.9370  222.4580 O   0  0  0  0  0  0  0  0  0  0  0  0
  141.2720   76.4010  220.5510 N   0  0  0  0  0  0  0  0  0  0  0  0
  142.5170   76.1080  219.8270 C   0  0  0  0  0  0  0  0  0  0  0  0
  142.3310   76.9910  218.6010 C   0  0  0  0  0  0  0  0  0  0  0  0
  141.8550   78.2650  219.2670 C   0  0  0  0  0  0  0  0  0  0  0  0
  140.8280   77.7250  220.2400 C   0  0  2  0  0  0  0  0  0  0  0  0
  140.7030   78.5890  221.4400 C   0  0  0  0  0  0  0  0  0  0  0  0
  139.4400   78.7420  221.9730 C   0  0  0  0  0  0  0  0  0  0  0  0
  139.2820   79.5450  223.0970 C   0  0  0  0  0  0  0  0  0  0  0  0
  140.3300   80.1920  223.6980 C   0  0  0  0  0  0  0  0  0  0  0  0
  141.5930   80.0360  223.1600 C   0  0  0  0  0  0  0  0  0  0  0  0
  142.9700   80.8250  223.8650 Cl  0  0  0  0  0  0  0  0  0  0  0  0
  141.7690   79.2320  222.0300 C   0  0  0  0  0  0  0  0  0  0  0  0
  140.3180   71.1760  223.6380 C   0  0  0  0  0  0  0  0  0  0  0  0
  139.5870   70.0320  223.3990 C   0  0  0  0  0  0  0  0  0  0  0  0
  139.2720   69.2440  224.5110 C   0  0  0  0  0  0  0  0  0  0  0  0
  139.6790   69.6130  225.7580 C   0  0  0  0  0  0  0  0  0  0  0  0
  139.3740   68.8450  226.8510 C   0  0  0  0  0  0  0  0  0  0  0  0
  139.7700   69.1840  228.1310 C   0  0  0  0  0  0  0  0  0  0  0  0
  140.5070   70.3520  228.3090 C   0  0  0  0  0  0  0  0  0  0  0  0
  140.8250   71.1390  227.2190 C   0  0  0  0  0  0  0  0  0  0  0  0
  140.4120   70.7680  225.9550 C   0  0  0  0  0  0  0  0  0  0  0  0
  140.7110   71.5210  224.8800 N   0  0  0  0  0  0  0  0  0  0  0  0
  139.5480   73.7610  223.0880 H   0  0  0  0  0  0  0  0  0  0  0  0
  141.6078   73.7584  220.8868 H   0  0  0  0  0  0  0  0  0  0  0  0
  139.8976   73.8504  220.3420 H   0  0  0  0  0  0  0  0  0  0  0  0
  143.4043   76.3996  220.4081 H   0  0  0  0  0  0  0  0  0  0  0  0
  142.6828   75.0430  219.6073 H   0  0  0  0  0  0  0  0  0  0  0  0
  143.2762   77.1419  218.0589 H   0  0  0  0  0  0  0  0  0  0  0  0
  141.6525   76.5858  217.8358 H   0  0  0  0  0  0  0  0  0  0  0  0
  142.6759   78.7767  219.7907 H   0  0  0  0  0  0  0  0  0  0  0  0
  141.4617   79.0186  218.5689 H   0  0  0  0  0  0  0  0  0  0  0  0
  139.8154   77.7100  219.8106 H   0  0  0  0  0  0  0  0  0  0  0  0
  138.5745   78.2384  221.5176 H   0  0  0  0  0  0  0  0  0  0  0  0
  138.2744   79.6659  223.5213 H   0  0  0  0  0  0  0  0  0  0  0  0
  140.1696   80.8200  224.5868 H   0  0  0  0  0  0  0  0  0  0  0  0
  142.7761   79.1107  221.6046 H   0  0  0  0  0  0  0  0  0  0  0  0
  139.2673   69.7526  222.3842 H   0  0  0  0  0  0  0  0  0  0  0  0
  138.6913   68.3193  224.3778 H   0  0  0  0  0  0  0  0  0  0  0  0
  138.7917   67.9234  226.7041 H   0  0  0  0  0  0  0  0  0  0  0  0
  139.5092   68.5464  228.9886 H   0  0  0  0  0  0  0  0  0  0  0  0
  140.8356   70.6477  229.3163 H   0  0  0  0  0  0  0  0  0  0  0  0
  141.4075   72.0616  227.3583 H   0  0  0  0  0  0  0  0  0  0  0  0
  1  2  2  0
  2  3  1  0
  3  4  1  0
  4  5  1  0
  5  6  2  0
  5  7  1  0
  7  8  1  0
  8  9  1  0
  9 10  1  0
 10 11  1  0
 11 12  1  0
 12 13  2  0
 13 14  1  0
 14 15  2  0
 15 16  1  0
 16 17  1  0
 16 18  2  0
  2 19  1  0
 19 20  2  0
 20 21  1  0
 21 22  2  0
 22 23  1  0
 23 24  2  0
 24 25  1  0
 25 26  2  0
 26 27  1  0
 27 28  2  0
 11  7  1  0
 18 12  1  0
 28 19  1  0
 27 22  1  0
  3 29  1  0
  4 30  1  0
  4 31  1  0
  8 32  1  0
  8 33  1  0
  9 34  1  0
  9 35  1  0
 10 36  1  0
 10 37  1  0
 11 38  1  6
 13 39  1  0
 14 40  1  0
 15 41  1  0
 18 42  1  0
 20 43  1  0
 21 44  1  0
 23 45  1  0
 24 46  1  0
 25 47  1  0
 26 48  1  0
M  END
>  <smiles>  (4) 
O=C(NCC(=O)N1CCCC1c1cccc(Cl)c1)c1ccc2ccccc2n1

>  <score_type>  (4) 
oracle

>  <origin>  (4) 
autodockgpu

>  <m_score__min__energy>  (4) 
-9.4700000000000006

>  <m_primary>  (4) 
energy

>  <rmsd>  (4) 
2.1214169729840116

>  <m_score__min__rmsd>  (4) 
2.1214169729840116

>  <meeko>  (4) 
{"free_energy": -9.2, "intermolecular_energy": -10.69, "internal_energy": -1.68, "cluster_size": 31, "cluster_id": 1, "rank_in_cluster": 22}

>  <energy>  (4) 
-9.34

>  <cluster_rmsd>  (4) 
0.24

>  <cluster>  (4) 
1

$$$$

     RDKit          3D

 48 51  0  0  0  0  0  0  0  0999 V2000
  141.2940   71.7580  221.5070 O   0  0  0  0  0  0  0  0  0  0  0  0
  140.5830   72.1890  222.4720 C   0  0  0  0  0  0  0  0  0  0  0  0
  140.0990   73.5210  222.3440 N   0  0  0  0  0  0  0  0  0  0  0  0
  140.4720   74.2310  221.1280 C   0  0  0  0  0  0  0  0  0  0  0  0
  140.5610   75.6750  221.4080 C   0  0  0  0  0  0  0  0  0  0  0  0
  139.9840   76.1280  222.4370 O   0  0  0  0  0  0  0  0  0  0  0  0
  141.2950   76.5140  220.5100 N   0  0  0  0  0  0  0  0  0  0  0  0
  142.4650   76.1230  219.7120 C   0  0  0  0  0  0  0  0  0  0  0  0
  142.3100   77.0630  218.5250 C   0  0  0  0  0  0  0  0  0  0  0  0
  142.0010   78.3540  219.2530 C   0  0  0  0  0  0  0  0  0  0  0  0
  140.9730   77.8850  220.2620 C   0  0  2  0  0  0  0  0  0  0  0  0
  140.9950   78.7150  221.4920 C   0  0  0  0  0  0  0  0  0  0  0  0
  142.2320   79.0280  222.0160 C   0  0  0  0  0  0  0  0  0  0  0  0
  142.2940   79.8040  223.1680 C   0  0  0  0  0  0  0  0  0  0  0  0
  141.1740   80.2710  223.8060 C   0  0  0  0  0  0  0  0  0  0  0  0
  139.9380   79.9550  223.2780 C   0  0  0  0  0  0  0  0  0  0  0  0
  138.4750   80.5110  224.0310 Cl  0  0  0  0  0  0  0  0  0  0  0  0
  139.8580   79.1760  222.1200 C   0  0  0  0  0  0  0  0  0  0  0  0
  140.2850   71.3640  223.6390 C   0  0  0  0  0  0  0  0  0  0  0  0
  139.5870   70.1920  223.4350 C   0  0  0  0  0  0  0  0  0  0  0  0
  139.3130   69.4180  224.5670 C   0  0  0  0  0  0  0  0  0  0  0  0
  139.7260   69.8260  225.8010 C   0  0  0  0  0  0  0  0  0  0  0  0
  139.4600   69.0730  226.9140 C   0  0  0  0  0  0  0  0  0  0  0  0
  139.8630   69.4510  228.1810 C   0  0  0  0  0  0  0  0  0  0  0  0
  140.5650   70.6460  228.3240 C   0  0  0  0  0  0  0  0  0  0  0  0
  140.8420   71.4190  227.2130 C   0  0  0  0  0  0  0  0  0  0  0  0
  140.4240   71.0090  225.9630 C   0  0  0  0  0  0  0  0  0  0  0  0
  140.6830   71.7470  224.8680 N   0  0  0  0  0  0  0  0  0  0  0  0
  139.5080   73.9470  223.0940 H   0  0  0  0  0  0  0  0  0  0  0  0
  141.4476   73.8655  220.7750 H   0  0  0  0  0  0  0  0  0  0  0  0
  139.7112   74.0547  220.3533 H   0  0  0  0  0  0  0  0  0  0  0  0
  143.4055   76.3026  220.2534 H   0  0  0  0  0  0  0  0  0  0  0  0
  142.5090   75.0552  219.4515 H   0  0  0  0  0  0  0  0  0  0  0  0
  143.2376   77.1367  217.9384 H   0  0  0  0  0  0  0  0  0  0  0  0
  141.5563   76.7557  217.7851 H   0  0  0  0  0  0  0  0  0  0  0  0
  142.8949   78.7613  219.7481 H   0  0  0  0  0  0  0  0  0  0  0  0
  141.6535   79.1681  218.6000 H   0  0  0  0  0  0  0  0  0  0  0  0
  139.9444   77.9856  219.8855 H   0  0  0  0  0  0  0  0  0  0  0  0
  143.1524   78.6703  221.5314 H   0  0  0  0  0  0  0  0  0  0  0  0
  143.2813   80.0532  223.5842 H   0  0  0  0  0  0  0  0  0  0  0  0
  141.2580   80.8826  224.7164 H   0  0  0  0  0  0  0  0  0  0  0  0
  138.8711   78.9268  221.7030 H   0  0  0  0  0  0  0  0  0  0  0  0
  139.2618   69.8814  222.4311 H   0  0  0  0  0  0  0  0  0  0  0  0
  138.7602   68.4729  224.4613 H   0  0  0  0  0  0  0  0  0  0  0  0
  138.9043   68.1312  226.7949 H   0  0  0  0  0  0  0  0  0  0  0  0
  139.6350   68.8235  229.0552 H   0  0  0  0  0  0  0  0  0  0  0  0
  140.8981   70.9734  229.3199 H   0  0  0  0  0  0  0  0  0  0  0  0
  141.3964   72.3625  227.3247 H   0  0  0  0  0  0  0  0  0  0  0  0
  1  2  2  0
  2  3  1  0
  3  4  1  0
  4  5  1  0
  5  6  2  0
  5  7  1  0
  7  8  1  0
  8  9  1  0
  9 10  1  0
 10 11  1  0
 11 12  1  0
 12 13  2  0
 13 14  1  0
 14 15  2  0
 15 16  1  0
 16 17  1  0
 16 18  2  0
  2 19  1  0
 19 20  2  0
 20 21  1  0
 21 22  2  0
 22 23  1  0
 23 24  2  0
 24 25  1  0
 25 26  2  0
 26 27  1  0
 27 28  2  0
 11  7  1  0
 18 12  1  0
 28 19  1  0
 27 22  1  0
  3 29  1  0
  4 30  1  0
  4 31  1  0
  8 32  1  0
  8 33  1  0
  9 34  1  0
  9 35  1  0
 10 36  1  0
 10 37  1  0
 11 38  1  6
 13 39  1  0
 14 40  1  0
 15 41  1  0
 18 42  1  0
 20 43  1  0
 21 44  1  0
 23 45  1  0
 24 46  1  0
 25 47  1  0
 26 48  1  0
M  END
>  <smiles>  (5) 
O=C(NCC(=O)N1CCCC1c1cccc(Cl)c1)c1ccc2ccccc2n1

>  <score_type>  (5) 
oracle

>  <origin>  (5) 
autodockgpu

>  <m_score__min__energy>  (5) 
-9.4700000000000006

>  <m_primary>  (5) 
energy

>  <rmsd>  (5) 
2.11908071501348

>  <m_score__min__rmsd>  (5) 
2.11908071501348

>  <meeko>  (5) 
{"free_energy": -9.25, "intermolecular_energy": -10.74, "internal_energy": -1.69, "cluster_size": 31, "cluster_id": 1, "rank_in_cluster": 18}

>  <energy>  (5) 
-9.33

>  <cluster_rmsd>  (5) 
0.22

>  <cluster>  (5) 
1

$$$$

     RDKit          3D

 48 51  0  0  0  0  0  0  0  0999 V2000
  141.2470   71.8480  221.5260 O   0  0  0  0  0  0  0  0  0  0  0  0
  140.5080   72.2430  222.4860 C   0  0  0  0  0  0  0  0  0  0  0  0
  139.9550   73.5470  222.3510 N   0  0  0  0  0  0  0  0  0  0  0  0
  140.2970   74.2730  221.1360 C   0  0  0  0  0  0  0  0  0  0  0  0
  140.4830   75.7000  221.4490 C   0  0  0  0  0  0  0  0  0  0  0  0
  139.9270   76.1700  222.4830 O   0  0  0  0  0  0  0  0  0  0  0  0
  141.2830   76.5060  220.5770 N   0  0  0  0  0  0  0  0  0  0  0  0
  142.4720   76.0680  219.8340 C   0  0  0  0  0  0  0  0  0  0  0  0
  142.4010   77.0020  218.6340 C   0  0  0  0  0  0  0  0  0  0  0  0
  142.1050   78.3090  219.3380 C   0  0  0  0  0  0  0  0  0  0  0  0
  141.0190   77.8850  220.3060 C   0  0  2  0  0  0  0  0  0  0  0  0
  141.0170   78.7250  221.5280 C   0  0  0  0  0  0  0  0  0  0  0  0
  142.2430   79.0470  222.0710 C   0  0  0  0  0  0  0  0  0  0  0  0
  142.2820   79.8330  223.2170 C   0  0  0  0  0  0  0  0  0  0  0  0
  141.1490   80.3000  223.8320 C   0  0  0  0  0  0  0  0  0  0  0  0
  139.9230   79.9750  223.2860 C   0  0  0  0  0  0  0  0  0  0  0  0
  138.4450   80.5300  224.0090 Cl  0  0  0  0  0  0  0  0  0  0  0  0
  139.8670   79.1860  222.1330 C   0  0  0  0  0  0  0  0  0  0  0  0
  140.2480   71.4070  223.6550 C   0  0  0  0  0  0  0  0  0  0  0  0
  139.5730   70.2200  223.4560 C   0  0  0  0  0  0  0  0  0  0  0  0
  139.3340   69.4360  224.5900 C   0  0  0  0  0  0  0  0  0  0  0  0
  139.7590   69.8480  225.8180 C   0  0  0  0  0  0  0  0  0  0  0  0
  139.5290   69.0840  226.9320 C   0  0  0  0  0  0  0  0  0  0  0  0
  139.9440   69.4660  228.1930 C   0  0  0  0  0  0  0  0  0  0  0  0
  140.6220   70.6750  228.3300 C   0  0  0  0  0  0  0  0  0  0  0  0
  140.8630   71.4580  227.2180 C   0  0  0  0  0  0  0  0  0  0  0  0
  140.4330   71.0440  225.9740 C   0  0  0  0  0  0  0  0  0  0  0  0
  140.6580   71.7930  224.8780 N   0  0  0  0  0  0  0  0  0  0  0  0
  139.3380   73.9440  223.0970 H   0  0  0  0  0  0  0  0  0  0  0  0
  141.2286   73.8658  220.7162 H   0  0  0  0  0  0  0  0  0  0  0  0
  139.4839   74.1627  220.4034 H   0  0  0  0  0  0  0  0  0  0  0  0
  143.3938   76.2203  220.4145 H   0  0  0  0  0  0  0  0  0  0  0  0
  142.4904   74.9970  219.5839 H   0  0  0  0  0  0  0  0  0  0  0  0
  143.3552   77.0390  218.0880 H   0  0  0  0  0  0  0  0  0  0  0  0
  141.6702   76.7137  217.8641 H   0  0  0  0  0  0  0  0  0  0  0  0
  142.9903   78.6906  219.8678 H   0  0  0  0  0  0  0  0  0  0  0  0
  141.8133   79.1279  218.6640 H   0  0  0  0  0  0  0  0  0  0  0  0
  140.0109   78.0173  219.8862 H   0  0  0  0  0  0  0  0  0  0  0  0
  143.1731   78.6885  221.6059 H   0  0  0  0  0  0  0  0  0  0  0  0
  143.2609   80.0906  223.6476 H   0  0  0  0  0  0  0  0  0  0  0  0
  141.2151   80.9190  224.7389 H   0  0  0  0  0  0  0  0  0  0  0  0
  138.8886   78.9286  221.7011 H   0  0  0  0  0  0  0  0  0  0  0  0
  139.2395   69.9059  222.4559 H   0  0  0  0  0  0  0  0  0  0  0  0
  138.7991   68.4800  224.4899 H   0  0  0  0  0  0  0  0  0  0  0  0
  138.9934   68.1300  226.8178 H   0  0  0  0  0  0  0  0  0  0  0  0
  139.7438   68.8305  229.0682 H   0  0  0  0  0  0  0  0  0  0  0  0
  140.9647   71.0055  229.3216 H   0  0  0  0  0  0  0  0  0  0  0  0
  141.3985   72.4130  227.3243 H   0  0  0  0  0  0  0  0  0  0  0  0
  1  2  2  0
  2  3  1  0
  3  4  1  0
  4  5  1  0
  5  6  2  0
  5  7  1  0
  7  8  1  0
  8  9  1  0
  9 10  1  0
 10 11  1  0
 11 12  1  0
 12 13  2  0
 13 14  1  0
 14 15  2  0
 15 16  1  0
 16 17  1  0
 16 18  2  0
  2 19  1  0
 19 20  2  0
 20 21  1  0
 21 22  2  0
 22 23  1  0
 23 24  2  0
 24 25  1  0
 25 26  2  0
 26 27  1  0
 27 28  2  0
 11  7  1  0
 18 12  1  0
 28 19  1  0
 27 22  1  0
  3 29  1  0
  4 30  1  0
  4 31  1  0
  8 32  1  0
  8 33  1  0
  9 34  1  0
  9 35  1  0
 10 36  1  0
 10 37  1  0
 11 38  1  6
 13 39  1  0
 14 40  1  0
 15 41  1  0
 18 42  1  0
 20 43  1  0
 21 44  1  0
 23 45  1  0
 24 46  1  0
 25 47  1  0
 26 48  1  0
M  END
>  <smiles>  (6) 
O=C(NCC(=O)N1CCCC1c1cccc(Cl)c1)c1ccc2ccccc2n1

>  <score_type>  (6) 
oracle

>  <origin>  (6) 
autodockgpu

>  <m_score__min__energy>  (6) 
-9.4700000000000006

>  <m_primary>  (6) 
energy

>  <rmsd>  (6) 
2.1141998612734434

>  <m_score__min__rmsd>  (6) 
2.1141998612734434

>  <meeko>  (6) 
{"free_energy": -9.33, "intermolecular_energy": -10.82, "internal_energy": -1.64, "cluster_size": 31, "cluster_id": 1, "rank_in_cluster": 9}

>  <energy>  (6) 
-9.33

>  <cluster_rmsd>  (6) 
0.96

>  <cluster>  (6) 
1

$$$$

     RDKit          3D

 48 51  0  0  0  0  0  0  0  0999 V2000
  141.2490   71.8540  221.5290 O   0  0  0  0  0  0  0  0  0  0  0  0
  140.5090   72.2570  222.4850 C   0  0  0  0  0  0  0  0  0  0  0  0
  139.9550   73.5600  222.3390 N   0  0  0  0  0  0  0  0  0  0  0  0
  140.2970   74.2750  221.1180 C   0  0  0  0  0  0  0  0  0  0  0  0
  140.4470   75.7100  221.4130 C   0  0  0  0  0  0  0  0  0  0  0  0
  139.8580   76.1850  222.4250 O   0  0  0  0  0  0  0  0  0  0  0  0
  141.2520   76.5180  220.5470 N   0  0  0  0  0  0  0  0  0  0  0  0
  142.4460   76.0830  219.8100 C   0  0  0  0  0  0  0  0  0  0  0  0
  142.3810   77.0190  218.6120 C   0  0  0  0  0  0  0  0  0  0  0  0
  142.0800   78.3240  219.3170 C   0  0  0  0  0  0  0  0  0  0  0  0
  140.9890   77.8980  220.2770 C   0  0  2  0  0  0  0  0  0  0  0  0
  140.9790   78.7350  221.5020 C   0  0  0  0  0  0  0  0  0  0  0  0
  142.2020   79.0600  222.0490 C   0  0  0  0  0  0  0  0  0  0  0  0
  142.2340   79.8440  223.1980 C   0  0  0  0  0  0  0  0  0  0  0  0
  141.0980   80.3060  223.8100 C   0  0  0  0  0  0  0  0  0  0  0  0
  139.8750   79.9780  223.2580 C   0  0  0  0  0  0  0  0  0  0  0  0
  138.3930   80.5270  223.9760 Cl  0  0  0  0  0  0  0  0  0  0  0  0
  139.8260   79.1910  222.1030 C   0  0  0  0  0  0  0  0  0  0  0  0
  140.2490   71.4300  223.6610 C   0  0  0  0  0  0  0  0  0  0  0  0
  139.5360   70.2640  223.4790 C   0  0  0  0  0  0  0  0  0  0  0  0
  139.2990   69.4890  224.6190 C   0  0  0  0  0  0  0  0  0  0  0  0
  139.7610   69.8890  225.8370 C   0  0  0  0  0  0  0  0  0  0  0  0
  139.5320   69.1340  226.9570 C   0  0  0  0  0  0  0  0  0  0  0  0
  139.9840   69.5060  228.2090 C   0  0  0  0  0  0  0  0  0  0  0  0
  140.7000   70.6940  228.3290 C   0  0  0  0  0  0  0  0  0  0  0  0
  140.9410   71.4690  227.2100 C   0  0  0  0  0  0  0  0  0  0  0  0
  140.4730   71.0660  225.9770 C   0  0  0  0  0  0  0  0  0  0  0  0
  140.6960   71.8060  224.8750 N   0  0  0  0  0  0  0  0  0  0  0  0
  139.3380   73.9620  223.0820 H   0  0  0  0  0  0  0  0  0  0  0  0
  141.2430   73.8827  220.7165 H   0  0  0  0  0  0  0  0  0  0  0  0
  139.4969   74.1357  220.3761 H   0  0  0  0  0  0  0  0  0  0  0  0
  143.3642   76.2352  220.3962 H   0  0  0  0  0  0  0  0  0  0  0  0
  142.4672   75.0125  219.5577 H   0  0  0  0  0  0  0  0  0  0  0  0
  143.3382   77.0579  218.0715 H   0  0  0  0  0  0  0  0  0  0  0  0
  141.6548   76.7317  217.8373 H   0  0  0  0  0  0  0  0  0  0  0  0
  142.9619   78.7048  219.8530 H   0  0  0  0  0  0  0  0  0  0  0  0
  141.7919   79.1441  218.6429 H   0  0  0  0  0  0  0  0  0  0  0  0
  139.9837   78.0315  219.8508 H   0  0  0  0  0  0  0  0  0  0  0  0
  143.1349   78.7062  221.5858 H   0  0  0  0  0  0  0  0  0  0  0  0
  143.2105   80.1035  223.6328 H   0  0  0  0  0  0  0  0  0  0  0  0
  141.1587   80.9230  224.7186 H   0  0  0  0  0  0  0  0  0  0  0  0
  138.8501   78.9315  221.6668 H   0  0  0  0  0  0  0  0  0  0  0  0
  139.1718   69.9586  222.4870 H   0  0  0  0  0  0  0  0  0  0  0  0
  138.7349   68.5487  224.5316 H   0  0  0  0  0  0  0  0  0  0  0  0
  138.9667   68.1958  226.8559 H   0  0  0  0  0  0  0  0  0  0  0  0
  139.7828   68.8784  229.0897 H   0  0  0  0  0  0  0  0  0  0  0  0
  141.0733   71.0154  229.3126 H   0  0  0  0  0  0  0  0  0  0  0  0
  141.5065   72.4079  227.3032 H   0  0  0  0  0  0  0  0  0  0  0  0
  1  2  2  0
  2  3  1  0
  3  4  1  0
  4  5  1  0
  5  6  2  0
  5  7  1  0
  7  8  1  0
  8  9  1  0
  9 10  1  0
 10 11  1  0
 11 12  1  0
 12 13  2  0
 13 14  1  0
 14 15  2  0
 15 16  1  0
 16 17  1  0
 16 18  2  0
  2 19  1  0
 19 20  2  0
 20 21  1  0
 21 22  2  0
 22 23  1  0
 23 24  2  0
 24 25  1  0
 25 26  2  0
 26 27  1  0
 27 28  2  0
 11  7  1  0
 18 12  1  0
 28 19  1  0
 27 22  1  0
  3 29  1  0
  4 30  1  0
  4 31  1  0
  8 32  1  0
  8 33  1  0
  9 34  1  0
  9 35  1  0
 10 36  1  0
 10 37  1  0
 11 38  1  6
 13 39  1  0
 14 40  1  0
 15 41  1  0
 18 42  1  0
 20 43  1  0
 21 44  1  0
 23 45  1  0
 24 46  1  0
 25 47  1  0
 26 48  1  0
M  END
>  <smiles>  (7) 
O=C(NCC(=O)N1CCCC1c1cccc(Cl)c1)c1ccc2ccccc2n1

>  <score_type>  (7) 
oracle

>  <origin>  (7) 
autodockgpu

>  <m_score__min__energy>  (7) 
-9.4700000000000006

>  <m_primary>  (7) 
energy

>  <rmsd>  (7) 
2.114297637300997

>  <m_score__min__rmsd>  (7) 
2.114297637300997

>  <meeko>  (7) 
{"free_energy": -9.31, "intermolecular_energy": -10.81, "internal_energy": -1.63, "cluster_size": 31, "cluster_id": 1, "rank_in_cluster": 10}

>  <energy>  (7) 
-9.33

>  <cluster_rmsd>  (7) 
0.26

>  <cluster>  (7) 
1

$$$$

     RDKit          3D

 48 51  0  0  0  0  0  0  0  0999 V2000
  141.3290   71.8040  221.5100 O   0  0  0  0  0  0  0  0  0  0  0  0
  140.6090   72.2230  222.4750 C   0  0  0  0  0  0  0  0  0  0  0  0
  140.1040   73.5470  222.3480 N   0  0  0  0  0  0  0  0  0  0  0  0
  140.4680   74.2650  221.1340 C   0  0  0  0  0  0  0  0  0  0  0  0
  140.5780   75.7040  221.4270 C   0  0  0  0  0  0  0  0  0  0  0  0
  140.0090   76.1570  222.4600 O   0  0  0  0  0  0  0  0  0  0  0  0
  141.3220   76.5410  220.5350 N   0  0  0  0  0  0  0  0  0  0  0  0
  142.4930   76.1440  219.7400 C   0  0  0  0  0  0  0  0  0  0  0  0
  142.3510   77.0890  218.5560 C   0  0  0  0  0  0  0  0  0  0  0  0
  142.0490   78.3800  219.2880 C   0  0  0  0  0  0  0  0  0  0  0  0
  141.0130   77.9160  220.2910 C   0  0  2  0  0  0  0  0  0  0  0  0
  141.0370   78.7410  221.5240 C   0  0  0  0  0  0  0  0  0  0  0  0
  142.2740   79.0510  222.0480 C   0  0  0  0  0  0  0  0  0  0  0  0
  142.3380   79.8220  223.2030 C   0  0  0  0  0  0  0  0  0  0  0  0
  141.2200   80.2870  223.8440 C   0  0  0  0  0  0  0  0  0  0  0  0
  139.9820   79.9740  223.3160 C   0  0  0  0  0  0  0  0  0  0  0  0
  138.5200   80.5280  224.0730 Cl  0  0  0  0  0  0  0  0  0  0  0  0
  139.9010   79.2000  222.1550 C   0  0  0  0  0  0  0  0  0  0  0  0
  140.3230   71.3910  223.6400 C   0  0  0  0  0  0  0  0  0  0  0  0
  139.6550   70.2020  223.4320 C   0  0  0  0  0  0  0  0  0  0  0  0
  139.3910   69.4230  224.5630 C   0  0  0  0  0  0  0  0  0  0  0  0
  139.7850   69.8420  225.7990 C   0  0  0  0  0  0  0  0  0  0  0  0
  139.5300   69.0830  226.9110 C   0  0  0  0  0  0  0  0  0  0  0  0
  139.9140   69.4710  228.1800 C   0  0  0  0  0  0  0  0  0  0  0  0
  140.5850   70.6830  228.3270 C   0  0  0  0  0  0  0  0  0  0  0  0
  140.8520   71.4610  227.2180 C   0  0  0  0  0  0  0  0  0  0  0  0
  140.4530   71.0410  225.9660 C   0  0  0  0  0  0  0  0  0  0  0  0
  140.7030   71.7840  224.8720 N   0  0  0  0  0  0  0  0  0  0  0  0
  139.5060   73.9630  223.0980 H   0  0  0  0  0  0  0  0  0  0  0  0
  141.4341   73.8917  220.7633 H   0  0  0  0  0  0  0  0  0  0  0  0
  139.6942   74.1055  220.3686 H   0  0  0  0  0  0  0  0  0  0  0  0
  143.4325   76.3143  220.2863 H   0  0  0  0  0  0  0  0  0  0  0  0
  142.5296   75.0769  219.4755 H   0  0  0  0  0  0  0  0  0  0  0  0
  143.2818   77.1574  217.9738 H   0  0  0  0  0  0  0  0  0  0  0  0
  141.5984   76.7905  217.8114 H   0  0  0  0  0  0  0  0  0  0  0  0
  142.9440   78.7783  219.7883 H   0  0  0  0  0  0  0  0  0  0  0  0
  141.7106   79.1991  218.6365 H   0  0  0  0  0  0  0  0  0  0  0  0
  139.9868   78.0269  219.9107 H   0  0  0  0  0  0  0  0  0  0  0  0
  143.1937   78.6947  221.5610 H   0  0  0  0  0  0  0  0  0  0  0  0
  143.3260   80.0686  223.6190 H   0  0  0  0  0  0  0  0  0  0  0  0
  141.3058   80.8948  224.7568 H   0  0  0  0  0  0  0  0  0  0  0  0
  138.9136   78.9530  221.7378 H   0  0  0  0  0  0  0  0  0  0  0  0
  139.3453   69.8824  222.4261 H   0  0  0  0  0  0  0  0  0  0  0  0
  138.8615   68.4650  224.4545 H   0  0  0  0  0  0  0  0  0  0  0  0
  138.9988   68.1276  226.7884 H   0  0  0  0  0  0  0  0  0  0  0  0
  139.6953   68.8385  229.0530 H   0  0  0  0  0  0  0  0  0  0  0  0
  140.9017   71.0197  229.3252 H   0  0  0  0  0  0  0  0  0  0  0  0
  141.3836   72.4171  227.3330 H   0  0  0  0  0  0  0  0  0  0  0  0
  1  2  2  0
  2  3  1  0
  3  4  1  0
  4  5  1  0
  5  6  2  0
  5  7  1  0
  7  8  1  0
  8  9  1  0
  9 10  1  0
 10 11  1  0
 11 12  1  0
 12 13  2  0
 13 14  1  0
 14 15  2  0
 15 16  1  0
 16 17  1  0
 16 18  2  0
  2 19  1  0
 19 20  2  0
 20 21  1  0
 21 22  2  0
 22 23  1  0
 23 24  2  0
 24 25  1  0
 25 26  2  0
 26 27  1  0
 27 28  2  0
 11  7  1  0
 18 12  1  0
 28 19  1  0
 27 22  1  0
  3 29  1  0
  4 30  1  0
  4 31  1  0
  8 32  1  0
  8 33  1  0
  9 34  1  0
  9 35  1  0
 10 36  1  0
 10 37  1  0
 11 38  1  6
 13 39  1  0
 14 40  1  0
 15 41  1  0
 18 42  1  0
 20 43  1  0
 21 44  1  0
 23 45  1  0
 24 46  1  0
 25 47  1  0
 26 48  1  0
M  END
>  <smiles>  (8) 
O=C(NCC(=O)N1CCCC1c1cccc(Cl)c1)c1ccc2ccccc2n1

>  <score_type>  (8) 
oracle

>  <origin>  (8) 
autodockgpu

>  <m_score__min__energy>  (8) 
-9.4700000000000006

>  <m_primary>  (8) 
energy

>  <rmsd>  (8) 
2.1432525488555387

>  <m_score__min__rmsd>  (8) 
2.1432525488555387

>  <meeko>  (8) 
{"free_energy": -9.27, "intermolecular_energy": -10.76, "internal_energy": -1.68, "cluster_size": 31, "cluster_id": 1, "rank_in_cluster": 16}

>  <energy>  (8) 
-9.33

>  <cluster_rmsd>  (8) 
0.26

>  <cluster>  (8) 
1

$$$$

     RDKit          3D

 48 51  0  0  0  0  0  0  0  0999 V2000
  140.8220   71.8010  221.2810 O   0  0  0  0  0  0  0  0  0  0  0  0
  140.2480   72.2280  222.3350 C   0  0  0  0  0  0  0  0  0  0  0  0
  139.6920   73.5360  222.2570 N   0  0  0  0  0  0  0  0  0  0  0  0
  139.8450   74.2290  220.9850 C   0  0  0  0  0  0  0  0  0  0  0  0
  140.9470   75.2010  221.0830 C   0  0  0  0  0  0  0  0  0  0  0  0
  141.3070   75.5950  222.2290 O   0  0  0  0  0  0  0  0  0  0  0  0
  141.5740   75.6670  219.8830 N   0  0  0  0  0  0  0  0  0  0  0  0
  140.8950   76.0300  218.6320 C   0  0  0  0  0  0  0  0  0  0  0  0
  141.8650   77.0710  218.0900 C   0  0  0  0  0  0  0  0  0  0  0  0
  143.1760   76.3530  218.3270 C   0  0  0  0  0  0  0  0  0  0  0  0
  142.9850   75.8460  219.7410 C   0  0  2  0  0  0  0  0  0  0  0  0
  143.7540   74.6010  219.9850 C   0  0  0  0  0  0  0  0  0  0  0  0
  145.0330   74.7390  220.4810 C   0  0  0  0  0  0  0  0  0  0  0  0
  145.7840   73.5950  220.7230 C   0  0  0  0  0  0  0  0  0  0  0  0
  145.3060   72.3320  220.4860 C   0  0  0  0  0  0  0  0  0  0  0  0
  144.0240   72.1980  219.9890 C   0  0  0  0  0  0  0  0  0  0  0  0
  143.3500   70.6310  219.6650 Cl  0  0  0  0  0  0  0  0  0  0  0  0
  143.2550   73.3390  219.7410 C   0  0  0  0  0  0  0  0  0  0  0  0
  140.1670   71.4210  223.5490 C   0  0  0  0  0  0  0  0  0  0  0  0
  139.5920   70.1710  223.4520 C   0  0  0  0  0  0  0  0  0  0  0  0
  139.5260   69.4170  224.6280 C   0  0  0  0  0  0  0  0  0  0  0  0
  140.0120   69.9170  225.7990 C   0  0  0  0  0  0  0  0  0  0  0  0
  139.9500   69.1840  226.9550 C   0  0  0  0  0  0  0  0  0  0  0  0
  140.4330   69.6540  228.1610 C   0  0  0  0  0  0  0  0  0  0  0  0
  141.0030   70.9250  228.1960 C   0  0  0  0  0  0  0  0  0  0  0  0
  141.0750   71.6790  227.0410 C   0  0  0  0  0  0  0  0  0  0  0  0
  140.5820   71.1760  225.8550 C   0  0  0  0  0  0  0  0  0  0  0  0
  140.6410   71.8940  224.7180 N   0  0  0  0  0  0  0  0  0  0  0  0
  139.2050   73.9570  223.0810 H   0  0  0  0  0  0  0  0  0  0  0  0
  140.0704   73.4981  220.1944 H   0  0  0  0  0  0  0  0  0  0  0  0
  138.9115   74.7575  220.7416 H   0  0  0  0  0  0  0  0  0  0  0  0
  140.8017   75.1685  217.9544 H   0  0  0  0  0  0  0  0  0  0  0  0
  139.8606   76.3834  218.7547 H   0  0  0  0  0  0  0  0  0  0  0  0
  141.6956   77.2704  217.0216 H   0  0  0  0  0  0  0  0  0  0  0  0
  141.7886   78.0643  218.5564 H   0  0  0  0  0  0  0  0  0  0  0  0
  143.3152   75.5241  217.6173 H   0  0  0  0  0  0  0  0  0  0  0  0
  144.0665   76.9844  218.1912 H   0  0  0  0  0  0  0  0  0  0  0  0
  143.3692   76.5519  220.4921 H   0  0  0  0  0  0  0  0  0  0  0  0
  145.4514   75.7364  220.6815 H   0  0  0  0  0  0  0  0  0  0  0  0
  146.8033   73.7074  221.1209 H   0  0  0  0  0  0  0  0  0  0  0  0
  145.9280   71.4472  220.6866 H   0  0  0  0  0  0  0  0  0  0  0  0
  142.2349   73.2281  219.3446 H   0  0  0  0  0  0  0  0  0  0  0  0
  139.2046   69.7863  222.4971 H   0  0  0  0  0  0  0  0  0  0  0  0
  139.0783   68.4124  224.6077 H   0  0  0  0  0  0  0  0  0  0  0  0
  139.4978   68.1818  226.9215 H   0  0  0  0  0  0  0  0  0  0  0  0
  140.3692   69.0399  229.0714 H   0  0  0  0  0  0  0  0  0  0  0  0
  141.3950   71.3272  229.1418 H   0  0  0  0  0  0  0  0  0  0  0  0
  141.5261   72.6819  227.0670 H   0  0  0  0  0  0  0  0  0  0  0  0
  1  2  2  0
  2  3  1  0
  3  4  1  0
  4  5  1  0
  5  6  2  0
  5  7  1  0
  7  8  1  0
  8  9  1  0
  9 10  1  0
 10 11  1  0
 11 12  1  0
 12 13  2  0
 13 14  1  0
 14 15  2  0
 15 16  1  0
 16 17  1  0
 16 18  2  0
  2 19  1  0
 19 20  2  0
 20 21  1  0
 21 22  2  0
 22 23  1  0
 23 24  2  0
 24 25  1  0
 25 26  2  0
 26 27  1  0
 27 28  2  0
 11  7  1  0
 18 12  1  0
 28 19  1  0
 27 22  1  0
  3 29  1  0
  4 30  1  0
  4 31  1  0
  8 32  1  0
  8 33  1  0
  9 34  1  0
  9 35  1  0
 10 36  1  0
 10 37  1  0
 11 38  1  1
 13 39  1  0
 14 40  1  0
 15 41  1  0
 18 42  1  0
 20 43  1  0
 21 44  1  0
 23 45  1  0
 24 46  1  0
 25 47  1  0
 26 48  1  0
M  END
>  <smiles>  (9) 
O=C(NCC(=O)N1CCCC1c1cccc(Cl)c1)c1ccc2ccccc2n1

>  <score_type>  (9) 
oracle

>  <origin>  (9) 
autodockgpu

>  <m_score__min__energy>  (9) 
-9.4700000000000006

>  <m_primary>  (9) 
energy

>  <rmsd>  (9) 
1.7875119648925275

>  <m_score__min__rmsd>  (9) 
1.7875119648925275

>  <meeko>  (9) 
{"free_energy": -8.66, "intermolecular_energy": -10.15, "internal_energy": -1.85, "cluster_size": 17, "cluster_id": 2, "rank_in_cluster": 10}

>  <energy>  (9) 
-9.33

>  <cluster_rmsd>  (9) 
0.25

>  <cluster>  (9) 
1

$$$$

     RDKit          3D

 48 51  0  0  0  0  0  0  0  0999 V2000
  140.6350   70.9920  221.6140 O   0  0  0  0  0  0  0  0  0  0  0  0
  140.3940   71.6850  222.6560 C   0  0  0  0  0  0  0  0  0  0  0  0
  140.1150   73.0630  222.4380 N   0  0  0  0  0  0  0  0  0  0  0  0
  140.1360   73.5170  221.0550 C   0  0  0  0  0  0  0  0  0  0  0  0
  140.5950   74.9150  221.0020 C   0  0  0  0  0  0  0  0  0  0  0  0
  140.4520   75.6380  222.0280 O   0  0  0  0  0  0  0  0  0  0  0  0
  141.1860   75.4090  219.7950 N   0  0  0  0  0  0  0  0  0  0  0  0
  140.4950   75.6420  218.5190 C   0  0  0  0  0  0  0  0  0  0  0  0
  141.3450   76.7710  217.9530 C   0  0  0  0  0  0  0  0  0  0  0  0
  142.7280   76.2250  218.2390 C   0  0  0  0  0  0  0  0  0  0  0  0
  142.5690   75.7500  219.6690 C   0  0  2  0  0  0  0  0  0  0  0  0
  143.4750   74.6160  219.9730 C   0  0  0  0  0  0  0  0  0  0  0  0
  144.7400   74.9260  220.4270 C   0  0  0  0  0  0  0  0  0  0  0  0
  145.6180   73.8900  220.7230 C   0  0  0  0  0  0  0  0  0  0  0  0
  145.2780   72.5700  220.5810 C   0  0  0  0  0  0  0  0  0  0  0  0
  144.0110   72.2630  220.1260 C   0  0  0  0  0  0  0  0  0  0  0  0
  143.5080   70.6130  219.9210 Cl  0  0  0  0  0  0  0  0  0  0  0  0
  143.1160   73.2930  219.8240 C   0  0  0  0  0  0  0  0  0  0  0  0
  140.4070   71.0970  223.9930 C   0  0  0  0  0  0  0  0  0  0  0  0
  140.8530   71.8830  225.0350 C   0  0  0  0  0  0  0  0  0  0  0  0
  140.8570   71.2990  226.3060 C   0  0  0  0  0  0  0  0  0  0  0  0
  140.4360   70.0140  226.4780 C   0  0  0  0  0  0  0  0  0  0  0  0
  140.4360   69.4350  227.7200 C   0  0  0  0  0  0  0  0  0  0  0  0
  140.0170   68.1370  227.9350 C   0  0  0  0  0  0  0  0  0  0  0  0
  139.5770   67.3930  226.8430 C   0  0  0  0  0  0  0  0  0  0  0  0
  139.5680   67.9590  225.5830 C   0  0  0  0  0  0  0  0  0  0  0  0
  139.9950   69.2590  225.4060 C   0  0  0  0  0  0  0  0  0  0  0  0
  139.9950   69.8290  224.1870 N   0  0  0  0  0  0  0  0  0  0  0  0
  139.9080   73.6980  223.2440 H   0  0  0  0  0  0  0  0  0  0  0  0
  140.8214   72.8841  220.4721 H   0  0  0  0  0  0  0  0  0  0  0  0
  139.1228   73.4484  220.6321 H   0  0  0  0  0  0  0  0  0  0  0  0
  140.5195   74.7512  217.8741 H   0  0  0  0  0  0  0  0  0  0  0  0
  139.4235   75.8732  218.6106 H   0  0  0  0  0  0  0  0  0  0  0  0
  141.1752   76.9093  216.8750 H   0  0  0  0  0  0  0  0  0  0  0  0
  141.1409   77.7642  218.3795 H   0  0  0  0  0  0  0  0  0  0  0  0
  142.9804   75.3938  217.5642 H   0  0  0  0  0  0  0  0  0  0  0  0
  143.5392   76.9536  218.0936 H   0  0  0  0  0  0  0  0  0  0  0  0
  142.8508   76.5234  220.3987 H   0  0  0  0  0  0  0  0  0  0  0  0
  145.0485   75.9744  220.5526 H   0  0  0  0  0  0  0  0  0  0  0  0
  146.6260   74.1395  221.0858 H   0  0  0  0  0  0  0  0  0  0  0  0
  145.9974   71.7740  220.8237 H   0  0  0  0  0  0  0  0  0  0  0  0
  142.1078   73.0440  219.4612 H   0  0  0  0  0  0  0  0  0  0  0  0
  141.1890   72.9181  224.8744 H   0  0  0  0  0  0  0  0  0  0  0  0
  141.2024   71.8810  227.1731 H   0  0  0  0  0  0  0  0  0  0  0  0
  140.7834   70.0274  228.5793 H   0  0  0  0  0  0  0  0  0  0  0  0
  140.0304   67.7010  228.9448 H   0  0  0  0  0  0  0  0  0  0  0  0
  139.2372   66.3563  226.9837 H   0  0  0  0  0  0  0  0  0  0  0  0
  139.2200   67.3727  224.7198 H   0  0  0  0  0  0  0  0  0  0  0  0
  1  2  2  0
  2  3  1  0
  3  4  1  0
  4  5  1  0
  5  6  2  0
  5  7  1  0
  7  8  1  0
  8  9  1  0
  9 10  1  0
 10 11  1  0
 11 12  1  0
 12 13  2  0
 13 14  1  0
 14 15  2  0
 15 16  1  0
 16 17  1  0
 16 18  2  0
  2 19  1  0
 19 20  2  0
 20 21  1  0
 21 22  2  0
 22 23  1  0
 23 24  2  0
 24 25  1  0
 25 26  2  0
 26 27  1  0
 27 28  2  0
 11  7  1  0
 18 12  1  0
 28 19  1  0
 27 22  1  0
  3 29  1  0
  4 30  1  0
  4 31  1  0
  8 32  1  0
  8 33  1  0
  9 34  1  0
  9 35  1  0
 10 36  1  0
 10 37  1  0
 11 38  1  1
 13 39  1  0
 14 40  1  0
 15 41  1  0
 18 42  1  0
 20 43  1  0
 21 44  1  0
 23 45  1  0
 24 46  1  0
 25 47  1  0
 26 48  1  0
M  END
>  <smiles>  (10) 
O=C(NCC(=O)N1CCCC1c1cccc(Cl)c1)c1ccc2ccccc2n1

>  <score_type>  (10) 
oracle

>  <origin>  (10) 
autodockgpu

>  <m_score__min__energy>  (10) 
-9.4700000000000006

>  <m_primary>  (10) 
energy

>  <rmsd>  (10) 
2.7883355360907527

>  <m_score__min__rmsd>  (10) 
2.7883355360907527

>  <meeko>  (10) 
{"free_energy": -8.13, "intermolecular_energy": -9.62, "internal_energy": -1.98, "cluster_size": 17, "cluster_id": 2, "rank_in_cluster": 16}

>  <energy>  (10) 
-9.31

>  <cluster_rmsd>  (10) 
0.26

>  <cluster>  (10) 
1

$$$$

     RDKit          3D

 48 51  0  0  0  0  0  0  0  0999 V2000
  141.0150   71.6360  221.3620 O   0  0  0  0  0  0  0  0  0  0  0  0
  140.4570   72.1510  222.3850 C   0  0  0  0  0  0  0  0  0  0  0  0
  140.0310   73.5020  222.2500 N   0  0  0  0  0  0  0  0  0  0  0  0
  140.2820   74.1340  220.9620 C   0  0  0  0  0  0  0  0  0  0  0  0
  140.6720   75.5390  221.1710 C   0  0  0  0  0  0  0  0  0  0  0  0
  140.5630   76.0320  222.3290 O   0  0  0  0  0  0  0  0  0  0  0  0
  141.1600   76.2980  220.0590 N   0  0  0  0  0  0  0  0  0  0  0  0
  140.3450   76.9530  219.0270 C   0  0  0  0  0  0  0  0  0  0  0  0
  141.2610   78.1090  218.6510 C   0  0  0  0  0  0  0  0  0  0  0  0
  142.5800   77.3740  218.5460 C   0  0  0  0  0  0  0  0  0  0  0  0
  142.5480   76.5270  219.8020 C   0  0  2  0  0  0  0  0  0  0  0  0
  143.3200   75.2710  219.6350 C   0  0  0  0  0  0  0  0  0  0  0  0
  142.9670   74.4530  218.5830 C   0  0  0  0  0  0  0  0  0  0  0  0
  143.6670   73.2660  218.3940 C   0  0  0  0  0  0  0  0  0  0  0  0
  144.6950   72.8760  219.2120 C   0  0  0  0  0  0  0  0  0  0  0  0
  145.0450   73.6990  220.2650 C   0  0  0  0  0  0  0  0  0  0  0  0
  146.3370   73.2710  221.3440 Cl  0  0  0  0  0  0  0  0  0  0  0  0
  144.3510   74.8950  220.4680 C   0  0  0  0  0  0  0  0  0  0  0  0
  140.2680   71.3970  223.6220 C   0  0  0  0  0  0  0  0  0  0  0  0
  139.5950   70.1960  223.5440 C   0  0  0  0  0  0  0  0  0  0  0  0
  139.4260   69.4920  224.7410 C   0  0  0  0  0  0  0  0  0  0  0  0
  139.9120   69.9920  225.9120 C   0  0  0  0  0  0  0  0  0  0  0  0
  139.7490   69.3080  227.0880 C   0  0  0  0  0  0  0  0  0  0  0  0
  140.2280   69.7800  228.2950 C   0  0  0  0  0  0  0  0  0  0  0  0
  140.9000   71.0000  228.3100 C   0  0  0  0  0  0  0  0  0  0  0  0
  141.0730   71.7050  227.1340 C   0  0  0  0  0  0  0  0  0  0  0  0
  140.5810   71.2010  225.9480 C   0  0  0  0  0  0  0  0  0  0  0  0
  140.7400   71.8720  224.7910 N   0  0  0  0  0  0  0  0  0  0  0  0
  139.5640   73.9950  223.0460 H   0  0  0  0  0  0  0  0  0  0  0  0
  141.0935   73.6015  220.4444 H   0  0  0  0  0  0  0  0  0  0  0  0
  139.3685   74.0946  220.3505 H   0  0  0  0  0  0  0  0  0  0  0  0
  140.1585   76.2867  218.1719 H   0  0  0  0  0  0  0  0  0  0  0  0
  139.3383   77.2510  219.3553 H   0  0  0  0  0  0  0  0  0  0  0  0
  140.9705   78.5655  217.6933 H   0  0  0  0  0  0  0  0  0  0  0  0
  141.2554   78.9534  219.3560 H   0  0  0  0  0  0  0  0  0  0  0  0
  142.6227   76.7506  217.6407 H   0  0  0  0  0  0  0  0  0  0  0  0
  143.4579   78.0323  218.4686 H   0  0  0  0  0  0  0  0  0  0  0  0
  143.0286   77.0283  220.6551 H   0  0  0  0  0  0  0  0  0  0  0  0
  142.1470   74.7338  217.9057 H   0  0  0  0  0  0  0  0  0  0  0  0
  143.3841   72.6142  217.5543 H   0  0  0  0  0  0  0  0  0  0  0  0
  145.2286   71.9306  219.0345 H   0  0  0  0  0  0  0  0  0  0  0  0
  144.6328   75.5475  221.3075 H   0  0  0  0  0  0  0  0  0  0  0  0
  139.2102   69.8107  222.5882 H   0  0  0  0  0  0  0  0  0  0  0  0
  138.8969   68.5276  224.7371 H   0  0  0  0  0  0  0  0  0  0  0  0
  139.2161   68.3458  227.0705 H   0  0  0  0  0  0  0  0  0  0  0  0
  140.0821   69.2060  229.2220 H   0  0  0  0  0  0  0  0  0  0  0  0
  141.2922   71.4015  229.2560 H   0  0  0  0  0  0  0  0  0  0  0  0
  141.6034   72.6686  227.1438 H   0  0  0  0  0  0  0  0  0  0  0  0
  1  2  2  0
  2  3  1  0
  3  4  1  0
  4  5  1  0
  5  6  2  0
  5  7  1  0
  7  8  1  0
  8  9  1  0
  9 10  1  0
 10 11  1  0
 11 12  1  0
 12 13  2  0
 13 14  1  0
 14 15  2  0
 15 16  1  0
 16 17  1  0
 16 18  2  0
  2 19  1  0
 19 20  2  0
 20 21  1  0
 21 22  2  0
 22 23  1  0
 23 24  2  0
 24 25  1  0
 25 26  2  0
 26 27  1  0
 27 28  2  0
 11  7  1  0
 18 12  1  0
 28 19  1  0
 27 22  1  0
  3 29  1  0
  4 30  1  0
  4 31  1  0
  8 32  1  0
  8 33  1  0
  9 34  1  0
  9 35  1  0
 10 36  1  0
 10 37  1  0
 11 38  1  1
 13 39  1  0
 14 40  1  0
 15 41  1  0
 18 42  1  0
 20 43  1  0
 21 44  1  0
 23 45  1  0
 24 46  1  0
 25 47  1  0
 26 48  1  0
M  END
>  <smiles>  (11) 
O=C(NCC(=O)N1CCCC1c1cccc(Cl)c1)c1ccc2ccccc2n1

>  <score_type>  (11) 
oracle

>  <origin>  (11) 
autodockgpu

>  <m_score__min__energy>  (11) 
-9.4700000000000006

>  <m_primary>  (11) 
energy

>  <rmsd>  (11) 
1.8201165985550274

>  <m_score__min__rmsd>  (11) 
1.8201165985550274

>  <meeko>  (11) 
{"free_energy": -8.81, "intermolecular_energy": -10.31, "internal_energy": -1.92, "cluster_size": 17, "cluster_id": 2, "rank_in_cluster": 3}

>  <energy>  (11) 
-9.3

>  <cluster_rmsd>  (11) 
0.25

>  <cluster>  (11) 
1

$$$$

     RDKit          3D

 48 51  0  0  0  0  0  0  0  0999 V2000
  141.1480   71.9240  221.5330 O   0  0  0  0  0  0  0  0  0  0  0  0
  140.3730   72.2640  222.4850 C   0  0  0  0  0  0  0  0  0  0  0  0
  139.6730   73.4920  222.3120 N   0  0  0  0  0  0  0  0  0  0  0  0
  139.9260   74.2110  221.0720 C   0  0  0  0  0  0  0  0  0  0  0  0
  140.2550   75.6150  221.3740 C   0  0  0  0  0  0  0  0  0  0  0  0
  141.4660   75.9750  221.3330 O   0  0  0  0  0  0  0  0  0  0  0  0
  139.1980   76.5220  221.7040 N   0  0  0  0  0  0  0  0  0  0  0  0
  137.8660   76.5690  221.0840 C   0  0  0  0  0  0  0  0  0  0  0  0
  137.0460   77.1120  222.2460 C   0  0  0  0  0  0  0  0  0  0  0  0
  137.9570   78.2280  222.7090 C   0  0  0  0  0  0  0  0  0  0  0  0
  139.3020   77.5320  222.7110 C   0  0  2  0  0  0  0  0  0  0  0  0
  140.4120   78.4840  222.4620 C   0  0  0  0  0  0  0  0  0  0  0  0
  141.3040   78.6920  223.4930 C   0  0  0  0  0  0  0  0  0  0  0  0
  142.3580   79.5780  223.2980 C   0  0  0  0  0  0  0  0  0  0  0  0
  142.5470   80.2550  222.1210 C   0  0  0  0  0  0  0  0  0  0  0  0
  141.6520   80.0430  221.0910 C   0  0  0  0  0  0  0  0  0  0  0  0
  141.8260   80.8650  219.5710 Cl  0  0  0  0  0  0  0  0  0  0  0  0
  140.5860   79.1560  221.2710 C   0  0  0  0  0  0  0  0  0  0  0  0
  140.2140   71.4420  223.6810 C   0  0  0  0  0  0  0  0  0  0  0  0
  139.5800   70.2250  223.5430 C   0  0  0  0  0  0  0  0  0  0  0  0
  139.4380   69.4550  224.7020 C   0  0  0  0  0  0  0  0  0  0  0  0
  139.9130   69.9090  225.8960 C   0  0  0  0  0  0  0  0  0  0  0  0
  139.7780   69.1600  227.0360 C   0  0  0  0  0  0  0  0  0  0  0  0
  140.2470   69.5840  228.2640 C   0  0  0  0  0  0  0  0  0  0  0  0
  140.8790   70.8230  228.3400 C   0  0  0  0  0  0  0  0  0  0  0  0
  141.0250   71.5930  227.2020 C   0  0  0  0  0  0  0  0  0  0  0  0
  140.5440   71.1360  225.9930 C   0  0  0  0  0  0  0  0  0  0  0  0
  140.6750   71.8700  224.8720 N   0  0  0  0  0  0  0  0  0  0  0  0
  139.0180   73.8390  223.0500 H   0  0  0  0  0  0  0  0  0  0  0  0
  140.7691   73.7430  220.5427 H   0  0  0  0  0  0  0  0  0  0  0  0
  139.0277   74.1741  220.4382 H   0  0  0  0  0  0  0  0  0  0  0  0
  137.8436   77.2468  220.2179 H   0  0  0  0  0  0  0  0  0  0  0  0
  137.5121   75.6097  220.6785 H   0  0  0  0  0  0  0  0  0  0  0  0
  136.0692   77.4933  221.9137 H   0  0  0  0  0  0  0  0  0  0  0  0
  136.7890   76.3721  223.0184 H   0  0  0  0  0  0  0  0  0  0  0  0
  137.9434   79.0758  222.0082 H   0  0  0  0  0  0  0  0  0  0  0  0
  137.6754   78.6666  223.6777 H   0  0  0  0  0  0  0  0  0  0  0  0
  139.5401   77.0894  223.6895 H   0  0  0  0  0  0  0  0  0  0  0  0
  141.1840   78.1667  224.4520 H   0  0  0  0  0  0  0  0  0  0  0  0
  143.0687   79.7422  224.1214 H   0  0  0  0  0  0  0  0  0  0  0  0
  143.3909   80.9501  222.0000 H   0  0  0  0  0  0  0  0  0  0  0  0
  139.8744   78.9917  220.4484 H   0  0  0  0  0  0  0  0  0  0  0  0
  139.2045   69.8770  222.5694 H   0  0  0  0  0  0  0  0  0  0  0  0
  138.9393   68.4759  224.6494 H   0  0  0  0  0  0  0  0  0  0  0  0
  139.2766   68.1831  226.9703 H   0  0  0  0  0  0  0  0  0  0  0  0
  140.1244   68.9583  229.1604 H   0  0  0  0  0  0  0  0  0  0  0  0
  141.2614   71.1880  229.3047 H   0  0  0  0  0  0  0  0  0  0  0  0
  141.5251   72.5710  227.2604 H   0  0  0  0  0  0  0  0  0  0  0  0
  1  2  2  0
  2  3  1  0
  3  4  1  0
  4  5  1  0
  5  6  2  0
  5  7  1  0
  7  8  1  0
  8  9  1  0
  9 10  1  0
 10 11  1  0
 11 12  1  0
 12 13  2  0
 13 14  1  0
 14 15  2  0
 15 16  1  0
 16 17  1  0
 16 18  2  0
  2 19  1  0
 19 20  2  0
 20 21  1  0
 21 22  2  0
 22 23  1  0
 23 24  2  0
 24 25  1  0
 25 26  2  0
 26 27  1  0
 27 28  2  0
 11  7  1  0
 18 12  1  0
 28 19  1  0
 27 22  1  0
  3 29  1  0
  4 30  1  0
  4 31  1  0
  8 32  1  0
  8 33  1  0
  9 34  1  0
  9 35  1  0
 10 36  1  0
 10 37  1  0
 11 38  1  1
 13 39  1  0
 14 40  1  0
 15 41  1  0
 18 42  1  0
 20 43  1  0
 21 44  1  0
 23 45  1  0
 24 46  1  0
 25 47  1  0
 26 48  1  0
M  END
>  <smiles>  (12) 
O=C(NCC(=O)N1CCCC1c1cccc(Cl)c1)c1ccc2ccccc2n1

>  <score_type>  (12) 
oracle

>  <origin>  (12) 
autodockgpu

>  <m_score__min__energy>  (12) 
-9.4700000000000006

>  <m_primary>  (12) 
energy

>  <rmsd>  (12) 
2.8320971922903655

>  <m_score__min__rmsd>  (12) 
2.8320971922903655

>  <meeko>  (12) 
{"free_energy": -8.95, "intermolecular_energy": -10.44, "internal_energy": -1.33, "cluster_size": 31, "cluster_id": 1, "rank_in_cluster": 29}

>  <energy>  (12) 
-9.29

>  <cluster_rmsd>  (12) 
0.96

>  <cluster>  (12) 
1

$$$$

     RDKit          3D

 48 51  0  0  0  0  0  0  0  0999 V2000
  141.3180   72.5550  222.0220 O   0  0  0  0  0  0  0  0  0  0  0  0
  140.2510   72.4190  222.7050 C   0  0  0  0  0  0  0  0  0  0  0  0
  139.1740   73.2820  222.3580 N   0  0  0  0  0  0  0  0  0  0  0  0
  139.4190   74.2150  221.2670 C   0  0  0  0  0  0  0  0  0  0  0  0
  139.7840   75.5320  221.8170 C   0  0  0  0  0  0  0  0  0  0  0  0
  140.9880   75.7410  222.1360 O   0  0  0  0  0  0  0  0  0  0  0  0
  138.7670   76.5280  221.9720 N   0  0  0  0  0  0  0  0  0  0  0  0
  137.4330   76.5140  221.3550 C   0  0  0  0  0  0  0  0  0  0  0  0
  136.6450   77.2970  222.3960 C   0  0  0  0  0  0  0  0  0  0  0  0
  137.6050   78.4410  222.6430 C   0  0  0  0  0  0  0  0  0  0  0  0
  138.9200   77.7020  222.7730 C   0  0  2  0  0  0  0  0  0  0  0  0
  140.0660   78.5450  222.3510 C   0  0  0  0  0  0  0  0  0  0  0  0
  140.3170   78.6290  220.9980 C   0  0  0  0  0  0  0  0  0  0  0  0
  141.3830   79.4090  220.5630 C   0  0  0  0  0  0  0  0  0  0  0  0
  142.1960   80.0980  221.4250 C   0  0  0  0  0  0  0  0  0  0  0  0
  141.9410   80.0100  222.7790 C   0  0  0  0  0  0  0  0  0  0  0  0
  142.9270   80.8540  223.9330 Cl  0  0  0  0  0  0  0  0  0  0  0  0
  140.8730   79.2300  223.2330 C   0  0  0  0  0  0  0  0  0  0  0  0
  140.1430   71.4360  223.7790 C   0  0  0  0  0  0  0  0  0  0  0  0
  139.5270   70.2360  223.4910 C   0  0  0  0  0  0  0  0  0  0  0  0
  139.4350   69.3110  224.5360 C   0  0  0  0  0  0  0  0  0  0  0  0
  139.9370   69.6060  225.7680 C   0  0  0  0  0  0  0  0  0  0  0  0
  139.8500   68.7030  226.7960 C   0  0  0  0  0  0  0  0  0  0  0  0
  140.3470   68.9650  228.0580 C   0  0  0  0  0  0  0  0  0  0  0  0
  140.9590   70.1950  228.2880 C   0  0  0  0  0  0  0  0  0  0  0  0
  141.0560   71.1170  227.2640 C   0  0  0  0  0  0  0  0  0  0  0  0
  140.5480   70.8210  226.0160 C   0  0  0  0  0  0  0  0  0  0  0  0
  140.6320   71.7060  225.0050 N   0  0  0  0  0  0  0  0  0  0  0  0
  138.2650   73.2310  222.8720 H   0  0  0  0  0  0  0  0  0  0  0  0
  140.2416   73.8387  220.6410 H   0  0  0  0  0  0  0  0  0  0  0  0
  138.5083   74.3127  220.6578 H   0  0  0  0  0  0  0  0  0  0  0  0
  137.4310   77.0193  220.3779 H   0  0  0  0  0  0  0  0  0  0  0  0
  137.0372   75.5114  221.1354 H   0  0  0  0  0  0  0  0  0  0  0  0
  135.6819   77.6502  221.9989 H   0  0  0  0  0  0  0  0  0  0  0  0
  136.3641   76.7249  223.2925 H   0  0  0  0  0  0  0  0  0  0  0  0
  137.6200   79.1439  221.7970 H   0  0  0  0  0  0  0  0  0  0  0  0
  137.3499   79.0631  223.5136 H   0  0  0  0  0  0  0  0  0  0  0  0
  139.1480   77.4386  223.8164 H   0  0  0  0  0  0  0  0  0  0  0  0
  139.6861   78.0894  220.2763 H   0  0  0  0  0  0  0  0  0  0  0  0
  141.5818   79.4757  219.4832 H   0  0  0  0  0  0  0  0  0  0  0  0
  143.0311   80.7061  221.0472 H   0  0  0  0  0  0  0  0  0  0  0  0
  140.6737   79.1621  224.3127 H   0  0  0  0  0  0  0  0  0  0  0  0
  139.1280   70.0174  222.4895 H   0  0  0  0  0  0  0  0  0  0  0  0
  138.9535   68.3374  224.3619 H   0  0  0  0  0  0  0  0  0  0  0  0
  139.3661   67.7331  226.6088 H   0  0  0  0  0  0  0  0  0  0  0  0
  140.2615   68.2197  228.8625 H   0  0  0  0  0  0  0  0  0  0  0  0
  141.3642   70.4316  229.2829 H   0  0  0  0  0  0  0  0  0  0  0  0
  141.5390   72.0887  227.4439 H   0  0  0  0  0  0  0  0  0  0  0  0
  1  2  2  0
  2  3  1  0
  3  4  1  0
  4  5  1  0
  5  6  2  0
  5  7  1  0
  7  8  1  0
  8  9  1  0
  9 10  1  0
 10 11  1  0
 11 12  1  0
 12 13  2  0
 13 14  1  0
 14 15  2  0
 15 16  1  0
 16 17  1  0
 16 18  2  0
  2 19  1  0
 19 20  2  0
 20 21  1  0
 21 22  2  0
 22 23  1  0
 23 24  2  0
 24 25  1  0
 25 26  2  0
 26 27  1  0
 27 28  2  0
 11  7  1  0
 18 12  1  0
 28 19  1  0
 27 22  1  0
  3 29  1  0
  4 30  1  0
  4 31  1  0
  8 32  1  0
  8 33  1  0
  9 34  1  0
  9 35  1  0
 10 36  1  0
 10 37  1  0
 11 38  1  1
 13 39  1  0
 14 40  1  0
 15 41  1  0
 18 42  1  0
 20 43  1  0
 21 44  1  0
 23 45  1  0
 24 46  1  0
 25 47  1  0
 26 48  1  0
M  END
>  <smiles>  (13) 
O=C(NCC(=O)N1CCCC1c1cccc(Cl)c1)c1ccc2ccccc2n1

>  <score_type>  (13) 
oracle

>  <origin>  (13) 
autodockgpu

>  <m_score__min__energy>  (13) 
-9.4700000000000006

>  <m_primary>  (13) 
energy

>  <rmsd>  (13) 
2.928330592269193

>  <m_score__min__rmsd>  (13) 
2.928330592269193

>  <meeko>  (13) 
{"free_energy": -9.02, "intermolecular_energy": -10.51, "internal_energy": -1.24, "cluster_size": 31, "cluster_id": 1, "rank_in_cluster": 28}

>  <energy>  (13) 
-9.29

>  <cluster_rmsd>  (13) 
0.29

>  <cluster>  (13) 
1

$$$$

     RDKit          3D

 48 51  0  0  0  0  0  0  0  0999 V2000
  141.1900   71.8900  221.5120 O   0  0  0  0  0  0  0  0  0  0  0  0
  140.3100   72.1630  222.3920 C   0  0  0  0  0  0  0  0  0  0  0  0
  139.4490   73.2560  222.0960 N   0  0  0  0  0  0  0  0  0  0  0  0
  139.6740   73.9310  220.8250 C   0  0  0  0  0  0  0  0  0  0  0  0
  140.7420   74.9340  220.9820 C   0  0  0  0  0  0  0  0  0  0  0  0
  141.0710   75.2890  222.1490 O   0  0  0  0  0  0  0  0  0  0  0  0
  141.3680   75.4730  219.8130 N   0  0  0  0  0  0  0  0  0  0  0  0
  140.7060   75.8000  218.5430 C   0  0  0  0  0  0  0  0  0  0  0  0
  141.6020   76.9290  218.0530 C   0  0  0  0  0  0  0  0  0  0  0  0
  142.9610   76.3200  218.3280 C   0  0  0  0  0  0  0  0  0  0  0  0
  142.7640   75.7730  219.7260 C   0  0  2  0  0  0  0  0  0  0  0  0
  143.6260   74.5930  219.9790 C   0  0  0  0  0  0  0  0  0  0  0  0
  144.8920   74.8340  220.4700 C   0  0  0  0  0  0  0  0  0  0  0  0
  145.7300   73.7530  220.7200 C   0  0  0  0  0  0  0  0  0  0  0  0
  145.3490   72.4560  220.4980 C   0  0  0  0  0  0  0  0  0  0  0  0
  144.0810   72.2180  220.0060 C   0  0  0  0  0  0  0  0  0  0  0  0
  143.5280   70.6010  219.6990 Cl  0  0  0  0  0  0  0  0  0  0  0  0
  143.2260   73.2940  219.7490 C   0  0  0  0  0  0  0  0  0  0  0  0
  140.1960   71.3980  223.6310 C   0  0  0  0  0  0  0  0  0  0  0  0
  139.5680   70.1710  223.5720 C   0  0  0  0  0  0  0  0  0  0  0  0
  139.4700   69.4580  224.7710 C   0  0  0  0  0  0  0  0  0  0  0  0
  139.9790   69.9720  225.9260 C   0  0  0  0  0  0  0  0  0  0  0  0
  139.8860   69.2780  227.1040 C   0  0  0  0  0  0  0  0  0  0  0  0
  140.3900   69.7640  228.2950 C   0  0  0  0  0  0  0  0  0  0  0  0
  141.0140   71.0090  228.2910 C   0  0  0  0  0  0  0  0  0  0  0  0
  141.1170   71.7240  227.1130 C   0  0  0  0  0  0  0  0  0  0  0  0
  140.6020   71.2060  225.9430 C   0  0  0  0  0  0  0  0  0  0  0  0
  140.6920   71.8860  224.7850 N   0  0  0  0  0  0  0  0  0  0  0  0
  138.7020   73.5420  222.7690 H   0  0  0  0  0  0  0  0  0  0  0  0
  139.9731   73.1930  220.0661 H   0  0  0  0  0  0  0  0  0  0  0  0
  138.7470   74.4303  220.5066 H   0  0  0  0  0  0  0  0  0  0  0  0
  140.7110   74.9461  217.8496 H   0  0  0  0  0  0  0  0  0  0  0  0
  139.6415   76.0624  218.6325 H   0  0  0  0  0  0  0  0  0  0  0  0
  141.4544   77.1325  216.9821 H   0  0  0  0  0  0  0  0  0  0  0  0
  141.4244   77.9037  218.5309 H   0  0  0  0  0  0  0  0  0  0  0  0
  143.1957   75.5189  217.6116 H   0  0  0  0  0  0  0  0  0  0  0  0
  143.7985   77.0271  218.2350 H   0  0  0  0  0  0  0  0  0  0  0  0
  143.0604   76.4948  220.5014 H   0  0  0  0  0  0  0  0  0  0  0  0
  145.2326   75.8625  220.6603 H   0  0  0  0  0  0  0  0  0  0  0  0
  146.7394   73.9470  221.1118 H   0  0  0  0  0  0  0  0  0  0  0  0
  146.0371   71.6236  220.7068 H   0  0  0  0  0  0  0  0  0  0  0  0
  142.2168   73.1007  219.3565 H   0  0  0  0  0  0  0  0  0  0  0  0
  139.1646   69.7734  222.6290 H   0  0  0  0  0  0  0  0  0  0  0  0
  138.9780   68.4742  224.7820 H   0  0  0  0  0  0  0  0  0  0  0  0
  139.3908   68.2958  227.1012 H   0  0  0  0  0  0  0  0  0  0  0  0
  140.3006   69.1817  229.2239 H   0  0  0  0  0  0  0  0  0  0  0  0
  141.4243   71.4226  229.2241 H   0  0  0  0  0  0  0  0  0  0  0  0
  141.6102   72.7072  227.1084 H   0  0  0  0  0  0  0  0  0  0  0  0
  1  2  2  0
  2  3  1  0
  3  4  1  0
  4  5  1  0
  5  6  2  0
  5  7  1  0
  7  8  1  0
  8  9  1  0
  9 10  1  0
 10 11  1  0
 11 12  1  0
 12 13  2  0
 13 14  1  0
 14 15  2  0
 15 16  1  0
 16 17  1  0
 16 18  2  0
  2 19  1  0
 19 20  2  0
 20 21  1  0
 21 22  2  0
 22 23  1  0
 23 24  2  0
 24 25  1  0
 25 26  2  0
 26 27  1  0
 27 28  2  0
 11  7  1  0
 18 12  1  0
 28 19  1  0
 27 22  1  0
  3 29  1  0
  4 30  1  0
  4 31  1  0
  8 32  1  0
  8 33  1  0
  9 34  1  0
  9 35  1  0
 10 36  1  0
 10 37  1  0
 11 38  1  1
 13 39  1  0
 14 40  1  0
 15 41  1  0
 18 42  1  0
 20 43  1  0
 21 44  1  0
 23 45  1  0
 24 46  1  0
 25 47  1  0
 26 48  1  0
M  END
>  <smiles>  (14) 
O=C(NCC(=O)N1CCCC1c1cccc(Cl)c1)c1ccc2ccccc2n1

>  <score_type>  (14) 
oracle

>  <origin>  (14) 
autodockgpu

>  <m_score__min__energy>  (14) 
-9.4700000000000006

>  <m_primary>  (14) 
energy

>  <rmsd>  (14) 
1.693199465101594

>  <m_score__min__rmsd>  (14) 
1.693199465101594

>  <meeko>  (14) 
{"free_energy": -8.8, "intermolecular_energy": -10.29, "internal_energy": -1.77, "cluster_size": 17, "cluster_id": 2, "rank_in_cluster": 4}

>  <energy>  (14) 
-9.28

>  <cluster_rmsd>  (14) 
0.93

>  <cluster>  (14) 
1

$$$$

     RDKit          3D

 48 51  0  0  0  0  0  0  0  0999 V2000
  141.2880   71.8830  221.5220 O   0  0  0  0  0  0  0  0  0  0  0  0
  140.5380   72.2670  222.4790 C   0  0  0  0  0  0  0  0  0  0  0  0
  139.9670   73.5620  222.3430 N   0  0  0  0  0  0  0  0  0  0  0  0
  140.3050   74.2950  221.1300 C   0  0  0  0  0  0  0  0  0  0  0  0
  140.5130   75.7160  221.4550 C   0  0  0  0  0  0  0  0  0  0  0  0
  140.0070   76.1750  222.5180 O   0  0  0  0  0  0  0  0  0  0  0  0
  141.2790   76.5300  220.5590 N   0  0  0  0  0  0  0  0  0  0  0  0
  142.4610   76.1080  219.7940 C   0  0  0  0  0  0  0  0  0  0  0  0
  142.3460   77.0310  218.5890 C   0  0  0  0  0  0  0  0  0  0  0  0
  142.0410   78.3380  219.2900 C   0  0  0  0  0  0  0  0  0  0  0  0
  140.9850   77.9020  220.2830 C   0  0  2  0  0  0  0  0  0  0  0  0
  140.9940   78.7510  221.5000 C   0  0  0  0  0  0  0  0  0  0  0  0
  142.2250   79.0980  222.0140 C   0  0  0  0  0  0  0  0  0  0  0  0
  142.2740   79.8930  223.1540 C   0  0  0  0  0  0  0  0  0  0  0  0
  141.1470   80.3460  223.7890 C   0  0  0  0  0  0  0  0  0  0  0  0
  139.9160   79.9950  223.2710 C   0  0  0  0  0  0  0  0  0  0  0  0
  138.4440   80.5310  224.0210 Cl  0  0  0  0  0  0  0  0  0  0  0  0
  139.8490   79.1970  222.1250 C   0  0  0  0  0  0  0  0  0  0  0  0
  140.2840   71.4240  223.6440 C   0  0  0  0  0  0  0  0  0  0  0  0
  139.6230   70.2300  223.4410 C   0  0  0  0  0  0  0  0  0  0  0  0
  139.3900   69.4410  224.5720 C   0  0  0  0  0  0  0  0  0  0  0  0
  139.8050   69.8550  225.8020 C   0  0  0  0  0  0  0  0  0  0  0  0
  139.5800   69.0860  226.9140 C   0  0  0  0  0  0  0  0  0  0  0  0
  139.9860   69.4700  228.1780 C   0  0  0  0  0  0  0  0  0  0  0  0
  140.6490   70.6870  228.3190 C   0  0  0  0  0  0  0  0  0  0  0  0
  140.8850   71.4760  227.2100 C   0  0  0  0  0  0  0  0  0  0  0  0
  140.4650   71.0590  225.9640 C   0  0  0  0  0  0  0  0  0  0  0  0
  140.6850   71.8130  224.8700 N   0  0  0  0  0  0  0  0  0  0  0  0
  139.3400   73.9490  223.0860 H   0  0  0  0  0  0  0  0  0  0  0  0
  141.2265   73.8798  220.6958 H   0  0  0  0  0  0  0  0  0  0  0  0
  139.4828   74.2020  220.4052 H   0  0  0  0  0  0  0  0  0  0  0  0
  143.3919   76.2825  220.3534 H   0  0  0  0  0  0  0  0  0  0  0  0
  142.4951   75.0355  219.5520 H   0  0  0  0  0  0  0  0  0  0  0  0
  143.2871   77.0815  218.0217 H   0  0  0  0  0  0  0  0  0  0  0  0
  141.6040   76.7231  217.8376 H   0  0  0  0  0  0  0  0  0  0  0  0
  142.9302   78.7397  219.7980 H   0  0  0  0  0  0  0  0  0  0  0  0
  141.7200   79.1464  218.6166 H   0  0  0  0  0  0  0  0  0  0  0  0
  139.9664   78.0132  219.8829 H   0  0  0  0  0  0  0  0  0  0  0  0
  143.1512   78.7526  221.5315 H   0  0  0  0  0  0  0  0  0  0  0  0
  143.2571   80.1695  223.5627 H   0  0  0  0  0  0  0  0  0  0  0  0
  141.2213   80.9738  224.6892 H   0  0  0  0  0  0  0  0  0  0  0  0
  138.8664   78.9204  221.7152 H   0  0  0  0  0  0  0  0  0  0  0  0
  139.2956   69.9144  222.4394 H   0  0  0  0  0  0  0  0  0  0  0  0
  138.8676   68.4786  224.4677 H   0  0  0  0  0  0  0  0  0  0  0  0
  139.0560   68.1261  226.7958 H   0  0  0  0  0  0  0  0  0  0  0  0
  139.7904   68.8304  229.0513 H   0  0  0  0  0  0  0  0  0  0  0  0
  140.9843   71.0194  229.3125 H   0  0  0  0  0  0  0  0  0  0  0  0
  141.4081   72.4373  227.3205 H   0  0  0  0  0  0  0  0  0  0  0  0
  1  2  2  0
  2  3  1  0
  3  4  1  0
  4  5  1  0
  5  6  2  0
  5  7  1  0
  7  8  1  0
  8  9  1  0
  9 10  1  0
 10 11  1  0
 11 12  1  0
 12 13  2  0
 13 14  1  0
 14 15  2  0
 15 16  1  0
 16 17  1  0
 16 18  2  0
  2 19  1  0
 19 20  2  0
 20 21  1  0
 21 22  2  0
 22 23  1  0
 23 24  2  0
 24 25  1  0
 25 26  2  0
 26 27  1  0
 27 28  2  0
 11  7  1  0
 18 12  1  0
 28 19  1  0
 27 22  1  0
  3 29  1  0
  4 30  1  0
  4 31  1  0
  8 32  1  0
  8 33  1  0
  9 34  1  0
  9 35  1  0
 10 36  1  0
 10 37  1  0
 11 38  1  6
 13 39  1  0
 14 40  1  0
 15 41  1  0
 18 42  1  0
 20 43  1  0
 21 44  1  0
 23 45  1  0
 24 46  1  0
 25 47  1  0
 26 48  1  0
M  END
>  <smiles>  (15) 
O=C(NCC(=O)N1CCCC1c1cccc(Cl)c1)c1ccc2ccccc2n1

>  <score_type>  (15) 
oracle

>  <origin>  (15) 
autodockgpu

>  <m_score__min__energy>  (15) 
-9.4700000000000006

>  <m_primary>  (15) 
energy

>  <rmsd>  (15) 
2.109606728957239

>  <m_score__min__rmsd>  (15) 
2.109606728957239

>  <meeko>  (15) 
{"free_energy": -9.33, "intermolecular_energy": -10.82, "internal_energy": -1.63, "cluster_size": 31, "cluster_id": 1, "rank_in_cluster": 8}

>  <energy>  (15) 
-9.28

>  <cluster_rmsd>  (15) 
0.95

>  <cluster>  (15) 
1

$$$$

     RDKit          3D

 48 51  0  0  0  0  0  0  0  0999 V2000
  140.5810   71.3680  221.2870 O   0  0  0  0  0  0  0  0  0  0  0  0
  140.2270   71.9450  222.3670 C   0  0  0  0  0  0  0  0  0  0  0  0
  139.9150   73.3290  222.2610 N   0  0  0  0  0  0  0  0  0  0  0  0
  140.0360   73.9200  220.9350 C   0  0  0  0  0  0  0  0  0  0  0  0
  140.6830   75.2390  221.0400 C   0  0  0  0  0  0  0  0  0  0  0  0
  140.6330   75.8510  222.1450 O   0  0  0  0  0  0  0  0  0  0  0  0
  141.3440   75.7840  219.8930 N   0  0  0  0  0  0  0  0  0  0  0  0
  140.7050   76.2020  218.6370 C   0  0  0  0  0  0  0  0  0  0  0  0
  141.6700   77.2910  218.1920 C   0  0  0  0  0  0  0  0  0  0  0  0
  142.9880   76.5900  218.4410 C   0  0  0  0  0  0  0  0  0  0  0  0
  142.7550   76.0010  219.8170 C   0  0  2  0  0  0  0  0  0  0  0  0
  143.5430   74.7610  220.0230 C   0  0  0  0  0  0  0  0  0  0  0  0
  144.8390   74.9070  220.4690 C   0  0  0  0  0  0  0  0  0  0  0  0
  145.6090   73.7680  220.6740 C   0  0  0  0  0  0  0  0  0  0  0  0
  145.1320   72.5030  220.4490 C   0  0  0  0  0  0  0  0  0  0  0  0
  143.8330   72.3610  220.0020 C   0  0  0  0  0  0  0  0  0  0  0  0
  143.1590   70.7900  219.6950 Cl  0  0  0  0  0  0  0  0  0  0  0  0
  143.0450   73.4960  219.7910 C   0  0  0  0  0  0  0  0  0  0  0  0
  140.1490   71.2270  223.6360 C   0  0  0  0  0  0  0  0  0  0  0  0
  139.5790   69.9710  223.6280 C   0  0  0  0  0  0  0  0  0  0  0  0
  139.5150   69.3030  224.8550 C   0  0  0  0  0  0  0  0  0  0  0  0
  139.9990   69.8870  225.9870 C   0  0  0  0  0  0  0  0  0  0  0  0
  139.9390   69.2370  227.1930 C   0  0  0  0  0  0  0  0  0  0  0  0
  140.4200   69.7950  228.3620 C   0  0  0  0  0  0  0  0  0  0  0  0
  140.9860   71.0660  228.3060 C   0  0  0  0  0  0  0  0  0  0  0  0
  141.0550   71.7370  227.1000 C   0  0  0  0  0  0  0  0  0  0  0  0
  140.5640   71.1480  225.9530 C   0  0  0  0  0  0  0  0  0  0  0  0
  140.6220   71.7840  224.7680 N   0  0  0  0  0  0  0  0  0  0  0  0
  139.6180   73.8740  223.1020 H   0  0  0  0  0  0  0  0  0  0  0  0
  140.6444   73.2635  220.2956 H   0  0  0  0  0  0  0  0  0  0  0  0
  139.0350   74.0378  220.4944 H   0  0  0  0  0  0  0  0  0  0  0  0
  140.6579   75.3778  217.9101 H   0  0  0  0  0  0  0  0  0  0  0  0
  139.6587   76.5262  218.7377 H   0  0  0  0  0  0  0  0  0  0  0  0
  141.5370   77.5457  217.1302 H   0  0  0  0  0  0  0  0  0  0  0  0
  141.5523   78.2547  218.7091 H   0  0  0  0  0  0  0  0  0  0  0  0
  143.1743   75.8051  217.6932 H   0  0  0  0  0  0  0  0  0  0  0  0
  143.8676   77.2473  218.3752 H   0  0  0  0  0  0  0  0  0  0  0  0
  143.0936   76.6722  220.6200 H   0  0  0  0  0  0  0  0  0  0  0  0
  145.2564   75.9068  220.6593 H   0  0  0  0  0  0  0  0  0  0  0  0
  146.6426   73.8867  221.0311 H   0  0  0  0  0  0  0  0  0  0  0  0
  145.7683   71.6222  220.6203 H   0  0  0  0  0  0  0  0  0  0  0  0
  142.0111   73.3784  219.4342 H   0  0  0  0  0  0  0  0  0  0  0  0
  139.1940   69.5174  222.7028 H   0  0  0  0  0  0  0  0  0  0  0  0
  139.0704   68.2982  224.9067 H   0  0  0  0  0  0  0  0  0  0  0  0
  139.4909   68.2331  227.2312 H   0  0  0  0  0  0  0  0  0  0  0  0
  140.3573   69.2481  229.3143 H   0  0  0  0  0  0  0  0  0  0  0  0
  141.3776   71.5353  229.2205 H   0  0  0  0  0  0  0  0  0  0  0  0
  141.5016   72.7412  227.0544 H   0  0  0  0  0  0  0  0  0  0  0  0
  1  2  2  0
  2  3  1  0
  3  4  1  0
  4  5  1  0
  5  6  2  0
  5  7  1  0
  7  8  1  0
  8  9  1  0
  9 10  1  0
 10 11  1  0
 11 12  1  0
 12 13  2  0
 13 14  1  0
 14 15  2  0
 15 16  1  0
 16 17  1  0
 16 18  2  0
  2 19  1  0
 19 20  2  0
 20 21  1  0
 21 22  2  0
 22 23  1  0
 23 24  2  0
 24 25  1  0
 25 26  2  0
 26 27  1  0
 27 28  2  0
 11  7  1  0
 18 12  1  0
 28 19  1  0
 27 22  1  0
  3 29  1  0
  4 30  1  0
  4 31  1  0
  8 32  1  0
  8 33  1  0
  9 34  1  0
  9 35  1  0
 10 36  1  0
 10 37  1  0
 11 38  1  1
 13 39  1  0
 14 40  1  0
 15 41  1  0
 18 42  1  0
 20 43  1  0
 21 44  1  0
 23 45  1  0
 24 46  1  0
 25 47  1  0
 26 48  1  0
M  END
>  <smiles>  (16) 
O=C(NCC(=O)N1CCCC1c1cccc(Cl)c1)c1ccc2ccccc2n1

>  <score_type>  (16) 
oracle

>  <origin>  (16) 
autodockgpu

>  <m_score__min__energy>  (16) 
-9.4700000000000006

>  <m_primary>  (16) 
energy

>  <rmsd>  (16) 
1.7293826772560155

>  <m_score__min__rmsd>  (16) 
1.7293826772560155

>  <meeko>  (16) 
{"free_energy": -8.67, "intermolecular_energy": -10.16, "internal_energy": -2.02, "cluster_size": 17, "cluster_id": 2, "rank_in_cluster": 9}

>  <energy>  (16) 
-9.27

>  <cluster_rmsd>  (16) 
0.32

>  <cluster>  (16) 
1

$$$$

     RDKit          3D

 48 51  0  0  0  0  0  0  0  0999 V2000
  141.1860   71.4950  221.4930 O   0  0  0  0  0  0  0  0  0  0  0  0
  140.4990   71.9080  222.4830 C   0  0  0  0  0  0  0  0  0  0  0  0
  139.9730   73.2250  222.3700 N   0  0  0  0  0  0  0  0  0  0  0  0
  140.2800   73.9420  221.1400 C   0  0  0  0  0  0  0  0  0  0  0  0
  140.4370   75.3770  221.4320 C   0  0  0  0  0  0  0  0  0  0  0  0
  139.8050   75.8680  222.4100 O   0  0  0  0  0  0  0  0  0  0  0  0
  141.2950   76.1660  220.6010 N   0  0  0  0  0  0  0  0  0  0  0  0
  142.5840   75.7470  220.0340 C   0  0  0  0  0  0  0  0  0  0  0  0
  142.6110   76.5940  218.7690 C   0  0  0  0  0  0  0  0  0  0  0  0
  142.1730   77.9260  219.3380 C   0  0  0  0  0  0  0  0  0  0  0  0
  141.0010   77.5080  220.2020 C   0  0  2  0  0  0  0  0  0  0  0  0
  140.8150   78.4250  221.3530 C   0  0  0  0  0  0  0  0  0  0  0  0
  139.5230   78.6300  221.7890 C   0  0  0  0  0  0  0  0  0  0  0  0
  139.3070   79.4840  222.8660 C   0  0  0  0  0  0  0  0  0  0  0  0
  140.3280   80.1320  223.5110 C   0  0  0  0  0  0  0  0  0  0  0  0
  141.6200   79.9240  223.0710 C   0  0  0  0  0  0  0  0  0  0  0  0
  142.9650   80.7100  223.8390 Cl  0  0  0  0  0  0  0  0  0  0  0  0
  141.8540   79.0690  221.9900 C   0  0  0  0  0  0  0  0  0  0  0  0
  140.2690   71.0780  223.6620 C   0  0  0  0  0  0  0  0  0  0  0  0
  139.5620   69.9060  223.4940 C   0  0  0  0  0  0  0  0  0  0  0  0
  139.3540   69.1280  224.6370 C   0  0  0  0  0  0  0  0  0  0  0  0
  139.8360   69.5330  225.8460 C   0  0  0  0  0  0  0  0  0  0  0  0
  139.6350   68.7750  226.9710 C   0  0  0  0  0  0  0  0  0  0  0  0
  140.1080   69.1500  228.2140 C   0  0  0  0  0  0  0  0  0  0  0  0
  140.8160   70.3450  228.3200 C   0  0  0  0  0  0  0  0  0  0  0  0
  141.0280   71.1220  227.1980 C   0  0  0  0  0  0  0  0  0  0  0  0
  140.5400   70.7150  225.9730 C   0  0  0  0  0  0  0  0  0  0  0  0
  140.7360   71.4580  224.8680 N   0  0  0  0  0  0  0  0  0  0  0  0
  139.3980   73.6370  223.1410 H   0  0  0  0  0  0  0  0  0  0  0  0
  141.2147   73.5510  220.7116 H   0  0  0  0  0  0  0  0  0  0  0  0
  139.4594   73.8027  220.4208 H   0  0  0  0  0  0  0  0  0  0  0  0
  143.4218   75.9893  220.7043 H   0  0  0  0  0  0  0  0  0  0  0  0
  142.6839   74.6645  219.8663 H   0  0  0  0  0  0  0  0  0  0  0  0
  143.6201   76.6473  218.3344 H   0  0  0  0  0  0  0  0  0  0  0  0
  141.9904   76.2153  217.9435 H   0  0  0  0  0  0  0  0  0  0  0  0
  142.9703   78.3896  219.9375 H   0  0  0  0  0  0  0  0  0  0  0  0
  141.9257   78.6815  218.5777 H   0  0  0  0  0  0  0  0  0  0  0  0
  140.0453   77.5572  219.6596 H   0  0  0  0  0  0  0  0  0  0  0  0
  138.6786   78.1276  221.2944 H   0  0  0  0  0  0  0  0  0  0  0  0
  138.2759   79.6455  223.2136 H   0  0  0  0  0  0  0  0  0  0  0  0
  140.1230   80.8019  224.3591 H   0  0  0  0  0  0  0  0  0  0  0  0
  142.8849   78.9074  221.6418 H   0  0  0  0  0  0  0  0  0  0  0  0
  139.1804   69.5983  222.5092 H   0  0  0  0  0  0  0  0  0  0  0  0
  138.7974   68.1823  224.5600 H   0  0  0  0  0  0  0  0  0  0  0  0
  139.0757   67.8322  226.8804 H   0  0  0  0  0  0  0  0  0  0  0  0
  139.9298   68.5203  229.0982 H   0  0  0  0  0  0  0  0  0  0  0  0
  141.2057   70.6694  229.2961 H   0  0  0  0  0  0  0  0  0  0  0  0
  141.5864   72.0661  227.2809 H   0  0  0  0  0  0  0  0  0  0  0  0
  1  2  2  0
  2  3  1  0
  3  4  1  0
  4  5  1  0
  5  6  2  0
  5  7  1  0
  7  8  1  0
  8  9  1  0
  9 10  1  0
 10 11  1  0
 11 12  1  0
 12 13  2  0
 13 14  1  0
 14 15  2  0
 15 16  1  0
 16 17  1  0
 16 18  2  0
  2 19  1  0
 19 20  2  0
 20 21  1  0
 21 22  2  0
 22 23  1  0
 23 24  2  0
 24 25  1  0
 25 26  2  0
 26 27  1  0
 27 28  2  0
 11  7  1  0
 18 12  1  0
 28 19  1  0
 27 22  1  0
  3 29  1  0
  4 30  1  0
  4 31  1  0
  8 32  1  0
  8 33  1  0
  9 34  1  0
  9 35  1  0
 10 36  1  0
 10 37  1  0
 11 38  1  6
 13 39  1  0
 14 40  1  0
 15 41  1  0
 18 42  1  0
 20 43  1  0
 21 44  1  0
 23 45  1  0
 24 46  1  0
 25 47  1  0
 26 48  1  0
M  END
>  <smiles>  (17) 
O=C(NCC(=O)N1CCCC1c1cccc(Cl)c1)c1ccc2ccccc2n1

>  <score_type>  (17) 
oracle

>  <origin>  (17) 
autodockgpu

>  <m_score__min__energy>  (17) 
-9.4700000000000006

>  <m_primary>  (17) 
energy

>  <rmsd>  (17) 
2.0593087178458833

>  <m_score__min__rmsd>  (17) 
2.0593087178458833

>  <meeko>  (17) 
{"free_energy": -9.33, "intermolecular_energy": -10.82, "internal_energy": -1.58, "cluster_size": 31, "cluster_id": 1, "rank_in_cluster": 6}

>  <energy>  (17) 
-9.25

>  <cluster_rmsd>  (17) 
0.94

>  <cluster>  (17) 
1

$$$$

     RDKit          3D

 48 51  0  0  0  0  0  0  0  0999 V2000
  141.2850   71.7740  221.4990 O   0  0  0  0  0  0  0  0  0  0  0  0
  140.5800   72.2110  222.4660 C   0  0  0  0  0  0  0  0  0  0  0  0
  140.1080   73.5480  222.3400 N   0  0  0  0  0  0  0  0  0  0  0  0
  140.4860   74.2550  221.1240 C   0  0  0  0  0  0  0  0  0  0  0  0
  140.5270   75.7030  221.3890 C   0  0  0  0  0  0  0  0  0  0  0  0
  139.9040   76.1530  222.3920 O   0  0  0  0  0  0  0  0  0  0  0  0
  141.2680   76.5520  220.5050 N   0  0  0  0  0  0  0  0  0  0  0  0
  142.4440   76.1690  219.7120 C   0  0  0  0  0  0  0  0  0  0  0  0
  142.2990   77.1210  218.5340 C   0  0  0  0  0  0  0  0  0  0  0  0
  141.9840   78.4040  219.2730 C   0  0  0  0  0  0  0  0  0  0  0  0
  140.9490   77.9260  220.2700 C   0  0  2  0  0  0  0  0  0  0  0  0
  140.9620   78.7430  221.5080 C   0  0  0  0  0  0  0  0  0  0  0  0
  142.1940   79.0510  222.0430 C   0  0  0  0  0  0  0  0  0  0  0  0
  142.2480   79.8150  223.2040 C   0  0  0  0  0  0  0  0  0  0  0  0
  141.1240   80.2740  223.8390 C   0  0  0  0  0  0  0  0  0  0  0  0
  139.8910   79.9630  223.2990 C   0  0  0  0  0  0  0  0  0  0  0  0
  138.4220   80.5100  224.0480 Cl  0  0  0  0  0  0  0  0  0  0  0  0
  139.8200   79.1960  222.1330 C   0  0  0  0  0  0  0  0  0  0  0  0
  140.2770   71.3880  223.6330 C   0  0  0  0  0  0  0  0  0  0  0  0
  139.5640   70.2240  223.4310 C   0  0  0  0  0  0  0  0  0  0  0  0
  139.2850   69.4530  224.5630 C   0  0  0  0  0  0  0  0  0  0  0  0
  139.7080   69.8540  225.7950 C   0  0  0  0  0  0  0  0  0  0  0  0
  139.4380   69.1030  226.9090 C   0  0  0  0  0  0  0  0  0  0  0  0
  139.8500   69.4740  228.1740 C   0  0  0  0  0  0  0  0  0  0  0  0
  140.5670   70.6600  228.3150 C   0  0  0  0  0  0  0  0  0  0  0  0
  140.8490   71.4310  227.2040 C   0  0  0  0  0  0  0  0  0  0  0  0
  140.4210   71.0280  225.9560 C   0  0  0  0  0  0  0  0  0  0  0  0
  140.6850   71.7640  224.8610 N   0  0  0  0  0  0  0  0  0  0  0  0
  139.5230   73.9790  223.0920 H   0  0  0  0  0  0  0  0  0  0  0  0
  141.4791   73.9143  220.7957 H   0  0  0  0  0  0  0  0  0  0  0  0
  139.7474   74.0479  220.3356 H   0  0  0  0  0  0  0  0  0  0  0  0
  143.3803   76.3425  220.2627 H   0  0  0  0  0  0  0  0  0  0  0  0
  142.4894   75.1040  219.4406 H   0  0  0  0  0  0  0  0  0  0  0  0
  143.2315   77.2008  217.9560 H   0  0  0  0  0  0  0  0  0  0  0  0
  141.5516   76.8216  217.7845 H   0  0  0  0  0  0  0  0  0  0  0  0
  142.8742   78.8065  219.7785 H   0  0  0  0  0  0  0  0  0  0  0  0
  141.6404   79.2241  218.6254 H   0  0  0  0  0  0  0  0  0  0  0  0
  139.9229   78.0319  219.8881 H   0  0  0  0  0  0  0  0  0  0  0  0
  143.1179   78.6991  221.5607 H   0  0  0  0  0  0  0  0  0  0  0  0
  143.2323   80.0605  223.6293 H   0  0  0  0  0  0  0  0  0  0  0  0
  141.2015   80.8756  224.7566 H   0  0  0  0  0  0  0  0  0  0  0  0
  138.8363   78.9496  221.7068 H   0  0  0  0  0  0  0  0  0  0  0  0
  139.2314   69.9178  222.4282 H   0  0  0  0  0  0  0  0  0  0  0  0
  138.7196   68.5152  224.4587 H   0  0  0  0  0  0  0  0  0  0  0  0
  138.8708   68.1679  226.7911 H   0  0  0  0  0  0  0  0  0  0  0  0
  139.6177   68.8484  229.0485 H   0  0  0  0  0  0  0  0  0  0  0  0
  140.9082   70.9822  229.3099 H   0  0  0  0  0  0  0  0  0  0  0  0
  141.4155   72.3674  227.3146 H   0  0  0  0  0  0  0  0  0  0  0  0
  1  2  2  0
  2  3  1  0
  3  4  1  0
  4  5  1  0
  5  6  2  0
  5  7  1  0
  7  8  1  0
  8  9  1  0
  9 10  1  0
 10 11  1  0
 11 12  1  0
 12 13  2  0
 13 14  1  0
 14 15  2  0
 15 16  1  0
 16 17  1  0
 16 18  2  0
  2 19  1  0
 19 20  2  0
 20 21  1  0
 21 22  2  0
 22 23  1  0
 23 24  2  0
 24 25  1  0
 25 26  2  0
 26 27  1  0
 27 28  2  0
 11  7  1  0
 18 12  1  0
 28 19  1  0
 27 22  1  0
  3 29  1  0
  4 30  1  0
  4 31  1  0
  8 32  1  0
  8 33  1  0
  9 34  1  0
  9 35  1  0
 10 36  1  0
 10 37  1  0
 11 38  1  6
 13 39  1  0
 14 40  1  0
 15 41  1  0
 18 42  1  0
 20 43  1  0
 21 44  1  0
 23 45  1  0
 24 46  1  0
 25 47  1  0
 26 48  1  0
M  END
>  <smiles>  (18) 
O=C(NCC(=O)N1CCCC1c1cccc(Cl)c1)c1ccc2ccccc2n1

>  <score_type>  (18) 
oracle

>  <origin>  (18) 
autodockgpu

>  <m_score__min__energy>  (18) 
-9.4700000000000006

>  <m_primary>  (18) 
energy

>  <rmsd>  (18) 
2.133108367634044

>  <m_score__min__rmsd>  (18) 
2.133108367634044

>  <meeko>  (18) 
{"free_energy": -9.23, "intermolecular_energy": -10.72, "internal_energy": -1.7, "cluster_size": 31, "cluster_id": 1, "rank_in_cluster": 20}

>  <energy>  (18) 
-9.25

>  <cluster_rmsd>  (18) 
0.33

>  <cluster>  (18) 
1

$$$$

     RDKit          3D

 48 51  0  0  0  0  0  0  0  0999 V2000
  140.7260   73.8870  221.5470 O   0  0  0  0  0  0  0  0  0  0  0  0
  139.6890   74.4250  222.0570 C   0  0  0  0  0  0  0  0  0  0  0  0
  138.6090   73.5450  222.3460 N   0  0  0  0  0  0  0  0  0  0  0  0
  138.8160   72.1390  222.0260 C   0  0  0  0  0  0  0  0  0  0  0  0
  137.9650   71.3060  222.8940 C   0  0  0  0  0  0  0  0  0  0  0  0
  137.2000   71.8790  223.7200 O   0  0  0  0  0  0  0  0  0  0  0  0
  138.0330   69.8810  222.7740 N   0  0  0  0  0  0  0  0  0  0  0  0
  136.9940   69.0040  222.2170 C   0  0  0  0  0  0  0  0  0  0  0  0
  137.8560   67.8670  221.6860 C   0  0  0  0  0  0  0  0  0  0  0  0
  138.7840   67.6700  222.8650 C   0  0  0  0  0  0  0  0  0  0  0  0
  139.1570   69.1010  223.1920 C   0  0  2  0  0  0  0  0  0  0  0  0
  139.4740   69.2700  224.6310 C   0  0  0  0  0  0  0  0  0  0  0  0
  139.1730   68.2160  225.4680 C   0  0  0  0  0  0  0  0  0  0  0  0
  139.4560   68.3370  226.8240 C   0  0  0  0  0  0  0  0  0  0  0  0
  140.0230   69.4620  227.3640 C   0  0  0  0  0  0  0  0  0  0  0  0
  140.3230   70.5150  226.5220 C   0  0  0  0  0  0  0  0  0  0  0  0
  141.0410   71.9730  227.1330 Cl  0  0  0  0  0  0  0  0  0  0  0  0
  140.0450   70.4090  225.1560 C   0  0  0  0  0  0  0  0  0  0  0  0
  139.6160   75.8580  222.3260 C   0  0  0  0  0  0  0  0  0  0  0  0
  138.3650   76.4310  222.4200 C   0  0  0  0  0  0  0  0  0  0  0  0
  138.3200   77.8050  222.6770 C   0  0  0  0  0  0  0  0  0  0  0  0
  139.4720   78.5190  222.8240 C   0  0  0  0  0  0  0  0  0  0  0  0
  139.4350   79.8650  223.0770 C   0  0  0  0  0  0  0  0  0  0  0  0
  140.5800   80.6230  223.2330 C   0  0  0  0  0  0  0  0  0  0  0  0
  141.8150   79.9880  223.1280 C   0  0  0  0  0  0  0  0  0  0  0  0
  141.8720   78.6320  222.8740 C   0  0  0  0  0  0  0  0  0  0  0  0
  140.7080   77.9070  222.7230 C   0  0  0  0  0  0  0  0  0  0  0  0
  140.7410   76.5840  222.4750 N   0  0  0  0  0  0  0  0  0  0  0  0
  137.7230   73.9100  222.7660 H   0  0  0  0  0  0  0  0  0  0  0  0
  138.5519   71.9600  220.9733 H   0  0  0  0  0  0  0  0  0  0  0  0
  139.8720   71.8780  222.1892 H   0  0  0  0  0  0  0  0  0  0  0  0
  136.2951   68.6573  222.9924 H   0  0  0  0  0  0  0  0  0  0  0  0
  136.3436   69.4783  221.4673 H   0  0  0  0  0  0  0  0  0  0  0  0
  137.2608   66.9653  221.4795 H   0  0  0  0  0  0  0  0  0  0  0  0
  138.3586   68.0736  220.7296 H   0  0  0  0  0  0  0  0  0  0  0  0
  138.2678   67.1860  223.7072 H   0  0  0  0  0  0  0  0  0  0  0  0
  139.6442   67.0168  222.6568 H   0  0  0  0  0  0  0  0  0  0  0  0
  140.0734   69.4209  222.6744 H   0  0  0  0  0  0  0  0  0  0  0  0
  138.7177   67.2970  225.0704 H   0  0  0  0  0  0  0  0  0  0  0  0
  139.2150   67.4957  227.4904 H   0  0  0  0  0  0  0  0  0  0  0  0
  140.2340   69.5247  228.4418 H   0  0  0  0  0  0  0  0  0  0  0  0
  140.2863   71.2495  224.4886 H   0  0  0  0  0  0  0  0  0  0  0  0
  137.4475   75.8364  222.2988 H   0  0  0  0  0  0  0  0  0  0  0  0
  137.3481   78.3132  222.7611 H   0  0  0  0  0  0  0  0  0  0  0  0
  138.4567   80.3612  223.1591 H   0  0  0  0  0  0  0  0  0  0  0  0
  140.5174   81.7024  223.4353 H   0  0  0  0  0  0  0  0  0  0  0  0
  142.7435   80.5657  223.2472 H   0  0  0  0  0  0  0  0  0  0  0  0
  142.8468   78.1291  222.7919 H   0  0  0  0  0  0  0  0  0  0  0  0
  1  2  2  0
  2  3  1  0
  3  4  1  0
  4  5  1  0
  5  6  2  0
  5  7  1  0
  7  8  1  0
  8  9  1  0
  9 10  1  0
 10 11  1  0
 11 12  1  0
 12 13  2  0
 13 14  1  0
 14 15  2  0
 15 16  1  0
 16 17  1  0
 16 18  2  0
  2 19  1  0
 19 20  2  0
 20 21  1  0
 21 22  2  0
 22 23  1  0
 23 24  2  0
 24 25  1  0
 25 26  2  0
 26 27  1  0
 27 28  2  0
 11  7  1  0
 18 12  1  0
 28 19  1  0
 27 22  1  0
  3 29  1  0
  4 30  1  0
  4 31  1  0
  8 32  1  0
  8 33  1  0
  9 34  1  0
  9 35  1  0
 10 36  1  0
 10 37  1  0
 11 38  1  6
 13 39  1  0
 14 40  1  0
 15 41  1  0
 18 42  1  0
 20 43  1  0
 21 44  1  0
 23 45  1  0
 24 46  1  0
 25 47  1  0
 26 48  1  0
M  END
>  <smiles>  (19) 
O=C(NCC(=O)N1CCCC1c1cccc(Cl)c1)c1ccc2ccccc2n1

>  <score_type>  (19) 
oracle

>  <origin>  (19) 
autodockgpu

>  <m_score__min__energy>  (19) 
-9.4700000000000006

>  <m_primary>  (19) 
energy

>  <rmsd>  (19) 
8.242455921175361

>  <m_score__min__rmsd>  (19) 
8.242455921175361

>  <meeko>  (19) 
{"free_energy": -8.34, "intermolecular_energy": -9.84, "internal_energy": -1.76, "cluster_size": 1, "cluster_id": 3, "rank_in_cluster": 1}

>  <energy>  (19) 
-9.24

>  <cluster_rmsd>  (19) 
0.31

>  <cluster>  (19) 
1

$$$$

     RDKit          3D

 48 51  0  0  0  0  0  0  0  0999 V2000
  141.0660   71.4850  221.7730 O   0  0  0  0  0  0  0  0  0  0  0  0
  140.5170   71.9870  222.8080 C   0  0  0  0  0  0  0  0  0  0  0  0
  139.9880   73.3000  222.6580 N   0  0  0  0  0  0  0  0  0  0  0  0
  140.1360   73.9110  221.3440 C   0  0  0  0  0  0  0  0  0  0  0  0
  140.2360   75.3730  221.4890 C   0  0  0  0  0  0  0  0  0  0  0  0
  139.5090   75.9470  222.3490 O   0  0  0  0  0  0  0  0  0  0  0  0
  141.1500   76.0940  220.6560 N   0  0  0  0  0  0  0  0  0  0  0  0
  142.3640   75.5570  220.0250 C   0  0  0  0  0  0  0  0  0  0  0  0
  142.4440   76.4450  218.7910 C   0  0  0  0  0  0  0  0  0  0  0  0
  142.1760   77.7940  219.4230 C   0  0  0  0  0  0  0  0  0  0  0  0
  140.9950   77.4750  220.3160 C   0  0  2  0  0  0  0  0  0  0  0  0
  140.9510   78.3610  221.5040 C   0  0  0  0  0  0  0  0  0  0  0  0
  142.1590   78.7280  222.0590 C   0  0  0  0  0  0  0  0  0  0  0  0
  142.1590   79.5580  223.1740 C   0  0  0  0  0  0  0  0  0  0  0  0
  141.0050   80.0280  223.7460 C   0  0  0  0  0  0  0  0  0  0  0  0
  139.7970   79.6580  223.1870 C   0  0  0  0  0  0  0  0  0  0  0  0
  138.2940   80.2130  223.8570 Cl  0  0  0  0  0  0  0  0  0  0  0  0
  139.7800   78.8240  222.0660 C   0  0  0  0  0  0  0  0  0  0  0  0
  140.4380   71.2580  224.0700 C   0  0  0  0  0  0  0  0  0  0  0  0
  140.9240   71.8800  225.2020 C   0  0  0  0  0  0  0  0  0  0  0  0
  140.8380   71.1620  226.3990 C   0  0  0  0  0  0  0  0  0  0  0  0
  140.2970   69.9110  226.4190 C   0  0  0  0  0  0  0  0  0  0  0  0
  140.2100   69.2020  227.5880 C   0  0  0  0  0  0  0  0  0  0  0  0
  139.6680   67.9330  227.6500 C   0  0  0  0  0  0  0  0  0  0  0  0
  139.1940   67.3570  226.4730 C   0  0  0  0  0  0  0  0  0  0  0  0
  139.2730   68.0560  225.2840 C   0  0  0  0  0  0  0  0  0  0  0  0
  139.8210   69.3220  225.2620 C   0  0  0  0  0  0  0  0  0  0  0  0
  139.9080   70.0200  224.1140 N   0  0  0  0  0  0  0  0  0  0  0  0
  139.5220   73.7800  223.4610 H   0  0  0  0  0  0  0  0  0  0  0  0
  141.0475   73.5275  220.8622 H   0  0  0  0  0  0  0  0  0  0  0  0
  139.2611   73.6637  220.7248 H   0  0  0  0  0  0  0  0  0  0  0  0
  143.2460   75.6775  220.6711 H   0  0  0  0  0  0  0  0  0  0  0  0
  142.3350   74.4777  219.8147 H   0  0  0  0  0  0  0  0  0  0  0  0
  143.4380   76.4039  218.3217 H   0  0  0  0  0  0  0  0  0  0  0  0
  141.7585   76.1699  217.9759 H   0  0  0  0  0  0  0  0  0  0  0  0
  143.0398   78.1434  220.0075 H   0  0  0  0  0  0  0  0  0  0  0  0
  141.9881   78.6008  218.6993 H   0  0  0  0  0  0  0  0  0  0  0  0
  140.0330   77.6510  219.8124 H   0  0  0  0  0  0  0  0  0  0  0  0
  143.1054   78.3704  221.6271 H   0  0  0  0  0  0  0  0  0  0  0  0
  143.1236   79.8495  223.6152 H   0  0  0  0  0  0  0  0  0  0  0  0
  141.0401   80.6837  224.6285 H   0  0  0  0  0  0  0  0  0  0  0  0
  138.8159   78.5318  221.6242 H   0  0  0  0  0  0  0  0  0  0  0  0
  141.3575   72.8903  225.1646 H   0  0  0  0  0  0  0  0  0  0  0  0
  141.2100   71.6104  227.3320 H   0  0  0  0  0  0  0  0  0  0  0  0
  140.5866   69.6614  228.5138 H   0  0  0  0  0  0  0  0  0  0  0  0
  139.6119   67.3903  228.6052 H   0  0  0  0  0  0  0  0  0  0  0  0
  138.7576   66.3474  226.4906 H   0  0  0  0  0  0  0  0  0  0  0  0
  138.8987   67.6029  224.3542 H   0  0  0  0  0  0  0  0  0  0  0  0
  1  2  2  0
  2  3  1  0
  3  4  1  0
  4  5  1  0
  5  6  2  0
  5  7  1  0
  7  8  1  0
  8  9  1  0
  9 10  1  0
 10 11  1  0
 11 12  1  0
 12 13  2  0
 13 14  1  0
 14 15  2  0
 15 16  1  0
 16 17  1  0
 16 18  2  0
  2 19  1  0
 19 20  2  0
 20 21  1  0
 21 22  2  0
 22 23  1  0
 23 24  2  0
 24 25  1  0
 25 26  2  0
 26 27  1  0
 27 28  2  0
 11  7  1  0
 18 12  1  0
 28 19  1  0
 27 22  1  0
  3 29  1  0
  4 30  1  0
  4 31  1  0
  8 32  1  0
  8 33  1  0
  9 34  1  0
  9 35  1  0
 10 36  1  0
 10 37  1  0
 11 38  1  6
 13 39  1  0
 14 40  1  0
 15 41  1  0
 18 42  1  0
 20 43  1  0
 21 44  1  0
 23 45  1  0
 24 46  1  0
 25 47  1  0
 26 48  1  0
M  END
>  <smiles>  (20) 
O=C(NCC(=O)N1CCCC1c1cccc(Cl)c1)c1ccc2ccccc2n1

>  <score_type>  (20) 
oracle

>  <origin>  (20) 
autodockgpu

>  <m_score__min__energy>  (20) 
-9.4700000000000006

>  <m_primary>  (20) 
energy

>  <rmsd>  (20) 
3.0452442581672368

>  <m_score__min__rmsd>  (20) 
3.0452442581672368

>  <meeko>  (20) 
{"free_energy": -8.61, "intermolecular_energy": -10.1, "internal_energy": -1.51, "cluster_size": 31, "cluster_id": 1, "rank_in_cluster": 30}

>  <energy>  (20) 
-9.23

>  <cluster_rmsd>  (20) 
0.34

>  <cluster>  (20) 
1

$$$$

     RDKit          3D

 48 51  0  0  0  0  0  0  0  0999 V2000
  133.6420   70.1850  226.5890 O   0  0  0  0  0  0  0  0  0  0  0  0
  133.9420   71.3470  226.1630 C   0  0  0  0  0  0  0  0  0  0  0  0
  134.9720   71.4070  225.1830 N   0  0  0  0  0  0  0  0  0  0  0  0
  135.5590   70.1350  224.7840 C   0  0  0  0  0  0  0  0  0  0  0  0
  136.6400   70.3750  223.8130 C   0  0  0  0  0  0  0  0  0  0  0  0
  136.8590   71.5590  223.4310 O   0  0  0  0  0  0  0  0  0  0  0  0
  137.4050   69.2630  223.3340 N   0  0  0  0  0  0  0  0  0  0  0  0
  136.8760   68.0600  222.6770 C   0  0  0  0  0  0  0  0  0  0  0  0
  138.0610   67.6870  221.7990 C   0  0  0  0  0  0  0  0  0  0  0  0
  139.1870   67.8500  222.7980 C   0  0  0  0  0  0  0  0  0  0  0  0
  138.8290   69.1760  223.4350 C   0  0  2  0  0  0  0  0  0  0  0  0
  139.3160   69.2610  224.8340 C   0  0  0  0  0  0  0  0  0  0  0  0
  139.1630   68.1390  225.6210 C   0  0  0  0  0  0  0  0  0  0  0  0
  139.6070   68.1810  226.9380 C   0  0  0  0  0  0  0  0  0  0  0  0
  140.1910   69.2920  227.4870 C   0  0  0  0  0  0  0  0  0  0  0  0
  140.3420   70.4140  226.6950 C   0  0  0  0  0  0  0  0  0  0  0  0
  141.0720   71.8600  227.3210 Cl  0  0  0  0  0  0  0  0  0  0  0  0
  139.9010   70.3890  225.3690 C   0  0  0  0  0  0  0  0  0  0  0  0
  133.2680   72.5460  226.6550 C   0  0  0  0  0  0  0  0  0  0  0  0
  132.0470   72.3870  227.2760 C   0  0  0  0  0  0  0  0  0  0  0  0
  131.4200   73.5480  227.7370 C   0  0  0  0  0  0  0  0  0  0  0  0
  132.0090   74.7660  227.5690 C   0  0  0  0  0  0  0  0  0  0  0  0
  131.4000   75.9080  228.0190 C   0  0  0  0  0  0  0  0  0  0  0  0
  131.9650   77.1600  227.8680 C   0  0  0  0  0  0  0  0  0  0  0  0
  133.2000   77.2580  227.2320 C   0  0  0  0  0  0  0  0  0  0  0  0
  133.8300   76.1170  226.7720 C   0  0  0  0  0  0  0  0  0  0  0  0
  133.2350   74.8840  226.9410 C   0  0  0  0  0  0  0  0  0  0  0  0
  133.8310   73.7600  226.4990 N   0  0  0  0  0  0  0  0  0  0  0  0
  135.2750   72.3250  224.7850 H   0  0  0  0  0  0  0  0  0  0  0  0
  135.9680   69.6264  225.6694 H   0  0  0  0  0  0  0  0  0  0  0  0
  134.7856   69.5036  224.3223 H   0  0  0  0  0  0  0  0  0  0  0  0
  136.6430   67.2682  223.4042 H   0  0  0  0  0  0  0  0  0  0  0  0
  135.9303   68.2091  222.1353 H   0  0  0  0  0  0  0  0  0  0  0  0
  137.9876   66.6529  221.4312 H   0  0  0  0  0  0  0  0  0  0  0  0
  138.1648   68.2842  220.8811 H   0  0  0  0  0  0  0  0  0  0  0  0
  139.1901   67.0358  223.5376 H   0  0  0  0  0  0  0  0  0  0  0  0
  140.1922   67.8212  222.3523 H   0  0  0  0  0  0  0  0  0  0  0  0
  139.3119   70.0250  222.9291 H   0  0  0  0  0  0  0  0  0  0  0  0
  138.6986   67.2283  225.2147 H   0  0  0  0  0  0  0  0  0  0  0  0
  139.4843   67.2854  227.5648 H   0  0  0  0  0  0  0  0  0  0  0  0
  140.5314   69.2908  228.5330 H   0  0  0  0  0  0  0  0  0  0  0  0
  140.0227   71.2844  224.7417 H   0  0  0  0  0  0  0  0  0  0  0  0
  131.5889   71.3949  227.4024 H   0  0  0  0  0  0  0  0  0  0  0  0
  130.4438   73.4784  228.2392 H   0  0  0  0  0  0  0  0  0  0  0  0
  130.4240   75.8250  228.5196 H   0  0  0  0  0  0  0  0  0  0  0  0
  131.4513   78.0582  228.2414 H   0  0  0  0  0  0  0  0  0  0  0  0
  133.6732   78.2416  227.0960 H   0  0  0  0  0  0  0  0  0  0  0  0
  134.8063   76.1922  226.2709 H   0  0  0  0  0  0  0  0  0  0  0  0
  1  2  2  0
  2  3  1  0
  3  4  1  0
  4  5  1  0
  5  6  2  0
  5  7  1  0
  7  8  1  0
  8  9  1  0
  9 10  1  0
 10 11  1  0
 11 12  1  0
 12 13  2  0
 13 14  1  0
 14 15  2  0
 15 16  1  0
 16 17  1  0
 16 18  2  0
  2 19  1  0
 19 20  2  0
 20 21  1  0
 21 22  2  0
 22 23  1  0
 23 24  2  0
 24 25  1  0
 25 26  2  0
 26 27  1  0
 27 28  2  0
 11  7  1  0
 18 12  1  0
 28 19  1  0
 27 22  1  0
  3 29  1  0
  4 30  1  0
  4 31  1  0
  8 32  1  0
  8 33  1  0
  9 34  1  0
  9 35  1  0
 10 36  1  0
 10 37  1  0
 11 38  1  6
 13 39  1  0
 14 40  1  0
 15 41  1  0
 18 42  1  0
 20 43  1  0
 21 44  1  0
 23 45  1  0
 24 46  1  0
 25 47  1  0
 26 48  1  0
M  END
>  <smiles>  (21) 
O=C(NCC(=O)N1CCCC1c1cccc(Cl)c1)c1ccc2ccccc2n1

>  <score_type>  (21) 
oracle

>  <origin>  (21) 
autodockgpu

>  <m_score__min__energy>  (21) 
-9.4700000000000006

>  <m_primary>  (21) 
energy

>  <rmsd>  (21) 
8.782266446144217

>  <m_score__min__rmsd>  (21) 
8.782266446144217

>  <meeko>  (21) 
{"free_energy": -8.18, "intermolecular_energy": -9.68, "internal_energy": -2.02, "cluster_size": 1, "cluster_id": 4, "rank_in_cluster": 1}

>  <energy>  (21) 
-9.21

>  <cluster_rmsd>  (21) 
0.97

>  <cluster>  (21) 
1

$$$$

     RDKit          3D

 48 51  0  0  0  0  0  0  0  0999 V2000
  141.3680   71.8400  221.6010 O   0  0  0  0  0  0  0  0  0  0  0  0
  140.5600   72.1820  222.5240 C   0  0  0  0  0  0  0  0  0  0  0  0
  139.9300   73.4480  222.3660 N   0  0  0  0  0  0  0  0  0  0  0  0
  140.2840   74.2010  221.1710 C   0  0  0  0  0  0  0  0  0  0  0  0
  140.5780   75.5970  221.5370 C   0  0  0  0  0  0  0  0  0  0  0  0
  140.1800   76.0250  222.6580 O   0  0  0  0  0  0  0  0  0  0  0  0
  141.3030   76.4210  220.6170 N   0  0  0  0  0  0  0  0  0  0  0  0
  142.5610   76.0730  219.9420 C   0  0  0  0  0  0  0  0  0  0  0  0
  142.4170   76.8880  218.6640 C   0  0  0  0  0  0  0  0  0  0  0  0
  141.9400   78.2020  219.2450 C   0  0  0  0  0  0  0  0  0  0  0  0
  140.8830   77.7290  220.2210 C   0  0  2  0  0  0  0  0  0  0  0  0
  140.7380   78.6610  221.3660 C   0  0  0  0  0  0  0  0  0  0  0  0
  139.4560   78.9330  221.7950 C   0  0  0  0  0  0  0  0  0  0  0  0
  139.2790   79.8020  222.8660 C   0  0  0  0  0  0  0  0  0  0  0  0
  140.3280   80.4020  223.5130 C   0  0  0  0  0  0  0  0  0  0  0  0
  141.6100   80.1270  223.0790 C   0  0  0  0  0  0  0  0  0  0  0  0
  142.9890   80.8490  223.8490 Cl  0  0  0  0  0  0  0  0  0  0  0  0
  141.8050   79.2550  222.0040 C   0  0  0  0  0  0  0  0  0  0  0  0
  140.2970   71.3230  223.6760 C   0  0  0  0  0  0  0  0  0  0  0  0
  139.6210   70.1410  223.4540 C   0  0  0  0  0  0  0  0  0  0  0  0
  139.3800   69.3360  224.5720 C   0  0  0  0  0  0  0  0  0  0  0  0
  139.8040   69.7230  225.8080 C   0  0  0  0  0  0  0  0  0  0  0  0
  139.5720   68.9380  226.9070 C   0  0  0  0  0  0  0  0  0  0  0  0
  139.9860   69.2950  228.1760 C   0  0  0  0  0  0  0  0  0  0  0  0
  140.6660   70.5000  228.3370 C   0  0  0  0  0  0  0  0  0  0  0  0
  140.9090   71.3040  227.2400 C   0  0  0  0  0  0  0  0  0  0  0  0
  140.4800   70.9150  225.9880 C   0  0  0  0  0  0  0  0  0  0  0  0
  140.7070   71.6850  224.9070 N   0  0  0  0  0  0  0  0  0  0  0  0
  139.2540   73.7990  223.0820 H   0  0  0  0  0  0  0  0  0  0  0  0
  141.1718   73.7501  220.7036 H   0  0  0  0  0  0  0  0  0  0  0  0
  139.4434   74.1781  220.4618 H   0  0  0  0  0  0  0  0  0  0  0  0
  143.4377   76.3861  220.5280 H   0  0  0  0  0  0  0  0  0  0  0  0
  142.7177   74.9954  219.7863 H   0  0  0  0  0  0  0  0  0  0  0  0
  143.3775   76.9980  218.1392 H   0  0  0  0  0  0  0  0  0  0  0  0
  141.7533   76.4479  217.9052 H   0  0  0  0  0  0  0  0  0  0  0  0
  142.7539   78.7339  219.7595 H   0  0  0  0  0  0  0  0  0  0  0  0
  141.5727   78.9188  218.4958 H   0  0  0  0  0  0  0  0  0  0  0  0
  139.8811   77.7002  219.7678 H   0  0  0  0  0  0  0  0  0  0  0  0
  138.5895   78.4711  221.2992 H   0  0  0  0  0  0  0  0  0  0  0  0
  138.2558   80.0167  223.2079 H   0  0  0  0  0  0  0  0  0  0  0  0
  140.1531   81.0855  224.3569 H   0  0  0  0  0  0  0  0  0  0  0  0
  142.8278   79.0393  221.6616 H   0  0  0  0  0  0  0  0  0  0  0  0
  139.2882   69.8464  222.4478 H   0  0  0  0  0  0  0  0  0  0  0  0
  138.8440   68.3829  224.4527 H   0  0  0  0  0  0  0  0  0  0  0  0
  139.0355   67.9870  226.7738 H   0  0  0  0  0  0  0  0  0  0  0  0
  139.7834   68.6431  229.0386 H   0  0  0  0  0  0  0  0  0  0  0  0
  141.0087   70.8107  229.3350 H   0  0  0  0  0  0  0  0  0  0  0  0
  141.4455   72.2561  227.3652 H   0  0  0  0  0  0  0  0  0  0  0  0
  1  2  2  0
  2  3  1  0
  3  4  1  0
  4  5  1  0
  5  6  2  0
  5  7  1  0
  7  8  1  0
  8  9  1  0
  9 10  1  0
 10 11  1  0
 11 12  1  0
 12 13  2  0
 13 14  1  0
 14 15  2  0
 15 16  1  0
 16 17  1  0
 16 18  2  0
  2 19  1  0
 19 20  2  0
 20 21  1  0
 21 22  2  0
 22 23  1  0
 23 24  2  0
 24 25  1  0
 25 26  2  0
 26 27  1  0
 27 28  2  0
 11  7  1  0
 18 12  1  0
 28 19  1  0
 27 22  1  0
  3 29  1  0
  4 30  1  0
  4 31  1  0
  8 32  1  0
  8 33  1  0
  9 34  1  0
  9 35  1  0
 10 36  1  0
 10 37  1  0
 11 38  1  6
 13 39  1  0
 14 40  1  0
 15 41  1  0
 18 42  1  0
 20 43  1  0
 21 44  1  0
 23 45  1  0
 24 46  1  0
 25 47  1  0
 26 48  1  0
M  END
>  <smiles>  (22) 
O=C(NCC(=O)N1CCCC1c1cccc(Cl)c1)c1ccc2ccccc2n1

>  <score_type>  (22) 
oracle

>  <origin>  (22) 
autodockgpu

>  <m_score__min__energy>  (22) 
-9.4700000000000006

>  <m_primary>  (22) 
energy

>  <rmsd>  (22) 
2.0999063090098895

>  <m_score__min__rmsd>  (22) 
2.0999063090098895

>  <meeko>  (22) 
{"free_energy": -9.28, "intermolecular_energy": -10.77, "internal_energy": -1.58, "cluster_size": 31, "cluster_id": 1, "rank_in_cluster": 14}

>  <energy>  (22) 
-9.2

>  <cluster_rmsd>  (22) 
0.97

>  <cluster>  (22) 
1

$$$$

     RDKit          3D

 48 51  0  0  0  0  0  0  0  0999 V2000
  141.2790   71.9030  221.5410 O   0  0  0  0  0  0  0  0  0  0  0  0
  140.5310   72.2950  222.4950 C   0  0  0  0  0  0  0  0  0  0  0  0
  139.9530   73.5870  222.3460 N   0  0  0  0  0  0  0  0  0  0  0  0
  140.2840   74.3060  221.1240 C   0  0  0  0  0  0  0  0  0  0  0  0
  140.4760   75.7340  221.4290 C   0  0  0  0  0  0  0  0  0  0  0  0
  139.8950   76.2200  222.4400 O   0  0  0  0  0  0  0  0  0  0  0  0
  141.3100   76.5230  220.5740 N   0  0  0  0  0  0  0  0  0  0  0  0
  142.5120   76.0630  219.8640 C   0  0  0  0  0  0  0  0  0  0  0  0
  142.4860   76.9910  218.6580 C   0  0  0  0  0  0  0  0  0  0  0  0
  142.1920   78.3060  219.3470 C   0  0  0  0  0  0  0  0  0  0  0  0
  141.0760   77.9040  220.2880 C   0  0  2  0  0  0  0  0  0  0  0  0
  141.0550   78.7510  221.5060 C   0  0  0  0  0  0  0  0  0  0  0  0
  142.2730   79.0890  222.0560 C   0  0  0  0  0  0  0  0  0  0  0  0
  142.2950   79.8820  223.1990 C   0  0  0  0  0  0  0  0  0  0  0  0
  141.1530   80.3400  223.8020 C   0  0  0  0  0  0  0  0  0  0  0  0
  139.9350   79.9980  223.2490 C   0  0  0  0  0  0  0  0  0  0  0  0
  138.4450   80.5420  223.9570 Cl  0  0  0  0  0  0  0  0  0  0  0  0
  139.8960   79.2030  222.1000 C   0  0  0  0  0  0  0  0  0  0  0  0
  140.2840   71.4650  223.6720 C   0  0  0  0  0  0  0  0  0  0  0  0
  139.6100   70.2760  223.4880 C   0  0  0  0  0  0  0  0  0  0  0  0
  139.3850   69.4990  224.6290 C   0  0  0  0  0  0  0  0  0  0  0  0
  139.8200   69.9200  225.8500 C   0  0  0  0  0  0  0  0  0  0  0  0
  139.6030   69.1630  226.9710 C   0  0  0  0  0  0  0  0  0  0  0  0
  140.0300   69.5540  228.2260 C   0  0  0  0  0  0  0  0  0  0  0  0
  140.7060   70.7660  228.3480 C   0  0  0  0  0  0  0  0  0  0  0  0
  140.9340   71.5420  227.2290 C   0  0  0  0  0  0  0  0  0  0  0  0
  140.4930   71.1190  225.9920 C   0  0  0  0  0  0  0  0  0  0  0  0
  140.7060   71.8610  224.8890 N   0  0  0  0  0  0  0  0  0  0  0  0
  139.3280   73.9790  223.0870 H   0  0  0  0  0  0  0  0  0  0  0  0
  141.2105   73.8949  220.6966 H   0  0  0  0  0  0  0  0  0  0  0  0
  139.4636   74.1937  220.3998 H   0  0  0  0  0  0  0  0  0  0  0  0
  143.4207   76.2050  220.4675 H   0  0  0  0  0  0  0  0  0  0  0  0
  142.5209   74.9904  219.6200 H   0  0  0  0  0  0  0  0  0  0  0  0
  143.4544   77.0105  218.1366 H   0  0  0  0  0  0  0  0  0  0  0  0
  141.7708   76.7094  217.8711 H   0  0  0  0  0  0  0  0  0  0  0  0
  143.0690   78.6772  219.8975 H   0  0  0  0  0  0  0  0  0  0  0  0
  141.9303   79.1255  218.6614 H   0  0  0  0  0  0  0  0  0  0  0  0
  140.0819   78.0494  219.8400 H   0  0  0  0  0  0  0  0  0  0  0  0
  143.2103   78.7382  221.5996 H   0  0  0  0  0  0  0  0  0  0  0  0
  143.2677   80.1520  223.6359 H   0  0  0  0  0  0  0  0  0  0  0  0
  141.2054   80.9654  224.7054 H   0  0  0  0  0  0  0  0  0  0  0  0
  138.9236   78.9333  221.6621 H   0  0  0  0  0  0  0  0  0  0  0  0
  139.2665   69.9548  222.4936 H   0  0  0  0  0  0  0  0  0  0  0  0
  138.8527   68.5405  224.5401 H   0  0  0  0  0  0  0  0  0  0  0  0
  139.0683   68.2072  226.8683 H   0  0  0  0  0  0  0  0  0  0  0  0
  139.8407   68.9234  229.1072 H   0  0  0  0  0  0  0  0  0  0  0  0
  141.0574   71.1041  229.3340 H   0  0  0  0  0  0  0  0  0  0  0  0
  141.4681   72.4990  227.3239 H   0  0  0  0  0  0  0  0  0  0  0  0
  1  2  2  0
  2  3  1  0
  3  4  1  0
  4  5  1  0
  5  6  2  0
  5  7  1  0
  7  8  1  0
  8  9  1  0
  9 10  1  0
 10 11  1  0
 11 12  1  0
 12 13  2  0
 13 14  1  0
 14 15  2  0
 15 16  1  0
 16 17  1  0
 16 18  2  0
  2 19  1  0
 19 20  2  0
 20 21  1  0
 21 22  2  0
 22 23  1  0
 23 24  2  0
 24 25  1  0
 25 26  2  0
 26 27  1  0
 27 28  2  0
 11  7  1  0
 18 12  1  0
 28 19  1  0
 27 22  1  0
  3 29  1  0
  4 30  1  0
  4 31  1  0
  8 32  1  0
  8 33  1  0
  9 34  1  0
  9 35  1  0
 10 36  1  0
 10 37  1  0
 11 38  1  6
 13 39  1  0
 14 40  1  0
 15 41  1  0
 18 42  1  0
 20 43  1  0
 21 44  1  0
 23 45  1  0
 24 46  1  0
 25 47  1  0
 26 48  1  0
M  END
>  <smiles>  (23) 
O=C(NCC(=O)N1CCCC1c1cccc(Cl)c1)c1ccc2ccccc2n1

>  <score_type>  (23) 
oracle

>  <origin>  (23) 
autodockgpu

>  <m_score__min__energy>  (23) 
-9.4700000000000006

>  <m_primary>  (23) 
energy

>  <rmsd>  (23) 
2.1485828650106864

>  <m_score__min__rmsd>  (23) 
2.1485828650106864

>  <meeko>  (23) 
{"free_energy": -9.34, "intermolecular_energy": -10.83, "internal_energy": -1.61, "cluster_size": 31, "cluster_id": 1, "rank_in_cluster": 4}

>  <energy>  (23) 
-9.15

>  <cluster_rmsd>  (23) 
1.14

>  <cluster>  (23) 
1

$$$$

     RDKit          3D

 48 51  0  0  0  0  0  0  0  0999 V2000
  141.3850   72.0490  221.7960 O   0  0  0  0  0  0  0  0  0  0  0  0
  140.4150   72.1860  222.6100 C   0  0  0  0  0  0  0  0  0  0  0  0
  139.5310   73.2700  222.3500 N   0  0  0  0  0  0  0  0  0  0  0  0
  139.8380   74.0910  221.1870 C   0  0  0  0  0  0  0  0  0  0  0  0
  140.1420   75.4660  221.6210 C   0  0  0  0  0  0  0  0  0  0  0  0
  141.3520   75.8050  221.7520 O   0  0  0  0  0  0  0  0  0  0  0  0
  139.0620   76.3690  221.8790 N   0  0  0  0  0  0  0  0  0  0  0  0
  137.7090   76.2950  221.3090 C   0  0  0  0  0  0  0  0  0  0  0  0
  136.9070   76.9450  222.4280 C   0  0  0  0  0  0  0  0  0  0  0  0
  137.7890   78.1400  222.7200 C   0  0  0  0  0  0  0  0  0  0  0  0
  139.1600   77.4960  222.7540 C   0  0  2  0  0  0  0  0  0  0  0  0
  140.2230   78.4490  222.3520 C   0  0  0  0  0  0  0  0  0  0  0  0
  140.4230   78.6330  221.0000 C   0  0  0  0  0  0  0  0  0  0  0  0
  141.4110   79.5190  220.5840 C   0  0  0  0  0  0  0  0  0  0  0  0
  142.1960   80.2170  221.4640 C   0  0  0  0  0  0  0  0  0  0  0  0
  141.9930   80.0300  222.8170 C   0  0  0  0  0  0  0  0  0  0  0  0
  142.9490   80.8790  223.9920 Cl  0  0  0  0  0  0  0  0  0  0  0  0
  141.0030   79.1430  223.2520 C   0  0  0  0  0  0  0  0  0  0  0  0
  140.2250   71.2840  223.7430 C   0  0  0  0  0  0  0  0  0  0  0  0
  139.5420   70.1070  223.5180 C   0  0  0  0  0  0  0  0  0  0  0  0
  139.3710   69.2600  224.6170 C   0  0  0  0  0  0  0  0  0  0  0  0
  139.8660   69.6040  225.8400 C   0  0  0  0  0  0  0  0  0  0  0  0
  139.7030   68.7780  226.9210 C   0  0  0  0  0  0  0  0  0  0  0  0
  140.1910   69.0910  228.1750 C   0  0  0  0  0  0  0  0  0  0  0  0
  140.8730   70.2940  228.3400 C   0  0  0  0  0  0  0  0  0  0  0  0
  141.0480   71.1390  227.2620 C   0  0  0  0  0  0  0  0  0  0  0  0
  140.5460   70.7940  226.0240 C   0  0  0  0  0  0  0  0  0  0  0  0
  140.7050   71.6030  224.9600 N   0  0  0  0  0  0  0  0  0  0  0  0
  138.7100   73.4490  222.9730 H   0  0  0  0  0  0  0  0  0  0  0  0
  140.7088   73.6715  220.6619 H   0  0  0  0  0  0  0  0  0  0  0  0
  138.9717   74.1042  220.5093 H   0  0  0  0  0  0  0  0  0  0  0  0
  137.6313   76.8625  220.3699 H   0  0  0  0  0  0  0  0  0  0  0  0
  137.3795   75.2820  221.0346 H   0  0  0  0  0  0  0  0  0  0  0  0
  135.9056   77.2492  222.0895 H   0  0  0  0  0  0  0  0  0  0  0  0
  136.7046   76.2951  223.2921 H   0  0  0  0  0  0  0  0  0  0  0  0
  137.7190   78.8962  221.9242 H   0  0  0  0  0  0  0  0  0  0  0  0
  137.5231   78.6821  223.6395 H   0  0  0  0  0  0  0  0  0  0  0  0
  139.4477   77.1827  223.7684 H   0  0  0  0  0  0  0  0  0  0  0  0
  139.8124   78.0891  220.2642 H   0  0  0  0  0  0  0  0  0  0  0  0
  141.5686   79.6653  219.5052 H   0  0  0  0  0  0  0  0  0  0  0  0
  142.9695   80.9099  221.1012 H   0  0  0  0  0  0  0  0  0  0  0  0
  140.8441   78.9967  224.3306 H   0  0  0  0  0  0  0  0  0  0  0  0
  139.1512   69.8476  222.5230 H   0  0  0  0  0  0  0  0  0  0  0  0
  138.8329   68.3085  224.4941 H   0  0  0  0  0  0  0  0  0  0  0  0
  139.1629   67.8294  226.7852 H   0  0  0  0  0  0  0  0  0  0  0  0
  140.0443   68.4061  229.0232 H   0  0  0  0  0  0  0  0  0  0  0  0
  141.2715   70.5705  229.3273 H   0  0  0  0  0  0  0  0  0  0  0  0
  141.5884   72.0885  227.3904 H   0  0  0  0  0  0  0  0  0  0  0  0
  1  2  2  0
  2  3  1  0
  3  4  1  0
  4  5  1  0
  5  6  2  0
  5  7  1  0
  7  8  1  0
  8  9  1  0
  9 10  1  0
 10 11  1  0
 11 12  1  0
 12 13  2  0
 13 14  1  0
 14 15  2  0
 15 16  1  0
 16 17  1  0
 16 18  2  0
  2 19  1  0
 19 20  2  0
 20 21  1  0
 21 22  2  0
 22 23  1  0
 23 24  2  0
 24 25  1  0
 25 26  2  0
 26 27  1  0
 27 28  2  0
 11  7  1  0
 18 12  1  0
 28 19  1  0
 27 22  1  0
  3 29  1  0
  4 30  1  0
  4 31  1  0
  8 32  1  0
  8 33  1  0
  9 34  1  0
  9 35  1  0
 10 36  1  0
 10 37  1  0
 11 38  1  1
 13 39  1  0
 14 40  1  0
 15 41  1  0
 18 42  1  0
 20 43  1  0
 21 44  1  0
 23 45  1  0
 24 46  1  0
 25 47  1  0
 26 48  1  0
M  END
>  <smiles>  (24) 
O=C(NCC(=O)N1CCCC1c1cccc(Cl)c1)c1ccc2ccccc2n1

>  <score_type>  (24) 
oracle

>  <origin>  (24) 
autodockgpu

>  <m_score__min__energy>  (24) 
-9.4700000000000006

>  <m_primary>  (24) 
energy

>  <rmsd>  (24) 
2.8600473087786313

>  <m_score__min__rmsd>  (24) 
2.8600473087786313

>  <meeko>  (24) 
{"free_energy": -9.03, "intermolecular_energy": -10.52, "internal_energy": -1.24, "cluster_size": 31, "cluster_id": 1, "rank_in_cluster": 27}

>  <energy>  (24) 
-9.13

>  <cluster_rmsd>  (24) 
1.23

>  <cluster>  (24) 
1

$$$$

     RDKit          3D

 48 51  0  0  0  0  0  0  0  0999 V2000
  141.1720   71.5750  221.4590 O   0  0  0  0  0  0  0  0  0  0  0  0
  140.5030   71.9870  222.4620 C   0  0  0  0  0  0  0  0  0  0  0  0
  140.0060   73.3180  222.3750 N   0  0  0  0  0  0  0  0  0  0  0  0
  140.3190   74.0470  221.1540 C   0  0  0  0  0  0  0  0  0  0  0  0
  140.5100   75.4740  221.4680 C   0  0  0  0  0  0  0  0  0  0  0  0
  139.9490   75.9480  222.4960 O   0  0  0  0  0  0  0  0  0  0  0  0
  141.3220   76.2740  220.6010 N   0  0  0  0  0  0  0  0  0  0  0  0
  142.6050   75.8820  220.0020 C   0  0  0  0  0  0  0  0  0  0  0  0
  142.5710   76.7100  218.7250 C   0  0  0  0  0  0  0  0  0  0  0  0
  142.1110   78.0380  219.2880 C   0  0  0  0  0  0  0  0  0  0  0  0
  140.9780   77.6010  220.1920 C   0  0  2  0  0  0  0  0  0  0  0  0
  140.7990   78.5300  221.3340 C   0  0  0  0  0  0  0  0  0  0  0  0
  139.5060   78.7770  221.7450 C   0  0  0  0  0  0  0  0  0  0  0  0
  139.2970   79.6430  222.8130 C   0  0  0  0  0  0  0  0  0  0  0  0
  140.3250   80.2630  223.4740 C   0  0  0  0  0  0  0  0  0  0  0  0
  141.6180   80.0120  223.0600 C   0  0  0  0  0  0  0  0  0  0  0  0
  142.9720   80.7600  223.8490 Cl  0  0  0  0  0  0  0  0  0  0  0  0
  141.8450   79.1440  221.9880 C   0  0  0  0  0  0  0  0  0  0  0  0
  140.2640   71.1440  223.6290 C   0  0  0  0  0  0  0  0  0  0  0  0
  139.5690   69.9670  223.4400 C   0  0  0  0  0  0  0  0  0  0  0  0
  139.3510   69.1760  224.5720 C   0  0  0  0  0  0  0  0  0  0  0  0
  139.8150   69.5720  225.7920 C   0  0  0  0  0  0  0  0  0  0  0  0
  139.6050   68.8010  226.9050 C   0  0  0  0  0  0  0  0  0  0  0  0
  140.0600   69.1660  228.1580 C   0  0  0  0  0  0  0  0  0  0  0  0
  140.7560   70.3650  228.2860 C   0  0  0  0  0  0  0  0  0  0  0  0
  140.9770   71.1560  227.1750 C   0  0  0  0  0  0  0  0  0  0  0  0
  140.5080   70.7580  225.9400 C   0  0  0  0  0  0  0  0  0  0  0  0
  140.7130   71.5140  224.8450 N   0  0  0  0  0  0  0  0  0  0  0  0
  139.4480   73.7290  223.1580 H   0  0  0  0  0  0  0  0  0  0  0  0
  141.2414   73.6424  220.7118 H   0  0  0  0  0  0  0  0  0  0  0  0
  139.4902   73.9370  220.4391 H   0  0  0  0  0  0  0  0  0  0  0  0
  143.4551   76.1574  220.6435 H   0  0  0  0  0  0  0  0  0  0  0  0
  142.7302   74.8002  219.8470 H   0  0  0  0  0  0  0  0  0  0  0  0
  143.5652   76.7855  218.2603 H   0  0  0  0  0  0  0  0  0  0  0  0
  141.9382   76.3013  217.9234 H   0  0  0  0  0  0  0  0  0  0  0  0
  142.9118   78.5332  219.8568 H   0  0  0  0  0  0  0  0  0  0  0  0
  141.8195   78.7741  218.5244 H   0  0  0  0  0  0  0  0  0  0  0  0
  140.0055   77.6150  219.6781 H   0  0  0  0  0  0  0  0  0  0  0  0
  138.6557   78.2980  221.2375 H   0  0  0  0  0  0  0  0  0  0  0  0
  138.2651   79.8381  223.1403 H   0  0  0  0  0  0  0  0  0  0  0  0
  140.1248   80.9442  224.3142 H   0  0  0  0  0  0  0  0  0  0  0  0
  142.8767   78.9477  221.6608 H   0  0  0  0  0  0  0  0  0  0  0  0
  139.2042   69.6657  222.4469 H   0  0  0  0  0  0  0  0  0  0  0  0
  138.8015   68.2277  224.4781 H   0  0  0  0  0  0  0  0  0  0  0  0
  139.0533   67.8555  226.7972 H   0  0  0  0  0  0  0  0  0  0  0  0
  139.8767   68.5248  229.0328 H   0  0  0  0  0  0  0  0  0  0  0  0
  141.1296   70.6822  229.2708 H   0  0  0  0  0  0  0  0  0  0  0  0
  141.5270   72.1033  227.2751 H   0  0  0  0  0  0  0  0  0  0  0  0
  1  2  2  0
  2  3  1  0
  3  4  1  0
  4  5  1  0
  5  6  2  0
  5  7  1  0
  7  8  1  0
  8  9  1  0
  9 10  1  0
 10 11  1  0
 11 12  1  0
 12 13  2  0
 13 14  1  0
 14 15  2  0
 15 16  1  0
 16 17  1  0
 16 18  2  0
  2 19  1  0
 19 20  2  0
 20 21  1  0
 21 22  2  0
 22 23  1  0
 23 24  2  0
 24 25  1  0
 25 26  2  0
 26 27  1  0
 27 28  2  0
 11  7  1  0
 18 12  1  0
 28 19  1  0
 27 22  1  0
  3 29  1  0
  4 30  1  0
  4 31  1  0
  8 32  1  0
  8 33  1  0
  9 34  1  0
  9 35  1  0
 10 36  1  0
 10 37  1  0
 11 38  1  6
 13 39  1  0
 14 40  1  0
 15 41  1  0
 18 42  1  0
 20 43  1  0
 21 44  1  0
 23 45  1  0
 24 46  1  0
 25 47  1  0
 26 48  1  0
M  END
>  <smiles>  (25) 
O=C(NCC(=O)N1CCCC1c1cccc(Cl)c1)c1ccc2ccccc2n1

>  <score_type>  (25) 
oracle

>  <origin>  (25) 
autodockgpu

>  <m_score__min__energy>  (25) 
-9.4700000000000006

>  <m_primary>  (25) 
energy

>  <rmsd>  (25) 
2.076500169381258

>  <m_score__min__rmsd>  (25) 
2.076500169381258

>  <meeko>  (25) 
{"free_energy": -9.28, "intermolecular_energy": -10.77, "internal_energy": -1.64, "cluster_size": 31, "cluster_id": 1, "rank_in_cluster": 15}

>  <energy>  (25) 
-9.1

>  <cluster_rmsd>  (25) 
0.98

>  <cluster>  (25) 
1

$$$$

     RDKit          3D

 48 51  0  0  0  0  0  0  0  0999 V2000
  141.2030   71.7860  221.4490 O   0  0  0  0  0  0  0  0  0  0  0  0
  140.5430   72.2310  222.4440 C   0  0  0  0  0  0  0  0  0  0  0  0
  140.0700   73.5680  222.3310 N   0  0  0  0  0  0  0  0  0  0  0  0
  140.3930   74.2670  221.0950 C   0  0  0  0  0  0  0  0  0  0  0  0
  140.4720   75.7150  221.3530 C   0  0  0  0  0  0  0  0  0  0  0  0
  139.8150   76.1930  222.3210 O   0  0  0  0  0  0  0  0  0  0  0  0
  141.2870   76.5300  220.5040 N   0  0  0  0  0  0  0  0  0  0  0  0
  142.4830   76.0980  219.7690 C   0  0  0  0  0  0  0  0  0  0  0  0
  142.4320   77.0510  218.5830 C   0  0  0  0  0  0  0  0  0  0  0  0
  142.1330   78.3480  219.3040 C   0  0  0  0  0  0  0  0  0  0  0  0
  141.0340   77.9150  220.2510 C   0  0  2  0  0  0  0  0  0  0  0  0
  141.0200   78.7350  221.4870 C   0  0  0  0  0  0  0  0  0  0  0  0
  142.2410   79.0420  222.0500 C   0  0  0  0  0  0  0  0  0  0  0  0
  142.2690   79.8100  223.2090 C   0  0  0  0  0  0  0  0  0  0  0  0
  141.1320   80.2730  223.8170 C   0  0  0  0  0  0  0  0  0  0  0  0
  139.9110   79.9630  223.2510 C   0  0  0  0  0  0  0  0  0  0  0  0
  138.4270   80.5150  223.9640 Cl  0  0  0  0  0  0  0  0  0  0  0  0
  139.8650   79.1930  222.0850 C   0  0  0  0  0  0  0  0  0  0  0  0
  140.2910   71.4160  223.6290 C   0  0  0  0  0  0  0  0  0  0  0  0
  139.6280   70.2190  223.4560 C   0  0  0  0  0  0  0  0  0  0  0  0
  139.3970   69.4560  224.6050 C   0  0  0  0  0  0  0  0  0  0  0  0
  139.8180   69.8970  225.8240 C   0  0  0  0  0  0  0  0  0  0  0  0
  139.5960   69.1530  226.9540 C   0  0  0  0  0  0  0  0  0  0  0  0
  140.0080   69.5650  228.2070 C   0  0  0  0  0  0  0  0  0  0  0  0
  140.6740   70.7830  228.3180 C   0  0  0  0  0  0  0  0  0  0  0  0
  140.9070   71.5460  227.1910 C   0  0  0  0  0  0  0  0  0  0  0  0
  140.4810   71.1030  225.9560 C   0  0  0  0  0  0  0  0  0  0  0  0
  140.6980   71.8310  224.8450 N   0  0  0  0  0  0  0  0  0  0  0  0
  139.5210   74.0050  223.1060 H   0  0  0  0  0  0  0  0  0  0  0  0
  141.3612   73.9095  220.7144 H   0  0  0  0  0  0  0  0  0  0  0  0
  139.6091   74.0709  220.3486 H   0  0  0  0  0  0  0  0  0  0  0  0
  143.3982   76.2365  220.3634 H   0  0  0  0  0  0  0  0  0  0  0  0
  142.4991   75.0310  219.5021 H   0  0  0  0  0  0  0  0  0  0  0  0
  143.3934   77.0920  218.0500 H   0  0  0  0  0  0  0  0  0  0  0  0
  141.7101   76.7785  217.7991 H   0  0  0  0  0  0  0  0  0  0  0  0
  143.0133   78.7169  219.8507 H   0  0  0  0  0  0  0  0  0  0  0  0
  141.8533   79.1786  218.6393 H   0  0  0  0  0  0  0  0  0  0  0  0
  140.0325   78.0601  219.8198 H   0  0  0  0  0  0  0  0  0  0  0  0
  143.1751   78.6861  221.5909 H   0  0  0  0  0  0  0  0  0  0  0  0
  143.2437   80.0557  223.6557 H   0  0  0  0  0  0  0  0  0  0  0  0
  141.1902   80.8774  224.7343 H   0  0  0  0  0  0  0  0  0  0  0  0
  138.8907   78.9483  221.6369 H   0  0  0  0  0  0  0  0  0  0  0  0
  139.2971   69.8810  222.4629 H   0  0  0  0  0  0  0  0  0  0  0  0
  138.8717   68.4929  224.5244 H   0  0  0  0  0  0  0  0  0  0  0  0
  139.0699   68.1916  226.8596 H   0  0  0  0  0  0  0  0  0  0  0  0
  139.8146   68.9458  229.0954 H   0  0  0  0  0  0  0  0  0  0  0  0
  141.0141   71.1369  229.3024 H   0  0  0  0  0  0  0  0  0  0  0  0
  141.4329   72.5082  227.2781 H   0  0  0  0  0  0  0  0  0  0  0  0
  1  2  2  0
  2  3  1  0
  3  4  1  0
  4  5  1  0
  5  6  2  0
  5  7  1  0
  7  8  1  0
  8  9  1  0
  9 10  1  0
 10 11  1  0
 11 12  1  0
 12 13  2  0
 13 14  1  0
 14 15  2  0
 15 16  1  0
 16 17  1  0
 16 18  2  0
  2 19  1  0
 19 20  2  0
 20 21  1  0
 21 22  2  0
 22 23  1  0
 23 24  2  0
 24 25  1  0
 25 26  2  0
 26 27  1  0
 27 28  2  0
 11  7  1  0
 18 12  1  0
 28 19  1  0
 27 22  1  0
  3 29  1  0
  4 30  1  0
  4 31  1  0
  8 32  1  0
  8 33  1  0
  9 34  1  0
  9 35  1  0
 10 36  1  0
 10 37  1  0
 11 38  1  6
 13 39  1  0
 14 40  1  0
 15 41  1  0
 18 42  1  0
 20 43  1  0
 21 44  1  0
 23 45  1  0
 24 46  1  0
 25 47  1  0
 26 48  1  0
M  END
>  <smiles>  (26) 
O=C(NCC(=O)N1CCCC1c1cccc(Cl)c1)c1ccc2ccccc2n1

>  <score_type>  (26) 
oracle

>  <origin>  (26) 
autodockgpu

>  <m_score__min__energy>  (26) 
-9.4700000000000006

>  <m_primary>  (26) 
energy

>  <rmsd>  (26) 
2.1371594793218724

>  <m_score__min__rmsd>  (26) 
2.1371594793218724

>  <meeko>  (26) 
{"free_energy": -9.24, "intermolecular_energy": -10.73, "internal_energy": -1.68, "cluster_size": 31, "cluster_id": 1, "rank_in_cluster": 19}

>  <energy>  (26) 
-9.04

>  <cluster_rmsd>  (26) 
1.7

>  <cluster>  (26) 
1

$$$$

     RDKit          3D

 48 51  0  0  0  0  0  0  0  0999 V2000
  141.2740   71.8140  221.5060 O   0  0  0  0  0  0  0  0  0  0  0  0
  140.5580   72.2280  222.4750 C   0  0  0  0  0  0  0  0  0  0  0  0
  140.0300   73.5430  222.3420 N   0  0  0  0  0  0  0  0  0  0  0  0
  140.3680   74.2560  221.1180 C   0  0  0  0  0  0  0  0  0  0  0  0
  140.4930   75.6950  221.4050 C   0  0  0  0  0  0  0  0  0  0  0  0
  139.9120   76.1610  222.4260 O   0  0  0  0  0  0  0  0  0  0  0  0
  141.2640   76.5170  220.5220 N   0  0  0  0  0  0  0  0  0  0  0  0
  142.4490   76.1010  219.7580 C   0  0  0  0  0  0  0  0  0  0  0  0
  142.3410   77.0360  218.5620 C   0  0  0  0  0  0  0  0  0  0  0  0
  142.0350   78.3360  219.2740 C   0  0  0  0  0  0  0  0  0  0  0  0
  140.9730   77.8920  220.2580 C   0  0  2  0  0  0  0  0  0  0  0  0
  140.9760   78.7290  221.4830 C   0  0  0  0  0  0  0  0  0  0  0  0
  142.2050   79.0480  222.0210 C   0  0  0  0  0  0  0  0  0  0  0  0
  142.2500   79.8310  223.1690 C   0  0  0  0  0  0  0  0  0  0  0  0
  141.1200   80.2980  223.7900 C   0  0  0  0  0  0  0  0  0  0  0  0
  139.8920   79.9760  223.2480 C   0  0  0  0  0  0  0  0  0  0  0  0
  138.4170   80.5310  223.9780 Cl  0  0  0  0  0  0  0  0  0  0  0  0
  139.8300   79.1900  222.0930 C   0  0  0  0  0  0  0  0  0  0  0  0
  140.2990   71.4020  223.6510 C   0  0  0  0  0  0  0  0  0  0  0  0
  139.6320   70.2100  223.4630 C   0  0  0  0  0  0  0  0  0  0  0  0
  139.3940   69.4360  224.6030 C   0  0  0  0  0  0  0  0  0  0  0  0
  139.8120   69.8630  225.8280 C   0  0  0  0  0  0  0  0  0  0  0  0
  139.5830   69.1090  226.9500 C   0  0  0  0  0  0  0  0  0  0  0  0
  139.9910   69.5060  228.2080 C   0  0  0  0  0  0  0  0  0  0  0  0
  140.6610   70.7210  228.3350 C   0  0  0  0  0  0  0  0  0  0  0  0
  140.9020   71.4940  227.2160 C   0  0  0  0  0  0  0  0  0  0  0  0
  140.4790   71.0650  225.9750 C   0  0  0  0  0  0  0  0  0  0  0  0
  140.7030   71.8040  224.8720 N   0  0  0  0  0  0  0  0  0  0  0  0
  139.4330   73.9550  223.0960 H   0  0  0  0  0  0  0  0  0  0  0  0
  141.3226   73.8766  220.7246 H   0  0  0  0  0  0  0  0  0  0  0  0
  139.5749   74.0991  220.3721 H   0  0  0  0  0  0  0  0  0  0  0  0
  143.3776   76.2685  220.3234 H   0  0  0  0  0  0  0  0  0  0  0  0
  142.4825   75.0309  219.5053 H   0  0  0  0  0  0  0  0  0  0  0  0
  143.2848   77.0906  217.9995 H   0  0  0  0  0  0  0  0  0  0  0  0
  141.6018   76.7368  217.8043 H   0  0  0  0  0  0  0  0  0  0  0  0
  142.9224   78.7311  219.7902 H   0  0  0  0  0  0  0  0  0  0  0  0
  141.7187   79.1515  218.6070 H   0  0  0  0  0  0  0  0  0  0  0  0
  139.9566   78.0088  219.8539 H   0  0  0  0  0  0  0  0  0  0  0  0
  143.1325   78.6896  221.5506 H   0  0  0  0  0  0  0  0  0  0  0  0
  143.2311   80.0861  223.5962 H   0  0  0  0  0  0  0  0  0  0  0  0
  141.1905   80.9144  224.6983 H   0  0  0  0  0  0  0  0  0  0  0  0
  138.8495   78.9355  221.6642 H   0  0  0  0  0  0  0  0  0  0  0  0
  139.3032   69.8839  222.4652 H   0  0  0  0  0  0  0  0  0  0  0  0
  138.8656   68.4756  224.5105 H   0  0  0  0  0  0  0  0  0  0  0  0
  139.0537   68.1506  226.8439 H   0  0  0  0  0  0  0  0  0  0  0  0
  139.7918   68.8780  229.0889 H   0  0  0  0  0  0  0  0  0  0  0  0
  140.9974   71.0640  229.3246 H   0  0  0  0  0  0  0  0  0  0  0  0
  141.4319   72.4529  227.3145 H   0  0  0  0  0  0  0  0  0  0  0  0
  1  2  2  0
  2  3  1  0
  3  4  1  0
  4  5  1  0
  5  6  2  0
  5  7  1  0
  7  8  1  0
  8  9  1  0
  9 10  1  0
 10 11  1  0
 11 12  1  0
 12 13  2  0
 13 14  1  0
 14 15  2  0
 15 16  1  0
 16 17  1  0
 16 18  2  0
  2 19  1  0
 19 20  2  0
 20 21  1  0
 21 22  2  0
 22 23  1  0
 23 24  2  0
 24 25  1  0
 25 26  2  0
 26 27  1  0
 27 28  2  0
 11  7  1  0
 18 12  1  0
 28 19  1  0
 27 22  1  0
  3 29  1  0
  4 30  1  0
  4 31  1  0
  8 32  1  0
  8 33  1  0
  9 34  1  0
  9 35  1  0
 10 36  1  0
 10 37  1  0
 11 38  1  6
 13 39  1  0
 14 40  1  0
 15 41  1  0
 18 42  1  0
 20 43  1  0
 21 44  1  0
 23 45  1  0
 24 46  1  0
 25 47  1  0
 26 48  1  0
M  END
>  <smiles>  (27) 
O=C(NCC(=O)N1CCCC1c1cccc(Cl)c1)c1ccc2ccccc2n1

>  <score_type>  (27) 
oracle

>  <origin>  (27) 
autodockgpu

>  <m_score__min__energy>  (27) 
-9.4700000000000006

>  <m_primary>  (27) 
energy

>  <rmsd>  (27) 
2.111258340314307

>  <m_score__min__rmsd>  (27) 
2.111258340314307

>  <meeko>  (27) 
{"free_energy": -9.29, "intermolecular_energy": -10.78, "internal_energy": -1.66, "cluster_size": 31, "cluster_id": 1, "rank_in_cluster": 13}

>  <energy>  (27) 
-9.03

>  <cluster_rmsd>  (27) 
1.64

>  <cluster>  (27) 
1

$$$$

     RDKit          3D

 48 51  0  0  0  0  0  0  0  0999 V2000
  141.0220   71.5970  221.3720 O   0  0  0  0  0  0  0  0  0  0  0  0
  140.4620   72.1320  222.3840 C   0  0  0  0  0  0  0  0  0  0  0  0
  140.0670   73.4900  222.2330 N   0  0  0  0  0  0  0  0  0  0  0  0
  140.3480   74.1060  220.9430 C   0  0  0  0  0  0  0  0  0  0  0  0
  140.9140   75.4500  221.1510 C   0  0  0  0  0  0  0  0  0  0  0  0
  141.0660   75.8650  222.3350 O   0  0  0  0  0  0  0  0  0  0  0  0
  141.2720   76.2390  220.0120 N   0  0  0  0  0  0  0  0  0  0  0  0
  140.3480   76.8050  219.0200 C   0  0  0  0  0  0  0  0  0  0  0  0
  141.1330   78.0360  218.5900 C   0  0  0  0  0  0  0  0  0  0  0  0
  142.5060   77.4230  218.4190 C   0  0  0  0  0  0  0  0  0  0  0  0
  142.6180   76.5900  219.6800 C   0  0  2  0  0  0  0  0  0  0  0  0
  143.4920   75.4080  219.4800 C   0  0  0  0  0  0  0  0  0  0  0  0
  143.4860   74.8280  218.2290 C   0  0  0  0  0  0  0  0  0  0  0  0
  144.2920   73.7180  218.0020 C   0  0  0  0  0  0  0  0  0  0  0  0
  145.0920   73.1750  218.9730 C   0  0  0  0  0  0  0  0  0  0  0  0
  145.0950   73.7590  220.2250 C   0  0  0  0  0  0  0  0  0  0  0  0
  146.0830   73.1270  221.5050 Cl  0  0  0  0  0  0  0  0  0  0  0  0
  144.2900   74.8760  220.4690 C   0  0  0  0  0  0  0  0  0  0  0  0
  140.2420   71.3930  223.6240 C   0  0  0  0  0  0  0  0  0  0  0  0
  139.5550   70.1990  223.5470 C   0  0  0  0  0  0  0  0  0  0  0  0
  139.3560   69.5100  224.7470 C   0  0  0  0  0  0  0  0  0  0  0  0
  139.8280   70.0150  225.9220 C   0  0  0  0  0  0  0  0  0  0  0  0
  139.6360   69.3440  227.1010 C   0  0  0  0  0  0  0  0  0  0  0  0
  140.1000   69.8220  228.3120 C   0  0  0  0  0  0  0  0  0  0  0  0
  140.7870   71.0330  228.3260 C   0  0  0  0  0  0  0  0  0  0  0  0
  140.9910   71.7240  227.1470 C   0  0  0  0  0  0  0  0  0  0  0  0
  140.5130   71.2150  225.9570 C   0  0  0  0  0  0  0  0  0  0  0  0
  140.7000   71.8720  224.7970 N   0  0  0  0  0  0  0  0  0  0  0  0
  139.6010   74.0000  223.0190 H   0  0  0  0  0  0  0  0  0  0  0  0
  141.0696   73.4862  220.3906 H   0  0  0  0  0  0  0  0  0  0  0  0
  139.4152   74.1874  220.3657 H   0  0  0  0  0  0  0  0  0  0  0  0
  140.1801   76.1152  218.1798 H   0  0  0  0  0  0  0  0  0  0  0  0
  139.3362   77.0126  219.3985 H   0  0  0  0  0  0  0  0  0  0  0  0
  140.7521   78.4546  217.6468 H   0  0  0  0  0  0  0  0  0  0  0  0
  141.0870   78.8836  219.2897 H   0  0  0  0  0  0  0  0  0  0  0  0
  142.5577   76.7963  217.5164 H   0  0  0  0  0  0  0  0  0  0  0  0
  143.3147   78.1576  218.2909 H   0  0  0  0  0  0  0  0  0  0  0  0
  143.0953   77.1418  220.5032 H   0  0  0  0  0  0  0  0  0  0  0  0
  142.8552   75.2359  217.4255 H   0  0  0  0  0  0  0  0  0  0  0  0
  144.2873   73.2574  217.0031 H   0  0  0  0  0  0  0  0  0  0  0  0
  145.7169   72.2950  218.7607 H   0  0  0  0  0  0  0  0  0  0  0  0
  144.2939   75.3377  221.4674 H   0  0  0  0  0  0  0  0  0  0  0  0
  139.1822   69.8084  222.5886 H   0  0  0  0  0  0  0  0  0  0  0  0
  138.8142   68.5527  224.7431 H   0  0  0  0  0  0  0  0  0  0  0  0
  139.0917   68.3883  227.0831 H   0  0  0  0  0  0  0  0  0  0  0  0
  139.9307   69.2595  229.2420 H   0  0  0  0  0  0  0  0  0  0  0  0
  141.1670   71.4393  229.2749 H   0  0  0  0  0  0  0  0  0  0  0  0
  141.5347   72.6802  227.1571 H   0  0  0  0  0  0  0  0  0  0  0  0
  1  2  2  0
  2  3  1  0
  3  4  1  0
  4  5  1  0
  5  6  2  0
  5  7  1  0
  7  8  1  0
  8  9  1  0
  9 10  1  0
 10 11  1  0
 11 12  1  0
 12 13  2  0
 13 14  1  0
 14 15  2  0
 15 16  1  0
 16 17  1  0
 16 18  2  0
  2 19  1  0
 19 20  2  0
 20 21  1  0
 21 22  2  0
 22 23  1  0
 23 24  2  0
 24 25  1  0
 25 26  2  0
 26 27  1  0
 27 28  2  0
 11  7  1  0
 18 12  1  0
 28 19  1  0
 27 22  1  0
  3 29  1  0
  4 30  1  0
  4 31  1  0
  8 32  1  0
  8 33  1  0
  9 34  1  0
  9 35  1  0
 10 36  1  0
 10 37  1  0
 11 38  1  1
 13 39  1  0
 14 40  1  0
 15 41  1  0
 18 42  1  0
 20 43  1  0
 21 44  1  0
 23 45  1  0
 24 46  1  0
 25 47  1  0
 26 48  1  0
M  END
>  <smiles>  (28) 
O=C(NCC(=O)N1CCCC1c1cccc(Cl)c1)c1ccc2ccccc2n1

>  <score_type>  (28) 
oracle

>  <origin>  (28) 
autodockgpu

>  <m_score__min__energy>  (28) 
-9.4700000000000006

>  <m_primary>  (28) 
energy

>  <rmsd>  (28) 
1.803942463526537

>  <m_score__min__rmsd>  (28) 
1.803942463526537

>  <meeko>  (28) 
{"free_energy": -8.77, "intermolecular_energy": -10.27, "internal_energy": -1.76, "cluster_size": 17, "cluster_id": 2, "rank_in_cluster": 6}

>  <energy>  (28) 
-9.02

>  <cluster_rmsd>  (28) 
1.74

>  <cluster>  (28) 
1

$$$$

     RDKit          3D

 48 51  0  0  0  0  0  0  0  0999 V2000
  139.8940   71.4580  221.1090 O   0  0  0  0  0  0  0  0  0  0  0  0
  139.7720   72.0300  222.2410 C   0  0  0  0  0  0  0  0  0  0  0  0
  139.5020   73.4270  222.2090 N   0  0  0  0  0  0  0  0  0  0  0  0
  139.3980   74.0350  220.8900 C   0  0  0  0  0  0  0  0  0  0  0  0
  140.1130   75.3240  220.8840 C   0  0  0  0  0  0  0  0  0  0  0  0
  139.4880   76.3630  221.2390 O   0  0  0  0  0  0  0  0  0  0  0  0
  141.4850   75.3560  220.4780 N   0  0  0  0  0  0  0  0  0  0  0  0
  142.5210   74.3770  220.8310 C   0  0  0  0  0  0  0  0  0  0  0  0
  143.4280   74.4900  219.6130 C   0  0  0  0  0  0  0  0  0  0  0  0
  143.5000   75.9960  219.4810 C   0  0  0  0  0  0  0  0  0  0  0  0
  142.0440   76.3780  219.6480 C   0  0  2  0  0  0  0  0  0  0  0  0
  141.8970   77.7370  220.2260 C   0  0  0  0  0  0  0  0  0  0  0  0
  141.8310   78.7920  219.3400 C   0  0  0  0  0  0  0  0  0  0  0  0
  141.6940   80.0800  219.8440 C   0  0  0  0  0  0  0  0  0  0  0  0
  141.6210   80.3460  221.1860 C   0  0  0  0  0  0  0  0  0  0  0  0
  141.6880   79.2870  222.0700 C   0  0  0  0  0  0  0  0  0  0  0  0
  141.6030   79.5450  223.7850 Cl  0  0  0  0  0  0  0  0  0  0  0  0
  141.8260   77.9850  221.5800 C   0  0  0  0  0  0  0  0  0  0  0  0
  139.9020   71.2930  223.4950 C   0  0  0  0  0  0  0  0  0  0  0  0
  139.5020   69.9730  223.5090 C   0  0  0  0  0  0  0  0  0  0  0  0
  139.6350   69.2880  224.7210 C   0  0  0  0  0  0  0  0  0  0  0  0
  140.1390   69.9180  225.8190 C   0  0  0  0  0  0  0  0  0  0  0  0
  140.2730   69.2520  227.0100 C   0  0  0  0  0  0  0  0  0  0  0  0
  140.7800   69.8550  228.1450 C   0  0  0  0  0  0  0  0  0  0  0  0
  141.1680   71.1900  228.0700 C   0  0  0  0  0  0  0  0  0  0  0  0
  141.0410   71.8780  226.8780 C   0  0  0  0  0  0  0  0  0  0  0  0
  140.5300   71.2430  225.7650 C   0  0  0  0  0  0  0  0  0  0  0  0
  140.3980   71.8950  224.5940 N   0  0  0  0  0  0  0  0  0  0  0  0
  139.3890   73.9670  223.0970 H   0  0  0  0  0  0  0  0  0  0  0  0
  139.8449   73.3646  220.1412 H   0  0  0  0  0  0  0  0  0  0  0  0
  138.3384   74.2029  220.6468 H   0  0  0  0  0  0  0  0  0  0  0  0
  143.0459   74.6557  221.7566 H   0  0  0  0  0  0  0  0  0  0  0  0
  142.1463   73.3628  221.0337 H   0  0  0  0  0  0  0  0  0  0  0  0
  144.4182   74.0482  219.7985 H   0  0  0  0  0  0  0  0  0  0  0  0
  143.0699   73.9620  218.7169 H   0  0  0  0  0  0  0  0  0  0  0  0
  144.1258   76.4399  220.2692 H   0  0  0  0  0  0  0  0  0  0  0  0
  143.9525   76.3449  218.5410 H   0  0  0  0  0  0  0  0  0  0  0  0
  141.5157   76.4352  218.6849 H   0  0  0  0  0  0  0  0  0  0  0  0
  141.8857   78.6174  218.2553 H   0  0  0  0  0  0  0  0  0  0  0  0
  141.6420   80.9205  219.1362 H   0  0  0  0  0  0  0  0  0  0  0  0
  141.5117   81.3781  221.5506 H   0  0  0  0  0  0  0  0  0  0  0  0
  141.8788   77.1440  222.2871 H   0  0  0  0  0  0  0  0  0  0  0  0
  139.0981   69.4830  222.6108 H   0  0  0  0  0  0  0  0  0  0  0  0
  139.3305   68.2331  224.7883 H   0  0  0  0  0  0  0  0  0  0  0  0
  139.9651   68.1974  227.0639 H   0  0  0  0  0  0  0  0  0  0  0  0
  140.8749   69.2934  229.0861 H   0  0  0  0  0  0  0  0  0  0  0  0
  141.5749   71.6963  228.9578 H   0  0  0  0  0  0  0  0  0  0  0  0
  141.3476   72.9326  226.8168 H   0  0  0  0  0  0  0  0  0  0  0  0
  1  2  2  0
  2  3  1  0
  3  4  1  0
  4  5  1  0
  5  6  2  0
  5  7  1  0
  7  8  1  0
  8  9  1  0
  9 10  1  0
 10 11  1  0
 11 12  1  0
 12 13  2  0
 13 14  1  0
 14 15  2  0
 15 16  1  0
 16 17  1  0
 16 18  2  0
  2 19  1  0
 19 20  2  0
 20 21  1  0
 21 22  2  0
 22 23  1  0
 23 24  2  0
 24 25  1  0
 25 26  2  0
 26 27  1  0
 27 28  2  0
 11  7  1  0
 18 12  1  0
 28 19  1  0
 27 22  1  0
  3 29  1  0
  4 30  1  0
  4 31  1  0
  8 32  1  0
  8 33  1  0
  9 34  1  0
  9 35  1  0
 10 36  1  0
 10 37  1  0
 11 38  1  6
 13 39  1  0
 14 40  1  0
 15 41  1  0
 18 42  1  0
 20 43  1  0
 21 44  1  0
 23 45  1  0
 24 46  1  0
 25 47  1  0
 26 48  1  0
M  END
>  <smiles>  (29) 
O=C(NCC(=O)N1CCCC1c1cccc(Cl)c1)c1ccc2ccccc2n1

>  <score_type>  (29) 
oracle

>  <origin>  (29) 
autodockgpu

>  <m_score__min__energy>  (29) 
-9.4700000000000006

>  <m_primary>  (29) 
energy

>  <rmsd>  (29) 
2.2883952655600592

>  <m_score__min__rmsd>  (29) 
2.2883952655600592

>  <meeko>  (29) 
{"free_energy": -8.59, "intermolecular_energy": -10.08, "internal_energy": -1.46, "cluster_size": 31, "cluster_id": 1, "rank_in_cluster": 31}

>  <energy>  (29) 
-8.95

>  <cluster_rmsd>  (29) 
1.74

>  <cluster>  (29) 
1

$$$$

     RDKit          3D

 48 51  0  0  0  0  0  0  0  0999 V2000
  140.6070   71.4800  221.2590 O   0  0  0  0  0  0  0  0  0  0  0  0
  140.2150   72.0350  222.3360 C   0  0  0  0  0  0  0  0  0  0  0  0
  139.8350   73.4030  222.2320 N   0  0  0  0  0  0  0  0  0  0  0  0
  139.9380   74.0030  220.9090 C   0  0  0  0  0  0  0  0  0  0  0  0
  140.5320   75.3470  221.0230 C   0  0  0  0  0  0  0  0  0  0  0  0
  140.4180   75.9670  222.1180 O   0  0  0  0  0  0  0  0  0  0  0  0
  141.2150   75.9040  219.8950 N   0  0  0  0  0  0  0  0  0  0  0  0
  140.5950   76.3860  218.6530 C   0  0  0  0  0  0  0  0  0  0  0  0
  141.6010   77.4530  218.2450 C   0  0  0  0  0  0  0  0  0  0  0  0
  142.8920   76.6960  218.4730 C   0  0  0  0  0  0  0  0  0  0  0  0
  142.6340   76.0710  219.8280 C   0  0  2  0  0  0  0  0  0  0  0  0
  143.3740   74.7960  219.9940 C   0  0  0  0  0  0  0  0  0  0  0  0
  142.8350   73.6750  219.4000 C   0  0  0  0  0  0  0  0  0  0  0  0
  143.5000   72.4620  219.5330 C   0  0  0  0  0  0  0  0  0  0  0  0
  144.6710   72.3330  220.2320 C   0  0  0  0  0  0  0  0  0  0  0  0
  145.2080   73.4580  220.8260 C   0  0  0  0  0  0  0  0  0  0  0  0
  146.6900   73.3740  221.7290 Cl  0  0  0  0  0  0  0  0  0  0  0  0
  144.5520   74.6870  220.7020 C   0  0  0  0  0  0  0  0  0  0  0  0
  140.1610   71.3090  223.6020 C   0  0  0  0  0  0  0  0  0  0  0  0
  139.6100   70.0450  223.5940 C   0  0  0  0  0  0  0  0  0  0  0  0
  139.5680   69.3700  224.8180 C   0  0  0  0  0  0  0  0  0  0  0  0
  140.0560   69.9550  225.9480 C   0  0  0  0  0  0  0  0  0  0  0  0
  140.0180   69.2980  227.1500 C   0  0  0  0  0  0  0  0  0  0  0  0
  140.5030   69.8570  228.3170 C   0  0  0  0  0  0  0  0  0  0  0  0
  141.0490   71.1370  228.2630 C   0  0  0  0  0  0  0  0  0  0  0  0
  141.0960   71.8140  227.0600 C   0  0  0  0  0  0  0  0  0  0  0  0
  140.6020   71.2250  225.9140 C   0  0  0  0  0  0  0  0  0  0  0  0
  140.6370   71.8680  224.7320 N   0  0  0  0  0  0  0  0  0  0  0  0
  139.5020   73.9280  223.0720 H   0  0  0  0  0  0  0  0  0  0  0  0
  140.5749   73.3738  220.2698 H   0  0  0  0  0  0  0  0  0  0  0  0
  138.9353   74.0823  220.4637 H   0  0  0  0  0  0  0  0  0  0  0  0
  140.5193   75.5883  217.8994 H   0  0  0  0  0  0  0  0  0  0  0  0
  139.5611   76.7452  218.7630 H   0  0  0  0  0  0  0  0  0  0  0  0
  141.4803   77.7468  217.1918 H   0  0  0  0  0  0  0  0  0  0  0  0
  141.5174   78.4031  218.7930 H   0  0  0  0  0  0  0  0  0  0  0  0
  143.0515   75.9299  217.6999 H   0  0  0  0  0  0  0  0  0  0  0  0
  143.7952   77.3225  218.4304 H   0  0  0  0  0  0  0  0  0  0  0  0
  142.9958   76.7025  220.6528 H   0  0  0  0  0  0  0  0  0  0  0  0
  141.8957   73.7394  218.8311 H   0  0  0  0  0  0  0  0  0  0  0  0
  143.0684   71.5689  219.0575 H   0  0  0  0  0  0  0  0  0  0  0  0
  145.1713   71.3571  220.3180 H   0  0  0  0  0  0  0  0  0  0  0  0
  144.9828   75.5808  221.1769 H   0  0  0  0  0  0  0  0  0  0  0  0
  139.2226   69.5901  222.6704 H   0  0  0  0  0  0  0  0  0  0  0  0
  139.1377   68.3590  224.8691 H   0  0  0  0  0  0  0  0  0  0  0  0
  139.5851   68.2875  227.1873 H   0  0  0  0  0  0  0  0  0  0  0  0
  140.4588   69.3037  229.2667 H   0  0  0  0  0  0  0  0  0  0  0  0
  141.4419   71.6078  229.1762 H   0  0  0  0  0  0  0  0  0  0  0  0
  141.5280   72.8246  227.0153 H   0  0  0  0  0  0  0  0  0  0  0  0
  1  2  2  0
  2  3  1  0
  3  4  1  0
  4  5  1  0
  5  6  2  0
  5  7  1  0
  7  8  1  0
  8  9  1  0
  9 10  1  0
 10 11  1  0
 11 12  1  0
 12 13  2  0
 13 14  1  0
 14 15  2  0
 15 16  1  0
 16 17  1  0
 16 18  2  0
  2 19  1  0
 19 20  2  0
 20 21  1  0
 21 22  2  0
 22 23  1  0
 23 24  2  0
 24 25  1  0
 25 26  2  0
 26 27  1  0
 27 28  2  0
 11  7  1  0
 18 12  1  0
 28 19  1  0
 27 22  1  0
  3 29  1  0
  4 30  1  0
  4 31  1  0
  8 32  1  0
  8 33  1  0
  9 34  1  0
  9 35  1  0
 10 36  1  0
 10 37  1  0
 11 38  1  1
 13 39  1  0
 14 40  1  0
 15 41  1  0
 18 42  1  0
 20 43  1  0
 21 44  1  0
 23 45  1  0
 24 46  1  0
 25 47  1  0
 26 48  1  0
M  END
>  <smiles>  (30) 
O=C(NCC(=O)N1CCCC1c1cccc(Cl)c1)c1ccc2ccccc2n1

>  <score_type>  (30) 
oracle

>  <origin>  (30) 
autodockgpu

>  <m_score__min__energy>  (30) 
-9.4700000000000006

>  <m_primary>  (30) 
energy

>  <rmsd>  (30) 
1.7135154976296527

>  <m_score__min__rmsd>  (30) 
1.7135154976296527

>  <meeko>  (30) 
{"free_energy": -8.76, "intermolecular_energy": -10.25, "internal_energy": -1.95, "cluster_size": 17, "cluster_id": 2, "rank_in_cluster": 7}

>  <energy>  (30) 
-8.61

>  <cluster_rmsd>  (30) 
0.82

>  <cluster>  (30) 
1

$$$$

     RDKit          3D

 48 51  0  0  0  0  0  0  0  0999 V2000
  141.2600   71.8900  221.5280 O   0  0  0  0  0  0  0  0  0  0  0  0
  140.4890   72.2640  222.4700 C   0  0  0  0  0  0  0  0  0  0  0  0
  139.8880   73.5450  222.3140 N   0  0  0  0  0  0  0  0  0  0  0  0
  140.2240   74.2730  221.0980 C   0  0  0  0  0  0  0  0  0  0  0  0
  140.4290   75.6960  221.4170 C   0  0  0  0  0  0  0  0  0  0  0  0
  139.8570   76.1760  222.4370 O   0  0  0  0  0  0  0  0  0  0  0  0
  141.2650   76.4870  220.5660 N   0  0  0  0  0  0  0  0  0  0  0  0
  142.4580   76.0240  219.8430 C   0  0  0  0  0  0  0  0  0  0  0  0
  142.4340   76.9670  218.6480 C   0  0  0  0  0  0  0  0  0  0  0  0
  142.1560   78.2760  219.3550 C   0  0  0  0  0  0  0  0  0  0  0  0
  141.0420   77.8740  220.2980 C   0  0  2  0  0  0  0  0  0  0  0  0
  141.0360   78.7060  221.5260 C   0  0  0  0  0  0  0  0  0  0  0  0
  142.2610   79.0190  222.0780 C   0  0  0  0  0  0  0  0  0  0  0  0
  142.2960   79.7970  223.2300 C   0  0  0  0  0  0  0  0  0  0  0  0
  141.1630   80.2670  223.8410 C   0  0  0  0  0  0  0  0  0  0  0  0
  139.9390   79.9510  223.2840 C   0  0  0  0  0  0  0  0  0  0  0  0
  138.4590   80.5100  224.0020 Cl  0  0  0  0  0  0  0  0  0  0  0  0
  139.8850   79.1700  222.1270 C   0  0  0  0  0  0  0  0  0  0  0  0
  140.2390   71.4280  223.6410 C   0  0  0  0  0  0  0  0  0  0  0  0
  139.5310   70.2590  223.4550 C   0  0  0  0  0  0  0  0  0  0  0  0
  139.3040   69.4740  224.5900 C   0  0  0  0  0  0  0  0  0  0  0  0
  139.7700   69.8690  225.8090 C   0  0  0  0  0  0  0  0  0  0  0  0
  139.5510   69.1050  226.9250 C   0  0  0  0  0  0  0  0  0  0  0  0
  140.0070   69.4700  228.1770 C   0  0  0  0  0  0  0  0  0  0  0  0
  140.7170   70.6620  228.3020 C   0  0  0  0  0  0  0  0  0  0  0  0
  140.9480   71.4460  227.1880 C   0  0  0  0  0  0  0  0  0  0  0  0
  140.4760   71.0490  225.9530 C   0  0  0  0  0  0  0  0  0  0  0  0
  140.6900   71.7980  224.8550 N   0  0  0  0  0  0  0  0  0  0  0  0
  139.2420   73.9220  223.0440 H   0  0  0  0  0  0  0  0  0  0  0  0
  141.1463   73.8579  220.6654 H   0  0  0  0  0  0  0  0  0  0  0  0
  139.4020   74.1749  220.3737 H   0  0  0  0  0  0  0  0  0  0  0  0
  143.3717   76.1497  220.4425 H   0  0  0  0  0  0  0  0  0  0  0  0
  142.4547   74.9545  219.5860 H   0  0  0  0  0  0  0  0  0  0  0  0
  143.3996   76.9840  218.1214 H   0  0  0  0  0  0  0  0  0  0  0  0
  141.7121   76.7016  217.8616 H   0  0  0  0  0  0  0  0  0  0  0  0
  143.0397   78.6323  219.9046 H   0  0  0  0  0  0  0  0  0  0  0  0
  141.8975   79.1058  218.6807 H   0  0  0  0  0  0  0  0  0  0  0  0
  140.0467   78.0348  219.8581 H   0  0  0  0  0  0  0  0  0  0  0  0
  143.1923   78.6600  221.6156 H   0  0  0  0  0  0  0  0  0  0  0  0
  143.2735   80.0454  223.6690 H   0  0  0  0  0  0  0  0  0  0  0  0
  141.2266   80.8804  224.7519 H   0  0  0  0  0  0  0  0  0  0  0  0
  138.9077   78.9209  221.6879 H   0  0  0  0  0  0  0  0  0  0  0  0
  139.1630   69.9589  222.4628 H   0  0  0  0  0  0  0  0  0  0  0  0
  138.7453   68.5308  224.4986 H   0  0  0  0  0  0  0  0  0  0  0  0
  138.9903   68.1645  226.8201 H   0  0  0  0  0  0  0  0  0  0  0  0
  139.8141   68.8347  229.0540 H   0  0  0  0  0  0  0  0  0  0  0  0
  141.0931   70.9786  229.2860 H   0  0  0  0  0  0  0  0  0  0  0  0
  141.5086   72.3874  227.2853 H   0  0  0  0  0  0  0  0  0  0  0  0
  1  2  2  0
  2  3  1  0
  3  4  1  0
  4  5  1  0
  5  6  2  0
  5  7  1  0
  7  8  1  0
  8  9  1  0
  9 10  1  0
 10 11  1  0
 11 12  1  0
 12 13  2  0
 13 14  1  0
 14 15  2  0
 15 16  1  0
 16 17  1  0
 16 18  2  0
  2 19  1  0
 19 20  2  0
 20 21  1  0
 21 22  2  0
 22 23  1  0
 23 24  2  0
 24 25  1  0
 25 26  2  0
 26 27  1  0
 27 28  2  0
 11  7  1  0
 18 12  1  0
 28 19  1  0
 27 22  1  0
  3 29  1  0
  4 30  1  0
  4 31  1  0
  8 32  1  0
  8 33  1  0
  9 34  1  0
  9 35  1  0
 10 36  1  0
 10 37  1  0
 11 38  1  6
 13 39  1  0
 14 40  1  0
 15 41  1  0
 18 42  1  0
 20 43  1  0
 21 44  1  0
 23 45  1  0
 24 46  1  0
 25 47  1  0
 26 48  1  0
M  END
>  <smiles>  (31) 
O=C(NCC(=O)N1CCCC1c1cccc(Cl)c1)c1ccc2ccccc2n1

>  <score_type>  (31) 
oracle

>  <origin>  (31) 
autodockgpu

>  <m_score__min__energy>  (31) 
-9.4700000000000006

>  <m_primary>  (31) 
energy

>  <rmsd>  (31) 
2.1040142069005827

>  <m_score__min__rmsd>  (31) 
2.1040142069005827

>  <meeko>  (31) 
{"free_energy": -9.33, "intermolecular_energy": -10.83, "internal_energy": -1.6, "cluster_size": 31, "cluster_id": 1, "rank_in_cluster": 5}

>  <energy>  (31) 
-8.59

>  <cluster_rmsd>  (31) 
1.3

>  <cluster>  (31) 
1

$$$$

     RDKit          3D

 48 51  0  0  0  0  0  0  0  0999 V2000
  141.3300   72.1270  221.5110 O   0  0  0  0  0  0  0  0  0  0  0  0
  140.5210   72.4390  222.4450 C   0  0  0  0  0  0  0  0  0  0  0  0
  139.8770   73.7010  222.3170 N   0  0  0  0  0  0  0  0  0  0  0  0
  140.2180   74.4850  221.1380 C   0  0  0  0  0  0  0  0  0  0  0  0
  140.6110   75.8450  221.5470 C   0  0  0  0  0  0  0  0  0  0  0  0
  140.3060   76.2390  222.7080 O   0  0  0  0  0  0  0  0  0  0  0  0
  141.3210   76.6720  220.6190 N   0  0  0  0  0  0  0  0  0  0  0  0
  142.4980   76.2830  219.8290 C   0  0  0  0  0  0  0  0  0  0  0  0
  142.3170   77.1820  218.6140 C   0  0  0  0  0  0  0  0  0  0  0  0
  141.9800   78.4870  219.3030 C   0  0  0  0  0  0  0  0  0  0  0  0
  140.9670   78.0270  220.3310 C   0  0  2  0  0  0  0  0  0  0  0  0
  140.9750   78.8960  221.5330 C   0  0  0  0  0  0  0  0  0  0  0  0
  142.2020   79.3370  221.9810 C   0  0  0  0  0  0  0  0  0  0  0  0
  142.2500   80.1530  223.1060 C   0  0  0  0  0  0  0  0  0  0  0  0
  141.1260   80.5360  223.7900 C   0  0  0  0  0  0  0  0  0  0  0  0
  139.8990   80.0920  223.3380 C   0  0  0  0  0  0  0  0  0  0  0  0
  138.4310   80.5360  224.1530 Cl  0  0  0  0  0  0  0  0  0  0  0  0
  139.8330   79.2710  222.2080 C   0  0  0  0  0  0  0  0  0  0  0  0
  140.2730   71.5510  223.5780 C   0  0  0  0  0  0  0  0  0  0  0  0
  139.6030   70.3700  223.3330 C   0  0  0  0  0  0  0  0  0  0  0  0
  139.3750   69.5370  224.4330 C   0  0  0  0  0  0  0  0  0  0  0  0
  139.8050   69.8990  225.6750 C   0  0  0  0  0  0  0  0  0  0  0  0
  139.5860   69.0870  226.7570 C   0  0  0  0  0  0  0  0  0  0  0  0
  140.0070   69.4160  228.0310 C   0  0  0  0  0  0  0  0  0  0  0  0
  140.6800   70.6220  228.2150 C   0  0  0  0  0  0  0  0  0  0  0  0
  140.9100   71.4540  227.1370 C   0  0  0  0  0  0  0  0  0  0  0  0
  140.4740   71.0910  225.8790 C   0  0  0  0  0  0  0  0  0  0  0  0
  140.6880   71.8870  224.8140 N   0  0  0  0  0  0  0  0  0  0  0  0
  139.1990   74.0280  223.0430 H   0  0  0  0  0  0  0  0  0  0  0  0
  141.0546   74.0055  220.6086 H   0  0  0  0  0  0  0  0  0  0  0  0
  139.3450   74.5414  220.4711 H   0  0  0  0  0  0  0  0  0  0  0  0
  143.4358   76.5011  220.3609 H   0  0  0  0  0  0  0  0  0  0  0  0
  142.5664   75.2089  219.6018 H   0  0  0  0  0  0  0  0  0  0  0  0
  143.2407   77.2593  218.0218 H   0  0  0  0  0  0  0  0  0  0  0  0
  141.5684   76.8343  217.8869 H   0  0  0  0  0  0  0  0  0  0  0  0
  142.8659   78.9304  219.7811 H   0  0  0  0  0  0  0  0  0  0  0  0
  141.6105   79.2714  218.6261 H   0  0  0  0  0  0  0  0  0  0  0  0
  139.9343   78.0921  219.9577 H   0  0  0  0  0  0  0  0  0  0  0  0
  143.1259   79.0487  221.4582 H   0  0  0  0  0  0  0  0  0  0  0  0
  143.2297   80.5052  223.4612 H   0  0  0  0  0  0  0  0  0  0  0  0
  141.1994   81.1815  224.6776 H   0  0  0  0  0  0  0  0  0  0  0  0
  138.8537   78.9186  221.8518 H   0  0  0  0  0  0  0  0  0  0  0  0
  139.2649   70.0971  222.3224 H   0  0  0  0  0  0  0  0  0  0  0  0
  138.8450   68.5830  224.2951 H   0  0  0  0  0  0  0  0  0  0  0  0
  139.0542   68.1361  226.6052 H   0  0  0  0  0  0  0  0  0  0  0  0
  139.8156   68.7424  228.8793 H   0  0  0  0  0  0  0  0  0  0  0  0
  141.0277   70.9111  229.2177 H   0  0  0  0  0  0  0  0  0  0  0  0
  141.4410   72.4065  227.2812 H   0  0  0  0  0  0  0  0  0  0  0  0
  1  2  2  0
  2  3  1  0
  3  4  1  0
  4  5  1  0
  5  6  2  0
  5  7  1  0
  7  8  1  0
  8  9  1  0
  9 10  1  0
 10 11  1  0
 11 12  1  0
 12 13  2  0
 13 14  1  0
 14 15  2  0
 15 16  1  0
 16 17  1  0
 16 18  2  0
  2 19  1  0
 19 20  2  0
 20 21  1  0
 21 22  2  0
 22 23  1  0
 23 24  2  0
 24 25  1  0
 25 26  2  0
 26 27  1  0
 27 28  2  0
 11  7  1  0
 18 12  1  0
 28 19  1  0
 27 22  1  0
  3 29  1  0
  4 30  1  0
  4 31  1  0
  8 32  1  0
  8 33  1  0
  9 34  1  0
  9 35  1  0
 10 36  1  0
 10 37  1  0
 11 38  1  6
 13 39  1  0
 14 40  1  0
 15 41  1  0
 18 42  1  0
 20 43  1  0
 21 44  1  0
 23 45  1  0
 24 46  1  0
 25 47  1  0
 26 48  1  0
M  END
>  <smiles>  (32) 
O=C(NCC(=O)N1CCCC1c1cccc(Cl)c1)c1ccc2ccccc2n1

>  <score_type>  (32) 
oracle

>  <origin>  (32) 
autodockgpu

>  <m_score__min__energy>  (32) 
-9.4700000000000006

>  <m_primary>  (32) 
energy

>  <rmsd>  (32) 
2.1524652629214684

>  <m_score__min__rmsd>  (32) 
2.1524652629214684

>  <meeko>  (32) 
{"free_energy": -9.34, "intermolecular_energy": -10.83, "internal_energy": -1.54, "cluster_size": 31, "cluster_id": 1, "rank_in_cluster": 3}

>  <energy>  (32) 
-8.91

>  <cluster_rmsd>  (32) 
0.0

>  <cluster>  (32) 
2

$$$$

     RDKit          3D

 48 51  0  0  0  0  0  0  0  0999 V2000
  141.1270   71.8580  221.5060 O   0  0  0  0  0  0  0  0  0  0  0  0
  140.2670   72.1410  222.4030 C   0  0  0  0  0  0  0  0  0  0  0  0
  139.4090   73.2410  222.1200 N   0  0  0  0  0  0  0  0  0  0  0  0
  139.6150   73.9100  220.8430 C   0  0  0  0  0  0  0  0  0  0  0  0
  140.5310   75.0490  221.0250 C   0  0  0  0  0  0  0  0  0  0  0  0
  140.7010   75.5070  222.1910 O   0  0  0  0  0  0  0  0  0  0  0  0
  141.1940   75.5990  219.8820 N   0  0  0  0  0  0  0  0  0  0  0  0
  140.5600   76.0120  218.6220 C   0  0  0  0  0  0  0  0  0  0  0  0
  141.5200   77.1090  218.1830 C   0  0  0  0  0  0  0  0  0  0  0  0
  142.8420   76.4180  218.4410 C   0  0  0  0  0  0  0  0  0  0  0  0
  142.6040   75.8270  219.8150 C   0  0  2  0  0  0  0  0  0  0  0  0
  143.4000   74.5930  220.0260 C   0  0  0  0  0  0  0  0  0  0  0  0
  142.9550   73.4460  219.4040 C   0  0  0  0  0  0  0  0  0  0  0  0
  143.6750   72.2680  219.5780 C   0  0  0  0  0  0  0  0  0  0  0  0
  144.8090   72.2010  220.3440 C   0  0  0  0  0  0  0  0  0  0  0  0
  145.2510   73.3530  220.9650 C   0  0  0  0  0  0  0  0  0  0  0  0
  146.6800   73.3460  221.9520 Cl  0  0  0  0  0  0  0  0  0  0  0  0
  144.5390   74.5450  220.8000 C   0  0  0  0  0  0  0  0  0  0  0  0
  140.1710   71.3810  223.6460 C   0  0  0  0  0  0  0  0  0  0  0  0
  139.5760   70.1380  223.5940 C   0  0  0  0  0  0  0  0  0  0  0  0
  139.4950   69.4290  224.7970 C   0  0  0  0  0  0  0  0  0  0  0  0
  139.9870   69.9650  225.9500 C   0  0  0  0  0  0  0  0  0  0  0  0
  139.9100   69.2750  227.1320 C   0  0  0  0  0  0  0  0  0  0  0  0
  140.3980   69.7830  228.3210 C   0  0  0  0  0  0  0  0  0  0  0  0
  140.9880   71.0440  228.3100 C   0  0  0  0  0  0  0  0  0  0  0  0
  141.0740   71.7540  227.1290 C   0  0  0  0  0  0  0  0  0  0  0  0
  140.5760   71.2150  225.9600 C   0  0  0  0  0  0  0  0  0  0  0  0
  140.6500   71.8900  224.7980 N   0  0  0  0  0  0  0  0  0  0  0  0
  138.6780   73.5350  222.8070 H   0  0  0  0  0  0  0  0  0  0  0  0
  140.0509   73.2007  220.1241 H   0  0  0  0  0  0  0  0  0  0  0  0
  138.6499   74.2743  220.4611 H   0  0  0  0  0  0  0  0  0  0  0  0
  140.5239   75.1874  217.8948 H   0  0  0  0  0  0  0  0  0  0  0  0
  139.5106   76.3282  218.7159 H   0  0  0  0  0  0  0  0  0  0  0  0
  141.3921   77.3625  217.1203 H   0  0  0  0  0  0  0  0  0  0  0  0
  141.3914   78.0719  218.6991 H   0  0  0  0  0  0  0  0  0  0  0  0
  143.0396   75.6348  217.6943 H   0  0  0  0  0  0  0  0  0  0  0  0
  143.7169   77.0821  218.3813 H   0  0  0  0  0  0  0  0  0  0  0  0
  142.9319   76.5009  220.6202 H   0  0  0  0  0  0  0  0  0  0  0  0
  142.0479   73.4617  218.7819 H   0  0  0  0  0  0  0  0  0  0  0  0
  143.3194   71.3537  219.0805 H   0  0  0  0  0  0  0  0  0  0  0  0
  145.3542   71.2529  220.4616 H   0  0  0  0  0  0  0  0  0  0  0  0
  144.8942   75.4600  221.2965 H   0  0  0  0  0  0  0  0  0  0  0  0
  139.1844   69.7245  222.6529 H   0  0  0  0  0  0  0  0  0  0  0  0
  139.0310   68.4318  224.8129 H   0  0  0  0  0  0  0  0  0  0  0  0
  139.4422   68.2795  227.1342 H   0  0  0  0  0  0  0  0  0  0  0  0
  140.3221   69.2049  229.2537 H   0  0  0  0  0  0  0  0  0  0  0  0
  141.3852   71.4742  229.2412 H   0  0  0  0  0  0  0  0  0  0  0  0
  141.5400   72.7504  227.1197 H   0  0  0  0  0  0  0  0  0  0  0  0
  1  2  2  0
  2  3  1  0
  3  4  1  0
  4  5  1  0
  5  6  2  0
  5  7  1  0
  7  8  1  0
  8  9  1  0
  9 10  1  0
 10 11  1  0
 11 12  1  0
 12 13  2  0
 13 14  1  0
 14 15  2  0
 15 16  1  0
 16 17  1  0
 16 18  2  0
  2 19  1  0
 19 20  2  0
 20 21  1  0
 21 22  2  0
 22 23  1  0
 23 24  2  0
 24 25  1  0
 25 26  2  0
 26 27  1  0
 27 28  2  0
 11  7  1  0
 18 12  1  0
 28 19  1  0
 27 22  1  0
  3 29  1  0
  4 30  1  0
  4 31  1  0
  8 32  1  0
  8 33  1  0
  9 34  1  0
  9 35  1  0
 10 36  1  0
 10 37  1  0
 11 38  1  1
 13 39  1  0
 14 40  1  0
 15 41  1  0
 18 42  1  0
 20 43  1  0
 21 44  1  0
 23 45  1  0
 24 46  1  0
 25 47  1  0
 26 48  1  0
M  END
>  <smiles>  (33) 
O=C(NCC(=O)N1CCCC1c1cccc(Cl)c1)c1ccc2ccccc2n1

>  <score_type>  (33) 
oracle

>  <origin>  (33) 
autodockgpu

>  <m_score__min__energy>  (33) 
-9.4700000000000006

>  <m_primary>  (33) 
energy

>  <rmsd>  (33) 
1.6463016612526824

>  <m_score__min__rmsd>  (33) 
1.6463016612526824

>  <meeko>  (33) 
{"free_energy": -8.91, "intermolecular_energy": -10.4, "internal_energy": -1.76, "cluster_size": 17, "cluster_id": 2, "rank_in_cluster": 2}

>  <energy>  (33) 
-8.91

>  <cluster_rmsd>  (33) 
0.09

>  <cluster>  (33) 
2

$$$$

     RDKit          3D

 48 51  0  0  0  0  0  0  0  0999 V2000
  141.3820   72.3010  221.9630 O   0  0  0  0  0  0  0  0  0  0  0  0
  140.3420   72.2790  222.6980 C   0  0  0  0  0  0  0  0  0  0  0  0
  139.3430   73.2470  222.3970 N   0  0  0  0  0  0  0  0  0  0  0  0
  139.6280   74.1460  221.2860 C   0  0  0  0  0  0  0  0  0  0  0  0
  139.9420   75.4870  221.8060 C   0  0  0  0  0  0  0  0  0  0  0  0
  141.1380   75.7490  222.1210 O   0  0  0  0  0  0  0  0  0  0  0  0
  138.8890   76.4480  221.9370 N   0  0  0  0  0  0  0  0  0  0  0  0
  137.5640   76.3790  221.3050 C   0  0  0  0  0  0  0  0  0  0  0  0
  136.7360   77.1450  222.3270 C   0  0  0  0  0  0  0  0  0  0  0  0
  137.6510   78.3260  222.5720 C   0  0  0  0  0  0  0  0  0  0  0  0
  138.9900   77.6360  222.7270 C   0  0  2  0  0  0  0  0  0  0  0  0
  140.1110   78.5140  222.3080 C   0  0  0  0  0  0  0  0  0  0  0  0
  140.3410   78.6350  220.9540 C   0  0  0  0  0  0  0  0  0  0  0  0
  141.3820   79.4490  220.5230 C   0  0  0  0  0  0  0  0  0  0  0  0
  142.1910   80.1370  221.3890 C   0  0  0  0  0  0  0  0  0  0  0  0
  141.9570   80.0130  222.7450 C   0  0  0  0  0  0  0  0  0  0  0  0
  142.9390   80.8540  223.9040 Cl  0  0  0  0  0  0  0  0  0  0  0  0
  140.9140   79.1990  223.1950 C   0  0  0  0  0  0  0  0  0  0  0  0
  140.1870   71.3170  223.7860 C   0  0  0  0  0  0  0  0  0  0  0  0
  139.5500   70.1270  223.5040 C   0  0  0  0  0  0  0  0  0  0  0  0
  139.4130   69.2220  224.5610 C   0  0  0  0  0  0  0  0  0  0  0  0
  139.8940   69.5260  225.8000 C   0  0  0  0  0  0  0  0  0  0  0  0
  139.7630   68.6440  226.8400 C   0  0  0  0  0  0  0  0  0  0  0  0
  140.2370   68.9150  228.1090 C   0  0  0  0  0  0  0  0  0  0  0  0
  140.8720   70.1350  228.3330 C   0  0  0  0  0  0  0  0  0  0  0  0
  141.0130   71.0370  227.2960 C   0  0  0  0  0  0  0  0  0  0  0  0
  140.5270   70.7320  226.0420 C   0  0  0  0  0  0  0  0  0  0  0  0
  140.6540   71.5970  225.0190 N   0  0  0  0  0  0  0  0  0  0  0  0
  138.4610   73.2930  222.9560 H   0  0  0  0  0  0  0  0  0  0  0  0
  140.4877   73.7634  220.7163 H   0  0  0  0  0  0  0  0  0  0  0  0
  138.7484   74.2052  220.6282 H   0  0  0  0  0  0  0  0  0  0  0  0
  137.5556   76.8725  220.3220 H   0  0  0  0  0  0  0  0  0  0  0  0
  137.2071   75.3603  221.0931 H   0  0  0  0  0  0  0  0  0  0  0  0
  135.7658   77.4586  221.9143 H   0  0  0  0  0  0  0  0  0  0  0  0
  136.4651   76.5734  223.2269 H   0  0  0  0  0  0  0  0  0  0  0  0
  137.6515   79.0191  221.7178 H   0  0  0  0  0  0  0  0  0  0  0  0
  137.3627   78.9488  223.4317 H   0  0  0  0  0  0  0  0  0  0  0  0
  139.2136   77.3935  223.7764 H   0  0  0  0  0  0  0  0  0  0  0  0
  139.7126   78.0976  220.2286 H   0  0  0  0  0  0  0  0  0  0  0  0
  141.5639   79.5448  219.4424 H   0  0  0  0  0  0  0  0  0  0  0  0
  143.0067   80.7724  221.0138 H   0  0  0  0  0  0  0  0  0  0  0  0
  140.7306   79.1032  224.2754 H   0  0  0  0  0  0  0  0  0  0  0  0
  139.1685   69.9009  222.4973 H   0  0  0  0  0  0  0  0  0  0  0  0
  138.9131   68.2569  224.3916 H   0  0  0  0  0  0  0  0  0  0  0  0
  139.2608   67.6825  226.6575 H   0  0  0  0  0  0  0  0  0  0  0  0
  140.1161   68.1852  228.9231 H   0  0  0  0  0  0  0  0  0  0  0  0
  141.2600   70.3793  229.3329 H   0  0  0  0  0  0  0  0  0  0  0  0
  141.5140   72.0005  227.4710 H   0  0  0  0  0  0  0  0  0  0  0  0
  1  2  2  0
  2  3  1  0
  3  4  1  0
  4  5  1  0
  5  6  2  0
  5  7  1  0
  7  8  1  0
  8  9  1  0
  9 10  1  0
 10 11  1  0
 11 12  1  0
 12 13  2  0
 13 14  1  0
 14 15  2  0
 15 16  1  0
 16 17  1  0
 16 18  2  0
  2 19  1  0
 19 20  2  0
 20 21  1  0
 21 22  2  0
 22 23  1  0
 23 24  2  0
 24 25  1  0
 25 26  2  0
 26 27  1  0
 27 28  2  0
 11  7  1  0
 18 12  1  0
 28 19  1  0
 27 22  1  0
  3 29  1  0
  4 30  1  0
  4 31  1  0
  8 32  1  0
  8 33  1  0
  9 34  1  0
  9 35  1  0
 10 36  1  0
 10 37  1  0
 11 38  1  1
 13 39  1  0
 14 40  1  0
 15 41  1  0
 18 42  1  0
 20 43  1  0
 21 44  1  0
 23 45  1  0
 24 46  1  0
 25 47  1  0
 26 48  1  0
M  END
>  <smiles>  (34) 
O=C(NCC(=O)N1CCCC1c1cccc(Cl)c1)c1ccc2ccccc2n1

>  <score_type>  (34) 
oracle

>  <origin>  (34) 
autodockgpu

>  <m_score__min__energy>  (34) 
-9.4700000000000006

>  <m_primary>  (34) 
energy

>  <rmsd>  (34) 
2.871291619864529

>  <m_score__min__rmsd>  (34) 
2.871291619864529

>  <meeko>  (34) 
{"free_energy": -9.04, "intermolecular_energy": -10.53, "internal_energy": -1.25, "cluster_size": 31, "cluster_id": 1, "rank_in_cluster": 26}

>  <energy>  (34) 
-8.81

>  <cluster_rmsd>  (34) 
0.72

>  <cluster>  (34) 
2

$$$$

     RDKit          3D

 48 51  0  0  0  0  0  0  0  0999 V2000
  141.2710   72.1640  221.7730 O   0  0  0  0  0  0  0  0  0  0  0  0
  140.2610   72.2600  222.5430 C   0  0  0  0  0  0  0  0  0  0  0  0
  139.2710   73.2060  222.1590 N   0  0  0  0  0  0  0  0  0  0  0  0
  139.5270   73.9500  220.9330 C   0  0  0  0  0  0  0  0  0  0  0  0
  140.1750   75.2320  221.2610 C   0  0  0  0  0  0  0  0  0  0  0  0
  140.1360   75.6410  222.4560 O   0  0  0  0  0  0  0  0  0  0  0  0
  140.8240   75.9700  220.2200 N   0  0  0  0  0  0  0  0  0  0  0  0
  140.1650   76.6870  219.1200 C   0  0  0  0  0  0  0  0  0  0  0  0
  141.1870   77.7860  218.8630 C   0  0  0  0  0  0  0  0  0  0  0  0
  142.4600   76.9680  218.8830 C   0  0  0  0  0  0  0  0  0  0  0  0
  142.2430   76.1110  220.1130 C   0  0  2  0  0  0  0  0  0  0  0  0
  142.9470   74.8100  220.0050 C   0  0  0  0  0  0  0  0  0  0  0  0
  142.3320   73.8230  219.2640 C   0  0  0  0  0  0  0  0  0  0  0  0
  142.9610   72.5890  219.1400 C   0  0  0  0  0  0  0  0  0  0  0  0
  144.1690   72.3130  219.7260 C   0  0  0  0  0  0  0  0  0  0  0  0
  144.7810   73.3040  220.4680 C   0  0  0  0  0  0  0  0  0  0  0  0
  146.3120   73.0270  221.2400 Cl  0  0  0  0  0  0  0  0  0  0  0  0
  144.1620   74.5500  220.6020 C   0  0  0  0  0  0  0  0  0  0  0  0
  140.1320   71.4470  223.7500 C   0  0  0  0  0  0  0  0  0  0  0  0
  139.3920   70.2860  223.6650 C   0  0  0  0  0  0  0  0  0  0  0  0
  139.2810   69.5250  224.8320 C   0  0  0  0  0  0  0  0  0  0  0  0
  139.8850   69.9330  225.9840 C   0  0  0  0  0  0  0  0  0  0  0  0
  139.7800   69.1910  227.1320 C   0  0  0  0  0  0  0  0  0  0  0  0
  140.3780   69.5700  228.3190 C   0  0  0  0  0  0  0  0  0  0  0  0
  141.1130   70.7530  228.3420 C   0  0  0  0  0  0  0  0  0  0  0  0
  141.2300   71.5140  227.1950 C   0  0  0  0  0  0  0  0  0  0  0  0
  140.6190   71.1040  226.0280 C   0  0  0  0  0  0  0  0  0  0  0  0
  140.7200   71.8300  224.9000 N   0  0  0  0  0  0  0  0  0  0  0  0
  138.4120   73.3440  222.7400 H   0  0  0  0  0  0  0  0  0  0  0  0
  140.1878   73.3622  220.2789 H   0  0  0  0  0  0  0  0  0  0  0  0
  138.5752   74.1426  220.4162 H   0  0  0  0  0  0  0  0  0  0  0  0
  140.0285   76.0435  218.2384 H   0  0  0  0  0  0  0  0  0  0  0  0
  139.1497   77.0451  219.3459 H   0  0  0  0  0  0  0  0  0  0  0  0
  141.0286   78.2715  217.8888 H   0  0  0  0  0  0  0  0  0  0  0  0
  141.1606   78.6209  219.5787 H   0  0  0  0  0  0  0  0  0  0  0  0
  142.5579   76.3533  217.9761 H   0  0  0  0  0  0  0  0  0  0  0  0
  143.3811   77.5688  218.9094 H   0  0  0  0  0  0  0  0  0  0  0  0
  142.6624   76.5702  221.0203 H   0  0  0  0  0  0  0  0  0  0  0  0
  141.3618   74.0084  218.7799 H   0  0  0  0  0  0  0  0  0  0  0  0
  142.4695   71.8029  218.5480 H   0  0  0  0  0  0  0  0  0  0  0  0
  144.6397   71.3258  219.6081 H   0  0  0  0  0  0  0  0  0  0  0  0
  144.6528   75.3366  221.1940 H   0  0  0  0  0  0  0  0  0  0  0  0
  138.9129   69.9745  222.7251 H   0  0  0  0  0  0  0  0  0  0  0  0
  138.7019   68.5898  224.8208 H   0  0  0  0  0  0  0  0  0  0  0  0
  139.1975   68.2582  227.1075 H   0  0  0  0  0  0  0  0  0  0  0  0
  140.2760   68.9524  229.2236 H   0  0  0  0  0  0  0  0  0  0  0  0
  141.5997   71.0809  229.2724 H   0  0  0  0  0  0  0  0  0  0  0  0
  141.8110   72.4479  227.2122 H   0  0  0  0  0  0  0  0  0  0  0  0
  1  2  2  0
  2  3  1  0
  3  4  1  0
  4  5  1  0
  5  6  2  0
  5  7  1  0
  7  8  1  0
  8  9  1  0
  9 10  1  0
 10 11  1  0
 11 12  1  0
 12 13  2  0
 13 14  1  0
 14 15  2  0
 15 16  1  0
 16 17  1  0
 16 18  2  0
  2 19  1  0
 19 20  2  0
 20 21  1  0
 21 22  2  0
 22 23  1  0
 23 24  2  0
 24 25  1  0
 25 26  2  0
 26 27  1  0
 27 28  2  0
 11  7  1  0
 18 12  1  0
 28 19  1  0
 27 22  1  0
  3 29  1  0
  4 30  1  0
  4 31  1  0
  8 32  1  0
  8 33  1  0
  9 34  1  0
  9 35  1  0
 10 36  1  0
 10 37  1  0
 11 38  1  1
 13 39  1  0
 14 40  1  0
 15 41  1  0
 18 42  1  0
 20 43  1  0
 21 44  1  0
 23 45  1  0
 24 46  1  0
 25 47  1  0
 26 48  1  0
M  END
>  <smiles>  (35) 
O=C(NCC(=O)N1CCCC1c1cccc(Cl)c1)c1ccc2ccccc2n1

>  <score_type>  (35) 
oracle

>  <origin>  (35) 
autodockgpu

>  <m_score__min__energy>  (35) 
-9.4700000000000006

>  <m_primary>  (35) 
energy

>  <rmsd>  (35) 
1.6537117500345644

>  <m_score__min__rmsd>  (35) 
1.6537117500345644

>  <meeko>  (35) 
{"free_energy": -8.59, "intermolecular_energy": -10.08, "internal_energy": -1.73, "cluster_size": 17, "cluster_id": 2, "rank_in_cluster": 13}

>  <energy>  (35) 
-8.8

>  <cluster_rmsd>  (35) 
0.92

>  <cluster>  (35) 
2

$$$$

     RDKit          3D

 48 51  0  0  0  0  0  0  0  0999 V2000
  140.5050   71.5140  221.2150 O   0  0  0  0  0  0  0  0  0  0  0  0
  140.1670   72.0680  222.3110 C   0  0  0  0  0  0  0  0  0  0  0  0
  139.8490   73.4530  222.2380 N   0  0  0  0  0  0  0  0  0  0  0  0
  139.9480   74.0710  220.9230 C   0  0  0  0  0  0  0  0  0  0  0  0
  140.8240   75.2530  220.9990 C   0  0  0  0  0  0  0  0  0  0  0  0
  140.9790   75.8210  222.1170 O   0  0  0  0  0  0  0  0  0  0  0  0
  141.4690   75.7190  219.8090 N   0  0  0  0  0  0  0  0  0  0  0  0
  140.8120   76.0650  218.5410 C   0  0  0  0  0  0  0  0  0  0  0  0
  141.7790   77.1140  218.0120 C   0  0  0  0  0  0  0  0  0  0  0  0
  143.0950   76.4160  218.2810 C   0  0  0  0  0  0  0  0  0  0  0  0
  142.8810   75.9160  219.6950 C   0  0  2  0  0  0  0  0  0  0  0  0
  143.6600   74.6820  219.9630 C   0  0  0  0  0  0  0  0  0  0  0  0
  144.9360   74.8420  220.4610 C   0  0  0  0  0  0  0  0  0  0  0  0
  145.6980   73.7090  220.7250 C   0  0  0  0  0  0  0  0  0  0  0  0
  145.2320   72.4380  220.5100 C   0  0  0  0  0  0  0  0  0  0  0  0
  143.9540   72.2830  220.0110 C   0  0  0  0  0  0  0  0  0  0  0  0
  143.2950   70.7040  219.7130 Cl  0  0  0  0  0  0  0  0  0  0  0  0
  143.1750   73.4110  219.7410 C   0  0  0  0  0  0  0  0  0  0  0  0
  140.1100   71.3240  223.5670 C   0  0  0  0  0  0  0  0  0  0  0  0
  139.5710   70.0540  223.5360 C   0  0  0  0  0  0  0  0  0  0  0  0
  139.5270   69.3610  224.7500 C   0  0  0  0  0  0  0  0  0  0  0  0
  139.9990   69.9350  225.8920 C   0  0  0  0  0  0  0  0  0  0  0  0
  139.9590   69.2610  227.0850 C   0  0  0  0  0  0  0  0  0  0  0  0
  140.4280   69.8080  228.2630 C   0  0  0  0  0  0  0  0  0  0  0  0
  140.9610   71.0940  228.2310 C   0  0  0  0  0  0  0  0  0  0  0  0
  141.0110   71.7890  227.0380 C   0  0  0  0  0  0  0  0  0  0  0  0
  140.5320   71.2110  225.8810 C   0  0  0  0  0  0  0  0  0  0  0  0
  140.5710   71.8710  224.7080 N   0  0  0  0  0  0  0  0  0  0  0  0
  139.5620   73.9790  223.0960 H   0  0  0  0  0  0  0  0  0  0  0  0
  140.3694   73.3479  220.2091 H   0  0  0  0  0  0  0  0  0  0  0  0
  138.9468   74.3784  220.5867 H   0  0  0  0  0  0  0  0  0  0  0  0
  140.7440   75.1977  217.8678 H   0  0  0  0  0  0  0  0  0  0  0  0
  139.7709   76.4062  218.6396 H   0  0  0  0  0  0  0  0  0  0  0  0
  141.6291   77.3035  216.9389 H   0  0  0  0  0  0  0  0  0  0  0  0
  141.6798   78.1092  218.4700 H   0  0  0  0  0  0  0  0  0  0  0  0
  143.2605   75.5843  217.5803 H   0  0  0  0  0  0  0  0  0  0  0  0
  143.9794   77.0586  218.1590 H   0  0  0  0  0  0  0  0  0  0  0  0
  143.2404   76.6321  220.4487 H   0  0  0  0  0  0  0  0  0  0  0  0
  145.3434   75.8469  220.6459 H   0  0  0  0  0  0  0  0  0  0  0  0
  146.7156   73.8380  221.1223 H   0  0  0  0  0  0  0  0  0  0  0  0
  145.8610   71.5627  220.7297 H   0  0  0  0  0  0  0  0  0  0  0  0
  142.1571   73.2826  219.3444 H   0  0  0  0  0  0  0  0  0  0  0  0
  139.1948   69.6090  222.6030 H   0  0  0  0  0  0  0  0  0  0  0  0
  139.1080   68.3445  224.7831 H   0  0  0  0  0  0  0  0  0  0  0  0
  139.5371   68.2453  227.1047 H   0  0  0  0  0  0  0  0  0  0  0  0
  140.3816   69.2411  229.2046 H   0  0  0  0  0  0  0  0  0  0  0  0
  141.3416   71.5558  229.1540 H   0  0  0  0  0  0  0  0  0  0  0  0
  141.4333   72.8044  227.0109 H   0  0  0  0  0  0  0  0  0  0  0  0
  1  2  2  0
  2  3  1  0
  3  4  1  0
  4  5  1  0
  5  6  2  0
  5  7  1  0
  7  8  1  0
  8  9  1  0
  9 10  1  0
 10 11  1  0
 11 12  1  0
 12 13  2  0
 13 14  1  0
 14 15  2  0
 15 16  1  0
 16 17  1  0
 16 18  2  0
  2 19  1  0
 19 20  2  0
 20 21  1  0
 21 22  2  0
 22 23  1  0
 23 24  2  0
 24 25  1  0
 25 26  2  0
 26 27  1  0
 27 28  2  0
 11  7  1  0
 18 12  1  0
 28 19  1  0
 27 22  1  0
  3 29  1  0
  4 30  1  0
  4 31  1  0
  8 32  1  0
  8 33  1  0
  9 34  1  0
  9 35  1  0
 10 36  1  0
 10 37  1  0
 11 38  1  1
 13 39  1  0
 14 40  1  0
 15 41  1  0
 18 42  1  0
 20 43  1  0
 21 44  1  0
 23 45  1  0
 24 46  1  0
 25 47  1  0
 26 48  1  0
M  END
>  <smiles>  (36) 
O=C(NCC(=O)N1CCCC1c1cccc(Cl)c1)c1ccc2ccccc2n1

>  <score_type>  (36) 
oracle

>  <origin>  (36) 
autodockgpu

>  <m_score__min__energy>  (36) 
-9.4700000000000006

>  <m_primary>  (36) 
energy

>  <rmsd>  (36) 
1.7507113043416735

>  <m_score__min__rmsd>  (36) 
1.7507113043416735

>  <meeko>  (36) 
{"free_energy": -8.63, "intermolecular_energy": -10.12, "internal_energy": -1.99, "cluster_size": 17, "cluster_id": 2, "rank_in_cluster": 11}

>  <energy>  (36) 
-8.79

>  <cluster_rmsd>  (36) 
0.62

>  <cluster>  (36) 
2

$$$$

     RDKit          3D

 48 51  0  0  0  0  0  0  0  0999 V2000
  141.2050   71.6130  221.5340 O   0  0  0  0  0  0  0  0  0  0  0  0
  140.4890   72.0030  222.5130 C   0  0  0  0  0  0  0  0  0  0  0  0
  139.9420   73.3120  222.4020 N   0  0  0  0  0  0  0  0  0  0  0  0
  140.2640   74.0480  221.1870 C   0  0  0  0  0  0  0  0  0  0  0  0
  140.5190   75.4600  221.5190 C   0  0  0  0  0  0  0  0  0  0  0  0
  140.0330   75.9270  222.5880 O   0  0  0  0  0  0  0  0  0  0  0  0
  141.3040   76.2550  220.6240 N   0  0  0  0  0  0  0  0  0  0  0  0
  142.5860   75.8710  220.0160 C   0  0  0  0  0  0  0  0  0  0  0  0
  142.5210   76.6700  218.7210 C   0  0  0  0  0  0  0  0  0  0  0  0
  142.0460   78.0020  219.2610 C   0  0  0  0  0  0  0  0  0  0  0  0
  140.9320   77.5650  220.1900 C   0  0  2  0  0  0  0  0  0  0  0  0
  140.7520   78.5170  221.3140 C   0  0  0  0  0  0  0  0  0  0  0  0
  139.4570   78.8010  221.6930 C   0  0  0  0  0  0  0  0  0  0  0  0
  139.2470   79.6890  222.7430 C   0  0  0  0  0  0  0  0  0  0  0  0
  140.2760   80.2940  223.4160 C   0  0  0  0  0  0  0  0  0  0  0  0
  141.5710   80.0070  223.0330 C   0  0  0  0  0  0  0  0  0  0  0  0
  142.9270   80.7350  223.8380 Cl  0  0  0  0  0  0  0  0  0  0  0  0
  141.8000   79.1160  221.9790 C   0  0  0  0  0  0  0  0  0  0  0  0
  140.2470   71.1560  223.6770 C   0  0  0  0  0  0  0  0  0  0  0  0
  139.5700   69.9710  223.4790 C   0  0  0  0  0  0  0  0  0  0  0  0
  139.3500   69.1770  224.6090 C   0  0  0  0  0  0  0  0  0  0  0  0
  139.7930   69.5780  225.8340 C   0  0  0  0  0  0  0  0  0  0  0  0
  139.5800   68.8050  226.9450 C   0  0  0  0  0  0  0  0  0  0  0  0
  140.0140   69.1760  228.2030 C   0  0  0  0  0  0  0  0  0  0  0  0
  140.6930   70.3850  228.3400 C   0  0  0  0  0  0  0  0  0  0  0  0
  140.9170   71.1780  227.2320 C   0  0  0  0  0  0  0  0  0  0  0  0
  140.4680   70.7740  225.9910 C   0  0  0  0  0  0  0  0  0  0  0  0
  140.6760   71.5320  224.8980 N   0  0  0  0  0  0  0  0  0  0  0  0
  139.3440   73.7050  223.1650 H   0  0  0  0  0  0  0  0  0  0  0  0
  141.1612   73.6132  220.7223 H   0  0  0  0  0  0  0  0  0  0  0  0
  139.4190   73.9840  220.4857 H   0  0  0  0  0  0  0  0  0  0  0  0
  143.4397   76.1748  220.6396 H   0  0  0  0  0  0  0  0  0  0  0  0
  142.7274   74.7882  219.8832 H   0  0  0  0  0  0  0  0  0  0  0  0
  143.5075   76.7518  218.2413 H   0  0  0  0  0  0  0  0  0  0  0  0
  141.8848   76.2331  217.9372 H   0  0  0  0  0  0  0  0  0  0  0  0
  142.8455   78.5230  219.8081 H   0  0  0  0  0  0  0  0  0  0  0  0
  141.7321   78.7165  218.4858 H   0  0  0  0  0  0  0  0  0  0  0  0
  139.9531   77.5499  219.6886 H   0  0  0  0  0  0  0  0  0  0  0  0
  138.6062   78.3343  221.1749 H   0  0  0  0  0  0  0  0  0  0  0  0
  138.2136   79.9146  223.0451 H   0  0  0  0  0  0  0  0  0  0  0  0
  140.0749   80.9920  224.2421 H   0  0  0  0  0  0  0  0  0  0  0  0
  142.8331   78.8899  221.6762 H   0  0  0  0  0  0  0  0  0  0  0  0
  139.2204   69.6655  222.4818 H   0  0  0  0  0  0  0  0  0  0  0  0
  138.8151   68.2211  224.5083 H   0  0  0  0  0  0  0  0  0  0  0  0
  139.0426   67.8520  226.8309 H   0  0  0  0  0  0  0  0  0  0  0  0
  139.8280   68.5325  229.0755 H   0  0  0  0  0  0  0  0  0  0  0  0
  141.0500   70.7072  229.3293 H   0  0  0  0  0  0  0  0  0  0  0  0
  141.4536   72.1323  227.3385 H   0  0  0  0  0  0  0  0  0  0  0  0
  1  2  2  0
  2  3  1  0
  3  4  1  0
  4  5  1  0
  5  6  2  0
  5  7  1  0
  7  8  1  0
  8  9  1  0
  9 10  1  0
 10 11  1  0
 11 12  1  0
 12 13  2  0
 13 14  1  0
 14 15  2  0
 15 16  1  0
 16 17  1  0
 16 18  2  0
  2 19  1  0
 19 20  2  0
 20 21  1  0
 21 22  2  0
 22 23  1  0
 23 24  2  0
 24 25  1  0
 25 26  2  0
 26 27  1  0
 27 28  2  0
 11  7  1  0
 18 12  1  0
 28 19  1  0
 27 22  1  0
  3 29  1  0
  4 30  1  0
  4 31  1  0
  8 32  1  0
  8 33  1  0
  9 34  1  0
  9 35  1  0
 10 36  1  0
 10 37  1  0
 11 38  1  6
 13 39  1  0
 14 40  1  0
 15 41  1  0
 18 42  1  0
 20 43  1  0
 21 44  1  0
 23 45  1  0
 24 46  1  0
 25 47  1  0
 26 48  1  0
M  END
>  <smiles>  (37) 
O=C(NCC(=O)N1CCCC1c1cccc(Cl)c1)c1ccc2ccccc2n1

>  <score_type>  (37) 
oracle

>  <origin>  (37) 
autodockgpu

>  <m_score__min__energy>  (37) 
-9.4700000000000006

>  <m_primary>  (37) 
energy

>  <rmsd>  (37) 
2.0583124116935383

>  <m_score__min__rmsd>  (37) 
2.0583124116935383

>  <meeko>  (37) 
{"free_energy": -9.25, "intermolecular_energy": -10.75, "internal_energy": -1.62, "cluster_size": 31, "cluster_id": 1, "rank_in_cluster": 17}

>  <energy>  (37) 
-8.77

>  <cluster_rmsd>  (37) 
0.85

>  <cluster>  (37) 
2

$$$$

     RDKit          3D

 48 51  0  0  0  0  0  0  0  0999 V2000
  140.6990   71.4610  221.3130 O   0  0  0  0  0  0  0  0  0  0  0  0
  140.2810   72.0180  222.3790 C   0  0  0  0  0  0  0  0  0  0  0  0
  139.9290   73.3930  222.2690 N   0  0  0  0  0  0  0  0  0  0  0  0
  140.0890   73.9980  220.9540 C   0  0  0  0  0  0  0  0  0  0  0  0
  140.9210   75.2080  221.0670 C   0  0  0  0  0  0  0  0  0  0  0  0
  141.0200   75.7720  222.1930 O   0  0  0  0  0  0  0  0  0  0  0  0
  141.5880   75.7050  219.9010 N   0  0  0  0  0  0  0  0  0  0  0  0
  140.9500   76.1240  218.6450 C   0  0  0  0  0  0  0  0  0  0  0  0
  141.9510   77.1670  218.1680 C   0  0  0  0  0  0  0  0  0  0  0  0
  143.2440   76.4190  218.4150 C   0  0  0  0  0  0  0  0  0  0  0  0
  143.0050   75.8660  219.8050 C   0  0  2  0  0  0  0  0  0  0  0  0
  143.7470   74.6000  220.0250 C   0  0  0  0  0  0  0  0  0  0  0  0
  145.0360   74.7020  220.5020 C   0  0  0  0  0  0  0  0  0  0  0  0
  145.7630   73.5380  220.7210 C   0  0  0  0  0  0  0  0  0  0  0  0
  145.2510   72.2890  220.4810 C   0  0  0  0  0  0  0  0  0  0  0  0
  143.9590   72.1910  220.0020 C   0  0  0  0  0  0  0  0  0  0  0  0
  143.2410   70.6440  219.6740 Cl  0  0  0  0  0  0  0  0  0  0  0  0
  143.2140   73.3530  219.7770 C   0  0  0  0  0  0  0  0  0  0  0  0
  140.1700   71.2870  223.6390 C   0  0  0  0  0  0  0  0  0  0  0  0
  139.5770   70.0420  223.6080 C   0  0  0  0  0  0  0  0  0  0  0  0
  139.4820   69.3610  224.8260 C   0  0  0  0  0  0  0  0  0  0  0  0
  139.9600   69.9240  225.9720 C   0  0  0  0  0  0  0  0  0  0  0  0
  139.8700   69.2620  227.1690 C   0  0  0  0  0  0  0  0  0  0  0  0
  140.3430   69.7970  228.3510 C   0  0  0  0  0  0  0  0  0  0  0  0
  140.9330   71.0580  228.3190 C   0  0  0  0  0  0  0  0  0  0  0  0
  141.0330   71.7410  227.1220 C   0  0  0  0  0  0  0  0  0  0  0  0
  140.5490   71.1740  225.9610 C   0  0  0  0  0  0  0  0  0  0  0  0
  140.6360   71.8230  224.7840 N   0  0  0  0  0  0  0  0  0  0  0  0
  139.5780   73.9200  223.1010 H   0  0  0  0  0  0  0  0  0  0  0  0
  140.5759   73.2804  220.2772 H   0  0  0  0  0  0  0  0  0  0  0  0
  139.1012   74.2690  220.5529 H   0  0  0  0  0  0  0  0  0  0  0  0
  140.8622   75.2889  217.9345 H   0  0  0  0  0  0  0  0  0  0  0  0
  139.9182   76.4902  218.7518 H   0  0  0  0  0  0  0  0  0  0  0  0
  141.8148   77.4072  217.1032 H   0  0  0  0  0  0  0  0  0  0  0  0
  141.8771   78.1441  218.6678 H   0  0  0  0  0  0  0  0  0  0  0  0
  143.3899   75.6133  217.6805 H   0  0  0  0  0  0  0  0  0  0  0  0
  144.1479   77.0395  218.3259 H   0  0  0  0  0  0  0  0  0  0  0  0
  143.3785   76.5387  220.5911 H   0  0  0  0  0  0  0  0  0  0  0  0
  145.4813   75.6870  220.7057 H   0  0  0  0  0  0  0  0  0  0  0  0
  146.7913   73.6222  221.1025 H   0  0  0  0  0  0  0  0  0  0  0  0
  145.8539   71.3876  220.6653 H   0  0  0  0  0  0  0  0  0  0  0  0
  142.1855   73.2706  219.3957 H   0  0  0  0  0  0  0  0  0  0  0  0
  139.1977   69.6064  222.6719 H   0  0  0  0  0  0  0  0  0  0  0  0
  139.0183   68.3641  224.8595 H   0  0  0  0  0  0  0  0  0  0  0  0
  139.4030   68.2663  227.1888 H   0  0  0  0  0  0  0  0  0  0  0  0
  140.2558   69.2401  229.2956 H   0  0  0  0  0  0  0  0  0  0  0  0
  141.3187   71.5095  229.2449 H   0  0  0  0  0  0  0  0  0  0  0  0
  141.4987   72.7372  227.0947 H   0  0  0  0  0  0  0  0  0  0  0  0
  1  2  2  0
  2  3  1  0
  3  4  1  0
  4  5  1  0
  5  6  2  0
  5  7  1  0
  7  8  1  0
  8  9  1  0
  9 10  1  0
 10 11  1  0
 11 12  1  0
 12 13  2  0
 13 14  1  0
 14 15  2  0
 15 16  1  0
 16 17  1  0
 16 18  2  0
  2 19  1  0
 19 20  2  0
 20 21  1  0
 21 22  2  0
 22 23  1  0
 23 24  2  0
 24 25  1  0
 25 26  2  0
 26 27  1  0
 27 28  2  0
 11  7  1  0
 18 12  1  0
 28 19  1  0
 27 22  1  0
  3 29  1  0
  4 30  1  0
  4 31  1  0
  8 32  1  0
  8 33  1  0
  9 34  1  0
  9 35  1  0
 10 36  1  0
 10 37  1  0
 11 38  1  1
 13 39  1  0
 14 40  1  0
 15 41  1  0
 18 42  1  0
 20 43  1  0
 21 44  1  0
 23 45  1  0
 24 46  1  0
 25 47  1  0
 26 48  1  0
M  END
>  <smiles>  (38) 
O=C(NCC(=O)N1CCCC1c1cccc(Cl)c1)c1ccc2ccccc2n1

>  <score_type>  (38) 
oracle

>  <origin>  (38) 
autodockgpu

>  <m_score__min__energy>  (38) 
-9.4700000000000006

>  <m_primary>  (38) 
energy

>  <rmsd>  (38) 
1.8438906177781327

>  <m_score__min__rmsd>  (38) 
1.8438906177781327

>  <meeko>  (38) 
{"free_energy": -8.74, "intermolecular_energy": -10.23, "internal_energy": -1.95, "cluster_size": 17, "cluster_id": 2, "rank_in_cluster": 8}

>  <energy>  (38) 
-8.76

>  <cluster_rmsd>  (38) 
0.39

>  <cluster>  (38) 
2

$$$$

     RDKit          3D

 48 51  0  0  0  0  0  0  0  0999 V2000
  139.9150   70.8630  221.2030 O   0  0  0  0  0  0  0  0  0  0  0  0
  140.1760   71.4600  222.2980 C   0  0  0  0  0  0  0  0  0  0  0  0
  140.5810   72.8200  222.1860 N   0  0  0  0  0  0  0  0  0  0  0  0
  140.6480   73.3660  220.8380 C   0  0  0  0  0  0  0  0  0  0  0  0
  140.8910   74.8170  220.9060 C   0  0  0  0  0  0  0  0  0  0  0  0
  140.6390   75.4230  221.9860 O   0  0  0  0  0  0  0  0  0  0  0  0
  141.4020   75.4920  219.7510 N   0  0  0  0  0  0  0  0  0  0  0  0
  140.6330   75.8910  218.5640 C   0  0  0  0  0  0  0  0  0  0  0  0
  141.4320   77.1090  218.1210 C   0  0  0  0  0  0  0  0  0  0  0  0
  142.8370   76.5590  218.2460 C   0  0  0  0  0  0  0  0  0  0  0  0
  142.7700   75.8800  219.5990 C   0  0  2  0  0  0  0  0  0  0  0  0
  143.7090   74.7350  219.6840 C   0  0  0  0  0  0  0  0  0  0  0  0
  143.5980   73.7590  218.7160 C   0  0  0  0  0  0  0  0  0  0  0  0
  144.4600   72.6700  218.7620 C   0  0  0  0  0  0  0  0  0  0  0  0
  145.4170   72.5250  219.7320 C   0  0  0  0  0  0  0  0  0  0  0  0
  145.5250   73.5040  220.7000 C   0  0  0  0  0  0  0  0  0  0  0  0
  146.7140   73.3900  221.9610 Cl  0  0  0  0  0  0  0  0  0  0  0  0
  144.6660   74.6060  220.6680 C   0  0  0  0  0  0  0  0  0  0  0  0
  140.0670   70.7860  223.5890 C   0  0  0  0  0  0  0  0  0  0  0  0
  139.4560   69.5500  223.6180 C   0  0  0  0  0  0  0  0  0  0  0  0
  139.3620   68.9240  224.8650 C   0  0  0  0  0  0  0  0  0  0  0  0
  139.8580   69.5280  225.9810 C   0  0  0  0  0  0  0  0  0  0  0  0
  139.7700   68.9210  227.2060 C   0  0  0  0  0  0  0  0  0  0  0  0
  140.2620   69.5000  228.3600 C   0  0  0  0  0  0  0  0  0  0  0  0
  140.8690   70.7490  228.2680 C   0  0  0  0  0  0  0  0  0  0  0  0
  140.9680   71.3780  227.0410 C   0  0  0  0  0  0  0  0  0  0  0  0
  140.4650   70.7690  225.9100 C   0  0  0  0  0  0  0  0  0  0  0  0
  140.5510   71.3640  224.7060 N   0  0  0  0  0  0  0  0  0  0  0  0
  140.8140   73.3770  223.0400 H   0  0  0  0  0  0  0  0  0  0  0  0
  141.4683   72.8825  220.2872 H   0  0  0  0  0  0  0  0  0  0  0  0
  139.6963   73.1782  220.3193 H   0  0  0  0  0  0  0  0  0  0  0  0
  140.6316   75.1035  217.7960 H   0  0  0  0  0  0  0  0  0  0  0  0
  139.5656   76.0821  218.7490 H   0  0  0  0  0  0  0  0  0  0  0  0
  141.1968   77.3975  217.0859 H   0  0  0  0  0  0  0  0  0  0  0  0
  141.2394   78.0254  218.6982 H   0  0  0  0  0  0  0  0  0  0  0  0
  143.0606   75.8393  217.4448 H   0  0  0  0  0  0  0  0  0  0  0  0
  143.6277   77.3190  218.1618 H   0  0  0  0  0  0  0  0  0  0  0  0
  143.0829   76.5468  220.4160 H   0  0  0  0  0  0  0  0  0  0  0  0
  142.8411   73.8410  217.9221 H   0  0  0  0  0  0  0  0  0  0  0  0
  144.3705   71.8930  217.9885 H   0  0  0  0  0  0  0  0  0  0  0  0
  146.0833   71.6498  219.7394 H   0  0  0  0  0  0  0  0  0  0  0  0
  144.7550   75.3836  221.4410 H   0  0  0  0  0  0  0  0  0  0  0  0
  139.0619   69.0796  222.7051 H   0  0  0  0  0  0  0  0  0  0  0  0
  138.8840   67.9365  224.9454 H   0  0  0  0  0  0  0  0  0  0  0  0
  139.2889   67.9341  227.2735 H   0  0  0  0  0  0  0  0  0  0  0  0
  140.1759   68.9859  229.3286 H   0  0  0  0  0  0  0  0  0  0  0  0
  141.2693   71.2348  229.1701 H   0  0  0  0  0  0  0  0  0  0  0  0
  141.4482   72.3648  226.9664 H   0  0  0  0  0  0  0  0  0  0  0  0
  1  2  2  0
  2  3  1  0
  3  4  1  0
  4  5  1  0
  5  6  2  0
  5  7  1  0
  7  8  1  0
  8  9  1  0
  9 10  1  0
 10 11  1  0
 11 12  1  0
 12 13  2  0
 13 14  1  0
 14 15  2  0
 15 16  1  0
 16 17  1  0
 16 18  2  0
  2 19  1  0
 19 20  2  0
 20 21  1  0
 21 22  2  0
 22 23  1  0
 23 24  2  0
 24 25  1  0
 25 26  2  0
 26 27  1  0
 27 28  2  0
 11  7  1  0
 18 12  1  0
 28 19  1  0
 27 22  1  0
  3 29  1  0
  4 30  1  0
  4 31  1  0
  8 32  1  0
  8 33  1  0
  9 34  1  0
  9 35  1  0
 10 36  1  0
 10 37  1  0
 11 38  1  1
 13 39  1  0
 14 40  1  0
 15 41  1  0
 18 42  1  0
 20 43  1  0
 21 44  1  0
 23 45  1  0
 24 46  1  0
 25 47  1  0
 26 48  1  0
M  END
>  <smiles>  (39) 
O=C(NCC(=O)N1CCCC1c1cccc(Cl)c1)c1ccc2ccccc2n1

>  <score_type>  (39) 
oracle

>  <origin>  (39) 
autodockgpu

>  <m_score__min__energy>  (39) 
-9.4700000000000006

>  <m_primary>  (39) 
energy

>  <rmsd>  (39) 
1.738448765048757

>  <m_score__min__rmsd>  (39) 
1.738448765048757

>  <meeko>  (39) 
{"free_energy": -8.19, "intermolecular_energy": -9.68, "internal_energy": -2.01, "cluster_size": 17, "cluster_id": 2, "rank_in_cluster": 15}

>  <energy>  (39) 
-8.74

>  <cluster_rmsd>  (39) 
1.02

>  <cluster>  (39) 
2

$$$$

     RDKit          3D

 48 51  0  0  0  0  0  0  0  0999 V2000
  140.8830   71.3130  221.3790 O   0  0  0  0  0  0  0  0  0  0  0  0
  140.3880   71.8840  222.4050 C   0  0  0  0  0  0  0  0  0  0  0  0
  140.0940   73.2690  222.2670 N   0  0  0  0  0  0  0  0  0  0  0  0
  140.3930   73.8680  220.9730 C   0  0  0  0  0  0  0  0  0  0  0  0
  140.8250   75.2630  221.1650 C   0  0  0  0  0  0  0  0  0  0  0  0
  140.5260   75.8460  222.2450 O   0  0  0  0  0  0  0  0  0  0  0  0
  141.5660   75.9110  220.1250 N   0  0  0  0  0  0  0  0  0  0  0  0
  141.0060   76.6900  219.0120 C   0  0  0  0  0  0  0  0  0  0  0  0
  142.1510   77.6600  218.7570 C   0  0  0  0  0  0  0  0  0  0  0  0
  143.3210   76.6990  218.7980 C   0  0  0  0  0  0  0  0  0  0  0  0
  142.9930   75.8850  220.0320 C   0  0  2  0  0  0  0  0  0  0  0  0
  143.5420   74.5100  219.9430 C   0  0  0  0  0  0  0  0  0  0  0  0
  144.5490   74.1780  220.8230 C   0  0  0  0  0  0  0  0  0  0  0  0
  145.0890   72.8970  220.7700 C   0  0  0  0  0  0  0  0  0  0  0  0
  144.6610   71.9510  219.8760 C   0  0  0  0  0  0  0  0  0  0  0  0
  143.6520   72.2880  218.9960 C   0  0  0  0  0  0  0  0  0  0  0  0
  143.0570   71.1410  217.8350 Cl  0  0  0  0  0  0  0  0  0  0  0  0
  143.0980   73.5710  219.0370 C   0  0  0  0  0  0  0  0  0  0  0  0
  140.1390   71.1570  223.6470 C   0  0  0  0  0  0  0  0  0  0  0  0
  139.4370   69.9720  223.5670 C   0  0  0  0  0  0  0  0  0  0  0  0
  139.2100   69.2940  224.7690 C   0  0  0  0  0  0  0  0  0  0  0  0
  139.6700   69.8020  225.9470 C   0  0  0  0  0  0  0  0  0  0  0  0
  139.4520   69.1430  227.1290 C   0  0  0  0  0  0  0  0  0  0  0  0
  139.9020   69.6240  228.3430 C   0  0  0  0  0  0  0  0  0  0  0  0
  140.6050   70.8270  228.3590 C   0  0  0  0  0  0  0  0  0  0  0  0
  140.8360   71.5050  227.1780 C   0  0  0  0  0  0  0  0  0  0  0  0
  140.3700   70.9940  225.9850 C   0  0  0  0  0  0  0  0  0  0  0  0
  140.5840   71.6400  224.8230 N   0  0  0  0  0  0  0  0  0  0  0  0
  139.6850   73.8080  223.0640 H   0  0  0  0  0  0  0  0  0  0  0  0
  141.1971   73.2994  220.4829 H   0  0  0  0  0  0  0  0  0  0  0  0
  139.4918   73.8470  220.3426 H   0  0  0  0  0  0  0  0  0  0  0  0
  140.8041   76.0586  218.1341 H   0  0  0  0  0  0  0  0  0  0  0  0
  140.0374   77.1661  219.2242 H   0  0  0  0  0  0  0  0  0  0  0  0
  142.0598   78.1512  217.7770 H   0  0  0  0  0  0  0  0  0  0  0  0
  142.2147   78.4993  219.4652 H   0  0  0  0  0  0  0  0  0  0  0  0
  143.3561   76.0685  217.8973 H   0  0  0  0  0  0  0  0  0  0  0  0
  144.3054   77.1888  218.8299 H   0  0  0  0  0  0  0  0  0  0  0  0
  143.4537   76.3013  220.9400 H   0  0  0  0  0  0  0  0  0  0  0  0
  144.9190   74.9122  221.5538 H   0  0  0  0  0  0  0  0  0  0  0  0
  145.8918   72.6330  221.4741 H   0  0  0  0  0  0  0  0  0  0  0  0
  145.1105   70.9472  219.8598 H   0  0  0  0  0  0  0  0  0  0  0  0
  142.2941   73.8355  218.3343 H   0  0  0  0  0  0  0  0  0  0  0  0
  139.0738   69.5799  222.6055 H   0  0  0  0  0  0  0  0  0  0  0  0
  138.6561   68.3437  224.7635 H   0  0  0  0  0  0  0  0  0  0  0  0
  138.8968   68.1936  227.1099 H   0  0  0  0  0  0  0  0  0  0  0  0
  139.7101   69.0710  229.2743 H   0  0  0  0  0  0  0  0  0  0  0  0
  140.9754   71.2360  229.3106 H   0  0  0  0  0  0  0  0  0  0  0  0
  141.3924   72.4538  227.1891 H   0  0  0  0  0  0  0  0  0  0  0  0
  1  2  2  0
  2  3  1  0
  3  4  1  0
  4  5  1  0
  5  6  2  0
  5  7  1  0
  7  8  1  0
  8  9  1  0
  9 10  1  0
 10 11  1  0
 11 12  1  0
 12 13  2  0
 13 14  1  0
 14 15  2  0
 15 16  1  0
 16 17  1  0
 16 18  2  0
  2 19  1  0
 19 20  2  0
 20 21  1  0
 21 22  2  0
 22 23  1  0
 23 24  2  0
 24 25  1  0
 25 26  2  0
 26 27  1  0
 27 28  2  0
 11  7  1  0
 18 12  1  0
 28 19  1  0
 27 22  1  0
  3 29  1  0
  4 30  1  0
  4 31  1  0
  8 32  1  0
  8 33  1  0
  9 34  1  0
  9 35  1  0
 10 36  1  0
 10 37  1  0
 11 38  1  1
 13 39  1  0
 14 40  1  0
 15 41  1  0
 18 42  1  0
 20 43  1  0
 21 44  1  0
 23 45  1  0
 24 46  1  0
 25 47  1  0
 26 48  1  0
M  END
>  <smiles>  (40) 
O=C(NCC(=O)N1CCCC1c1cccc(Cl)c1)c1ccc2ccccc2n1

>  <score_type>  (40) 
oracle

>  <origin>  (40) 
autodockgpu

>  <m_score__min__energy>  (40) 
-9.4700000000000006

>  <m_primary>  (40) 
energy

>  <rmsd>  (40) 
1.9843203982021778

>  <m_score__min__rmsd>  (40) 
1.9843203982021778

>  <meeko>  (40) 
{"free_energy": -8.12, "intermolecular_energy": -9.61, "internal_energy": -2.1, "cluster_size": 17, "cluster_id": 2, "rank_in_cluster": 17}

>  <energy>  (40) 
-8.67

>  <cluster_rmsd>  (40) 
1.01

>  <cluster>  (40) 
2

$$$$

     RDKit          3D

 48 51  0  0  0  0  0  0  0  0999 V2000
  141.2510   71.9440  221.5110 O   0  0  0  0  0  0  0  0  0  0  0  0
  140.5120   72.3310  222.4740 C   0  0  0  0  0  0  0  0  0  0  0  0
  139.9470   73.6300  222.3440 N   0  0  0  0  0  0  0  0  0  0  0  0
  140.2790   74.3610  221.1290 C   0  0  0  0  0  0  0  0  0  0  0  0
  140.7460   75.7140  221.4800 C   0  0  0  0  0  0  0  0  0  0  0  0
  140.5290   76.1440  222.6480 O   0  0  0  0  0  0  0  0  0  0  0  0
  141.4270   76.4940  220.4910 N   0  0  0  0  0  0  0  0  0  0  0  0
  142.6840   76.1400  219.8170 C   0  0  0  0  0  0  0  0  0  0  0  0
  142.4910   76.8590  218.4900 C   0  0  0  0  0  0  0  0  0  0  0  0
  141.9820   78.1950  218.9880 C   0  0  0  0  0  0  0  0  0  0  0  0
  140.9580   77.7580  220.0140 C   0  0  2  0  0  0  0  0  0  0  0  0
  140.8020   78.7620  221.0950 C   0  0  0  0  0  0  0  0  0  0  0  0
  139.5370   79.2700  221.3020 C   0  0  0  0  0  0  0  0  0  0  0  0
  139.3510   80.2130  222.3060 C   0  0  0  0  0  0  0  0  0  0  0  0
  140.3750   80.6610  223.0990 C   0  0  0  0  0  0  0  0  0  0  0  0
  141.6410   80.1500  222.8880 C   0  0  0  0  0  0  0  0  0  0  0  0
  142.9880   80.6690  223.8530 Cl  0  0  0  0  0  0  0  0  0  0  0  0
  141.8450   79.2000  221.8830 C   0  0  0  0  0  0  0  0  0  0  0  0
  140.2620   71.4890  223.6410 C   0  0  0  0  0  0  0  0  0  0  0  0
  139.5980   70.2960  223.4410 C   0  0  0  0  0  0  0  0  0  0  0  0
  139.3700   69.5070  224.5730 C   0  0  0  0  0  0  0  0  0  0  0  0
  139.7930   69.9200  225.8010 C   0  0  0  0  0  0  0  0  0  0  0  0
  139.5730   69.1520  226.9140 C   0  0  0  0  0  0  0  0  0  0  0  0
  139.9870   69.5350  228.1750 C   0  0  0  0  0  0  0  0  0  0  0  0
  140.6530   70.7500  228.3140 C   0  0  0  0  0  0  0  0  0  0  0  0
  140.8850   71.5380  227.2030 C   0  0  0  0  0  0  0  0  0  0  0  0
  140.4560   71.1230  225.9590 C   0  0  0  0  0  0  0  0  0  0  0  0
  140.6720   71.8760  224.8640 N   0  0  0  0  0  0  0  0  0  0  0  0
  139.3290   74.0190  223.0920 H   0  0  0  0  0  0  0  0  0  0  0  0
  141.0740   73.8283  220.5866 H   0  0  0  0  0  0  0  0  0  0  0  0
  139.3858   74.4360  220.4914 H   0  0  0  0  0  0  0  0  0  0  0  0
  143.5599   76.5206  220.3628 H   0  0  0  0  0  0  0  0  0  0  0  0
  142.8736   75.0597  219.7327 H   0  0  0  0  0  0  0  0  0  0  0  0
  143.4379   76.9620  217.9398 H   0  0  0  0  0  0  0  0  0  0  0  0
  141.8283   76.3467  217.7770 H   0  0  0  0  0  0  0  0  0  0  0  0
  142.7870   78.7863  219.4489 H   0  0  0  0  0  0  0  0  0  0  0  0
  141.5792   78.8465  218.1985 H   0  0  0  0  0  0  0  0  0  0  0  0
  139.9501   77.6666  219.5830 H   0  0  0  0  0  0  0  0  0  0  0  0
  138.6908   78.9352  220.6841 H   0  0  0  0  0  0  0  0  0  0  0  0
  138.3409   80.6161  222.4708 H   0  0  0  0  0  0  0  0  0  0  0  0
  140.1933   81.4093  223.8845 H   0  0  0  0  0  0  0  0  0  0  0  0
  142.8544   78.7952  221.7182 H   0  0  0  0  0  0  0  0  0  0  0  0
  139.2647   69.9813  222.4411 H   0  0  0  0  0  0  0  0  0  0  0  0
  138.8452   68.5456  224.4714 H   0  0  0  0  0  0  0  0  0  0  0  0
  139.0463   68.1932  226.7990 H   0  0  0  0  0  0  0  0  0  0  0  0
  139.7951   68.8952  229.0489 H   0  0  0  0  0  0  0  0  0  0  0  0
  140.9936   71.0816  229.3060 H   0  0  0  0  0  0  0  0  0  0  0  0
  141.4123   72.4974  227.3104 H   0  0  0  0  0  0  0  0  0  0  0  0
  1  2  2  0
  2  3  1  0
  3  4  1  0
  4  5  1  0
  5  6  2  0
  5  7  1  0
  7  8  1  0
  8  9  1  0
  9 10  1  0
 10 11  1  0
 11 12  1  0
 12 13  2  0
 13 14  1  0
 14 15  2  0
 15 16  1  0
 16 17  1  0
 16 18  2  0
  2 19  1  0
 19 20  2  0
 20 21  1  0
 21 22  2  0
 22 23  1  0
 23 24  2  0
 24 25  1  0
 25 26  2  0
 26 27  1  0
 27 28  2  0
 11  7  1  0
 18 12  1  0
 28 19  1  0
 27 22  1  0
  3 29  1  0
  4 30  1  0
  4 31  1  0
  8 32  1  0
  8 33  1  0
  9 34  1  0
  9 35  1  0
 10 36  1  0
 10 37  1  0
 11 38  1  6
 13 39  1  0
 14 40  1  0
 15 41  1  0
 18 42  1  0
 20 43  1  0
 21 44  1  0
 23 45  1  0
 24 46  1  0
 25 47  1  0
 26 48  1  0
M  END
>  <smiles>  (41) 
O=C(NCC(=O)N1CCCC1c1cccc(Cl)c1)c1ccc2ccccc2n1

>  <score_type>  (41) 
oracle

>  <origin>  (41) 
autodockgpu

>  <m_score__min__energy>  (41) 
-9.4700000000000006

>  <m_primary>  (41) 
energy

>  <rmsd>  (41) 
2.130759798390398

>  <m_score__min__rmsd>  (41) 
2.130759798390398

>  <meeko>  (41) 
{"free_energy": -9.1, "intermolecular_energy": -10.59, "internal_energy": -1.58, "cluster_size": 31, "cluster_id": 1, "rank_in_cluster": 25}

>  <energy>  (41) 
-8.66

>  <cluster_rmsd>  (41) 
0.99

>  <cluster>  (41) 
2

$$$$

     RDKit          3D

 48 51  0  0  0  0  0  0  0  0999 V2000
  141.3100   72.2300  221.7110 O   0  0  0  0  0  0  0  0  0  0  0  0
  140.3990   72.4130  222.5830 C   0  0  0  0  0  0  0  0  0  0  0  0
  139.5550   73.5400  222.3760 N   0  0  0  0  0  0  0  0  0  0  0  0
  139.8330   74.3480  221.1970 C   0  0  0  0  0  0  0  0  0  0  0  0
  140.3190   75.6750  221.6120 C   0  0  0  0  0  0  0  0  0  0  0  0
  139.9360   76.1390  222.7230 O   0  0  0  0  0  0  0  0  0  0  0  0
  141.2040   76.3940  220.7470 N   0  0  0  0  0  0  0  0  0  0  0  0
  142.3990   75.8560  220.0820 C   0  0  0  0  0  0  0  0  0  0  0  0
  142.4390   76.7380  218.8410 C   0  0  0  0  0  0  0  0  0  0  0  0
  142.1890   78.0890  219.4750 C   0  0  0  0  0  0  0  0  0  0  0  0
  141.0370   77.7720  220.4050 C   0  0  2  0  0  0  0  0  0  0  0  0
  141.0280   78.6650  221.5910 C   0  0  0  0  0  0  0  0  0  0  0  0
  142.2520   79.0510  222.0940 C   0  0  0  0  0  0  0  0  0  0  0  0
  142.2850   79.8870  223.2050 C   0  0  0  0  0  0  0  0  0  0  0  0
  141.1490   80.3430  223.8210 C   0  0  0  0  0  0  0  0  0  0  0  0
  139.9250   79.9540  223.3130 C   0  0  0  0  0  0  0  0  0  0  0  0
  138.4430   80.4910  224.0410 Cl  0  0  0  0  0  0  0  0  0  0  0  0
  139.8750   79.1130  222.1970 C   0  0  0  0  0  0  0  0  0  0  0  0
  140.2330   71.5180  223.7250 C   0  0  0  0  0  0  0  0  0  0  0  0
  139.5900   70.3170  223.5110 C   0  0  0  0  0  0  0  0  0  0  0  0
  139.4420   69.4770  224.6190 C   0  0  0  0  0  0  0  0  0  0  0  0
  139.9200   69.8510  225.8400 C   0  0  0  0  0  0  0  0  0  0  0  0
  139.7790   69.0330  226.9300 C   0  0  0  0  0  0  0  0  0  0  0  0
  140.2510   69.3760  228.1820 C   0  0  0  0  0  0  0  0  0  0  0  0
  140.8930   70.6020  228.3360 C   0  0  0  0  0  0  0  0  0  0  0  0
  141.0450   71.4400  227.2490 C   0  0  0  0  0  0  0  0  0  0  0  0
  140.5600   71.0640  226.0130 C   0  0  0  0  0  0  0  0  0  0  0  0
  140.6980   71.8670  224.9400 N   0  0  0  0  0  0  0  0  0  0  0  0
  138.7840   73.7570  223.0480 H   0  0  0  0  0  0  0  0  0  0  0  0
  140.6008   73.8515  220.5855 H   0  0  0  0  0  0  0  0  0  0  0  0
  138.9116   74.4639  220.6075 H   0  0  0  0  0  0  0  0  0  0  0  0
  143.3002   75.9817  220.7001 H   0  0  0  0  0  0  0  0  0  0  0  0
  142.3660   74.7755  219.8785 H   0  0  0  0  0  0  0  0  0  0  0  0
  143.4179   76.6959  218.3409 H   0  0  0  0  0  0  0  0  0  0  0  0
  141.7290   76.4579  218.0489 H   0  0  0  0  0  0  0  0  0  0  0  0
  143.0700   78.4420  220.0311 H   0  0  0  0  0  0  0  0  0  0  0  0
  141.9779   78.8926  218.7542 H   0  0  0  0  0  0  0  0  0  0  0  0
  140.0599   77.9436  219.9298 H   0  0  0  0  0  0  0  0  0  0  0  0
  143.1850   78.7044  221.6255 H   0  0  0  0  0  0  0  0  0  0  0  0
  143.2623   80.1945  223.6054 H   0  0  0  0  0  0  0  0  0  0  0  0
  141.2105   81.0029  224.6989 H   0  0  0  0  0  0  0  0  0  0  0  0
  138.8983   78.8039  221.7962 H   0  0  0  0  0  0  0  0  0  0  0  0
  139.2121   70.0337  222.5175 H   0  0  0  0  0  0  0  0  0  0  0  0
  138.9361   68.5070  224.5047 H   0  0  0  0  0  0  0  0  0  0  0  0
  139.2704   68.0659  226.8032 H   0  0  0  0  0  0  0  0  0  0  0  0
  140.1227   68.6965  229.0375 H   0  0  0  0  0  0  0  0  0  0  0  0
  141.2783   70.9024  229.3216 H   0  0  0  0  0  0  0  0  0  0  0  0
  141.5532   72.4082  227.3685 H   0  0  0  0  0  0  0  0  0  0  0  0
  1  2  2  0
  2  3  1  0
  3  4  1  0
  4  5  1  0
  5  6  2  0
  5  7  1  0
  7  8  1  0
  8  9  1  0
  9 10  1  0
 10 11  1  0
 11 12  1  0
 12 13  2  0
 13 14  1  0
 14 15  2  0
 15 16  1  0
 16 17  1  0
 16 18  2  0
  2 19  1  0
 19 20  2  0
 20 21  1  0
 21 22  2  0
 22 23  1  0
 23 24  2  0
 24 25  1  0
 25 26  2  0
 26 27  1  0
 27 28  2  0
 11  7  1  0
 18 12  1  0
 28 19  1  0
 27 22  1  0
  3 29  1  0
  4 30  1  0
  4 31  1  0
  8 32  1  0
  8 33  1  0
  9 34  1  0
  9 35  1  0
 10 36  1  0
 10 37  1  0
 11 38  1  6
 13 39  1  0
 14 40  1  0
 15 41  1  0
 18 42  1  0
 20 43  1  0
 21 44  1  0
 23 45  1  0
 24 46  1  0
 25 47  1  0
 26 48  1  0
M  END
>  <smiles>  (42) 
O=C(NCC(=O)N1CCCC1c1cccc(Cl)c1)c1ccc2ccccc2n1

>  <score_type>  (42) 
oracle

>  <origin>  (42) 
autodockgpu

>  <m_score__min__energy>  (42) 
-9.4700000000000006

>  <m_primary>  (42) 
energy

>  <rmsd>  (42) 
2.065371491774844

>  <m_score__min__rmsd>  (42) 
2.065371491774844

>  <meeko>  (42) 
{"free_energy": -9.47, "intermolecular_energy": -10.96, "internal_energy": -1.44, "cluster_size": 31, "cluster_id": 1, "rank_in_cluster": 1}

>  <energy>  (42) 
-8.63

>  <cluster_rmsd>  (42) 
1.0

>  <cluster>  (42) 
2

$$$$

     RDKit          3D

 48 51  0  0  0  0  0  0  0  0999 V2000
  141.2070   71.9830  221.5830 O   0  0  0  0  0  0  0  0  0  0  0  0
  140.2870   72.1870  222.4410 C   0  0  0  0  0  0  0  0  0  0  0  0
  139.3570   73.2170  222.1250 N   0  0  0  0  0  0  0  0  0  0  0  0
  139.5660   73.9130  220.8630 C   0  0  0  0  0  0  0  0  0  0  0  0
  140.5820   74.9640  221.0430 C   0  0  0  0  0  0  0  0  0  0  0  0
  140.8620   75.3400  222.2160 O   0  0  0  0  0  0  0  0  0  0  0  0
  141.2170   75.5240  219.8880 N   0  0  0  0  0  0  0  0  0  0  0  0
  140.5550   75.9210  218.6370 C   0  0  0  0  0  0  0  0  0  0  0  0
  141.4860   77.0350  218.1800 C   0  0  0  0  0  0  0  0  0  0  0  0
  142.8250   76.3700  218.4180 C   0  0  0  0  0  0  0  0  0  0  0  0
  142.6210   75.7780  219.7980 C   0  0  2  0  0  0  0  0  0  0  0  0
  143.4440   74.5600  219.9990 C   0  0  0  0  0  0  0  0  0  0  0  0
  143.0450   73.4180  219.3360 C   0  0  0  0  0  0  0  0  0  0  0  0
  143.7910   72.2550  219.4990 C   0  0  0  0  0  0  0  0  0  0  0  0
  144.9060   72.1980  220.2930 C   0  0  0  0  0  0  0  0  0  0  0  0
  145.3020   73.3440  220.9550 C   0  0  0  0  0  0  0  0  0  0  0  0
  146.7040   73.3480  221.9790 Cl  0  0  0  0  0  0  0  0  0  0  0  0
  144.5630   74.5210  220.8020 C   0  0  0  0  0  0  0  0  0  0  0  0
  140.1950   71.4100  223.6740 C   0  0  0  0  0  0  0  0  0  0  0  0
  139.6000   70.1670  223.6060 C   0  0  0  0  0  0  0  0  0  0  0  0
  139.5230   69.4420  224.8000 C   0  0  0  0  0  0  0  0  0  0  0  0
  140.0200   69.9600  225.9580 C   0  0  0  0  0  0  0  0  0  0  0  0
  139.9480   69.2540  227.1300 C   0  0  0  0  0  0  0  0  0  0  0  0
  140.4410   69.7440  228.3240 C   0  0  0  0  0  0  0  0  0  0  0  0
  141.0330   71.0050  228.3290 C   0  0  0  0  0  0  0  0  0  0  0  0
  141.1150   71.7320  227.1570 C   0  0  0  0  0  0  0  0  0  0  0  0
  140.6110   71.2100  225.9830 C   0  0  0  0  0  0  0  0  0  0  0  0
  140.6800   71.9010  224.8310 N   0  0  0  0  0  0  0  0  0  0  0  0
  138.5730   73.4440  222.7790 H   0  0  0  0  0  0  0  0  0  0  0  0
  139.9103   73.1969  220.1023 H   0  0  0  0  0  0  0  0  0  0  0  0
  138.6204   74.3700  220.5359 H   0  0  0  0  0  0  0  0  0  0  0  0
  140.5235   75.0938  217.9126 H   0  0  0  0  0  0  0  0  0  0  0  0
  139.5012   76.2169  218.7468 H   0  0  0  0  0  0  0  0  0  0  0  0
  141.3360   77.2833  217.1189 H   0  0  0  0  0  0  0  0  0  0  0  0
  141.3472   77.9966  218.6958 H   0  0  0  0  0  0  0  0  0  0  0  0
  143.0252   75.5886  217.6701 H   0  0  0  0  0  0  0  0  0  0  0  0
  143.6859   77.0506  218.3424 H   0  0  0  0  0  0  0  0  0  0  0  0
  142.9492   76.4596  220.5965 H   0  0  0  0  0  0  0  0  0  0  0  0
  142.1541   73.4267  218.6908 H   0  0  0  0  0  0  0  0  0  0  0  0
  143.4729   71.3450  218.9692 H   0  0  0  0  0  0  0  0  0  0  0  0
  145.4728   71.2614  220.4009 H   0  0  0  0  0  0  0  0  0  0  0  0
  144.8803   75.4313  221.3317 H   0  0  0  0  0  0  0  0  0  0  0  0
  139.2060   69.7662  222.6604 H   0  0  0  0  0  0  0  0  0  0  0  0
  139.0573   68.4455  224.8039 H   0  0  0  0  0  0  0  0  0  0  0  0
  139.4796   68.2587  227.1199 H   0  0  0  0  0  0  0  0  0  0  0  0
  140.3678   69.1526  229.2486 H   0  0  0  0  0  0  0  0  0  0  0  0
  141.4346   71.4213  229.2646 H   0  0  0  0  0  0  0  0  0  0  0  0
  141.5824   72.7278  227.1596 H   0  0  0  0  0  0  0  0  0  0  0  0
  1  2  2  0
  2  3  1  0
  3  4  1  0
  4  5  1  0
  5  6  2  0
  5  7  1  0
  7  8  1  0
  8  9  1  0
  9 10  1  0
 10 11  1  0
 11 12  1  0
 12 13  2  0
 13 14  1  0
 14 15  2  0
 15 16  1  0
 16 17  1  0
 16 18  2  0
  2 19  1  0
 19 20  2  0
 20 21  1  0
 21 22  2  0
 22 23  1  0
 23 24  2  0
 24 25  1  0
 25 26  2  0
 26 27  1  0
 27 28  2  0
 11  7  1  0
 18 12  1  0
 28 19  1  0
 27 22  1  0
  3 29  1  0
  4 30  1  0
  4 31  1  0
  8 32  1  0
  8 33  1  0
  9 34  1  0
  9 35  1  0
 10 36  1  0
 10 37  1  0
 11 38  1  1
 13 39  1  0
 14 40  1  0
 15 41  1  0
 18 42  1  0
 20 43  1  0
 21 44  1  0
 23 45  1  0
 24 46  1  0
 25 47  1  0
 26 48  1  0
M  END
>  <smiles>  (43) 
O=C(NCC(=O)N1CCCC1c1cccc(Cl)c1)c1ccc2ccccc2n1

>  <score_type>  (43) 
oracle

>  <origin>  (43) 
autodockgpu

>  <m_score__min__energy>  (43) 
-9.4700000000000006

>  <m_primary>  (43) 
energy

>  <rmsd>  (43) 
1.6451621552230873

>  <m_score__min__rmsd>  (43) 
1.6451621552230873

>  <meeko>  (43) 
{"free_energy": -8.91, "intermolecular_energy": -10.4, "internal_energy": -1.73, "cluster_size": 17, "cluster_id": 2, "rank_in_cluster": 1}

>  <energy>  (43) 
-8.59

>  <cluster_rmsd>  (43) 
0.71

>  <cluster>  (43) 
2

$$$$

     RDKit          3D

 48 51  0  0  0  0  0  0  0  0999 V2000
  141.3780   72.5270  221.9250 O   0  0  0  0  0  0  0  0  0  0  0  0
  140.3040   72.4820  222.6090 C   0  0  0  0  0  0  0  0  0  0  0  0
  139.2760   73.3840  222.2190 N   0  0  0  0  0  0  0  0  0  0  0  0
  139.5710   74.2500  221.0860 C   0  0  0  0  0  0  0  0  0  0  0  0
  140.2130   75.4860  221.5640 C   0  0  0  0  0  0  0  0  0  0  0  0
  139.9270   75.9080  222.7210 O   0  0  0  0  0  0  0  0  0  0  0  0
  141.1360   76.1670  220.7080 N   0  0  0  0  0  0  0  0  0  0  0  0
  142.3310   75.5880  220.0790 C   0  0  0  0  0  0  0  0  0  0  0  0
  142.4210   76.4470  218.8260 C   0  0  0  0  0  0  0  0  0  0  0  0
  142.1930   77.8160  219.4320 C   0  0  0  0  0  0  0  0  0  0  0  0
  141.0120   77.5440  220.3410 C   0  0  2  0  0  0  0  0  0  0  0  0
  141.0000   78.4560  221.5110 C   0  0  0  0  0  0  0  0  0  0  0  0
  142.2230   78.8710  221.9950 C   0  0  0  0  0  0  0  0  0  0  0  0
  142.2530   79.7260  223.0910 C   0  0  0  0  0  0  0  0  0  0  0  0
  141.1150   80.1730  223.7110 C   0  0  0  0  0  0  0  0  0  0  0  0
  139.8930   79.7550  223.2230 C   0  0  0  0  0  0  0  0  0  0  0  0
  138.4090   80.2800  223.9560 Cl  0  0  0  0  0  0  0  0  0  0  0  0
  139.8460   78.8960  222.1220 C   0  0  0  0  0  0  0  0  0  0  0  0
  140.1430   71.5580  223.7290 C   0  0  0  0  0  0  0  0  0  0  0  0
  139.4020   70.4140  223.5150 C   0  0  0  0  0  0  0  0  0  0  0  0
  139.2600   69.5450  224.6020 C   0  0  0  0  0  0  0  0  0  0  0  0
  139.8360   69.8380  225.8020 C   0  0  0  0  0  0  0  0  0  0  0  0
  139.7010   68.9900  226.8700 C   0  0  0  0  0  0  0  0  0  0  0  0
  140.2710   69.2510  228.1020 C   0  0  0  0  0  0  0  0  0  0  0  0
  141.0080   70.4220  228.2560 C   0  0  0  0  0  0  0  0  0  0  0  0
  141.1560   71.2890  227.1910 C   0  0  0  0  0  0  0  0  0  0  0  0
  140.5720   70.9950  225.9750 C   0  0  0  0  0  0  0  0  0  0  0  0
  140.7030   71.8260  224.9240 N   0  0  0  0  0  0  0  0  0  0  0  0
  138.3650   73.4070  222.7320 H   0  0  0  0  0  0  0  0  0  0  0  0
  140.2490   73.7292  220.3938 H   0  0  0  0  0  0  0  0  0  0  0  0
  138.6355   74.5018  220.5649 H   0  0  0  0  0  0  0  0  0  0  0  0
  143.2213   75.7013  220.7151 H   0  0  0  0  0  0  0  0  0  0  0  0
  142.2747   74.5054  219.8924 H   0  0  0  0  0  0  0  0  0  0  0  0
  143.4090   76.3709  218.3485 H   0  0  0  0  0  0  0  0  0  0  0  0
  141.7209   76.1721  218.0233 H   0  0  0  0  0  0  0  0  0  0  0  0
  143.0704   78.1554  220.0021 H   0  0  0  0  0  0  0  0  0  0  0  0
  142.0196   78.6128  218.6937 H   0  0  0  0  0  0  0  0  0  0  0  0
  140.0500   77.7327  219.8420 H   0  0  0  0  0  0  0  0  0  0  0  0
  143.1569   78.5320  221.5229 H   0  0  0  0  0  0  0  0  0  0  0  0
  143.2288   80.0570  223.4760 H   0  0  0  0  0  0  0  0  0  0  0  0
  141.1741   80.8488  224.5769 H   0  0  0  0  0  0  0  0  0  0  0  0
  138.8705   78.5652  221.7361 H   0  0  0  0  0  0  0  0  0  0  0  0
  138.9456   70.1961  222.5382 H   0  0  0  0  0  0  0  0  0  0  0  0
  138.6790   68.6180  224.4874 H   0  0  0  0  0  0  0  0  0  0  0  0
  139.1170   68.0667  226.7421 H   0  0  0  0  0  0  0  0  0  0  0  0
  140.1453   68.5503  228.9406 H   0  0  0  0  0  0  0  0  0  0  0  0
  141.4722   70.6566  229.2253 H   0  0  0  0  0  0  0  0  0  0  0  0
  141.7392   72.2138  227.3117 H   0  0  0  0  0  0  0  0  0  0  0  0
  1  2  2  0
  2  3  1  0
  3  4  1  0
  4  5  1  0
  5  6  2  0
  5  7  1  0
  7  8  1  0
  8  9  1  0
  9 10  1  0
 10 11  1  0
 11 12  1  0
 12 13  2  0
 13 14  1  0
 14 15  2  0
 15 16  1  0
 16 17  1  0
 16 18  2  0
  2 19  1  0
 19 20  2  0
 20 21  1  0
 21 22  2  0
 22 23  1  0
 23 24  2  0
 24 25  1  0
 25 26  2  0
 26 27  1  0
 27 28  2  0
 11  7  1  0
 18 12  1  0
 28 19  1  0
 27 22  1  0
  3 29  1  0
  4 30  1  0
  4 31  1  0
  8 32  1  0
  8 33  1  0
  9 34  1  0
  9 35  1  0
 10 36  1  0
 10 37  1  0
 11 38  1  6
 13 39  1  0
 14 40  1  0
 15 41  1  0
 18 42  1  0
 20 43  1  0
 21 44  1  0
 23 45  1  0
 24 46  1  0
 25 47  1  0
 26 48  1  0
M  END
>  <smiles>  (44) 
O=C(NCC(=O)N1CCCC1c1cccc(Cl)c1)c1ccc2ccccc2n1

>  <score_type>  (44) 
oracle

>  <origin>  (44) 
autodockgpu

>  <m_score__min__energy>  (44) 
-9.4700000000000006

>  <m_primary>  (44) 
energy

>  <rmsd>  (44) 
1.987300756291943

>  <m_score__min__rmsd>  (44) 
1.987300756291943

>  <meeko>  (44) 
{"free_energy": -9.3, "intermolecular_energy": -10.79, "internal_energy": -1.4, "cluster_size": 31, "cluster_id": 1, "rank_in_cluster": 11}

>  <energy>  (44) 
-8.59

>  <cluster_rmsd>  (44) 
0.54

>  <cluster>  (44) 
2

$$$$

     RDKit          3D

 48 51  0  0  0  0  0  0  0  0999 V2000
  140.8290   71.3790  221.2970 O   0  0  0  0  0  0  0  0  0  0  0  0
  140.4180   71.9660  222.3510 C   0  0  0  0  0  0  0  0  0  0  0  0
  140.1580   73.3590  222.2270 N   0  0  0  0  0  0  0  0  0  0  0  0
  140.3930   73.9470  220.9150 C   0  0  0  0  0  0  0  0  0  0  0  0
  140.5990   75.3990  221.0560 C   0  0  0  0  0  0  0  0  0  0  0  0
  140.3330   75.9430  222.1650 O   0  0  0  0  0  0  0  0  0  0  0  0
  141.0930   76.1430  219.9370 N   0  0  0  0  0  0  0  0  0  0  0  0
  140.2860   76.7460  218.8670 C   0  0  0  0  0  0  0  0  0  0  0  0
  141.1760   77.9190  218.4840 C   0  0  0  0  0  0  0  0  0  0  0  0
  142.5190   77.2210  218.4310 C   0  0  0  0  0  0  0  0  0  0  0  0
  142.4800   76.4070  219.7080 C   0  0  2  0  0  0  0  0  0  0  0  0
  143.2930   75.1710  219.5940 C   0  0  0  0  0  0  0  0  0  0  0  0
  142.9860   74.3120  218.5600 C   0  0  0  0  0  0  0  0  0  0  0  0
  143.7260   73.1430  218.4210 C   0  0  0  0  0  0  0  0  0  0  0  0
  144.7480   72.8080  219.2710 C   0  0  0  0  0  0  0  0  0  0  0  0
  145.0510   73.6720  220.3050 C   0  0  0  0  0  0  0  0  0  0  0  0
  146.3320   73.3160  221.4220 Cl  0  0  0  0  0  0  0  0  0  0  0  0
  144.3170   74.8520  220.4590 C   0  0  0  0  0  0  0  0  0  0  0  0
  140.2260   71.2490  223.6080 C   0  0  0  0  0  0  0  0  0  0  0  0
  139.6010   70.0200  223.5580 C   0  0  0  0  0  0  0  0  0  0  0  0
  139.4280   69.3530  224.7740 C   0  0  0  0  0  0  0  0  0  0  0  0
  139.8640   69.9120  225.9380 C   0  0  0  0  0  0  0  0  0  0  0  0
  139.6970   69.2630  227.1340 C   0  0  0  0  0  0  0  0  0  0  0  0
  140.1260   69.7950  228.3340 C   0  0  0  0  0  0  0  0  0  0  0  0
  140.7510   71.0400  228.3220 C   0  0  0  0  0  0  0  0  0  0  0  0
  140.9280   71.7090  227.1260 C   0  0  0  0  0  0  0  0  0  0  0  0
  140.4860   71.1460  225.9470 C   0  0  0  0  0  0  0  0  0  0  0  0
  140.6490   71.7810  224.7710 N   0  0  0  0  0  0  0  0  0  0  0  0
  139.8180   73.9120  223.0470 H   0  0  0  0  0  0  0  0  0  0  0  0
  141.2874   73.4920  220.4644 H   0  0  0  0  0  0  0  0  0  0  0  0
  139.5219   73.7618  220.2694 H   0  0  0  0  0  0  0  0  0  0  0  0
  140.1422   76.0524  218.0255 H   0  0  0  0  0  0  0  0  0  0  0  0
  139.2625   77.0213  219.1615 H   0  0  0  0  0  0  0  0  0  0  0  0
  140.8967   78.3421  217.5078 H   0  0  0  0  0  0  0  0  0  0  0  0
  141.1273   78.7806  219.1661 H   0  0  0  0  0  0  0  0  0  0  0  0
  142.6028   76.5755  217.5442 H   0  0  0  0  0  0  0  0  0  0  0  0
  143.3789   77.9030  218.3572 H   0  0  0  0  0  0  0  0  0  0  0  0
  142.9235   76.9449  220.5589 H   0  0  0  0  0  0  0  0  0  0  0  0
  142.1716   74.5469  217.8588 H   0  0  0  0  0  0  0  0  0  0  0  0
  143.4813   72.4589  217.5951 H   0  0  0  0  0  0  0  0  0  0  0  0
  145.3128   71.8742  219.1329 H   0  0  0  0  0  0  0  0  0  0  0  0
  144.5611   75.5370  221.2843 H   0  0  0  0  0  0  0  0  0  0  0  0
  139.2558   69.5864  222.6078 H   0  0  0  0  0  0  0  0  0  0  0  0
  138.9361   68.3693  224.7917 H   0  0  0  0  0  0  0  0  0  0  0  0
  139.2022   68.2806  227.1379 H   0  0  0  0  0  0  0  0  0  0  0  0
  139.9777   69.2486  229.2771 H   0  0  0  0  0  0  0  0  0  0  0  0
  141.1028   71.4894  229.2624 H   0  0  0  0  0  0  0  0  0  0  0  0
  141.4220   72.6918  227.1142 H   0  0  0  0  0  0  0  0  0  0  0  0
  1  2  2  0
  2  3  1  0
  3  4  1  0
  4  5  1  0
  5  6  2  0
  5  7  1  0
  7  8  1  0
  8  9  1  0
  9 10  1  0
 10 11  1  0
 11 12  1  0
 12 13  2  0
 13 14  1  0
 14 15  2  0
 15 16  1  0
 16 17  1  0
 16 18  2  0
  2 19  1  0
 19 20  2  0
 20 21  1  0
 21 22  2  0
 22 23  1  0
 23 24  2  0
 24 25  1  0
 25 26  2  0
 26 27  1  0
 27 28  2  0
 11  7  1  0
 18 12  1  0
 28 19  1  0
 27 22  1  0
  3 29  1  0
  4 30  1  0
  4 31  1  0
  8 32  1  0
  8 33  1  0
  9 34  1  0
  9 35  1  0
 10 36  1  0
 10 37  1  0
 11 38  1  1
 13 39  1  0
 14 40  1  0
 15 41  1  0
 18 42  1  0
 20 43  1  0
 21 44  1  0
 23 45  1  0
 24 46  1  0
 25 47  1  0
 26 48  1  0
M  END
>  <smiles>  (45) 
O=C(NCC(=O)N1CCCC1c1cccc(Cl)c1)c1ccc2ccccc2n1

>  <score_type>  (45) 
oracle

>  <origin>  (45) 
autodockgpu

>  <m_score__min__energy>  (45) 
-9.4700000000000006

>  <m_primary>  (45) 
energy

>  <rmsd>  (45) 
1.7528346918132531

>  <m_score__min__rmsd>  (45) 
1.7528346918132531

>  <meeko>  (45) 
{"free_energy": -8.59, "intermolecular_energy": -10.08, "internal_energy": -2.04, "cluster_size": 17, "cluster_id": 2, "rank_in_cluster": 12}

>  <energy>  (45) 
-8.31

>  <cluster_rmsd>  (45) 
1.77

>  <cluster>  (45) 
2

$$$$

     RDKit          3D

 48 51  0  0  0  0  0  0  0  0999 V2000
  139.5930   71.0080  221.4070 O   0  0  0  0  0  0  0  0  0  0  0  0
  139.7080   71.4670  222.5900 C   0  0  0  0  0  0  0  0  0  0  0  0
  139.8260   72.8810  222.7010 N   0  0  0  0  0  0  0  0  0  0  0  0
  139.8010   73.6320  221.4540 C   0  0  0  0  0  0  0  0  0  0  0  0
  140.1330   75.0420  221.7220 C   0  0  0  0  0  0  0  0  0  0  0  0
  139.5400   75.6350  222.6670 O   0  0  0  0  0  0  0  0  0  0  0  0
  141.1130   75.6930  220.9060 N   0  0  0  0  0  0  0  0  0  0  0  0
  142.3950   75.1270  220.4640 C   0  0  0  0  0  0  0  0  0  0  0  0
  142.5830   75.8730  219.1510 C   0  0  0  0  0  0  0  0  0  0  0  0
  142.2260   77.2750  219.5940 C   0  0  0  0  0  0  0  0  0  0  0  0
  140.9670   77.0220  220.3960 C   0  0  2  0  0  0  0  0  0  0  0  0
  140.7850   78.0340  221.4650 C   0  0  0  0  0  0  0  0  0  0  0  0
  139.4940   78.2820  221.8810 C   0  0  0  0  0  0  0  0  0  0  0  0
  139.2820   79.2250  222.8810 C   0  0  0  0  0  0  0  0  0  0  0  0
  140.3060   79.9190  223.4710 C   0  0  0  0  0  0  0  0  0  0  0  0
  141.5980   79.6680  223.0520 C   0  0  0  0  0  0  0  0  0  0  0  0
  142.9460   80.5080  223.7520 Cl  0  0  0  0  0  0  0  0  0  0  0  0
  141.8270   78.7230  222.0470 C   0  0  0  0  0  0  0  0  0  0  0  0
  139.7200   70.5920  223.7590 C   0  0  0  0  0  0  0  0  0  0  0  0
  139.1840   69.3290  223.6210 C   0  0  0  0  0  0  0  0  0  0  0  0
  139.2060   68.5100  224.7540 C   0  0  0  0  0  0  0  0  0  0  0  0
  139.7360   68.9620  225.9250 C   0  0  0  0  0  0  0  0  0  0  0  0
  139.7600   68.1650  227.0390 C   0  0  0  0  0  0  0  0  0  0  0  0
  140.2900   68.5860  228.2440 C   0  0  0  0  0  0  0  0  0  0  0  0
  140.8160   69.8730  228.3220 C   0  0  0  0  0  0  0  0  0  0  0  0
  140.8010   70.6920  227.2090 C   0  0  0  0  0  0  0  0  0  0  0  0
  140.2640   70.2360  226.0230 C   0  0  0  0  0  0  0  0  0  0  0  0
  140.2390   71.0180  224.9270 N   0  0  0  0  0  0  0  0  0  0  0  0
  139.9250   73.3340  223.6390 H   0  0  0  0  0  0  0  0  0  0  0  0
  140.5381   73.2082  220.7561 H   0  0  0  0  0  0  0  0  0  0  0  0
  138.7967   73.5704  221.0094 H   0  0  0  0  0  0  0  0  0  0  0  0
  143.2040   75.3465  221.1763 H   0  0  0  0  0  0  0  0  0  0  0  0
  142.4087   74.0305  220.3768 H   0  0  0  0  0  0  0  0  0  0  0  0
  143.6203   75.8102  218.7904 H   0  0  0  0  0  0  0  0  0  0  0  0
  141.9895   75.4872  218.3091 H   0  0  0  0  0  0  0  0  0  0  0  0
  143.0188   77.7144  220.2172 H   0  0  0  0  0  0  0  0  0  0  0  0
  142.0973   77.9892  218.7674 H   0  0  0  0  0  0  0  0  0  0  0  0
  140.0583   77.1109  219.7825 H   0  0  0  0  0  0  0  0  0  0  0  0
  138.6472   77.7438  221.4301 H   0  0  0  0  0  0  0  0  0  0  0  0
  138.2514   79.4217  223.2115 H   0  0  0  0  0  0  0  0  0  0  0  0
  140.1037   80.6586  224.2597 H   0  0  0  0  0  0  0  0  0  0  0  0
  142.8571   78.5261  221.7151 H   0  0  0  0  0  0  0  0  0  0  0  0
  138.7601   68.9830  222.6668 H   0  0  0  0  0  0  0  0  0  0  0  0
  138.7920   67.4923  224.6995 H   0  0  0  0  0  0  0  0  0  0  0  0
  139.3410   67.1501  226.9718 H   0  0  0  0  0  0  0  0  0  0  0  0
  140.2962   67.9207  229.1200 H   0  0  0  0  0  0  0  0  0  0  0  0
  141.2428   70.2372  229.2682 H   0  0  0  0  0  0  0  0  0  0  0  0
  141.2176   71.7083  227.2689 H   0  0  0  0  0  0  0  0  0  0  0  0
  1  2  2  0
  2  3  1  0
  3  4  1  0
  4  5  1  0
  5  6  2  0
  5  7  1  0
  7  8  1  0
  8  9  1  0
  9 10  1  0
 10 11  1  0
 11 12  1  0
 12 13  2  0
 13 14  1  0
 14 15  2  0
 15 16  1  0
 16 17  1  0
 16 18  2  0
  2 19  1  0
 19 20  2  0
 20 21  1  0
 21 22  2  0
 22 23  1  0
 23 24  2  0
 24 25  1  0
 25 26  2  0
 26 27  1  0
 27 28  2  0
 11  7  1  0
 18 12  1  0
 28 19  1  0
 27 22  1  0
  3 29  1  0
  4 30  1  0
  4 31  1  0
  8 32  1  0
  8 33  1  0
  9 34  1  0
  9 35  1  0
 10 36  1  0
 10 37  1  0
 11 38  1  6
 13 39  1  0
 14 40  1  0
 15 41  1  0
 18 42  1  0
 20 43  1  0
 21 44  1  0
 23 45  1  0
 24 46  1  0
 25 47  1  0
 26 48  1  0
M  END
>  <smiles>  (46) 
O=C(NCC(=O)N1CCCC1c1cccc(Cl)c1)c1ccc2ccccc2n1

>  <score_type>  (46) 
oracle

>  <origin>  (46) 
autodockgpu

>  <m_score__min__energy>  (46) 
-9.4700000000000006

>  <m_primary>  (46) 
energy

>  <rmsd>  (46) 
1.9270063532805657

>  <m_score__min__rmsd>  (46) 
1.9270063532805657

>  <meeko>  (46) 
{"free_energy": -9.13, "intermolecular_energy": -10.62, "internal_energy": -1.5, "cluster_size": 31, "cluster_id": 1, "rank_in_cluster": 24}

>  <energy>  (46) 
-8.19

>  <cluster_rmsd>  (46) 
0.78

>  <cluster>  (46) 
2

$$$$

     RDKit          3D

 48 51  0  0  0  0  0  0  0  0999 V2000
  141.1010   71.6890  221.4410 O   0  0  0  0  0  0  0  0  0  0  0  0
  140.4120   72.1650  222.4020 C   0  0  0  0  0  0  0  0  0  0  0  0
  139.8410   73.4500  222.1830 N   0  0  0  0  0  0  0  0  0  0  0  0
  140.1110   74.0670  220.8910 C   0  0  0  0  0  0  0  0  0  0  0  0
  140.5620   75.4550  221.0920 C   0  0  0  0  0  0  0  0  0  0  0  0
  140.4680   75.9600  222.2470 O   0  0  0  0  0  0  0  0  0  0  0  0
  141.0890   76.1830  219.9790 N   0  0  0  0  0  0  0  0  0  0  0  0
  140.3130   76.7910  218.8890 C   0  0  0  0  0  0  0  0  0  0  0  0
  141.2290   77.9470  218.5150 C   0  0  0  0  0  0  0  0  0  0  0  0
  142.5610   77.2290  218.4940 C   0  0  0  0  0  0  0  0  0  0  0  0
  142.4840   76.4240  219.7750 C   0  0  2  0  0  0  0  0  0  0  0  0
  143.2800   75.1750  219.6860 C   0  0  0  0  0  0  0  0  0  0  0  0
  142.9360   74.2820  218.6940 C   0  0  0  0  0  0  0  0  0  0  0  0
  143.6580   73.0990  218.5790 C   0  0  0  0  0  0  0  0  0  0  0  0
  144.6990   72.7840  219.4130 C   0  0  0  0  0  0  0  0  0  0  0  0
  145.0400   73.6820  220.4050 C   0  0  0  0  0  0  0  0  0  0  0  0
  146.3480   73.3520  221.5000 Cl  0  0  0  0  0  0  0  0  0  0  0  0
  144.3240   74.8750  220.5340 C   0  0  0  0  0  0  0  0  0  0  0  0
  140.2230   71.4340  223.6510 C   0  0  0  0  0  0  0  0  0  0  0  0
  139.5310   70.2420  223.5990 C   0  0  0  0  0  0  0  0  0  0  0  0
  139.3610   69.5600  224.8080 C   0  0  0  0  0  0  0  0  0  0  0  0
  139.8650   70.0700  225.9670 C   0  0  0  0  0  0  0  0  0  0  0  0
  139.7020   69.4070  227.1550 C   0  0  0  0  0  0  0  0  0  0  0  0
  140.1980   69.8910  228.3500 C   0  0  0  0  0  0  0  0  0  0  0  0
  140.8890   71.1000  228.3400 C   0  0  0  0  0  0  0  0  0  0  0  0
  141.0630   71.7840  227.1520 C   0  0  0  0  0  0  0  0  0  0  0  0
  140.5530   71.2690  225.9770 C   0  0  0  0  0  0  0  0  0  0  0  0
  140.7120   71.9190  224.8090 N   0  0  0  0  0  0  0  0  0  0  0  0
  139.2630   73.9080  222.9240 H   0  0  0  0  0  0  0  0  0  0  0  0
  140.8958   73.4986  220.3705 H   0  0  0  0  0  0  0  0  0  0  0  0
  139.1926   74.0649  220.2856 H   0  0  0  0  0  0  0  0  0  0  0  0
  140.1746   76.0935  218.0498 H   0  0  0  0  0  0  0  0  0  0  0  0
  139.2886   77.0849  219.1615 H   0  0  0  0  0  0  0  0  0  0  0  0
  140.9757   78.3667  217.5303 H   0  0  0  0  0  0  0  0  0  0  0  0
  141.1803   78.8144  219.1898 H   0  0  0  0  0  0  0  0  0  0  0  0
  142.6530   76.5765  217.6132 H   0  0  0  0  0  0  0  0  0  0  0  0
  143.4324   77.8975  218.4336 H   0  0  0  0  0  0  0  0  0  0  0  0
  142.9192   76.9611  220.6307 H   0  0  0  0  0  0  0  0  0  0  0  0
  142.1060   74.5010  218.0062 H   0  0  0  0  0  0  0  0  0  0  0  0
  143.3825   72.3874  217.7867 H   0  0  0  0  0  0  0  0  0  0  0  0
  145.2494   71.8389  219.2950 H   0  0  0  0  0  0  0  0  0  0  0  0
  144.5985   75.5871  221.3262 H   0  0  0  0  0  0  0  0  0  0  0  0
  139.1324   69.8471  222.6529 H   0  0  0  0  0  0  0  0  0  0  0  0
  138.8162   68.6045  224.8236 H   0  0  0  0  0  0  0  0  0  0  0  0
  139.1551   68.4526  227.1572 H   0  0  0  0  0  0  0  0  0  0  0  0
  140.0506   69.3345  229.2874 H   0  0  0  0  0  0  0  0  0  0  0  0
  141.2957   71.5098  229.2763 H   0  0  0  0  0  0  0  0  0  0  0  0
  141.6082   72.7393  227.1425 H   0  0  0  0  0  0  0  0  0  0  0  0
  1  2  2  0
  2  3  1  0
  3  4  1  0
  4  5  1  0
  5  6  2  0
  5  7  1  0
  7  8  1  0
  8  9  1  0
  9 10  1  0
 10 11  1  0
 11 12  1  0
 12 13  2  0
 13 14  1  0
 14 15  2  0
 15 16  1  0
 16 17  1  0
 16 18  2  0
  2 19  1  0
 19 20  2  0
 20 21  1  0
 21 22  2  0
 22 23  1  0
 23 24  2  0
 24 25  1  0
 25 26  2  0
 26 27  1  0
 27 28  2  0
 11  7  1  0
 18 12  1  0
 28 19  1  0
 27 22  1  0
  3 29  1  0
  4 30  1  0
  4 31  1  0
  8 32  1  0
  8 33  1  0
  9 34  1  0
  9 35  1  0
 10 36  1  0
 10 37  1  0
 11 38  1  1
 13 39  1  0
 14 40  1  0
 15 41  1  0
 18 42  1  0
 20 43  1  0
 21 44  1  0
 23 45  1  0
 24 46  1  0
 25 47  1  0
 26 48  1  0
M  END
>  <smiles>  (47) 
O=C(NCC(=O)N1CCCC1c1cccc(Cl)c1)c1ccc2ccccc2n1

>  <score_type>  (47) 
oracle

>  <origin>  (47) 
autodockgpu

>  <m_score__min__energy>  (47) 
-9.4700000000000006

>  <m_primary>  (47) 
energy

>  <rmsd>  (47) 
1.7632277528425473

>  <m_score__min__rmsd>  (47) 
1.7632277528425473

>  <meeko>  (47) 
{"free_energy": -8.79, "intermolecular_energy": -10.29, "internal_energy": -1.84, "cluster_size": 17, "cluster_id": 2, "rank_in_cluster": 5}

>  <energy>  (47) 
-8.13

>  <cluster_rmsd>  (47) 
1.26

>  <cluster>  (47) 
2

$$$$

     RDKit          3D

 48 51  0  0  0  0  0  0  0  0999 V2000
  141.3110   71.8620  221.5290 O   0  0  0  0  0  0  0  0  0  0  0  0
  140.5630   72.2520  222.4840 C   0  0  0  0  0  0  0  0  0  0  0  0
  140.0000   73.5510  222.3450 N   0  0  0  0  0  0  0  0  0  0  0  0
  140.3430   74.2790  221.1300 C   0  0  0  0  0  0  0  0  0  0  0  0
  140.5390   75.7040  221.4480 C   0  0  0  0  0  0  0  0  0  0  0  0
  140.0000   76.1700  222.4910 O   0  0  0  0  0  0  0  0  0  0  0  0
  141.3300   76.5110  220.5690 N   0  0  0  0  0  0  0  0  0  0  0  0
  142.5120   76.0730  219.8130 C   0  0  0  0  0  0  0  0  0  0  0  0
  142.4290   77.0090  218.6150 C   0  0  0  0  0  0  0  0  0  0  0  0
  142.1400   78.3150  219.3240 C   0  0  0  0  0  0  0  0  0  0  0  0
  141.0650   77.8900  220.3020 C   0  0  2  0  0  0  0  0  0  0  0  0
  141.0750   78.7280  221.5260 C   0  0  0  0  0  0  0  0  0  0  0  0
  142.3070   79.0430  222.0600 C   0  0  0  0  0  0  0  0  0  0  0  0
  142.3580   79.8270  223.2080 C   0  0  0  0  0  0  0  0  0  0  0  0
  141.2330   80.2990  223.8320 C   0  0  0  0  0  0  0  0  0  0  0  0
  140.0020   79.9810  223.2940 C   0  0  0  0  0  0  0  0  0  0  0  0
  138.5320   80.5430  224.0280 Cl  0  0  0  0  0  0  0  0  0  0  0  0
  139.9330   79.1940  222.1400 C   0  0  0  0  0  0  0  0  0  0  0  0
  140.3030   71.4140  223.6510 C   0  0  0  0  0  0  0  0  0  0  0  0
  139.6390   70.2220  223.4500 C   0  0  0  0  0  0  0  0  0  0  0  0
  139.4010   69.4370  224.5820 C   0  0  0  0  0  0  0  0  0  0  0  0
  139.8140   69.8530  225.8130 C   0  0  0  0  0  0  0  0  0  0  0  0
  139.5840   69.0880  226.9260 C   0  0  0  0  0  0  0  0  0  0  0  0
  139.9870   69.4750  228.1900 C   0  0  0  0  0  0  0  0  0  0  0  0
  140.6540   70.6900  228.3300 C   0  0  0  0  0  0  0  0  0  0  0  0
  140.8960   71.4740  227.2190 C   0  0  0  0  0  0  0  0  0  0  0  0
  140.4770   71.0560  225.9720 C   0  0  0  0  0  0  0  0  0  0  0  0
  140.7020   71.8050  224.8770 N   0  0  0  0  0  0  0  0  0  0  0  0
  139.3760   73.9430  223.0870 H   0  0  0  0  0  0  0  0  0  0  0  0
  141.2707   73.8673  220.7059 H   0  0  0  0  0  0  0  0  0  0  0  0
  139.5273   74.1760  220.3992 H   0  0  0  0  0  0  0  0  0  0  0  0
  143.4398   76.2241  220.3843 H   0  0  0  0  0  0  0  0  0  0  0  0
  142.5275   75.0023  219.5613 H   0  0  0  0  0  0  0  0  0  0  0  0
  143.3777   77.0469  218.0596 H   0  0  0  0  0  0  0  0  0  0  0  0
  141.6905   76.7219  217.8520 H   0  0  0  0  0  0  0  0  0  0  0  0
  143.0307   78.6960  219.8451 H   0  0  0  0  0  0  0  0  0  0  0  0
  141.8411   79.1347  218.6542 H   0  0  0  0  0  0  0  0  0  0  0  0
  140.0533   78.0236  219.8915 H   0  0  0  0  0  0  0  0  0  0  0  0
  143.2319   78.6811  221.5870 H   0  0  0  0  0  0  0  0  0  0  0  0
  143.3414   80.0783  223.6321 H   0  0  0  0  0  0  0  0  0  0  0  0
  141.3089   80.9162  224.7394 H   0  0  0  0  0  0  0  0  0  0  0  0
  138.9500   78.9427  221.7152 H   0  0  0  0  0  0  0  0  0  0  0  0
  139.3129   69.9047  222.4485 H   0  0  0  0  0  0  0  0  0  0  0  0
  138.8762   68.4758  224.4787 H   0  0  0  0  0  0  0  0  0  0  0  0
  139.0583   68.1288  226.8091 H   0  0  0  0  0  0  0  0  0  0  0  0
  139.7859   68.8389  229.0646 H   0  0  0  0  0  0  0  0  0  0  0  0
  140.9873   71.0243  229.3235 H   0  0  0  0  0  0  0  0  0  0  0  0
  141.4235   72.4331  227.3281 H   0  0  0  0  0  0  0  0  0  0  0  0
  1  2  2  0
  2  3  1  0
  3  4  1  0
  4  5  1  0
  5  6  2  0
  5  7  1  0
  7  8  1  0
  8  9  1  0
  9 10  1  0
 10 11  1  0
 11 12  1  0
 12 13  2  0
 13 14  1  0
 14 15  2  0
 15 16  1  0
 16 17  1  0
 16 18  2  0
  2 19  1  0
 19 20  2  0
 20 21  1  0
 21 22  2  0
 22 23  1  0
 23 24  2  0
 24 25  1  0
 25 26  2  0
 26 27  1  0
 27 28  2  0
 11  7  1  0
 18 12  1  0
 28 19  1  0
 27 22  1  0
  3 29  1  0
  4 30  1  0
  4 31  1  0
  8 32  1  0
  8 33  1  0
  9 34  1  0
  9 35  1  0
 10 36  1  0
 10 37  1  0
 11 38  1  6
 13 39  1  0
 14 40  1  0
 15 41  1  0
 18 42  1  0
 20 43  1  0
 21 44  1  0
 23 45  1  0
 24 46  1  0
 25 47  1  0
 26 48  1  0
M  END
>  <smiles>  (48) 
O=C(NCC(=O)N1CCCC1c1cccc(Cl)c1)c1ccc2ccccc2n1

>  <score_type>  (48) 
oracle

>  <origin>  (48) 
autodockgpu

>  <m_score__min__energy>  (48) 
-9.4700000000000006

>  <m_primary>  (48) 
energy

>  <rmsd>  (48) 
2.133760707791419

>  <m_score__min__rmsd>  (48) 
2.133760707791419

>  <meeko>  (48) 
{"free_energy": -9.33, "intermolecular_energy": -10.82, "internal_energy": -1.63, "cluster_size": 31, "cluster_id": 1, "rank_in_cluster": 7}

>  <energy>  (48) 
-8.12

>  <cluster_rmsd>  (48) 
1.25

>  <cluster>  (48) 
2

$$$$

     RDKit          3D

 48 51  0  0  0  0  0  0  0  0999 V2000
  141.3580   71.5240  221.5580 O   0  0  0  0  0  0  0  0  0  0  0  0
  140.6240   71.9540  222.5070 C   0  0  0  0  0  0  0  0  0  0  0  0
  140.1230   73.2770  222.3570 N   0  0  0  0  0  0  0  0  0  0  0  0
  140.5070   73.9810  221.1420 C   0  0  0  0  0  0  0  0  0  0  0  0
  140.5650   75.4280  221.4080 C   0  0  0  0  0  0  0  0  0  0  0  0
  139.9140   75.8900  222.3880 O   0  0  0  0  0  0  0  0  0  0  0  0
  141.3530   76.2630  220.5520 N   0  0  0  0  0  0  0  0  0  0  0  0
  142.6370   75.9080  219.9320 C   0  0  0  0  0  0  0  0  0  0  0  0
  142.5760   76.7630  218.6740 C   0  0  0  0  0  0  0  0  0  0  0  0
  142.0970   78.0690  219.2700 C   0  0  0  0  0  0  0  0  0  0  0  0
  140.9810   77.5910  220.1750 C   0  0  2  0  0  0  0  0  0  0  0  0
  140.7960   78.4920  221.3390 C   0  0  0  0  0  0  0  0  0  0  0  0
  139.5050   78.6840  221.7840 C   0  0  0  0  0  0  0  0  0  0  0  0
  139.2910   79.5220  222.8730 C   0  0  0  0  0  0  0  0  0  0  0  0
  140.3110   80.1660  223.5230 C   0  0  0  0  0  0  0  0  0  0  0  0
  141.6020   79.9700  223.0740 C   0  0  0  0  0  0  0  0  0  0  0  0
  142.9470   80.7510  223.8470 Cl  0  0  0  0  0  0  0  0  0  0  0  0
  141.8350   79.1310  221.9810 C   0  0  0  0  0  0  0  0  0  0  0  0
  140.3180   71.1350  223.6770 C   0  0  0  0  0  0  0  0  0  0  0  0
  139.5280   70.0200  223.4910 C   0  0  0  0  0  0  0  0  0  0  0  0
  139.2480   69.2520  224.6250 C   0  0  0  0  0  0  0  0  0  0  0  0
  139.7440   69.6100  225.8430 C   0  0  0  0  0  0  0  0  0  0  0  0
  139.4740   68.8620  226.9590 C   0  0  0  0  0  0  0  0  0  0  0  0
  139.9590   69.1910  228.2100 C   0  0  0  0  0  0  0  0  0  0  0  0
  140.7520   70.3290  228.3350 C   0  0  0  0  0  0  0  0  0  0  0  0
  141.0360   71.0960  227.2210 C   0  0  0  0  0  0  0  0  0  0  0  0
  140.5340   70.7360  225.9880 C   0  0  0  0  0  0  0  0  0  0  0  0
  140.7980   71.4690  224.8900 N   0  0  0  0  0  0  0  0  0  0  0  0
  139.5130   73.7010  223.0940 H   0  0  0  0  0  0  0  0  0  0  0  0
  141.4956   73.6294  220.8119 H   0  0  0  0  0  0  0  0  0  0  0  0
  139.7646   73.7834  220.3547 H   0  0  0  0  0  0  0  0  0  0  0  0
  143.4882   76.1847  220.5715 H   0  0  0  0  0  0  0  0  0  0  0  0
  142.7798   74.8323  219.7516 H   0  0  0  0  0  0  0  0  0  0  0  0
  143.5643   76.8672  218.2024 H   0  0  0  0  0  0  0  0  0  0  0  0
  141.9435   76.3603  217.8691 H   0  0  0  0  0  0  0  0  0  0  0  0
  142.8939   78.5668  219.8420 H   0  0  0  0  0  0  0  0  0  0  0  0
  141.7843   78.8159  218.5255 H   0  0  0  0  0  0  0  0  0  0  0  0
  140.0037   77.5976  219.6702 H   0  0  0  0  0  0  0  0  0  0  0  0
  138.6606   78.1839  221.2871 H   0  0  0  0  0  0  0  0  0  0  0  0
  138.2607   79.6741  223.2271 H   0  0  0  0  0  0  0  0  0  0  0  0
  140.1064   80.8229  224.3813 H   0  0  0  0  0  0  0  0  0  0  0  0
  142.8652   78.9779  221.6269 H   0  0  0  0  0  0  0  0  0  0  0  0
  139.1375   69.7484  222.4992 H   0  0  0  0  0  0  0  0  0  0  0  0
  138.6225   68.3518  224.5336 H   0  0  0  0  0  0  0  0  0  0  0  0
  138.8466   67.9645  226.8546 H   0  0  0  0  0  0  0  0  0  0  0  0
  139.7244   68.5690  229.0864 H   0  0  0  0  0  0  0  0  0  0  0  0
  141.1516   70.6168  229.3186 H   0  0  0  0  0  0  0  0  0  0  0  0
  141.6631   71.9945  227.3179 H   0  0  0  0  0  0  0  0  0  0  0  0
  1  2  2  0
  2  3  1  0
  3  4  1  0
  4  5  1  0
  5  6  2  0
  5  7  1  0
  7  8  1  0
  8  9  1  0
  9 10  1  0
 10 11  1  0
 11 12  1  0
 12 13  2  0
 13 14  1  0
 14 15  2  0
 15 16  1  0
 16 17  1  0
 16 18  2  0
  2 19  1  0
 19 20  2  0
 20 21  1  0
 21 22  2  0
 22 23  1  0
 23 24  2  0
 24 25  1  0
 25 26  2  0
 26 27  1  0
 27 28  2  0
 11  7  1  0
 18 12  1  0
 28 19  1  0
 27 22  1  0
  3 29  1  0
  4 30  1  0
  4 31  1  0
  8 32  1  0
  8 33  1  0
  9 34  1  0
  9 35  1  0
 10 36  1  0
 10 37  1  0
 11 38  1  6
 13 39  1  0
 14 40  1  0
 15 41  1  0
 18 42  1  0
 20 43  1  0
 21 44  1  0
 23 45  1  0
 24 46  1  0
 25 47  1  0
 26 48  1  0
M  END
>  <smiles>  (49) 
O=C(NCC(=O)N1CCCC1c1cccc(Cl)c1)c1ccc2ccccc2n1

>  <score_type>  (49) 
oracle

>  <origin>  (49) 
autodockgpu

>  <m_score__min__energy>  (49) 
-9.4700000000000006

>  <m_primary>  (49) 
energy

>  <rmsd>  (49) 
2.126850946727738

>  <m_score__min__rmsd>  (49) 
2.126850946727738

>  <meeko>  (49) 
{"free_energy": -9.29, "intermolecular_energy": -10.78, "internal_energy": -1.64, "cluster_size": 31, "cluster_id": 1, "rank_in_cluster": 12}

>  <energy>  (49) 
-8.34

>  <cluster_rmsd>  (49) 
0.0

>  <cluster>  (49) 
3

$$$$

     RDKit          3D

 48 51  0  0  0  0  0  0  0  0999 V2000
  141.3760   71.6210  221.5410 O   0  0  0  0  0  0  0  0  0  0  0  0
  140.6190   72.0260  222.4820 C   0  0  0  0  0  0  0  0  0  0  0  0
  140.1120   73.3490  222.3500 N   0  0  0  0  0  0  0  0  0  0  0  0
  140.5180   74.0810  221.1580 C   0  0  0  0  0  0  0  0  0  0  0  0
  140.6090   75.5170  221.4690 C   0  0  0  0  0  0  0  0  0  0  0  0
  140.0640   75.9430  222.5260 O   0  0  0  0  0  0  0  0  0  0  0  0
  141.3100   76.3820  220.5680 N   0  0  0  0  0  0  0  0  0  0  0  0
  142.5610   76.0730  219.8620 C   0  0  0  0  0  0  0  0  0  0  0  0
  142.3880   76.9320  218.6170 C   0  0  0  0  0  0  0  0  0  0  0  0
  141.9070   78.2180  219.2520 C   0  0  0  0  0  0  0  0  0  0  0  0
  140.8700   77.6990  220.2260 C   0  0  2  0  0  0  0  0  0  0  0  0
  140.7340   78.5870  221.4070 C   0  0  0  0  0  0  0  0  0  0  0  0
  139.4620   78.7800  221.9020 C   0  0  0  0  0  0  0  0  0  0  0  0
  139.2930   79.6070  223.0080 C   0  0  0  0  0  0  0  0  0  0  0  0
  140.3400   80.2380  223.6260 C   0  0  0  0  0  0  0  0  0  0  0  0
  141.6130   80.0420  223.1260 C   0  0  0  0  0  0  0  0  0  0  0  0
  142.9890   80.8090  223.8560 Cl  0  0  0  0  0  0  0  0  0  0  0  0
  141.8000   79.2140  222.0150 C   0  0  0  0  0  0  0  0  0  0  0  0
  140.2930   71.1800  223.6280 C   0  0  0  0  0  0  0  0  0  0  0  0
  139.5500   70.0420  223.3940 C   0  0  0  0  0  0  0  0  0  0  0  0
  139.2500   69.2490  224.5060 C   0  0  0  0  0  0  0  0  0  0  0  0
  139.6820   69.6060  225.7480 C   0  0  0  0  0  0  0  0  0  0  0  0
  139.3920   68.8330  226.8420 C   0  0  0  0  0  0  0  0  0  0  0  0
  139.8130   69.1610  228.1160 C   0  0  0  0  0  0  0  0  0  0  0  0
  140.5600   70.3230  228.2890 C   0  0  0  0  0  0  0  0  0  0  0  0
  140.8640   71.1150  227.1980 C   0  0  0  0  0  0  0  0  0  0  0  0
  140.4260   70.7560  225.9400 C   0  0  0  0  0  0  0  0  0  0  0  0
  140.7100   71.5140  224.8650 N   0  0  0  0  0  0  0  0  0  0  0  0
  139.4840   73.7530  223.0810 H   0  0  0  0  0  0  0  0  0  0  0  0
  141.4995   73.7163  220.8207 H   0  0  0  0  0  0  0  0  0  0  0  0
  139.7747   73.9254  220.3622 H   0  0  0  0  0  0  0  0  0  0  0  0
  143.4432   76.3747  220.4456 H   0  0  0  0  0  0  0  0  0  0  0  0
  142.7272   75.0036  219.6649 H   0  0  0  0  0  0  0  0  0  0  0  0
  143.3387   77.0715  218.0816 H   0  0  0  0  0  0  0  0  0  0  0  0
  141.7167   76.5123  217.8533 H   0  0  0  0  0  0  0  0  0  0  0  0
  142.7233   78.7396  219.7731 H   0  0  0  0  0  0  0  0  0  0  0  0
  141.5209   78.9573  218.5348 H   0  0  0  0  0  0  0  0  0  0  0  0
  139.8615   77.6764  219.7873 H   0  0  0  0  0  0  0  0  0  0  0  0
  138.5971   78.2895  221.4315 H   0  0  0  0  0  0  0  0  0  0  0  0
  138.2775   79.7603  223.4021 H   0  0  0  0  0  0  0  0  0  0  0  0
  140.1713   80.8852  224.4993 H   0  0  0  0  0  0  0  0  0  0  0  0
  142.8149   79.0605  221.6196 H   0  0  0  0  0  0  0  0  0  0  0  0
  139.2104   69.7716  222.3833 H   0  0  0  0  0  0  0  0  0  0  0  0
  138.6604   68.3294  224.3770 H   0  0  0  0  0  0  0  0  0  0  0  0
  138.8012   67.9161  226.7000 H   0  0  0  0  0  0  0  0  0  0  0  0
  139.5639   68.5191  228.9738 H   0  0  0  0  0  0  0  0  0  0  0  0
  140.9076   70.6102  229.2923 H   0  0  0  0  0  0  0  0  0  0  0  0
  141.4557   72.0324  227.3328 H   0  0  0  0  0  0  0  0  0  0  0  0
  1  2  2  0
  2  3  1  0
  3  4  1  0
  4  5  1  0
  5  6  2  0
  5  7  1  0
  7  8  1  0
  8  9  1  0
  9 10  1  0
 10 11  1  0
 11 12  1  0
 12 13  2  0
 13 14  1  0
 14 15  2  0
 15 16  1  0
 16 17  1  0
 16 18  2  0
  2 19  1  0
 19 20  2  0
 20 21  1  0
 21 22  2  0
 22 23  1  0
 23 24  2  0
 24 25  1  0
 25 26  2  0
 26 27  1  0
 27 28  2  0
 11  7  1  0
 18 12  1  0
 28 19  1  0
 27 22  1  0
  3 29  1  0
  4 30  1  0
  4 31  1  0
  8 32  1  0
  8 33  1  0
  9 34  1  0
  9 35  1  0
 10 36  1  0
 10 37  1  0
 11 38  1  6
 13 39  1  0
 14 40  1  0
 15 41  1  0
 18 42  1  0
 20 43  1  0
 21 44  1  0
 23 45  1  0
 24 46  1  0
 25 47  1  0
 26 48  1  0
M  END
>  <smiles>  (50) 
O=C(NCC(=O)N1CCCC1c1cccc(Cl)c1)c1ccc2ccccc2n1

>  <score_type>  (50) 
oracle

>  <origin>  (50) 
autodockgpu

>  <m_score__min__energy>  (50) 
-9.4700000000000006

>  <m_primary>  (50) 
energy

>  <rmsd>  (50) 
2.1117334872544067

>  <m_score__min__rmsd>  (50) 
2.1117334872544067

>  <meeko>  (50) 
{"free_energy": -9.21, "intermolecular_energy": -10.7, "internal_energy": -1.67, "cluster_size": 31, "cluster_id": 1, "rank_in_cluster": 21}

>  <energy>  (50) 
-8.18

>  <cluster_rmsd>  (50) 
0.0

>  <cluster>  (50) 
4

$$$$

     RDKit          3D

 48 51  0  0  0  0  0  0  0  0999 V2000
  141.5490   72.8640  221.5400 O   0  0  0  0  0  0  0  0  0  0  0  0
  140.5850   73.0070  222.3310 C   0  0  0  0  0  0  0  0  0  0  0  0
  139.8560   74.2180  222.3080 N   0  0  0  0  0  0  0  0  0  0  0  0
  140.2160   75.2970  221.3740 C   0  0  0  0  0  0  0  0  0  0  0  0
  139.8890   76.6190  221.9600 C   0  0  0  0  0  0  0  0  0  0  0  0
  138.7160   76.7810  222.4100 O   0  0  0  0  0  0  0  0  0  0  0  0
  140.7900   77.6970  222.0490 N   0  0  0  0  0  0  0  0  0  0  0  0
  141.2980   78.1650  223.3570 C   0  0  0  0  0  0  0  0  0  0  0  0
  141.7650   79.5910  223.0230 C   0  0  0  0  0  0  0  0  0  0  0  0
  142.1860   79.5020  221.5790 C   0  0  0  0  0  0  0  0  0  0  0  0
  141.3140   78.4550  220.9900 C   0  0  1  0  0  0  0  0  0  0  0  0
  141.9530   77.6960  219.9000 C   0  0  0  0  0  0  0  0  0  0  0  0
  141.9050   78.1300  218.5820 C   0  0  0  0  0  0  0  0  0  0  0  0
  142.4960   77.4360  217.5470 C   0  0  0  0  0  0  0  0  0  0  0  0
  143.1700   76.2650  217.7800 C   0  0  0  0  0  0  0  0  0  0  0  0
  143.2380   75.8060  219.0780 C   0  0  0  0  0  0  0  0  0  0  0  0
  144.0760   74.3260  219.4580 Cl  0  0  0  0  0  0  0  0  0  0  0  0
  142.6450   76.5030  220.1100 C   0  0  0  0  0  0  0  0  0  0  0  0
  140.2140   71.9470  223.2620 C   0  0  0  0  0  0  0  0  0  0  0  0
  139.3270   70.9600  222.8580 C   0  0  0  0  0  0  0  0  0  0  0  0
  138.9480   69.9410  223.7010 C   0  0  0  0  0  0  0  0  0  0  0  0
  139.4660   69.9120  224.9670 C   0  0  0  0  0  0  0  0  0  0  0  0
  139.1050   68.9060  225.8320 C   0  0  0  0  0  0  0  0  0  0  0  0
  139.6320   68.8920  227.0930 C   0  0  0  0  0  0  0  0  0  0  0  0
  140.5180   69.8590  227.5310 C   0  0  0  0  0  0  0  0  0  0  0  0
  140.8740   70.8590  226.6650 C   0  0  0  0  0  0  0  0  0  0  0  0
  140.3490   70.8920  225.3770 C   0  0  0  0  0  0  0  0  0  0  0  0
  140.7060   71.8860  224.5240 N   0  0  0  0  0  0  0  0  0  0  0  0
  139.0420   74.3700  222.9580 H   0  0  0  0  0  0  0  0  0  0  0  0
  141.2949   75.2502  221.1648 H   0  0  0  0  0  0  0  0  0  0  0  0
  139.6443   75.1683  220.4431 H   0  0  0  0  0  0  0  0  0  0  0  0
  140.5021   78.1720  224.1162 H   0  0  0  0  0  0  0  0  0  0  0  0
  142.0867   77.5268  223.7820 H   0  0  0  0  0  0  0  0  0  0  0  0
  140.9435   80.3118  223.1480 H   0  0  0  0  0  0  0  0  0  0  0  0
  142.5745   79.9389  223.6816 H   0  0  0  0  0  0  0  0  0  0  0  0
  142.0313   80.4652  221.0708 H   0  0  0  0  0  0  0  0  0  0  0  0
  143.2536   79.2589  221.4735 H   0  0  0  0  0  0  0  0  0  0  0  0
  140.4692   78.9110  220.4531 H   0  0  0  0  0  0  0  0  0  0  0  0
  141.3738   79.0658  218.3539 H   0  0  0  0  0  0  0  0  0  0  0  0
  142.4257   77.8270  216.5213 H   0  0  0  0  0  0  0  0  0  0  0  0
  143.6419   75.7089  216.9565 H   0  0  0  0  0  0  0  0  0  0  0  0
  142.7202   76.1049  221.1327 H   0  0  0  0  0  0  0  0  0  0  0  0
  138.9164   70.9929  221.8381 H   0  0  0  0  0  0  0  0  0  0  0  0
  138.2435   69.1661  223.3644 H   0  0  0  0  0  0  0  0  0  0  0  0
  138.4014   68.1228  225.5134 H   0  0  0  0  0  0  0  0  0  0  0  0
  139.3418   68.0851  227.7820 H   0  0  0  0  0  0  0  0  0  0  0  0
  140.9276   69.8261  228.5514 H   0  0  0  0  0  0  0  0  0  0  0  0
  141.5781   71.6394  226.9894 H   0  0  0  0  0  0  0  0  0  0  0  0
  1  2  2  0
  2  3  1  0
  3  4  1  0
  4  5  1  0
  5  6  2  0
  5  7  1  0
  7  8  1  0
  8  9  1  0
  9 10  1  0
 10 11  1  0
 11 12  1  0
 12 13  2  0
 13 14  1  0
 14 15  2  0
 15 16  1  0
 16 17  1  0
 16 18  2  0
  2 19  1  0
 19 20  2  0
 20 21  1  0
 21 22  2  0
 22 23  1  0
 23 24  2  0
 24 25  1  0
 25 26  2  0
 26 27  1  0
 27 28  2  0
 11  7  1  0
 18 12  1  0
 28 19  1  0
 27 22  1  0
  3 29  1  0
  4 30  1  0
  4 31  1  0
  8 32  1  0
  8 33  1  0
  9 34  1  0
  9 35  1  0
 10 36  1  0
 10 37  1  0
 11 38  1  6
 13 39  1  0
 14 40  1  0
 15 41  1  0
 18 42  1  0
 20 43  1  0
 21 44  1  0
 23 45  1  0
 24 46  1  0
 25 47  1  0
 26 48  1  0
M  END
>  <smiles>  (51) 
O=C(NCC(=O)N1CCCC1c1cccc(Cl)c1)c1ccc2ccccc2n1

>  <score_type>  (51) 
oracle

>  <origin>  (51) 
autodockgpu

>  <m_score__min__energy>  (51) 
-9.1600000000000001

>  <m_primary>  (51) 
energy

>  <rmsd>  (51) 
3.389079953737356

>  <m_score__min__rmsd>  (51) 
3.389079953737356

>  <meeko>  (51) 
{"free_energy": -8.25, "intermolecular_energy": -9.74, "internal_energy": -1.54, "cluster_size": 1, "cluster_id": 4, "rank_in_cluster": 1}

>  <energy>  (51) 
-9.16

>  <cluster_rmsd>  (51) 
0.0

>  <cluster>  (51) 
1

$$$$

     RDKit          3D

 48 51  0  0  0  0  0  0  0  0999 V2000
  140.8020   71.7140  221.2280 O   0  0  0  0  0  0  0  0  0  0  0  0
  140.3490   72.2250  222.2810 C   0  0  0  0  0  0  0  0  0  0  0  0
  139.9540   73.5820  222.2660 N   0  0  0  0  0  0  0  0  0  0  0  0
  140.0690   74.3880  221.0410 C   0  0  0  0  0  0  0  0  0  0  0  0
  141.0230   75.5040  221.2440 C   0  0  0  0  0  0  0  0  0  0  0  0
  141.1450   75.9580  222.4210 O   0  0  0  0  0  0  0  0  0  0  0  0
  141.7960   76.0900  220.2230 N   0  0  0  0  0  0  0  0  0  0  0  0
  141.8560   77.5580  220.0550 C   0  0  0  0  0  0  0  0  0  0  0  0
  142.3270   77.6910  218.5970 C   0  0  0  0  0  0  0  0  0  0  0  0
  143.1730   76.4620  218.3810 C   0  0  0  0  0  0  0  0  0  0  0  0
  142.5780   75.4280  219.2640 C   0  0  1  0  0  0  0  0  0  0  0  0
  143.5580   74.4560  219.7800 C   0  0  0  0  0  0  0  0  0  0  0  0
  144.6930   74.8600  220.4720 C   0  0  0  0  0  0  0  0  0  0  0  0
  145.6220   73.9680  220.9640 C   0  0  0  0  0  0  0  0  0  0  0  0
  145.4630   72.6180  220.7880 C   0  0  0  0  0  0  0  0  0  0  0  0
  144.3480   72.1820  220.1070 C   0  0  0  0  0  0  0  0  0  0  0  0
  144.0720   70.4810  219.8410 Cl  0  0  0  0  0  0  0  0  0  0  0  0
  143.4210   73.0770  219.6160 C   0  0  0  0  0  0  0  0  0  0  0  0
  140.2270   71.4400  223.5040 C   0  0  0  0  0  0  0  0  0  0  0  0
  139.6090   70.1980  223.4620 C   0  0  0  0  0  0  0  0  0  0  0  0
  139.4710   69.4220  224.5900 C   0  0  0  0  0  0  0  0  0  0  0  0
  139.9590   69.8990  225.7760 C   0  0  0  0  0  0  0  0  0  0  0  0
  139.8350   69.1450  226.9190 C   0  0  0  0  0  0  0  0  0  0  0  0
  140.3290   69.6360  228.0950 C   0  0  0  0  0  0  0  0  0  0  0  0
  140.9500   70.8680  228.1750 C   0  0  0  0  0  0  0  0  0  0  0  0
  141.0710   71.6150  227.0330 C   0  0  0  0  0  0  0  0  0  0  0  0
  140.5750   71.1340  225.8250 C   0  0  0  0  0  0  0  0  0  0  0  0
  140.6980   71.8790  224.6970 N   0  0  0  0  0  0  0  0  0  0  0  0
  139.5690   74.0410  223.1320 H   0  0  0  0  0  0  0  0  0  0  0  0
  140.4272   73.7499  220.2197 H   0  0  0  0  0  0  0  0  0  0  0  0
  139.0811   74.8038  220.7936 H   0  0  0  0  0  0  0  0  0  0  0  0
  140.8674   78.0181  220.1997 H   0  0  0  0  0  0  0  0  0  0  0  0
  142.5103   78.0623  220.7814 H   0  0  0  0  0  0  0  0  0  0  0  0
  141.4700   77.7034  217.9075 H   0  0  0  0  0  0  0  0  0  0  0  0
  142.8769   78.6252  218.4103 H   0  0  0  0  0  0  0  0  0  0  0  0
  143.1309   76.1433  217.3290 H   0  0  0  0  0  0  0  0  0  0  0  0
  144.2330   76.6434  218.6121 H   0  0  0  0  0  0  0  0  0  0  0  0
  141.9139   74.7638  218.6914 H   0  0  0  0  0  0  0  0  0  0  0  0
  144.8571   75.9356  220.6340 H   0  0  0  0  0  0  0  0  0  0  0  0
  146.5025   74.3447  221.5050 H   0  0  0  0  0  0  0  0  0  0  0  0
  146.2034   71.9045  221.1788 H   0  0  0  0  0  0  0  0  0  0  0  0
  142.5436   72.6908  219.0766 H   0  0  0  0  0  0  0  0  0  0  0  0
  139.2198   69.8247  222.5033 H   0  0  0  0  0  0  0  0  0  0  0  0
  138.9790   68.4395  224.5393 H   0  0  0  0  0  0  0  0  0  0  0  0
  139.3452   68.1606  226.8875 H   0  0  0  0  0  0  0  0  0  0  0  0
  140.2290   69.0306  229.0079 H   0  0  0  0  0  0  0  0  0  0  0  0
  141.3385   71.2405  229.1343 H   0  0  0  0  0  0  0  0  0  0  0  0
  141.5620   72.5986  227.0710 H   0  0  0  0  0  0  0  0  0  0  0  0
  1  2  2  0
  2  3  1  0
  3  4  1  0
  4  5  1  0
  5  6  2  0
  5  7  1  0
  7  8  1  0
  8  9  1  0
  9 10  1  0
 10 11  1  0
 11 12  1  0
 12 13  2  0
 13 14  1  0
 14 15  2  0
 15 16  1  0
 16 17  1  0
 16 18  2  0
  2 19  1  0
 19 20  2  0
 20 21  1  0
 21 22  2  0
 22 23  1  0
 23 24  2  0
 24 25  1  0
 25 26  2  0
 26 27  1  0
 27 28  2  0
 11  7  1  0
 18 12  1  0
 28 19  1  0
 27 22  1  0
  3 29  1  0
  4 30  1  0
  4 31  1  0
  8 32  1  0
  8 33  1  0
  9 34  1  0
  9 35  1  0
 10 36  1  0
 10 37  1  0
 11 38  1  6
 13 39  1  0
 14 40  1  0
 15 41  1  0
 18 42  1  0
 20 43  1  0
 21 44  1  0
 23 45  1  0
 24 46  1  0
 25 47  1  0
 26 48  1  0
M  END
>  <smiles>  (52) 
O=C(NCC(=O)N1CCCC1c1cccc(Cl)c1)c1ccc2ccccc2n1

>  <score_type>  (52) 
oracle

>  <origin>  (52) 
autodockgpu

>  <m_score__min__energy>  (52) 
-9.1600000000000001

>  <m_primary>  (52) 
energy

>  <rmsd>  (52) 
2.2570636182826234

>  <m_score__min__rmsd>  (52) 
2.2570636182826234

>  <meeko>  (52) 
{"free_energy": -8.9, "intermolecular_energy": -10.39, "internal_energy": -1.92, "cluster_size": 33, "cluster_id": 1, "rank_in_cluster": 28}

>  <energy>  (52) 
-9.16

>  <cluster_rmsd>  (52) 
0.15

>  <cluster>  (52) 
1

$$$$

     RDKit          3D

 48 51  0  0  0  0  0  0  0  0999 V2000
  140.1600   71.2450  221.3080 O   0  0  0  0  0  0  0  0  0  0  0  0
  139.9730   71.8490  222.3920 C   0  0  0  0  0  0  0  0  0  0  0  0
  139.7580   73.2460  222.3680 N   0  0  0  0  0  0  0  0  0  0  0  0
  139.7500   73.9860  221.0970 C   0  0  0  0  0  0  0  0  0  0  0  0
  140.2260   75.3750  221.3040 C   0  0  0  0  0  0  0  0  0  0  0  0
  140.0410   75.8880  222.4470 O   0  0  0  0  0  0  0  0  0  0  0  0
  140.8640   76.1550  220.3210 N   0  0  0  0  0  0  0  0  0  0  0  0
  140.6270   75.9160  218.8810 C   0  0  0  0  0  0  0  0  0  0  0  0
  141.8600   76.5770  218.2420 C   0  0  0  0  0  0  0  0  0  0  0  0
  142.1980   77.6970  219.1930 C   0  0  0  0  0  0  0  0  0  0  0  0
  141.7680   77.2090  220.5270 C   0  0  1  0  0  0  0  0  0  0  0  0
  141.3200   78.2820  221.4330 C   0  0  0  0  0  0  0  0  0  0  0  0
  139.9790   78.6250  221.5530 C   0  0  0  0  0  0  0  0  0  0  0  0
  139.5390   79.6250  222.3940 C   0  0  0  0  0  0  0  0  0  0  0  0
  140.4220   80.3370  223.1630 C   0  0  0  0  0  0  0  0  0  0  0  0
  141.7600   80.0220  223.0700 C   0  0  0  0  0  0  0  0  0  0  0  0
  142.9480   80.8800  224.0140 Cl  0  0  0  0  0  0  0  0  0  0  0  0
  142.1970   79.0220  222.2270 C   0  0  0  0  0  0  0  0  0  0  0  0
  139.9760   71.1310  223.6620 C   0  0  0  0  0  0  0  0  0  0  0  0
  139.5140   69.8230  223.7100 C   0  0  0  0  0  0  0  0  0  0  0  0
  139.4980   69.1070  224.8840 C   0  0  0  0  0  0  0  0  0  0  0  0
  139.9510   69.7090  226.0260 C   0  0  0  0  0  0  0  0  0  0  0  0
  139.9470   69.0170  227.2130 C   0  0  0  0  0  0  0  0  0  0  0  0
  140.4040   69.6340  228.3440 C   0  0  0  0  0  0  0  0  0  0  0  0
  140.8720   70.9350  228.3350 C   0  0  0  0  0  0  0  0  0  0  0  0
  140.8740   71.6200  227.1480 C   0  0  0  0  0  0  0  0  0  0  0  0
  140.4130   71.0100  225.9850 C   0  0  0  0  0  0  0  0  0  0  0  0
  140.4180   71.6950  224.8130 N   0  0  0  0  0  0  0  0  0  0  0  0
  139.5980   73.7820  223.2600 H   0  0  0  0  0  0  0  0  0  0  0  0
  140.4114   73.4796  220.3787 H   0  0  0  0  0  0  0  0  0  0  0  0
  138.7215   74.0157  220.7081 H   0  0  0  0  0  0  0  0  0  0  0  0
  140.5878   74.8401  218.6552 H   0  0  0  0  0  0  0  0  0  0  0  0
  139.6694   76.3157  218.5160 H   0  0  0  0  0  0  0  0  0  0  0  0
  142.6928   75.8625  218.1656 H   0  0  0  0  0  0  0  0  0  0  0  0
  141.6716   76.9300  217.2174 H   0  0  0  0  0  0  0  0  0  0  0  0
  143.2794   77.8984  219.1848 H   0  0  0  0  0  0  0  0  0  0  0  0
  141.7009   78.6386  218.9168 H   0  0  0  0  0  0  0  0  0  0  0  0
  142.6257   76.8104  221.0886 H   0  0  0  0  0  0  0  0  0  0  0  0
  139.2383   78.0765  220.9526 H   0  0  0  0  0  0  0  0  0  0  0  0
  138.4646   79.8544  222.4485 H   0  0  0  0  0  0  0  0  0  0  0  0
  140.0731   81.1357  223.8341 H   0  0  0  0  0  0  0  0  0  0  0  0
  143.2733   78.8002  222.1788 H   0  0  0  0  0  0  0  0  0  0  0  0
  139.1519   69.3476  222.7865 H   0  0  0  0  0  0  0  0  0  0  0  0
  139.1284   68.0711  224.9045 H   0  0  0  0  0  0  0  0  0  0  0  0
  139.5810   67.9804  227.2527 H   0  0  0  0  0  0  0  0  0  0  0  0
  140.3993   69.0771  229.2926 H   0  0  0  0  0  0  0  0  0  0  0  0
  141.2343   71.4092  229.2591 H   0  0  0  0  0  0  0  0  0  0  0  0
  141.2415   72.6563  227.1143 H   0  0  0  0  0  0  0  0  0  0  0  0
  1  2  2  0
  2  3  1  0
  3  4  1  0
  4  5  1  0
  5  6  2  0
  5  7  1  0
  7  8  1  0
  8  9  1  0
  9 10  1  0
 10 11  1  0
 11 12  1  0
 12 13  2  0
 13 14  1  0
 14 15  2  0
 15 16  1  0
 16 17  1  0
 16 18  2  0
  2 19  1  0
 19 20  2  0
 20 21  1  0
 21 22  2  0
 22 23  1  0
 23 24  2  0
 24 25  1  0
 25 26  2  0
 26 27  1  0
 27 28  2  0
 11  7  1  0
 18 12  1  0
 28 19  1  0
 27 22  1  0
  3 29  1  0
  4 30  1  0
  4 31  1  0
  8 32  1  0
  8 33  1  0
  9 34  1  0
  9 35  1  0
 10 36  1  0
 10 37  1  0
 11 38  1  1
 13 39  1  0
 14 40  1  0
 15 41  1  0
 18 42  1  0
 20 43  1  0
 21 44  1  0
 23 45  1  0
 24 46  1  0
 25 47  1  0
 26 48  1  0
M  END
>  <smiles>  (53) 
O=C(NCC(=O)N1CCCC1c1cccc(Cl)c1)c1ccc2ccccc2n1

>  <score_type>  (53) 
oracle

>  <origin>  (53) 
autodockgpu

>  <m_score__min__energy>  (53) 
-9.1600000000000001

>  <m_primary>  (53) 
energy

>  <rmsd>  (53) 
1.422758028143664

>  <m_score__min__rmsd>  (53) 
1.422758028143664

>  <meeko>  (53) 
{"free_energy": -9.02, "intermolecular_energy": -10.51, "internal_energy": -1.71, "cluster_size": 10, "cluster_id": 2, "rank_in_cluster": 4}

>  <energy>  (53) 
-9.16

>  <cluster_rmsd>  (53) 
0.1

>  <cluster>  (53) 
1

$$$$

     RDKit          3D

 48 51  0  0  0  0  0  0  0  0999 V2000
  140.6960   71.4320  221.3520 O   0  0  0  0  0  0  0  0  0  0  0  0
  140.2880   72.0030  222.3920 C   0  0  0  0  0  0  0  0  0  0  0  0
  139.9260   73.3680  222.3250 N   0  0  0  0  0  0  0  0  0  0  0  0
  140.0230   74.1130  221.0600 C   0  0  0  0  0  0  0  0  0  0  0  0
  140.6110   75.4540  221.2930 C   0  0  0  0  0  0  0  0  0  0  0  0
  140.2640   76.0650  222.3480 O   0  0  0  0  0  0  0  0  0  0  0  0
  141.5200   76.0890  220.4260 N   0  0  0  0  0  0  0  0  0  0  0  0
  141.8200   77.5320  220.5550 C   0  0  0  0  0  0  0  0  0  0  0  0
  142.3840   77.8630  219.1640 C   0  0  0  0  0  0  0  0  0  0  0  0
  143.0350   76.5760  218.7250 C   0  0  0  0  0  0  0  0  0  0  0  0
  142.2370   75.5050  219.3710 C   0  0  1  0  0  0  0  0  0  0  0  0
  143.0220   74.3020  219.7040 C   0  0  0  0  0  0  0  0  0  0  0  0
  142.6240   73.0340  219.3010 C   0  0  0  0  0  0  0  0  0  0  0  0
  143.3430   71.8970  219.6020 C   0  0  0  0  0  0  0  0  0  0  0  0
  144.5040   71.9700  220.3260 C   0  0  0  0  0  0  0  0  0  0  0  0
  144.9290   73.2130  220.7420 C   0  0  0  0  0  0  0  0  0  0  0  0
  146.3950   73.3920  221.6680 Cl  0  0  0  0  0  0  0  0  0  0  0  0
  144.2070   74.3490  220.4400 C   0  0  0  0  0  0  0  0  0  0  0  0
  140.1840   71.2800  223.6550 C   0  0  0  0  0  0  0  0  0  0  0  0
  139.5830   70.0290  223.6800 C   0  0  0  0  0  0  0  0  0  0  0  0
  139.4630   69.3100  224.8460 C   0  0  0  0  0  0  0  0  0  0  0  0
  139.9520   69.8520  226.0030 C   0  0  0  0  0  0  0  0  0  0  0  0
  139.8450   69.1560  227.1840 C   0  0  0  0  0  0  0  0  0  0  0  0
  140.3390   69.7130  228.3300 C   0  0  0  0  0  0  0  0  0  0  0  0
  140.9440   70.9550  228.3440 C   0  0  0  0  0  0  0  0  0  0  0  0
  141.0470   71.6450  227.1650 C   0  0  0  0  0  0  0  0  0  0  0  0
  140.5510   71.0960  225.9860 C   0  0  0  0  0  0  0  0  0  0  0  0
  140.6570   71.7850  224.8210 N   0  0  0  0  0  0  0  0  0  0  0  0
  139.5790   73.8770  223.1790 H   0  0  0  0  0  0  0  0  0  0  0  0
  140.6605   73.5547  220.3587 H   0  0  0  0  0  0  0  0  0  0  0  0
  139.0139   74.2343  220.6394 H   0  0  0  0  0  0  0  0  0  0  0  0
  140.9100   78.1127  220.7665 H   0  0  0  0  0  0  0  0  0  0  0  0
  142.5052   77.7718  221.3815 H   0  0  0  0  0  0  0  0  0  0  0  0
  141.5782   78.1504  218.4726 H   0  0  0  0  0  0  0  0  0  0  0  0
  143.0848   78.7108  219.1795 H   0  0  0  0  0  0  0  0  0  0  0  0
  142.9994   76.4781  217.6299 H   0  0  0  0  0  0  0  0  0  0  0  0
  144.0965   76.5306  219.0099 H   0  0  0  0  0  0  0  0  0  0  0  0
  141.5074   75.0844  218.6633 H   0  0  0  0  0  0  0  0  0  0  0  0
  141.6969   72.9328  218.7176 H   0  0  0  0  0  0  0  0  0  0  0  0
  142.9798   70.9179  219.2563 H   0  0  0  0  0  0  0  0  0  0  0  0
  145.0792   71.0641  220.5677 H   0  0  0  0  0  0  0  0  0  0  0  0
  144.5772   75.3237  220.7907 H   0  0  0  0  0  0  0  0  0  0  0  0
  139.1931   69.6023  222.7441 H   0  0  0  0  0  0  0  0  0  0  0  0
  138.9839   68.3198  224.8484 H   0  0  0  0  0  0  0  0  0  0  0  0
  139.3685   68.1648  227.2061 H   0  0  0  0  0  0  0  0  0  0  0  0
  140.2520   69.1536  229.2731 H   0  0  0  0  0  0  0  0  0  0  0  0
  141.3341   71.3802  229.2805 H   0  0  0  0  0  0  0  0  0  0  0  0
  141.5234   72.6364  227.1500 H   0  0  0  0  0  0  0  0  0  0  0  0
  1  2  2  0
  2  3  1  0
  3  4  1  0
  4  5  1  0
  5  6  2  0
  5  7  1  0
  7  8  1  0
  8  9  1  0
  9 10  1  0
 10 11  1  0
 11 12  1  0
 12 13  2  0
 13 14  1  0
 14 15  2  0
 15 16  1  0
 16 17  1  0
 16 18  2  0
  2 19  1  0
 19 20  2  0
 20 21  1  0
 21 22  2  0
 22 23  1  0
 23 24  2  0
 24 25  1  0
 25 26  2  0
 26 27  1  0
 27 28  2  0
 11  7  1  0
 18 12  1  0
 28 19  1  0
 27 22  1  0
  3 29  1  0
  4 30  1  0
  4 31  1  0
  8 32  1  0
  8 33  1  0
  9 34  1  0
  9 35  1  0
 10 36  1  0
 10 37  1  0
 11 38  1  6
 13 39  1  0
 14 40  1  0
 15 41  1  0
 18 42  1  0
 20 43  1  0
 21 44  1  0
 23 45  1  0
 24 46  1  0
 25 47  1  0
 26 48  1  0
M  END
>  <smiles>  (54) 
O=C(NCC(=O)N1CCCC1c1cccc(Cl)c1)c1ccc2ccccc2n1

>  <score_type>  (54) 
oracle

>  <origin>  (54) 
autodockgpu

>  <m_score__min__energy>  (54) 
-9.1600000000000001

>  <m_primary>  (54) 
energy

>  <rmsd>  (54) 
2.2691896030710126

>  <m_score__min__rmsd>  (54) 
2.2691896030710126

>  <meeko>  (54) 
{"free_energy": -9.16, "intermolecular_energy": -10.65, "internal_energy": -2.01, "cluster_size": 33, "cluster_id": 1, "rank_in_cluster": 3}

>  <energy>  (54) 
-9.16

>  <cluster_rmsd>  (54) 
0.05

>  <cluster>  (54) 
1

$$$$

     RDKit          3D

 48 51  0  0  0  0  0  0  0  0999 V2000
  140.8820   71.5810  221.3840 O   0  0  0  0  0  0  0  0  0  0  0  0
  140.3530   72.1090  222.3920 C   0  0  0  0  0  0  0  0  0  0  0  0
  139.8810   73.4390  222.2990 N   0  0  0  0  0  0  0  0  0  0  0  0
  140.0050   74.1960  221.0440 C   0  0  0  0  0  0  0  0  0  0  0  0
  140.7340   75.4660  221.2760 C   0  0  0  0  0  0  0  0  0  0  0  0
  140.5700   76.0340  222.3970 O   0  0  0  0  0  0  0  0  0  0  0  0
  141.5900   76.0780  220.3410 N   0  0  0  0  0  0  0  0  0  0  0  0
  141.8890   77.5250  220.4100 C   0  0  0  0  0  0  0  0  0  0  0  0
  142.3720   77.8170  218.9790 C   0  0  0  0  0  0  0  0  0  0  0  0
  143.0040   76.5200  218.5430 C   0  0  0  0  0  0  0  0  0  0  0  0
  142.2500   75.4650  219.2650 C   0  0  1  0  0  0  0  0  0  0  0  0
  143.0590   74.2760  219.5890 C   0  0  0  0  0  0  0  0  0  0  0  0
  142.7190   73.0120  219.1260 C   0  0  0  0  0  0  0  0  0  0  0  0
  143.4620   71.8870  219.4170 C   0  0  0  0  0  0  0  0  0  0  0  0
  144.5890   71.9700  220.1920 C   0  0  0  0  0  0  0  0  0  0  0  0
  144.9560   73.2100  220.6690 C   0  0  0  0  0  0  0  0  0  0  0  0
  146.3750   73.4010  221.6620 Cl  0  0  0  0  0  0  0  0  0  0  0  0
  144.2100   74.3320  220.3760 C   0  0  0  0  0  0  0  0  0  0  0  0
  140.2210   71.3720  223.6440 C   0  0  0  0  0  0  0  0  0  0  0  0
  139.5840   70.1390  223.6490 C   0  0  0  0  0  0  0  0  0  0  0  0
  139.4370   69.4080  224.8050 C   0  0  0  0  0  0  0  0  0  0  0  0
  139.9340   69.9200  225.9720 C   0  0  0  0  0  0  0  0  0  0  0  0
  139.8010   69.2120  227.1420 C   0  0  0  0  0  0  0  0  0  0  0  0
  140.3040   69.7380  228.2990 C   0  0  0  0  0  0  0  0  0  0  0  0
  140.9440   70.9620  228.3330 C   0  0  0  0  0  0  0  0  0  0  0  0
  141.0740   71.6640  227.1640 C   0  0  0  0  0  0  0  0  0  0  0  0
  140.5690   71.1460  225.9750 C   0  0  0  0  0  0  0  0  0  0  0  0
  140.7010   71.8470  224.8200 N   0  0  0  0  0  0  0  0  0  0  0  0
  139.4320   73.9110  223.1260 H   0  0  0  0  0  0  0  0  0  0  0  0
  140.5559   73.5910  220.3088 H   0  0  0  0  0  0  0  0  0  0  0  0
  138.9982   74.4266  220.6656 H   0  0  0  0  0  0  0  0  0  0  0  0
  140.9893   78.1083  220.6556 H   0  0  0  0  0  0  0  0  0  0  0  0
  142.6186   77.7917  221.1888 H   0  0  0  0  0  0  0  0  0  0  0  0
  141.5269   78.0805  218.3260 H   0  0  0  0  0  0  0  0  0  0  0  0
  143.0675   78.6677  218.9293 H   0  0  0  0  0  0  0  0  0  0  0  0
  142.9071   76.3890  217.4551 H   0  0  0  0  0  0  0  0  0  0  0  0
  144.0800   76.4876  218.7690 H   0  0  0  0  0  0  0  0  0  0  0  0
  141.4846   75.0198  218.6123 H   0  0  0  0  0  0  0  0  0  0  0  0
  141.8201   72.9033  218.5014 H   0  0  0  0  0  0  0  0  0  0  0  0
  143.1457   70.9104  219.0218 H   0  0  0  0  0  0  0  0  0  0  0  0
  145.1828   71.0742  220.4263 H   0  0  0  0  0  0  0  0  0  0  0  0
  144.5332   75.3043  220.7762 H   0  0  0  0  0  0  0  0  0  0  0  0
  139.1869   69.7364  222.7055 H   0  0  0  0  0  0  0  0  0  0  0  0
  138.9302   68.4318  224.7912 H   0  0  0  0  0  0  0  0  0  0  0  0
  139.2963   68.2346  227.1475 H   0  0  0  0  0  0  0  0  0  0  0  0
  140.1957   69.1682  229.2336 H   0  0  0  0  0  0  0  0  0  0  0  0
  141.3401   71.3636  229.2773 H   0  0  0  0  0  0  0  0  0  0  0  0
  141.5795   72.6410  227.1650 H   0  0  0  0  0  0  0  0  0  0  0  0
  1  2  2  0
  2  3  1  0
  3  4  1  0
  4  5  1  0
  5  6  2  0
  5  7  1  0
  7  8  1  0
  8  9  1  0
  9 10  1  0
 10 11  1  0
 11 12  1  0
 12 13  2  0
 13 14  1  0
 14 15  2  0
 15 16  1  0
 16 17  1  0
 16 18  2  0
  2 19  1  0
 19 20  2  0
 20 21  1  0
 21 22  2  0
 22 23  1  0
 23 24  2  0
 24 25  1  0
 25 26  2  0
 26 27  1  0
 27 28  2  0
 11  7  1  0
 18 12  1  0
 28 19  1  0
 27 22  1  0
  3 29  1  0
  4 30  1  0
  4 31  1  0
  8 32  1  0
  8 33  1  0
  9 34  1  0
  9 35  1  0
 10 36  1  0
 10 37  1  0
 11 38  1  6
 13 39  1  0
 14 40  1  0
 15 41  1  0
 18 42  1  0
 20 43  1  0
 21 44  1  0
 23 45  1  0
 24 46  1  0
 25 47  1  0
 26 48  1  0
M  END
>  <smiles>  (55) 
O=C(NCC(=O)N1CCCC1c1cccc(Cl)c1)c1ccc2ccccc2n1

>  <score_type>  (55) 
oracle

>  <origin>  (55) 
autodockgpu

>  <m_score__min__energy>  (55) 
-9.1600000000000001

>  <m_primary>  (55) 
energy

>  <rmsd>  (55) 
2.2725321716169185

>  <m_score__min__rmsd>  (55) 
2.2725321716169185

>  <meeko>  (55) 
{"free_energy": -9.16, "intermolecular_energy": -10.65, "internal_energy": -1.95, "cluster_size": 33, "cluster_id": 1, "rank_in_cluster": 2}

>  <energy>  (55) 
-9.15

>  <cluster_rmsd>  (55) 
0.05

>  <cluster>  (55) 
1

$$$$

     RDKit          3D

 48 51  0  0  0  0  0  0  0  0999 V2000
  137.2790   75.7150  222.3160 O   0  0  0  0  0  0  0  0  0  0  0  0
  138.5170   75.9050  222.3900 C   0  0  0  0  0  0  0  0  0  0  0  0
  139.3890   74.8050  222.2170 N   0  0  0  0  0  0  0  0  0  0  0  0
  138.8600   73.4580  221.9550 C   0  0  0  0  0  0  0  0  0  0  0  0
  139.8270   72.4260  222.4000 C   0  0  0  0  0  0  0  0  0  0  0  0
  140.9930   72.8160  222.7070 O   0  0  0  0  0  0  0  0  0  0  0  0
  139.5380   71.0520  222.5040 N   0  0  0  0  0  0  0  0  0  0  0  0
  139.7750   70.1330  221.3690 C   0  0  0  0  0  0  0  0  0  0  0  0
  138.8640   68.9470  221.7280 C   0  0  0  0  0  0  0  0  0  0  0  0
  138.8480   68.9510  223.2350 C   0  0  0  0  0  0  0  0  0  0  0  0
  139.0130   70.3760  223.6150 C   0  0  1  0  0  0  0  0  0  0  0  0
  139.7250   70.5690  224.8910 C   0  0  0  0  0  0  0  0  0  0  0  0
  140.3990   71.7490  225.1810 C   0  0  0  0  0  0  0  0  0  0  0  0
  141.0710   71.9500  226.3680 C   0  0  0  0  0  0  0  0  0  0  0  0
  141.1060   70.9750  227.3310 C   0  0  0  0  0  0  0  0  0  0  0  0
  140.4480   69.7920  227.0760 C   0  0  0  0  0  0  0  0  0  0  0  0
  140.4440   68.5020  228.2490 Cl  0  0  0  0  0  0  0  0  0  0  0  0
  139.7760   69.5940  225.8880 C   0  0  0  0  0  0  0  0  0  0  0  0
  139.0590   77.2340  222.6480 C   0  0  0  0  0  0  0  0  0  0  0  0
  138.1970   78.3170  222.7530 C   0  0  0  0  0  0  0  0  0  0  0  0
  138.6610   79.5880  222.9960 C   0  0  0  0  0  0  0  0  0  0  0  0
  140.0090   79.7770  223.1360 C   0  0  0  0  0  0  0  0  0  0  0  0
  140.5020   81.0370  223.3800 C   0  0  0  0  0  0  0  0  0  0  0  0
  141.8510   81.2080  223.5170 C   0  0  0  0  0  0  0  0  0  0  0  0
  142.7400   80.1540  223.4190 C   0  0  0  0  0  0  0  0  0  0  0  0
  142.2440   78.9010  223.1760 C   0  0  0  0  0  0  0  0  0  0  0  0
  140.8730   78.7050  223.0330 C   0  0  0  0  0  0  0  0  0  0  0  0
  140.3880   77.4600  222.7930 N   0  0  0  0  0  0  0  0  0  0  0  0
  140.4330   74.9300  222.2730 H   0  0  0  0  0  0  0  0  0  0  0  0
  137.9142   73.3277  222.5013 H   0  0  0  0  0  0  0  0  0  0  0  0
  138.6913   73.3456  220.8738 H   0  0  0  0  0  0  0  0  0  0  0  0
  139.4781   70.5912  220.4141 H   0  0  0  0  0  0  0  0  0  0  0  0
  140.8311   69.8576  221.2322 H   0  0  0  0  0  0  0  0  0  0  0  0
  137.8513   69.0944  221.3247 H   0  0  0  0  0  0  0  0  0  0  0  0
  139.2197   67.9944  221.3083 H   0  0  0  0  0  0  0  0  0  0  0  0
  137.8927   68.5578  223.6129 H   0  0  0  0  0  0  0  0  0  0  0  0
  139.6391   68.3151  223.6591 H   0  0  0  0  0  0  0  0  0  0  0  0
  138.0394   70.8291  223.8531 H   0  0  0  0  0  0  0  0  0  0  0  0
  140.3963   72.5556  224.4331 H   0  0  0  0  0  0  0  0  0  0  0  0
  141.5861   72.9058  226.5447 H   0  0  0  0  0  0  0  0  0  0  0  0
  141.6429   71.1325  228.2781 H   0  0  0  0  0  0  0  0  0  0  0  0
  139.2631   68.6354  225.7208 H   0  0  0  0  0  0  0  0  0  0  0  0
  137.1152   78.1540  222.6389 H   0  0  0  0  0  0  0  0  0  0  0  0
  137.9636   80.4349  223.0762 H   0  0  0  0  0  0  0  0  0  0  0  0
  139.8199   81.8959  223.4638 H   0  0  0  0  0  0  0  0  0  0  0  0
  142.2422   82.2175  223.7116 H   0  0  0  0  0  0  0  0  0  0  0  0
  143.8216   80.3181  223.5337 H   0  0  0  0  0  0  0  0  0  0  0  0
  142.9313   78.0461  223.0934 H   0  0  0  0  0  0  0  0  0  0  0  0
  1  2  2  0
  2  3  1  0
  3  4  1  0
  4  5  1  0
  5  6  2  0
  5  7  1  0
  7  8  1  0
  8  9  1  0
  9 10  1  0
 10 11  1  0
 11 12  1  0
 12 13  2  0
 13 14  1  0
 14 15  2  0
 15 16  1  0
 16 17  1  0
 16 18  2  0
  2 19  1  0
 19 20  2  0
 20 21  1  0
 21 22  2  0
 22 23  1  0
 23 24  2  0
 24 25  1  0
 25 26  2  0
 26 27  1  0
 27 28  2  0
 11  7  1  0
 18 12  1  0
 28 19  1  0
 27 22  1  0
  3 29  1  0
  4 30  1  0
  4 31  1  0
  8 32  1  0
  8 33  1  0
  9 34  1  0
  9 35  1  0
 10 36  1  0
 10 37  1  0
 11 38  1  1
 13 39  1  0
 14 40  1  0
 15 41  1  0
 18 42  1  0
 20 43  1  0
 21 44  1  0
 23 45  1  0
 24 46  1  0
 25 47  1  0
 26 48  1  0
M  END
>  <smiles>  (56) 
O=C(NCC(=O)N1CCCC1c1cccc(Cl)c1)c1ccc2ccccc2n1

>  <score_type>  (56) 
oracle

>  <origin>  (56) 
autodockgpu

>  <m_score__min__energy>  (56) 
-9.1600000000000001

>  <m_primary>  (56) 
energy

>  <rmsd>  (56) 
8.334213942706333

>  <m_score__min__rmsd>  (56) 
8.334213942706333

>  <meeko>  (56) 
{"free_energy": -8.63, "intermolecular_energy": -10.12, "internal_energy": -1.71, "cluster_size": 4, "cluster_id": 3, "rank_in_cluster": 3}

>  <energy>  (56) 
-9.14

>  <cluster_rmsd>  (56) 
0.07

>  <cluster>  (56) 
1

$$$$

     RDKit          3D

 48 51  0  0  0  0  0  0  0  0999 V2000
  140.8450   71.5210  221.3690 O   0  0  0  0  0  0  0  0  0  0  0  0
  140.3670   72.0730  222.3910 C   0  0  0  0  0  0  0  0  0  0  0  0
  139.9620   73.4250  222.3100 N   0  0  0  0  0  0  0  0  0  0  0  0
  140.0950   74.1780  221.0530 C   0  0  0  0  0  0  0  0  0  0  0  0
  140.8430   75.4380  221.2820 C   0  0  0  0  0  0  0  0  0  0  0  0
  140.7260   75.9860  222.4180 O   0  0  0  0  0  0  0  0  0  0  0  0
  141.6680   76.0600  220.3260 N   0  0  0  0  0  0  0  0  0  0  0  0
  141.9530   77.5100  220.3890 C   0  0  0  0  0  0  0  0  0  0  0  0
  142.3970   77.8090  218.9480 C   0  0  0  0  0  0  0  0  0  0  0  0
  143.0320   76.5200  218.4940 C   0  0  0  0  0  0  0  0  0  0  0  0
  142.3070   75.4560  219.2320 C   0  0  1  0  0  0  0  0  0  0  0  0
  143.1370   74.2760  219.5340 C   0  0  0  0  0  0  0  0  0  0  0  0
  142.8570   73.0280  218.9920 C   0  0  0  0  0  0  0  0  0  0  0  0
  143.6210   71.9110  219.2610 C   0  0  0  0  0  0  0  0  0  0  0  0
  144.7090   71.9860  220.0920 C   0  0  0  0  0  0  0  0  0  0  0  0
  145.0150   73.2090  220.6470 C   0  0  0  0  0  0  0  0  0  0  0  0
  146.3820   73.3890  221.7130 Cl  0  0  0  0  0  0  0  0  0  0  0  0
  144.2490   74.3240  220.3750 C   0  0  0  0  0  0  0  0  0  0  0  0
  140.2280   71.3410  223.6440 C   0  0  0  0  0  0  0  0  0  0  0  0
  139.5890   70.1090  223.6500 C   0  0  0  0  0  0  0  0  0  0  0  0
  139.4340   69.3820  224.8080 C   0  0  0  0  0  0  0  0  0  0  0  0
  139.9270   69.8980  225.9760 C   0  0  0  0  0  0  0  0  0  0  0  0
  139.7860   69.1940  227.1480 C   0  0  0  0  0  0  0  0  0  0  0  0
  140.2840   69.7230  228.3050 C   0  0  0  0  0  0  0  0  0  0  0  0
  140.9260   70.9470  228.3380 C   0  0  0  0  0  0  0  0  0  0  0  0
  141.0630   71.6450  227.1670 C   0  0  0  0  0  0  0  0  0  0  0  0
  140.5630   71.1230  225.9770 C   0  0  0  0  0  0  0  0  0  0  0  0
  140.7030   71.8200  224.8210 N   0  0  0  0  0  0  0  0  0  0  0  0
  139.5570   73.9180  223.1480 H   0  0  0  0  0  0  0  0  0  0  0  0
  140.6359   73.5638  220.3180 H   0  0  0  0  0  0  0  0  0  0  0  0
  139.0911   74.4225  220.6755 H   0  0  0  0  0  0  0  0  0  0  0  0
  141.0534   78.0832  220.6575 H   0  0  0  0  0  0  0  0  0  0  0  0
  142.6990   77.7836  221.1497 H   0  0  0  0  0  0  0  0  0  0  0  0
  141.5332   78.0642  218.3166 H   0  0  0  0  0  0  0  0  0  0  0  0
  143.0820   78.6672  218.8828 H   0  0  0  0  0  0  0  0  0  0  0  0
  142.9101   76.3899  217.4086 H   0  0  0  0  0  0  0  0  0  0  0  0
  144.1136   76.4987  218.6934 H   0  0  0  0  0  0  0  0  0  0  0  0
  141.5302   75.0044  218.5975 H   0  0  0  0  0  0  0  0  0  0  0  0
  141.9912   72.9261  218.3212 H   0  0  0  0  0  0  0  0  0  0  0  0
  143.3537   70.9475  218.8026 H   0  0  0  0  0  0  0  0  0  0  0  0
  145.3189   71.0966  220.3089 H   0  0  0  0  0  0  0  0  0  0  0  0
  144.5246   75.2835  220.8371 H   0  0  0  0  0  0  0  0  0  0  0  0
  139.1967   69.7036  222.7056 H   0  0  0  0  0  0  0  0  0  0  0  0
  138.9248   68.4070  224.7953 H   0  0  0  0  0  0  0  0  0  0  0  0
  139.2790   68.2178  227.1543 H   0  0  0  0  0  0  0  0  0  0  0  0
  140.1704   69.1565  229.2410 H   0  0  0  0  0  0  0  0  0  0  0  0
  141.3179   71.3513  229.2830 H   0  0  0  0  0  0  0  0  0  0  0  0
  141.5698   72.6213  227.1670 H   0  0  0  0  0  0  0  0  0  0  0  0
  1  2  2  0
  2  3  1  0
  3  4  1  0
  4  5  1  0
  5  6  2  0
  5  7  1  0
  7  8  1  0
  8  9  1  0
  9 10  1  0
 10 11  1  0
 11 12  1  0
 12 13  2  0
 13 14  1  0
 14 15  2  0
 15 16  1  0
 16 17  1  0
 16 18  2  0
  2 19  1  0
 19 20  2  0
 20 21  1  0
 21 22  2  0
 22 23  1  0
 23 24  2  0
 24 25  1  0
 25 26  2  0
 26 27  1  0
 27 28  2  0
 11  7  1  0
 18 12  1  0
 28 19  1  0
 27 22  1  0
  3 29  1  0
  4 30  1  0
  4 31  1  0
  8 32  1  0
  8 33  1  0
  9 34  1  0
  9 35  1  0
 10 36  1  0
 10 37  1  0
 11 38  1  6
 13 39  1  0
 14 40  1  0
 15 41  1  0
 18 42  1  0
 20 43  1  0
 21 44  1  0
 23 45  1  0
 24 46  1  0
 25 47  1  0
 26 48  1  0
M  END
>  <smiles>  (57) 
O=C(NCC(=O)N1CCCC1c1cccc(Cl)c1)c1ccc2ccccc2n1

>  <score_type>  (57) 
oracle

>  <origin>  (57) 
autodockgpu

>  <m_score__min__energy>  (57) 
-9.1600000000000001

>  <m_primary>  (57) 
energy

>  <rmsd>  (57) 
2.2894262357750277

>  <m_score__min__rmsd>  (57) 
2.2894262357750277

>  <meeko>  (57) 
{"free_energy": -9.12, "intermolecular_energy": -10.61, "internal_energy": -1.96, "cluster_size": 33, "cluster_id": 1, "rank_in_cluster": 9}

>  <energy>  (57) 
-9.14

>  <cluster_rmsd>  (57) 
0.06

>  <cluster>  (57) 
1

$$$$

     RDKit          3D

 48 51  0  0  0  0  0  0  0  0999 V2000
  141.2510   74.1350  220.8920 O   0  0  0  0  0  0  0  0  0  0  0  0
  140.3730   74.4150  221.7440 C   0  0  0  0  0  0  0  0  0  0  0  0
  139.6530   73.3620  222.3540 N   0  0  0  0  0  0  0  0  0  0  0  0
  139.9230   71.9600  222.0010 C   0  0  0  0  0  0  0  0  0  0  0  0
  138.9790   71.0580  222.7020 C   0  0  0  0  0  0  0  0  0  0  0  0
  138.0910   71.5970  223.4290 O   0  0  0  0  0  0  0  0  0  0  0  0
  139.0030   69.6530  222.6160 N   0  0  0  0  0  0  0  0  0  0  0  0
  139.3690   68.9700  221.3560 C   0  0  0  0  0  0  0  0  0  0  0  0
  138.7610   67.5730  221.5650 C   0  0  0  0  0  0  0  0  0  0  0  0
  138.8300   67.3720  223.0570 C   0  0  0  0  0  0  0  0  0  0  0  0
  138.7020   68.7340  223.6330 C   0  0  1  0  0  0  0  0  0  0  0  0
  139.4280   68.9090  224.9040 C   0  0  0  0  0  0  0  0  0  0  0  0
  139.6980   67.8370  225.7450 C   0  0  0  0  0  0  0  0  0  0  0  0
  140.3760   67.9790  226.9370 C   0  0  0  0  0  0  0  0  0  0  0  0
  140.8190   69.2080  227.3530 C   0  0  0  0  0  0  0  0  0  0  0  0
  140.5680   70.2930  226.5430 C   0  0  0  0  0  0  0  0  0  0  0  0
  141.0990   71.8900  226.9990 Cl  0  0  0  0  0  0  0  0  0  0  0  0
  139.8900   70.1470  225.3500 C   0  0  0  0  0  0  0  0  0  0  0  0
  140.0930   75.7990  222.1080 C   0  0  0  0  0  0  0  0  0  0  0  0
  138.7810   76.2520  222.1200 C   0  0  0  0  0  0  0  0  0  0  0  0
  138.4680   77.5480  222.4570 C   0  0  0  0  0  0  0  0  0  0  0  0
  139.4850   78.4030  222.7840 C   0  0  0  0  0  0  0  0  0  0  0  0
  139.2020   79.7050  223.1240 C   0  0  0  0  0  0  0  0  0  0  0  0
  140.2300   80.5450  223.4490 C   0  0  0  0  0  0  0  0  0  0  0  0
  141.5480   80.1300  223.4480 C   0  0  0  0  0  0  0  0  0  0  0  0
  141.8250   78.8320  223.1080 C   0  0  0  0  0  0  0  0  0  0  0  0
  140.7930   77.9600  222.7740 C   0  0  0  0  0  0  0  0  0  0  0  0
  141.0740   76.6750  222.4390 N   0  0  0  0  0  0  0  0  0  0  0  0
  138.9100   73.5620  223.0730 H   0  0  0  0  0  0  0  0  0  0  0  0
  139.8077   71.8314  220.9147 H   0  0  0  0  0  0  0  0  0  0  0  0
  140.9494   71.7075  222.3055 H   0  0  0  0  0  0  0  0  0  0  0  0
  138.9251   69.4733  220.4844 H   0  0  0  0  0  0  0  0  0  0  0  0
  140.4503   68.9588  221.1541 H   0  0  0  0  0  0  0  0  0  0  0  0
  137.7193   67.5420  221.2129 H   0  0  0  0  0  0  0  0  0  0  0  0
  139.2918   66.7893  221.0046 H   0  0  0  0  0  0  0  0  0  0  0  0
  138.0063   66.7283  223.3992 H   0  0  0  0  0  0  0  0  0  0  0  0
  139.7635   66.8784  223.3653 H   0  0  0  0  0  0  0  0  0  0  0  0
  137.6685   68.9217  223.9594 H   0  0  0  0  0  0  0  0  0  0  0  0
  139.3571   66.8342  225.4479 H   0  0  0  0  0  0  0  0  0  0  0  0
  140.5641   67.0942  227.5628 H   0  0  0  0  0  0  0  0  0  0  0  0
  141.3584   69.3238  228.3046 H   0  0  0  0  0  0  0  0  0  0  0  0
  139.7078   71.0371  224.7299 H   0  0  0  0  0  0  0  0  0  0  0  0
  137.9713   75.5569  221.8532 H   0  0  0  0  0  0  0  0  0  0  0  0
  137.4225   77.8899  222.4635 H   0  0  0  0  0  0  0  0  0  0  0  0
  138.1628   80.0654  223.1342 H   0  0  0  0  0  0  0  0  0  0  0  0
  140.0005   81.5860  223.7204 H   0  0  0  0  0  0  0  0  0  0  0  0
  142.3569   80.8263  223.7143 H   0  0  0  0  0  0  0  0  0  0  0  0
  142.8664   78.4779  223.0990 H   0  0  0  0  0  0  0  0  0  0  0  0
  1  2  2  0
  2  3  1  0
  3  4  1  0
  4  5  1  0
  5  6  2  0
  5  7  1  0
  7  8  1  0
  8  9  1  0
  9 10  1  0
 10 11  1  0
 11 12  1  0
 12 13  2  0
 13 14  1  0
 14 15  2  0
 15 16  1  0
 16 17  1  0
 16 18  2  0
  2 19  1  0
 19 20  2  0
 20 21  1  0
 21 22  2  0
 22 23  1  0
 23 24  2  0
 24 25  1  0
 25 26  2  0
 26 27  1  0
 27 28  2  0
 11  7  1  0
 18 12  1  0
 28 19  1  0
 27 22  1  0
  3 29  1  0
  4 30  1  0
  4 31  1  0
  8 32  1  0
  8 33  1  0
  9 34  1  0
  9 35  1  0
 10 36  1  0
 10 37  1  0
 11 38  1  1
 13 39  1  0
 14 40  1  0
 15 41  1  0
 18 42  1  0
 20 43  1  0
 21 44  1  0
 23 45  1  0
 24 46  1  0
 25 47  1  0
 26 48  1  0
M  END
>  <smiles>  (58) 
O=C(NCC(=O)N1CCCC1c1cccc(Cl)c1)c1ccc2ccccc2n1

>  <score_type>  (58) 
oracle

>  <origin>  (58) 
autodockgpu

>  <m_score__min__energy>  (58) 
-9.1600000000000001

>  <m_primary>  (58) 
energy

>  <rmsd>  (58) 
8.237776605599345

>  <m_score__min__rmsd>  (58) 
8.237776605599345

>  <meeko>  (58) 
{"free_energy": -8.79, "intermolecular_energy": -10.28, "internal_energy": -1.68, "cluster_size": 4, "cluster_id": 3, "rank_in_cluster": 1}

>  <energy>  (58) 
-9.12

>  <cluster_rmsd>  (58) 
0.23

>  <cluster>  (58) 
1

$$$$

     RDKit          3D

 48 51  0  0  0  0  0  0  0  0999 V2000
  140.7030   71.5230  221.3650 O   0  0  0  0  0  0  0  0  0  0  0  0
  140.2760   72.0760  222.4070 C   0  0  0  0  0  0  0  0  0  0  0  0
  139.8840   73.4330  222.3490 N   0  0  0  0  0  0  0  0  0  0  0  0
  139.9710   74.1890  221.0900 C   0  0  0  0  0  0  0  0  0  0  0  0
  140.6910   75.4680  221.3030 C   0  0  0  0  0  0  0  0  0  0  0  0
  140.5020   76.0650  222.4050 O   0  0  0  0  0  0  0  0  0  0  0  0
  141.5630   76.0580  220.3690 N   0  0  0  0  0  0  0  0  0  0  0  0
  141.8660   77.5050  220.4130 C   0  0  0  0  0  0  0  0  0  0  0  0
  142.3720   77.7660  218.9850 C   0  0  0  0  0  0  0  0  0  0  0  0
  143.0080   76.4580  218.5860 C   0  0  0  0  0  0  0  0  0  0  0  0
  142.2390   75.4210  219.3170 C   0  0  1  0  0  0  0  0  0  0  0  0
  143.0390   74.2370  219.6790 C   0  0  0  0  0  0  0  0  0  0  0  0
  142.6700   72.9570  219.2850 C   0  0  0  0  0  0  0  0  0  0  0  0
  143.4040   71.8360  219.6130 C   0  0  0  0  0  0  0  0  0  0  0  0
  144.5510   71.9400  220.3560 C   0  0  0  0  0  0  0  0  0  0  0  0
  144.9470   73.1950  220.7630 C   0  0  0  0  0  0  0  0  0  0  0  0
  146.3930   73.4110  221.7110 Cl  0  0  0  0  0  0  0  0  0  0  0  0
  144.2100   74.3130  220.4340 C   0  0  0  0  0  0  0  0  0  0  0  0
  140.1830   71.3410  223.6630 C   0  0  0  0  0  0  0  0  0  0  0  0
  139.5900   70.0860  223.6800 C   0  0  0  0  0  0  0  0  0  0  0  0
  139.4790   69.3560  224.8400 C   0  0  0  0  0  0  0  0  0  0  0  0
  139.9700   69.8910  226.0000 C   0  0  0  0  0  0  0  0  0  0  0  0
  139.8730   69.1830  227.1750 C   0  0  0  0  0  0  0  0  0  0  0  0
  140.3690   69.7320  228.3240 C   0  0  0  0  0  0  0  0  0  0  0  0
  140.9660   70.9780  228.3460 C   0  0  0  0  0  0  0  0  0  0  0  0
  141.0600   71.6790  227.1730 C   0  0  0  0  0  0  0  0  0  0  0  0
  140.5610   71.1380  225.9910 C   0  0  0  0  0  0  0  0  0  0  0  0
  140.6580   71.8380  224.8320 N   0  0  0  0  0  0  0  0  0  0  0  0
  139.5210   73.9270  223.2050 H   0  0  0  0  0  0  0  0  0  0  0  0
  140.5118   73.5887  220.3435 H   0  0  0  0  0  0  0  0  0  0  0  0
  138.9533   74.4077  220.7343 H   0  0  0  0  0  0  0  0  0  0  0  0
  140.9646   78.0961  220.6325 H   0  0  0  0  0  0  0  0  0  0  0  0
  142.5844   77.7853  221.1975 H   0  0  0  0  0  0  0  0  0  0  0  0
  141.5380   78.0176  218.3133 H   0  0  0  0  0  0  0  0  0  0  0  0
  143.0703   78.6141  218.9287 H   0  0  0  0  0  0  0  0  0  0  0  0
  142.9288   76.3046  217.4996 H   0  0  0  0  0  0  0  0  0  0  0  0
  144.0802   76.4274  218.8300 H   0  0  0  0  0  0  0  0  0  0  0  0
  141.4829   74.9647  218.6612 H   0  0  0  0  0  0  0  0  0  0  0  0
  141.7552   72.8322  218.6871 H   0  0  0  0  0  0  0  0  0  0  0  0
  143.0645   70.8462  219.2740 H   0  0  0  0  0  0  0  0  0  0  0  0
  145.1379   71.0478  220.6195 H   0  0  0  0  0  0  0  0  0  0  0  0
  144.5570   75.2984  220.7785 H   0  0  0  0  0  0  0  0  0  0  0  0
  139.1991   69.6649  222.7420 H   0  0  0  0  0  0  0  0  0  0  0  0
  139.0056   68.3631  224.8357 H   0  0  0  0  0  0  0  0  0  0  0  0
  139.4027   68.1887  227.1898 H   0  0  0  0  0  0  0  0  0  0  0  0
  140.2904   69.1633  229.2623 H   0  0  0  0  0  0  0  0  0  0  0  0
  141.3571   71.3976  229.2846 H   0  0  0  0  0  0  0  0  0  0  0  0
  141.5313   72.6729  227.1647 H   0  0  0  0  0  0  0  0  0  0  0  0
  1  2  2  0
  2  3  1  0
  3  4  1  0
  4  5  1  0
  5  6  2  0
  5  7  1  0
  7  8  1  0
  8  9  1  0
  9 10  1  0
 10 11  1  0
 11 12  1  0
 12 13  2  0
 13 14  1  0
 14 15  2  0
 15 16  1  0
 16 17  1  0
 16 18  2  0
  2 19  1  0
 19 20  2  0
 20 21  1  0
 21 22  2  0
 22 23  1  0
 23 24  2  0
 24 25  1  0
 25 26  2  0
 26 27  1  0
 27 28  2  0
 11  7  1  0
 18 12  1  0
 28 19  1  0
 27 22  1  0
  3 29  1  0
  4 30  1  0
  4 31  1  0
  8 32  1  0
  8 33  1  0
  9 34  1  0
  9 35  1  0
 10 36  1  0
 10 37  1  0
 11 38  1  6
 13 39  1  0
 14 40  1  0
 15 41  1  0
 18 42  1  0
 20 43  1  0
 21 44  1  0
 23 45  1  0
 24 46  1  0
 25 47  1  0
 26 48  1  0
M  END
>  <smiles>  (59) 
O=C(NCC(=O)N1CCCC1c1cccc(Cl)c1)c1ccc2ccccc2n1

>  <score_type>  (59) 
oracle

>  <origin>  (59) 
autodockgpu

>  <m_score__min__energy>  (59) 
-9.1600000000000001

>  <m_primary>  (59) 
energy

>  <rmsd>  (59) 
2.2570041514273878

>  <m_score__min__rmsd>  (59) 
2.2570041514273878

>  <meeko>  (59) 
{"free_energy": -9.14, "intermolecular_energy": -10.63, "internal_energy": -2.01, "cluster_size": 33, "cluster_id": 1, "rank_in_cluster": 7}

>  <energy>  (59) 
-9.12

>  <cluster_rmsd>  (59) 
0.21

>  <cluster>  (59) 
1

$$$$

     RDKit          3D

 48 51  0  0  0  0  0  0  0  0999 V2000
  140.8550   71.4430  221.3640 O   0  0  0  0  0  0  0  0  0  0  0  0
  140.3760   72.0170  222.3730 C   0  0  0  0  0  0  0  0  0  0  0  0
  140.0060   73.3780  222.2720 N   0  0  0  0  0  0  0  0  0  0  0  0
  140.1760   74.1140  221.0100 C   0  0  0  0  0  0  0  0  0  0  0  0
  140.7160   75.4700  221.2700 C   0  0  0  0  0  0  0  0  0  0  0  0
  140.4000   76.0210  222.3670 O   0  0  0  0  0  0  0  0  0  0  0  0
  141.5480   76.1810  220.3850 N   0  0  0  0  0  0  0  0  0  0  0  0
  141.6050   77.6590  220.4080 C   0  0  0  0  0  0  0  0  0  0  0  0
  142.1700   77.9770  219.0140 C   0  0  0  0  0  0  0  0  0  0  0  0
  143.0390   76.7860  218.7010 C   0  0  0  0  0  0  0  0  0  0  0  0
  142.3970   75.6480  219.4030 C   0  0  1  0  0  0  0  0  0  0  0  0
  143.3510   74.6190  219.8570 C   0  0  0  0  0  0  0  0  0  0  0  0
  144.5590   74.9550  220.4540 C   0  0  0  0  0  0  0  0  0  0  0  0
  145.4650   74.0090  220.8860 C   0  0  0  0  0  0  0  0  0  0  0  0
  145.2070   72.6710  220.7400 C   0  0  0  0  0  0  0  0  0  0  0  0
  144.0170   72.3010  220.1520 C   0  0  0  0  0  0  0  0  0  0  0  0
  143.6140   70.6200  219.9300 Cl  0  0  0  0  0  0  0  0  0  0  0  0
  143.1140   73.2510  219.7210 C   0  0  0  0  0  0  0  0  0  0  0  0
  140.2010   71.3020  223.6320 C   0  0  0  0  0  0  0  0  0  0  0  0
  139.5500   70.0770  223.6380 C   0  0  0  0  0  0  0  0  0  0  0  0
  139.3620   69.3660  224.8010 C   0  0  0  0  0  0  0  0  0  0  0  0
  139.8320   69.8920  225.9730 C   0  0  0  0  0  0  0  0  0  0  0  0
  139.6570   69.2040  227.1500 C   0  0  0  0  0  0  0  0  0  0  0  0
  140.1330   69.7440  228.3120 C   0  0  0  0  0  0  0  0  0  0  0  0
  140.7860   70.9610  228.3450 C   0  0  0  0  0  0  0  0  0  0  0  0
  140.9570   71.6430  227.1690 C   0  0  0  0  0  0  0  0  0  0  0  0
  140.4800   71.1110  225.9740 C   0  0  0  0  0  0  0  0  0  0  0  0
  140.6530   71.7910  224.8130 N   0  0  0  0  0  0  0  0  0  0  0  0
  139.6020   73.8900  223.0980 H   0  0  0  0  0  0  0  0  0  0  0  0
  140.8739   73.5644  220.3613 H   0  0  0  0  0  0  0  0  0  0  0  0
  139.1967   74.2087  220.5180 H   0  0  0  0  0  0  0  0  0  0  0  0
  140.6045   78.0958  220.5433 H   0  0  0  0  0  0  0  0  0  0  0  0
  142.2052   78.0676  221.2344 H   0  0  0  0  0  0  0  0  0  0  0  0
  141.3605   78.0768  218.2760 H   0  0  0  0  0  0  0  0  0  0  0  0
  142.7226   78.9276  218.9845 H   0  0  0  0  0  0  0  0  0  0  0  0
  143.0695   76.6039  217.6166 H   0  0  0  0  0  0  0  0  0  0  0  0
  144.0795   76.9371  219.0241 H   0  0  0  0  0  0  0  0  0  0  0  0
  141.7785   75.0625  218.7068 H   0  0  0  0  0  0  0  0  0  0  0  0
  144.8033   76.0192  220.5878 H   0  0  0  0  0  0  0  0  0  0  0  0
  146.4066   74.3326  221.3537 H   0  0  0  0  0  0  0  0  0  0  0  0
  145.9287   71.9146  221.0822 H   0  0  0  0  0  0  0  0  0  0  0  0
  142.1751   72.9183  219.2542 H   0  0  0  0  0  0  0  0  0  0  0  0
  139.1750   69.6640  222.6900 H   0  0  0  0  0  0  0  0  0  0  0  0
  138.8448   68.3953  224.7885 H   0  0  0  0  0  0  0  0  0  0  0  0
  139.1411   68.2325  227.1567 H   0  0  0  0  0  0  0  0  0  0  0  0
  139.9914   69.1910  229.2523 H   0  0  0  0  0  0  0  0  0  0  0  0
  141.1601   71.3731  229.2938 H   0  0  0  0  0  0  0  0  0  0  0  0
  141.4731   72.6144  227.1690 H   0  0  0  0  0  0  0  0  0  0  0  0
  1  2  2  0
  2  3  1  0
  3  4  1  0
  4  5  1  0
  5  6  2  0
  5  7  1  0
  7  8  1  0
  8  9  1  0
  9 10  1  0
 10 11  1  0
 11 12  1  0
 12 13  2  0
 13 14  1  0
 14 15  2  0
 15 16  1  0
 16 17  1  0
 16 18  2  0
  2 19  1  0
 19 20  2  0
 20 21  1  0
 21 22  2  0
 22 23  1  0
 23 24  2  0
 24 25  1  0
 25 26  2  0
 26 27  1  0
 27 28  2  0
 11  7  1  0
 18 12  1  0
 28 19  1  0
 27 22  1  0
  3 29  1  0
  4 30  1  0
  4 31  1  0
  8 32  1  0
  8 33  1  0
  9 34  1  0
  9 35  1  0
 10 36  1  0
 10 37  1  0
 11 38  1  6
 13 39  1  0
 14 40  1  0
 15 41  1  0
 18 42  1  0
 20 43  1  0
 21 44  1  0
 23 45  1  0
 24 46  1  0
 25 47  1  0
 26 48  1  0
M  END
>  <smiles>  (60) 
O=C(NCC(=O)N1CCCC1c1cccc(Cl)c1)c1ccc2ccccc2n1

>  <score_type>  (60) 
oracle

>  <origin>  (60) 
autodockgpu

>  <m_score__min__energy>  (60) 
-9.1600000000000001

>  <m_primary>  (60) 
energy

>  <rmsd>  (60) 
2.2461591042655176

>  <m_score__min__rmsd>  (60) 
2.2461591042655176

>  <meeko>  (60) 
{"free_energy": -9.02, "intermolecular_energy": -10.51, "internal_energy": -2.07, "cluster_size": 33, "cluster_id": 1, "rank_in_cluster": 23}

>  <energy>  (60) 
-9.12

>  <cluster_rmsd>  (60) 
0.23

>  <cluster>  (60) 
1

$$$$

     RDKit          3D

 48 51  0  0  0  0  0  0  0  0999 V2000
  140.8470   71.3600  221.3840 O   0  0  0  0  0  0  0  0  0  0  0  0
  140.3530   71.9300  222.3870 C   0  0  0  0  0  0  0  0  0  0  0  0
  139.9680   73.2860  222.2820 N   0  0  0  0  0  0  0  0  0  0  0  0
  140.1410   74.0230  221.0200 C   0  0  0  0  0  0  0  0  0  0  0  0
  140.7370   75.3550  221.2770 C   0  0  0  0  0  0  0  0  0  0  0  0
  140.4680   75.9090  222.3840 O   0  0  0  0  0  0  0  0  0  0  0  0
  141.5760   76.0420  220.3780 N   0  0  0  0  0  0  0  0  0  0  0  0
  141.8220   77.4930  220.5170 C   0  0  0  0  0  0  0  0  0  0  0  0
  142.3020   77.8700  219.1060 C   0  0  0  0  0  0  0  0  0  0  0  0
  142.9840   76.6190  218.6140 C   0  0  0  0  0  0  0  0  0  0  0  0
  142.2640   75.5050  219.2790 C   0  0  1  0  0  0  0  0  0  0  0  0
  143.1140   74.3320  219.5530 C   0  0  0  0  0  0  0  0  0  0  0  0
  142.8730   73.1000  218.9580 C   0  0  0  0  0  0  0  0  0  0  0  0
  143.6550   71.9900  219.2000 C   0  0  0  0  0  0  0  0  0  0  0  0
  144.7240   72.0570  220.0550 C   0  0  0  0  0  0  0  0  0  0  0  0
  144.9920   73.2640  220.6630 C   0  0  0  0  0  0  0  0  0  0  0  0
  146.3340   73.4320  221.7630 Cl  0  0  0  0  0  0  0  0  0  0  0  0
  144.2070   74.3710  220.4180 C   0  0  0  0  0  0  0  0  0  0  0  0
  140.1730   71.2140  223.6450 C   0  0  0  0  0  0  0  0  0  0  0  0
  139.4930   70.0040  223.6540 C   0  0  0  0  0  0  0  0  0  0  0  0
  139.3000   69.2940  224.8160 C   0  0  0  0  0  0  0  0  0  0  0  0
  139.7940   69.8040  225.9850 C   0  0  0  0  0  0  0  0  0  0  0  0
  139.6160   69.1160  227.1620 C   0  0  0  0  0  0  0  0  0  0  0  0
  140.1170   69.6390  228.3210 C   0  0  0  0  0  0  0  0  0  0  0  0
  140.7990   70.8400  228.3510 C   0  0  0  0  0  0  0  0  0  0  0  0
  140.9750   71.5220  227.1760 C   0  0  0  0  0  0  0  0  0  0  0  0
  140.4720   71.0070  225.9840 C   0  0  0  0  0  0  0  0  0  0  0  0
  140.6490   71.6870  224.8240 N   0  0  0  0  0  0  0  0  0  0  0  0
  139.5500   73.7940  223.1030 H   0  0  0  0  0  0  0  0  0  0  0  0
  140.8046   73.4513  220.3545 H   0  0  0  0  0  0  0  0  0  0  0  0
  139.1567   74.1577  220.5478 H   0  0  0  0  0  0  0  0  0  0  0  0
  140.9004   78.0313  220.7832 H   0  0  0  0  0  0  0  0  0  0  0  0
  142.5373   77.7483  221.3127 H   0  0  0  0  0  0  0  0  0  0  0  0
  141.4517   78.1332  218.4597 H   0  0  0  0  0  0  0  0  0  0  0  0
  142.9659   78.7470  219.1019 H   0  0  0  0  0  0  0  0  0  0  0  0
  142.8991   76.5365  217.5204 H   0  0  0  0  0  0  0  0  0  0  0  0
  144.0591   76.6146  218.8467 H   0  0  0  0  0  0  0  0  0  0  0  0
  141.5189   75.0646  218.6001 H   0  0  0  0  0  0  0  0  0  0  0  0
  142.0236   73.0059  218.2654 H   0  0  0  0  0  0  0  0  0  0  0  0
  143.4177   71.0391  218.7005 H   0  0  0  0  0  0  0  0  0  0  0  0
  145.3495   71.1734  220.2500 H   0  0  0  0  0  0  0  0  0  0  0  0
  144.4515   75.3175  220.9224 H   0  0  0  0  0  0  0  0  0  0  0  0
  139.0988   69.6031  222.7086 H   0  0  0  0  0  0  0  0  0  0  0  0
  138.7596   68.3359  224.8054 H   0  0  0  0  0  0  0  0  0  0  0  0
  139.0773   68.1570  227.1707 H   0  0  0  0  0  0  0  0  0  0  0  0
  139.9725   69.0856  229.2606 H   0  0  0  0  0  0  0  0  0  0  0  0
  141.1920   71.2398  229.2974 H   0  0  0  0  0  0  0  0  0  0  0  0
  141.5157   72.4800  227.1741 H   0  0  0  0  0  0  0  0  0  0  0  0
  1  2  2  0
  2  3  1  0
  3  4  1  0
  4  5  1  0
  5  6  2  0
  5  7  1  0
  7  8  1  0
  8  9  1  0
  9 10  1  0
 10 11  1  0
 11 12  1  0
 12 13  2  0
 13 14  1  0
 14 15  2  0
 15 16  1  0
 16 17  1  0
 16 18  2  0
  2 19  1  0
 19 20  2  0
 20 21  1  0
 21 22  2  0
 22 23  1  0
 23 24  2  0
 24 25  1  0
 25 26  2  0
 26 27  1  0
 27 28  2  0
 11  7  1  0
 18 12  1  0
 28 19  1  0
 27 22  1  0
  3 29  1  0
  4 30  1  0
  4 31  1  0
  8 32  1  0
  8 33  1  0
  9 34  1  0
  9 35  1  0
 10 36  1  0
 10 37  1  0
 11 38  1  6
 13 39  1  0
 14 40  1  0
 15 41  1  0
 18 42  1  0
 20 43  1  0
 21 44  1  0
 23 45  1  0
 24 46  1  0
 25 47  1  0
 26 48  1  0
M  END
>  <smiles>  (61) 
O=C(NCC(=O)N1CCCC1c1cccc(Cl)c1)c1ccc2ccccc2n1

>  <score_type>  (61) 
oracle

>  <origin>  (61) 
autodockgpu

>  <m_score__min__energy>  (61) 
-9.1600000000000001

>  <m_primary>  (61) 
energy

>  <rmsd>  (61) 
2.2573176673649478

>  <m_score__min__rmsd>  (61) 
2.2573176673649478

>  <meeko>  (61) 
{"free_energy": -9.09, "intermolecular_energy": -10.59, "internal_energy": -1.97, "cluster_size": 33, "cluster_id": 1, "rank_in_cluster": 15}

>  <energy>  (61) 
-9.12

>  <cluster_rmsd>  (61) 
0.06

>  <cluster>  (61) 
1

$$$$

     RDKit          3D

 48 51  0  0  0  0  0  0  0  0999 V2000
  140.9900   74.0830  220.5710 O   0  0  0  0  0  0  0  0  0  0  0  0
  140.3120   74.3780  221.5840 C   0  0  0  0  0  0  0  0  0  0  0  0
  139.7790   73.3360  222.3780 N   0  0  0  0  0  0  0  0  0  0  0  0
  140.0140   71.9270  222.0270 C   0  0  0  0  0  0  0  0  0  0  0  0
  139.1770   71.0380  222.8690 C   0  0  0  0  0  0  0  0  0  0  0  0
  138.4680   71.5850  223.7650 O   0  0  0  0  0  0  0  0  0  0  0  0
  139.1190   69.6380  222.7390 N   0  0  0  0  0  0  0  0  0  0  0  0
  139.4660   68.9720  221.4650 C   0  0  0  0  0  0  0  0  0  0  0  0
  138.7730   67.6080  221.6210 C   0  0  0  0  0  0  0  0  0  0  0  0
  138.8040   67.3590  223.1070 C   0  0  0  0  0  0  0  0  0  0  0  0
  138.7470   68.7080  223.7230 C   0  0  1  0  0  0  0  0  0  0  0  0
  139.4600   68.8020  225.0100 C   0  0  0  0  0  0  0  0  0  0  0  0
  139.8820   67.6700  225.6950 C   0  0  0  0  0  0  0  0  0  0  0  0
  140.5500   67.7350  226.9000 C   0  0  0  0  0  0  0  0  0  0  0  0
  140.8310   68.9430  227.4840 C   0  0  0  0  0  0  0  0  0  0  0  0
  140.4260   70.0860  226.8310 C   0  0  0  0  0  0  0  0  0  0  0  0
  140.7450   71.6610  227.5070 Cl  0  0  0  0  0  0  0  0  0  0  0  0
  139.7580   70.0170  225.6260 C   0  0  0  0  0  0  0  0  0  0  0  0
  140.0700   75.7700  221.9470 C   0  0  0  0  0  0  0  0  0  0  0  0
  138.7850   76.2870  221.8630 C   0  0  0  0  0  0  0  0  0  0  0  0
  138.5090   77.5930  222.1950 C   0  0  0  0  0  0  0  0  0  0  0  0
  139.5370   78.3930  222.6160 C   0  0  0  0  0  0  0  0  0  0  0  0
  139.2910   79.7020  222.9540 C   0  0  0  0  0  0  0  0  0  0  0  0
  140.3280   80.4870  223.3730 C   0  0  0  0  0  0  0  0  0  0  0  0
  141.6210   80.0080  223.4680 C   0  0  0  0  0  0  0  0  0  0  0  0
  141.8610   78.7020  223.1310 C   0  0  0  0  0  0  0  0  0  0  0  0
  140.8180   77.8860  222.7010 C   0  0  0  0  0  0  0  0  0  0  0  0
  141.0630   76.5930  222.3680 N   0  0  0  0  0  0  0  0  0  0  0  0
  139.2060   73.5500  223.2340 H   0  0  0  0  0  0  0  0  0  0  0  0
  139.7587   71.7697  220.9686 H   0  0  0  0  0  0  0  0  0  0  0  0
  141.0738   71.6882  222.1997 H   0  0  0  0  0  0  0  0  0  0  0  0
  139.0682   69.5265  220.6023 H   0  0  0  0  0  0  0  0  0  0  0  0
  140.5481   68.9022  221.2803 H   0  0  0  0  0  0  0  0  0  0  0  0
  137.7376   67.6496  221.2518 H   0  0  0  0  0  0  0  0  0  0  0  0
  139.2661   66.8111  221.0450 H   0  0  0  0  0  0  0  0  0  0  0  0
  137.9377   66.7557  223.4162 H   0  0  0  0  0  0  0  0  0  0  0  0
  139.7012   66.8017  223.4142 H   0  0  0  0  0  0  0  0  0  0  0  0
  137.7209   68.9464  224.0397 H   0  0  0  0  0  0  0  0  0  0  0  0
  139.6751   66.6815  225.2589 H   0  0  0  0  0  0  0  0  0  0  0  0
  140.8613   66.8054  227.3989 H   0  0  0  0  0  0  0  0  0  0  0  0
  141.3637   68.9978  228.4448 H   0  0  0  0  0  0  0  0  0  0  0  0
  139.4501   70.9517  225.1346 H   0  0  0  0  0  0  0  0  0  0  0  0
  137.9664   75.6360  221.5223 H   0  0  0  0  0  0  0  0  0  0  0  0
  137.4841   77.9862  222.1237 H   0  0  0  0  0  0  0  0  0  0  0  0
  138.2726   80.1126  222.8881 H   0  0  0  0  0  0  0  0  0  0  0  0
  140.1272   81.5342  223.6435 H   0  0  0  0  0  0  0  0  0  0  0  0
  142.4390   80.6608  223.8066 H   0  0  0  0  0  0  0  0  0  0  0  0
  142.8812   78.2966  223.2004 H   0  0  0  0  0  0  0  0  0  0  0  0
  1  2  2  0
  2  3  1  0
  3  4  1  0
  4  5  1  0
  5  6  2  0
  5  7  1  0
  7  8  1  0
  8  9  1  0
  9 10  1  0
 10 11  1  0
 11 12  1  0
 12 13  2  0
 13 14  1  0
 14 15  2  0
 15 16  1  0
 16 17  1  0
 16 18  2  0
  2 19  1  0
 19 20  2  0
 20 21  1  0
 21 22  2  0
 22 23  1  0
 23 24  2  0
 24 25  1  0
 25 26  2  0
 26 27  1  0
 27 28  2  0
 11  7  1  0
 18 12  1  0
 28 19  1  0
 27 22  1  0
  3 29  1  0
  4 30  1  0
  4 31  1  0
  8 32  1  0
  8 33  1  0
  9 34  1  0
  9 35  1  0
 10 36  1  0
 10 37  1  0
 11 38  1  1
 13 39  1  0
 14 40  1  0
 15 41  1  0
 18 42  1  0
 20 43  1  0
 21 44  1  0
 23 45  1  0
 24 46  1  0
 25 47  1  0
 26 48  1  0
M  END
>  <smiles>  (62) 
O=C(NCC(=O)N1CCCC1c1cccc(Cl)c1)c1ccc2ccccc2n1

>  <score_type>  (62) 
oracle

>  <origin>  (62) 
autodockgpu

>  <m_score__min__energy>  (62) 
-9.1600000000000001

>  <m_primary>  (62) 
energy

>  <rmsd>  (62) 
8.24992511050102

>  <m_score__min__rmsd>  (62) 
8.24992511050102

>  <meeko>  (62) 
{"free_energy": -8.77, "intermolecular_energy": -10.26, "internal_energy": -1.61, "cluster_size": 4, "cluster_id": 3, "rank_in_cluster": 2}

>  <energy>  (62) 
-9.11

>  <cluster_rmsd>  (62) 
0.24

>  <cluster>  (62) 
1

$$$$

     RDKit          3D

 48 51  0  0  0  0  0  0  0  0999 V2000
  141.3780   71.8070  221.5180 O   0  0  0  0  0  0  0  0  0  0  0  0
  140.5650   72.2360  222.3720 C   0  0  0  0  0  0  0  0  0  0  0  0
  139.8990   73.4600  222.1280 N   0  0  0  0  0  0  0  0  0  0  0  0
  140.1490   74.2210  220.8950 C   0  0  0  0  0  0  0  0  0  0  0  0
  140.9690   75.4220  221.1860 C   0  0  0  0  0  0  0  0  0  0  0  0
  140.9370   75.8750  222.3690 O   0  0  0  0  0  0  0  0  0  0  0  0
  141.7740   76.0870  220.2420 N   0  0  0  0  0  0  0  0  0  0  0  0
  141.8170   77.5640  220.1770 C   0  0  0  0  0  0  0  0  0  0  0  0
  142.3460   77.8040  218.7540 C   0  0  0  0  0  0  0  0  0  0  0  0
  143.2210   76.6040  218.4910 C   0  0  0  0  0  0  0  0  0  0  0  0
  142.6060   75.5040  219.2730 C   0  0  1  0  0  0  0  0  0  0  0  0
  143.5800   74.5110  219.7640 C   0  0  0  0  0  0  0  0  0  0  0  0
  144.7180   74.8900  220.4650 C   0  0  0  0  0  0  0  0  0  0  0  0
  145.6410   73.9780  220.9330 C   0  0  0  0  0  0  0  0  0  0  0  0
  145.4720   72.6340  220.7220 C   0  0  0  0  0  0  0  0  0  0  0  0
  144.3540   72.2240  220.0300 C   0  0  0  0  0  0  0  0  0  0  0  0
  144.0650   70.5340  219.7200 Cl  0  0  0  0  0  0  0  0  0  0  0  0
  143.4320   73.1390  219.5640 C   0  0  0  0  0  0  0  0  0  0  0  0
  140.3040   71.4940  223.6000 C   0  0  0  0  0  0  0  0  0  0  0  0
  139.5660   70.3190  223.5460 C   0  0  0  0  0  0  0  0  0  0  0  0
  139.2960   69.5850  224.6770 C   0  0  0  0  0  0  0  0  0  0  0  0
  139.7700   70.0350  225.8800 C   0  0  0  0  0  0  0  0  0  0  0  0
  139.5150   69.3210  227.0260 C   0  0  0  0  0  0  0  0  0  0  0  0
  139.9960   69.7850  228.2190 C   0  0  0  0  0  0  0  0  0  0  0  0
  140.7340   70.9500  228.3110 C   0  0  0  0  0  0  0  0  0  0  0  0
  140.9860   71.6570  227.1650 C   0  0  0  0  0  0  0  0  0  0  0  0
  140.5040   71.2020  225.9410 C   0  0  0  0  0  0  0  0  0  0  0  0
  140.7580   71.9080  224.8090 N   0  0  0  0  0  0  0  0  0  0  0  0
  139.2110   73.8470  222.8240 H   0  0  0  0  0  0  0  0  0  0  0  0
  140.6840   73.5821  220.1770 H   0  0  0  0  0  0  0  0  0  0  0  0
  139.1855   74.5408  220.4715 H   0  0  0  0  0  0  0  0  0  0  0  0
  140.8157   77.9996  220.3103 H   0  0  0  0  0  0  0  0  0  0  0  0
  142.4322   78.0256  220.9634 H   0  0  0  0  0  0  0  0  0  0  0  0
  141.5185   77.8522  218.0308 H   0  0  0  0  0  0  0  0  0  0  0  0
  142.8875   78.7564  218.6554 H   0  0  0  0  0  0  0  0  0  0  0  0
  143.2293   76.3588  217.4187 H   0  0  0  0  0  0  0  0  0  0  0  0
  144.2670   76.7830  218.7804 H   0  0  0  0  0  0  0  0  0  0  0  0
  141.9774   74.8736  218.6269 H   0  0  0  0  0  0  0  0  0  0  0  0
  144.8898   75.9599  220.6543 H   0  0  0  0  0  0  0  0  0  0  0  0
  146.5247   74.3339  221.4830 H   0  0  0  0  0  0  0  0  0  0  0  0
  146.2070   71.9051  221.0941 H   0  0  0  0  0  0  0  0  0  0  0  0
  142.5507   72.7737  219.0164 H   0  0  0  0  0  0  0  0  0  0  0  0
  139.1882   69.9668  222.5748 H   0  0  0  0  0  0  0  0  0  0  0  0
  138.7112   68.6553  224.6164 H   0  0  0  0  0  0  0  0  0  0  0  0
  138.9320   68.3891  226.9843 H   0  0  0  0  0  0  0  0  0  0  0  0
  139.7889   69.2125  229.1352 H   0  0  0  0  0  0  0  0  0  0  0  0
  141.1106   71.3017  229.2828 H   0  0  0  0  0  0  0  0  0  0  0  0
  141.5711   72.5873  227.2122 H   0  0  0  0  0  0  0  0  0  0  0  0
  1  2  2  0
  2  3  1  0
  3  4  1  0
  4  5  1  0
  5  6  2  0
  5  7  1  0
  7  8  1  0
  8  9  1  0
  9 10  1  0
 10 11  1  0
 11 12  1  0
 12 13  2  0
 13 14  1  0
 14 15  2  0
 15 16  1  0
 16 17  1  0
 16 18  2  0
  2 19  1  0
 19 20  2  0
 20 21  1  0
 21 22  2  0
 22 23  1  0
 23 24  2  0
 24 25  1  0
 25 26  2  0
 26 27  1  0
 27 28  2  0
 11  7  1  0
 18 12  1  0
 28 19  1  0
 27 22  1  0
  3 29  1  0
  4 30  1  0
  4 31  1  0
  8 32  1  0
  8 33  1  0
  9 34  1  0
  9 35  1  0
 10 36  1  0
 10 37  1  0
 11 38  1  6
 13 39  1  0
 14 40  1  0
 15 41  1  0
 18 42  1  0
 20 43  1  0
 21 44  1  0
 23 45  1  0
 24 46  1  0
 25 47  1  0
 26 48  1  0
M  END
>  <smiles>  (63) 
O=C(NCC(=O)N1CCCC1c1cccc(Cl)c1)c1ccc2ccccc2n1

>  <score_type>  (63) 
oracle

>  <origin>  (63) 
autodockgpu

>  <m_score__min__energy>  (63) 
-9.1600000000000001

>  <m_primary>  (63) 
energy

>  <rmsd>  (63) 
2.315935084093061

>  <m_score__min__rmsd>  (63) 
2.315935084093061

>  <meeko>  (63) 
{"free_energy": -9.11, "intermolecular_energy": -10.6, "internal_energy": -1.82, "cluster_size": 33, "cluster_id": 1, "rank_in_cluster": 13}

>  <energy>  (63) 
-9.11

>  <cluster_rmsd>  (63) 
0.92

>  <cluster>  (63) 
1

$$$$

     RDKit          3D

 48 51  0  0  0  0  0  0  0  0999 V2000
  140.7900   71.3590  221.3440 O   0  0  0  0  0  0  0  0  0  0  0  0
  140.3520   71.9570  222.3570 C   0  0  0  0  0  0  0  0  0  0  0  0
  140.0430   73.3340  222.2570 N   0  0  0  0  0  0  0  0  0  0  0  0
  140.2300   74.0580  220.9900 C   0  0  0  0  0  0  0  0  0  0  0  0
  140.8770   75.3690  221.2340 C   0  0  0  0  0  0  0  0  0  0  0  0
  140.7000   75.9020  222.3700 O   0  0  0  0  0  0  0  0  0  0  0  0
  141.6680   76.0560  220.2940 N   0  0  0  0  0  0  0  0  0  0  0  0
  141.6910   77.5340  220.2470 C   0  0  0  0  0  0  0  0  0  0  0  0
  142.2090   77.7990  218.8240 C   0  0  0  0  0  0  0  0  0  0  0  0
  143.0980   76.6140  218.5410 C   0  0  0  0  0  0  0  0  0  0  0  0
  142.5020   75.4960  219.3140 C   0  0  1  0  0  0  0  0  0  0  0  0
  143.4910   74.5110  219.7870 C   0  0  0  0  0  0  0  0  0  0  0  0
  144.6380   74.8970  220.4690 C   0  0  0  0  0  0  0  0  0  0  0  0
  145.5760   73.9920  220.9210 C   0  0  0  0  0  0  0  0  0  0  0  0
  145.4140   72.6470  220.7100 C   0  0  0  0  0  0  0  0  0  0  0  0
  144.2870   72.2290  220.0360 C   0  0  0  0  0  0  0  0  0  0  0  0
  144.0070   70.5370  219.7280 Cl  0  0  0  0  0  0  0  0  0  0  0  0
  143.3510   73.1370  219.5860 C   0  0  0  0  0  0  0  0  0  0  0  0
  140.1600   71.2550  223.6200 C   0  0  0  0  0  0  0  0  0  0  0  0
  139.5240   70.0210  223.6280 C   0  0  0  0  0  0  0  0  0  0  0  0
  139.3210   69.3220  224.7950 C   0  0  0  0  0  0  0  0  0  0  0  0
  139.7620   69.8660  225.9700 C   0  0  0  0  0  0  0  0  0  0  0  0
  139.5730   69.1900  227.1520 C   0  0  0  0  0  0  0  0  0  0  0  0
  140.0200   69.7480  228.3160 C   0  0  0  0  0  0  0  0  0  0  0  0
  140.6580   70.9730  228.3470 C   0  0  0  0  0  0  0  0  0  0  0  0
  140.8440   71.6440  227.1670 C   0  0  0  0  0  0  0  0  0  0  0  0
  140.3960   71.0930  225.9700 C   0  0  0  0  0  0  0  0  0  0  0  0
  140.5840   71.7620  224.8040 N   0  0  0  0  0  0  0  0  0  0  0  0
  139.6740   73.8650  223.0870 H   0  0  0  0  0  0  0  0  0  0  0  0
  140.8655   73.4593  220.3209 H   0  0  0  0  0  0  0  0  0  0  0  0
  139.2465   74.2264  220.5271 H   0  0  0  0  0  0  0  0  0  0  0  0
  140.6848   77.9544  220.3911 H   0  0  0  0  0  0  0  0  0  0  0  0
  142.3045   77.9939  221.0357 H   0  0  0  0  0  0  0  0  0  0  0  0
  141.3770   77.8456  218.1060 H   0  0  0  0  0  0  0  0  0  0  0  0
  142.7375   78.7596  218.7346 H   0  0  0  0  0  0  0  0  0  0  0  0
  143.1027   76.3818  217.4658 H   0  0  0  0  0  0  0  0  0  0  0  0
  144.1435   76.8033  218.8260 H   0  0  0  0  0  0  0  0  0  0  0  0
  141.8782   74.8648  218.6640 H   0  0  0  0  0  0  0  0  0  0  0  0
  144.8052   75.9680  220.6563 H   0  0  0  0  0  0  0  0  0  0  0  0
  146.4653   74.3541  221.4576 H   0  0  0  0  0  0  0  0  0  0  0  0
  146.1611   71.9233  221.0679 H   0  0  0  0  0  0  0  0  0  0  0  0
  142.4646   72.7657  219.0508 H   0  0  0  0  0  0  0  0  0  0  0  0
  139.1738   69.5918  222.6777 H   0  0  0  0  0  0  0  0  0  0  0  0
  138.8145   68.3456  224.7837 H   0  0  0  0  0  0  0  0  0  0  0  0
  139.0684   68.2126  227.1604 H   0  0  0  0  0  0  0  0  0  0  0  0
  139.8669   69.2040  229.2597 H   0  0  0  0  0  0  0  0  0  0  0  0
  141.0089   71.4002  229.2980 H   0  0  0  0  0  0  0  0  0  0  0  0
  141.3490   72.6212  227.1657 H   0  0  0  0  0  0  0  0  0  0  0  0
  1  2  2  0
  2  3  1  0
  3  4  1  0
  4  5  1  0
  5  6  2  0
  5  7  1  0
  7  8  1  0
  8  9  1  0
  9 10  1  0
 10 11  1  0
 11 12  1  0
 12 13  2  0
 13 14  1  0
 14 15  2  0
 15 16  1  0
 16 17  1  0
 16 18  2  0
  2 19  1  0
 19 20  2  0
 20 21  1  0
 21 22  2  0
 22 23  1  0
 23 24  2  0
 24 25  1  0
 25 26  2  0
 26 27  1  0
 27 28  2  0
 11  7  1  0
 18 12  1  0
 28 19  1  0
 27 22  1  0
  3 29  1  0
  4 30  1  0
  4 31  1  0
  8 32  1  0
  8 33  1  0
  9 34  1  0
  9 35  1  0
 10 36  1  0
 10 37  1  0
 11 38  1  6
 13 39  1  0
 14 40  1  0
 15 41  1  0
 18 42  1  0
 20 43  1  0
 21 44  1  0
 23 45  1  0
 24 46  1  0
 25 47  1  0
 26 48  1  0
M  END
>  <smiles>  (64) 
O=C(NCC(=O)N1CCCC1c1cccc(Cl)c1)c1ccc2ccccc2n1

>  <score_type>  (64) 
oracle

>  <origin>  (64) 
autodockgpu

>  <m_score__min__energy>  (64) 
-9.1600000000000001

>  <m_primary>  (64) 
energy

>  <rmsd>  (64) 
2.2356222882744743

>  <m_score__min__rmsd>  (64) 
2.2356222882744743

>  <meeko>  (64) 
{"free_energy": -9.02, "intermolecular_energy": -10.51, "internal_energy": -2.04, "cluster_size": 33, "cluster_id": 1, "rank_in_cluster": 22}

>  <energy>  (64) 
-9.11

>  <cluster_rmsd>  (64) 
0.06

>  <cluster>  (64) 
1

$$$$

     RDKit          3D

 48 51  0  0  0  0  0  0  0  0999 V2000
  140.6590   71.4880  221.3600 O   0  0  0  0  0  0  0  0  0  0  0  0
  140.2690   72.0570  222.4090 C   0  0  0  0  0  0  0  0  0  0  0  0
  139.9110   73.4240  222.3520 N   0  0  0  0  0  0  0  0  0  0  0  0
  139.9920   74.1720  221.0880 C   0  0  0  0  0  0  0  0  0  0  0  0
  140.6770   75.4700  221.2980 C   0  0  0  0  0  0  0  0  0  0  0  0
  140.4490   76.0780  222.3860 O   0  0  0  0  0  0  0  0  0  0  0  0
  141.5560   76.0670  220.3750 N   0  0  0  0  0  0  0  0  0  0  0  0
  141.8640   77.5120  220.4360 C   0  0  0  0  0  0  0  0  0  0  0  0
  142.3800   77.7870  219.0140 C   0  0  0  0  0  0  0  0  0  0  0  0
  143.0120   76.4810  218.6040 C   0  0  0  0  0  0  0  0  0  0  0  0
  142.2340   75.4390  219.3190 C   0  0  1  0  0  0  0  0  0  0  0  0
  143.0280   74.2480  219.6720 C   0  0  0  0  0  0  0  0  0  0  0  0
  142.6480   72.9720  219.2750 C   0  0  0  0  0  0  0  0  0  0  0  0
  143.3750   71.8450  219.5930 C   0  0  0  0  0  0  0  0  0  0  0  0
  144.5270   71.9360  220.3310 C   0  0  0  0  0  0  0  0  0  0  0  0
  144.9340   73.1870  220.7420 C   0  0  0  0  0  0  0  0  0  0  0  0
  146.3860   73.3890  221.6830 Cl  0  0  0  0  0  0  0  0  0  0  0  0
  144.2030   74.3120  220.4210 C   0  0  0  0  0  0  0  0  0  0  0  0
  140.1820   71.3300  223.6700 C   0  0  0  0  0  0  0  0  0  0  0  0
  139.5850   70.0770  223.6990 C   0  0  0  0  0  0  0  0  0  0  0  0
  139.4810   69.3540  224.8640 C   0  0  0  0  0  0  0  0  0  0  0  0
  139.9810   69.8950  226.0170 C   0  0  0  0  0  0  0  0  0  0  0  0
  139.8910   69.1950  227.1970 C   0  0  0  0  0  0  0  0  0  0  0  0
  140.3960   69.7500  228.3390 C   0  0  0  0  0  0  0  0  0  0  0  0
  140.9970   70.9940  228.3490 C   0  0  0  0  0  0  0  0  0  0  0  0
  141.0840   71.6880  227.1710 C   0  0  0  0  0  0  0  0  0  0  0  0
  140.5760   71.1410  225.9960 C   0  0  0  0  0  0  0  0  0  0  0  0
  140.6660   71.8330  224.8320 N   0  0  0  0  0  0  0  0  0  0  0  0
  139.5800   73.9310  223.2130 H   0  0  0  0  0  0  0  0  0  0  0  0
  140.5555   73.5798  220.3520 H   0  0  0  0  0  0  0  0  0  0  0  0
  138.9729   74.3620  220.7201 H   0  0  0  0  0  0  0  0  0  0  0  0
  140.9634   78.1040  220.6562 H   0  0  0  0  0  0  0  0  0  0  0  0
  142.5787   77.7809  221.2278 H   0  0  0  0  0  0  0  0  0  0  0  0
  141.5514   78.0503  218.3402 H   0  0  0  0  0  0  0  0  0  0  0  0
  143.0826   78.6323  218.9717 H   0  0  0  0  0  0  0  0  0  0  0  0
  142.9383   76.3403  217.5155 H   0  0  0  0  0  0  0  0  0  0  0  0
  144.0826   76.4427  218.8538 H   0  0  0  0  0  0  0  0  0  0  0  0
  141.4789   74.9937  218.6545 H   0  0  0  0  0  0  0  0  0  0  0  0
  141.7286   72.8563  218.6822 H   0  0  0  0  0  0  0  0  0  0  0  0
  143.0264   70.8596  219.2502 H   0  0  0  0  0  0  0  0  0  0  0  0
  145.1085   71.0381  220.5872 H   0  0  0  0  0  0  0  0  0  0  0  0
  144.5590   75.2934  220.7677 H   0  0  0  0  0  0  0  0  0  0  0  0
  139.1851   69.6519  222.7666 H   0  0  0  0  0  0  0  0  0  0  0  0
  139.0060   68.3619  224.8689 H   0  0  0  0  0  0  0  0  0  0  0  0
  139.4189   68.2018  227.2214 H   0  0  0  0  0  0  0  0  0  0  0  0
  140.3216   69.1877  229.2815 H   0  0  0  0  0  0  0  0  0  0  0  0
  141.3967   71.4178  229.2821 H   0  0  0  0  0  0  0  0  0  0  0  0
  141.5569   72.6810  227.1536 H   0  0  0  0  0  0  0  0  0  0  0  0
  1  2  2  0
  2  3  1  0
  3  4  1  0
  4  5  1  0
  5  6  2  0
  5  7  1  0
  7  8  1  0
  8  9  1  0
  9 10  1  0
 10 11  1  0
 11 12  1  0
 12 13  2  0
 13 14  1  0
 14 15  2  0
 15 16  1  0
 16 17  1  0
 16 18  2  0
  2 19  1  0
 19 20  2  0
 20 21  1  0
 21 22  2  0
 22 23  1  0
 23 24  2  0
 24 25  1  0
 25 26  2  0
 26 27  1  0
 27 28  2  0
 11  7  1  0
 18 12  1  0
 28 19  1  0
 27 22  1  0
  3 29  1  0
  4 30  1  0
  4 31  1  0
  8 32  1  0
  8 33  1  0
  9 34  1  0
  9 35  1  0
 10 36  1  0
 10 37  1  0
 11 38  1  6
 13 39  1  0
 14 40  1  0
 15 41  1  0
 18 42  1  0
 20 43  1  0
 21 44  1  0
 23 45  1  0
 24 46  1  0
 25 47  1  0
 26 48  1  0
M  END
>  <smiles>  (65) 
O=C(NCC(=O)N1CCCC1c1cccc(Cl)c1)c1ccc2ccccc2n1

>  <score_type>  (65) 
oracle

>  <origin>  (65) 
autodockgpu

>  <m_score__min__energy>  (65) 
-9.1600000000000001

>  <m_primary>  (65) 
energy

>  <rmsd>  (65) 
2.263295603224808

>  <m_score__min__rmsd>  (65) 
2.263295603224808

>  <meeko>  (65) 
{"free_energy": -9.15, "intermolecular_energy": -10.64, "internal_energy": -2.02, "cluster_size": 33, "cluster_id": 1, "rank_in_cluster": 5}

>  <energy>  (65) 
-9.09

>  <cluster_rmsd>  (65) 
0.26

>  <cluster>  (65) 
1

$$$$

     RDKit          3D

 48 51  0  0  0  0  0  0  0  0999 V2000
  140.4430   71.6470  221.1960 O   0  0  0  0  0  0  0  0  0  0  0  0
  140.1430   72.1720  222.2960 C   0  0  0  0  0  0  0  0  0  0  0  0
  139.8320   73.5500  222.3330 N   0  0  0  0  0  0  0  0  0  0  0  0
  139.8560   74.3620  221.1060 C   0  0  0  0  0  0  0  0  0  0  0  0
  140.7260   75.5480  221.2870 C   0  0  0  0  0  0  0  0  0  0  0  0
  140.6850   76.1320  222.4110 O   0  0  0  0  0  0  0  0  0  0  0  0
  141.5860   76.0660  220.3000 N   0  0  0  0  0  0  0  0  0  0  0  0
  141.9190   77.5060  220.2540 C   0  0  0  0  0  0  0  0  0  0  0  0
  142.3950   77.6750  218.8010 C   0  0  0  0  0  0  0  0  0  0  0  0
  142.9930   76.3330  218.4630 C   0  0  0  0  0  0  0  0  0  0  0  0
  142.2220   75.3560  219.2700 C   0  0  1  0  0  0  0  0  0  0  0  0
  143.0070   74.1770  219.6800 C   0  0  0  0  0  0  0  0  0  0  0  0
  142.5940   72.8850  219.3810 C   0  0  0  0  0  0  0  0  0  0  0  0
  143.3130   71.7690  219.7540 C   0  0  0  0  0  0  0  0  0  0  0  0
  144.4880   71.8890  220.4510 C   0  0  0  0  0  0  0  0  0  0  0  0
  144.9270   73.1570  220.7640 C   0  0  0  0  0  0  0  0  0  0  0  0
  146.4100   73.3960  221.6470 Cl  0  0  0  0  0  0  0  0  0  0  0  0
  144.2050   74.2710  220.3890 C   0  0  0  0  0  0  0  0  0  0  0  0
  140.1140   71.3820  223.5220 C   0  0  0  0  0  0  0  0  0  0  0  0
  139.5690   70.1060  223.5010 C   0  0  0  0  0  0  0  0  0  0  0  0
  139.5200   69.3240  224.6320 C   0  0  0  0  0  0  0  0  0  0  0  0
  140.0240   69.8290  225.8000 C   0  0  0  0  0  0  0  0  0  0  0  0
  139.9880   69.0700  226.9450 C   0  0  0  0  0  0  0  0  0  0  0  0
  140.4960   69.5900  228.1030 C   0  0  0  0  0  0  0  0  0  0  0  0
  141.0460   70.8560  228.1610 C   0  0  0  0  0  0  0  0  0  0  0  0
  141.0800   71.6080  227.0170 C   0  0  0  0  0  0  0  0  0  0  0  0
  140.5670   71.0980  225.8270 C   0  0  0  0  0  0  0  0  0  0  0  0
  140.6040   71.8480  224.6970 N   0  0  0  0  0  0  0  0  0  0  0  0
  139.5770   74.0210  223.2390 H   0  0  0  0  0  0  0  0  0  0  0  0
  140.2425   73.7526  220.2758 H   0  0  0  0  0  0  0  0  0  0  0  0
  138.8335   74.7008  220.8829 H   0  0  0  0  0  0  0  0  0  0  0  0
  141.0354   78.1278  220.4605 H   0  0  0  0  0  0  0  0  0  0  0  0
  142.6621   77.8147  221.0040 H   0  0  0  0  0  0  0  0  0  0  0  0
  141.5501   77.9068  218.1358 H   0  0  0  0  0  0  0  0  0  0  0  0
  143.1091   78.5029  218.6797 H   0  0  0  0  0  0  0  0  0  0  0  0
  142.8833   76.1200  217.3894 H   0  0  0  0  0  0  0  0  0  0  0  0
  144.0700   76.2929  218.6832 H   0  0  0  0  0  0  0  0  0  0  0  0
  141.4406   74.8798  218.6596 H   0  0  0  0  0  0  0  0  0  0  0  0
  141.6555   72.7464  218.8242 H   0  0  0  0  0  0  0  0  0  0  0  0
  142.9391   70.7690  219.4889 H   0  0  0  0  0  0  0  0  0  0  0  0
  145.0624   71.0001  220.7510 H   0  0  0  0  0  0  0  0  0  0  0  0
  144.5866   75.2670  220.6580 H   0  0  0  0  0  0  0  0  0  0  0  0
  139.1663   69.7100  222.5571 H   0  0  0  0  0  0  0  0  0  0  0  0
  139.0850   68.3142  224.5982 H   0  0  0  0  0  0  0  0  0  0  0  0
  139.5565   68.0583  226.9301 H   0  0  0  0  0  0  0  0  0  0  0  0
  140.4658   68.9805  229.0182 H   0  0  0  0  0  0  0  0  0  0  0  0
  141.4479   71.2514  229.1055 H   0  0  0  0  0  0  0  0  0  0  0  0
  141.5141   72.6185  227.0381 H   0  0  0  0  0  0  0  0  0  0  0  0
  1  2  2  0
  2  3  1  0
  3  4  1  0
  4  5  1  0
  5  6  2  0
  5  7  1  0
  7  8  1  0
  8  9  1  0
  9 10  1  0
 10 11  1  0
 11 12  1  0
 12 13  2  0
 13 14  1  0
 14 15  2  0
 15 16  1  0
 16 17  1  0
 16 18  2  0
  2 19  1  0
 19 20  2  0
 20 21  1  0
 21 22  2  0
 22 23  1  0
 23 24  2  0
 24 25  1  0
 25 26  2  0
 26 27  1  0
 27 28  2  0
 11  7  1  0
 18 12  1  0
 28 19  1  0
 27 22  1  0
  3 29  1  0
  4 30  1  0
  4 31  1  0
  8 32  1  0
  8 33  1  0
  9 34  1  0
  9 35  1  0
 10 36  1  0
 10 37  1  0
 11 38  1  6
 13 39  1  0
 14 40  1  0
 15 41  1  0
 18 42  1  0
 20 43  1  0
 21 44  1  0
 23 45  1  0
 24 46  1  0
 25 47  1  0
 26 48  1  0
M  END
>  <smiles>  (66) 
O=C(NCC(=O)N1CCCC1c1cccc(Cl)c1)c1ccc2ccccc2n1

>  <score_type>  (66) 
oracle

>  <origin>  (66) 
autodockgpu

>  <m_score__min__energy>  (66) 
-9.1600000000000001

>  <m_primary>  (66) 
energy

>  <rmsd>  (66) 
2.2193485479504056

>  <m_score__min__rmsd>  (66) 
2.2193485479504056

>  <meeko>  (66) 
{"free_energy": -8.97, "intermolecular_energy": -10.46, "internal_energy": -2.03, "cluster_size": 33, "cluster_id": 1, "rank_in_cluster": 26}

>  <energy>  (66) 
-9.09

>  <cluster_rmsd>  (66) 
0.29

>  <cluster>  (66) 
1

$$$$

     RDKit          3D

 48 51  0  0  0  0  0  0  0  0999 V2000
  138.7610   72.6670  222.3590 O   0  0  0  0  0  0  0  0  0  0  0  0
  139.8170   72.0480  222.6340 C   0  0  0  0  0  0  0  0  0  0  0  0
  140.9440   72.2120  221.7960 N   0  0  0  0  0  0  0  0  0  0  0  0
  140.8860   73.0940  220.6190 C   0  0  0  0  0  0  0  0  0  0  0  0
  141.0920   74.5060  221.0200 C   0  0  0  0  0  0  0  0  0  0  0  0
  140.5780   74.8800  222.1160 O   0  0  0  0  0  0  0  0  0  0  0  0
  141.8160   75.4510  220.2700 N   0  0  0  0  0  0  0  0  0  0  0  0
  141.6050   76.9030  220.4600 C   0  0  0  0  0  0  0  0  0  0  0  0
  142.1560   77.4780  219.1440 C   0  0  0  0  0  0  0  0  0  0  0  0
  143.2370   76.5030  218.7520 C   0  0  0  0  0  0  0  0  0  0  0  0
  142.7840   75.1950  219.2860 C   0  0  1  0  0  0  0  0  0  0  0  0
  143.8890   74.3010  219.6780 C   0  0  0  0  0  0  0  0  0  0  0  0
  144.9350   74.7410  220.4800 C   0  0  0  0  0  0  0  0  0  0  0  0
  145.9780   73.9220  220.8590 C   0  0  0  0  0  0  0  0  0  0  0  0
  146.0290   72.6140  220.4510 C   0  0  0  0  0  0  0  0  0  0  0  0
  145.0070   72.1450  219.6550 C   0  0  0  0  0  0  0  0  0  0  0  0
  144.9980   70.4950  219.0940 Cl  0  0  0  0  0  0  0  0  0  0  0  0
  143.9660   72.9670  219.2780 C   0  0  0  0  0  0  0  0  0  0  0  0
  139.8920   71.1700  223.7970 C   0  0  0  0  0  0  0  0  0  0  0  0
  139.4120   69.8710  223.7070 C   0  0  0  0  0  0  0  0  0  0  0  0
  139.4620   69.0090  224.7770 C   0  0  0  0  0  0  0  0  0  0  0  0
  140.0010   69.4540  225.9530 C   0  0  0  0  0  0  0  0  0  0  0  0
  140.0640   68.6130  227.0390 C   0  0  0  0  0  0  0  0  0  0  0  0
  140.6060   69.0740  228.2060 C   0  0  0  0  0  0  0  0  0  0  0  0
  141.0940   70.3600  228.3330 C   0  0  0  0  0  0  0  0  0  0  0  0
  141.0290   71.1940  227.2480 C   0  0  0  0  0  0  0  0  0  0  0  0
  140.4810   70.7450  226.0500 C   0  0  0  0  0  0  0  0  0  0  0  0
  140.4200   71.5760  224.9780 N   0  0  0  0  0  0  0  0  0  0  0  0
  141.8450   71.7070  221.9980 H   0  0  0  0  0  0  0  0  0  0  0  0
  141.6721   72.8010  219.9076 H   0  0  0  0  0  0  0  0  0  0  0  0
  139.8959   72.9975  220.1496 H   0  0  0  0  0  0  0  0  0  0  0  0
  140.5379   77.1394  220.5843 H   0  0  0  0  0  0  0  0  0  0  0  0
  142.0899   77.3088  221.3601 H   0  0  0  0  0  0  0  0  0  0  0  0
  141.3700   77.5218  218.3757 H   0  0  0  0  0  0  0  0  0  0  0  0
  142.5293   78.5071  219.2520 H   0  0  0  0  0  0  0  0  0  0  0  0
  143.3404   76.4593  217.6577 H   0  0  0  0  0  0  0  0  0  0  0  0
  144.2207   76.7939  219.1492 H   0  0  0  0  0  0  0  0  0  0  0  0
  142.3076   74.5981  218.4944 H   0  0  0  0  0  0  0  0  0  0  0  0
  144.9310   75.7849  220.8267 H   0  0  0  0  0  0  0  0  0  0  0  0
  146.7793   74.3234  221.4968 H   0  0  0  0  0  0  0  0  0  0  0  0
  146.8606   71.9590  220.7501 H   0  0  0  0  0  0  0  0  0  0  0  0
  143.1692   72.5567  218.6401 H   0  0  0  0  0  0  0  0  0  0  0  0
  138.9812   69.5226  222.7567 H   0  0  0  0  0  0  0  0  0  0  0  0
  139.0765   67.9825  224.6892 H   0  0  0  0  0  0  0  0  0  0  0  0
  139.6834   67.5833  226.9696 H   0  0  0  0  0  0  0  0  0  0  0  0
  140.6552   68.3985  229.0728 H   0  0  0  0  0  0  0  0  0  0  0  0
  141.5250   70.7066  229.2838 H   0  0  0  0  0  0  0  0  0  0  0  0
  141.4115   72.2226  227.3240 H   0  0  0  0  0  0  0  0  0  0  0  0
  1  2  2  0
  2  3  1  0
  3  4  1  0
  4  5  1  0
  5  6  2  0
  5  7  1  0
  7  8  1  0
  8  9  1  0
  9 10  1  0
 10 11  1  0
 11 12  1  0
 12 13  2  0
 13 14  1  0
 14 15  2  0
 15 16  1  0
 16 17  1  0
 16 18  2  0
  2 19  1  0
 19 20  2  0
 20 21  1  0
 21 22  2  0
 22 23  1  0
 23 24  2  0
 24 25  1  0
 25 26  2  0
 26 27  1  0
 27 28  2  0
 11  7  1  0
 18 12  1  0
 28 19  1  0
 27 22  1  0
  3 29  1  0
  4 30  1  0
  4 31  1  0
  8 32  1  0
  8 33  1  0
  9 34  1  0
  9 35  1  0
 10 36  1  0
 10 37  1  0
 11 38  1  6
 13 39  1  0
 14 40  1  0
 15 41  1  0
 18 42  1  0
 20 43  1  0
 21 44  1  0
 23 45  1  0
 24 46  1  0
 25 47  1  0
 26 48  1  0
M  END
>  <smiles>  (67) 
O=C(NCC(=O)N1CCCC1c1cccc(Cl)c1)c1ccc2ccccc2n1

>  <score_type>  (67) 
oracle

>  <origin>  (67) 
autodockgpu

>  <m_score__min__energy>  (67) 
-9.1600000000000001

>  <m_primary>  (67) 
energy

>  <rmsd>  (67) 
2.3652044384180417

>  <m_score__min__rmsd>  (67) 
2.3652044384180417

>  <meeko>  (67) 
{"free_energy": -8.87, "intermolecular_energy": -10.36, "internal_energy": -1.33, "cluster_size": 33, "cluster_id": 1, "rank_in_cluster": 29}

>  <energy>  (67) 
-9.07

>  <cluster_rmsd>  (67) 
0.89

>  <cluster>  (67) 
1

$$$$

     RDKit          3D

 48 51  0  0  0  0  0  0  0  0999 V2000
  140.8800   71.4860  221.3760 O   0  0  0  0  0  0  0  0  0  0  0  0
  140.3770   72.0520  222.3770 C   0  0  0  0  0  0  0  0  0  0  0  0
  139.9900   73.4070  222.2730 N   0  0  0  0  0  0  0  0  0  0  0  0
  140.1690   74.1480  221.0150 C   0  0  0  0  0  0  0  0  0  0  0  0
  140.8930   75.4180  221.2610 C   0  0  0  0  0  0  0  0  0  0  0  0
  140.7570   75.9530  222.4010 O   0  0  0  0  0  0  0  0  0  0  0  0
  141.7140   76.0640  220.3180 N   0  0  0  0  0  0  0  0  0  0  0  0
  141.9660   77.5190  220.3920 C   0  0  0  0  0  0  0  0  0  0  0  0
  142.4190   77.8360  218.9570 C   0  0  0  0  0  0  0  0  0  0  0  0
  143.0880   76.5640  218.5040 C   0  0  0  0  0  0  0  0  0  0  0  0
  142.3790   75.4800  219.2280 C   0  0  1  0  0  0  0  0  0  0  0  0
  143.2310   74.3170  219.5340 C   0  0  0  0  0  0  0  0  0  0  0  0
  143.0460   73.0910  218.9070 C   0  0  0  0  0  0  0  0  0  0  0  0
  143.8320   71.9900  219.1770 C   0  0  0  0  0  0  0  0  0  0  0  0
  144.8490   72.0600  220.0940 C   0  0  0  0  0  0  0  0  0  0  0  0
  145.0610   73.2620  220.7340 C   0  0  0  0  0  0  0  0  0  0  0  0
  146.3330   73.4340  221.9130 Cl  0  0  0  0  0  0  0  0  0  0  0  0
  144.2730   74.3600  220.4610 C   0  0  0  0  0  0  0  0  0  0  0  0
  140.1920   71.3320  223.6320 C   0  0  0  0  0  0  0  0  0  0  0  0
  139.5260   70.1140  223.6320 C   0  0  0  0  0  0  0  0  0  0  0  0
  139.3280   69.4000  224.7900 C   0  0  0  0  0  0  0  0  0  0  0  0
  139.8040   69.9130  225.9660 C   0  0  0  0  0  0  0  0  0  0  0  0
  139.6200   69.2210  227.1390 C   0  0  0  0  0  0  0  0  0  0  0  0
  140.1020   69.7480  228.3040 C   0  0  0  0  0  0  0  0  0  0  0  0
  140.7700   70.9570  228.3440 C   0  0  0  0  0  0  0  0  0  0  0  0
  140.9510   71.6430  227.1720 C   0  0  0  0  0  0  0  0  0  0  0  0
  140.4670   71.1240  225.9740 C   0  0  0  0  0  0  0  0  0  0  0  0
  140.6500   71.8080  224.8160 N   0  0  0  0  0  0  0  0  0  0  0  0
  139.5650   73.9110  223.0940 H   0  0  0  0  0  0  0  0  0  0  0  0
  140.7472   73.5319  220.3107 H   0  0  0  0  0  0  0  0  0  0  0  0
  139.1796   74.3777  220.5927 H   0  0  0  0  0  0  0  0  0  0  0  0
  141.0511   78.0707  220.6538 H   0  0  0  0  0  0  0  0  0  0  0  0
  142.6975   77.8047  221.1623 H   0  0  0  0  0  0  0  0  0  0  0  0
  141.5567   78.0749  218.3173 H   0  0  0  0  0  0  0  0  0  0  0  0
  143.0848   78.7100  218.9036 H   0  0  0  0  0  0  0  0  0  0  0  0
  142.9815   76.4370  217.4166 H   0  0  0  0  0  0  0  0  0  0  0  0
  144.1674   76.5660  218.7160 H   0  0  0  0  0  0  0  0  0  0  0  0
  141.6204   75.0144  218.5817 H   0  0  0  0  0  0  0  0  0  0  0  0
  142.2398   72.9944  218.1649 H   0  0  0  0  0  0  0  0  0  0  0  0
  143.6404   71.0437  218.6499 H   0  0  0  0  0  0  0  0  0  0  0  0
  145.4766   71.1834  220.3122 H   0  0  0  0  0  0  0  0  0  0  0  0
  144.4726   75.3023  220.9923 H   0  0  0  0  0  0  0  0  0  0  0  0
  139.1472   69.7100  222.6816 H   0  0  0  0  0  0  0  0  0  0  0  0
  138.7979   68.4363  224.7716 H   0  0  0  0  0  0  0  0  0  0  0  0
  139.0919   68.2561  227.1401 H   0  0  0  0  0  0  0  0  0  0  0  0
  139.9533   69.1914  229.2410 H   0  0  0  0  0  0  0  0  0  0  0  0
  141.1479   71.3595  229.2954 H   0  0  0  0  0  0  0  0  0  0  0  0
  141.4805   72.6071  227.1774 H   0  0  0  0  0  0  0  0  0  0  0  0
  1  2  2  0
  2  3  1  0
  3  4  1  0
  4  5  1  0
  5  6  2  0
  5  7  1  0
  7  8  1  0
  8  9  1  0
  9 10  1  0
 10 11  1  0
 11 12  1  0
 12 13  2  0
 13 14  1  0
 14 15  2  0
 15 16  1  0
 16 17  1  0
 16 18  2  0
  2 19  1  0
 19 20  2  0
 20 21  1  0
 21 22  2  0
 22 23  1  0
 23 24  2  0
 24 25  1  0
 25 26  2  0
 26 27  1  0
 27 28  2  0
 11  7  1  0
 18 12  1  0
 28 19  1  0
 27 22  1  0
  3 29  1  0
  4 30  1  0
  4 31  1  0
  8 32  1  0
  8 33  1  0
  9 34  1  0
  9 35  1  0
 10 36  1  0
 10 37  1  0
 11 38  1  6
 13 39  1  0
 14 40  1  0
 15 41  1  0
 18 42  1  0
 20 43  1  0
 21 44  1  0
 23 45  1  0
 24 46  1  0
 25 47  1  0
 26 48  1  0
M  END
>  <smiles>  (68) 
O=C(NCC(=O)N1CCCC1c1cccc(Cl)c1)c1ccc2ccccc2n1

>  <score_type>  (68) 
oracle

>  <origin>  (68) 
autodockgpu

>  <m_score__min__energy>  (68) 
-9.1600000000000001

>  <m_primary>  (68) 
energy

>  <rmsd>  (68) 
2.3069619678964184

>  <m_score__min__rmsd>  (68) 
2.3069619678964184

>  <meeko>  (68) 
{"free_energy": -9.09, "intermolecular_energy": -10.58, "internal_energy": -1.95, "cluster_size": 33, "cluster_id": 1, "rank_in_cluster": 16}

>  <energy>  (68) 
-9.07

>  <cluster_rmsd>  (68) 
0.44

>  <cluster>  (68) 
1

$$$$

     RDKit          3D

 48 51  0  0  0  0  0  0  0  0999 V2000
  140.8910   71.5930  221.3650 O   0  0  0  0  0  0  0  0  0  0  0  0
  140.3890   72.1490  222.3720 C   0  0  0  0  0  0  0  0  0  0  0  0
  139.9880   73.5010  222.2770 N   0  0  0  0  0  0  0  0  0  0  0  0
  140.1540   74.2500  221.0220 C   0  0  0  0  0  0  0  0  0  0  0  0
  141.0020   75.4460  221.2410 C   0  0  0  0  0  0  0  0  0  0  0  0
  141.0320   75.9310  222.4120 O   0  0  0  0  0  0  0  0  0  0  0  0
  141.7700   76.0750  220.2420 N   0  0  0  0  0  0  0  0  0  0  0  0
  141.8100   77.5490  220.1220 C   0  0  0  0  0  0  0  0  0  0  0  0
  142.2830   77.7360  218.6720 C   0  0  0  0  0  0  0  0  0  0  0  0
  143.1460   76.5260  218.4180 C   0  0  0  0  0  0  0  0  0  0  0  0
  142.5630   75.4560  219.2640 C   0  0  1  0  0  0  0  0  0  0  0  0
  143.5550   74.4810  219.7520 C   0  0  0  0  0  0  0  0  0  0  0  0
  144.6930   74.8790  220.4420 C   0  0  0  0  0  0  0  0  0  0  0  0
  145.6330   73.9850  220.9080 C   0  0  0  0  0  0  0  0  0  0  0  0
  145.4830   72.6370  220.7050 C   0  0  0  0  0  0  0  0  0  0  0  0
  144.3650   72.2070  220.0240 C   0  0  0  0  0  0  0  0  0  0  0  0
  144.1000   70.5100  219.7250 Cl  0  0  0  0  0  0  0  0  0  0  0  0
  143.4270   73.1050  219.5600 C   0  0  0  0  0  0  0  0  0  0  0  0
  140.2160   71.4210  223.6240 C   0  0  0  0  0  0  0  0  0  0  0  0
  139.5560   70.2000  223.6210 C   0  0  0  0  0  0  0  0  0  0  0  0
  139.3700   69.4780  224.7760 C   0  0  0  0  0  0  0  0  0  0  0  0
  139.8520   69.9860  225.9520 C   0  0  0  0  0  0  0  0  0  0  0  0
  139.6800   69.2870  227.1220 C   0  0  0  0  0  0  0  0  0  0  0  0
  140.1680   69.8090  228.2870 C   0  0  0  0  0  0  0  0  0  0  0  0
  140.8300   71.0210  228.3290 C   0  0  0  0  0  0  0  0  0  0  0  0
  140.9990   71.7150  227.1600 C   0  0  0  0  0  0  0  0  0  0  0  0
  140.5090   71.2010  225.9620 C   0  0  0  0  0  0  0  0  0  0  0  0
  140.6800   71.8930  224.8070 N   0  0  0  0  0  0  0  0  0  0  0  0
  139.5640   73.9970  223.1020 H   0  0  0  0  0  0  0  0  0  0  0  0
  140.6303   73.6005  220.2728 H   0  0  0  0  0  0  0  0  0  0  0  0
  139.1647   74.5747  220.6673 H   0  0  0  0  0  0  0  0  0  0  0  0
  140.8146   77.9903  220.2782 H   0  0  0  0  0  0  0  0  0  0  0  0
  142.4550   78.0383  220.8666 H   0  0  0  0  0  0  0  0  0  0  0  0
  141.4278   77.7599  217.9805 H   0  0  0  0  0  0  0  0  0  0  0  0
  142.8212   78.6830  218.5182 H   0  0  0  0  0  0  0  0  0  0  0  0
  143.1108   76.2418  217.3559 H   0  0  0  0  0  0  0  0  0  0  0  0
  144.2029   76.7138  218.6583 H   0  0  0  0  0  0  0  0  0  0  0  0
  141.9099   74.8025  218.6670 H   0  0  0  0  0  0  0  0  0  0  0  0
  144.8506   75.9523  220.6241 H   0  0  0  0  0  0  0  0  0  0  0  0
  146.5149   74.3576  221.4497 H   0  0  0  0  0  0  0  0  0  0  0  0
  146.2321   71.9212  221.0744 H   0  0  0  0  0  0  0  0  0  0  0  0
  142.5479   72.7235  219.0201 H   0  0  0  0  0  0  0  0  0  0  0  0
  139.1722   69.8001  222.6708 H   0  0  0  0  0  0  0  0  0  0  0  0
  138.8446   68.5118  224.7555 H   0  0  0  0  0  0  0  0  0  0  0  0
  139.1563   68.3197  227.1212 H   0  0  0  0  0  0  0  0  0  0  0  0
  140.0292   69.2459  229.2217 H   0  0  0  0  0  0  0  0  0  0  0  0
  141.2129   71.4198  229.2800 H   0  0  0  0  0  0  0  0  0  0  0  0
  141.5236   72.6818  227.1676 H   0  0  0  0  0  0  0  0  0  0  0  0
  1  2  2  0
  2  3  1  0
  3  4  1  0
  4  5  1  0
  5  6  2  0
  5  7  1  0
  7  8  1  0
  8  9  1  0
  9 10  1  0
 10 11  1  0
 11 12  1  0
 12 13  2  0
 13 14  1  0
 14 15  2  0
 15 16  1  0
 16 17  1  0
 16 18  2  0
  2 19  1  0
 19 20  2  0
 20 21  1  0
 21 22  2  0
 22 23  1  0
 23 24  2  0
 24 25  1  0
 25 26  2  0
 26 27  1  0
 27 28  2  0
 11  7  1  0
 18 12  1  0
 28 19  1  0
 27 22  1  0
  3 29  1  0
  4 30  1  0
  4 31  1  0
  8 32  1  0
  8 33  1  0
  9 34  1  0
  9 35  1  0
 10 36  1  0
 10 37  1  0
 11 38  1  6
 13 39  1  0
 14 40  1  0
 15 41  1  0
 18 42  1  0
 20 43  1  0
 21 44  1  0
 23 45  1  0
 24 46  1  0
 25 47  1  0
 26 48  1  0
M  END
>  <smiles>  (69) 
O=C(NCC(=O)N1CCCC1c1cccc(Cl)c1)c1ccc2ccccc2n1

>  <score_type>  (69) 
oracle

>  <origin>  (69) 
autodockgpu

>  <m_score__min__energy>  (69) 
-9.1600000000000001

>  <m_primary>  (69) 
energy

>  <rmsd>  (69) 
2.273928751658893

>  <m_score__min__rmsd>  (69) 
2.273928751658893

>  <meeko>  (69) 
{"free_energy": -9.07, "intermolecular_energy": -10.56, "internal_energy": -1.92, "cluster_size": 33, "cluster_id": 1, "rank_in_cluster": 17}

>  <energy>  (69) 
-9.06

>  <cluster_rmsd>  (69) 
0.87

>  <cluster>  (69) 
1

$$$$

     RDKit          3D

 48 51  0  0  0  0  0  0  0  0999 V2000
  141.0880   71.4620  221.3800 O   0  0  0  0  0  0  0  0  0  0  0  0
  140.5600   72.0450  222.3580 C   0  0  0  0  0  0  0  0  0  0  0  0
  140.1940   73.4050  222.2270 N   0  0  0  0  0  0  0  0  0  0  0  0
  140.4250   74.1300  220.9680 C   0  0  0  0  0  0  0  0  0  0  0  0
  141.0070   75.4660  221.2400 C   0  0  0  0  0  0  0  0  0  0  0  0
  140.8330   75.9510  222.3980 O   0  0  0  0  0  0  0  0  0  0  0  0
  141.7350   76.2250  220.3040 N   0  0  0  0  0  0  0  0  0  0  0  0
  141.8140   77.6980  220.4110 C   0  0  0  0  0  0  0  0  0  0  0  0
  142.2070   78.0990  218.9790 C   0  0  0  0  0  0  0  0  0  0  0  0
  143.0150   76.9240  218.4880 C   0  0  0  0  0  0  0  0  0  0  0  0
  142.4490   75.7480  219.1940 C   0  0  1  0  0  0  0  0  0  0  0  0
  143.4360   74.6880  219.4620 C   0  0  0  0  0  0  0  0  0  0  0  0
  143.9950   74.5110  220.7220 C   0  0  0  0  0  0  0  0  0  0  0  0
  144.9200   73.5250  220.9950 C   0  0  0  0  0  0  0  0  0  0  0  0
  145.3360   72.6610  220.0150 C   0  0  0  0  0  0  0  0  0  0  0  0
  144.8020   72.8070  218.7540 C   0  0  0  0  0  0  0  0  0  0  0  0
  145.2790   71.7500  217.4530 Cl  0  0  0  0  0  0  0  0  0  0  0  0
  143.8770   73.7950  218.4850 C   0  0  0  0  0  0  0  0  0  0  0  0
  140.3230   71.3410  223.6130 C   0  0  0  0  0  0  0  0  0  0  0  0
  139.6530   70.1250  223.6000 C   0  0  0  0  0  0  0  0  0  0  0  0
  139.4070   69.4250  224.7580 C   0  0  0  0  0  0  0  0  0  0  0  0
  139.8380   69.9510  225.9460 C   0  0  0  0  0  0  0  0  0  0  0  0
  139.6060   69.2740  227.1190 C   0  0  0  0  0  0  0  0  0  0  0  0
  140.0430   69.8130  228.2960 C   0  0  0  0  0  0  0  0  0  0  0  0
  140.7130   71.0210  228.3480 C   0  0  0  0  0  0  0  0  0  0  0  0
  140.9420   71.6920  227.1760 C   0  0  0  0  0  0  0  0  0  0  0  0
  140.5050   71.1600  225.9660 C   0  0  0  0  0  0  0  0  0  0  0  0
  140.7350   71.8300  224.8090 N   0  0  0  0  0  0  0  0  0  0  0  0
  139.7490   73.9230  223.0280 H   0  0  0  0  0  0  0  0  0  0  0  0
  141.1197   73.5531  220.3398 H   0  0  0  0  0  0  0  0  0  0  0  0
  139.4638   74.2586  220.4489 H   0  0  0  0  0  0  0  0  0  0  0  0
  140.8438   78.1311  220.6959 H   0  0  0  0  0  0  0  0  0  0  0  0
  142.5166   78.0509  221.1803 H   0  0  0  0  0  0  0  0  0  0  0  0
  141.3139   78.2493  218.3546 H   0  0  0  0  0  0  0  0  0  0  0  0
  142.7646   79.0463  218.9393 H   0  0  0  0  0  0  0  0  0  0  0  0
  142.9087   76.8095  217.3992 H   0  0  0  0  0  0  0  0  0  0  0  0
  144.0895   77.0486  218.6878 H   0  0  0  0  0  0  0  0  0  0  0  0
  141.7415   75.2099  218.5460 H   0  0  0  0  0  0  0  0  0  0  0  0
  143.6871   75.1850  221.5350 H   0  0  0  0  0  0  0  0  0  0  0  0
  145.3291   73.4306  222.0117 H   0  0  0  0  0  0  0  0  0  0  0  0
  146.0744   71.8745  220.2296 H   0  0  0  0  0  0  0  0  0  0  0  0
  143.4735   73.8815  217.4653 H   0  0  0  0  0  0  0  0  0  0  0  0
  139.3106   69.7113  222.6400 H   0  0  0  0  0  0  0  0  0  0  0  0
  138.8750   68.4626  224.7301 H   0  0  0  0  0  0  0  0  0  0  0  0
  139.0753   68.3105  227.1106 H   0  0  0  0  0  0  0  0  0  0  0  0
  139.8555   69.2679  229.2328 H   0  0  0  0  0  0  0  0  0  0  0  0
  141.0545   71.4340  229.3087 H   0  0  0  0  0  0  0  0  0  0  0  0
  141.4733   72.6551  227.1909 H   0  0  0  0  0  0  0  0  0  0  0  0
  1  2  2  0
  2  3  1  0
  3  4  1  0
  4  5  1  0
  5  6  2  0
  5  7  1  0
  7  8  1  0
  8  9  1  0
  9 10  1  0
 10 11  1  0
 11 12  1  0
 12 13  2  0
 13 14  1  0
 14 15  2  0
 15 16  1  0
 16 17  1  0
 16 18  2  0
  2 19  1  0
 19 20  2  0
 20 21  1  0
 21 22  2  0
 22 23  1  0
 23 24  2  0
 24 25  1  0
 25 26  2  0
 26 27  1  0
 27 28  2  0
 11  7  1  0
 18 12  1  0
 28 19  1  0
 27 22  1  0
  3 29  1  0
  4 30  1  0
  4 31  1  0
  8 32  1  0
  8 33  1  0
  9 34  1  0
  9 35  1  0
 10 36  1  0
 10 37  1  0
 11 38  1  6
 13 39  1  0
 14 40  1  0
 15 41  1  0
 18 42  1  0
 20 43  1  0
 21 44  1  0
 23 45  1  0
 24 46  1  0
 25 47  1  0
 26 48  1  0
M  END
>  <smiles>  (70) 
O=C(NCC(=O)N1CCCC1c1cccc(Cl)c1)c1ccc2ccccc2n1

>  <score_type>  (70) 
oracle

>  <origin>  (70) 
autodockgpu

>  <m_score__min__energy>  (70) 
-9.1600000000000001

>  <m_primary>  (70) 
energy

>  <rmsd>  (70) 
2.337255680949413

>  <m_score__min__rmsd>  (70) 
2.337255680949413

>  <meeko>  (70) 
{"free_energy": -8.47, "intermolecular_energy": -9.96, "internal_energy": -1.88, "cluster_size": 33, "cluster_id": 1, "rank_in_cluster": 32}

>  <energy>  (70) 
-9.04

>  <cluster_rmsd>  (70) 
0.12

>  <cluster>  (70) 
1

$$$$

     RDKit          3D

 48 51  0  0  0  0  0  0  0  0999 V2000
  140.1850   71.5020  221.2420 O   0  0  0  0  0  0  0  0  0  0  0  0
  139.9900   72.0780  222.3400 C   0  0  0  0  0  0  0  0  0  0  0  0
  139.7410   73.4700  222.3460 N   0  0  0  0  0  0  0  0  0  0  0  0
  139.7080   74.2350  221.0900 C   0  0  0  0  0  0  0  0  0  0  0  0
  140.1740   75.6240  221.3190 C   0  0  0  0  0  0  0  0  0  0  0  0
  139.9640   76.1260  222.4630 O   0  0  0  0  0  0  0  0  0  0  0  0
  140.8270   76.4160  220.3560 N   0  0  0  0  0  0  0  0  0  0  0  0
  140.5190   76.2790  218.9160 C   0  0  0  0  0  0  0  0  0  0  0  0
  141.7700   76.8910  218.2640 C   0  0  0  0  0  0  0  0  0  0  0  0
  142.2230   77.9270  219.2620 C   0  0  0  0  0  0  0  0  0  0  0  0
  141.8110   77.3910  220.5830 C   0  0  1  0  0  0  0  0  0  0  0  0
  141.4750   78.4360  221.5670 C   0  0  0  0  0  0  0  0  0  0  0  0
  141.7370   78.2760  222.9210 C   0  0  0  0  0  0  0  0  0  0  0  0
  141.4320   79.2410  223.8580 C   0  0  0  0  0  0  0  0  0  0  0  0
  140.8450   80.4230  223.4850 C   0  0  0  0  0  0  0  0  0  0  0  0
  140.5720   80.6150  222.1490 C   0  0  0  0  0  0  0  0  0  0  0  0
  139.8270   82.0890  221.5930 Cl  0  0  0  0  0  0  0  0  0  0  0  0
  140.8780   79.6470  221.2150 C   0  0  0  0  0  0  0  0  0  0  0  0
  140.0180   71.3340  223.5940 C   0  0  0  0  0  0  0  0  0  0  0  0
  139.5490   70.0280  223.6270 C   0  0  0  0  0  0  0  0  0  0  0  0
  139.5560   69.2880  224.7850 C   0  0  0  0  0  0  0  0  0  0  0  0
  140.0400   69.8640  225.9280 C   0  0  0  0  0  0  0  0  0  0  0  0
  140.0590   69.1480  227.1010 C   0  0  0  0  0  0  0  0  0  0  0  0
  140.5470   69.7390  228.2330 C   0  0  0  0  0  0  0  0  0  0  0  0
  141.0230   71.0360  228.2390 C   0  0  0  0  0  0  0  0  0  0  0  0
  141.0020   71.7460  227.0670 C   0  0  0  0  0  0  0  0  0  0  0  0
  140.5090   71.1630  225.9030 C   0  0  0  0  0  0  0  0  0  0  0  0
  140.4920   71.8710  224.7460 N   0  0  0  0  0  0  0  0  0  0  0  0
  139.5740   73.9830  223.2490 H   0  0  0  0  0  0  0  0  0  0  0  0
  140.3639   73.7495  220.3524 H   0  0  0  0  0  0  0  0  0  0  0  0
  138.6740   74.2624  220.7157 H   0  0  0  0  0  0  0  0  0  0  0  0
  140.3956   75.2235  218.6320 H   0  0  0  0  0  0  0  0  0  0  0  0
  139.5787   76.7638  218.6147 H   0  0  0  0  0  0  0  0  0  0  0  0
  142.5466   76.1270  218.1119 H   0  0  0  0  0  0  0  0  0  0  0  0
  141.5677   77.3165  217.2700 H   0  0  0  0  0  0  0  0  0  0  0  0
  143.3148   78.0540  219.2194 H   0  0  0  0  0  0  0  0  0  0  0  0
  141.7838   78.9153  219.0610 H   0  0  0  0  0  0  0  0  0  0  0  0
  142.6595   76.9018  221.0838 H   0  0  0  0  0  0  0  0  0  0  0  0
  142.2071   77.3412  223.2604 H   0  0  0  0  0  0  0  0  0  0  0  0
  141.6626   79.0602  224.9183 H   0  0  0  0  0  0  0  0  0  0  0  0
  140.5998   81.1941  224.2302 H   0  0  0  0  0  0  0  0  0  0  0  0
  140.6435   79.8362  220.1571 H   0  0  0  0  0  0  0  0  0  0  0  0
  139.1619   69.5739  222.7029 H   0  0  0  0  0  0  0  0  0  0  0  0
  139.1803   68.2542  224.7929 H   0  0  0  0  0  0  0  0  0  0  0  0
  139.6866   68.1133  227.1286 H   0  0  0  0  0  0  0  0  0  0  0  0
  140.5611   69.1629  229.1700 H   0  0  0  0  0  0  0  0  0  0  0  0
  141.4102   71.4886  229.1638 H   0  0  0  0  0  0  0  0  0  0  0  0
  141.3760   72.7802  227.0460 H   0  0  0  0  0  0  0  0  0  0  0  0
  1  2  2  0
  2  3  1  0
  3  4  1  0
  4  5  1  0
  5  6  2  0
  5  7  1  0
  7  8  1  0
  8  9  1  0
  9 10  1  0
 10 11  1  0
 11 12  1  0
 12 13  2  0
 13 14  1  0
 14 15  2  0
 15 16  1  0
 16 17  1  0
 16 18  2  0
  2 19  1  0
 19 20  2  0
 20 21  1  0
 21 22  2  0
 22 23  1  0
 23 24  2  0
 24 25  1  0
 25 26  2  0
 26 27  1  0
 27 28  2  0
 11  7  1  0
 18 12  1  0
 28 19  1  0
 27 22  1  0
  3 29  1  0
  4 30  1  0
  4 31  1  0
  8 32  1  0
  8 33  1  0
  9 34  1  0
  9 35  1  0
 10 36  1  0
 10 37  1  0
 11 38  1  1
 13 39  1  0
 14 40  1  0
 15 41  1  0
 18 42  1  0
 20 43  1  0
 21 44  1  0
 23 45  1  0
 24 46  1  0
 25 47  1  0
 26 48  1  0
M  END
>  <smiles>  (71) 
O=C(NCC(=O)N1CCCC1c1cccc(Cl)c1)c1ccc2ccccc2n1

>  <score_type>  (71) 
oracle

>  <origin>  (71) 
autodockgpu

>  <m_score__min__energy>  (71) 
-9.1600000000000001

>  <m_primary>  (71) 
energy

>  <rmsd>  (71) 
1.5075798264971272

>  <m_score__min__rmsd>  (71) 
1.5075798264971272

>  <meeko>  (71) 
{"free_energy": -8.73, "intermolecular_energy": -10.23, "internal_energy": -1.69, "cluster_size": 10, "cluster_id": 2, "rank_in_cluster": 7}

>  <energy>  (71) 
-9.04

>  <cluster_rmsd>  (71) 
0.41

>  <cluster>  (71) 
1

$$$$

     RDKit          3D

 48 51  0  0  0  0  0  0  0  0999 V2000
  139.9140   71.2650  221.3170 O   0  0  0  0  0  0  0  0  0  0  0  0
  139.8250   71.8970  222.3980 C   0  0  0  0  0  0  0  0  0  0  0  0
  139.6400   73.2980  222.3570 N   0  0  0  0  0  0  0  0  0  0  0  0
  139.5520   74.0100  221.0720 C   0  0  0  0  0  0  0  0  0  0  0  0
  140.8970   74.1450  220.4630 C   0  0  0  0  0  0  0  0  0  0  0  0
  141.4900   73.0780  220.1200 O   0  0  0  0  0  0  0  0  0  0  0  0
  141.5550   75.3700  220.2420 N   0  0  0  0  0  0  0  0  0  0  0  0
  141.2250   76.5700  221.0410 C   0  0  0  0  0  0  0  0  0  0  0  0
  141.7490   77.7020  220.1430 C   0  0  0  0  0  0  0  0  0  0  0  0
  142.9110   77.0740  219.4160 C   0  0  0  0  0  0  0  0  0  0  0  0
  142.5560   75.6380  219.2960 C   0  0  1  0  0  0  0  0  0  0  0  0
  143.7230   74.7380  219.3100 C   0  0  0  0  0  0  0  0  0  0  0  0
  144.1560   74.0870  218.1620 C   0  0  0  0  0  0  0  0  0  0  0  0
  145.2460   73.2410  218.1520 C   0  0  0  0  0  0  0  0  0  0  0  0
  145.9600   73.0010  219.2970 C   0  0  0  0  0  0  0  0  0  0  0  0
  145.5570   73.6310  220.4540 C   0  0  0  0  0  0  0  0  0  0  0  0
  146.4120   73.3790  221.9520 Cl  0  0  0  0  0  0  0  0  0  0  0  0
  144.4670   74.4760  220.4600 C   0  0  0  0  0  0  0  0  0  0  0  0
  139.9090   71.2080  223.6800 C   0  0  0  0  0  0  0  0  0  0  0  0
  139.4580   69.8990  223.7850 C   0  0  0  0  0  0  0  0  0  0  0  0
  139.5170   69.2090  224.9730 C   0  0  0  0  0  0  0  0  0  0  0  0
  140.0350   69.8390  226.0720 C   0  0  0  0  0  0  0  0  0  0  0  0
  140.1060   69.1730  227.2720 C   0  0  0  0  0  0  0  0  0  0  0  0
  140.6270   69.8170  228.3590 C   0  0  0  0  0  0  0  0  0  0  0  0
  141.0860   71.1190  228.2930 C   0  0  0  0  0  0  0  0  0  0  0  0
  141.0130   71.7780  227.0940 C   0  0  0  0  0  0  0  0  0  0  0  0
  140.4860   71.1400  225.9750 C   0  0  0  0  0  0  0  0  0  0  0  0
  140.4160   71.7990  224.7900 N   0  0  0  0  0  0  0  0  0  0  0  0
  139.5610   73.8580  223.2450 H   0  0  0  0  0  0  0  0  0  0  0  0
  138.8998   73.4460  220.3890 H   0  0  0  0  0  0  0  0  0  0  0  0
  139.1374   75.0136  221.2477 H   0  0  0  0  0  0  0  0  0  0  0  0
  140.1405   76.6571  221.2030 H   0  0  0  0  0  0  0  0  0  0  0  0
  141.6610   76.5655  222.0509 H   0  0  0  0  0  0  0  0  0  0  0  0
  140.9745   78.0307  219.4344 H   0  0  0  0  0  0  0  0  0  0  0  0
  142.0368   78.5984  220.7119 H   0  0  0  0  0  0  0  0  0  0  0  0
  143.0350   77.5264  218.4210 H   0  0  0  0  0  0  0  0  0  0  0  0
  143.8617   77.2222  219.9492 H   0  0  0  0  0  0  0  0  0  0  0  0
  142.1422   75.4218  218.3000 H   0  0  0  0  0  0  0  0  0  0  0  0
  143.6078   74.2526  217.2228 H   0  0  0  0  0  0  0  0  0  0  0  0
  145.5458   72.7529  217.2129 H   0  0  0  0  0  0  0  0  0  0  0  0
  146.8284   72.3259  219.2923 H   0  0  0  0  0  0  0  0  0  0  0  0
  144.1746   74.9596  221.4038 H   0  0  0  0  0  0  0  0  0  0  0  0
  139.0432   69.4016  222.8959 H   0  0  0  0  0  0  0  0  0  0  0  0
  139.1554   68.1722  225.0386 H   0  0  0  0  0  0  0  0  0  0  0  0
  139.7485   68.1361  227.3564 H   0  0  0  0  0  0  0  0  0  0  0  0
  140.6829   69.2814  229.3182 H   0  0  0  0  0  0  0  0  0  0  0  0
  141.5006   71.6150  229.1830 H   0  0  0  0  0  0  0  0  0  0  0  0
  141.3721   72.8148  227.0155 H   0  0  0  0  0  0  0  0  0  0  0  0
  1  2  2  0
  2  3  1  0
  3  4  1  0
  4  5  1  0
  5  6  2  0
  5  7  1  0
  7  8  1  0
  8  9  1  0
  9 10  1  0
 10 11  1  0
 11 12  1  0
 12 13  2  0
 13 14  1  0
 14 15  2  0
 15 16  1  0
 16 17  1  0
 16 18  2  0
  2 19  1  0
 19 20  2  0
 20 21  1  0
 21 22  2  0
 22 23  1  0
 23 24  2  0
 24 25  1  0
 25 26  2  0
 26 27  1  0
 27 28  2  0
 11  7  1  0
 18 12  1  0
 28 19  1  0
 27 22  1  0
  3 29  1  0
  4 30  1  0
  4 31  1  0
  8 32  1  0
  8 33  1  0
  9 34  1  0
  9 35  1  0
 10 36  1  0
 10 37  1  0
 11 38  1  6
 13 39  1  0
 14 40  1  0
 15 41  1  0
 18 42  1  0
 20 43  1  0
 21 44  1  0
 23 45  1  0
 24 46  1  0
 25 47  1  0
 26 48  1  0
M  END
>  <smiles>  (72) 
O=C(NCC(=O)N1CCCC1c1cccc(Cl)c1)c1ccc2ccccc2n1

>  <score_type>  (72) 
oracle

>  <origin>  (72) 
autodockgpu

>  <m_score__min__energy>  (72) 
-9.1600000000000001

>  <m_primary>  (72) 
energy

>  <rmsd>  (72) 
2.1581233580209638

>  <m_score__min__rmsd>  (72) 
2.1581233580209638

>  <meeko>  (72) 
{"free_energy": -8.86, "intermolecular_energy": -10.35, "internal_energy": -1.41, "cluster_size": 33, "cluster_id": 1, "rank_in_cluster": 30}

>  <energy>  (72) 
-9.02

>  <cluster_rmsd>  (72) 
0.88

>  <cluster>  (72) 
1

$$$$

     RDKit          3D

 48 51  0  0  0  0  0  0  0  0999 V2000
  140.5550   71.4870  221.3150 O   0  0  0  0  0  0  0  0  0  0  0  0
  140.1960   72.0510  222.3780 C   0  0  0  0  0  0  0  0  0  0  0  0
  139.8580   73.4230  222.3410 N   0  0  0  0  0  0  0  0  0  0  0  0
  139.9220   74.1830  221.0830 C   0  0  0  0  0  0  0  0  0  0  0  0
  140.6390   75.4640  221.2880 C   0  0  0  0  0  0  0  0  0  0  0  0
  140.4380   76.0740  222.3800 O   0  0  0  0  0  0  0  0  0  0  0  0
  141.5210   76.0440  220.3560 N   0  0  0  0  0  0  0  0  0  0  0  0
  141.8260   77.4900  220.3890 C   0  0  0  0  0  0  0  0  0  0  0  0
  142.3450   77.7370  218.9630 C   0  0  0  0  0  0  0  0  0  0  0  0
  142.9810   76.4240  218.5820 C   0  0  0  0  0  0  0  0  0  0  0  0
  142.2040   75.3950  219.3160 C   0  0  1  0  0  0  0  0  0  0  0  0
  142.9980   74.2130  219.6960 C   0  0  0  0  0  0  0  0  0  0  0  0
  142.6000   72.9260  219.3570 C   0  0  0  0  0  0  0  0  0  0  0  0
  143.3280   71.8070  219.7020 C   0  0  0  0  0  0  0  0  0  0  0  0
  144.4980   71.9190  220.4090 C   0  0  0  0  0  0  0  0  0  0  0  0
  144.9220   73.1810  220.7610 C   0  0  0  0  0  0  0  0  0  0  0  0
  146.3980   73.4090  221.6590 Cl  0  0  0  0  0  0  0  0  0  0  0  0
  144.1910   74.2980  220.4140 C   0  0  0  0  0  0  0  0  0  0  0  0
  140.1260   71.3130  223.6340 C   0  0  0  0  0  0  0  0  0  0  0  0
  139.5790   70.0380  223.6490 C   0  0  0  0  0  0  0  0  0  0  0  0
  139.4920   69.3040  224.8090 C   0  0  0  0  0  0  0  0  0  0  0  0
  139.9600   69.8560  225.9700 C   0  0  0  0  0  0  0  0  0  0  0  0
  139.8860   69.1460  227.1440 C   0  0  0  0  0  0  0  0  0  0  0  0
  140.3580   69.7130  228.2950 C   0  0  0  0  0  0  0  0  0  0  0  0
  140.9100   70.9800  228.3180 C   0  0  0  0  0  0  0  0  0  0  0  0
  140.9810   71.6830  227.1450 C   0  0  0  0  0  0  0  0  0  0  0  0
  140.5060   71.1250  225.9620 C   0  0  0  0  0  0  0  0  0  0  0  0
  140.5800   71.8270  224.8030 N   0  0  0  0  0  0  0  0  0  0  0  0
  139.5520   73.9270  223.2140 H   0  0  0  0  0  0  0  0  0  0  0  0
  140.4538   73.5872  220.3265 H   0  0  0  0  0  0  0  0  0  0  0  0
  138.8979   74.3981  220.7440 H   0  0  0  0  0  0  0  0  0  0  0  0
  140.9238   78.0846  220.5951 H   0  0  0  0  0  0  0  0  0  0  0  0
  142.5381   77.7763  221.1771 H   0  0  0  0  0  0  0  0  0  0  0  0
  141.5176   77.9844  218.2817 H   0  0  0  0  0  0  0  0  0  0  0  0
  143.0457   78.5830  218.9048 H   0  0  0  0  0  0  0  0  0  0  0  0
  142.9106   76.2606  217.4965 H   0  0  0  0  0  0  0  0  0  0  0  0
  144.0509   76.3936  218.8358 H   0  0  0  0  0  0  0  0  0  0  0  0
  141.4529   74.9332  218.6582 H   0  0  0  0  0  0  0  0  0  0  0  0
  141.6664   72.7943  218.7904 H   0  0  0  0  0  0  0  0  0  0  0  0
  142.9657   70.8114  219.4063 H   0  0  0  0  0  0  0  0  0  0  0  0
  145.0800   71.0277  220.6864 H   0  0  0  0  0  0  0  0  0  0  0  0
  144.5613   75.2895  220.7136 H   0  0  0  0  0  0  0  0  0  0  0  0
  139.2057   69.6034  222.7100 H   0  0  0  0  0  0  0  0  0  0  0  0
  139.0553   68.2944  224.8033 H   0  0  0  0  0  0  0  0  0  0  0  0
  139.4528   68.1350  227.1576 H   0  0  0  0  0  0  0  0  0  0  0  0
  140.2965   69.1423  229.2334 H   0  0  0  0  0  0  0  0  0  0  0  0
  141.2838   71.4138  229.2572 H   0  0  0  0  0  0  0  0  0  0  0  0
  141.4155   72.6935  227.1378 H   0  0  0  0  0  0  0  0  0  0  0  0
  1  2  2  0
  2  3  1  0
  3  4  1  0
  4  5  1  0
  5  6  2  0
  5  7  1  0
  7  8  1  0
  8  9  1  0
  9 10  1  0
 10 11  1  0
 11 12  1  0
 12 13  2  0
 13 14  1  0
 14 15  2  0
 15 16  1  0
 16 17  1  0
 16 18  2  0
  2 19  1  0
 19 20  2  0
 20 21  1  0
 21 22  2  0
 22 23  1  0
 23 24  2  0
 24 25  1  0
 25 26  2  0
 26 27  1  0
 27 28  2  0
 11  7  1  0
 18 12  1  0
 28 19  1  0
 27 22  1  0
  3 29  1  0
  4 30  1  0
  4 31  1  0
  8 32  1  0
  8 33  1  0
  9 34  1  0
  9 35  1  0
 10 36  1  0
 10 37  1  0
 11 38  1  6
 13 39  1  0
 14 40  1  0
 15 41  1  0
 18 42  1  0
 20 43  1  0
 21 44  1  0
 23 45  1  0
 24 46  1  0
 25 47  1  0
 26 48  1  0
M  END
>  <smiles>  (73) 
O=C(NCC(=O)N1CCCC1c1cccc(Cl)c1)c1ccc2ccccc2n1

>  <score_type>  (73) 
oracle

>  <origin>  (73) 
autodockgpu

>  <m_score__min__energy>  (73) 
-9.1600000000000001

>  <m_primary>  (73) 
energy

>  <rmsd>  (73) 
2.224211125825429

>  <m_score__min__rmsd>  (73) 
2.224211125825429

>  <meeko>  (73) 
{"free_energy": -9.11, "intermolecular_energy": -10.6, "internal_energy": -2.02, "cluster_size": 33, "cluster_id": 1, "rank_in_cluster": 14}

>  <energy>  (73) 
-9.02

>  <cluster_rmsd>  (73) 
0.88

>  <cluster>  (73) 
1

$$$$

     RDKit          3D

 48 51  0  0  0  0  0  0  0  0999 V2000
  137.3990   76.0390  222.2740 O   0  0  0  0  0  0  0  0  0  0  0  0
  138.6400   76.1620  222.4100 C   0  0  0  0  0  0  0  0  0  0  0  0
  139.4600   75.0190  222.2680 N   0  0  0  0  0  0  0  0  0  0  0  0
  138.8730   73.7040  221.9650 C   0  0  0  0  0  0  0  0  0  0  0  0
  139.9130   72.6480  222.0220 C   0  0  0  0  0  0  0  0  0  0  0  0
  141.0650   72.9880  222.4260 O   0  0  0  0  0  0  0  0  0  0  0  0
  139.7060   71.3040  221.6580 N   0  0  0  0  0  0  0  0  0  0  0  0
  140.3410   70.7320  220.4510 C   0  0  0  0  0  0  0  0  0  0  0  0
  139.4530   69.5070  220.1760 C   0  0  0  0  0  0  0  0  0  0  0  0
  138.9810   69.0930  221.5470 C   0  0  0  0  0  0  0  0  0  0  0  0
  138.9200   70.3540  222.3270 C   0  0  1  0  0  0  0  0  0  0  0  0
  139.1970   70.1750  223.7640 C   0  0  0  0  0  0  0  0  0  0  0  0
  138.6000   69.1620  224.5020 C   0  0  0  0  0  0  0  0  0  0  0  0
  138.8460   68.9750  225.8460 C   0  0  0  0  0  0  0  0  0  0  0  0
  139.7060   69.7990  226.5240 C   0  0  0  0  0  0  0  0  0  0  0  0
  140.3170   70.8150  225.8220 C   0  0  0  0  0  0  0  0  0  0  0  0
  141.4240   71.9060  226.6110 Cl  0  0  0  0  0  0  0  0  0  0  0  0
  140.0680   70.9980  224.4780 C   0  0  0  0  0  0  0  0  0  0  0  0
  139.2380   77.4580  222.7100 C   0  0  0  0  0  0  0  0  0  0  0  0
  138.4190   78.5380  223.0090 C   0  0  0  0  0  0  0  0  0  0  0  0
  138.9380   79.7780  223.2990 C   0  0  0  0  0  0  0  0  0  0  0  0
  140.2960   79.9390  223.2890 C   0  0  0  0  0  0  0  0  0  0  0  0
  140.8420   81.1670  223.5740 C   0  0  0  0  0  0  0  0  0  0  0  0
  142.2020   81.3110  223.5600 C   0  0  0  0  0  0  0  0  0  0  0  0
  143.0490   80.2590  223.2670 C   0  0  0  0  0  0  0  0  0  0  0  0
  142.5000   79.0360  222.9830 C   0  0  0  0  0  0  0  0  0  0  0  0
  141.1180   78.8690  222.9920 C   0  0  0  0  0  0  0  0  0  0  0  0
  140.5800   77.6550  222.7100 N   0  0  0  0  0  0  0  0  0  0  0  0
  140.5050   75.0870  222.3770 H   0  0  0  0  0  0  0  0  0  0  0  0
  138.0875   73.4793  222.7016 H   0  0  0  0  0  0  0  0  0  0  0  0
  138.4451   73.7291  220.9519 H   0  0  0  0  0  0  0  0  0  0  0  0
  140.3152   71.4416  219.6109 H   0  0  0  0  0  0  0  0  0  0  0  0
  141.4058   70.4889  220.5817 H   0  0  0  0  0  0  0  0  0  0  0  0
  138.6021   69.7757  219.5327 H   0  0  0  0  0  0  0  0  0  0  0  0
  139.9870   68.7031  219.6481 H   0  0  0  0  0  0  0  0  0  0  0  0
  137.9871   68.6253  221.4892 H   0  0  0  0  0  0  0  0  0  0  0  0
  139.6502   68.3523  222.0091 H   0  0  0  0  0  0  0  0  0  0  0  0
  137.8897   70.7377  222.3633 H   0  0  0  0  0  0  0  0  0  0  0  0
  137.9020   68.4804  223.9938 H   0  0  0  0  0  0  0  0  0  0  0  0
  138.3456   68.1541  226.3806 H   0  0  0  0  0  0  0  0  0  0  0  0
  139.9026   69.6536  227.5965 H   0  0  0  0  0  0  0  0  0  0  0  0
  140.5733   71.8208  223.9512 H   0  0  0  0  0  0  0  0  0  0  0  0
  137.3279   78.3986  223.0141 H   0  0  0  0  0  0  0  0  0  0  0  0
  138.2744   80.6231  223.5342 H   0  0  0  0  0  0  0  0  0  0  0  0
  140.1936   82.0235  223.8105 H   0  0  0  0  0  0  0  0  0  0  0  0
  142.6355   82.2956  223.7893 H   0  0  0  0  0  0  0  0  0  0  0  0
  144.1399   80.4003  223.2619 H   0  0  0  0  0  0  0  0  0  0  0  0
  143.1536   78.1833  222.7471 H   0  0  0  0  0  0  0  0  0  0  0  0
  1  2  2  0
  2  3  1  0
  3  4  1  0
  4  5  1  0
  5  6  2  0
  5  7  1  0
  7  8  1  0
  8  9  1  0
  9 10  1  0
 10 11  1  0
 11 12  1  0
 12 13  2  0
 13 14  1  0
 14 15  2  0
 15 16  1  0
 16 17  1  0
 16 18  2  0
  2 19  1  0
 19 20  2  0
 20 21  1  0
 21 22  2  0
 22 23  1  0
 23 24  2  0
 24 25  1  0
 25 26  2  0
 26 27  1  0
 27 28  2  0
 11  7  1  0
 18 12  1  0
 28 19  1  0
 27 22  1  0
  3 29  1  0
  4 30  1  0
  4 31  1  0
  8 32  1  0
  8 33  1  0
  9 34  1  0
  9 35  1  0
 10 36  1  0
 10 37  1  0
 11 38  1  1
 13 39  1  0
 14 40  1  0
 15 41  1  0
 18 42  1  0
 20 43  1  0
 21 44  1  0
 23 45  1  0
 24 46  1  0
 25 47  1  0
 26 48  1  0
M  END
>  <smiles>  (74) 
O=C(NCC(=O)N1CCCC1c1cccc(Cl)c1)c1ccc2ccccc2n1

>  <score_type>  (74) 
oracle

>  <origin>  (74) 
autodockgpu

>  <m_score__min__energy>  (74) 
-9.1600000000000001

>  <m_primary>  (74) 
energy

>  <rmsd>  (74) 
8.198148624316342

>  <m_score__min__rmsd>  (74) 
8.198148624316342

>  <meeko>  (74) 
{"free_energy": -7.98, "intermolecular_energy": -9.47, "internal_energy": -1.9, "cluster_size": 4, "cluster_id": 3, "rank_in_cluster": 4}

>  <energy>  (74) 
-9.02

>  <cluster_rmsd>  (74) 
0.87

>  <cluster>  (74) 
1

$$$$

     RDKit          3D

 48 51  0  0  0  0  0  0  0  0999 V2000
  140.7080   71.5020  221.2790 O   0  0  0  0  0  0  0  0  0  0  0  0
  140.2980   72.0570  222.3280 C   0  0  0  0  0  0  0  0  0  0  0  0
  139.9470   73.4260  222.2840 N   0  0  0  0  0  0  0  0  0  0  0  0
  140.0560   74.1920  221.0330 C   0  0  0  0  0  0  0  0  0  0  0  0
  140.9440   75.3640  221.2200 C   0  0  0  0  0  0  0  0  0  0  0  0
  140.9940   75.8770  222.3780 O   0  0  0  0  0  0  0  0  0  0  0  0
  141.7300   75.9410  220.2040 N   0  0  0  0  0  0  0  0  0  0  0  0
  141.9920   77.3960  220.1730 C   0  0  0  0  0  0  0  0  0  0  0  0
  142.3870   77.6160  218.7030 C   0  0  0  0  0  0  0  0  0  0  0  0
  143.0300   76.3110  218.3070 C   0  0  0  0  0  0  0  0  0  0  0  0
  142.3460   75.2820  219.1290 C   0  0  1  0  0  0  0  0  0  0  0  0
  143.2040   74.1350  219.4750 C   0  0  0  0  0  0  0  0  0  0  0  0
  142.9780   72.8690  218.9480 C   0  0  0  0  0  0  0  0  0  0  0  0
  143.7690   71.7820  219.2580 C   0  0  0  0  0  0  0  0  0  0  0  0
  144.8310   71.9070  220.1150 C   0  0  0  0  0  0  0  0  0  0  0  0
  145.0840   73.1490  220.6550 C   0  0  0  0  0  0  0  0  0  0  0  0
  146.4160   73.3910  221.7530 Cl  0  0  0  0  0  0  0  0  0  0  0  0
  144.2910   74.2330  220.3430 C   0  0  0  0  0  0  0  0  0  0  0  0
  140.1830   71.3110  223.5760 C   0  0  0  0  0  0  0  0  0  0  0  0
  139.5970   70.0540  223.5710 C   0  0  0  0  0  0  0  0  0  0  0  0
  139.4670   69.3140  224.7230 C   0  0  0  0  0  0  0  0  0  0  0  0
  139.9310   69.8420  225.8970 C   0  0  0  0  0  0  0  0  0  0  0  0
  139.8150   69.1260  227.0640 C   0  0  0  0  0  0  0  0  0  0  0  0
  140.2840   69.6680  228.2270 C   0  0  0  0  0  0  0  0  0  0  0  0
  140.8740   70.9170  228.2710 C   0  0  0  0  0  0  0  0  0  0  0  0
  140.9880   71.6280  227.1050 C   0  0  0  0  0  0  0  0  0  0  0  0
  140.5160   71.0930  225.9090 C   0  0  0  0  0  0  0  0  0  0  0  0
  140.6320   71.8020  224.7580 N   0  0  0  0  0  0  0  0  0  0  0  0
  139.6000   73.9210  223.1450 H   0  0  0  0  0  0  0  0  0  0  0  0
  140.4713   73.5445  220.2466 H   0  0  0  0  0  0  0  0  0  0  0  0
  139.0555   74.5453  220.7428 H   0  0  0  0  0  0  0  0  0  0  0  0
  141.0914   77.9704  220.4355 H   0  0  0  0  0  0  0  0  0  0  0  0
  142.7560   77.7255  220.8926 H   0  0  0  0  0  0  0  0  0  0  0  0
  141.5003   77.8200  218.0848 H   0  0  0  0  0  0  0  0  0  0  0  0
  143.0546   78.4794  218.5654 H   0  0  0  0  0  0  0  0  0  0  0  0
  142.8777   76.1142  217.2355 H   0  0  0  0  0  0  0  0  0  0  0  0
  144.1172   76.3182  218.4740 H   0  0  0  0  0  0  0  0  0  0  0  0
  141.5587   74.7809  218.5467 H   0  0  0  0  0  0  0  0  0  0  0  0
  142.1346   72.7280  218.2560 H   0  0  0  0  0  0  0  0  0  0  0  0
  143.5443   70.8022  218.8114 H   0  0  0  0  0  0  0  0  0  0  0  0
  145.4626   71.0416  220.3643 H   0  0  0  0  0  0  0  0  0  0  0  0
  144.5239   75.2087  220.7944 H   0  0  0  0  0  0  0  0  0  0  0  0
  139.2270   69.6385  222.6221 H   0  0  0  0  0  0  0  0  0  0  0  0
  138.9997   68.3184  224.7011 H   0  0  0  0  0  0  0  0  0  0  0  0
  139.3504   68.1289  227.0618 H   0  0  0  0  0  0  0  0  0  0  0  0
  140.1889   69.0914  229.1590 H   0  0  0  0  0  0  0  0  0  0  0  0
  141.2438   71.3311  229.2206 H   0  0  0  0  0  0  0  0  0  0  0  0
  141.4538   72.6245  227.1138 H   0  0  0  0  0  0  0  0  0  0  0  0
  1  2  2  0
  2  3  1  0
  3  4  1  0
  4  5  1  0
  5  6  2  0
  5  7  1  0
  7  8  1  0
  8  9  1  0
  9 10  1  0
 10 11  1  0
 11 12  1  0
 12 13  2  0
 13 14  1  0
 14 15  2  0
 15 16  1  0
 16 17  1  0
 16 18  2  0
  2 19  1  0
 19 20  2  0
 20 21  1  0
 21 22  2  0
 22 23  1  0
 23 24  2  0
 24 25  1  0
 25 26  2  0
 26 27  1  0
 27 28  2  0
 11  7  1  0
 18 12  1  0
 28 19  1  0
 27 22  1  0
  3 29  1  0
  4 30  1  0
  4 31  1  0
  8 32  1  0
  8 33  1  0
  9 34  1  0
  9 35  1  0
 10 36  1  0
 10 37  1  0
 11 38  1  6
 13 39  1  0
 14 40  1  0
 15 41  1  0
 18 42  1  0
 20 43  1  0
 21 44  1  0
 23 45  1  0
 24 46  1  0
 25 47  1  0
 26 48  1  0
M  END
>  <smiles>  (75) 
O=C(NCC(=O)N1CCCC1c1cccc(Cl)c1)c1ccc2ccccc2n1

>  <score_type>  (75) 
oracle

>  <origin>  (75) 
autodockgpu

>  <m_score__min__energy>  (75) 
-9.1600000000000001

>  <m_primary>  (75) 
energy

>  <rmsd>  (75) 
2.2479623805703537

>  <m_score__min__rmsd>  (75) 
2.2479623805703537

>  <meeko>  (75) 
{"free_energy": -8.97, "intermolecular_energy": -10.46, "internal_energy": -1.94, "cluster_size": 33, "cluster_id": 1, "rank_in_cluster": 25}

>  <energy>  (75) 
-8.97

>  <cluster_rmsd>  (75) 
0.29

>  <cluster>  (75) 
1

$$$$

     RDKit          3D

 48 51  0  0  0  0  0  0  0  0999 V2000
  140.8160   71.6100  221.3330 O   0  0  0  0  0  0  0  0  0  0  0  0
  140.3560   72.1710  222.3570 C   0  0  0  0  0  0  0  0  0  0  0  0
  139.9930   73.5360  222.2830 N   0  0  0  0  0  0  0  0  0  0  0  0
  140.1490   74.2910  221.0300 C   0  0  0  0  0  0  0  0  0  0  0  0
  140.4470   75.7140  221.3170 C   0  0  0  0  0  0  0  0  0  0  0  0
  140.3640   76.0940  222.5230 O   0  0  0  0  0  0  0  0  0  0  0  0
  140.8130   76.6650  220.3450 N   0  0  0  0  0  0  0  0  0  0  0  0
  140.2260   76.6360  218.9880 C   0  0  0  0  0  0  0  0  0  0  0  0
  141.2540   77.4460  218.1810 C   0  0  0  0  0  0  0  0  0  0  0  0
  141.8080   78.4240  219.1860 C   0  0  0  0  0  0  0  0  0  0  0  0
  141.7290   77.7180  220.4900 C   0  0  1  0  0  0  0  0  0  0  0  0
  141.5110   78.6180  221.6370 C   0  0  0  0  0  0  0  0  0  0  0  0
  142.5710   79.1620  222.3500 C   0  0  0  0  0  0  0  0  0  0  0  0
  142.3900   80.0060  223.4260 C   0  0  0  0  0  0  0  0  0  0  0  0
  141.1310   80.3500  223.8460 C   0  0  0  0  0  0  0  0  0  0  0  0
  140.0560   79.8280  223.1600 C   0  0  0  0  0  0  0  0  0  0  0  0
  138.4230   80.2160  223.6310 Cl  0  0  0  0  0  0  0  0  0  0  0  0
  140.2420   78.9840  222.0850 C   0  0  0  0  0  0  0  0  0  0  0  0
  140.1940   71.4380  223.6080 C   0  0  0  0  0  0  0  0  0  0  0  0
  139.5100   70.2300  223.6090 C   0  0  0  0  0  0  0  0  0  0  0  0
  139.3330   69.5040  224.7630 C   0  0  0  0  0  0  0  0  0  0  0  0
  139.8480   69.9950  225.9320 C   0  0  0  0  0  0  0  0  0  0  0  0
  139.6860   69.2900  227.1010 C   0  0  0  0  0  0  0  0  0  0  0  0
  140.2070   69.7940  228.2600 C   0  0  0  0  0  0  0  0  0  0  0  0
  140.8930   70.9930  228.2960 C   0  0  0  0  0  0  0  0  0  0  0  0
  141.0520   71.6920  227.1290 C   0  0  0  0  0  0  0  0  0  0  0  0
  140.5290   71.1960  225.9380 C   0  0  0  0  0  0  0  0  0  0  0  0
  140.6900   71.8930  224.7850 N   0  0  0  0  0  0  0  0  0  0  0  0
  139.6050   74.0370  223.1230 H   0  0  0  0  0  0  0  0  0  0  0  0
  140.9752   73.8583  220.4468 H   0  0  0  0  0  0  0  0  0  0  0  0
  139.2108   74.2315  220.4588 H   0  0  0  0  0  0  0  0  0  0  0  0
  140.1422   75.6063  218.6102 H   0  0  0  0  0  0  0  0  0  0  0  0
  139.2036   77.0387  218.9371 H   0  0  0  0  0  0  0  0  0  0  0  0
  142.0483   76.7930  217.7903 H   0  0  0  0  0  0  0  0  0  0  0  0
  140.8123   77.9411  217.3036 H   0  0  0  0  0  0  0  0  0  0  0  0
  142.8511   78.6769  218.9454 H   0  0  0  0  0  0  0  0  0  0  0  0
  141.2489   79.3713  219.1935 H   0  0  0  0  0  0  0  0  0  0  0  0
  142.7030   77.2808  220.7550 H   0  0  0  0  0  0  0  0  0  0  0  0
  143.5971   78.9096  222.0443 H   0  0  0  0  0  0  0  0  0  0  0  0
  143.2672   80.4083  223.9539 H   0  0  0  0  0  0  0  0  0  0  0  0
  140.9836   81.0221  224.7042 H   0  0  0  0  0  0  0  0  0  0  0  0
  139.3592   78.5860  221.5632 H   0  0  0  0  0  0  0  0  0  0  0  0
  139.0998   69.8445  222.6639 H   0  0  0  0  0  0  0  0  0  0  0  0
  138.7887   68.5482  224.7470 H   0  0  0  0  0  0  0  0  0  0  0  0
  139.1442   68.3327  227.1037 H   0  0  0  0  0  0  0  0  0  0  0  0
  140.0760   69.2271  229.1935 H   0  0  0  0  0  0  0  0  0  0  0  0
  141.3026   71.3778  229.2416 H   0  0  0  0  0  0  0  0  0  0  0  0
  141.5949   72.6487  227.1328 H   0  0  0  0  0  0  0  0  0  0  0  0
  1  2  2  0
  2  3  1  0
  3  4  1  0
  4  5  1  0
  5  6  2  0
  5  7  1  0
  7  8  1  0
  8  9  1  0
  9 10  1  0
 10 11  1  0
 11 12  1  0
 12 13  2  0
 13 14  1  0
 14 15  2  0
 15 16  1  0
 16 17  1  0
 16 18  2  0
  2 19  1  0
 19 20  2  0
 20 21  1  0
 21 22  2  0
 22 23  1  0
 23 24  2  0
 24 25  1  0
 25 26  2  0
 26 27  1  0
 27 28  2  0
 11  7  1  0
 18 12  1  0
 28 19  1  0
 27 22  1  0
  3 29  1  0
  4 30  1  0
  4 31  1  0
  8 32  1  0
  8 33  1  0
  9 34  1  0
  9 35  1  0
 10 36  1  0
 10 37  1  0
 11 38  1  1
 13 39  1  0
 14 40  1  0
 15 41  1  0
 18 42  1  0
 20 43  1  0
 21 44  1  0
 23 45  1  0
 24 46  1  0
 25 47  1  0
 26 48  1  0
M  END
>  <smiles>  (76) 
O=C(NCC(=O)N1CCCC1c1cccc(Cl)c1)c1ccc2ccccc2n1

>  <score_type>  (76) 
oracle

>  <origin>  (76) 
autodockgpu

>  <m_score__min__energy>  (76) 
-9.1600000000000001

>  <m_primary>  (76) 
energy

>  <rmsd>  (76) 
1.6363479488798638

>  <m_score__min__rmsd>  (76) 
1.6363479488798638

>  <meeko>  (76) 
{"free_energy": -9.08, "intermolecular_energy": -10.57, "internal_energy": -1.73, "cluster_size": 10, "cluster_id": 2, "rank_in_cluster": 3}

>  <energy>  (76) 
-8.97

>  <cluster_rmsd>  (76) 
0.18

>  <cluster>  (76) 
1

$$$$

     RDKit          3D

 48 51  0  0  0  0  0  0  0  0999 V2000
  140.5940   71.4830  221.3460 O   0  0  0  0  0  0  0  0  0  0  0  0
  140.2130   72.0520  222.3980 C   0  0  0  0  0  0  0  0  0  0  0  0
  139.8630   73.4210  222.3460 N   0  0  0  0  0  0  0  0  0  0  0  0
  139.9420   74.1720  221.0840 C   0  0  0  0  0  0  0  0  0  0  0  0
  140.6170   75.4750  221.2980 C   0  0  0  0  0  0  0  0  0  0  0  0
  140.3560   76.0960  222.3720 O   0  0  0  0  0  0  0  0  0  0  0  0
  141.5230   76.0630  220.3950 N   0  0  0  0  0  0  0  0  0  0  0  0
  141.8330   77.5080  220.4540 C   0  0  0  0  0  0  0  0  0  0  0  0
  142.3860   77.7720  219.0440 C   0  0  0  0  0  0  0  0  0  0  0  0
  143.0250   76.4620  218.6590 C   0  0  0  0  0  0  0  0  0  0  0  0
  142.2260   75.4260  219.3610 C   0  0  1  0  0  0  0  0  0  0  0  0
  143.0070   74.2350  219.7430 C   0  0  0  0  0  0  0  0  0  0  0  0
  142.5980   72.9530  219.4000 C   0  0  0  0  0  0  0  0  0  0  0  0
  143.3130   71.8260  219.7470 C   0  0  0  0  0  0  0  0  0  0  0  0
  144.4800   71.9250  220.4580 C   0  0  0  0  0  0  0  0  0  0  0  0
  144.9160   73.1820  220.8140 C   0  0  0  0  0  0  0  0  0  0  0  0
  146.3910   73.3940  221.7190 Cl  0  0  0  0  0  0  0  0  0  0  0  0
  144.1980   74.3070  220.4660 C   0  0  0  0  0  0  0  0  0  0  0  0
  140.1270   71.3220  223.6580 C   0  0  0  0  0  0  0  0  0  0  0  0
  139.5560   70.0570  223.6790 C   0  0  0  0  0  0  0  0  0  0  0  0
  139.4550   69.3320  224.8430 C   0  0  0  0  0  0  0  0  0  0  0  0
  139.9320   69.8810  226.0020 C   0  0  0  0  0  0  0  0  0  0  0  0
  139.8430   69.1790  227.1800 C   0  0  0  0  0  0  0  0  0  0  0  0
  140.3250   69.7430  228.3280 C   0  0  0  0  0  0  0  0  0  0  0  0
  140.9000   70.9990  228.3450 C   0  0  0  0  0  0  0  0  0  0  0  0
  140.9860   71.6950  227.1680 C   0  0  0  0  0  0  0  0  0  0  0  0
  140.5010   71.1390  225.9880 C   0  0  0  0  0  0  0  0  0  0  0  0
  140.5890   71.8340  224.8250 N   0  0  0  0  0  0  0  0  0  0  0  0
  139.5400   73.9280  223.2100 H   0  0  0  0  0  0  0  0  0  0  0  0
  140.5118   73.5853  220.3484 H   0  0  0  0  0  0  0  0  0  0  0  0
  138.9225   74.3553  220.7140 H   0  0  0  0  0  0  0  0  0  0  0  0
  140.9285   78.1036  220.6469 H   0  0  0  0  0  0  0  0  0  0  0  0
  142.5278   77.7807  221.2620 H   0  0  0  0  0  0  0  0  0  0  0  0
  141.5756   78.0327  218.3474 H   0  0  0  0  0  0  0  0  0  0  0  0
  143.0917   78.6153  219.0142 H   0  0  0  0  0  0  0  0  0  0  0  0
  142.9788   76.3142  217.5699 H   0  0  0  0  0  0  0  0  0  0  0  0
  144.0887   76.4229  218.9364 H   0  0  0  0  0  0  0  0  0  0  0  0
  141.4877   74.9779  218.6797 H   0  0  0  0  0  0  0  0  0  0  0  0
  141.6661   72.8316  218.8284 H   0  0  0  0  0  0  0  0  0  0  0  0
  142.9415   70.8344  219.4490 H   0  0  0  0  0  0  0  0  0  0  0  0
  145.0516   71.0273  220.7362 H   0  0  0  0  0  0  0  0  0  0  0  0
  144.5772   75.2942  220.7687 H   0  0  0  0  0  0  0  0  0  0  0  0
  139.1752   69.6242  222.7421 H   0  0  0  0  0  0  0  0  0  0  0  0
  138.9998   68.3306  224.8424 H   0  0  0  0  0  0  0  0  0  0  0  0
  139.3900   68.1768  227.1988 H   0  0  0  0  0  0  0  0  0  0  0  0
  140.2527   69.1783  229.2692 H   0  0  0  0  0  0  0  0  0  0  0  0
  141.2803   71.4307  229.2826 H   0  0  0  0  0  0  0  0  0  0  0  0
  141.4400   72.6969  227.1557 H   0  0  0  0  0  0  0  0  0  0  0  0
  1  2  2  0
  2  3  1  0
  3  4  1  0
  4  5  1  0
  5  6  2  0
  5  7  1  0
  7  8  1  0
  8  9  1  0
  9 10  1  0
 10 11  1  0
 11 12  1  0
 12 13  2  0
 13 14  1  0
 14 15  2  0
 15 16  1  0
 16 17  1  0
 16 18  2  0
  2 19  1  0
 19 20  2  0
 20 21  1  0
 21 22  2  0
 22 23  1  0
 23 24  2  0
 24 25  1  0
 25 26  2  0
 26 27  1  0
 27 28  2  0
 11  7  1  0
 18 12  1  0
 28 19  1  0
 27 22  1  0
  3 29  1  0
  4 30  1  0
  4 31  1  0
  8 32  1  0
  8 33  1  0
  9 34  1  0
  9 35  1  0
 10 36  1  0
 10 37  1  0
 11 38  1  6
 13 39  1  0
 14 40  1  0
 15 41  1  0
 18 42  1  0
 20 43  1  0
 21 44  1  0
 23 45  1  0
 24 46  1  0
 25 47  1  0
 26 48  1  0
M  END
>  <smiles>  (77) 
O=C(NCC(=O)N1CCCC1c1cccc(Cl)c1)c1ccc2ccccc2n1

>  <score_type>  (77) 
oracle

>  <origin>  (77) 
autodockgpu

>  <m_score__min__energy>  (77) 
-9.1600000000000001

>  <m_primary>  (77) 
energy

>  <rmsd>  (77) 
2.248593813214019

>  <m_score__min__rmsd>  (77) 
2.248593813214019

>  <meeko>  (77) 
{"free_energy": -9.16, "intermolecular_energy": -10.65, "internal_energy": -2.02, "cluster_size": 33, "cluster_id": 1, "rank_in_cluster": 4}

>  <energy>  (77) 
-8.96

>  <cluster_rmsd>  (77) 
0.47

>  <cluster>  (77) 
1

$$$$

     RDKit          3D

 48 51  0  0  0  0  0  0  0  0999 V2000
  140.8930   72.3630  221.4520 O   0  0  0  0  0  0  0  0  0  0  0  0
  140.0650   72.5530  222.3750 C   0  0  0  0  0  0  0  0  0  0  0  0
  139.2150   73.6810  222.3100 N   0  0  0  0  0  0  0  0  0  0  0  0
  139.2940   74.6200  221.1810 C   0  0  0  0  0  0  0  0  0  0  0  0
  140.4980   75.4760  221.3040 C   0  0  0  0  0  0  0  0  0  0  0  0
  141.2100   75.3330  222.3430 O   0  0  0  0  0  0  0  0  0  0  0  0
  140.9000   76.4320  220.3510 N   0  0  0  0  0  0  0  0  0  0  0  0
  140.4120   76.3720  218.9560 C   0  0  0  0  0  0  0  0  0  0  0  0
  141.4670   77.2110  218.2160 C   0  0  0  0  0  0  0  0  0  0  0  0
  141.9150   78.2140  219.2480 C   0  0  0  0  0  0  0  0  0  0  0  0
  141.7680   77.5160  220.5490 C   0  0  1  0  0  0  0  0  0  0  0  0
  141.4390   78.4170  221.6690 C   0  0  0  0  0  0  0  0  0  0  0  0
  142.4280   79.0360  222.4240 C   0  0  0  0  0  0  0  0  0  0  0  0
  142.1430   79.8820  223.4740 C   0  0  0  0  0  0  0  0  0  0  0  0
  140.8460   80.1530  223.8270 C   0  0  0  0  0  0  0  0  0  0  0  0
  139.8400   79.5560  223.0990 C   0  0  0  0  0  0  0  0  0  0  0  0
  138.1650   79.8490  223.4840 Cl  0  0  0  0  0  0  0  0  0  0  0  0
  140.1290   78.7100  222.0490 C   0  0  0  0  0  0  0  0  0  0  0  0
  139.9720   71.6310  223.5020 C   0  0  0  0  0  0  0  0  0  0  0  0
  139.3040   70.4240  223.3460 C   0  0  0  0  0  0  0  0  0  0  0  0
  139.1910   69.5240  224.3790 C   0  0  0  0  0  0  0  0  0  0  0  0
  139.7560   69.8370  225.5860 C   0  0  0  0  0  0  0  0  0  0  0  0
  139.6590   68.9560  226.6360 C   0  0  0  0  0  0  0  0  0  0  0  0
  140.2290   69.2840  227.8340 C   0  0  0  0  0  0  0  0  0  0  0  0
  140.9020   70.4760  228.0270 C   0  0  0  0  0  0  0  0  0  0  0  0
  140.9960   71.3500  226.9770 C   0  0  0  0  0  0  0  0  0  0  0  0
  140.4220   71.0350  225.7480 C   0  0  0  0  0  0  0  0  0  0  0  0
  140.5190   71.9060  224.7120 N   0  0  0  0  0  0  0  0  0  0  0  0
  138.5090   73.8690  223.0680 H   0  0  0  0  0  0  0  0  0  0  0  0
  139.3476   74.0522  220.2404 H   0  0  0  0  0  0  0  0  0  0  0  0
  138.3993   75.2599  221.1859 H   0  0  0  0  0  0  0  0  0  0  0  0
  140.3903   75.3372  218.5836 H   0  0  0  0  0  0  0  0  0  0  0  0
  139.3827   76.7383  218.8285 H   0  0  0  0  0  0  0  0  0  0  0  0
  142.3085   76.5828  217.8886 H   0  0  0  0  0  0  0  0  0  0  0  0
  141.0723   77.6845  217.3050 H   0  0  0  0  0  0  0  0  0  0  0  0
  142.9634   78.5008  219.0791 H   0  0  0  0  0  0  0  0  0  0  0  0
  141.3249   79.1414  219.2071 H   0  0  0  0  0  0  0  0  0  0  0  0
  142.7351   77.1141  220.8855 H   0  0  0  0  0  0  0  0  0  0  0  0
  143.4815   78.8428  222.1733 H   0  0  0  0  0  0  0  0  0  0  0  0
  142.9668   80.3459  224.0363 H   0  0  0  0  0  0  0  0  0  0  0  0
  140.6157   80.8264  224.6657 H   0  0  0  0  0  0  0  0  0  0  0  0
  139.2988   78.2508  221.4924 H   0  0  0  0  0  0  0  0  0  0  0  0
  138.8541   70.1819  222.3719 H   0  0  0  0  0  0  0  0  0  0  0  0
  138.6577   68.5722  224.2386 H   0  0  0  0  0  0  0  0  0  0  0  0
  139.1296   67.9995  226.5139 H   0  0  0  0  0  0  0  0  0  0  0  0
  140.1497   68.5762  228.6723 H   0  0  0  0  0  0  0  0  0  0  0  0
  141.3516   70.7169  229.0016 H   0  0  0  0  0  0  0  0  0  0  0  0
  141.5271   72.3048  227.1049 H   0  0  0  0  0  0  0  0  0  0  0  0
  1  2  2  0
  2  3  1  0
  3  4  1  0
  4  5  1  0
  5  6  2  0
  5  7  1  0
  7  8  1  0
  8  9  1  0
  9 10  1  0
 10 11  1  0
 11 12  1  0
 12 13  2  0
 13 14  1  0
 14 15  2  0
 15 16  1  0
 16 17  1  0
 16 18  2  0
  2 19  1  0
 19 20  2  0
 20 21  1  0
 21 22  2  0
 22 23  1  0
 23 24  2  0
 24 25  1  0
 25 26  2  0
 26 27  1  0
 27 28  2  0
 11  7  1  0
 18 12  1  0
 28 19  1  0
 27 22  1  0
  3 29  1  0
  4 30  1  0
  4 31  1  0
  8 32  1  0
  8 33  1  0
  9 34  1  0
  9 35  1  0
 10 36  1  0
 10 37  1  0
 11 38  1  1
 13 39  1  0
 14 40  1  0
 15 41  1  0
 18 42  1  0
 20 43  1  0
 21 44  1  0
 23 45  1  0
 24 46  1  0
 25 47  1  0
 26 48  1  0
M  END
>  <smiles>  (78) 
O=C(NCC(=O)N1CCCC1c1cccc(Cl)c1)c1ccc2ccccc2n1

>  <score_type>  (78) 
oracle

>  <origin>  (78) 
autodockgpu

>  <m_score__min__energy>  (78) 
-9.1600000000000001

>  <m_primary>  (78) 
energy

>  <rmsd>  (78) 
1.4865078856321734

>  <m_score__min__rmsd>  (78) 
1.4865078856321734

>  <meeko>  (78) 
{"free_energy": -8.82, "intermolecular_energy": -10.31, "internal_energy": -1.32, "cluster_size": 10, "cluster_id": 2, "rank_in_cluster": 6}

>  <energy>  (78) 
-8.9

>  <cluster_rmsd>  (78) 
0.89

>  <cluster>  (78) 
1

$$$$

     RDKit          3D

 48 51  0  0  0  0  0  0  0  0999 V2000
  140.8030   71.4540  221.3410 O   0  0  0  0  0  0  0  0  0  0  0  0
  140.3450   72.0250  222.3600 C   0  0  0  0  0  0  0  0  0  0  0  0
  139.9890   73.3910  222.2760 N   0  0  0  0  0  0  0  0  0  0  0  0
  140.1500   74.1350  221.0170 C   0  0  0  0  0  0  0  0  0  0  0  0
  140.7820   75.4520  221.2720 C   0  0  0  0  0  0  0  0  0  0  0  0
  140.5620   75.9950  222.3960 O   0  0  0  0  0  0  0  0  0  0  0  0
  141.6040   76.1340  220.3540 N   0  0  0  0  0  0  0  0  0  0  0  0
  141.6590   77.6110  220.3280 C   0  0  0  0  0  0  0  0  0  0  0  0
  142.2080   77.8820  218.9170 C   0  0  0  0  0  0  0  0  0  0  0  0
  143.0760   76.6830  218.6340 C   0  0  0  0  0  0  0  0  0  0  0  0
  142.4430   75.5680  219.3820 C   0  0  1  0  0  0  0  0  0  0  0  0
  143.4030   74.5560  219.8600 C   0  0  0  0  0  0  0  0  0  0  0  0
  144.6150   74.9140  220.4380 C   0  0  0  0  0  0  0  0  0  0  0  0
  145.5260   73.9840  220.8920 C   0  0  0  0  0  0  0  0  0  0  0  0
  145.2720   72.6410  220.7880 C   0  0  0  0  0  0  0  0  0  0  0  0
  144.0790   72.2510  220.2200 C   0  0  0  0  0  0  0  0  0  0  0  0
  143.6800   70.5630  220.0520 Cl  0  0  0  0  0  0  0  0  0  0  0  0
  143.1700   73.1840  219.7670 C   0  0  0  0  0  0  0  0  0  0  0  0
  140.1780   71.3020  223.6160 C   0  0  0  0  0  0  0  0  0  0  0  0
  139.5560   70.0620  223.6150 C   0  0  0  0  0  0  0  0  0  0  0  0
  139.3760   69.3430  224.7730 C   0  0  0  0  0  0  0  0  0  0  0  0
  139.8270   69.8760  225.9510 C   0  0  0  0  0  0  0  0  0  0  0  0
  139.6610   69.1800  227.1240 C   0  0  0  0  0  0  0  0  0  0  0  0
  140.1170   69.7260  228.2910 C   0  0  0  0  0  0  0  0  0  0  0  0
  140.7410   70.9590  228.3320 C   0  0  0  0  0  0  0  0  0  0  0  0
  140.9040   71.6480  227.1590 C   0  0  0  0  0  0  0  0  0  0  0  0
  140.4460   71.1100  225.9600 C   0  0  0  0  0  0  0  0  0  0  0  0
  140.6110   71.7980  224.8020 N   0  0  0  0  0  0  0  0  0  0  0  0
  139.6020   73.9000  223.1120 H   0  0  0  0  0  0  0  0  0  0  0  0
  140.7854   73.5547  220.3318 H   0  0  0  0  0  0  0  0  0  0  0  0
  139.1586   74.2959  220.5683 H   0  0  0  0  0  0  0  0  0  0  0  0
  140.6596   78.0512  220.4600 H   0  0  0  0  0  0  0  0  0  0  0  0
  142.2674   78.0478  221.1336 H   0  0  0  0  0  0  0  0  0  0  0  0
  141.3899   77.9553  218.1853 H   0  0  0  0  0  0  0  0  0  0  0  0
  142.7586   78.8319  218.8494 H   0  0  0  0  0  0  0  0  0  0  0  0
  143.0946   76.4645  217.5561 H   0  0  0  0  0  0  0  0  0  0  0  0
  144.1201   76.8463  218.9394 H   0  0  0  0  0  0  0  0  0  0  0  0
  141.8179   74.9578  218.7135 H   0  0  0  0  0  0  0  0  0  0  0  0
  144.8573   75.9824  220.5373 H   0  0  0  0  0  0  0  0  0  0  0  0
  146.4694   74.3244  221.3438 H   0  0  0  0  0  0  0  0  0  0  0  0
  145.9986   71.8973  221.1471 H   0  0  0  0  0  0  0  0  0  0  0  0
  142.2292   72.8342  219.3170 H   0  0  0  0  0  0  0  0  0  0  0  0
  139.1975   69.6432  222.6631 H   0  0  0  0  0  0  0  0  0  0  0  0
  138.8806   68.3611  224.7536 H   0  0  0  0  0  0  0  0  0  0  0  0
  139.1678   68.1968  227.1238 H   0  0  0  0  0  0  0  0  0  0  0  0
  139.9832   69.1661  229.2283 H   0  0  0  0  0  0  0  0  0  0  0  0
  141.0984   71.3773  229.2845 H   0  0  0  0  0  0  0  0  0  0  0  0
  141.3989   72.6304  227.1650 H   0  0  0  0  0  0  0  0  0  0  0  0
  1  2  2  0
  2  3  1  0
  3  4  1  0
  4  5  1  0
  5  6  2  0
  5  7  1  0
  7  8  1  0
  8  9  1  0
  9 10  1  0
 10 11  1  0
 11 12  1  0
 12 13  2  0
 13 14  1  0
 14 15  2  0
 15 16  1  0
 16 17  1  0
 16 18  2  0
  2 19  1  0
 19 20  2  0
 20 21  1  0
 21 22  2  0
 22 23  1  0
 23 24  2  0
 24 25  1  0
 25 26  2  0
 26 27  1  0
 27 28  2  0
 11  7  1  0
 18 12  1  0
 28 19  1  0
 27 22  1  0
  3 29  1  0
  4 30  1  0
  4 31  1  0
  8 32  1  0
  8 33  1  0
  9 34  1  0
  9 35  1  0
 10 36  1  0
 10 37  1  0
 11 38  1  6
 13 39  1  0
 14 40  1  0
 15 41  1  0
 18 42  1  0
 20 43  1  0
 21 44  1  0
 23 45  1  0
 24 46  1  0
 25 47  1  0
 26 48  1  0
M  END
>  <smiles>  (79) 
O=C(NCC(=O)N1CCCC1c1cccc(Cl)c1)c1ccc2ccccc2n1

>  <score_type>  (79) 
oracle

>  <origin>  (79) 
autodockgpu

>  <m_score__min__energy>  (79) 
-9.1600000000000001

>  <m_primary>  (79) 
energy

>  <rmsd>  (79) 
2.236347266827198

>  <m_score__min__rmsd>  (79) 
2.236347266827198

>  <meeko>  (79) 
{"free_energy": -9.02, "intermolecular_energy": -10.51, "internal_energy": -2.07, "cluster_size": 33, "cluster_id": 1, "rank_in_cluster": 24}

>  <energy>  (79) 
-8.87

>  <cluster_rmsd>  (79) 
1.37

>  <cluster>  (79) 
1

$$$$

     RDKit          3D

 48 51  0  0  0  0  0  0  0  0999 V2000
  140.6880   71.5800  221.3480 O   0  0  0  0  0  0  0  0  0  0  0  0
  140.2740   72.1380  222.3930 C   0  0  0  0  0  0  0  0  0  0  0  0
  139.9070   73.5030  222.3400 N   0  0  0  0  0  0  0  0  0  0  0  0
  140.0070   74.2620  221.0830 C   0  0  0  0  0  0  0  0  0  0  0  0
  140.3340   75.6810  221.3610 C   0  0  0  0  0  0  0  0  0  0  0  0
  140.1430   76.1010  222.5420 O   0  0  0  0  0  0  0  0  0  0  0  0
  140.8370   76.5860  220.4080 N   0  0  0  0  0  0  0  0  0  0  0  0
  140.3860   76.5440  219.0000 C   0  0  0  0  0  0  0  0  0  0  0  0
  141.5260   77.2830  218.2800 C   0  0  0  0  0  0  0  0  0  0  0  0
  142.0240   78.2640  219.3110 C   0  0  0  0  0  0  0  0  0  0  0  0
  141.7840   77.6010  220.6160 C   0  0  1  0  0  0  0  0  0  0  0  0
  141.4970   78.5420  221.7140 C   0  0  0  0  0  0  0  0  0  0  0  0
  142.5140   79.1330  222.4540 C   0  0  0  0  0  0  0  0  0  0  0  0
  142.2680   80.0160  223.4840 C   0  0  0  0  0  0  0  0  0  0  0  0
  140.9860   80.3550  223.8290 C   0  0  0  0  0  0  0  0  0  0  0  0
  139.9530   79.7880  223.1150 C   0  0  0  0  0  0  0  0  0  0  0  0
  138.2940   80.1670  223.4910 Cl  0  0  0  0  0  0  0  0  0  0  0  0
  140.2020   78.9050  222.0860 C   0  0  0  0  0  0  0  0  0  0  0  0
  140.1670   71.4000  223.6460 C   0  0  0  0  0  0  0  0  0  0  0  0
  139.5640   70.1500  223.6560 C   0  0  0  0  0  0  0  0  0  0  0  0
  139.4420   69.4180  224.8140 C   0  0  0  0  0  0  0  0  0  0  0  0
  139.9290   69.9460  225.9780 C   0  0  0  0  0  0  0  0  0  0  0  0
  139.8200   69.2360  227.1500 C   0  0  0  0  0  0  0  0  0  0  0  0
  140.3130   69.7780  228.3040 C   0  0  0  0  0  0  0  0  0  0  0  0
  140.9200   71.0190  228.3330 C   0  0  0  0  0  0  0  0  0  0  0  0
  141.0260   71.7230  227.1620 C   0  0  0  0  0  0  0  0  0  0  0  0
  140.5300   71.1890  225.9760 C   0  0  0  0  0  0  0  0  0  0  0  0
  140.6390   71.8910  224.8190 N   0  0  0  0  0  0  0  0  0  0  0  0
  139.5550   74.0000  223.1980 H   0  0  0  0  0  0  0  0  0  0  0  0
  140.7981   73.8237  220.4568 H   0  0  0  0  0  0  0  0  0  0  0  0
  139.0408   74.2144  220.5595 H   0  0  0  0  0  0  0  0  0  0  0  0
  140.2908   75.5086  218.6410 H   0  0  0  0  0  0  0  0  0  0  0  0
  139.3940   76.9907  218.8374 H   0  0  0  0  0  0  0  0  0  0  0  0
  142.3230   76.5838  217.9868 H   0  0  0  0  0  0  0  0  0  0  0  0
  141.1972   77.7715  217.3509 H   0  0  0  0  0  0  0  0  0  0  0  0
  143.0965   78.4630  219.1695 H   0  0  0  0  0  0  0  0  0  0  0  0
  141.5124   79.2351  219.2396 H   0  0  0  0  0  0  0  0  0  0  0  0
  142.7064   77.1289  220.9852 H   0  0  0  0  0  0  0  0  0  0  0  0
  143.5574   78.8864  222.2081 H   0  0  0  0  0  0  0  0  0  0  0  0
  143.1124   80.4542  224.0362 H   0  0  0  0  0  0  0  0  0  0  0  0
  140.7875   81.0585  224.6510 H   0  0  0  0  0  0  0  0  0  0  0  0
  139.3511   78.4720  221.5397 H   0  0  0  0  0  0  0  0  0  0  0  0
  139.1742   69.7347  222.7150 H   0  0  0  0  0  0  0  0  0  0  0  0
  138.9625   68.4280  224.8042 H   0  0  0  0  0  0  0  0  0  0  0  0
  139.3425   68.2451  227.1591 H   0  0  0  0  0  0  0  0  0  0  0  0
  140.2236   69.2075  229.2403 H   0  0  0  0  0  0  0  0  0  0  0  0
  141.3094   71.4326  229.2750 H   0  0  0  0  0  0  0  0  0  0  0  0
  141.5046   72.7134  227.1593 H   0  0  0  0  0  0  0  0  0  0  0  0
  1  2  2  0
  2  3  1  0
  3  4  1  0
  4  5  1  0
  5  6  2  0
  5  7  1  0
  7  8  1  0
  8  9  1  0
  9 10  1  0
 10 11  1  0
 11 12  1  0
 12 13  2  0
 13 14  1  0
 14 15  2  0
 15 16  1  0
 16 17  1  0
 16 18  2  0
  2 19  1  0
 19 20  2  0
 20 21  1  0
 21 22  2  0
 22 23  1  0
 23 24  2  0
 24 25  1  0
 25 26  2  0
 26 27  1  0
 27 28  2  0
 11  7  1  0
 18 12  1  0
 28 19  1  0
 27 22  1  0
  3 29  1  0
  4 30  1  0
  4 31  1  0
  8 32  1  0
  8 33  1  0
  9 34  1  0
  9 35  1  0
 10 36  1  0
 10 37  1  0
 11 38  1  1
 13 39  1  0
 14 40  1  0
 15 41  1  0
 18 42  1  0
 20 43  1  0
 21 44  1  0
 23 45  1  0
 24 46  1  0
 25 47  1  0
 26 48  1  0
M  END
>  <smiles>  (80) 
O=C(NCC(=O)N1CCCC1c1cccc(Cl)c1)c1ccc2ccccc2n1

>  <score_type>  (80) 
oracle

>  <origin>  (80) 
autodockgpu

>  <m_score__min__energy>  (80) 
-9.1600000000000001

>  <m_primary>  (80) 
energy

>  <rmsd>  (80) 
1.6246805928519052

>  <m_score__min__rmsd>  (80) 
1.6246805928519052

>  <meeko>  (80) 
{"free_energy": -9.11, "intermolecular_energy": -10.6, "internal_energy": -1.71, "cluster_size": 10, "cluster_id": 2, "rank_in_cluster": 1}

>  <energy>  (80) 
-8.86

>  <cluster_rmsd>  (80) 
0.96

>  <cluster>  (80) 
1

$$$$

     RDKit          3D

 48 51  0  0  0  0  0  0  0  0999 V2000
  141.0460   71.1890  221.3800 O   0  0  0  0  0  0  0  0  0  0  0  0
  140.5800   71.8210  222.3590 C   0  0  0  0  0  0  0  0  0  0  0  0
  140.3190   73.2040  222.2190 N   0  0  0  0  0  0  0  0  0  0  0  0
  140.5880   73.8960  220.9490 C   0  0  0  0  0  0  0  0  0  0  0  0
  141.1360   75.2500  221.2040 C   0  0  0  0  0  0  0  0  0  0  0  0
  140.9650   75.7380  222.3620 O   0  0  0  0  0  0  0  0  0  0  0  0
  141.8280   76.0240  220.2530 N   0  0  0  0  0  0  0  0  0  0  0  0
  141.9630   77.4880  220.4100 C   0  0  0  0  0  0  0  0  0  0  0  0
  142.2790   77.9330  218.9730 C   0  0  0  0  0  0  0  0  0  0  0  0
  143.0150   76.7550  218.3870 C   0  0  0  0  0  0  0  0  0  0  0  0
  142.4550   75.5700  219.0830 C   0  0  1  0  0  0  0  0  0  0  0  0
  143.4210   74.4690  219.2470 C   0  0  0  0  0  0  0  0  0  0  0  0
  143.4810   73.4100  218.3500 C   0  0  0  0  0  0  0  0  0  0  0  0
  144.3780   72.3700  218.4840 C   0  0  0  0  0  0  0  0  0  0  0  0
  145.2650   72.3370  219.5290 C   0  0  0  0  0  0  0  0  0  0  0  0
  145.2330   73.3730  220.4370 C   0  0  0  0  0  0  0  0  0  0  0  0
  146.3280   73.4060  221.7930 Cl  0  0  0  0  0  0  0  0  0  0  0  0
  144.3350   74.4110  220.2990 C   0  0  0  0  0  0  0  0  0  0  0  0
  140.3060   71.1500  223.6250 C   0  0  0  0  0  0  0  0  0  0  0  0
  139.6120   69.9480  223.6270 C   0  0  0  0  0  0  0  0  0  0  0  0
  139.3310   69.2790  224.7950 C   0  0  0  0  0  0  0  0  0  0  0  0
  139.7520   69.8220  225.9780 C   0  0  0  0  0  0  0  0  0  0  0  0
  139.4850   69.1750  227.1610 C   0  0  0  0  0  0  0  0  0  0  0  0
  139.9130   69.7320  228.3340 C   0  0  0  0  0  0  0  0  0  0  0  0
  140.6070   70.9260  228.3710 C   0  0  0  0  0  0  0  0  0  0  0  0
  140.8700   71.5670  227.1900 C   0  0  0  0  0  0  0  0  0  0  0  0
  140.4430   71.0170  225.9840 C   0  0  0  0  0  0  0  0  0  0  0  0
  140.7070   71.6570  224.8160 N   0  0  0  0  0  0  0  0  0  0  0  0
  139.9280   73.7630  223.0200 H   0  0  0  0  0  0  0  0  0  0  0  0
  141.3170   73.3138  220.3664 H   0  0  0  0  0  0  0  0  0  0  0  0
  139.6463   73.9920  220.3886 H   0  0  0  0  0  0  0  0  0  0  0  0
  141.0276   77.9395  220.7721 H   0  0  0  0  0  0  0  0  0  0  0  0
  142.7238   77.7879  221.1457 H   0  0  0  0  0  0  0  0  0  0  0  0
  141.3542   78.1357  218.4129 H   0  0  0  0  0  0  0  0  0  0  0  0
  142.8646   78.8633  218.9342 H   0  0  0  0  0  0  0  0  0  0  0  0
  142.8369   76.6874  217.3036 H   0  0  0  0  0  0  0  0  0  0  0  0
  144.1035   76.8382  218.5217 H   0  0  0  0  0  0  0  0  0  0  0  0
  141.6906   75.0806  218.4616 H   0  0  0  0  0  0  0  0  0  0  0  0
  142.7851   73.4000  217.4982 H   0  0  0  0  0  0  0  0  0  0  0  0
  144.3815   71.5571  217.7430 H   0  0  0  0  0  0  0  0  0  0  0  0
  145.9804   71.5087  219.6392 H   0  0  0  0  0  0  0  0  0  0  0  0
  144.3399   75.2204  221.0439 H   0  0  0  0  0  0  0  0  0  0  0  0
  139.2784   69.5198  222.6702 H   0  0  0  0  0  0  0  0  0  0  0  0
  138.7794   68.3274  224.7785 H   0  0  0  0  0  0  0  0  0  0  0  0
  138.9347   68.2225  227.1639 H   0  0  0  0  0  0  0  0  0  0  0  0
  139.6977   69.2124  229.2793 H   0  0  0  0  0  0  0  0  0  0  0  0
  140.9410   71.3524  229.3284 H   0  0  0  0  0  0  0  0  0  0  0  0
  141.4203   72.5194  227.1939 H   0  0  0  0  0  0  0  0  0  0  0  0
  1  2  2  0
  2  3  1  0
  3  4  1  0
  4  5  1  0
  5  6  2  0
  5  7  1  0
  7  8  1  0
  8  9  1  0
  9 10  1  0
 10 11  1  0
 11 12  1  0
 12 13  2  0
 13 14  1  0
 14 15  2  0
 15 16  1  0
 16 17  1  0
 16 18  2  0
  2 19  1  0
 19 20  2  0
 20 21  1  0
 21 22  2  0
 22 23  1  0
 23 24  2  0
 24 25  1  0
 25 26  2  0
 26 27  1  0
 27 28  2  0
 11  7  1  0
 18 12  1  0
 28 19  1  0
 27 22  1  0
  3 29  1  0
  4 30  1  0
  4 31  1  0
  8 32  1  0
  8 33  1  0
  9 34  1  0
  9 35  1  0
 10 36  1  0
 10 37  1  0
 11 38  1  6
 13 39  1  0
 14 40  1  0
 15 41  1  0
 18 42  1  0
 20 43  1  0
 21 44  1  0
 23 45  1  0
 24 46  1  0
 25 47  1  0
 26 48  1  0
M  END
>  <smiles>  (81) 
O=C(NCC(=O)N1CCCC1c1cccc(Cl)c1)c1ccc2ccccc2n1

>  <score_type>  (81) 
oracle

>  <origin>  (81) 
autodockgpu

>  <m_score__min__energy>  (81) 
-9.1600000000000001

>  <m_primary>  (81) 
energy

>  <rmsd>  (81) 
2.3460954174881663

>  <m_score__min__rmsd>  (81) 
2.3460954174881663

>  <meeko>  (81) 
{"free_energy": -8.8, "intermolecular_energy": -10.29, "internal_energy": -1.96, "cluster_size": 33, "cluster_id": 1, "rank_in_cluster": 31}

>  <energy>  (81) 
-8.8

>  <cluster_rmsd>  (81) 
0.61

>  <cluster>  (81) 
1

$$$$

     RDKit          3D

 48 51  0  0  0  0  0  0  0  0999 V2000
  140.6550   71.1970  221.7240 O   0  0  0  0  0  0  0  0  0  0  0  0
  140.3100   71.8240  222.7550 C   0  0  0  0  0  0  0  0  0  0  0  0
  139.9090   73.1750  222.6310 N   0  0  0  0  0  0  0  0  0  0  0  0
  139.8930   73.8390  221.3180 C   0  0  0  0  0  0  0  0  0  0  0  0
  140.0280   75.3060  221.4790 C   0  0  0  0  0  0  0  0  0  0  0  0
  139.5520   75.8210  222.5350 O   0  0  0  0  0  0  0  0  0  0  0  0
  140.6440   76.1590  220.5440 N   0  0  0  0  0  0  0  0  0  0  0  0
  140.3490   76.0510  219.0990 C   0  0  0  0  0  0  0  0  0  0  0  0
  141.5700   76.7450  218.4730 C   0  0  0  0  0  0  0  0  0  0  0  0
  141.9650   77.7720  219.5040 C   0  0  0  0  0  0  0  0  0  0  0  0
  141.5750   77.1760  220.8060 C   0  0  1  0  0  0  0  0  0  0  0  0
  141.1830   78.1730  221.8190 C   0  0  0  0  0  0  0  0  0  0  0  0
  142.1210   78.7980  222.6300 C   0  0  0  0  0  0  0  0  0  0  0  0
  141.7760   79.7330  223.5830 C   0  0  0  0  0  0  0  0  0  0  0  0
  140.4670   80.0920  223.7750 C   0  0  0  0  0  0  0  0  0  0  0  0
  139.5100   79.4910  222.9870 C   0  0  0  0  0  0  0  0  0  0  0  0
  137.8240   79.8920  223.1670 Cl  0  0  0  0  0  0  0  0  0  0  0  0
  139.8590   78.5560  222.0350 C   0  0  0  0  0  0  0  0  0  0  0  0
  140.3190   71.1810  224.0640 C   0  0  0  0  0  0  0  0  0  0  0  0
  140.7420   71.8960  225.1750 C   0  0  0  0  0  0  0  0  0  0  0  0
  140.7670   71.3320  226.4290 C   0  0  0  0  0  0  0  0  0  0  0  0
  140.3630   70.0320  226.5710 C   0  0  0  0  0  0  0  0  0  0  0  0
  140.3780   69.4420  227.8120 C   0  0  0  0  0  0  0  0  0  0  0  0
  139.9700   68.1430  227.9360 C   0  0  0  0  0  0  0  0  0  0  0  0
  139.5430   67.4000  226.8520 C   0  0  0  0  0  0  0  0  0  0  0  0
  139.5300   67.9930  225.6170 C   0  0  0  0  0  0  0  0  0  0  0  0
  139.9410   69.3150  225.4690 C   0  0  0  0  0  0  0  0  0  0  0  0
  139.9260   69.8960  224.2430 N   0  0  0  0  0  0  0  0  0  0  0  0
  139.6140   73.7290  223.4750 H   0  0  0  0  0  0  0  0  0  0  0  0
  140.7297   73.4625  220.7113 H   0  0  0  0  0  0  0  0  0  0  0  0
  138.9367   73.6213  220.8198 H   0  0  0  0  0  0  0  0  0  0  0  0
  140.2803   74.9999  218.7822 H   0  0  0  0  0  0  0  0  0  0  0  0
  139.3866   76.4968  218.8074 H   0  0  0  0  0  0  0  0  0  0  0  0
  142.3852   76.0263  218.3029 H   0  0  0  0  0  0  0  0  0  0  0  0
  141.3508   77.1893  217.4909 H   0  0  0  0  0  0  0  0  0  0  0  0
  143.0491   77.9556  219.4717 H   0  0  0  0  0  0  0  0  0  0  0  0
  141.4768   78.7422  219.3300 H   0  0  0  0  0  0  0  0  0  0  0  0
  142.4444   76.7153  221.2977 H   0  0  0  0  0  0  0  0  0  0  0  0
  143.1824   78.5366  222.5072 H   0  0  0  0  0  0  0  0  0  0  0  0
  142.5617   80.1970  224.1974 H   0  0  0  0  0  0  0  0  0  0  0  0
  140.1892   80.8372  224.5350 H   0  0  0  0  0  0  0  0  0  0  0  0
  139.0667   78.0968  221.4255 H   0  0  0  0  0  0  0  0  0  0  0  0
  141.0654   72.9399  225.0498 H   0  0  0  0  0  0  0  0  0  0  0  0
  141.1046   71.9134  227.2996 H   0  0  0  0  0  0  0  0  0  0  0  0
  140.7138   70.0073  228.6938 H   0  0  0  0  0  0  0  0  0  0  0  0
  139.9820   67.6741  228.9310 H   0  0  0  0  0  0  0  0  0  0  0  0
  139.2207   66.3558  226.9778 H   0  0  0  0  0  0  0  0  0  0  0  0
  139.1935   67.4224  224.7389 H   0  0  0  0  0  0  0  0  0  0  0  0
  1  2  2  0
  2  3  1  0
  3  4  1  0
  4  5  1  0
  5  6  2  0
  5  7  1  0
  7  8  1  0
  8  9  1  0
  9 10  1  0
 10 11  1  0
 11 12  1  0
 12 13  2  0
 13 14  1  0
 14 15  2  0
 15 16  1  0
 16 17  1  0
 16 18  2  0
  2 19  1  0
 19 20  2  0
 20 21  1  0
 21 22  2  0
 22 23  1  0
 23 24  2  0
 24 25  1  0
 25 26  2  0
 26 27  1  0
 27 28  2  0
 11  7  1  0
 18 12  1  0
 28 19  1  0
 27 22  1  0
  3 29  1  0
  4 30  1  0
  4 31  1  0
  8 32  1  0
  8 33  1  0
  9 34  1  0
  9 35  1  0
 10 36  1  0
 10 37  1  0
 11 38  1  1
 13 39  1  0
 14 40  1  0
 15 41  1  0
 18 42  1  0
 20 43  1  0
 21 44  1  0
 23 45  1  0
 24 46  1  0
 25 47  1  0
 26 48  1  0
M  END
>  <smiles>  (82) 
O=C(NCC(=O)N1CCCC1c1cccc(Cl)c1)c1ccc2ccccc2n1

>  <score_type>  (82) 
oracle

>  <origin>  (82) 
autodockgpu

>  <m_score__min__energy>  (82) 
-9.1600000000000001

>  <m_primary>  (82) 
energy

>  <rmsd>  (82) 
2.7123179755429696

>  <m_score__min__rmsd>  (82) 
2.7123179755429696

>  <meeko>  (82) 
{"free_energy": -8.67, "intermolecular_energy": -10.16, "internal_energy": -1.59, "cluster_size": 10, "cluster_id": 2, "rank_in_cluster": 8}

>  <energy>  (82) 
-8.47

>  <cluster_rmsd>  (82) 
1.06

>  <cluster>  (82) 
1

$$$$

     RDKit          3D

 48 51  0  0  0  0  0  0  0  0999 V2000
  140.9170   71.5690  221.3380 O   0  0  0  0  0  0  0  0  0  0  0  0
  140.4070   72.1190  222.3440 C   0  0  0  0  0  0  0  0  0  0  0  0
  139.9980   73.4690  222.2510 N   0  0  0  0  0  0  0  0  0  0  0  0
  140.1650   74.2230  220.9980 C   0  0  0  0  0  0  0  0  0  0  0  0
  141.1810   75.2890  221.1670 C   0  0  0  0  0  0  0  0  0  0  0  0
  141.3890   75.7130  222.3430 O   0  0  0  0  0  0  0  0  0  0  0  0
  141.9250   75.8570  220.1150 N   0  0  0  0  0  0  0  0  0  0  0  0
  142.1410   77.3180  220.0340 C   0  0  0  0  0  0  0  0  0  0  0  0
  142.4940   77.5030  218.5490 C   0  0  0  0  0  0  0  0  0  0  0  0
  143.1680   76.2070  218.1770 C   0  0  0  0  0  0  0  0  0  0  0  0
  142.5360   75.1840  219.0460 C   0  0  1  0  0  0  0  0  0  0  0  0
  143.4370   74.0750  219.4060 C   0  0  0  0  0  0  0  0  0  0  0  0
  143.3470   72.8320  218.7920 C   0  0  0  0  0  0  0  0  0  0  0  0
  144.1800   71.7810  219.1120 C   0  0  0  0  0  0  0  0  0  0  0  0
  145.1510   71.9200  220.0700 C   0  0  0  0  0  0  0  0  0  0  0  0
  145.2690   73.1400  220.6990 C   0  0  0  0  0  0  0  0  0  0  0  0
  146.4780   73.3990  221.9280 Cl  0  0  0  0  0  0  0  0  0  0  0  0
  144.4330   74.1890  220.3760 C   0  0  0  0  0  0  0  0  0  0  0  0
  140.2330   71.3860  223.5940 C   0  0  0  0  0  0  0  0  0  0  0  0
  139.5950   70.1540  223.5820 C   0  0  0  0  0  0  0  0  0  0  0  0
  139.4090   69.4280  224.7350 C   0  0  0  0  0  0  0  0  0  0  0  0
  139.8690   69.9430  225.9160 C   0  0  0  0  0  0  0  0  0  0  0  0
  139.6970   69.2390  227.0830 C   0  0  0  0  0  0  0  0  0  0  0  0
  140.1630   69.7690  228.2540 C   0  0  0  0  0  0  0  0  0  0  0  0
  140.8030   70.9920  228.3040 C   0  0  0  0  0  0  0  0  0  0  0  0
  140.9730   71.6900  227.1380 C   0  0  0  0  0  0  0  0  0  0  0  0
  140.5050   71.1690  225.9350 C   0  0  0  0  0  0  0  0  0  0  0  0
  140.6760   71.8650  224.7820 N   0  0  0  0  0  0  0  0  0  0  0  0
  139.5670   73.9600  223.0760 H   0  0  0  0  0  0  0  0  0  0  0  0
  140.4894   73.5362  220.2024 H   0  0  0  0  0  0  0  0  0  0  0  0
  139.2039   74.6859  220.7297 H   0  0  0  0  0  0  0  0  0  0  0  0
  141.2295   77.8729  220.3010 H   0  0  0  0  0  0  0  0  0  0  0  0
  142.9108   77.6930  220.7245 H   0  0  0  0  0  0  0  0  0  0  0  0
  141.5869   77.6601  217.9469 H   0  0  0  0  0  0  0  0  0  0  0  0
  143.1310   78.3815  218.3688 H   0  0  0  0  0  0  0  0  0  0  0  0
  142.9968   75.9725  217.1160 H   0  0  0  0  0  0  0  0  0  0  0  0
  144.2581   76.2525  218.3169 H   0  0  0  0  0  0  0  0  0  0  0  0
  141.7516   74.6413  218.4982 H   0  0  0  0  0  0  0  0  0  0  0  0
  142.5796   72.6801  218.0187 H   0  0  0  0  0  0  0  0  0  0  0  0
  144.0641   70.8186  218.5920 H   0  0  0  0  0  0  0  0  0  0  0  0
  145.8158   71.0826  220.3286 H   0  0  0  0  0  0  0  0  0  0  0  0
  144.5561   75.1477  220.9012 H   0  0  0  0  0  0  0  0  0  0  0  0
  139.2292   69.7482  222.6273 H   0  0  0  0  0  0  0  0  0  0  0  0
  138.9006   68.4529  224.7082 H   0  0  0  0  0  0  0  0  0  0  0  0
  139.1913   68.2622  227.0754 H   0  0  0  0  0  0  0  0  0  0  0  0
  140.0237   69.2029  229.1868 H   0  0  0  0  0  0  0  0  0  0  0  0
  141.1682   71.3965  229.2595 H   0  0  0  0  0  0  0  0  0  0  0  0
  141.4811   72.6655  227.1522 H   0  0  0  0  0  0  0  0  0  0  0  0
  1  2  2  0
  2  3  1  0
  3  4  1  0
  4  5  1  0
  5  6  2  0
  5  7  1  0
  7  8  1  0
  8  9  1  0
  9 10  1  0
 10 11  1  0
 11 12  1  0
 12 13  2  0
 13 14  1  0
 14 15  2  0
 15 16  1  0
 16 17  1  0
 16 18  2  0
  2 19  1  0
 19 20  2  0
 20 21  1  0
 21 22  2  0
 22 23  1  0
 23 24  2  0
 24 25  1  0
 25 26  2  0
 26 27  1  0
 27 28  2  0
 11  7  1  0
 18 12  1  0
 28 19  1  0
 27 22  1  0
  3 29  1  0
  4 30  1  0
  4 31  1  0
  8 32  1  0
  8 33  1  0
  9 34  1  0
  9 35  1  0
 10 36  1  0
 10 37  1  0
 11 38  1  6
 13 39  1  0
 14 40  1  0
 15 41  1  0
 18 42  1  0
 20 43  1  0
 21 44  1  0
 23 45  1  0
 24 46  1  0
 25 47  1  0
 26 48  1  0
M  END
>  <smiles>  (83) 
O=C(NCC(=O)N1CCCC1c1cccc(Cl)c1)c1ccc2ccccc2n1

>  <score_type>  (83) 
oracle

>  <origin>  (83) 
autodockgpu

>  <m_score__min__energy>  (83) 
-9.1600000000000001

>  <m_primary>  (83) 
energy

>  <rmsd>  (83) 
2.3213540022472916

>  <m_score__min__rmsd>  (83) 
2.3213540022472916

>  <meeko>  (83) 
{"free_energy": -8.96, "intermolecular_energy": -10.45, "internal_energy": -1.82, "cluster_size": 33, "cluster_id": 1, "rank_in_cluster": 27}

>  <energy>  (83) 
-8.28

>  <cluster_rmsd>  (83) 
1.28

>  <cluster>  (83) 
1

$$$$

     RDKit          3D

 48 51  0  0  0  0  0  0  0  0999 V2000
  141.4730   72.2550  221.8630 O   0  0  0  0  0  0  0  0  0  0  0  0
  140.4380   72.4000  222.5580 C   0  0  0  0  0  0  0  0  0  0  0  0
  139.5020   73.3940  222.1900 N   0  0  0  0  0  0  0  0  0  0  0  0
  139.7320   74.2460  221.0130 C   0  0  0  0  0  0  0  0  0  0  0  0
  140.5460   75.4290  221.3810 C   0  0  0  0  0  0  0  0  0  0  0  0
  140.4360   75.8650  222.5660 O   0  0  0  0  0  0  0  0  0  0  0  0
  141.4280   76.0950  220.5080 N   0  0  0  0  0  0  0  0  0  0  0  0
  141.7100   77.5380  220.6610 C   0  0  0  0  0  0  0  0  0  0  0  0
  142.2380   77.9070  219.2640 C   0  0  0  0  0  0  0  0  0  0  0  0
  142.8980   76.6390  218.7850 C   0  0  0  0  0  0  0  0  0  0  0  0
  142.1290   75.5430  219.4250 C   0  0  1  0  0  0  0  0  0  0  0  0
  142.9390   74.3460  219.7170 C   0  0  0  0  0  0  0  0  0  0  0  0
  142.5680   73.0850  219.2660 C   0  0  0  0  0  0  0  0  0  0  0  0
  143.3100   71.9530  219.5260 C   0  0  0  0  0  0  0  0  0  0  0  0
  144.4680   72.0230  220.2570 C   0  0  0  0  0  0  0  0  0  0  0  0
  144.8660   73.2580  220.7200 C   0  0  0  0  0  0  0  0  0  0  0  0
  146.3250   73.4330  221.6560 Cl  0  0  0  0  0  0  0  0  0  0  0  0
  144.1200   74.3890  220.4570 C   0  0  0  0  0  0  0  0  0  0  0  0
  140.1950   71.5630  223.7270 C   0  0  0  0  0  0  0  0  0  0  0  0
  139.3870   70.4410  223.6100 C   0  0  0  0  0  0  0  0  0  0  0  0
  139.1300   69.6220  224.6840 C   0  0  0  0  0  0  0  0  0  0  0  0
  139.6900   69.9320  225.8940 C   0  0  0  0  0  0  0  0  0  0  0  0
  139.4490   69.1320  226.9850 C   0  0  0  0  0  0  0  0  0  0  0  0
  140.0170   69.4570  228.1850 C   0  0  0  0  0  0  0  0  0  0  0  0
  140.8270   70.5660  228.3400 C   0  0  0  0  0  0  0  0  0  0  0  0
  141.0630   71.3600  227.2490 C   0  0  0  0  0  0  0  0  0  0  0  0
  140.4940   71.0480  226.0180 C   0  0  0  0  0  0  0  0  0  0  0  0
  140.7330   71.8390  224.9410 N   0  0  0  0  0  0  0  0  0  0  0  0
  138.6240   73.5420  222.7510 H   0  0  0  0  0  0  0  0  0  0  0  0
  140.2632   73.6658  220.2441 H   0  0  0  0  0  0  0  0  0  0  0  0
  138.7610   74.5882  220.6257 H   0  0  0  0  0  0  0  0  0  0  0  0
  140.7969   78.1006  220.9052 H   0  0  0  0  0  0  0  0  0  0  0  0
  142.4103   77.7703  221.4769 H   0  0  0  0  0  0  0  0  0  0  0  0
  141.4128   78.1960  218.5965 H   0  0  0  0  0  0  0  0  0  0  0  0
  142.9258   78.7653  219.2812 H   0  0  0  0  0  0  0  0  0  0  0  0
  142.8409   76.5631  217.6891 H   0  0  0  0  0  0  0  0  0  0  0  0
  143.9658   76.6035  219.0470 H   0  0  0  0  0  0  0  0  0  0  0  0
  141.3902   75.1266  218.7245 H   0  0  0  0  0  0  0  0  0  0  0  0
  141.6441   72.9862  218.6773 H   0  0  0  0  0  0  0  0  0  0  0  0
  142.9687   70.9804  219.1420 H   0  0  0  0  0  0  0  0  0  0  0  0
  145.0610   71.1207  220.4673 H   0  0  0  0  0  0  0  0  0  0  0  0
  144.4691   75.3575  220.8444 H   0  0  0  0  0  0  0  0  0  0  0  0
  138.9409   70.2008  222.6336 H   0  0  0  0  0  0  0  0  0  0  0  0
  138.4877   68.7359  224.5732 H   0  0  0  0  0  0  0  0  0  0  0  0
  138.8081   68.2427  226.8939 H   0  0  0  0  0  0  0  0  0  0  0  0
  139.8229   68.8144  229.0564 H   0  0  0  0  0  0  0  0  0  0  0  0
  141.2720   70.8056  229.3170 H   0  0  0  0  0  0  0  0  0  0  0  0
  141.7050   72.2479  227.3464 H   0  0  0  0  0  0  0  0  0  0  0  0
  1  2  2  0
  2  3  1  0
  3  4  1  0
  4  5  1  0
  5  6  2  0
  5  7  1  0
  7  8  1  0
  8  9  1  0
  9 10  1  0
 10 11  1  0
 11 12  1  0
 12 13  2  0
 13 14  1  0
 14 15  2  0
 15 16  1  0
 16 17  1  0
 16 18  2  0
  2 19  1  0
 19 20  2  0
 20 21  1  0
 21 22  2  0
 22 23  1  0
 23 24  2  0
 24 25  1  0
 25 26  2  0
 26 27  1  0
 27 28  2  0
 11  7  1  0
 18 12  1  0
 28 19  1  0
 27 22  1  0
  3 29  1  0
  4 30  1  0
  4 31  1  0
  8 32  1  0
  8 33  1  0
  9 34  1  0
  9 35  1  0
 10 36  1  0
 10 37  1  0
 11 38  1  6
 13 39  1  0
 14 40  1  0
 15 41  1  0
 18 42  1  0
 20 43  1  0
 21 44  1  0
 23 45  1  0
 24 46  1  0
 25 47  1  0
 26 48  1  0
M  END
>  <smiles>  (84) 
O=C(NCC(=O)N1CCCC1c1cccc(Cl)c1)c1ccc2ccccc2n1

>  <score_type>  (84) 
oracle

>  <origin>  (84) 
autodockgpu

>  <m_score__min__energy>  (84) 
-9.1600000000000001

>  <m_primary>  (84) 
energy

>  <rmsd>  (84) 
2.277200932904403

>  <m_score__min__rmsd>  (84) 
2.277200932904403

>  <meeko>  (84) 
{"free_energy": -9.07, "intermolecular_energy": -10.56, "internal_energy": -1.75, "cluster_size": 33, "cluster_id": 1, "rank_in_cluster": 18}

>  <energy>  (84) 
-9.11

>  <cluster_rmsd>  (84) 
0.0

>  <cluster>  (84) 
2

$$$$

     RDKit          3D

 48 51  0  0  0  0  0  0  0  0999 V2000
  138.9130   75.1940  221.8880 O   0  0  0  0  0  0  0  0  0  0  0  0
  140.0580   75.6950  222.0060 C   0  0  0  0  0  0  0  0  0  0  0  0
  141.1880   74.8700  221.8050 N   0  0  0  0  0  0  0  0  0  0  0  0
  141.0320   73.4470  221.4650 C   0  0  0  0  0  0  0  0  0  0  0  0
  141.9710   73.0690  220.3820 C   0  0  0  0  0  0  0  0  0  0  0  0
  141.4890   72.4620  219.3790 O   0  0  0  0  0  0  0  0  0  0  0  0
  143.3540   73.3360  220.3940 N   0  0  0  0  0  0  0  0  0  0  0  0
  144.3450   72.2390  220.3510 C   0  0  0  0  0  0  0  0  0  0  0  0
  145.6030   72.9280  220.9040 C   0  0  0  0  0  0  0  0  0  0  0  0
  145.4420   74.3650  220.4780 C   0  0  0  0  0  0  0  0  0  0  0  0
  143.9760   74.5930  220.4490 C   0  0  1  0  0  0  0  0  0  0  0  0
  143.5500   75.5750  219.4360 C   0  0  0  0  0  0  0  0  0  0  0  0
  143.7180   75.3420  218.0770 C   0  0  0  0  0  0  0  0  0  0  0  0
  143.3270   76.2470  217.1130 C   0  0  0  0  0  0  0  0  0  0  0  0
  142.7440   77.4380  217.4610 C   0  0  0  0  0  0  0  0  0  0  0  0
  142.5610   77.7010  218.8010 C   0  0  0  0  0  0  0  0  0  0  0  0
  141.8270   79.1920  219.3260 Cl  0  0  0  0  0  0  0  0  0  0  0  0
  142.9540   76.7930  219.7620 C   0  0  0  0  0  0  0  0  0  0  0  0
  140.2300   77.1040  222.3420 C   0  0  0  0  0  0  0  0  0  0  0  0
  139.1160   77.9240  222.4480 C   0  0  0  0  0  0  0  0  0  0  0  0
  139.2300   79.2580  222.7630 C   0  0  0  0  0  0  0  0  0  0  0  0
  140.4780   79.7770  222.9750 C   0  0  0  0  0  0  0  0  0  0  0  0
  140.6220   81.1070  223.2910 C   0  0  0  0  0  0  0  0  0  0  0  0
  141.8760   81.6090  223.4990 C   0  0  0  0  0  0  0  0  0  0  0  0
  143.0090   80.8230  223.4020 C   0  0  0  0  0  0  0  0  0  0  0  0
  142.8600   79.4980  223.0870 C   0  0  0  0  0  0  0  0  0  0  0  0
  141.5910   78.9670  222.8700 C   0  0  0  0  0  0  0  0  0  0  0  0
  141.4510   77.6530  222.5590 N   0  0  0  0  0  0  0  0  0  0  0  0
  142.1620   75.2580  221.8960 H   0  0  0  0  0  0  0  0  0  0  0  0
  141.2412   72.8364  222.3557 H   0  0  0  0  0  0  0  0  0  0  0  0
  140.0017   73.2729  221.1211 H   0  0  0  0  0  0  0  0  0  0  0  0
  144.0374   71.3965  220.9878 H   0  0  0  0  0  0  0  0  0  0  0  0
  144.4807   71.8009  219.3512 H   0  0  0  0  0  0  0  0  0  0  0  0
  145.6447   72.8465  222.0002 H   0  0  0  0  0  0  0  0  0  0  0  0
  146.5342   72.4757  220.5323 H   0  0  0  0  0  0  0  0  0  0  0  0
  145.9243   75.0393  221.2010 H   0  0  0  0  0  0  0  0  0  0  0  0
  145.9111   74.5627  219.5029 H   0  0  0  0  0  0  0  0  0  0  0  0
  143.6426   75.0922  221.3708 H   0  0  0  0  0  0  0  0  0  0  0  0
  144.1817   74.3973  217.7569 H   0  0  0  0  0  0  0  0  0  0  0  0
  143.4850   76.0102  216.0505 H   0  0  0  0  0  0  0  0  0  0  0  0
  142.4318   78.1617  216.6937 H   0  0  0  0  0  0  0  0  0  0  0  0
  142.7917   77.0380  220.8220 H   0  0  0  0  0  0  0  0  0  0  0  0
  138.1170   77.4968  222.2759 H   0  0  0  0  0  0  0  0  0  0  0  0
  138.3363   79.8944  222.8428 H   0  0  0  0  0  0  0  0  0  0  0  0
  139.7397   81.7585  223.3753 H   0  0  0  0  0  0  0  0  0  0  0  0
  141.9874   82.6737  223.7520 H   0  0  0  0  0  0  0  0  0  0  0  0
  144.0074   81.2516  223.5738 H   0  0  0  0  0  0  0  0  0  0  0  0
  143.7460   78.8512  223.0052 H   0  0  0  0  0  0  0  0  0  0  0  0
  1  2  2  0
  2  3  1  0
  3  4  1  0
  4  5  1  0
  5  6  2  0
  5  7  1  0
  7  8  1  0
  8  9  1  0
  9 10  1  0
 10 11  1  0
 11 12  1  0
 12 13  2  0
 13 14  1  0
 14 15  2  0
 15 16  1  0
 16 17  1  0
 16 18  2  0
  2 19  1  0
 19 20  2  0
 20 21  1  0
 21 22  2  0
 22 23  1  0
 23 24  2  0
 24 25  1  0
 25 26  2  0
 26 27  1  0
 27 28  2  0
 11  7  1  0
 18 12  1  0
 28 19  1  0
 27 22  1  0
  3 29  1  0
  4 30  1  0
  4 31  1  0
  8 32  1  0
  8 33  1  0
  9 34  1  0
  9 35  1  0
 10 36  1  0
 10 37  1  0
 11 38  1  1
 13 39  1  0
 14 40  1  0
 15 41  1  0
 18 42  1  0
 20 43  1  0
 21 44  1  0
 23 45  1  0
 24 46  1  0
 25 47  1  0
 26 48  1  0
M  END
>  <smiles>  (85) 
O=C(NCC(=O)N1CCCC1c1cccc(Cl)c1)c1ccc2ccccc2n1

>  <score_type>  (85) 
oracle

>  <origin>  (85) 
autodockgpu

>  <m_score__min__energy>  (85) 
-9.1600000000000001

>  <m_primary>  (85) 
energy

>  <rmsd>  (85) 
7.854671715817477

>  <m_score__min__rmsd>  (85) 
7.854671715817477

>  <meeko>  (85) 
{"free_energy": -7.85, "intermolecular_energy": -9.34, "internal_energy": -2.56, "cluster_size": 2, "cluster_id": 5, "rank_in_cluster": 1}

>  <energy>  (85) 
-9.11

>  <cluster_rmsd>  (85) 
0.05

>  <cluster>  (85) 
2

$$$$

     RDKit          3D

 48 51  0  0  0  0  0  0  0  0999 V2000
  140.8240   71.3300  221.3750 O   0  0  0  0  0  0  0  0  0  0  0  0
  140.3520   71.9010  222.3880 C   0  0  0  0  0  0  0  0  0  0  0  0
  139.9690   73.2590  222.2910 N   0  0  0  0  0  0  0  0  0  0  0  0
  140.1190   73.9950  221.0260 C   0  0  0  0  0  0  0  0  0  0  0  0
  140.6490   75.3560  221.2790 C   0  0  0  0  0  0  0  0  0  0  0  0
  140.2950   75.9270  222.3540 O   0  0  0  0  0  0  0  0  0  0  0  0
  141.5110   76.0520  220.4110 N   0  0  0  0  0  0  0  0  0  0  0  0
  141.7650   77.4990  220.5820 C   0  0  0  0  0  0  0  0  0  0  0  0
  142.2780   77.8970  219.1880 C   0  0  0  0  0  0  0  0  0  0  0  0
  142.9600   76.6500  218.6870 C   0  0  0  0  0  0  0  0  0  0  0  0
  142.2180   75.5290  219.3170 C   0  0  1  0  0  0  0  0  0  0  0  0
  143.0520   74.3450  219.5870 C   0  0  0  0  0  0  0  0  0  0  0  0
  142.7600   73.1040  219.0350 C   0  0  0  0  0  0  0  0  0  0  0  0
  143.5280   71.9840  219.2740 C   0  0  0  0  0  0  0  0  0  0  0  0
  144.6330   72.0470  220.0830 C   0  0  0  0  0  0  0  0  0  0  0  0
  144.9520   73.2630  220.6470 C   0  0  0  0  0  0  0  0  0  0  0  0
  146.3410   73.4290  221.6870 Cl  0  0  0  0  0  0  0  0  0  0  0  0
  144.1820   74.3820  220.4050 C   0  0  0  0  0  0  0  0  0  0  0  0
  140.1960   71.1860  223.6500 C   0  0  0  0  0  0  0  0  0  0  0  0
  139.5370   69.9650  223.6680 C   0  0  0  0  0  0  0  0  0  0  0  0
  139.3660   69.2550  224.8330 C   0  0  0  0  0  0  0  0  0  0  0  0
  139.8630   69.7750  225.9970 C   0  0  0  0  0  0  0  0  0  0  0  0
  139.7070   69.0870  227.1760 C   0  0  0  0  0  0  0  0  0  0  0  0
  140.2090   69.6220  228.3290 C   0  0  0  0  0  0  0  0  0  0  0  0
  140.8710   70.8350  228.3500 C   0  0  0  0  0  0  0  0  0  0  0  0
  141.0240   71.5170  227.1720 C   0  0  0  0  0  0  0  0  0  0  0  0
  140.5190   70.9900  225.9860 C   0  0  0  0  0  0  0  0  0  0  0  0
  140.6750   71.6700  224.8220 N   0  0  0  0  0  0  0  0  0  0  0  0
  139.5700   73.7680  223.1210 H   0  0  0  0  0  0  0  0  0  0  0  0
  140.8152   73.4511  220.3707 H   0  0  0  0  0  0  0  0  0  0  0  0
  139.1339   74.0799  220.5439 H   0  0  0  0  0  0  0  0  0  0  0  0
  140.8420   78.0398  220.8383 H   0  0  0  0  0  0  0  0  0  0  0  0
  142.4647   77.7345  221.3974 H   0  0  0  0  0  0  0  0  0  0  0  0
  141.4436   78.1791  218.5291 H   0  0  0  0  0  0  0  0  0  0  0  0
  142.9493   78.7680  219.2142 H   0  0  0  0  0  0  0  0  0  0  0  0
  142.8966   76.5882  217.5906 H   0  0  0  0  0  0  0  0  0  0  0  0
  144.0301   76.6328  218.9412 H   0  0  0  0  0  0  0  0  0  0  0  0
  141.4845   75.1063  218.6147 H   0  0  0  0  0  0  0  0  0  0  0  0
  141.8806   73.0111  218.3808 H   0  0  0  0  0  0  0  0  0  0  0  0
  143.2502   71.0266  218.8090 H   0  0  0  0  0  0  0  0  0  0  0  0
  145.2461   71.1543  220.2759 H   0  0  0  0  0  0  0  0  0  0  0  0
  144.4685   75.3355  220.8726 H   0  0  0  0  0  0  0  0  0  0  0  0
  139.1416   69.5549  222.7270 H   0  0  0  0  0  0  0  0  0  0  0  0
  138.8404   68.2887  224.8293 H   0  0  0  0  0  0  0  0  0  0  0  0
  139.1852   68.1188  227.1916 H   0  0  0  0  0  0  0  0  0  0  0  0
  140.0820   69.0690  229.2713 H   0  0  0  0  0  0  0  0  0  0  0  0
  141.2662   71.2436  229.2917 H   0  0  0  0  0  0  0  0  0  0  0  0
  141.5476   72.4843  227.1628 H   0  0  0  0  0  0  0  0  0  0  0  0
  1  2  2  0
  2  3  1  0
  3  4  1  0
  4  5  1  0
  5  6  2  0
  5  7  1  0
  7  8  1  0
  8  9  1  0
  9 10  1  0
 10 11  1  0
 11 12  1  0
 12 13  2  0
 13 14  1  0
 14 15  2  0
 15 16  1  0
 16 17  1  0
 16 18  2  0
  2 19  1  0
 19 20  2  0
 20 21  1  0
 21 22  2  0
 22 23  1  0
 23 24  2  0
 24 25  1  0
 25 26  2  0
 26 27  1  0
 27 28  2  0
 11  7  1  0
 18 12  1  0
 28 19  1  0
 27 22  1  0
  3 29  1  0
  4 30  1  0
  4 31  1  0
  8 32  1  0
  8 33  1  0
  9 34  1  0
  9 35  1  0
 10 36  1  0
 10 37  1  0
 11 38  1  6
 13 39  1  0
 14 40  1  0
 15 41  1  0
 18 42  1  0
 20 43  1  0
 21 44  1  0
 23 45  1  0
 24 46  1  0
 25 47  1  0
 26 48  1  0
M  END
>  <smiles>  (86) 
O=C(NCC(=O)N1CCCC1c1cccc(Cl)c1)c1ccc2ccccc2n1

>  <score_type>  (86) 
oracle

>  <origin>  (86) 
autodockgpu

>  <m_score__min__energy>  (86) 
-9.1600000000000001

>  <m_primary>  (86) 
energy

>  <rmsd>  (86) 
2.248223170189565

>  <m_score__min__rmsd>  (86) 
2.248223170189565

>  <meeko>  (86) 
{"free_energy": -9.12, "intermolecular_energy": -10.61, "internal_energy": -2.0, "cluster_size": 33, "cluster_id": 1, "rank_in_cluster": 10}

>  <energy>  (86) 
-9.08

>  <cluster_rmsd>  (86) 
0.15

>  <cluster>  (86) 
2

$$$$

     RDKit          3D

 48 51  0  0  0  0  0  0  0  0999 V2000
  140.6240   71.4940  221.3460 O   0  0  0  0  0  0  0  0  0  0  0  0
  140.2470   72.0610  222.4010 C   0  0  0  0  0  0  0  0  0  0  0  0
  139.8860   73.4270  222.3510 N   0  0  0  0  0  0  0  0  0  0  0  0
  139.9500   74.1780  221.0870 C   0  0  0  0  0  0  0  0  0  0  0  0
  140.6400   75.4740  221.2900 C   0  0  0  0  0  0  0  0  0  0  0  0
  140.4000   76.0980  222.3670 O   0  0  0  0  0  0  0  0  0  0  0  0
  141.5360   76.0540  220.3730 N   0  0  0  0  0  0  0  0  0  0  0  0
  141.8470   77.5000  220.4150 C   0  0  0  0  0  0  0  0  0  0  0  0
  142.3860   77.7500  218.9980 C   0  0  0  0  0  0  0  0  0  0  0  0
  143.0220   76.4360  218.6190 C   0  0  0  0  0  0  0  0  0  0  0  0
  142.2300   75.4070  219.3380 C   0  0  1  0  0  0  0  0  0  0  0  0
  143.0150   74.2200  219.7240 C   0  0  0  0  0  0  0  0  0  0  0  0
  142.6140   72.9360  219.3780 C   0  0  0  0  0  0  0  0  0  0  0  0
  143.3330   71.8120  219.7280 C   0  0  0  0  0  0  0  0  0  0  0  0
  144.4960   71.9170  220.4460 C   0  0  0  0  0  0  0  0  0  0  0  0
  144.9230   73.1760  220.8060 C   0  0  0  0  0  0  0  0  0  0  0  0
  146.3900   73.3950  221.7200 Cl  0  0  0  0  0  0  0  0  0  0  0  0
  144.2010   74.2980  220.4540 C   0  0  0  0  0  0  0  0  0  0  0  0
  140.1760   71.3310  223.6620 C   0  0  0  0  0  0  0  0  0  0  0  0
  139.6120   70.0630  223.6890 C   0  0  0  0  0  0  0  0  0  0  0  0
  139.5250   69.3380  224.8540 C   0  0  0  0  0  0  0  0  0  0  0  0
  140.0090   69.8910  226.0080 C   0  0  0  0  0  0  0  0  0  0  0  0
  139.9350   69.1890  227.1870 C   0  0  0  0  0  0  0  0  0  0  0  0
  140.4230   69.7560  228.3310 C   0  0  0  0  0  0  0  0  0  0  0  0
  140.9920   71.0150  228.3420 C   0  0  0  0  0  0  0  0  0  0  0  0
  141.0630   71.7110  227.1650 C   0  0  0  0  0  0  0  0  0  0  0  0
  140.5710   71.1520  225.9890 C   0  0  0  0  0  0  0  0  0  0  0  0
  140.6460   71.8460  224.8250 N   0  0  0  0  0  0  0  0  0  0  0  0
  139.5650   73.9320  223.2170 H   0  0  0  0  0  0  0  0  0  0  0  0
  140.5018   73.5865  220.3416 H   0  0  0  0  0  0  0  0  0  0  0  0
  138.9260   74.3705  220.7343 H   0  0  0  0  0  0  0  0  0  0  0  0
  140.9446   78.0977  220.6109 H   0  0  0  0  0  0  0  0  0  0  0  0
  142.5497   77.7803  221.2135 H   0  0  0  0  0  0  0  0  0  0  0  0
  141.5688   78.0038  218.3068 H   0  0  0  0  0  0  0  0  0  0  0  0
  143.0913   78.5930  218.9533 H   0  0  0  0  0  0  0  0  0  0  0  0
  142.9656   76.2780  217.5319 H   0  0  0  0  0  0  0  0  0  0  0  0
  144.0883   76.3996  218.8866 H   0  0  0  0  0  0  0  0  0  0  0  0
  141.4854   74.9524  218.6679 H   0  0  0  0  0  0  0  0  0  0  0  0
  141.6856   72.8103  218.8016 H   0  0  0  0  0  0  0  0  0  0  0  0
  142.9684   70.8187  219.4271 H   0  0  0  0  0  0  0  0  0  0  0  0
  145.0712   71.0223  220.7263 H   0  0  0  0  0  0  0  0  0  0  0  0
  144.5732   75.2871  220.7593 H   0  0  0  0  0  0  0  0  0  0  0  0
  139.2253   69.6276  222.7558 H   0  0  0  0  0  0  0  0  0  0  0  0
  139.0755   68.3340  224.8581 H   0  0  0  0  0  0  0  0  0  0  0  0
  139.4888   68.1838  227.2098 H   0  0  0  0  0  0  0  0  0  0  0  0
  140.3607   69.1918  229.2732 H   0  0  0  0  0  0  0  0  0  0  0  0
  141.3794   71.4486  229.2757 H   0  0  0  0  0  0  0  0  0  0  0  0
  141.5105   72.7157  227.1487 H   0  0  0  0  0  0  0  0  0  0  0  0
  1  2  2  0
  2  3  1  0
  3  4  1  0
  4  5  1  0
  5  6  2  0
  5  7  1  0
  7  8  1  0
  8  9  1  0
  9 10  1  0
 10 11  1  0
 11 12  1  0
 12 13  2  0
 13 14  1  0
 14 15  2  0
 15 16  1  0
 16 17  1  0
 16 18  2  0
  2 19  1  0
 19 20  2  0
 20 21  1  0
 21 22  2  0
 22 23  1  0
 23 24  2  0
 24 25  1  0
 25 26  2  0
 26 27  1  0
 27 28  2  0
 11  7  1  0
 18 12  1  0
 28 19  1  0
 27 22  1  0
  3 29  1  0
  4 30  1  0
  4 31  1  0
  8 32  1  0
  8 33  1  0
  9 34  1  0
  9 35  1  0
 10 36  1  0
 10 37  1  0
 11 38  1  6
 13 39  1  0
 14 40  1  0
 15 41  1  0
 18 42  1  0
 20 43  1  0
 21 44  1  0
 23 45  1  0
 24 46  1  0
 25 47  1  0
 26 48  1  0
M  END
>  <smiles>  (87) 
O=C(NCC(=O)N1CCCC1c1cccc(Cl)c1)c1ccc2ccccc2n1

>  <score_type>  (87) 
oracle

>  <origin>  (87) 
autodockgpu

>  <m_score__min__energy>  (87) 
-9.1600000000000001

>  <m_primary>  (87) 
energy

>  <rmsd>  (87) 
2.2531798508246914

>  <m_score__min__rmsd>  (87) 
2.2531798508246914

>  <meeko>  (87) 
{"free_energy": -9.16, "intermolecular_energy": -10.65, "internal_energy": -2.02, "cluster_size": 33, "cluster_id": 1, "rank_in_cluster": 1}

>  <energy>  (87) 
-9.02

>  <cluster_rmsd>  (87) 
0.99

>  <cluster>  (87) 
2

$$$$

     RDKit          3D

 48 51  0  0  0  0  0  0  0  0999 V2000
  140.2780   71.3820  221.3140 O   0  0  0  0  0  0  0  0  0  0  0  0
  140.0430   71.9820  222.3910 C   0  0  0  0  0  0  0  0  0  0  0  0
  139.7860   73.3720  222.3570 N   0  0  0  0  0  0  0  0  0  0  0  0
  139.7920   74.1090  221.0840 C   0  0  0  0  0  0  0  0  0  0  0  0
  140.5090   75.3970  221.2360 C   0  0  0  0  0  0  0  0  0  0  0  0
  140.5850   75.8870  222.4020 O   0  0  0  0  0  0  0  0  0  0  0  0
  141.1070   76.1070  220.1770 N   0  0  0  0  0  0  0  0  0  0  0  0
  140.8940   75.7070  218.7700 C   0  0  0  0  0  0  0  0  0  0  0  0
  142.0900   76.3690  218.0670 C   0  0  0  0  0  0  0  0  0  0  0  0
  142.3560   77.6000  218.8970 C   0  0  0  0  0  0  0  0  0  0  0  0
  141.9460   77.2280  220.2740 C   0  0  1  0  0  0  0  0  0  0  0  0
  141.4310   78.3610  221.0630 C   0  0  0  0  0  0  0  0  0  0  0  0
  140.1310   78.8270  220.9100 C   0  0  0  0  0  0  0  0  0  0  0  0
  139.6280   79.8850  221.6380 C   0  0  0  0  0  0  0  0  0  0  0  0
  140.4050   80.5350  222.5620 C   0  0  0  0  0  0  0  0  0  0  0  0
  141.7000   80.0990  222.7400 C   0  0  0  0  0  0  0  0  0  0  0  0
  142.7520   80.8720  223.8940 Cl  0  0  0  0  0  0  0  0  0  0  0  0
  142.1990   79.0400  222.0090 C   0  0  0  0  0  0  0  0  0  0  0  0
  140.0320   71.2660  223.6620 C   0  0  0  0  0  0  0  0  0  0  0  0
  139.5200   69.9770  223.7180 C   0  0  0  0  0  0  0  0  0  0  0  0
  139.4900   69.2640  224.8940 C   0  0  0  0  0  0  0  0  0  0  0  0
  139.9780   69.8510  226.0290 C   0  0  0  0  0  0  0  0  0  0  0  0
  139.9600   69.1620  227.2180 C   0  0  0  0  0  0  0  0  0  0  0  0
  140.4510   69.7630  228.3430 C   0  0  0  0  0  0  0  0  0  0  0  0
  140.9680   71.0450  228.3260 C   0  0  0  0  0  0  0  0  0  0  0  0
  140.9840   71.7270  227.1380 C   0  0  0  0  0  0  0  0  0  0  0  0
  140.4880   71.1330  225.9810 C   0  0  0  0  0  0  0  0  0  0  0  0
  140.5070   71.8150  224.8080 N   0  0  0  0  0  0  0  0  0  0  0  0
  139.5850   73.9050  223.2430 H   0  0  0  0  0  0  0  0  0  0  0  0
  140.2951   73.5025  220.3165 H   0  0  0  0  0  0  0  0  0  0  0  0
  138.7533   74.3121  220.7844 H   0  0  0  0  0  0  0  0  0  0  0  0
  140.9190   74.6131  218.6570 H   0  0  0  0  0  0  0  0  0  0  0  0
  139.9172   76.0101  218.3650 H   0  0  0  0  0  0  0  0  0  0  0  0
  142.9635   75.7004  218.0658 H   0  0  0  0  0  0  0  0  0  0  0  0
  141.8882   76.6022  217.0111 H   0  0  0  0  0  0  0  0  0  0  0  0
  143.4238   77.8625  218.8687 H   0  0  0  0  0  0  0  0  0  0  0  0
  141.8071   78.4773  218.5243 H   0  0  0  0  0  0  0  0  0  0  0  0
  142.8207   76.9401  220.8756 H   0  0  0  0  0  0  0  0  0  0  0  0
  139.4760   78.3317  220.1781 H   0  0  0  0  0  0  0  0  0  0  0  0
  138.5903   80.2115  221.4752 H   0  0  0  0  0  0  0  0  0  0  0  0
  140.0065   81.3793  223.1438 H   0  0  0  0  0  0  0  0  0  0  0  0
  143.2379   78.7205  222.1782 H   0  0  0  0  0  0  0  0  0  0  0  0
  139.1288   69.5145  222.7998 H   0  0  0  0  0  0  0  0  0  0  0  0
  139.0820   68.2428  224.9211 H   0  0  0  0  0  0  0  0  0  0  0  0
  139.5557   68.1400  227.2636 H   0  0  0  0  0  0  0  0  0  0  0  0
  140.4343   69.2086  229.2929 H   0  0  0  0  0  0  0  0  0  0  0  0
  141.3576   71.5068  229.2452 H   0  0  0  0  0  0  0  0  0  0  0  0
  141.3905   72.7483  227.0983 H   0  0  0  0  0  0  0  0  0  0  0  0
  1  2  2  0
  2  3  1  0
  3  4  1  0
  4  5  1  0
  5  6  2  0
  5  7  1  0
  7  8  1  0
  8  9  1  0
  9 10  1  0
 10 11  1  0
 11 12  1  0
 12 13  2  0
 13 14  1  0
 14 15  2  0
 15 16  1  0
 16 17  1  0
 16 18  2  0
  2 19  1  0
 19 20  2  0
 20 21  1  0
 21 22  2  0
 22 23  1  0
 23 24  2  0
 24 25  1  0
 25 26  2  0
 26 27  1  0
 27 28  2  0
 11  7  1  0
 18 12  1  0
 28 19  1  0
 27 22  1  0
  3 29  1  0
  4 30  1  0
  4 31  1  0
  8 32  1  0
  8 33  1  0
  9 34  1  0
  9 35  1  0
 10 36  1  0
 10 37  1  0
 11 38  1  1
 13 39  1  0
 14 40  1  0
 15 41  1  0
 18 42  1  0
 20 43  1  0
 21 44  1  0
 23 45  1  0
 24 46  1  0
 25 47  1  0
 26 48  1  0
M  END
>  <smiles>  (88) 
O=C(NCC(=O)N1CCCC1c1cccc(Cl)c1)c1ccc2ccccc2n1

>  <score_type>  (88) 
oracle

>  <origin>  (88) 
autodockgpu

>  <m_score__min__energy>  (88) 
-9.1600000000000001

>  <m_primary>  (88) 
energy

>  <rmsd>  (88) 
1.4893362860386323

>  <m_score__min__rmsd>  (88) 
1.4893362860386323

>  <meeko>  (88) 
{"free_energy": -8.88, "intermolecular_energy": -10.37, "internal_energy": -1.7, "cluster_size": 10, "cluster_id": 2, "rank_in_cluster": 5}

>  <energy>  (88) 
-8.88

>  <cluster_rmsd>  (88) 
1.03

>  <cluster>  (88) 
2

$$$$

     RDKit          3D

 48 51  0  0  0  0  0  0  0  0999 V2000
  140.8290   71.1910  221.7430 O   0  0  0  0  0  0  0  0  0  0  0  0
  140.4030   71.8050  222.7510 C   0  0  0  0  0  0  0  0  0  0  0  0
  139.9570   73.1390  222.6020 N   0  0  0  0  0  0  0  0  0  0  0  0
  139.9890   73.8010  221.2890 C   0  0  0  0  0  0  0  0  0  0  0  0
  140.2440   75.2530  221.4480 C   0  0  0  0  0  0  0  0  0  0  0  0
  139.5950   75.8620  222.3500 O   0  0  0  0  0  0  0  0  0  0  0  0
  141.1520   75.9950  220.6680 N   0  0  0  0  0  0  0  0  0  0  0  0
  141.3530   77.4420  220.8960 C   0  0  0  0  0  0  0  0  0  0  0  0
  141.9620   77.8920  219.5580 C   0  0  0  0  0  0  0  0  0  0  0  0
  142.7150   76.6770  219.0810 C   0  0  0  0  0  0  0  0  0  0  0  0
  141.9570   75.5210  219.6200 C   0  0  1  0  0  0  0  0  0  0  0  0
  142.8000   74.3500  219.9240 C   0  0  0  0  0  0  0  0  0  0  0  0
  144.0180   74.4780  220.5790 C   0  0  0  0  0  0  0  0  0  0  0  0
  144.8220   73.3970  220.8740 C   0  0  0  0  0  0  0  0  0  0  0  0
  144.4460   72.1260  220.5260 C   0  0  0  0  0  0  0  0  0  0  0  0
  143.2430   71.9620  219.8760 C   0  0  0  0  0  0  0  0  0  0  0  0
  142.6930   70.3790  219.4000 Cl  0  0  0  0  0  0  0  0  0  0  0  0
  142.4420   73.0460  219.5820 C   0  0  0  0  0  0  0  0  0  0  0  0
  140.3630   71.1630  224.0610 C   0  0  0  0  0  0  0  0  0  0  0  0
  140.7360   71.8820  225.1880 C   0  0  0  0  0  0  0  0  0  0  0  0
  140.7140   71.3190  226.4420 C   0  0  0  0  0  0  0  0  0  0  0  0
  140.3130   70.0170  226.5690 C   0  0  0  0  0  0  0  0  0  0  0  0
  140.2810   69.4290  227.8100 C   0  0  0  0  0  0  0  0  0  0  0  0
  139.8770   68.1270  227.9190 C   0  0  0  0  0  0  0  0  0  0  0  0
  139.4980   67.3810  226.8200 C   0  0  0  0  0  0  0  0  0  0  0  0
  139.5310   67.9720  225.5850 C   0  0  0  0  0  0  0  0  0  0  0  0
  139.9400   69.2960  225.4520 C   0  0  0  0  0  0  0  0  0  0  0  0
  139.9700   69.8760  224.2250 N   0  0  0  0  0  0  0  0  0  0  0  0
  139.5940   73.6820  223.4270 H   0  0  0  0  0  0  0  0  0  0  0  0
  140.7894   73.3572  220.6788 H   0  0  0  0  0  0  0  0  0  0  0  0
  139.0158   73.6617  220.7955 H   0  0  0  0  0  0  0  0  0  0  0  0
  140.3987   77.9524  221.0930 H   0  0  0  0  0  0  0  0  0  0  0  0
  141.9807   77.6714  221.7697 H   0  0  0  0  0  0  0  0  0  0  0  0
  141.1743   78.1710  218.8427 H   0  0  0  0  0  0  0  0  0  0  0  0
  142.6047   78.7790  219.6593 H   0  0  0  0  0  0  0  0  0  0  0  0
  142.7403   76.6444  217.9818 H   0  0  0  0  0  0  0  0  0  0  0  0
  143.7616   76.6796  219.4196 H   0  0  0  0  0  0  0  0  0  0  0  0
  141.2926   75.1001  218.8510 H   0  0  0  0  0  0  0  0  0  0  0  0
  144.3551   75.4825  220.8745 H   0  0  0  0  0  0  0  0  0  0  0  0
  145.7773   73.5571  221.3953 H   0  0  0  0  0  0  0  0  0  0  0  0
  145.0861   71.2623  220.7590 H   0  0  0  0  0  0  0  0  0  0  0  0
  141.4887   72.8762  219.0602 H   0  0  0  0  0  0  0  0  0  0  0  0
  141.0571   72.9280  225.0751 H   0  0  0  0  0  0  0  0  0  0  0  0
  141.0126   71.9031  227.3250 H   0  0  0  0  0  0  0  0  0  0  0  0
  140.5764   69.9977  228.7041 H   0  0  0  0  0  0  0  0  0  0  0  0
  139.8531   67.6587  228.9141 H   0  0  0  0  0  0  0  0  0  0  0  0
  139.1767   66.3352  226.9343 H   0  0  0  0  0  0  0  0  0  0  0  0
  139.2332   67.3984  224.6949 H   0  0  0  0  0  0  0  0  0  0  0  0
  1  2  2  0
  2  3  1  0
  3  4  1  0
  4  5  1  0
  5  6  2  0
  5  7  1  0
  7  8  1  0
  8  9  1  0
  9 10  1  0
 10 11  1  0
 11 12  1  0
 12 13  2  0
 13 14  1  0
 14 15  2  0
 15 16  1  0
 16 17  1  0
 16 18  2  0
  2 19  1  0
 19 20  2  0
 20 21  1  0
 21 22  2  0
 22 23  1  0
 23 24  2  0
 24 25  1  0
 25 26  2  0
 26 27  1  0
 27 28  2  0
 11  7  1  0
 18 12  1  0
 28 19  1  0
 27 22  1  0
  3 29  1  0
  4 30  1  0
  4 31  1  0
  8 32  1  0
  8 33  1  0
  9 34  1  0
  9 35  1  0
 10 36  1  0
 10 37  1  0
 11 38  1  6
 13 39  1  0
 14 40  1  0
 15 41  1  0
 18 42  1  0
 20 43  1  0
 21 44  1  0
 23 45  1  0
 24 46  1  0
 25 47  1  0
 26 48  1  0
M  END
>  <smiles>  (89) 
O=C(NCC(=O)N1CCCC1c1cccc(Cl)c1)c1ccc2ccccc2n1

>  <score_type>  (89) 
oracle

>  <origin>  (89) 
autodockgpu

>  <m_score__min__energy>  (89) 
-9.1600000000000001

>  <m_primary>  (89) 
energy

>  <rmsd>  (89) 
3.153375116670503

>  <m_score__min__rmsd>  (89) 
3.153375116670503

>  <meeko>  (89) 
{"free_energy": -8.28, "intermolecular_energy": -9.77, "internal_energy": -1.88, "cluster_size": 33, "cluster_id": 1, "rank_in_cluster": 33}

>  <energy>  (89) 
-8.82

>  <cluster_rmsd>  (89) 
0.52

>  <cluster>  (89) 
2

$$$$

     RDKit          3D

 48 51  0  0  0  0  0  0  0  0999 V2000
  140.5400   71.5140  221.3070 O   0  0  0  0  0  0  0  0  0  0  0  0
  140.1990   72.0780  222.3760 C   0  0  0  0  0  0  0  0  0  0  0  0
  139.8610   73.4500  222.3460 N   0  0  0  0  0  0  0  0  0  0  0  0
  139.9050   74.2110  221.0880 C   0  0  0  0  0  0  0  0  0  0  0  0
  140.6100   75.5000  221.2870 C   0  0  0  0  0  0  0  0  0  0  0  0
  140.3910   76.1210  222.3690 O   0  0  0  0  0  0  0  0  0  0  0  0
  141.4980   76.0760  220.3590 N   0  0  0  0  0  0  0  0  0  0  0  0
  141.8070   77.5220  220.3900 C   0  0  0  0  0  0  0  0  0  0  0  0
  142.3350   77.7640  218.9670 C   0  0  0  0  0  0  0  0  0  0  0  0
  142.9700   76.4490  218.5920 C   0  0  0  0  0  0  0  0  0  0  0  0
  142.1860   75.4230  219.3240 C   0  0  1  0  0  0  0  0  0  0  0  0
  142.9750   74.2400  219.7110 C   0  0  0  0  0  0  0  0  0  0  0  0
  142.5550   72.9510  219.4100 C   0  0  0  0  0  0  0  0  0  0  0  0
  143.2780   71.8310  219.7620 C   0  0  0  0  0  0  0  0  0  0  0  0
  144.4650   71.9440  220.4380 C   0  0  0  0  0  0  0  0  0  0  0  0
  144.9120   73.2080  220.7520 C   0  0  0  0  0  0  0  0  0  0  0  0
  146.4120   73.4380  221.6100 Cl  0  0  0  0  0  0  0  0  0  0  0  0
  144.1860   74.3260  220.3980 C   0  0  0  0  0  0  0  0  0  0  0  0
  140.1490   71.3390  223.6320 C   0  0  0  0  0  0  0  0  0  0  0  0
  139.5990   70.0650  223.6560 C   0  0  0  0  0  0  0  0  0  0  0  0
  139.5310   69.3300  224.8170 C   0  0  0  0  0  0  0  0  0  0  0  0
  140.0210   69.8800  225.9700 C   0  0  0  0  0  0  0  0  0  0  0  0
  139.9660   69.1690  227.1450 C   0  0  0  0  0  0  0  0  0  0  0  0
  140.4600   69.7330  228.2870 C   0  0  0  0  0  0  0  0  0  0  0  0
  141.0150   70.9990  228.3020 C   0  0  0  0  0  0  0  0  0  0  0  0
  141.0680   71.7040  227.1290 C   0  0  0  0  0  0  0  0  0  0  0  0
  140.5700   71.1470  225.9540 C   0  0  0  0  0  0  0  0  0  0  0  0
  140.6250   71.8510  224.7940 N   0  0  0  0  0  0  0  0  0  0  0  0
  139.5720   73.9530  223.2250 H   0  0  0  0  0  0  0  0  0  0  0  0
  140.4362   73.6214  220.3263 H   0  0  0  0  0  0  0  0  0  0  0  0
  138.8755   74.4150  220.7587 H   0  0  0  0  0  0  0  0  0  0  0  0
  140.9052   78.1196  220.5892 H   0  0  0  0  0  0  0  0  0  0  0  0
  142.5152   77.8083  221.1815 H   0  0  0  0  0  0  0  0  0  0  0  0
  141.5122   78.0120  218.2804 H   0  0  0  0  0  0  0  0  0  0  0  0
  143.0385   78.6079  218.9115 H   0  0  0  0  0  0  0  0  0  0  0  0
  142.9052   76.2837  217.5064 H   0  0  0  0  0  0  0  0  0  0  0  0
  144.0384   76.4165  218.8516 H   0  0  0  0  0  0  0  0  0  0  0  0
  141.4377   74.9616  218.6629 H   0  0  0  0  0  0  0  0  0  0  0  0
  141.6067   72.8181  218.8686 H   0  0  0  0  0  0  0  0  0  0  0  0
  142.8972   70.8337  219.4968 H   0  0  0  0  0  0  0  0  0  0  0  0
  145.0430   71.0520  220.7211 H   0  0  0  0  0  0  0  0  0  0  0  0
  144.5752   75.3192  220.6665 H   0  0  0  0  0  0  0  0  0  0  0  0
  139.2077   69.6321  222.7235 H   0  0  0  0  0  0  0  0  0  0  0  0
  139.0920   68.3214  224.8183 H   0  0  0  0  0  0  0  0  0  0  0  0
  139.5300   68.1593  227.1656 H   0  0  0  0  0  0  0  0  0  0  0  0
  140.4147   69.1609  229.2255 H   0  0  0  0  0  0  0  0  0  0  0  0
  141.4054   71.4306  229.2354 H   0  0  0  0  0  0  0  0  0  0  0  0
  141.5053   72.7133  227.1151 H   0  0  0  0  0  0  0  0  0  0  0  0
  1  2  2  0
  2  3  1  0
  3  4  1  0
  4  5  1  0
  5  6  2  0
  5  7  1  0
  7  8  1  0
  8  9  1  0
  9 10  1  0
 10 11  1  0
 11 12  1  0
 12 13  2  0
 13 14  1  0
 14 15  2  0
 15 16  1  0
 16 17  1  0
 16 18  2  0
  2 19  1  0
 19 20  2  0
 20 21  1  0
 21 22  2  0
 22 23  1  0
 23 24  2  0
 24 25  1  0
 25 26  2  0
 26 27  1  0
 27 28  2  0
 11  7  1  0
 18 12  1  0
 28 19  1  0
 27 22  1  0
  3 29  1  0
  4 30  1  0
  4 31  1  0
  8 32  1  0
  8 33  1  0
  9 34  1  0
  9 35  1  0
 10 36  1  0
 10 37  1  0
 11 38  1  6
 13 39  1  0
 14 40  1  0
 15 41  1  0
 18 42  1  0
 20 43  1  0
 21 44  1  0
 23 45  1  0
 24 46  1  0
 25 47  1  0
 26 48  1  0
M  END
>  <smiles>  (90) 
O=C(NCC(=O)N1CCCC1c1cccc(Cl)c1)c1ccc2ccccc2n1

>  <score_type>  (90) 
oracle

>  <origin>  (90) 
autodockgpu

>  <m_score__min__energy>  (90) 
-9.1600000000000001

>  <m_primary>  (90) 
energy

>  <rmsd>  (90) 
2.227553062263533

>  <m_score__min__rmsd>  (90) 
2.227553062263533

>  <meeko>  (90) 
{"free_energy": -9.12, "intermolecular_energy": -10.61, "internal_energy": -2.02, "cluster_size": 33, "cluster_id": 1, "rank_in_cluster": 11}

>  <energy>  (90) 
-8.73

>  <cluster_rmsd>  (90) 
0.79

>  <cluster>  (90) 
2

$$$$

     RDKit          3D

 48 51  0  0  0  0  0  0  0  0999 V2000
  141.2350   71.8200  221.5100 O   0  0  0  0  0  0  0  0  0  0  0  0
  140.5460   72.2880  222.4490 C   0  0  0  0  0  0  0  0  0  0  0  0
  140.0030   73.5870  222.3150 N   0  0  0  0  0  0  0  0  0  0  0  0
  140.2370   74.3800  221.0980 C   0  0  0  0  0  0  0  0  0  0  0  0
  139.8450   75.7930  221.3180 C   0  0  0  0  0  0  0  0  0  0  0  0
  139.4020   76.1020  222.4650 O   0  0  0  0  0  0  0  0  0  0  0  0
  139.9310   76.8060  220.3450 N   0  0  0  0  0  0  0  0  0  0  0  0
  138.9860   76.8570  219.2080 C   0  0  0  0  0  0  0  0  0  0  0  0
  139.7540   77.7260  218.1980 C   0  0  0  0  0  0  0  0  0  0  0  0
  140.5760   78.6440  219.0660 C   0  0  0  0  0  0  0  0  0  0  0  0
  140.8600   77.8570  220.2920 C   0  0  1  0  0  0  0  0  0  0  0  0
  140.9800   78.6810  221.5090 C   0  0  0  0  0  0  0  0  0  0  0  0
  142.2170   79.0180  222.0430 C   0  0  0  0  0  0  0  0  0  0  0  0
  142.3530   79.7880  223.1790 C   0  0  0  0  0  0  0  0  0  0  0  0
  141.2520   80.2610  223.8430 C   0  0  0  0  0  0  0  0  0  0  0  0
  140.0080   79.9460  223.3410 C   0  0  0  0  0  0  0  0  0  0  0  0
  138.5580   80.5090  224.1260 Cl  0  0  0  0  0  0  0  0  0  0  0  0
  139.8770   79.1760  222.2040 C   0  0  0  0  0  0  0  0  0  0  0  0
  140.3030   71.5150  223.6610 C   0  0  0  0  0  0  0  0  0  0  0  0
  139.5500   70.3510  223.5920 C   0  0  0  0  0  0  0  0  0  0  0  0
  139.2950   69.5900  224.7080 C   0  0  0  0  0  0  0  0  0  0  0  0
  139.8010   70.0000  225.9110 C   0  0  0  0  0  0  0  0  0  0  0  0
  139.5620   69.2590  227.0430 C   0  0  0  0  0  0  0  0  0  0  0  0
  140.0760   69.6830  228.2370 C   0  0  0  0  0  0  0  0  0  0  0  0
  140.8300   70.8360  228.3450 C   0  0  0  0  0  0  0  0  0  0  0  0
  141.0650   71.5720  227.2130 C   0  0  0  0  0  0  0  0  0  0  0  0
  140.5510   71.1570  225.9880 C   0  0  0  0  0  0  0  0  0  0  0  0
  140.7880   71.8900  224.8700 N   0  0  0  0  0  0  0  0  0  0  0  0
  139.4200   74.0100  223.0830 H   0  0  0  0  0  0  0  0  0  0  0  0
  141.3047   74.3366  220.8369 H   0  0  0  0  0  0  0  0  0  0  0  0
  139.6304   73.9648  220.2797 H   0  0  0  0  0  0  0  0  0  0  0  0
  138.7904   75.8525  218.8046 H   0  0  0  0  0  0  0  0  0  0  0  0
  137.9938   77.2523  219.4713 H   0  0  0  0  0  0  0  0  0  0  0  0
  140.4012   77.1062  217.5600 H   0  0  0  0  0  0  0  0  0  0  0  0
  139.0882   78.2713  217.5129 H   0  0  0  0  0  0  0  0  0  0  0  0
  141.5118   78.9213  218.5586 H   0  0  0  0  0  0  0  0  0  0  0  0
  140.0499   79.5838  219.2896 H   0  0  0  0  0  0  0  0  0  0  0  0
  141.8655   77.4136  220.2437 H   0  0  0  0  0  0  0  0  0  0  0  0
  143.1254   78.6559  221.5392 H   0  0  0  0  0  0  0  0  0  0  0  0
  143.3584   80.0254  223.5568 H   0  0  0  0  0  0  0  0  0  0  0  0
  141.3579   80.8741  224.7501 H   0  0  0  0  0  0  0  0  0  0  0  0
  138.8678   78.9445  221.8328 H   0  0  0  0  0  0  0  0  0  0  0  0
  139.1473   70.0295  222.6201 H   0  0  0  0  0  0  0  0  0  0  0  0
  138.6963   68.6701  224.6352 H   0  0  0  0  0  0  0  0  0  0  0  0
  138.9649   68.3367  226.9895 H   0  0  0  0  0  0  0  0  0  0  0  0
  139.8830   69.0868  229.1411 H   0  0  0  0  0  0  0  0  0  0  0  0
  141.2325   71.1558  229.3175 H   0  0  0  0  0  0  0  0  0  0  0  0
  141.6620   72.4940  227.2728 H   0  0  0  0  0  0  0  0  0  0  0  0
  1  2  2  0
  2  3  1  0
  3  4  1  0
  4  5  1  0
  5  6  2  0
  5  7  1  0
  7  8  1  0
  8  9  1  0
  9 10  1  0
 10 11  1  0
 11 12  1  0
 12 13  2  0
 13 14  1  0
 14 15  2  0
 15 16  1  0
 16 17  1  0
 16 18  2  0
  2 19  1  0
 19 20  2  0
 20 21  1  0
 21 22  2  0
 22 23  1  0
 23 24  2  0
 24 25  1  0
 25 26  2  0
 26 27  1  0
 27 28  2  0
 11  7  1  0
 18 12  1  0
 28 19  1  0
 27 22  1  0
  3 29  1  0
  4 30  1  0
  4 31  1  0
  8 32  1  0
  8 33  1  0
  9 34  1  0
  9 35  1  0
 10 36  1  0
 10 37  1  0
 11 38  1  6
 13 39  1  0
 14 40  1  0
 15 41  1  0
 18 42  1  0
 20 43  1  0
 21 44  1  0
 23 45  1  0
 24 46  1  0
 25 47  1  0
 26 48  1  0
M  END
>  <smiles>  (91) 
O=C(NCC(=O)N1CCCC1c1cccc(Cl)c1)c1ccc2ccccc2n1

>  <score_type>  (91) 
oracle

>  <origin>  (91) 
autodockgpu

>  <m_score__min__energy>  (91) 
-9.1600000000000001

>  <m_primary>  (91) 
energy

>  <rmsd>  (91) 
1.6656332223297494

>  <m_score__min__rmsd>  (91) 
1.6656332223297494

>  <meeko>  (91) 
{"free_energy": -8.57, "intermolecular_energy": -10.06, "internal_energy": -1.84, "cluster_size": 10, "cluster_id": 2, "rank_in_cluster": 10}

>  <energy>  (91) 
-8.67

>  <cluster_rmsd>  (91) 
0.86

>  <cluster>  (91) 
2

$$$$

     RDKit          3D

 48 51  0  0  0  0  0  0  0  0999 V2000
  138.9280   75.1650  221.9070 O   0  0  0  0  0  0  0  0  0  0  0  0
  140.0710   75.6750  222.0030 C   0  0  0  0  0  0  0  0  0  0  0  0
  141.2040   74.8580  221.7910 N   0  0  0  0  0  0  0  0  0  0  0  0
  141.0540   73.4310  221.4620 C   0  0  0  0  0  0  0  0  0  0  0  0
  141.9950   73.0470  220.3830 C   0  0  0  0  0  0  0  0  0  0  0  0
  141.5160   72.4260  219.3880 O   0  0  0  0  0  0  0  0  0  0  0  0
  143.3760   73.3240  220.3920 N   0  0  0  0  0  0  0  0  0  0  0  0
  144.3750   72.2350  220.3450 C   0  0  0  0  0  0  0  0  0  0  0  0
  145.6300   72.9320  220.8960 C   0  0  0  0  0  0  0  0  0  0  0  0
  145.4570   74.3680  220.4710 C   0  0  0  0  0  0  0  0  0  0  0  0
  143.9890   74.5850  220.4460 C   0  0  1  0  0  0  0  0  0  0  0  0
  143.5530   75.5650  219.4350 C   0  0  0  0  0  0  0  0  0  0  0  0
  143.7080   75.3290  218.0750 C   0  0  0  0  0  0  0  0  0  0  0  0
  143.3070   76.2310  217.1120 C   0  0  0  0  0  0  0  0  0  0  0  0
  142.7290   77.4230  217.4630 C   0  0  0  0  0  0  0  0  0  0  0  0
  142.5590   77.6900  218.8040 C   0  0  0  0  0  0  0  0  0  0  0  0
  141.8310   79.1820  219.3330 Cl  0  0  0  0  0  0  0  0  0  0  0  0
  142.9610   76.7850  219.7640 C   0  0  0  0  0  0  0  0  0  0  0  0
  140.2380   77.0880  222.3270 C   0  0  0  0  0  0  0  0  0  0  0  0
  139.1220   77.9090  222.4060 C   0  0  0  0  0  0  0  0  0  0  0  0
  139.2300   79.2460  222.7090 C   0  0  0  0  0  0  0  0  0  0  0  0
  140.4750   79.7680  222.9360 C   0  0  0  0  0  0  0  0  0  0  0  0
  140.6140   81.1010  223.2400 C   0  0  0  0  0  0  0  0  0  0  0  0
  141.8640   81.6050  223.4640 C   0  0  0  0  0  0  0  0  0  0  0  0
  142.9980   80.8180  223.3940 C   0  0  0  0  0  0  0  0  0  0  0  0
  142.8540   79.4900  223.0900 C   0  0  0  0  0  0  0  0  0  0  0  0
  141.5900   78.9570  222.8580 C   0  0  0  0  0  0  0  0  0  0  0  0
  141.4550   77.6400  222.5580 N   0  0  0  0  0  0  0  0  0  0  0  0
  142.1770   75.2540  221.8640 H   0  0  0  0  0  0  0  0  0  0  0  0
  141.2647   72.8285  222.3579 H   0  0  0  0  0  0  0  0  0  0  0  0
  140.0248   73.2507  221.1183 H   0  0  0  0  0  0  0  0  0  0  0  0
  144.0752   71.3893  220.9812 H   0  0  0  0  0  0  0  0  0  0  0  0
  144.5115   71.7999  219.3440 H   0  0  0  0  0  0  0  0  0  0  0  0
  145.6749   72.8500  221.9920 H   0  0  0  0  0  0  0  0  0  0  0  0
  146.5638   72.4864  220.5224 H   0  0  0  0  0  0  0  0  0  0  0  0
  145.9361   75.0456  221.1930 H   0  0  0  0  0  0  0  0  0  0  0  0
  145.9219   74.5696  219.4947 H   0  0  0  0  0  0  0  0  0  0  0  0
  143.6544   75.0809  221.3691 H   0  0  0  0  0  0  0  0  0  0  0  0
  144.1695   74.3839  217.7529 H   0  0  0  0  0  0  0  0  0  0  0  0
  143.4530   75.9907  216.0485 H   0  0  0  0  0  0  0  0  0  0  0  0
  142.4103   78.1451  216.6969 H   0  0  0  0  0  0  0  0  0  0  0  0
  142.8098   77.0334  220.8249 H   0  0  0  0  0  0  0  0  0  0  0  0
  138.1262   77.4796  222.2217 H   0  0  0  0  0  0  0  0  0  0  0  0
  138.3349   79.8826  222.7677 H   0  0  0  0  0  0  0  0  0  0  0  0
  139.7306   81.7535  223.3022 H   0  0  0  0  0  0  0  0  0  0  0  0
  141.9714   82.6722  223.7081 H   0  0  0  0  0  0  0  0  0  0  0  0
  143.9935   81.2482  223.5782 H   0  0  0  0  0  0  0  0  0  0  0  0
  143.7412   78.8426  223.0291 H   0  0  0  0  0  0  0  0  0  0  0  0
  1  2  2  0
  2  3  1  0
  3  4  1  0
  4  5  1  0
  5  6  2  0
  5  7  1  0
  7  8  1  0
  8  9  1  0
  9 10  1  0
 10 11  1  0
 11 12  1  0
 12 13  2  0
 13 14  1  0
 14 15  2  0
 15 16  1  0
 16 17  1  0
 16 18  2  0
  2 19  1  0
 19 20  2  0
 20 21  1  0
 21 22  2  0
 22 23  1  0
 23 24  2  0
 24 25  1  0
 25 26  2  0
 26 27  1  0
 27 28  2  0
 11  7  1  0
 18 12  1  0
 28 19  1  0
 27 22  1  0
  3 29  1  0
  4 30  1  0
  4 31  1  0
  8 32  1  0
  8 33  1  0
  9 34  1  0
  9 35  1  0
 10 36  1  0
 10 37  1  0
 11 38  1  1
 13 39  1  0
 14 40  1  0
 15 41  1  0
 18 42  1  0
 20 43  1  0
 21 44  1  0
 23 45  1  0
 24 46  1  0
 25 47  1  0
 26 48  1  0
M  END
>  <smiles>  (92) 
O=C(NCC(=O)N1CCCC1c1cccc(Cl)c1)c1ccc2ccccc2n1

>  <score_type>  (92) 
oracle

>  <origin>  (92) 
autodockgpu

>  <m_score__min__energy>  (92) 
-9.1600000000000001

>  <m_primary>  (92) 
energy

>  <rmsd>  (92) 
7.857633996907805

>  <m_score__min__rmsd>  (92) 
7.857633996907805

>  <meeko>  (92) 
{"free_energy": -7.83, "intermolecular_energy": -9.32, "internal_energy": -2.56, "cluster_size": 2, "cluster_id": 5, "rank_in_cluster": 2}

>  <energy>  (92) 
-8.64

>  <cluster_rmsd>  (92) 
1.18

>  <cluster>  (92) 
2

$$$$

     RDKit          3D

 48 51  0  0  0  0  0  0  0  0999 V2000
  140.4630   71.5920  221.2420 O   0  0  0  0  0  0  0  0  0  0  0  0
  140.1500   72.1310  222.3320 C   0  0  0  0  0  0  0  0  0  0  0  0
  139.8330   73.5090  222.3460 N   0  0  0  0  0  0  0  0  0  0  0  0
  139.8660   74.3030  221.1070 C   0  0  0  0  0  0  0  0  0  0  0  0
  140.6660   75.5350  221.3040 C   0  0  0  0  0  0  0  0  0  0  0  0
  140.5450   76.1360  222.4130 O   0  0  0  0  0  0  0  0  0  0  0  0
  141.5450   76.0780  220.3470 N   0  0  0  0  0  0  0  0  0  0  0  0
  141.8720   77.5200  220.3410 C   0  0  0  0  0  0  0  0  0  0  0  0
  142.3770   77.7240  218.9030 C   0  0  0  0  0  0  0  0  0  0  0  0
  142.9880   76.3920  218.5460 C   0  0  0  0  0  0  0  0  0  0  0  0
  142.2040   75.3940  219.3150 C   0  0  1  0  0  0  0  0  0  0  0  0
  142.9850   74.2090  219.7140 C   0  0  0  0  0  0  0  0  0  0  0  0
  142.5640   72.9200  219.4110 C   0  0  0  0  0  0  0  0  0  0  0  0
  143.2790   71.7990  219.7750 C   0  0  0  0  0  0  0  0  0  0  0  0
  144.4590   71.9100  220.4640 C   0  0  0  0  0  0  0  0  0  0  0  0
  144.9070   73.1740  220.7800 C   0  0  0  0  0  0  0  0  0  0  0  0
  146.3970   73.4000  221.6540 Cl  0  0  0  0  0  0  0  0  0  0  0  0
  144.1880   74.2930  220.4150 C   0  0  0  0  0  0  0  0  0  0  0  0
  140.1110   71.3590  223.5680 C   0  0  0  0  0  0  0  0  0  0  0  0
  139.5660   70.0820  223.5620 C   0  0  0  0  0  0  0  0  0  0  0  0
  139.5090   69.3170  224.7030 C   0  0  0  0  0  0  0  0  0  0  0  0
  140.0030   69.8390  225.8670 C   0  0  0  0  0  0  0  0  0  0  0  0
  139.9590   69.0960  227.0230 C   0  0  0  0  0  0  0  0  0  0  0  0
  140.4580   69.6320  228.1770 C   0  0  0  0  0  0  0  0  0  0  0  0
  141.0080   70.9000  228.2220 C   0  0  0  0  0  0  0  0  0  0  0  0
  141.0500   71.6350  227.0670 C   0  0  0  0  0  0  0  0  0  0  0  0
  140.5470   71.1080  225.8810 C   0  0  0  0  0  0  0  0  0  0  0  0
  140.5920   71.8420  224.7410 N   0  0  0  0  0  0  0  0  0  0  0  0
  139.5660   73.9920  223.2420 H   0  0  0  0  0  0  0  0  0  0  0  0
  140.3173   73.7024  220.3035 H   0  0  0  0  0  0  0  0  0  0  0  0
  138.8377   74.5848  220.8363 H   0  0  0  0  0  0  0  0  0  0  0  0
  140.9814   78.1332  220.5432 H   0  0  0  0  0  0  0  0  0  0  0  0
  142.5978   77.8147  221.1133 H   0  0  0  0  0  0  0  0  0  0  0  0
  141.5450   77.9679  218.2260 H   0  0  0  0  0  0  0  0  0  0  0  0
  143.0901   78.5570  218.8159 H   0  0  0  0  0  0  0  0  0  0  0  0
  142.9011   76.2034  217.4658 H   0  0  0  0  0  0  0  0  0  0  0  0
  144.0606   76.3506  218.7866 H   0  0  0  0  0  0  0  0  0  0  0  0
  141.4368   74.9292  218.6783 H   0  0  0  0  0  0  0  0  0  0  0  0
  141.6220   72.7887  218.8583 H   0  0  0  0  0  0  0  0  0  0  0  0
  142.8976   70.8021  219.5090 H   0  0  0  0  0  0  0  0  0  0  0  0
  145.0309   71.0168  220.7558 H   0  0  0  0  0  0  0  0  0  0  0  0
  144.5766   75.2857  220.6860 H   0  0  0  0  0  0  0  0  0  0  0  0
  139.1700   69.6722  222.6211 H   0  0  0  0  0  0  0  0  0  0  0  0
  139.0753   68.3064  224.6804 H   0  0  0  0  0  0  0  0  0  0  0  0
  139.5281   68.0839  227.0191 H   0  0  0  0  0  0  0  0  0  0  0  0
  140.4209   69.0352  229.1003 H   0  0  0  0  0  0  0  0  0  0  0  0
  141.4027   71.3090  229.1638 H   0  0  0  0  0  0  0  0  0  0  0  0
  141.4831   72.6461  227.0767 H   0  0  0  0  0  0  0  0  0  0  0  0
  1  2  2  0
  2  3  1  0
  3  4  1  0
  4  5  1  0
  5  6  2  0
  5  7  1  0
  7  8  1  0
  8  9  1  0
  9 10  1  0
 10 11  1  0
 11 12  1  0
 12 13  2  0
 13 14  1  0
 14 15  2  0
 15 16  1  0
 16 17  1  0
 16 18  2  0
  2 19  1  0
 19 20  2  0
 20 21  1  0
 21 22  2  0
 22 23  1  0
 23 24  2  0
 24 25  1  0
 25 26  2  0
 26 27  1  0
 27 28  2  0
 11  7  1  0
 18 12  1  0
 28 19  1  0
 27 22  1  0
  3 29  1  0
  4 30  1  0
  4 31  1  0
  8 32  1  0
  8 33  1  0
  9 34  1  0
  9 35  1  0
 10 36  1  0
 10 37  1  0
 11 38  1  6
 13 39  1  0
 14 40  1  0
 15 41  1  0
 18 42  1  0
 20 43  1  0
 21 44  1  0
 23 45  1  0
 24 46  1  0
 25 47  1  0
 26 48  1  0
M  END
>  <smiles>  (93) 
O=C(NCC(=O)N1CCCC1c1cccc(Cl)c1)c1ccc2ccccc2n1

>  <score_type>  (93) 
oracle

>  <origin>  (93) 
autodockgpu

>  <m_score__min__energy>  (93) 
-9.1600000000000001

>  <m_primary>  (93) 
energy

>  <rmsd>  (93) 
2.220980605535266

>  <m_score__min__rmsd>  (93) 
2.220980605535266

>  <meeko>  (93) 
{"free_energy": -9.04, "intermolecular_energy": -10.53, "internal_energy": -2.03, "cluster_size": 33, "cluster_id": 1, "rank_in_cluster": 20}

>  <energy>  (93) 
-8.57

>  <cluster_rmsd>  (93) 
0.65

>  <cluster>  (93) 
2

$$$$

     RDKit          3D

 48 51  0  0  0  0  0  0  0  0999 V2000
  140.8930   71.5070  221.3900 O   0  0  0  0  0  0  0  0  0  0  0  0
  140.3920   72.0640  222.3970 C   0  0  0  0  0  0  0  0  0  0  0  0
  139.9780   73.4120  222.2960 N   0  0  0  0  0  0  0  0  0  0  0  0
  140.1280   74.1550  221.0350 C   0  0  0  0  0  0  0  0  0  0  0  0
  140.8670   75.4200  221.2640 C   0  0  0  0  0  0  0  0  0  0  0  0
  140.7390   75.9700  222.3990 O   0  0  0  0  0  0  0  0  0  0  0  0
  141.6930   76.0460  220.3120 N   0  0  0  0  0  0  0  0  0  0  0  0
  141.9720   77.4970  220.3760 C   0  0  0  0  0  0  0  0  0  0  0  0
  142.4200   77.7970  218.9360 C   0  0  0  0  0  0  0  0  0  0  0  0
  143.0620   76.5100  218.4850 C   0  0  0  0  0  0  0  0  0  0  0  0
  142.3390   75.4440  219.2210 C   0  0  1  0  0  0  0  0  0  0  0  0
  143.1730   74.2670  219.5270 C   0  0  0  0  0  0  0  0  0  0  0  0
  142.9120   73.0220  218.9700 C   0  0  0  0  0  0  0  0  0  0  0  0
  143.6790   71.9080  219.2420 C   0  0  0  0  0  0  0  0  0  0  0  0
  144.7530   71.9850  220.0910 C   0  0  0  0  0  0  0  0  0  0  0  0
  145.0400   73.2050  220.6620 C   0  0  0  0  0  0  0  0  0  0  0  0
  146.3880   73.3860  221.7520 Cl  0  0  0  0  0  0  0  0  0  0  0  0
  144.2710   74.3160  220.3870 C   0  0  0  0  0  0  0  0  0  0  0  0
  140.2350   71.3420  223.6540 C   0  0  0  0  0  0  0  0  0  0  0  0
  139.5870   70.1150  223.6640 C   0  0  0  0  0  0  0  0  0  0  0  0
  139.4160   69.3990  224.8250 C   0  0  0  0  0  0  0  0  0  0  0  0
  139.9010   69.9190  225.9930 C   0  0  0  0  0  0  0  0  0  0  0  0
  139.7440   69.2250  227.1690 C   0  0  0  0  0  0  0  0  0  0  0  0
  140.2350   69.7600  228.3270 C   0  0  0  0  0  0  0  0  0  0  0  0
  140.8860   70.9780  228.3570 C   0  0  0  0  0  0  0  0  0  0  0  0
  141.0400   71.6660  227.1830 C   0  0  0  0  0  0  0  0  0  0  0  0
  140.5470   71.1400  225.9920 C   0  0  0  0  0  0  0  0  0  0  0  0
  140.7030   71.8260  224.8320 N   0  0  0  0  0  0  0  0  0  0  0  0
  139.5540   73.9090  223.1220 H   0  0  0  0  0  0  0  0  0  0  0  0
  140.6829   73.5367  220.3140 H   0  0  0  0  0  0  0  0  0  0  0  0
  139.1291   74.3923  220.6402 H   0  0  0  0  0  0  0  0  0  0  0  0
  141.0692   78.0668  220.6412 H   0  0  0  0  0  0  0  0  0  0  0  0
  142.7140   77.7739  221.1394 H   0  0  0  0  0  0  0  0  0  0  0  0
  141.5574   78.0483  218.3013 H   0  0  0  0  0  0  0  0  0  0  0  0
  143.1017   78.6580  218.8727 H   0  0  0  0  0  0  0  0  0  0  0  0
  142.9444   76.3786  217.3992 H   0  0  0  0  0  0  0  0  0  0  0  0
  144.1429   76.4932  218.6881 H   0  0  0  0  0  0  0  0  0  0  0  0
  141.5664   74.9887  218.5840 H   0  0  0  0  0  0  0  0  0  0  0  0
  142.0585   72.9198  218.2836 H   0  0  0  0  0  0  0  0  0  0  0  0
  143.4259   70.9462  218.7720 H   0  0  0  0  0  0  0  0  0  0  0  0
  145.3670   71.0989  220.3095 H   0  0  0  0  0  0  0  0  0  0  0  0
  144.5318   75.2735  220.8616 H   0  0  0  0  0  0  0  0  0  0  0  0
  139.2005   69.7050  222.7193 H   0  0  0  0  0  0  0  0  0  0  0  0
  138.8996   68.4278  224.8146 H   0  0  0  0  0  0  0  0  0  0  0  0
  139.2303   68.2524  227.1781 H   0  0  0  0  0  0  0  0  0  0  0  0
  140.1075   69.2020  229.2664 H   0  0  0  0  0  0  0  0  0  0  0  0
  141.2721   71.3861  229.3027 H   0  0  0  0  0  0  0  0  0  0  0  0
  141.5552   72.6379  227.1810 H   0  0  0  0  0  0  0  0  0  0  0  0
  1  2  2  0
  2  3  1  0
  3  4  1  0
  4  5  1  0
  5  6  2  0
  5  7  1  0
  7  8  1  0
  8  9  1  0
  9 10  1  0
 10 11  1  0
 11 12  1  0
 12 13  2  0
 13 14  1  0
 14 15  2  0
 15 16  1  0
 16 17  1  0
 16 18  2  0
  2 19  1  0
 19 20  2  0
 20 21  1  0
 21 22  2  0
 22 23  1  0
 23 24  2  0
 24 25  1  0
 25 26  2  0
 26 27  1  0
 27 28  2  0
 11  7  1  0
 18 12  1  0
 28 19  1  0
 27 22  1  0
  3 29  1  0
  4 30  1  0
  4 31  1  0
  8 32  1  0
  8 33  1  0
  9 34  1  0
  9 35  1  0
 10 36  1  0
 10 37  1  0
 11 38  1  6
 13 39  1  0
 14 40  1  0
 15 41  1  0
 18 42  1  0
 20 43  1  0
 21 44  1  0
 23 45  1  0
 24 46  1  0
 25 47  1  0
 26 48  1  0
M  END
>  <smiles>  (94) 
O=C(NCC(=O)N1CCCC1c1cccc(Cl)c1)c1ccc2ccccc2n1

>  <score_type>  (94) 
oracle

>  <origin>  (94) 
autodockgpu

>  <m_score__min__energy>  (94) 
-9.1600000000000001

>  <m_primary>  (94) 
energy

>  <rmsd>  (94) 
2.3028815975049812

>  <m_score__min__rmsd>  (94) 
2.3028815975049812

>  <meeko>  (94) 
{"free_energy": -9.12, "intermolecular_energy": -10.61, "internal_energy": -1.96, "cluster_size": 33, "cluster_id": 1, "rank_in_cluster": 8}

>  <energy>  (94) 
-8.79

>  <cluster_rmsd>  (94) 
0.0

>  <cluster>  (94) 
3

$$$$

     RDKit          3D

 48 51  0  0  0  0  0  0  0  0999 V2000
  139.5840   70.9820  221.3370 O   0  0  0  0  0  0  0  0  0  0  0  0
  139.6520   71.6020  222.4260 C   0  0  0  0  0  0  0  0  0  0  0  0
  139.6510   73.0160  222.4090 N   0  0  0  0  0  0  0  0  0  0  0  0
  139.5720   73.7540  221.1380 C   0  0  0  0  0  0  0  0  0  0  0  0
  140.2230   75.0800  221.2690 C   0  0  0  0  0  0  0  0  0  0  0  0
  140.8580   75.3130  222.3400 O   0  0  0  0  0  0  0  0  0  0  0  0
  140.1810   76.0900  220.2890 N   0  0  0  0  0  0  0  0  0  0  0  0
  139.3500   75.9430  219.0740 C   0  0  0  0  0  0  0  0  0  0  0  0
  140.0050   76.9540  218.1190 C   0  0  0  0  0  0  0  0  0  0  0  0
  140.5380   78.0220  219.0390 C   0  0  0  0  0  0  0  0  0  0  0  0
  140.8710   77.3110  220.2980 C   0  0  1  0  0  0  0  0  0  0  0  0
  140.7100   78.1410  221.5060 C   0  0  0  0  0  0  0  0  0  0  0  0
  139.4910   78.2450  222.1630 C   0  0  0  0  0  0  0  0  0  0  0  0
  139.3180   79.0150  223.2950 C   0  0  0  0  0  0  0  0  0  0  0  0
  140.3630   79.7240  223.8290 C   0  0  0  0  0  0  0  0  0  0  0  0
  141.5870   79.6430  223.2020 C   0  0  0  0  0  0  0  0  0  0  0  0
  142.9650   80.5150  223.8170 Cl  0  0  0  0  0  0  0  0  0  0  0  0
  141.7550   78.8730  222.0700 C   0  0  0  0  0  0  0  0  0  0  0  0
  139.7290   70.8860  223.6950 C   0  0  0  0  0  0  0  0  0  0  0  0
  139.2480   69.5870  223.7790 C   0  0  0  0  0  0  0  0  0  0  0  0
  139.3010   68.8740  224.9530 C   0  0  0  0  0  0  0  0  0  0  0  0
  139.8430   69.4700  226.0590 C   0  0  0  0  0  0  0  0  0  0  0  0
  139.9080   68.7800  227.2460 C   0  0  0  0  0  0  0  0  0  0  0  0
  140.4530   69.3910  228.3410 C   0  0  0  0  0  0  0  0  0  0  0  0
  140.9420   70.6830  228.2950 C   0  0  0  0  0  0  0  0  0  0  0  0
  140.8750   71.3660  227.1090 C   0  0  0  0  0  0  0  0  0  0  0  0
  140.3230   70.7620  225.9830 C   0  0  0  0  0  0  0  0  0  0  0  0
  140.2600   71.4440  224.8110 N   0  0  0  0  0  0  0  0  0  0  0  0
  139.7070   73.5670  223.3040 H   0  0  0  0  0  0  0  0  0  0  0  0
  140.0802   73.1768  220.3515 H   0  0  0  0  0  0  0  0  0  0  0  0
  138.5139   73.9003  220.8754 H   0  0  0  0  0  0  0  0  0  0  0  0
  139.4047   74.9202  218.6730 H   0  0  0  0  0  0  0  0  0  0  0  0
  138.2780   76.1216  219.2439 H   0  0  0  0  0  0  0  0  0  0  0  0
  140.8205   76.4841  217.5497 H   0  0  0  0  0  0  0  0  0  0  0  0
  139.3031   77.3487  217.3697 H   0  0  0  0  0  0  0  0  0  0  0  0
  141.4363   78.4896  218.6095 H   0  0  0  0  0  0  0  0  0  0  0  0
  139.8096   78.8303  219.2005 H   0  0  0  0  0  0  0  0  0  0  0  0
  141.9470   77.0874  220.3445 H   0  0  0  0  0  0  0  0  0  0  0  0
  138.6281   77.6910  221.7648 H   0  0  0  0  0  0  0  0  0  0  0  0
  138.3293   79.0605  223.7750 H   0  0  0  0  0  0  0  0  0  0  0  0
  140.2281   80.3390  224.7310 H   0  0  0  0  0  0  0  0  0  0  0  0
  142.7468   78.8348  221.5958 H   0  0  0  0  0  0  0  0  0  0  0  0
  138.8138   69.1165  222.8845 H   0  0  0  0  0  0  0  0  0  0  0  0
  138.9154   67.8450  225.0024 H   0  0  0  0  0  0  0  0  0  0  0  0
  139.5268   67.7504  227.3140 H   0  0  0  0  0  0  0  0  0  0  0  0
  140.5040   68.8363  229.2895 H   0  0  0  0  0  0  0  0  0  0  0  0
  141.3753   71.1524  229.1905 H   0  0  0  0  0  0  0  0  0  0  0  0
  141.2587   72.3950  227.0466 H   0  0  0  0  0  0  0  0  0  0  0  0
  1  2  2  0
  2  3  1  0
  3  4  1  0
  4  5  1  0
  5  6  2  0
  5  7  1  0
  7  8  1  0
  8  9  1  0
  9 10  1  0
 10 11  1  0
 11 12  1  0
 12 13  2  0
 13 14  1  0
 14 15  2  0
 15 16  1  0
 16 17  1  0
 16 18  2  0
  2 19  1  0
 19 20  2  0
 20 21  1  0
 21 22  2  0
 22 23  1  0
 23 24  2  0
 24 25  1  0
 25 26  2  0
 26 27  1  0
 27 28  2  0
 11  7  1  0
 18 12  1  0
 28 19  1  0
 27 22  1  0
  3 29  1  0
  4 30  1  0
  4 31  1  0
  8 32  1  0
  8 33  1  0
  9 34  1  0
  9 35  1  0
 10 36  1  0
 10 37  1  0
 11 38  1  6
 13 39  1  0
 14 40  1  0
 15 41  1  0
 18 42  1  0
 20 43  1  0
 21 44  1  0
 23 45  1  0
 24 46  1  0
 25 47  1  0
 26 48  1  0
M  END
>  <smiles>  (95) 
O=C(NCC(=O)N1CCCC1c1cccc(Cl)c1)c1ccc2ccccc2n1

>  <score_type>  (95) 
oracle

>  <origin>  (95) 
autodockgpu

>  <m_score__min__energy>  (95) 
-9.1600000000000001

>  <m_primary>  (95) 
energy

>  <rmsd>  (95) 
1.0488927964383115

>  <m_score__min__rmsd>  (95) 
1.0488927964383115

>  <meeko>  (95) 
{"free_energy": -8.64, "intermolecular_energy": -10.13, "internal_energy": -1.82, "cluster_size": 10, "cluster_id": 2, "rank_in_cluster": 9}

>  <energy>  (95) 
-8.77

>  <cluster_rmsd>  (95) 
0.26

>  <cluster>  (95) 
3

$$$$

     RDKit          3D

 48 51  0  0  0  0  0  0  0  0999 V2000
  140.8030   71.4140  221.3630 O   0  0  0  0  0  0  0  0  0  0  0  0
  140.3320   71.9880  222.3740 C   0  0  0  0  0  0  0  0  0  0  0  0
  139.9610   73.3490  222.2760 N   0  0  0  0  0  0  0  0  0  0  0  0
  140.1220   74.0850  221.0130 C   0  0  0  0  0  0  0  0  0  0  0  0
  140.7790   75.3920  221.2560 C   0  0  0  0  0  0  0  0  0  0  0  0
  140.5670   75.9500  222.3740 O   0  0  0  0  0  0  0  0  0  0  0  0
  141.6140   76.0500  220.3330 N   0  0  0  0  0  0  0  0  0  0  0  0
  141.8740   77.5020  220.4360 C   0  0  0  0  0  0  0  0  0  0  0  0
  142.3440   77.8420  219.0120 C   0  0  0  0  0  0  0  0  0  0  0  0
  143.0090   76.5730  218.5420 C   0  0  0  0  0  0  0  0  0  0  0  0
  142.2860   75.4810  219.2400 C   0  0  1  0  0  0  0  0  0  0  0  0
  143.1280   74.3070  219.5330 C   0  0  0  0  0  0  0  0  0  0  0  0
  142.8860   73.0700  218.9490 C   0  0  0  0  0  0  0  0  0  0  0  0
  143.6610   71.9600  219.2080 C   0  0  0  0  0  0  0  0  0  0  0  0
  144.7240   72.0300  220.0710 C   0  0  0  0  0  0  0  0  0  0  0  0
  144.9930   73.2420  220.6680 C   0  0  0  0  0  0  0  0  0  0  0  0
  146.3270   73.4150  221.7770 Cl  0  0  0  0  0  0  0  0  0  0  0  0
  144.2150   74.3510  220.4060 C   0  0  0  0  0  0  0  0  0  0  0  0
  140.1650   71.2730  223.6350 C   0  0  0  0  0  0  0  0  0  0  0  0
  139.5160   70.0460  223.6450 C   0  0  0  0  0  0  0  0  0  0  0  0
  139.3350   69.3360  224.8090 C   0  0  0  0  0  0  0  0  0  0  0  0
  139.8110   69.8630  225.9780 C   0  0  0  0  0  0  0  0  0  0  0  0
  139.6450   69.1750  227.1570 C   0  0  0  0  0  0  0  0  0  0  0  0
  140.1260   69.7150  228.3160 C   0  0  0  0  0  0  0  0  0  0  0  0
  140.7780   70.9340  228.3440 C   0  0  0  0  0  0  0  0  0  0  0  0
  140.9410   71.6150  227.1670 C   0  0  0  0  0  0  0  0  0  0  0  0
  140.4570   71.0830  225.9760 C   0  0  0  0  0  0  0  0  0  0  0  0
  140.6230   71.7630  224.8130 N   0  0  0  0  0  0  0  0  0  0  0  0
  139.5630   73.8610  223.1060 H   0  0  0  0  0  0  0  0  0  0  0  0
  140.7404   73.4912  220.3238 H   0  0  0  0  0  0  0  0  0  0  0  0
  139.1290   74.2612  220.5738 H   0  0  0  0  0  0  0  0  0  0  0  0
  140.9597   78.0545  220.6981 H   0  0  0  0  0  0  0  0  0  0  0  0
  142.5990   77.7692  221.2190 H   0  0  0  0  0  0  0  0  0  0  0  0
  141.4900   78.0990  218.3680 H   0  0  0  0  0  0  0  0  0  0  0  0
  143.0165   78.7120  218.9816 H   0  0  0  0  0  0  0  0  0  0  0  0
  142.9117   76.4662  217.4515 H   0  0  0  0  0  0  0  0  0  0  0  0
  144.0864   76.5638  218.7638 H   0  0  0  0  0  0  0  0  0  0  0  0
  141.5304   75.0315  218.5789 H   0  0  0  0  0  0  0  0  0  0  0  0
  142.0412   72.9723  218.2513 H   0  0  0  0  0  0  0  0  0  0  0  0
  143.4235   71.0054  218.7158 H   0  0  0  0  0  0  0  0  0  0  0  0
  145.3432   71.1453  220.2803 H   0  0  0  0  0  0  0  0  0  0  0  0
  144.4602   75.3016  220.9022 H   0  0  0  0  0  0  0  0  0  0  0  0
  139.1373   69.6314  222.6991 H   0  0  0  0  0  0  0  0  0  0  0  0
  138.8184   68.3649  224.8000 H   0  0  0  0  0  0  0  0  0  0  0  0
  139.1315   68.2023  227.1668 H   0  0  0  0  0  0  0  0  0  0  0  0
  139.9903   69.1622  229.2573 H   0  0  0  0  0  0  0  0  0  0  0  0
  141.1572   71.3474  229.2902 H   0  0  0  0  0  0  0  0  0  0  0  0
  141.4567   72.5866  227.1633 H   0  0  0  0  0  0  0  0  0  0  0  0
  1  2  2  0
  2  3  1  0
  3  4  1  0
  4  5  1  0
  5  6  2  0
  5  7  1  0
  7  8  1  0
  8  9  1  0
  9 10  1  0
 10 11  1  0
 11 12  1  0
 12 13  2  0
 13 14  1  0
 14 15  2  0
 15 16  1  0
 16 17  1  0
 16 18  2  0
  2 19  1  0
 19 20  2  0
 20 21  1  0
 21 22  2  0
 22 23  1  0
 23 24  2  0
 24 25  1  0
 25 26  2  0
 26 27  1  0
 27 28  2  0
 11  7  1  0
 18 12  1  0
 28 19  1  0
 27 22  1  0
  3 29  1  0
  4 30  1  0
  4 31  1  0
  8 32  1  0
  8 33  1  0
  9 34  1  0
  9 35  1  0
 10 36  1  0
 10 37  1  0
 11 38  1  6
 13 39  1  0
 14 40  1  0
 15 41  1  0
 18 42  1  0
 20 43  1  0
 21 44  1  0
 23 45  1  0
 24 46  1  0
 25 47  1  0
 26 48  1  0
M  END
>  <smiles>  (96) 
O=C(NCC(=O)N1CCCC1c1cccc(Cl)c1)c1ccc2ccccc2n1

>  <score_type>  (96) 
oracle

>  <origin>  (96) 
autodockgpu

>  <m_score__min__energy>  (96) 
-9.1600000000000001

>  <m_primary>  (96) 
energy

>  <rmsd>  (96) 
2.2661261265924804

>  <m_score__min__rmsd>  (96) 
2.2661261265924804

>  <meeko>  (96) 
{"free_energy": -9.11, "intermolecular_energy": -10.6, "internal_energy": -1.99, "cluster_size": 33, "cluster_id": 1, "rank_in_cluster": 12}

>  <energy>  (96) 
-8.63

>  <cluster_rmsd>  (96) 
1.62

>  <cluster>  (96) 
3

$$$$

     RDKit          3D

 48 51  0  0  0  0  0  0  0  0999 V2000
  140.7260   71.6000  221.3370 O   0  0  0  0  0  0  0  0  0  0  0  0
  140.3040   72.1510  222.3830 C   0  0  0  0  0  0  0  0  0  0  0  0
  139.9360   73.5160  222.3350 N   0  0  0  0  0  0  0  0  0  0  0  0
  140.0440   74.2820  221.0840 C   0  0  0  0  0  0  0  0  0  0  0  0
  140.3850   75.6960  221.3720 C   0  0  0  0  0  0  0  0  0  0  0  0
  140.2180   76.1050  222.5600 O   0  0  0  0  0  0  0  0  0  0  0  0
  140.8780   76.6080  220.4190 N   0  0  0  0  0  0  0  0  0  0  0  0
  140.4150   76.5730  219.0150 C   0  0  0  0  0  0  0  0  0  0  0  0
  141.5460   77.3200  218.2900 C   0  0  0  0  0  0  0  0  0  0  0  0
  142.0500   78.2960  219.3220 C   0  0  0  0  0  0  0  0  0  0  0  0
  141.8230   77.6250  220.6260 C   0  0  1  0  0  0  0  0  0  0  0  0
  141.5430   78.5590  221.7310 C   0  0  0  0  0  0  0  0  0  0  0  0
  142.5630   79.1370  222.4750 C   0  0  0  0  0  0  0  0  0  0  0  0
  142.3230   80.0140  223.5130 C   0  0  0  0  0  0  0  0  0  0  0  0
  141.0430   80.3580  223.8610 C   0  0  0  0  0  0  0  0  0  0  0  0
  140.0060   79.8030  223.1430 C   0  0  0  0  0  0  0  0  0  0  0  0
  138.3500   80.1890  223.5230 Cl  0  0  0  0  0  0  0  0  0  0  0  0
  140.2500   78.9260  222.1060 C   0  0  0  0  0  0  0  0  0  0  0  0
  140.1900   71.4060  223.6310 C   0  0  0  0  0  0  0  0  0  0  0  0
  139.5810   70.1590  223.6310 C   0  0  0  0  0  0  0  0  0  0  0  0
  139.4510   69.4200  224.7840 C   0  0  0  0  0  0  0  0  0  0  0  0
  139.9390   69.9380  225.9530 C   0  0  0  0  0  0  0  0  0  0  0  0
  139.8230   69.2210  227.1200 C   0  0  0  0  0  0  0  0  0  0  0  0
  140.3150   69.7530  228.2790 C   0  0  0  0  0  0  0  0  0  0  0  0
  140.9280   70.9910  228.3170 C   0  0  0  0  0  0  0  0  0  0  0  0
  141.0410   71.7020  227.1510 C   0  0  0  0  0  0  0  0  0  0  0  0
  140.5450   71.1780  225.9600 C   0  0  0  0  0  0  0  0  0  0  0  0
  140.6610   71.8870  224.8090 N   0  0  0  0  0  0  0  0  0  0  0  0
  139.5790   74.0080  223.1940 H   0  0  0  0  0  0  0  0  0  0  0  0
  140.8310   73.8401  220.4552 H   0  0  0  0  0  0  0  0  0  0  0  0
  139.0776   74.2475  220.5597 H   0  0  0  0  0  0  0  0  0  0  0  0
  140.3201   75.5395  218.6506 H   0  0  0  0  0  0  0  0  0  0  0  0
  139.4202   77.0173  218.8636 H   0  0  0  0  0  0  0  0  0  0  0  0
  142.3426   76.6252  217.9855 H   0  0  0  0  0  0  0  0  0  0  0  0
  141.2073   77.8133  217.3670 H   0  0  0  0  0  0  0  0  0  0  0  0
  143.1208   78.4987  219.1724 H   0  0  0  0  0  0  0  0  0  0  0  0
  141.5350   79.2660  219.2605 H   0  0  0  0  0  0  0  0  0  0  0  0
  142.7493   77.1537  220.9864 H   0  0  0  0  0  0  0  0  0  0  0  0
  143.6047   78.8856  222.2269 H   0  0  0  0  0  0  0  0  0  0  0  0
  143.1703   80.4426  224.0684 H   0  0  0  0  0  0  0  0  0  0  0  0
  140.8491   81.0562  224.6886 H   0  0  0  0  0  0  0  0  0  0  0  0
  139.3966   78.5020  221.5565 H   0  0  0  0  0  0  0  0  0  0  0  0
  139.1927   69.7515  222.6859 H   0  0  0  0  0  0  0  0  0  0  0  0
  138.9650   68.4333  224.7667 H   0  0  0  0  0  0  0  0  0  0  0  0
  139.3407   68.2324  227.1212 H   0  0  0  0  0  0  0  0  0  0  0  0
  140.2200   69.1772  229.2114 H   0  0  0  0  0  0  0  0  0  0  0  0
  141.3167   71.3968  229.2626 H   0  0  0  0  0  0  0  0  0  0  0  0
  141.5250   72.6898  227.1559 H   0  0  0  0  0  0  0  0  0  0  0  0
  1  2  2  0
  2  3  1  0
  3  4  1  0
  4  5  1  0
  5  6  2  0
  5  7  1  0
  7  8  1  0
  8  9  1  0
  9 10  1  0
 10 11  1  0
 11 12  1  0
 12 13  2  0
 13 14  1  0
 14 15  2  0
 15 16  1  0
 16 17  1  0
 16 18  2  0
  2 19  1  0
 19 20  2  0
 20 21  1  0
 21 22  2  0
 22 23  1  0
 23 24  2  0
 24 25  1  0
 25 26  2  0
 26 27  1  0
 27 28  2  0
 11  7  1  0
 18 12  1  0
 28 19  1  0
 27 22  1  0
  3 29  1  0
  4 30  1  0
  4 31  1  0
  8 32  1  0
  8 33  1  0
  9 34  1  0
  9 35  1  0
 10 36  1  0
 10 37  1  0
 11 38  1  1
 13 39  1  0
 14 40  1  0
 15 41  1  0
 18 42  1  0
 20 43  1  0
 21 44  1  0
 23 45  1  0
 24 46  1  0
 25 47  1  0
 26 48  1  0
M  END
>  <smiles>  (97) 
O=C(NCC(=O)N1CCCC1c1cccc(Cl)c1)c1ccc2ccccc2n1

>  <score_type>  (97) 
oracle

>  <origin>  (97) 
autodockgpu

>  <m_score__min__energy>  (97) 
-9.1600000000000001

>  <m_primary>  (97) 
energy

>  <rmsd>  (97) 
1.6468543353912968

>  <m_score__min__rmsd>  (97) 
1.6468543353912968

>  <meeko>  (97) 
{"free_energy": -9.11, "intermolecular_energy": -10.6, "internal_energy": -1.71, "cluster_size": 10, "cluster_id": 2, "rank_in_cluster": 2}

>  <energy>  (97) 
-7.98

>  <cluster_rmsd>  (97) 
1.57

>  <cluster>  (97) 
3

$$$$

     RDKit          3D

 48 51  0  0  0  0  0  0  0  0999 V2000
  140.8980   71.5180  221.3710 O   0  0  0  0  0  0  0  0  0  0  0  0
  140.4060   72.0790  222.3810 C   0  0  0  0  0  0  0  0  0  0  0  0
  140.0100   73.4330  222.2840 N   0  0  0  0  0  0  0  0  0  0  0  0
  140.1680   74.1770  221.0250 C   0  0  0  0  0  0  0  0  0  0  0  0
  140.8350   75.4770  221.2730 C   0  0  0  0  0  0  0  0  0  0  0  0
  140.6520   76.0190  222.4040 O   0  0  0  0  0  0  0  0  0  0  0  0
  141.6530   76.1460  220.3410 N   0  0  0  0  0  0  0  0  0  0  0  0
  141.7220   77.6230  220.3050 C   0  0  0  0  0  0  0  0  0  0  0  0
  142.2560   77.8800  218.8860 C   0  0  0  0  0  0  0  0  0  0  0  0
  143.1090   76.6700  218.6010 C   0  0  0  0  0  0  0  0  0  0  0  0
  142.4750   75.5660  219.3630 C   0  0  1  0  0  0  0  0  0  0  0  0
  143.4310   74.5480  219.8350 C   0  0  0  0  0  0  0  0  0  0  0  0
  144.6400   74.8980  220.4220 C   0  0  0  0  0  0  0  0  0  0  0  0
  145.5480   73.9620  220.8720 C   0  0  0  0  0  0  0  0  0  0  0  0
  145.2910   72.6210  220.7540 C   0  0  0  0  0  0  0  0  0  0  0  0
  144.1010   72.2380  220.1760 C   0  0  0  0  0  0  0  0  0  0  0  0
  143.6990   70.5520  219.9900 Cl  0  0  0  0  0  0  0  0  0  0  0  0
  143.1950   73.1770  219.7280 C   0  0  0  0  0  0  0  0  0  0  0  0
  140.2410   71.3560  223.6370 C   0  0  0  0  0  0  0  0  0  0  0  0
  139.5790   70.1360  223.6430 C   0  0  0  0  0  0  0  0  0  0  0  0
  139.4010   69.4190  224.8030 C   0  0  0  0  0  0  0  0  0  0  0  0
  139.8920   69.9310  225.9730 C   0  0  0  0  0  0  0  0  0  0  0  0
  139.7280   69.2360  227.1470 C   0  0  0  0  0  0  0  0  0  0  0  0
  140.2250   69.7620  228.3060 C   0  0  0  0  0  0  0  0  0  0  0  0
  140.8890   70.9730  228.3380 C   0  0  0  0  0  0  0  0  0  0  0  0
  141.0510   71.6620  227.1650 C   0  0  0  0  0  0  0  0  0  0  0  0
  140.5510   71.1440  225.9740 C   0  0  0  0  0  0  0  0  0  0  0  0
  140.7150   71.8320  224.8150 N   0  0  0  0  0  0  0  0  0  0  0  0
  139.5940   73.9330  223.1120 H   0  0  0  0  0  0  0  0  0  0  0  0
  140.7780   73.5839  220.3277 H   0  0  0  0  0  0  0  0  0  0  0  0
  139.1735   74.3630  220.5934 H   0  0  0  0  0  0  0  0  0  0  0  0
  140.7286   78.0737  220.4465 H   0  0  0  0  0  0  0  0  0  0  0  0
  142.3445   78.0588  221.1003 H   0  0  0  0  0  0  0  0  0  0  0  0
  141.4298   77.9565  218.1638 H   0  0  0  0  0  0  0  0  0  0  0  0
  142.8146   78.8242  218.8051 H   0  0  0  0  0  0  0  0  0  0  0  0
  143.1128   76.4444  217.5244 H   0  0  0  0  0  0  0  0  0  0  0  0
  144.1579   76.8253  218.8937 H   0  0  0  0  0  0  0  0  0  0  0  0
  141.8362   74.9572  218.7063 H   0  0  0  0  0  0  0  0  0  0  0  0
  144.8835   75.9650  220.5326 H   0  0  0  0  0  0  0  0  0  0  0  0
  146.4900   74.2961  221.3312 H   0  0  0  0  0  0  0  0  0  0  0  0
  146.0140   71.8725  221.1105 H   0  0  0  0  0  0  0  0  0  0  0  0
  142.2552   72.8334  219.2712 H   0  0  0  0  0  0  0  0  0  0  0  0
  139.1874   69.7330  222.6974 H   0  0  0  0  0  0  0  0  0  0  0  0
  138.8745   68.4533  224.7904 H   0  0  0  0  0  0  0  0  0  0  0  0
  139.2036   68.2691  227.1537 H   0  0  0  0  0  0  0  0  0  0  0  0
  140.0921   69.2030  229.2440 H   0  0  0  0  0  0  0  0  0  0  0  0
  141.2791   71.3752  229.2846 H   0  0  0  0  0  0  0  0  0  0  0  0
  141.5779   72.6276  227.1645 H   0  0  0  0  0  0  0  0  0  0  0  0
  1  2  2  0
  2  3  1  0
  3  4  1  0
  4  5  1  0
  5  6  2  0
  5  7  1  0
  7  8  1  0
  8  9  1  0
  9 10  1  0
 10 11  1  0
 11 12  1  0
 12 13  2  0
 13 14  1  0
 14 15  2  0
 15 16  1  0
 16 17  1  0
 16 18  2  0
  2 19  1  0
 19 20  2  0
 20 21  1  0
 21 22  2  0
 22 23  1  0
 23 24  2  0
 24 25  1  0
 25 26  2  0
 26 27  1  0
 27 28  2  0
 11  7  1  0
 18 12  1  0
 28 19  1  0
 27 22  1  0
  3 29  1  0
  4 30  1  0
  4 31  1  0
  8 32  1  0
  8 33  1  0
  9 34  1  0
  9 35  1  0
 10 36  1  0
 10 37  1  0
 11 38  1  6
 13 39  1  0
 14 40  1  0
 15 41  1  0
 18 42  1  0
 20 43  1  0
 21 44  1  0
 23 45  1  0
 24 46  1  0
 25 47  1  0
 26 48  1  0
M  END
>  <smiles>  (98) 
O=C(NCC(=O)N1CCCC1c1cccc(Cl)c1)c1ccc2ccccc2n1

>  <score_type>  (98) 
oracle

>  <origin>  (98) 
autodockgpu

>  <m_score__min__energy>  (98) 
-9.1600000000000001

>  <m_primary>  (98) 
energy

>  <rmsd>  (98) 
2.270040674732203

>  <m_score__min__rmsd>  (98) 
2.270040674732203

>  <meeko>  (98) 
{"free_energy": -9.06, "intermolecular_energy": -10.55, "internal_energy": -2.04, "cluster_size": 33, "cluster_id": 1, "rank_in_cluster": 19}

>  <energy>  (98) 
-8.25

>  <cluster_rmsd>  (98) 
0.0

>  <cluster>  (98) 
4

$$$$

     RDKit          3D

 48 51  0  0  0  0  0  0  0  0999 V2000
  140.6590   71.4930  221.3400 O   0  0  0  0  0  0  0  0  0  0  0  0
  140.2610   72.0580  222.3880 C   0  0  0  0  0  0  0  0  0  0  0  0
  139.8940   73.4220  222.3310 N   0  0  0  0  0  0  0  0  0  0  0  0
  139.9740   74.1720  221.0680 C   0  0  0  0  0  0  0  0  0  0  0  0
  140.6560   75.4720  221.2810 C   0  0  0  0  0  0  0  0  0  0  0  0
  140.4260   76.0770  222.3700 O   0  0  0  0  0  0  0  0  0  0  0  0
  141.5340   76.0730  220.3590 N   0  0  0  0  0  0  0  0  0  0  0  0
  141.8380   77.5190  220.4240 C   0  0  0  0  0  0  0  0  0  0  0  0
  142.3520   77.7990  219.0020 C   0  0  0  0  0  0  0  0  0  0  0  0
  142.9870   76.4960  218.5890 C   0  0  0  0  0  0  0  0  0  0  0  0
  142.2130   75.4500  219.3020 C   0  0  1  0  0  0  0  0  0  0  0  0
  143.0100   74.2600  219.6520 C   0  0  0  0  0  0  0  0  0  0  0  0
  142.6320   72.9840  219.2530 C   0  0  0  0  0  0  0  0  0  0  0  0
  143.3630   71.8580  219.5690 C   0  0  0  0  0  0  0  0  0  0  0  0
  144.5150   71.9510  220.3050 C   0  0  0  0  0  0  0  0  0  0  0  0
  144.9200   73.2020  220.7170 C   0  0  0  0  0  0  0  0  0  0  0  0
  146.3740   73.4060  221.6570 Cl  0  0  0  0  0  0  0  0  0  0  0  0
  144.1860   74.3260  220.3990 C   0  0  0  0  0  0  0  0  0  0  0  0
  140.1740   71.3290  223.6480 C   0  0  0  0  0  0  0  0  0  0  0  0
  139.6000   70.0650  223.6700 C   0  0  0  0  0  0  0  0  0  0  0  0
  139.4970   69.3400  224.8340 C   0  0  0  0  0  0  0  0  0  0  0  0
  139.9750   69.8890  225.9920 C   0  0  0  0  0  0  0  0  0  0  0  0
  139.8850   69.1870  227.1710 C   0  0  0  0  0  0  0  0  0  0  0  0
  140.3680   69.7500  228.3180 C   0  0  0  0  0  0  0  0  0  0  0  0
  140.9460   71.0060  228.3350 C   0  0  0  0  0  0  0  0  0  0  0  0
  141.0330   71.7010  227.1580 C   0  0  0  0  0  0  0  0  0  0  0  0
  140.5470   71.1460  225.9780 C   0  0  0  0  0  0  0  0  0  0  0  0
  140.6370   71.8400  224.8150 N   0  0  0  0  0  0  0  0  0  0  0  0
  139.5550   73.9260  223.1910 H   0  0  0  0  0  0  0  0  0  0  0  0
  140.5396   73.5824  220.3315 H   0  0  0  0  0  0  0  0  0  0  0  0
  138.9548   74.3599  220.6993 H   0  0  0  0  0  0  0  0  0  0  0  0
  140.9360   78.1079  220.6466 H   0  0  0  0  0  0  0  0  0  0  0  0
  142.5525   77.7879  221.2160 H   0  0  0  0  0  0  0  0  0  0  0  0
  141.5221   78.0615  218.3294 H   0  0  0  0  0  0  0  0  0  0  0  0
  143.0521   78.6465  218.9608 H   0  0  0  0  0  0  0  0  0  0  0  0
  142.9128   76.3575  217.5003 H   0  0  0  0  0  0  0  0  0  0  0  0
  144.0578   76.4603  218.8383 H   0  0  0  0  0  0  0  0  0  0  0  0
  141.4594   75.0040  218.6363 H   0  0  0  0  0  0  0  0  0  0  0  0
  141.7123   72.8671  218.6610 H   0  0  0  0  0  0  0  0  0  0  0  0
  143.0166   70.8721  219.2256 H   0  0  0  0  0  0  0  0  0  0  0  0
  145.0989   71.0541  220.5593 H   0  0  0  0  0  0  0  0  0  0  0  0
  144.5403   75.3077  220.7464 H   0  0  0  0  0  0  0  0  0  0  0  0
  139.2182   69.6328  222.7333 H   0  0  0  0  0  0  0  0  0  0  0  0
  139.0398   68.3395  224.8338 H   0  0  0  0  0  0  0  0  0  0  0  0
  139.4302   68.1856  227.1902 H   0  0  0  0  0  0  0  0  0  0  0  0
  140.2947   69.1855  229.2593 H   0  0  0  0  0  0  0  0  0  0  0  0
  141.3272   71.4372  229.2724 H   0  0  0  0  0  0  0  0  0  0  0  0
  141.4889   72.7020  227.1454 H   0  0  0  0  0  0  0  0  0  0  0  0
  1  2  2  0
  2  3  1  0
  3  4  1  0
  4  5  1  0
  5  6  2  0
  5  7  1  0
  7  8  1  0
  8  9  1  0
  9 10  1  0
 10 11  1  0
 11 12  1  0
 12 13  2  0
 13 14  1  0
 14 15  2  0
 15 16  1  0
 16 17  1  0
 16 18  2  0
  2 19  1  0
 19 20  2  0
 20 21  1  0
 21 22  2  0
 22 23  1  0
 23 24  2  0
 24 25  1  0
 25 26  2  0
 26 27  1  0
 27 28  2  0
 11  7  1  0
 18 12  1  0
 28 19  1  0
 27 22  1  0
  3 29  1  0
  4 30  1  0
  4 31  1  0
  8 32  1  0
  8 33  1  0
  9 34  1  0
  9 35  1  0
 10 36  1  0
 10 37  1  0
 11 38  1  6
 13 39  1  0
 14 40  1  0
 15 41  1  0
 18 42  1  0
 20 43  1  0
 21 44  1  0
 23 45  1  0
 24 46  1  0
 25 47  1  0
 26 48  1  0
M  END
>  <smiles>  (99) 
O=C(NCC(=O)N1CCCC1c1cccc(Cl)c1)c1ccc2ccccc2n1

>  <score_type>  (99) 
oracle

>  <origin>  (99) 
autodockgpu

>  <m_score__min__energy>  (99) 
-9.1600000000000001

>  <m_primary>  (99) 
energy

>  <rmsd>  (99) 
2.2487444931027896

>  <m_score__min__rmsd>  (99) 
2.2487444931027896

>  <meeko>  (99) 
{"free_energy": -9.14, "intermolecular_energy": -10.63, "internal_energy": -2.02, "cluster_size": 33, "cluster_id": 1, "rank_in_cluster": 6}

>  <energy>  (99) 
-7.85

>  <cluster_rmsd>  (99) 
0.0

>  <cluster>  (99) 
5

$$$$

     RDKit          3D

 48 51  0  0  0  0  0  0  0  0999 V2000
  140.9900   71.5700  221.3740 O   0  0  0  0  0  0  0  0  0  0  0  0
  140.4170   72.1110  222.3510 C   0  0  0  0  0  0  0  0  0  0  0  0
  139.9570   73.4420  222.2220 N   0  0  0  0  0  0  0  0  0  0  0  0
  140.1420   74.1840  220.9660 C   0  0  0  0  0  0  0  0  0  0  0  0
  141.0690   75.3230  221.1700 C   0  0  0  0  0  0  0  0  0  0  0  0
  141.1740   75.7840  222.3460 O   0  0  0  0  0  0  0  0  0  0  0  0
  141.8350   75.9220  220.1510 N   0  0  0  0  0  0  0  0  0  0  0  0
  142.0600   77.3840  220.1230 C   0  0  0  0  0  0  0  0  0  0  0  0
  142.4420   77.6170  218.6520 C   0  0  0  0  0  0  0  0  0  0  0  0
  143.1150   76.3300  218.2490 C   0  0  0  0  0  0  0  0  0  0  0  0
  142.4620   75.2820  219.0720 C   0  0  1  0  0  0  0  0  0  0  0  0
  143.3510   74.1550  219.4100 C   0  0  0  0  0  0  0  0  0  0  0  0
  143.2370   72.9220  218.7820 C   0  0  0  0  0  0  0  0  0  0  0  0
  144.0590   71.8550  219.0830 C   0  0  0  0  0  0  0  0  0  0  0  0
  145.0400   71.9690  220.0330 C   0  0  0  0  0  0  0  0  0  0  0  0
  145.1800   73.1800  220.6750 C   0  0  0  0  0  0  0  0  0  0  0  0
  146.4040   73.4070  221.8960 Cl  0  0  0  0  0  0  0  0  0  0  0  0
  144.3570   74.2440  220.3720 C   0  0  0  0  0  0  0  0  0  0  0  0
  140.2250   71.3890  223.6040 C   0  0  0  0  0  0  0  0  0  0  0  0
  139.5390   70.1820  223.6000 C   0  0  0  0  0  0  0  0  0  0  0  0
  139.3330   69.4660  224.7560 C   0  0  0  0  0  0  0  0  0  0  0  0
  139.8210   69.9660  225.9320 C   0  0  0  0  0  0  0  0  0  0  0  0
  139.6300   69.2710  227.1030 C   0  0  0  0  0  0  0  0  0  0  0  0
  140.1250   69.7850  228.2690 C   0  0  0  0  0  0  0  0  0  0  0  0
  140.8130   70.9830  228.3110 C   0  0  0  0  0  0  0  0  0  0  0  0
  141.0000   71.6710  227.1420 C   0  0  0  0  0  0  0  0  0  0  0  0
  140.5040   71.1660  225.9440 C   0  0  0  0  0  0  0  0  0  0  0  0
  140.6940   71.8520  224.7880 N   0  0  0  0  0  0  0  0  0  0  0  0
  139.4730   73.9250  223.0220 H   0  0  0  0  0  0  0  0  0  0  0  0
  140.5594   73.5089  220.2044 H   0  0  0  0  0  0  0  0  0  0  0  0
  139.1677   74.5721  220.6341 H   0  0  0  0  0  0  0  0  0  0  0  0
  141.1464   77.9348  220.3913 H   0  0  0  0  0  0  0  0  0  0  0  0
  142.8186   77.7311  220.8399 H   0  0  0  0  0  0  0  0  0  0  0  0
  141.5474   77.8005  218.0388 H   0  0  0  0  0  0  0  0  0  0  0  0
  143.0875   78.4969  218.5136 H   0  0  0  0  0  0  0  0  0  0  0  0
  142.9615   76.1322  217.1779 H   0  0  0  0  0  0  0  0  0  0  0  0
  144.2026   76.3641  218.4098 H   0  0  0  0  0  0  0  0  0  0  0  0
  141.6846   74.7623  218.4928 H   0  0  0  0  0  0  0  0  0  0  0  0
  142.4606   72.7903  218.0140 H   0  0  0  0  0  0  0  0  0  0  0  0
  143.9249   70.9003  218.5532 H   0  0  0  0  0  0  0  0  0  0  0  0
  145.6956   71.1197  220.2756 H   0  0  0  0  0  0  0  0  0  0  0  0
  144.4986   75.1948  220.9068 H   0  0  0  0  0  0  0  0  0  0  0  0
  139.1507   69.7887  222.6489 H   0  0  0  0  0  0  0  0  0  0  0  0
  138.7872   68.5112  224.7353 H   0  0  0  0  0  0  0  0  0  0  0  0
  139.0864   68.3147  227.1015 H   0  0  0  0  0  0  0  0  0  0  0  0
  139.9707   69.2270  229.2043 H   0  0  0  0  0  0  0  0  0  0  0  0
  141.2017   71.3750  229.2624 H   0  0  0  0  0  0  0  0  0  0  0  0
  141.5445   72.6267  227.1499 H   0  0  0  0  0  0  0  0  0  0  0  0
  1  2  2  0
  2  3  1  0
  3  4  1  0
  4  5  1  0
  5  6  2  0
  5  7  1  0
  7  8  1  0
  8  9  1  0
  9 10  1  0
 10 11  1  0
 11 12  1  0
 12 13  2  0
 13 14  1  0
 14 15  2  0
 15 16  1  0
 16 17  1  0
 16 18  2  0
  2 19  1  0
 19 20  2  0
 20 21  1  0
 21 22  2  0
 22 23  1  0
 23 24  2  0
 24 25  1  0
 25 26  2  0
 26 27  1  0
 27 28  2  0
 11  7  1  0
 18 12  1  0
 28 19  1  0
 27 22  1  0
  3 29  1  0
  4 30  1  0
  4 31  1  0
  8 32  1  0
  8 33  1  0
  9 34  1  0
  9 35  1  0
 10 36  1  0
 10 37  1  0
 11 38  1  6
 13 39  1  0
 14 40  1  0
 15 41  1  0
 18 42  1  0
 20 43  1  0
 21 44  1  0
 23 45  1  0
 24 46  1  0
 25 47  1  0
 26 48  1  0
M  END
>  <smiles>  (100) 
O=C(NCC(=O)N1CCCC1c1cccc(Cl)c1)c1ccc2ccccc2n1

>  <score_type>  (100) 
oracle

>  <origin>  (100) 
autodockgpu

>  <m_score__min__energy>  (100) 
-9.1600000000000001

>  <m_primary>  (100) 
energy

>  <rmsd>  (100) 
2.3061700222446717

>  <m_score__min__rmsd>  (100) 
2.3061700222446717

>  <meeko>  (100) 
{"free_energy": -9.04, "intermolecular_energy": -10.53, "internal_energy": -1.83, "cluster_size": 33, "cluster_id": 1, "rank_in_cluster": 21}

>  <energy>  (100) 
-7.83

>  <cluster_rmsd>  (100) 
0.03

>  <cluster>  (100) 
5

$$$$
