
     RDKit          3D

 37 38  0  0  0  0  0  0  0  0999 V2000
  143.6020   75.5860  219.0210 C   0  0  0  0  0  0  0  0  0  0  0  0
  143.4410   74.8900  220.3290 C   0  0  0  0  0  0  0  0  0  0  0  0
  144.4830   73.8180  220.4570 C   0  0  0  0  0  0  0  0  0  0  0  0
  142.0860   74.3320  220.4330 N   0  0  0  0  0  0  0  0  0  0  0  0
  141.0440   75.0130  221.0760 C   0  0  0  0  0  0  0  0  0  0  0  0
  141.1850   76.1420  221.6090 O   0  0  0  0  0  0  0  0  0  0  0  0
  139.7090   74.3740  221.1340 C   0  0  0  0  0  0  0  0  0  0  0  0
  139.5550   73.5340  222.3140 N   0  0  0  0  0  0  0  0  0  0  0  0
  140.3020   72.3240  222.4020 C   0  0  0  0  0  0  0  0  0  0  0  0
  141.0650   72.0550  221.4320 O   0  0  0  0  0  0  0  0  0  0  0  0
  140.1860   71.4460  223.5590 C   0  0  0  0  0  0  0  0  0  0  0  0
  139.5620   70.2240  223.3870 C   0  0  0  0  0  0  0  0  0  0  0  0
  139.4470   69.3870  224.4740 C   0  0  0  0  0  0  0  0  0  0  0  0
  139.9410   69.7450  225.7240 C   0  0  0  0  0  0  0  0  0  0  0  0
  139.8340   68.9160  226.8240 C   0  0  0  0  0  0  0  0  0  0  0  0
  140.3350   69.3100  228.0370 C   0  0  0  0  0  0  0  0  0  0  0  0
  140.2470   68.5250  229.1330 F   0  0  0  0  0  0  0  0  0  0  0  0
  140.9530   70.5490  228.1580 C   0  0  0  0  0  0  0  0  0  0  0  0
  141.0760   71.4060  227.0650 C   0  0  0  0  0  0  0  0  0  0  0  0
  140.5650   70.9890  225.8560 C   0  0  0  0  0  0  0  0  0  0  0  0
  140.6610   71.7830  224.7730 N   0  0  0  0  0  0  0  0  0  0  0  0
  143.8468   76.6440  219.1963 H   0  0  0  0  0  0  0  0  0  0  0  0
  144.4141   75.1114  218.4506 H   0  0  0  0  0  0  0  0  0  0  0  0
  142.6640   75.5163  218.4506 H   0  0  0  0  0  0  0  0  0  0  0  0
  143.5778   75.6061  221.1527 H   0  0  0  0  0  0  0  0  0  0  0  0
  144.6760   73.6195  221.5216 H   0  0  0  0  0  0  0  0  0  0  0  0
  144.1244   72.8983  219.9716 H   0  0  0  0  0  0  0  0  0  0  0  0
  145.4125   74.1503  219.9716 H   0  0  0  0  0  0  0  0  0  0  0  0
  141.9700   73.3890  219.9880 H   0  0  0  0  0  0  0  0  0  0  0  0
  138.9400   75.1602  221.1553 H   0  0  0  0  0  0  0  0  0  0  0  0
  139.6006   73.7341  220.2459 H   0  0  0  0  0  0  0  0  0  0  0  0
  138.9170   73.7850  223.0950 H   0  0  0  0  0  0  0  0  0  0  0  0
  139.1666   69.9275  222.4043 H   0  0  0  0  0  0  0  0  0  0  0  0
  138.9528   68.4120  224.3511 H   0  0  0  0  0  0  0  0  0  0  0  0
  139.3447   67.9358  226.7257 H   0  0  0  0  0  0  0  0  0  0  0  0
  141.3527   70.8595  229.1347 H   0  0  0  0  0  0  0  0  0  0  0  0
  141.5664   72.3855  227.1654 H   0  0  0  0  0  0  0  0  0  0  0  0
  1  2  1  0
  2  3  1  0
  2  4  1  0
  4  5  1  0
  5  6  2  0
  5  7  1  0
  7  8  1  0
  8  9  1  0
  9 10  2  0
  9 11  1  0
 11 12  2  0
 12 13  1  0
 13 14  2  0
 14 15  1  0
 15 16  2  0
 16 17  1  0
 16 18  1  0
 18 19  2  0
 19 20  1  0
 20 21  2  0
 21 11  1  0
 20 14  1  0
  1 22  1  0
  1 23  1  0
  1 24  1  0
  2 25  1  0
  3 26  1  0
  3 27  1  0
  3 28  1  0
  4 29  1  0
  7 30  1  0
  7 31  1  0
  8 32  1  0
 12 33  1  0
 13 34  1  0
 15 35  1  0
 18 36  1  0
 19 37  1  0
M  END
>  <smiles>  (1) 
CC(C)NC(=O)CNC(=O)c1ccc2cc(F)ccc2n1

>  <score_type>  (1) 
oracle

>  <origin>  (1) 
autodockgpu

>  <m_score__min__energy>  (1) 
-7.1600000000000001

>  <m_primary>  (1) 
energy

>  <rmsd>  (1) 
2.0342973464389864

>  <m_score__min__rmsd>  (1) 
2.0342973464389864

>  <meeko>  (1) 
{"free_energy": -6.38, "intermolecular_energy": -7.58, "internal_energy": -1.41, "cluster_size": 45, "cluster_id": 1, "rank_in_cluster": 31}

>  <energy>  (1) 
-7.16

>  <cluster_rmsd>  (1) 
0.0

>  <cluster>  (1) 
1

$$$$

     RDKit          3D

 37 38  0  0  0  0  0  0  0  0999 V2000
  137.8810   77.0360  222.6850 C   0  0  0  0  0  0  0  0  0  0  0  0
  137.0870   75.8270  222.3290 C   0  0  0  0  0  0  0  0  0  0  0  0
  136.2020   75.4510  223.4810 C   0  0  0  0  0  0  0  0  0  0  0  0
  137.9890   74.7250  221.9670 N   0  0  0  0  0  0  0  0  0  0  0  0
  137.9410   74.1000  220.7140 C   0  0  0  0  0  0  0  0  0  0  0  0
  137.1310   74.4280  219.8110 O   0  0  0  0  0  0  0  0  0  0  0  0
  138.8890   72.9970  220.4360 C   0  0  0  0  0  0  0  0  0  0  0  0
  138.9220   72.0180  221.5140 N   0  0  0  0  0  0  0  0  0  0  0  0
  139.7300   72.2790  222.6590 C   0  0  0  0  0  0  0  0  0  0  0  0
  140.3760   73.3650  222.6630 O   0  0  0  0  0  0  0  0  0  0  0  0
  139.8010   71.3360  223.7670 C   0  0  0  0  0  0  0  0  0  0  0  0
  139.2710   70.0720  223.5780 C   0  0  0  0  0  0  0  0  0  0  0  0
  139.3320   69.1720  224.6180 C   0  0  0  0  0  0  0  0  0  0  0  0
  139.9090   69.5080  225.8380 C   0  0  0  0  0  0  0  0  0  0  0  0
  139.9790   68.6170  226.8910 C   0  0  0  0  0  0  0  0  0  0  0  0
  140.5570   68.9910  228.0760 C   0  0  0  0  0  0  0  0  0  0  0  0
  140.6410   68.1460  229.1260 F   0  0  0  0  0  0  0  0  0  0  0  0
  141.0740   70.2750  228.2160 C   0  0  0  0  0  0  0  0  0  0  0  0
  141.0180   71.1950  227.1700 C   0  0  0  0  0  0  0  0  0  0  0  0
  140.4340   70.7960  225.9890 C   0  0  0  0  0  0  0  0  0  0  0  0
  140.3570   71.6510  224.9510 N   0  0  0  0  0  0  0  0  0  0  0  0
  137.9404   77.1264  223.7797 H   0  0  0  0  0  0  0  0  0  0  0  0
  138.8952   76.9442  222.2691 H   0  0  0  0  0  0  0  0  0  0  0  0
  137.3937   77.9302  222.2691 H   0  0  0  0  0  0  0  0  0  0  0  0
  136.4495   76.0432  221.4590 H   0  0  0  0  0  0  0  0  0  0  0  0
  136.7185   75.6705  224.4271 H   0  0  0  0  0  0  0  0  0  0  0  0
  135.2681   76.0301  223.4302 H   0  0  0  0  0  0  0  0  0  0  0  0
  135.9706   74.3768  223.4302 H   0  0  0  0  0  0  0  0  0  0  0  0
  138.6650   74.4530  222.7220 H   0  0  0  0  0  0  0  0  0  0  0  0
  138.5834   72.4922  219.5077 H   0  0  0  0  0  0  0  0  0  0  0  0
  139.8954   73.4310  220.3417 H   0  0  0  0  0  0  0  0  0  0  0  0
  138.3790   71.1340  221.4790 H   0  0  0  0  0  0  0  0  0  0  0  0
  138.8113   69.7925  222.6185 H   0  0  0  0  0  0  0  0  0  0  0  0
  138.9146   68.1635  224.4808 H   0  0  0  0  0  0  0  0  0  0  0  0
  139.5690   67.6026  226.7780 H   0  0  0  0  0  0  0  0  0  0  0  0
  141.5356   70.5699  229.1699 H   0  0  0  0  0  0  0  0  0  0  0  0
  141.4281   72.2092  227.2849 H   0  0  0  0  0  0  0  0  0  0  0  0
  1  2  1  0
  2  3  1  0
  2  4  1  0
  4  5  1  0
  5  6  2  0
  5  7  1  0
  7  8  1  0
  8  9  1  0
  9 10  2  0
  9 11  1  0
 11 12  2  0
 12 13  1  0
 13 14  2  0
 14 15  1  0
 15 16  2  0
 16 17  1  0
 16 18  1  0
 18 19  2  0
 19 20  1  0
 20 21  2  0
 21 11  1  0
 20 14  1  0
  1 22  1  0
  1 23  1  0
  1 24  1  0
  2 25  1  0
  3 26  1  0
  3 27  1  0
  3 28  1  0
  4 29  1  0
  7 30  1  0
  7 31  1  0
  8 32  1  0
 12 33  1  0
 13 34  1  0
 15 35  1  0
 18 36  1  0
 19 37  1  0
M  END
>  <smiles>  (2) 
CC(C)NC(=O)CNC(=O)c1ccc2cc(F)ccc2n1

>  <score_type>  (2) 
oracle

>  <origin>  (2) 
autodockgpu

>  <m_score__min__energy>  (2) 
-7.1600000000000001

>  <m_primary>  (2) 
energy

>  <rmsd>  (2) 
2.694532079342652

>  <m_score__min__rmsd>  (2) 
2.694532079342652

>  <meeko>  (2) 
{"free_energy": -6.08, "intermolecular_energy": -7.28, "internal_energy": -1.42, "cluster_size": 45, "cluster_id": 1, "rank_in_cluster": 41}

>  <energy>  (2) 
-7.15

>  <cluster_rmsd>  (2) 
0.19

>  <cluster>  (2) 
1

$$$$

     RDKit          3D

 37 38  0  0  0  0  0  0  0  0999 V2000
  141.2900   79.1550  221.3680 C   0  0  0  0  0  0  0  0  0  0  0  0
  140.9000   78.2580  222.4920 C   0  0  0  0  0  0  0  0  0  0  0  0
  141.8180   78.4870  223.6580 C   0  0  0  0  0  0  0  0  0  0  0  0
  140.9390   76.8580  222.0500 N   0  0  0  0  0  0  0  0  0  0  0  0
  139.7800   76.1500  221.7060 C   0  0  0  0  0  0  0  0  0  0  0  0
  138.6290   76.6510  221.7490 O   0  0  0  0  0  0  0  0  0  0  0  0
  139.9130   74.7410  221.2710 C   0  0  0  0  0  0  0  0  0  0  0  0
  139.6610   73.8050  222.3570 N   0  0  0  0  0  0  0  0  0  0  0  0
  140.4860   72.6500  222.4800 C   0  0  0  0  0  0  0  0  0  0  0  0
  141.4010   72.5120  221.6200 O   0  0  0  0  0  0  0  0  0  0  0  0
  140.2780   71.6810  223.5480 C   0  0  0  0  0  0  0  0  0  0  0  0
  139.5990   70.5150  223.2440 C   0  0  0  0  0  0  0  0  0  0  0  0
  139.3970   69.5930  224.2460 C   0  0  0  0  0  0  0  0  0  0  0  0
  139.8580   69.8110  225.5400 C   0  0  0  0  0  0  0  0  0  0  0  0
  139.6630   68.8960  226.5560 C   0  0  0  0  0  0  0  0  0  0  0  0
  140.1350   69.1520  227.8170 C   0  0  0  0  0  0  0  0  0  0  0  0
  139.9610   68.2810  228.8340 F   0  0  0  0  0  0  0  0  0  0  0  0
  140.8110   70.3410  228.0710 C   0  0  0  0  0  0  0  0  0  0  0  0
  141.0220   71.2830  227.0650 C   0  0  0  0  0  0  0  0  0  0  0  0
  140.5400   71.0030  225.8070 C   0  0  0  0  0  0  0  0  0  0  0  0
  140.7200   71.8830  224.8040 N   0  0  0  0  0  0  0  0  0  0  0  0
  141.6979   80.0932  221.7722 H   0  0  0  0  0  0  0  0  0  0  0  0
  142.0537   78.6589  220.7510 H   0  0  0  0  0  0  0  0  0  0  0  0
  140.4063   79.3751  220.7510 H   0  0  0  0  0  0  0  0  0  0  0  0
  139.8719   78.4851  222.8106 H   0  0  0  0  0  0  0  0  0  0  0  0
  141.2608   78.3480  224.5962 H   0  0  0  0  0  0  0  0  0  0  0  0
  142.6502   77.7689  223.6160 H   0  0  0  0  0  0  0  0  0  0  0  0
  142.2155   79.5118  223.6160 H   0  0  0  0  0  0  0  0  0  0  0  0
  141.9010   76.4410  222.0140 H   0  0  0  0  0  0  0  0  0  0  0  0
  139.1909   74.5497  220.4635 H   0  0  0  0  0  0  0  0  0  0  0  0
  140.9468   74.5895  220.9272 H   0  0  0  0  0  0  0  0  0  0  0  0
  138.8980   73.9490  223.0480 H   0  0  0  0  0  0  0  0  0  0  0  0
  139.2289   70.3287  222.2250 H   0  0  0  0  0  0  0  0  0  0  0  0
  138.8581   68.6616  224.0179 H   0  0  0  0  0  0  0  0  0  0  0  0
  139.1265   67.9576  226.3522 H   0  0  0  0  0  0  0  0  0  0  0  0
  141.1864   70.5419  229.0853 H   0  0  0  0  0  0  0  0  0  0  0  0
  141.5575   72.2215  227.2708 H   0  0  0  0  0  0  0  0  0  0  0  0
  1  2  1  0
  2  3  1  0
  2  4  1  0
  4  5  1  0
  5  6  2  0
  5  7  1  0
  7  8  1  0
  8  9  1  0
  9 10  2  0
  9 11  1  0
 11 12  2  0
 12 13  1  0
 13 14  2  0
 14 15  1  0
 15 16  2  0
 16 17  1  0
 16 18  1  0
 18 19  2  0
 19 20  1  0
 20 21  2  0
 21 11  1  0
 20 14  1  0
  1 22  1  0
  1 23  1  0
  1 24  1  0
  2 25  1  0
  3 26  1  0
  3 27  1  0
  3 28  1  0
  4 29  1  0
  7 30  1  0
  7 31  1  0
  8 32  1  0
 12 33  1  0
 13 34  1  0
 15 35  1  0
 18 36  1  0
 19 37  1  0
M  END
>  <smiles>  (3) 
CC(C)NC(=O)CNC(=O)c1ccc2cc(F)ccc2n1

>  <score_type>  (3) 
oracle

>  <origin>  (3) 
autodockgpu

>  <m_score__min__energy>  (3) 
-7.1600000000000001

>  <m_primary>  (3) 
energy

>  <rmsd>  (3) 
2.1445301815458473

>  <m_score__min__rmsd>  (3) 
2.1445301815458473

>  <meeko>  (3) 
{"free_energy": -7.15, "intermolecular_energy": -8.34, "internal_energy": -0.7, "cluster_size": 45, "cluster_id": 1, "rank_in_cluster": 4}

>  <energy>  (3) 
-7.15

>  <cluster_rmsd>  (3) 
0.27

>  <cluster>  (3) 
1

$$$$

     RDKit          3D

 37 38  0  0  0  0  0  0  0  0999 V2000
  141.3880   79.1360  221.3820 C   0  0  0  0  0  0  0  0  0  0  0  0
  140.9390   78.2410  222.4860 C   0  0  0  0  0  0  0  0  0  0  0  0
  141.8200   78.4440  223.6850 C   0  0  0  0  0  0  0  0  0  0  0  0
  140.9650   76.8430  222.0360 N   0  0  0  0  0  0  0  0  0  0  0  0
  139.7950   76.1370  221.7230 C   0  0  0  0  0  0  0  0  0  0  0  0
  138.6460   76.6380  221.8020 O   0  0  0  0  0  0  0  0  0  0  0  0
  139.9150   74.7300  221.2780 C   0  0  0  0  0  0  0  0  0  0  0  0
  139.6630   73.7890  222.3600 N   0  0  0  0  0  0  0  0  0  0  0  0
  140.4940   72.6370  222.4810 C   0  0  0  0  0  0  0  0  0  0  0  0
  141.4130   72.5060  221.6240 O   0  0  0  0  0  0  0  0  0  0  0  0
  140.2870   71.6630  223.5450 C   0  0  0  0  0  0  0  0  0  0  0  0
  139.6120   70.4960  223.2350 C   0  0  0  0  0  0  0  0  0  0  0  0
  139.4110   69.5700  224.2330 C   0  0  0  0  0  0  0  0  0  0  0  0
  139.8680   69.7840  225.5290 C   0  0  0  0  0  0  0  0  0  0  0  0
  139.6740   68.8640  226.5400 C   0  0  0  0  0  0  0  0  0  0  0  0
  140.1430   69.1170  227.8040 C   0  0  0  0  0  0  0  0  0  0  0  0
  139.9700   68.2400  228.8170 F   0  0  0  0  0  0  0  0  0  0  0  0
  140.8150   70.3060  228.0640 C   0  0  0  0  0  0  0  0  0  0  0  0
  141.0250   71.2530  227.0620 C   0  0  0  0  0  0  0  0  0  0  0  0
  140.5460   70.9770  225.8010 C   0  0  0  0  0  0  0  0  0  0  0  0
  140.7260   71.8610  224.8020 N   0  0  0  0  0  0  0  0  0  0  0  0
  141.8429   80.0428  221.8072 H   0  0  0  0  0  0  0  0  0  0  0  0
  142.1290   78.6101  220.7620 H   0  0  0  0  0  0  0  0  0  0  0  0
  140.5234   79.4156  220.7620 H   0  0  0  0  0  0  0  0  0  0  0  0
  139.9052   78.4876  222.7698 H   0  0  0  0  0  0  0  0  0  0  0  0
  141.2282   78.3076  224.6022 H   0  0  0  0  0  0  0  0  0  0  0  0
  142.6403   77.7113  223.6656 H   0  0  0  0  0  0  0  0  0  0  0  0
  142.2369   79.4617  223.6656 H   0  0  0  0  0  0  0  0  0  0  0  0
  141.9250   76.4260  221.9710 H   0  0  0  0  0  0  0  0  0  0  0  0
  139.1864   74.5491  220.4740 H   0  0  0  0  0  0  0  0  0  0  0  0
  140.9454   74.5731  220.9263 H   0  0  0  0  0  0  0  0  0  0  0  0
  138.8970   73.9260  223.0490 H   0  0  0  0  0  0  0  0  0  0  0  0
  139.2445   70.3125  222.2146 H   0  0  0  0  0  0  0  0  0  0  0  0
  138.8757   68.6377  224.0000 H   0  0  0  0  0  0  0  0  0  0  0  0
  139.1413   67.9245  226.3311 H   0  0  0  0  0  0  0  0  0  0  0  0
  141.1883   70.5036  229.0797 H   0  0  0  0  0  0  0  0  0  0  0  0
  141.5573   72.1923  227.2728 H   0  0  0  0  0  0  0  0  0  0  0  0
  1  2  1  0
  2  3  1  0
  2  4  1  0
  4  5  1  0
  5  6  2  0
  5  7  1  0
  7  8  1  0
  8  9  1  0
  9 10  2  0
  9 11  1  0
 11 12  2  0
 12 13  1  0
 13 14  2  0
 14 15  1  0
 15 16  2  0
 16 17  1  0
 16 18  1  0
 18 19  2  0
 19 20  1  0
 20 21  2  0
 21 11  1  0
 20 14  1  0
  1 22  1  0
  1 23  1  0
  1 24  1  0
  2 25  1  0
  3 26  1  0
  3 27  1  0
  3 28  1  0
  4 29  1  0
  7 30  1  0
  7 31  1  0
  8 32  1  0
 12 33  1  0
 13 34  1  0
 15 35  1  0
 18 36  1  0
 19 37  1  0
M  END
>  <smiles>  (4) 
CC(C)NC(=O)CNC(=O)c1ccc2cc(F)ccc2n1

>  <score_type>  (4) 
oracle

>  <origin>  (4) 
autodockgpu

>  <m_score__min__energy>  (4) 
-7.1600000000000001

>  <m_primary>  (4) 
energy

>  <rmsd>  (4) 
2.1428562008884744

>  <m_score__min__rmsd>  (4) 
2.1428562008884744

>  <meeko>  (4) 
{"free_energy": -7.15, "intermolecular_energy": -8.34, "internal_energy": -0.71, "cluster_size": 45, "cluster_id": 1, "rank_in_cluster": 2}

>  <energy>  (4) 
-7.15

>  <cluster_rmsd>  (4) 
0.18

>  <cluster>  (4) 
1

$$$$

     RDKit          3D

 37 38  0  0  0  0  0  0  0  0999 V2000
  141.7940   78.6760  223.2210 C   0  0  0  0  0  0  0  0  0  0  0  0
  140.6870   78.2050  222.3400 C   0  0  0  0  0  0  0  0  0  0  0  0
  139.3690   78.4600  223.0120 C   0  0  0  0  0  0  0  0  0  0  0  0
  140.8640   76.7790  222.0350 N   0  0  0  0  0  0  0  0  0  0  0  0
  139.8650   76.0190  221.4130 C   0  0  0  0  0  0  0  0  0  0  0  0
  138.7520   76.4900  221.0710 O   0  0  0  0  0  0  0  0  0  0  0  0
  140.1300   74.5860  221.1440 C   0  0  0  0  0  0  0  0  0  0  0  0
  139.8880   73.7550  222.3150 N   0  0  0  0  0  0  0  0  0  0  0  0
  140.4700   72.4550  222.3720 C   0  0  0  0  0  0  0  0  0  0  0  0
  141.1730   72.1040  221.3820 O   0  0  0  0  0  0  0  0  0  0  0  0
  140.2620   71.5820  223.5180 C   0  0  0  0  0  0  0  0  0  0  0  0
  139.5920   70.3890  223.3130 C   0  0  0  0  0  0  0  0  0  0  0  0
  139.3890   69.5560  224.3900 C   0  0  0  0  0  0  0  0  0  0  0  0
  139.8400   69.8900  225.6630 C   0  0  0  0  0  0  0  0  0  0  0  0
  139.6450   69.0650  226.7530 C   0  0  0  0  0  0  0  0  0  0  0  0
  140.1060   69.4330  227.9910 C   0  0  0  0  0  0  0  0  0  0  0  0
  139.9320   68.6520  229.0780 F   0  0  0  0  0  0  0  0  0  0  0  0
  140.7730   70.6440  228.1440 C   0  0  0  0  0  0  0  0  0  0  0  0
  140.9850   71.4960  227.0610 C   0  0  0  0  0  0  0  0  0  0  0  0
  140.5130   71.1050  225.8290 C   0  0  0  0  0  0  0  0  0  0  0  0
  140.6940   71.8950  224.7540 N   0  0  0  0  0  0  0  0  0  0  0  0
  141.5024   78.5519  224.2744 H   0  0  0  0  0  0  0  0  0  0  0  0
  142.6998   78.0853  223.0193 H   0  0  0  0  0  0  0  0  0  0  0  0
  141.9965   79.7382  223.0193 H   0  0  0  0  0  0  0  0  0  0  0  0
  140.7042   78.7595  221.3901 H   0  0  0  0  0  0  0  0  0  0  0  0
  139.5029   78.4341  224.1035 H   0  0  0  0  0  0  0  0  0  0  0  0
  138.9898   79.4482  222.7124 H   0  0  0  0  0  0  0  0  0  0  0  0
  138.6486   77.6846  222.7124 H   0  0  0  0  0  0  0  0  0  0  0  0
  141.7940   76.3870  222.3210 H   0  0  0  0  0  0  0  0  0  0  0  0
  139.4720   74.2505  220.3289 H   0  0  0  0  0  0  0  0  0  0  0  0
  141.1901   74.4834  220.8690 H   0  0  0  0  0  0  0  0  0  0  0  0
  139.3040   74.0750  223.1120 H   0  0  0  0  0  0  0  0  0  0  0  0
  139.2297   70.1123  222.3119 H   0  0  0  0  0  0  0  0  0  0  0  0
  138.8580   68.6043  224.2406 H   0  0  0  0  0  0  0  0  0  0  0  0
  139.1173   68.1080  226.6277 H   0  0  0  0  0  0  0  0  0  0  0  0
  141.1404   70.9352  229.1391 H   0  0  0  0  0  0  0  0  0  0  0  0
  141.5138   72.4522  227.1876 H   0  0  0  0  0  0  0  0  0  0  0  0
  1  2  1  0
  2  3  1  0
  2  4  1  0
  4  5  1  0
  5  6  2  0
  5  7  1  0
  7  8  1  0
  8  9  1  0
  9 10  2  0
  9 11  1  0
 11 12  2  0
 12 13  1  0
 13 14  2  0
 14 15  1  0
 15 16  2  0
 16 17  1  0
 16 18  1  0
 18 19  2  0
 19 20  1  0
 20 21  2  0
 21 11  1  0
 20 14  1  0
  1 22  1  0
  1 23  1  0
  1 24  1  0
  2 25  1  0
  3 26  1  0
  3 27  1  0
  3 28  1  0
  4 29  1  0
  7 30  1  0
  7 31  1  0
  8 32  1  0
 12 33  1  0
 13 34  1  0
 15 35  1  0
 18 36  1  0
 19 37  1  0
M  END
>  <smiles>  (5) 
CC(C)NC(=O)CNC(=O)c1ccc2cc(F)ccc2n1

>  <score_type>  (5) 
oracle

>  <origin>  (5) 
autodockgpu

>  <m_score__min__energy>  (5) 
-7.1600000000000001

>  <m_primary>  (5) 
energy

>  <rmsd>  (5) 
2.3807881367236403

>  <m_score__min__rmsd>  (5) 
2.3807881367236403

>  <meeko>  (5) 
{"free_energy": -6.99, "intermolecular_energy": -8.18, "internal_energy": -0.64, "cluster_size": 45, "cluster_id": 1, "rank_in_cluster": 17}

>  <energy>  (5) 
-7.15

>  <cluster_rmsd>  (5) 
0.24

>  <cluster>  (5) 
1

$$$$

     RDKit          3D

 37 38  0  0  0  0  0  0  0  0999 V2000
  141.7750   79.1410  221.3420 C   0  0  0  0  0  0  0  0  0  0  0  0
  141.0810   78.2880  222.3480 C   0  0  0  0  0  0  0  0  0  0  0  0
  141.7990   78.3790  223.6630 C   0  0  0  0  0  0  0  0  0  0  0  0
  141.0210   76.9010  221.8680 N   0  0  0  0  0  0  0  0  0  0  0  0
  139.8150   76.1930  221.7760 C   0  0  0  0  0  0  0  0  0  0  0  0
  138.7030   76.6830  222.0930 O   0  0  0  0  0  0  0  0  0  0  0  0
  139.8490   74.7970  221.2820 C   0  0  0  0  0  0  0  0  0  0  0  0
  139.5990   73.8330  222.3440 N   0  0  0  0  0  0  0  0  0  0  0  0
  140.4690   72.7130  222.4780 C   0  0  0  0  0  0  0  0  0  0  0  0
  141.4190   72.6280  221.6500 O   0  0  0  0  0  0  0  0  0  0  0  0
  140.2660   71.7180  223.5230 C   0  0  0  0  0  0  0  0  0  0  0  0
  139.5770   70.5640  223.1960 C   0  0  0  0  0  0  0  0  0  0  0  0
  139.3800   69.6170  224.1760 C   0  0  0  0  0  0  0  0  0  0  0  0
  139.8540   69.8000  225.4710 C   0  0  0  0  0  0  0  0  0  0  0  0
  139.6640   68.8600  226.4640 C   0  0  0  0  0  0  0  0  0  0  0  0
  140.1500   69.0810  227.7270 C   0  0  0  0  0  0  0  0  0  0  0  0
  139.9810   68.1840  228.7230 F   0  0  0  0  0  0  0  0  0  0  0  0
  140.8350   70.2590  228.0050 C   0  0  0  0  0  0  0  0  0  0  0  0
  141.0410   71.2250  227.0220 C   0  0  0  0  0  0  0  0  0  0  0  0
  140.5460   70.9810  225.7610 C   0  0  0  0  0  0  0  0  0  0  0  0
  140.7210   71.8850  224.7790 N   0  0  0  0  0  0  0  0  0  0  0  0
  142.3875   79.8939  221.8597 H   0  0  0  0  0  0  0  0  0  0  0  0
  142.4215   78.5125  220.7119 H   0  0  0  0  0  0  0  0  0  0  0  0
  141.0281   79.6462  220.7119 H   0  0  0  0  0  0  0  0  0  0  0  0
  140.0499   78.6434  222.4915 H   0  0  0  0  0  0  0  0  0  0  0  0
  141.0730   78.2870  224.4843 H   0  0  0  0  0  0  0  0  0  0  0  0
  142.5380   77.5673  223.7342 H   0  0  0  0  0  0  0  0  0  0  0  0
  142.3121   79.3494  223.7342 H   0  0  0  0  0  0  0  0  0  0  0  0
  141.9510   76.4930  221.6030 H   0  0  0  0  0  0  0  0  0  0  0  0
  139.0790   74.6768  220.5057 H   0  0  0  0  0  0  0  0  0  0  0  0
  140.8548   74.6047  220.8804 H   0  0  0  0  0  0  0  0  0  0  0  0
  138.8070   73.9320  223.0090 H   0  0  0  0  0  0  0  0  0  0  0  0
  139.1952   70.4065  222.1765 H   0  0  0  0  0  0  0  0  0  0  0  0
  138.8350   68.6940  223.9290 H   0  0  0  0  0  0  0  0  0  0  0  0
  139.1205   67.9300  226.2412 H   0  0  0  0  0  0  0  0  0  0  0  0
  141.2216   70.4315  229.0203 H   0  0  0  0  0  0  0  0  0  0  0  0
  141.5833   72.1552  227.2472 H   0  0  0  0  0  0  0  0  0  0  0  0
  1  2  1  0
  2  3  1  0
  2  4  1  0
  4  5  1  0
  5  6  2  0
  5  7  1  0
  7  8  1  0
  8  9  1  0
  9 10  2  0
  9 11  1  0
 11 12  2  0
 12 13  1  0
 13 14  2  0
 14 15  1  0
 15 16  2  0
 16 17  1  0
 16 18  1  0
 18 19  2  0
 19 20  1  0
 20 21  2  0
 21 11  1  0
 20 14  1  0
  1 22  1  0
  1 23  1  0
  1 24  1  0
  2 25  1  0
  3 26  1  0
  3 27  1  0
  3 28  1  0
  4 29  1  0
  7 30  1  0
  7 31  1  0
  8 32  1  0
 12 33  1  0
 13 34  1  0
 15 35  1  0
 18 36  1  0
 19 37  1  0
M  END
>  <smiles>  (6) 
CC(C)NC(=O)CNC(=O)c1ccc2cc(F)ccc2n1

>  <score_type>  (6) 
oracle

>  <origin>  (6) 
autodockgpu

>  <m_score__min__energy>  (6) 
-7.1600000000000001

>  <m_primary>  (6) 
energy

>  <rmsd>  (6) 
2.1503619593742633

>  <m_score__min__rmsd>  (6) 
2.1503619593742633

>  <meeko>  (6) 
{"free_energy": -7.14, "intermolecular_energy": -8.33, "internal_energy": -0.73, "cluster_size": 45, "cluster_id": 1, "rank_in_cluster": 6}

>  <energy>  (6) 
-7.14

>  <cluster_rmsd>  (6) 
0.27

>  <cluster>  (6) 
1

$$$$

     RDKit          3D

 37 38  0  0  0  0  0  0  0  0999 V2000
  139.8780   77.4930  222.3740 C   0  0  0  0  0  0  0  0  0  0  0  0
  141.0700   76.8770  221.7250 C   0  0  0  0  0  0  0  0  0  0  0  0
  141.5290   77.7480  220.5920 C   0  0  0  0  0  0  0  0  0  0  0  0
  140.7400   75.5240  221.2570 N   0  0  0  0  0  0  0  0  0  0  0  0
  141.7240   74.6140  220.8480 C   0  0  0  0  0  0  0  0  0  0  0  0
  142.9510   74.8810  220.8480 O   0  0  0  0  0  0  0  0  0  0  0  0
  141.3000   73.2710  220.3910 C   0  0  0  0  0  0  0  0  0  0  0  0
  141.2580   72.3080  221.4820 N   0  0  0  0  0  0  0  0  0  0  0  0
  140.3250   72.5060  222.5420 C   0  0  0  0  0  0  0  0  0  0  0  0
  139.5820   73.5250  222.4620 O   0  0  0  0  0  0  0  0  0  0  0  0
  140.2400   71.5740  223.6590 C   0  0  0  0  0  0  0  0  0  0  0  0
  139.6600   70.3390  223.4310 C   0  0  0  0  0  0  0  0  0  0  0  0
  139.5740   69.4510  224.4790 C   0  0  0  0  0  0  0  0  0  0  0  0
  140.0530   69.7710  225.7460 C   0  0  0  0  0  0  0  0  0  0  0  0
  139.9740   68.8910  226.8070 C   0  0  0  0  0  0  0  0  0  0  0  0
  140.4590   69.2490  228.0390 C   0  0  0  0  0  0  0  0  0  0  0  0
  140.3970   68.4140  229.0990 F   0  0  0  0  0  0  0  0  0  0  0  0
  141.0320   70.5030  228.2160 C   0  0  0  0  0  0  0  0  0  0  0  0
  141.1250   71.4120  227.1620 C   0  0  0  0  0  0  0  0  0  0  0  0
  140.6320   71.0300  225.9350 C   0  0  0  0  0  0  0  0  0  0  0  0
  140.7000   71.8740  224.8880 N   0  0  0  0  0  0  0  0  0  0  0  0
  139.9859   77.4372  223.4673 H   0  0  0  0  0  0  0  0  0  0  0  0
  139.7965   78.5461  222.0668 H   0  0  0  0  0  0  0  0  0  0  0  0
  138.9718   76.9503  222.0668 H   0  0  0  0  0  0  0  0  0  0  0  0
  141.8903   76.7941  222.4532 H   0  0  0  0  0  0  0  0  0  0  0  0
  142.0061   78.6533  220.9955 H   0  0  0  0  0  0  0  0  0  0  0  0
  142.2532   77.1958  219.9751 H   0  0  0  0  0  0  0  0  0  0  0  0
  140.6641   78.0332  219.9751 H   0  0  0  0  0  0  0  0  0  0  0  0
  139.7150   75.3030  221.2580 H   0  0  0  0  0  0  0  0  0  0  0  0
  140.2964   73.3480  219.9473 H   0  0  0  0  0  0  0  0  0  0  0  0
  142.0363   72.9162  219.6548 H   0  0  0  0  0  0  0  0  0  0  0  0
  141.8850   71.4800  221.5180 H   0  0  0  0  0  0  0  0  0  0  0  0
  139.2764   70.0728  222.4350 H   0  0  0  0  0  0  0  0  0  0  0  0
  139.1159   68.4651  224.3113 H   0  0  0  0  0  0  0  0  0  0  0  0
  139.5204   67.8992  226.6637 H   0  0  0  0  0  0  0  0  0  0  0  0
  141.4196   70.7840  229.2064 H   0  0  0  0  0  0  0  0  0  0  0  0
  141.5784   72.4037  227.3070 H   0  0  0  0  0  0  0  0  0  0  0  0
  1  2  1  0
  2  3  1  0
  2  4  1  0
  4  5  1  0
  5  6  2  0
  5  7  1  0
  7  8  1  0
  8  9  1  0
  9 10  2  0
  9 11  1  0
 11 12  2  0
 12 13  1  0
 13 14  2  0
 14 15  1  0
 15 16  2  0
 16 17  1  0
 16 18  1  0
 18 19  2  0
 19 20  1  0
 20 21  2  0
 21 11  1  0
 20 14  1  0
  1 22  1  0
  1 23  1  0
  1 24  1  0
  2 25  1  0
  3 26  1  0
  3 27  1  0
  3 28  1  0
  4 29  1  0
  7 30  1  0
  7 31  1  0
  8 32  1  0
 12 33  1  0
 13 34  1  0
 15 35  1  0
 18 36  1  0
 19 37  1  0
M  END
>  <smiles>  (7) 
CC(C)NC(=O)CNC(=O)c1ccc2cc(F)ccc2n1

>  <score_type>  (7) 
oracle

>  <origin>  (7) 
autodockgpu

>  <m_score__min__energy>  (7) 
-7.1600000000000001

>  <m_primary>  (7) 
energy

>  <rmsd>  (7) 
2.371083373151632

>  <m_score__min__rmsd>  (7) 
2.371083373151632

>  <meeko>  (7) 
{"free_energy": -6.1, "intermolecular_energy": -7.29, "internal_energy": -1.31, "cluster_size": 45, "cluster_id": 1, "rank_in_cluster": 39}

>  <energy>  (7) 
-7.14

>  <cluster_rmsd>  (7) 
0.26

>  <cluster>  (7) 
1

$$$$

     RDKit          3D

 37 38  0  0  0  0  0  0  0  0999 V2000
  141.3280   78.3730  223.3910 C   0  0  0  0  0  0  0  0  0  0  0  0
  141.4600   78.2310  221.9130 C   0  0  0  0  0  0  0  0  0  0  0  0
  140.4270   79.0830  221.2340 C   0  0  0  0  0  0  0  0  0  0  0  0
  141.3210   76.8190  221.5330 N   0  0  0  0  0  0  0  0  0  0  0  0
  140.0940   76.1450  221.5990 C   0  0  0  0  0  0  0  0  0  0  0  0
  139.0290   76.6890  221.9840 O   0  0  0  0  0  0  0  0  0  0  0  0
  140.0460   74.7210  221.1970 C   0  0  0  0  0  0  0  0  0  0  0  0
  139.8210   73.8380  222.3320 N   0  0  0  0  0  0  0  0  0  0  0  0
  140.4320   72.5500  222.3380 C   0  0  0  0  0  0  0  0  0  0  0  0
  141.1440   72.2550  221.3370 O   0  0  0  0  0  0  0  0  0  0  0  0
  140.2420   71.6270  223.4490 C   0  0  0  0  0  0  0  0  0  0  0  0
  139.5840   70.4360  223.1980 C   0  0  0  0  0  0  0  0  0  0  0  0
  139.3980   69.5560  224.2390 C   0  0  0  0  0  0  0  0  0  0  0  0
  139.8530   69.8410  225.5230 C   0  0  0  0  0  0  0  0  0  0  0  0
  139.6750   68.9680  226.5780 C   0  0  0  0  0  0  0  0  0  0  0  0
  140.1410   69.2900  227.8270 C   0  0  0  0  0  0  0  0  0  0  0  0
  139.9830   68.4610  228.8820 F   0  0  0  0  0  0  0  0  0  0  0  0
  140.7950   70.5000  228.0270 C   0  0  0  0  0  0  0  0  0  0  0  0
  140.9900   71.3990  226.9800 C   0  0  0  0  0  0  0  0  0  0  0  0
  140.5140   71.0550  225.7350 C   0  0  0  0  0  0  0  0  0  0  0  0
  140.6790   71.8920  224.6940 N   0  0  0  0  0  0  0  0  0  0  0  0
  141.9957   77.6548  223.8894 H   0  0  0  0  0  0  0  0  0  0  0  0
  141.6033   79.3960  223.6871 H   0  0  0  0  0  0  0  0  0  0  0  0
  140.2877   78.1730  223.6871 H   0  0  0  0  0  0  0  0  0  0  0  0
  142.4554   78.5721  221.5925 H   0  0  0  0  0  0  0  0  0  0  0  0
  139.8129   79.5895  221.9931 H   0  0  0  0  0  0  0  0  0  0  0  0
  140.9271   79.8347  220.6057 H   0  0  0  0  0  0  0  0  0  0  0  0
  139.7842   78.4490  220.6057 H   0  0  0  0  0  0  0  0  0  0  0  0
  142.2110   76.3670  221.2120 H   0  0  0  0  0  0  0  0  0  0  0  0
  139.2285   74.5841  220.4738 H   0  0  0  0  0  0  0  0  0  0  0  0
  141.0189   74.4615  220.7541 H   0  0  0  0  0  0  0  0  0  0  0  0
  139.2280   74.1120  223.1410 H   0  0  0  0  0  0  0  0  0  0  0  0
  139.2177   70.1980  222.1884 H   0  0  0  0  0  0  0  0  0  0  0  0
  138.8776   68.6051  224.0522 H   0  0  0  0  0  0  0  0  0  0  0  0
  139.1576   68.0109  226.4160 H   0  0  0  0  0  0  0  0  0  0  0  0
  141.1659   70.7530  229.0312 H   0  0  0  0  0  0  0  0  0  0  0  0
  141.5089   72.3550  227.1436 H   0  0  0  0  0  0  0  0  0  0  0  0
  1  2  1  0
  2  3  1  0
  2  4  1  0
  4  5  1  0
  5  6  2  0
  5  7  1  0
  7  8  1  0
  8  9  1  0
  9 10  2  0
  9 11  1  0
 11 12  2  0
 12 13  1  0
 13 14  2  0
 14 15  1  0
 15 16  2  0
 16 17  1  0
 16 18  1  0
 18 19  2  0
 19 20  1  0
 20 21  2  0
 21 11  1  0
 20 14  1  0
  1 22  1  0
  1 23  1  0
  1 24  1  0
  2 25  1  0
  3 26  1  0
  3 27  1  0
  3 28  1  0
  4 29  1  0
  7 30  1  0
  7 31  1  0
  8 32  1  0
 12 33  1  0
 13 34  1  0
 15 35  1  0
 18 36  1  0
 19 37  1  0
M  END
>  <smiles>  (8) 
CC(C)NC(=O)CNC(=O)c1ccc2cc(F)ccc2n1

>  <score_type>  (8) 
oracle

>  <origin>  (8) 
autodockgpu

>  <m_score__min__energy>  (8) 
-7.1600000000000001

>  <m_primary>  (8) 
energy

>  <rmsd>  (8) 
2.3616404577584986

>  <m_score__min__rmsd>  (8) 
2.3616404577584986

>  <meeko>  (8) 
{"free_energy": -6.83, "intermolecular_energy": -8.02, "internal_energy": -0.73, "cluster_size": 45, "cluster_id": 1, "rank_in_cluster": 19}

>  <energy>  (8) 
-7.14

>  <cluster_rmsd>  (8) 
0.06

>  <cluster>  (8) 
1

$$$$

     RDKit          3D

 37 38  0  0  0  0  0  0  0  0999 V2000
  143.6640   75.3020  218.7940 C   0  0  0  0  0  0  0  0  0  0  0  0
  143.4960   74.8140  220.1920 C   0  0  0  0  0  0  0  0  0  0  0  0
  144.5160   73.7490  220.4760 C   0  0  0  0  0  0  0  0  0  0  0  0
  142.1300   74.3090  220.3840 N   0  0  0  0  0  0  0  0  0  0  0  0
  141.1170   75.0920  220.9540 C   0  0  0  0  0  0  0  0  0  0  0  0
  141.2960   76.2730  221.3410 O   0  0  0  0  0  0  0  0  0  0  0  0
  139.7680   74.5010  221.1100 C   0  0  0  0  0  0  0  0  0  0  0  0
  139.6640   73.6820  222.3100 N   0  0  0  0  0  0  0  0  0  0  0  0
  140.2130   72.3670  222.2990 C   0  0  0  0  0  0  0  0  0  0  0  0
  140.7650   71.9910  221.2260 O   0  0  0  0  0  0  0  0  0  0  0  0
  140.1370   71.5050  223.4710 C   0  0  0  0  0  0  0  0  0  0  0  0
  139.5650   70.2550  223.3220 C   0  0  0  0  0  0  0  0  0  0  0  0
  139.4890   69.4330  224.4230 C   0  0  0  0  0  0  0  0  0  0  0  0
  139.9700   69.8330  225.6660 C   0  0  0  0  0  0  0  0  0  0  0  0
  139.9000   69.0190  226.7790 C   0  0  0  0  0  0  0  0  0  0  0  0
  140.3870   69.4540  227.9850 C   0  0  0  0  0  0  0  0  0  0  0  0
  140.3350   68.6860  229.0940 F   0  0  0  0  0  0  0  0  0  0  0  0
  140.9530   70.7210  228.0820 C   0  0  0  0  0  0  0  0  0  0  0  0
  141.0360   71.5630  226.9740 C   0  0  0  0  0  0  0  0  0  0  0  0
  140.5410   71.1050  225.7740 C   0  0  0  0  0  0  0  0  0  0  0  0
  140.6000   71.8830  224.6770 N   0  0  0  0  0  0  0  0  0  0  0  0
  144.0220   76.3420  218.8092 H   0  0  0  0  0  0  0  0  0  0  0  0
  144.3962   74.6698  218.2704 H   0  0  0  0  0  0  0  0  0  0  0  0
  142.6978   75.2545  218.2704 H   0  0  0  0  0  0  0  0  0  0  0  0
  143.6536   75.6426  220.8982 H   0  0  0  0  0  0  0  0  0  0  0  0
  144.6294   73.6306  221.5637 H   0  0  0  0  0  0  0  0  0  0  0  0
  144.1842   72.7969  220.0361 H   0  0  0  0  0  0  0  0  0  0  0  0
  145.4815   74.0394  220.0361 H   0  0  0  0  0  0  0  0  0  0  0  0
  141.9830   73.3220  220.0600 H   0  0  0  0  0  0  0  0  0  0  0  0
  139.0294   75.3139  221.1703 H   0  0  0  0  0  0  0  0  0  0  0  0
  139.5792   73.8538  220.2408 H   0  0  0  0  0  0  0  0  0  0  0  0
  139.2020   74.0220  223.1760 H   0  0  0  0  0  0  0  0  0  0  0  0
  139.1796   69.9253  222.3459 H   0  0  0  0  0  0  0  0  0  0  0  0
  139.0371   68.4356  224.3180 H   0  0  0  0  0  0  0  0  0  0  0  0
  139.4519   68.0177  226.6981 H   0  0  0  0  0  0  0  0  0  0  0  0
  141.3425   71.0651  229.0515 H   0  0  0  0  0  0  0  0  0  0  0  0
  141.4840   72.5643  227.0563 H   0  0  0  0  0  0  0  0  0  0  0  0
  1  2  1  0
  2  3  1  0
  2  4  1  0
  4  5  1  0
  5  6  2  0
  5  7  1  0
  7  8  1  0
  8  9  1  0
  9 10  2  0
  9 11  1  0
 11 12  2  0
 12 13  1  0
 13 14  2  0
 14 15  1  0
 15 16  2  0
 16 17  1  0
 16 18  1  0
 18 19  2  0
 19 20  1  0
 20 21  2  0
 21 11  1  0
 20 14  1  0
  1 22  1  0
  1 23  1  0
  1 24  1  0
  2 25  1  0
  3 26  1  0
  3 27  1  0
  3 28  1  0
  4 29  1  0
  7 30  1  0
  7 31  1  0
  8 32  1  0
 12 33  1  0
 13 34  1  0
 15 35  1  0
 18 36  1  0
 19 37  1  0
M  END
>  <smiles>  (9) 
CC(C)NC(=O)CNC(=O)c1ccc2cc(F)ccc2n1

>  <score_type>  (9) 
oracle

>  <origin>  (9) 
autodockgpu

>  <m_score__min__energy>  (9) 
-7.1600000000000001

>  <m_primary>  (9) 
energy

>  <rmsd>  (9) 
2.091414849462867

>  <m_score__min__rmsd>  (9) 
2.091414849462867

>  <meeko>  (9) 
{"free_energy": -6.25, "intermolecular_energy": -7.44, "internal_energy": -1.48, "cluster_size": 45, "cluster_id": 1, "rank_in_cluster": 33}

>  <energy>  (9) 
-7.14

>  <cluster_rmsd>  (9) 
0.27

>  <cluster>  (9) 
1

$$$$

     RDKit          3D

 37 38  0  0  0  0  0  0  0  0999 V2000
  136.5630   76.5410  222.6140 C   0  0  0  0  0  0  0  0  0  0  0  0
  138.0430   76.4240  222.7450 C   0  0  0  0  0  0  0  0  0  0  0  0
  138.7030   77.5500  222.0040 C   0  0  0  0  0  0  0  0  0  0  0  0
  138.4870   75.1190  222.2370 N   0  0  0  0  0  0  0  0  0  0  0  0
  138.2700   74.7200  220.9110 C   0  0  0  0  0  0  0  0  0  0  0  0
  137.6860   75.4390  220.0620 O   0  0  0  0  0  0  0  0  0  0  0  0
  138.7510   73.3860  220.4850 C   0  0  0  0  0  0  0  0  0  0  0  0
  138.7560   72.4290  221.5830 N   0  0  0  0  0  0  0  0  0  0  0  0
  139.8180   72.4710  222.5320 C   0  0  0  0  0  0  0  0  0  0  0  0
  140.7040   73.3550  222.3540 O   0  0  0  0  0  0  0  0  0  0  0  0
  139.8730   71.5380  223.6490 C   0  0  0  0  0  0  0  0  0  0  0  0
  139.3400   70.2750  223.4670 C   0  0  0  0  0  0  0  0  0  0  0  0
  139.3860   69.3850  224.5160 C   0  0  0  0  0  0  0  0  0  0  0  0
  139.9510   69.7310  225.7400 C   0  0  0  0  0  0  0  0  0  0  0  0
  140.0050   68.8500  226.8020 C   0  0  0  0  0  0  0  0  0  0  0  0
  140.5720   69.2330  227.9900 C   0  0  0  0  0  0  0  0  0  0  0  0
  140.6400   68.3980  229.0490 F   0  0  0  0  0  0  0  0  0  0  0  0
  141.0930   70.5150  228.1220 C   0  0  0  0  0  0  0  0  0  0  0  0
  141.0530   71.4250  227.0660 C   0  0  0  0  0  0  0  0  0  0  0  0
  140.4790   71.0180  225.8830 C   0  0  0  0  0  0  0  0  0  0  0  0
  140.4180   71.8620  224.8360 N   0  0  0  0  0  0  0  0  0  0  0  0
  136.1080   76.5770  223.6148 H   0  0  0  0  0  0  0  0  0  0  0  0
  136.3151   77.4615  222.0652 H   0  0  0  0  0  0  0  0  0  0  0  0
  136.1735   75.6708  222.0652 H   0  0  0  0  0  0  0  0  0  0  0  0
  138.3299   76.4921  223.8047 H   0  0  0  0  0  0  0  0  0  0  0  0
  139.1232   78.2668  222.7248 H   0  0  0  0  0  0  0  0  0  0  0  0
  139.5096   77.1500  221.3720 H   0  0  0  0  0  0  0  0  0  0  0  0
  137.9599   78.0584  221.3720 H   0  0  0  0  0  0  0  0  0  0  0  0
  138.9750   74.5200  222.9470 H   0  0  0  0  0  0  0  0  0  0  0  0
  138.0922   73.0090  219.6889 H   0  0  0  0  0  0  0  0  0  0  0  0
  139.7854   73.4971  220.1278 H   0  0  0  0  0  0  0  0  0  0  0  0
  138.0110   71.7130  221.6990 H   0  0  0  0  0  0  0  0  0  0  0  0
  138.8894   69.9880  222.5054 H   0  0  0  0  0  0  0  0  0  0  0  0
  138.9664   68.3768  224.3839 H   0  0  0  0  0  0  0  0  0  0  0  0
  139.5913   67.8365  226.6943 H   0  0  0  0  0  0  0  0  0  0  0  0
  141.5456   70.8175  229.0778 H   0  0  0  0  0  0  0  0  0  0  0  0
  141.4678   72.4379  227.1752 H   0  0  0  0  0  0  0  0  0  0  0  0
  1  2  1  0
  2  3  1  0
  2  4  1  0
  4  5  1  0
  5  6  2  0
  5  7  1  0
  7  8  1  0
  8  9  1  0
  9 10  2  0
  9 11  1  0
 11 12  2  0
 12 13  1  0
 13 14  2  0
 14 15  1  0
 15 16  2  0
 16 17  1  0
 16 18  1  0
 18 19  2  0
 19 20  1  0
 20 21  2  0
 21 11  1  0
 20 14  1  0
  1 22  1  0
  1 23  1  0
  1 24  1  0
  2 25  1  0
  3 26  1  0
  3 27  1  0
  3 28  1  0
  4 29  1  0
  7 30  1  0
  7 31  1  0
  8 32  1  0
 12 33  1  0
 13 34  1  0
 15 35  1  0
 18 36  1  0
 19 37  1  0
M  END
>  <smiles>  (10) 
CC(C)NC(=O)CNC(=O)c1ccc2cc(F)ccc2n1

>  <score_type>  (10) 
oracle

>  <origin>  (10) 
autodockgpu

>  <m_score__min__energy>  (10) 
-7.1600000000000001

>  <m_primary>  (10) 
energy

>  <rmsd>  (10) 
2.669175047583786

>  <m_score__min__rmsd>  (10) 
2.669175047583786

>  <meeko>  (10) 
{"free_energy": -6.1, "intermolecular_energy": -7.29, "internal_energy": -1.33, "cluster_size": 45, "cluster_id": 1, "rank_in_cluster": 40}

>  <energy>  (10) 
-7.13

>  <cluster_rmsd>  (10) 
0.27

>  <cluster>  (10) 
1

$$$$

     RDKit          3D

 37 38  0  0  0  0  0  0  0  0999 V2000
  141.6870   79.2350  221.2810 C   0  0  0  0  0  0  0  0  0  0  0  0
  140.9300   78.3850  222.2430 C   0  0  0  0  0  0  0  0  0  0  0  0
  141.5140   78.5420  223.6170 C   0  0  0  0  0  0  0  0  0  0  0  0
  140.9660   76.9830  221.8060 N   0  0  0  0  0  0  0  0  0  0  0  0
  139.8090   76.1970  221.7210 C   0  0  0  0  0  0  0  0  0  0  0  0
  138.6640   76.6230  222.0090 O   0  0  0  0  0  0  0  0  0  0  0  0
  139.9390   74.7920  221.2700 C   0  0  0  0  0  0  0  0  0  0  0  0
  139.6820   73.8450  222.3460 N   0  0  0  0  0  0  0  0  0  0  0  0
  140.4800   72.6670  222.4360 C   0  0  0  0  0  0  0  0  0  0  0  0
  141.3770   72.5210  221.5570 O   0  0  0  0  0  0  0  0  0  0  0  0
  140.2670   71.6870  223.4910 C   0  0  0  0  0  0  0  0  0  0  0  0
  139.5890   70.5240  223.1710 C   0  0  0  0  0  0  0  0  0  0  0  0
  139.3820   69.5910  224.1610 C   0  0  0  0  0  0  0  0  0  0  0  0
  139.8360   69.7950  225.4600 C   0  0  0  0  0  0  0  0  0  0  0  0
  139.6360   68.8680  226.4640 C   0  0  0  0  0  0  0  0  0  0  0  0
  140.1010   69.1100  227.7310 C   0  0  0  0  0  0  0  0  0  0  0  0
  139.9220   68.2270  228.7370 F   0  0  0  0  0  0  0  0  0  0  0  0
  140.7760   70.2960  228.0020 C   0  0  0  0  0  0  0  0  0  0  0  0
  140.9920   71.2490  227.0080 C   0  0  0  0  0  0  0  0  0  0  0  0
  140.5170   70.9830  225.7430 C   0  0  0  0  0  0  0  0  0  0  0  0
  140.7020   71.8740  224.7510 N   0  0  0  0  0  0  0  0  0  0  0  0
  142.3185   79.9441  221.8364 H   0  0  0  0  0  0  0  0  0  0  0  0
  142.3213   78.5968  220.6483 H   0  0  0  0  0  0  0  0  0  0  0  0
  140.9799   79.7915  220.6483 H   0  0  0  0  0  0  0  0  0  0  0  0
  139.8778   78.7041  222.2746 H   0  0  0  0  0  0  0  0  0  0  0  0
  140.7400   78.3339  224.3704 H   0  0  0  0  0  0  0  0  0  0  0  0
  142.3482   77.8362  223.7437 H   0  0  0  0  0  0  0  0  0  0  0  0
  141.8818   79.5709  223.7437 H   0  0  0  0  0  0  0  0  0  0  0  0
  141.9230   76.6280  221.5650 H   0  0  0  0  0  0  0  0  0  0  0  0
  139.2179   74.6117  220.4591 H   0  0  0  0  0  0  0  0  0  0  0  0
  140.9728   74.6411  220.9259 H   0  0  0  0  0  0  0  0  0  0  0  0
  138.9360   73.9960  223.0530 H   0  0  0  0  0  0  0  0  0  0  0  0
  139.2237   70.3492  222.1482 H   0  0  0  0  0  0  0  0  0  0  0  0
  138.8449   68.6619  223.9195 H   0  0  0  0  0  0  0  0  0  0  0  0
  139.1014   67.9316  226.2463 H   0  0  0  0  0  0  0  0  0  0  0  0
  141.1464   70.4853  229.0203 H   0  0  0  0  0  0  0  0  0  0  0  0
  141.5258   72.1854  227.2274 H   0  0  0  0  0  0  0  0  0  0  0  0
  1  2  1  0
  2  3  1  0
  2  4  1  0
  4  5  1  0
  5  6  2  0
  5  7  1  0
  7  8  1  0
  8  9  1  0
  9 10  2  0
  9 11  1  0
 11 12  2  0
 12 13  1  0
 13 14  2  0
 14 15  1  0
 15 16  2  0
 16 17  1  0
 16 18  1  0
 18 19  2  0
 19 20  1  0
 20 21  2  0
 21 11  1  0
 20 14  1  0
  1 22  1  0
  1 23  1  0
  1 24  1  0
  2 25  1  0
  3 26  1  0
  3 27  1  0
  3 28  1  0
  4 29  1  0
  7 30  1  0
  7 31  1  0
  8 32  1  0
 12 33  1  0
 13 34  1  0
 15 35  1  0
 18 36  1  0
 19 37  1  0
M  END
>  <smiles>  (11) 
CC(C)NC(=O)CNC(=O)c1ccc2cc(F)ccc2n1

>  <score_type>  (11) 
oracle

>  <origin>  (11) 
autodockgpu

>  <m_score__min__energy>  (11) 
-7.1600000000000001

>  <m_primary>  (11) 
energy

>  <rmsd>  (11) 
2.13705505897065

>  <m_score__min__rmsd>  (11) 
2.13705505897065

>  <meeko>  (11) 
{"free_energy": -7.09, "intermolecular_energy": -8.28, "internal_energy": -0.74, "cluster_size": 45, "cluster_id": 1, "rank_in_cluster": 14}

>  <energy>  (11) 
-7.12

>  <cluster_rmsd>  (11) 
0.19

>  <cluster>  (11) 
1

$$$$

     RDKit          3D

 37 38  0  0  0  0  0  0  0  0999 V2000
  144.2270   73.9760  220.8040 C   0  0  0  0  0  0  0  0  0  0  0  0
  143.3370   74.3320  219.6630 C   0  0  0  0  0  0  0  0  0  0  0  0
  143.4930   75.7910  219.3440 C   0  0  0  0  0  0  0  0  0  0  0  0
  141.9450   74.0040  219.9960 N   0  0  0  0  0  0  0  0  0  0  0  0
  141.1470   74.8440  220.7850 C   0  0  0  0  0  0  0  0  0  0  0  0
  141.5560   75.9300  221.2650 O   0  0  0  0  0  0  0  0  0  0  0  0
  139.7530   74.4330  221.0710 C   0  0  0  0  0  0  0  0  0  0  0  0
  139.6570   73.6240  222.2770 N   0  0  0  0  0  0  0  0  0  0  0  0
  140.1920   72.3030  222.2670 C   0  0  0  0  0  0  0  0  0  0  0  0
  140.7270   71.9150  221.1900 O   0  0  0  0  0  0  0  0  0  0  0  0
  140.1240   71.4490  223.4450 C   0  0  0  0  0  0  0  0  0  0  0  0
  139.5520   70.1970  223.3080 C   0  0  0  0  0  0  0  0  0  0  0  0
  139.4810   69.3830  224.4150 C   0  0  0  0  0  0  0  0  0  0  0  0
  139.9690   69.7920  225.6520 C   0  0  0  0  0  0  0  0  0  0  0  0
  139.9050   68.9860  226.7720 C   0  0  0  0  0  0  0  0  0  0  0  0
  140.3990   69.4300  227.9720 C   0  0  0  0  0  0  0  0  0  0  0  0
  140.3530   68.6700  229.0870 F   0  0  0  0  0  0  0  0  0  0  0  0
  140.9630   70.6980  228.0570 C   0  0  0  0  0  0  0  0  0  0  0  0
  141.0400   71.5330  226.9430 C   0  0  0  0  0  0  0  0  0  0  0  0
  140.5400   71.0650  225.7490 C   0  0  0  0  0  0  0  0  0  0  0  0
  140.5920   71.8350  224.6470 N   0  0  0  0  0  0  0  0  0  0  0  0
  143.7087   74.1833  221.7518 H   0  0  0  0  0  0  0  0  0  0  0  0
  144.4811   72.9070  220.7512 H   0  0  0  0  0  0  0  0  0  0  0  0
  145.1482   74.5749  220.7512 H   0  0  0  0  0  0  0  0  0  0  0  0
  143.6188   73.7506  218.7727 H   0  0  0  0  0  0  0  0  0  0  0  0
  143.5545   76.3663  220.2795 H   0  0  0  0  0  0  0  0  0  0  0  0
  144.4124   75.9423  218.7594 H   0  0  0  0  0  0  0  0  0  0  0  0
  142.6263   76.1332  218.7594 H   0  0  0  0  0  0  0  0  0  0  0  0
  141.6050   73.0970  219.5940 H   0  0  0  0  0  0  0  0  0  0  0  0
  139.1365   75.3350  221.1990 H   0  0  0  0  0  0  0  0  0  0  0  0
  139.3993   73.8243  220.2258 H   0  0  0  0  0  0  0  0  0  0  0  0
  139.2090   73.9740  223.1470 H   0  0  0  0  0  0  0  0  0  0  0  0
  139.1627   69.8598  222.3360 H   0  0  0  0  0  0  0  0  0  0  0  0
  139.0277   68.3853  224.3197 H   0  0  0  0  0  0  0  0  0  0  0  0
  139.4561   67.9842  226.7012 H   0  0  0  0  0  0  0  0  0  0  0  0
  141.3563   71.0494  229.0223 H   0  0  0  0  0  0  0  0  0  0  0  0
  141.4868   72.5355  227.0161 H   0  0  0  0  0  0  0  0  0  0  0  0
  1  2  1  0
  2  3  1  0
  2  4  1  0
  4  5  1  0
  5  6  2  0
  5  7  1  0
  7  8  1  0
  8  9  1  0
  9 10  2  0
  9 11  1  0
 11 12  2  0
 12 13  1  0
 13 14  2  0
 14 15  1  0
 15 16  2  0
 16 17  1  0
 16 18  1  0
 18 19  2  0
 19 20  1  0
 20 21  2  0
 21 11  1  0
 20 14  1  0
  1 22  1  0
  1 23  1  0
  1 24  1  0
  2 25  1  0
  3 26  1  0
  3 27  1  0
  3 28  1  0
  4 29  1  0
  7 30  1  0
  7 31  1  0
  8 32  1  0
 12 33  1  0
 13 34  1  0
 15 35  1  0
 18 36  1  0
 19 37  1  0
M  END
>  <smiles>  (12) 
CC(C)NC(=O)CNC(=O)c1ccc2cc(F)ccc2n1

>  <score_type>  (12) 
oracle

>  <origin>  (12) 
autodockgpu

>  <m_score__min__energy>  (12) 
-7.1600000000000001

>  <m_primary>  (12) 
energy

>  <rmsd>  (12) 
2.39709570335364

>  <m_score__min__rmsd>  (12) 
2.39709570335364

>  <meeko>  (12) 
{"free_energy": -6.11, "intermolecular_energy": -7.3, "internal_energy": -1.35, "cluster_size": 45, "cluster_id": 1, "rank_in_cluster": 38}

>  <energy>  (12) 
-7.11

>  <cluster_rmsd>  (12) 
0.2

>  <cluster>  (12) 
1

$$$$

     RDKit          3D

 37 38  0  0  0  0  0  0  0  0999 V2000
  141.4800   79.0430  221.1460 C   0  0  0  0  0  0  0  0  0  0  0  0
  140.9620   78.2220  222.2770 C   0  0  0  0  0  0  0  0  0  0  0  0
  141.7490   78.5270  223.5180 C   0  0  0  0  0  0  0  0  0  0  0  0
  141.0370   76.7960  221.9340 N   0  0  0  0  0  0  0  0  0  0  0  0
  139.9180   76.0720  221.5000 C   0  0  0  0  0  0  0  0  0  0  0  0
  138.7760   76.5800  221.3710 O   0  0  0  0  0  0  0  0  0  0  0  0
  140.0860   74.6370  221.1760 C   0  0  0  0  0  0  0  0  0  0  0  0
  139.8420   73.7820  222.3300 N   0  0  0  0  0  0  0  0  0  0  0  0
  140.4860   72.5120  222.3980 C   0  0  0  0  0  0  0  0  0  0  0  0
  141.2410   72.2060  221.4320 O   0  0  0  0  0  0  0  0  0  0  0  0
  140.2780   71.6180  223.5280 C   0  0  0  0  0  0  0  0  0  0  0  0
  139.6150   70.4250  223.3000 C   0  0  0  0  0  0  0  0  0  0  0  0
  139.4130   69.5730  224.3620 C   0  0  0  0  0  0  0  0  0  0  0  0
  139.8580   69.8860  225.6420 C   0  0  0  0  0  0  0  0  0  0  0  0
  139.6630   69.0420  226.7170 C   0  0  0  0  0  0  0  0  0  0  0  0
  140.1190   69.3910  227.9620 C   0  0  0  0  0  0  0  0  0  0  0  0
  139.9450   68.5900  229.0350 F   0  0  0  0  0  0  0  0  0  0  0  0
  140.7790   70.6020  228.1390 C   0  0  0  0  0  0  0  0  0  0  0  0
  140.9890   71.4740  227.0720 C   0  0  0  0  0  0  0  0  0  0  0  0
  140.5240   71.1020  225.8310 C   0  0  0  0  0  0  0  0  0  0  0  0
  140.7040   71.9120  224.7710 N   0  0  0  0  0  0  0  0  0  0  0  0
  142.0273   79.9105  221.5432 H   0  0  0  0  0  0  0  0  0  0  0  0
  142.1571   78.4329  220.5300 H   0  0  0  0  0  0  0  0  0  0  0  0
  140.6379   79.3914  220.5300 H   0  0  0  0  0  0  0  0  0  0  0  0
  139.9071   78.4700  222.4661 H   0  0  0  0  0  0  0  0  0  0  0  0
  141.1417   78.2916  224.4044 H   0  0  0  0  0  0  0  0  0  0  0  0
  142.6656   77.9190  223.5296 H   0  0  0  0  0  0  0  0  0  0  0  0
  142.0165   79.5939  223.5296 H   0  0  0  0  0  0  0  0  0  0  0  0
  141.9910   76.3740  222.0420 H   0  0  0  0  0  0  0  0  0  0  0  0
  139.3770   74.3680  220.3791 H   0  0  0  0  0  0  0  0  0  0  0  0
  141.1263   74.4822  220.8539 H   0  0  0  0  0  0  0  0  0  0  0  0
  139.2130   74.0650  223.1070 H   0  0  0  0  0  0  0  0  0  0  0  0
  139.2576   70.1635  222.2931 H   0  0  0  0  0  0  0  0  0  0  0  0
  138.8869   68.6216  224.1943 H   0  0  0  0  0  0  0  0  0  0  0  0
  139.1394   68.0852  226.5740 H   0  0  0  0  0  0  0  0  0  0  0  0
  141.1423   70.8771  229.1402 H   0  0  0  0  0  0  0  0  0  0  0  0
  141.5110   72.4313  227.2174 H   0  0  0  0  0  0  0  0  0  0  0  0
  1  2  1  0
  2  3  1  0
  2  4  1  0
  4  5  1  0
  5  6  2  0
  5  7  1  0
  7  8  1  0
  8  9  1  0
  9 10  2  0
  9 11  1  0
 11 12  2  0
 12 13  1  0
 13 14  2  0
 14 15  1  0
 15 16  2  0
 16 17  1  0
 16 18  1  0
 18 19  2  0
 19 20  1  0
 20 21  2  0
 21 11  1  0
 20 14  1  0
  1 22  1  0
  1 23  1  0
  1 24  1  0
  2 25  1  0
  3 26  1  0
  3 27  1  0
  3 28  1  0
  4 29  1  0
  7 30  1  0
  7 31  1  0
  8 32  1  0
 12 33  1  0
 13 34  1  0
 15 35  1  0
 18 36  1  0
 19 37  1  0
M  END
>  <smiles>  (13) 
CC(C)NC(=O)CNC(=O)c1ccc2cc(F)ccc2n1

>  <score_type>  (13) 
oracle

>  <origin>  (13) 
autodockgpu

>  <m_score__min__energy>  (13) 
-7.1600000000000001

>  <m_primary>  (13) 
energy

>  <rmsd>  (13) 
2.069719191144857

>  <m_score__min__rmsd>  (13) 
2.069719191144857

>  <meeko>  (13) 
{"free_energy": -7.12, "intermolecular_energy": -8.31, "internal_energy": -0.7, "cluster_size": 45, "cluster_id": 1, "rank_in_cluster": 11}

>  <energy>  (13) 
-7.1

>  <cluster_rmsd>  (13) 
0.19

>  <cluster>  (13) 
1

$$$$

     RDKit          3D

 37 38  0  0  0  0  0  0  0  0999 V2000
  141.7240   79.1530  221.3100 C   0  0  0  0  0  0  0  0  0  0  0  0
  141.0740   78.2920  222.3390 C   0  0  0  0  0  0  0  0  0  0  0  0
  141.8190   78.4130  223.6360 C   0  0  0  0  0  0  0  0  0  0  0  0
  141.0380   76.8990  221.8730 N   0  0  0  0  0  0  0  0  0  0  0  0
  139.8390   76.1850  221.7440 C   0  0  0  0  0  0  0  0  0  0  0  0
  138.7140   76.6740  222.0140 O   0  0  0  0  0  0  0  0  0  0  0  0
  139.8970   74.7840  221.2680 C   0  0  0  0  0  0  0  0  0  0  0  0
  139.6490   73.8300  222.3390 N   0  0  0  0  0  0  0  0  0  0  0  0
  140.4700   72.6690  222.4340 C   0  0  0  0  0  0  0  0  0  0  0  0
  141.3780   72.5430  221.5650 O   0  0  0  0  0  0  0  0  0  0  0  0
  140.2660   71.6820  223.4860 C   0  0  0  0  0  0  0  0  0  0  0  0
  139.5850   70.5220  223.1650 C   0  0  0  0  0  0  0  0  0  0  0  0
  139.3870   69.5830  224.1510 C   0  0  0  0  0  0  0  0  0  0  0  0
  139.8540   69.7780  225.4470 C   0  0  0  0  0  0  0  0  0  0  0  0
  139.6630   68.8450  226.4470 C   0  0  0  0  0  0  0  0  0  0  0  0
  140.1420   69.0790  227.7110 C   0  0  0  0  0  0  0  0  0  0  0  0
  139.9720   68.1890  228.7130 F   0  0  0  0  0  0  0  0  0  0  0  0
  140.8200   70.2610  227.9820 C   0  0  0  0  0  0  0  0  0  0  0  0
  141.0270   71.2210  226.9920 C   0  0  0  0  0  0  0  0  0  0  0  0
  140.5390   70.9640  225.7310 C   0  0  0  0  0  0  0  0  0  0  0  0
  140.7150   71.8610  224.7430 N   0  0  0  0  0  0  0  0  0  0  0  0
  142.3151   79.9360  221.8074 H   0  0  0  0  0  0  0  0  0  0  0  0
  142.3850   78.5380  220.6817 H   0  0  0  0  0  0  0  0  0  0  0  0
  140.9514   79.6203  220.6817 H   0  0  0  0  0  0  0  0  0  0  0  0
  140.0377   78.6229  222.5023 H   0  0  0  0  0  0  0  0  0  0  0  0
  141.1163   78.2989  224.4745 H   0  0  0  0  0  0  0  0  0  0  0  0
  142.5874   77.6279  223.6921 H   0  0  0  0  0  0  0  0  0  0  0  0
  142.2994   79.4009  223.6921 H   0  0  0  0  0  0  0  0  0  0  0  0
  141.9780   76.4930  221.6480 H   0  0  0  0  0  0  0  0  0  0  0  0
  139.1369   74.6438  220.4853 H   0  0  0  0  0  0  0  0  0  0  0  0
  140.9095   74.6005  220.8793 H   0  0  0  0  0  0  0  0  0  0  0  0
  138.8920   73.9640  223.0390 H   0  0  0  0  0  0  0  0  0  0  0  0
  139.2102   70.3538  222.1446 H   0  0  0  0  0  0  0  0  0  0  0  0
  138.8466   68.6560  223.9089 H   0  0  0  0  0  0  0  0  0  0  0  0
  139.1248   67.9107  226.2292 H   0  0  0  0  0  0  0  0  0  0  0  0
  141.2011   70.4432  228.9977 H   0  0  0  0  0  0  0  0  0  0  0  0
  141.5640   72.1554  227.2122 H   0  0  0  0  0  0  0  0  0  0  0  0
  1  2  1  0
  2  3  1  0
  2  4  1  0
  4  5  1  0
  5  6  2  0
  5  7  1  0
  7  8  1  0
  8  9  1  0
  9 10  2  0
  9 11  1  0
 11 12  2  0
 12 13  1  0
 13 14  2  0
 14 15  1  0
 15 16  2  0
 16 17  1  0
 16 18  1  0
 18 19  2  0
 19 20  1  0
 20 21  2  0
 21 11  1  0
 20 14  1  0
  1 22  1  0
  1 23  1  0
  1 24  1  0
  2 25  1  0
  3 26  1  0
  3 27  1  0
  3 28  1  0
  4 29  1  0
  7 30  1  0
  7 31  1  0
  8 32  1  0
 12 33  1  0
 13 34  1  0
 15 35  1  0
 18 36  1  0
 19 37  1  0
M  END
>  <smiles>  (14) 
CC(C)NC(=O)CNC(=O)c1ccc2cc(F)ccc2n1

>  <score_type>  (14) 
oracle

>  <origin>  (14) 
autodockgpu

>  <m_score__min__energy>  (14) 
-7.1600000000000001

>  <m_primary>  (14) 
energy

>  <rmsd>  (14) 
2.1362249580750743

>  <m_score__min__rmsd>  (14) 
2.1362249580750743

>  <meeko>  (14) 
{"free_energy": -7.15, "intermolecular_energy": -8.34, "internal_energy": -0.73, "cluster_size": 45, "cluster_id": 1, "rank_in_cluster": 3}

>  <energy>  (14) 
-7.09

>  <cluster_rmsd>  (14) 
0.29

>  <cluster>  (14) 
1

$$$$

     RDKit          3D

 37 38  0  0  0  0  0  0  0  0999 V2000
  143.6870   75.3100  219.1530 C   0  0  0  0  0  0  0  0  0  0  0  0
  143.5800   74.5780  220.4470 C   0  0  0  0  0  0  0  0  0  0  0  0
  144.5550   73.4360  220.4570 C   0  0  0  0  0  0  0  0  0  0  0  0
  142.2030   74.1050  220.6410 N   0  0  0  0  0  0  0  0  0  0  0  0
  141.1450   74.9810  220.9180 C   0  0  0  0  0  0  0  0  0  0  0  0
  141.2890   76.2240  221.0230 O   0  0  0  0  0  0  0  0  0  0  0  0
  139.7880   74.4170  221.1000 C   0  0  0  0  0  0  0  0  0  0  0  0
  139.6890   73.6000  222.3010 N   0  0  0  0  0  0  0  0  0  0  0  0
  140.2110   72.2740  222.2800 C   0  0  0  0  0  0  0  0  0  0  0  0
  140.7350   71.8870  221.1970 O   0  0  0  0  0  0  0  0  0  0  0  0
  140.1400   71.4130  223.4530 C   0  0  0  0  0  0  0  0  0  0  0  0
  139.5670   70.1630  223.3080 C   0  0  0  0  0  0  0  0  0  0  0  0
  139.4950   69.3420  224.4100 C   0  0  0  0  0  0  0  0  0  0  0  0
  139.9810   69.7440  225.6510 C   0  0  0  0  0  0  0  0  0  0  0  0
  139.9150   68.9320  226.7660 C   0  0  0  0  0  0  0  0  0  0  0  0
  140.4080   69.3680  227.9680 C   0  0  0  0  0  0  0  0  0  0  0  0
  140.3590   68.6010  229.0790 F   0  0  0  0  0  0  0  0  0  0  0  0
  140.9730   70.6350  228.0620 C   0  0  0  0  0  0  0  0  0  0  0  0
  141.0520   71.4760  226.9530 C   0  0  0  0  0  0  0  0  0  0  0  0
  140.5530   71.0160  225.7560 C   0  0  0  0  0  0  0  0  0  0  0  0
  140.6070   71.7920  224.6570 N   0  0  0  0  0  0  0  0  0  0  0  0
  143.8435   76.3809  219.3494 H   0  0  0  0  0  0  0  0  0  0  0  0
  144.5369   74.9147  218.5773 H   0  0  0  0  0  0  0  0  0  0  0  0
  142.7595   75.1745  218.5773 H   0  0  0  0  0  0  0  0  0  0  0  0
  143.8270   75.2531  221.2796 H   0  0  0  0  0  0  0  0  0  0  0  0
  144.7886   73.1624  221.4965 H   0  0  0  0  0  0  0  0  0  0  0  0
  144.1122   72.5713  219.9409 H   0  0  0  0  0  0  0  0  0  0  0  0
  145.4784   73.7377  219.9409 H   0  0  0  0  0  0  0  0  0  0  0  0
  142.0840   73.0670  220.5530 H   0  0  0  0  0  0  0  0  0  0  0  0
  139.0673   75.2447  221.1741 H   0  0  0  0  0  0  0  0  0  0  0  0
  139.5707   73.7735  220.2347 H   0  0  0  0  0  0  0  0  0  0  0  0
  139.2510   73.9490  223.1760 H   0  0  0  0  0  0  0  0  0  0  0  0
  139.1775   69.8323  222.3338 H   0  0  0  0  0  0  0  0  0  0  0  0
  139.0427   68.3445  224.3079 H   0  0  0  0  0  0  0  0  0  0  0  0
  139.4649   67.9313  226.6890 H   0  0  0  0  0  0  0  0  0  0  0  0
  141.3652   70.9804  229.0300 H   0  0  0  0  0  0  0  0  0  0  0  0
  141.4999   72.4775  227.0325 H   0  0  0  0  0  0  0  0  0  0  0  0
  1  2  1  0
  2  3  1  0
  2  4  1  0
  4  5  1  0
  5  6  2  0
  5  7  1  0
  7  8  1  0
  8  9  1  0
  9 10  2  0
  9 11  1  0
 11 12  2  0
 12 13  1  0
 13 14  2  0
 14 15  1  0
 15 16  2  0
 16 17  1  0
 16 18  1  0
 18 19  2  0
 19 20  1  0
 20 21  2  0
 21 11  1  0
 20 14  1  0
  1 22  1  0
  1 23  1  0
  1 24  1  0
  2 25  1  0
  3 26  1  0
  3 27  1  0
  3 28  1  0
  4 29  1  0
  7 30  1  0
  7 31  1  0
  8 32  1  0
 12 33  1  0
 13 34  1  0
 15 35  1  0
 18 36  1  0
 19 37  1  0
M  END
>  <smiles>  (15) 
CC(C)NC(=O)CNC(=O)c1ccc2cc(F)ccc2n1

>  <score_type>  (15) 
oracle

>  <origin>  (15) 
autodockgpu

>  <m_score__min__energy>  (15) 
-7.1600000000000001

>  <m_primary>  (15) 
energy

>  <rmsd>  (15) 
2.127110804331315

>  <m_score__min__rmsd>  (15) 
2.127110804331315

>  <meeko>  (15) 
{"free_energy": -6.23, "intermolecular_energy": -7.43, "internal_energy": -1.48, "cluster_size": 45, "cluster_id": 1, "rank_in_cluster": 36}

>  <energy>  (15) 
-7.04

>  <cluster_rmsd>  (15) 
0.3

>  <cluster>  (15) 
1

$$$$

     RDKit          3D

 37 38  0  0  0  0  0  0  0  0999 V2000
  139.8390   78.3890  223.0510 C   0  0  0  0  0  0  0  0  0  0  0  0
  141.1260   77.9500  222.4430 C   0  0  0  0  0  0  0  0  0  0  0  0
  141.4350   78.8080  221.2500 C   0  0  0  0  0  0  0  0  0  0  0  0
  141.0450   76.5310  222.0730 N   0  0  0  0  0  0  0  0  0  0  0  0
  139.9100   75.9820  221.4600 C   0  0  0  0  0  0  0  0  0  0  0  0
  138.8850   76.6530  221.1820 O   0  0  0  0  0  0  0  0  0  0  0  0
  139.9150   74.5410  221.1220 C   0  0  0  0  0  0  0  0  0  0  0  0
  139.6930   73.7020  222.2910 N   0  0  0  0  0  0  0  0  0  0  0  0
  140.3910   72.4640  222.3960 C   0  0  0  0  0  0  0  0  0  0  0  0
  141.1730   72.1700  221.4480 O   0  0  0  0  0  0  0  0  0  0  0  0
  140.2080   71.5870  223.5450 C   0  0  0  0  0  0  0  0  0  0  0  0
  139.5050   70.4100  223.3570 C   0  0  0  0  0  0  0  0  0  0  0  0
  139.3250   69.5740  224.4350 C   0  0  0  0  0  0  0  0  0  0  0  0
  139.8310   69.8880  225.6930 C   0  0  0  0  0  0  0  0  0  0  0  0
  139.6590   69.0590  226.7840 C   0  0  0  0  0  0  0  0  0  0  0  0
  140.1760   69.4090  228.0050 C   0  0  0  0  0  0  0  0  0  0  0  0
  140.0260   68.6230  229.0940 F   0  0  0  0  0  0  0  0  0  0  0  0
  140.8740   70.6040  228.1410 C   0  0  0  0  0  0  0  0  0  0  0  0
  141.0620   71.4590  227.0570 C   0  0  0  0  0  0  0  0  0  0  0  0
  140.5360   71.0870  225.8410 C   0  0  0  0  0  0  0  0  0  0  0  0
  140.6930   71.8810  224.7650 N   0  0  0  0  0  0  0  0  0  0  0  0
  139.9229   78.3604  224.1474 H   0  0  0  0  0  0  0  0  0  0  0  0
  139.6118   79.4154  222.7273 H   0  0  0  0  0  0  0  0  0  0  0  0
  139.0319   77.7153  222.7273 H   0  0  0  0  0  0  0  0  0  0  0  0
  141.9414   78.0644  223.1724 H   0  0  0  0  0  0  0  0  0  0  0  0
  141.7896   79.7927  221.5885 H   0  0  0  0  0  0  0  0  0  0  0  0
  142.2159   78.3256  220.6438 H   0  0  0  0  0  0  0  0  0  0  0  0
  140.5258   78.9342  220.6438 H   0  0  0  0  0  0  0  0  0  0  0  0
  141.9020   75.9720  222.3050 H   0  0  0  0  0  0  0  0  0  0  0  0
  139.1180   74.3461  220.3893 H   0  0  0  0  0  0  0  0  0  0  0  0
  140.9050   74.2935  220.7113 H   0  0  0  0  0  0  0  0  0  0  0  0
  139.0420   73.9740  223.0540 H   0  0  0  0  0  0  0  0  0  0  0  0
  139.0994   70.1487  222.3685 H   0  0  0  0  0  0  0  0  0  0  0  0
  138.7680   68.6352  224.2993 H   0  0  0  0  0  0  0  0  0  0  0  0
  139.1055   68.1149  226.6733 H   0  0  0  0  0  0  0  0  0  0  0  0
  141.2856   70.8796  229.1232 H   0  0  0  0  0  0  0  0  0  0  0  0
  141.6145   72.4034  227.1699 H   0  0  0  0  0  0  0  0  0  0  0  0
  1  2  1  0
  2  3  1  0
  2  4  1  0
  4  5  1  0
  5  6  2  0
  5  7  1  0
  7  8  1  0
  8  9  1  0
  9 10  2  0
  9 11  1  0
 11 12  2  0
 12 13  1  0
 13 14  2  0
 14 15  1  0
 15 16  2  0
 16 17  1  0
 16 18  1  0
 18 19  2  0
 19 20  1  0
 20 21  2  0
 21 11  1  0
 20 14  1  0
  1 22  1  0
  1 23  1  0
  1 24  1  0
  2 25  1  0
  3 26  1  0
  3 27  1  0
  3 28  1  0
  4 29  1  0
  7 30  1  0
  7 31  1  0
  8 32  1  0
 12 33  1  0
 13 34  1  0
 15 35  1  0
 18 36  1  0
 19 37  1  0
M  END
>  <smiles>  (16) 
CC(C)NC(=O)CNC(=O)c1ccc2cc(F)ccc2n1

>  <score_type>  (16) 
oracle

>  <origin>  (16) 
autodockgpu

>  <m_score__min__energy>  (16) 
-7.1600000000000001

>  <m_primary>  (16) 
energy

>  <rmsd>  (16) 
2.329347277367099

>  <m_score__min__rmsd>  (16) 
2.329347277367099

>  <meeko>  (16) 
{"free_energy": -6.92, "intermolecular_energy": -8.11, "internal_energy": -0.59, "cluster_size": 45, "cluster_id": 1, "rank_in_cluster": 18}

>  <energy>  (16) 
-7.03

>  <cluster_rmsd>  (16) 
0.29

>  <cluster>  (16) 
1

$$$$

     RDKit          3D

 37 38  0  0  0  0  0  0  0  0999 V2000
  141.7550   79.1350  221.3360 C   0  0  0  0  0  0  0  0  0  0  0  0
  141.0650   78.2800  222.3430 C   0  0  0  0  0  0  0  0  0  0  0  0
  141.7660   78.3990  223.6650 C   0  0  0  0  0  0  0  0  0  0  0  0
  141.0340   76.8870  221.8780 N   0  0  0  0  0  0  0  0  0  0  0  0
  139.8380   76.1680  221.7510 C   0  0  0  0  0  0  0  0  0  0  0  0
  138.7110   76.6520  222.0220 O   0  0  0  0  0  0  0  0  0  0  0  0
  139.9010   74.7670  221.2750 C   0  0  0  0  0  0  0  0  0  0  0  0
  139.6460   73.8130  222.3450 N   0  0  0  0  0  0  0  0  0  0  0  0
  140.4840   72.6660  222.4620 C   0  0  0  0  0  0  0  0  0  0  0  0
  141.4120   72.5520  221.6130 O   0  0  0  0  0  0  0  0  0  0  0  0
  140.2750   71.6800  223.5130 C   0  0  0  0  0  0  0  0  0  0  0  0
  139.6120   70.5110  223.1850 C   0  0  0  0  0  0  0  0  0  0  0  0
  139.4090   69.5720  224.1700 C   0  0  0  0  0  0  0  0  0  0  0  0
  139.8520   69.7760  225.4730 C   0  0  0  0  0  0  0  0  0  0  0  0
  139.6550   68.8440  226.4730 C   0  0  0  0  0  0  0  0  0  0  0  0
  140.1090   69.0870  227.7430 C   0  0  0  0  0  0  0  0  0  0  0  0
  139.9340   68.1980  228.7450 F   0  0  0  0  0  0  0  0  0  0  0  0
  140.7690   70.2790  228.0230 C   0  0  0  0  0  0  0  0  0  0  0  0
  140.9810   71.2380  227.0330 C   0  0  0  0  0  0  0  0  0  0  0  0
  140.5180   70.9710  225.7650 C   0  0  0  0  0  0  0  0  0  0  0  0
  140.7000   71.8670  224.7770 N   0  0  0  0  0  0  0  0  0  0  0  0
  142.3648   79.8907  221.8528 H   0  0  0  0  0  0  0  0  0  0  0  0
  142.4037   78.5086  220.7060 H   0  0  0  0  0  0  0  0  0  0  0  0
  141.0058   79.6368  220.7060 H   0  0  0  0  0  0  0  0  0  0  0  0
  140.0259   78.6177  222.4705 H   0  0  0  0  0  0  0  0  0  0  0  0
  141.0368   78.2752  224.4792 H   0  0  0  0  0  0  0  0  0  0  0  0
  142.5378   77.6190  223.7423 H   0  0  0  0  0  0  0  0  0  0  0  0
  142.2372   79.3900  223.7423 H   0  0  0  0  0  0  0  0  0  0  0  0
  141.9760   76.4850  221.6530 H   0  0  0  0  0  0  0  0  0  0  0  0
  139.1468   74.6259  220.4868 H   0  0  0  0  0  0  0  0  0  0  0  0
  140.9163   74.5843  220.8931 H   0  0  0  0  0  0  0  0  0  0  0  0
  138.8730   73.9370  223.0280 H   0  0  0  0  0  0  0  0  0  0  0  0
  139.2550   70.3360  222.1594 H   0  0  0  0  0  0  0  0  0  0  0  0
  138.8840   68.6379  223.9214 H   0  0  0  0  0  0  0  0  0  0  0  0
  139.1315   67.9028  226.2492 H   0  0  0  0  0  0  0  0  0  0  0  0
  141.1305   70.4687  229.0444 H   0  0  0  0  0  0  0  0  0  0  0  0
  141.5027   72.1797  227.2590 H   0  0  0  0  0  0  0  0  0  0  0  0
  1  2  1  0
  2  3  1  0
  2  4  1  0
  4  5  1  0
  5  6  2  0
  5  7  1  0
  7  8  1  0
  8  9  1  0
  9 10  2  0
  9 11  1  0
 11 12  2  0
 12 13  1  0
 13 14  2  0
 14 15  1  0
 15 16  2  0
 16 17  1  0
 16 18  1  0
 18 19  2  0
 19 20  1  0
 20 21  2  0
 21 11  1  0
 20 14  1  0
  1 22  1  0
  1 23  1  0
  1 24  1  0
  2 25  1  0
  3 26  1  0
  3 27  1  0
  3 28  1  0
  4 29  1  0
  7 30  1  0
  7 31  1  0
  8 32  1  0
 12 33  1  0
 13 34  1  0
 15 35  1  0
 18 36  1  0
 19 37  1  0
M  END
>  <smiles>  (17) 
CC(C)NC(=O)CNC(=O)c1ccc2cc(F)ccc2n1

>  <score_type>  (17) 
oracle

>  <origin>  (17) 
autodockgpu

>  <m_score__min__energy>  (17) 
-7.1600000000000001

>  <m_primary>  (17) 
energy

>  <rmsd>  (17) 
2.140040076735934

>  <m_score__min__rmsd>  (17) 
2.140040076735934

>  <meeko>  (17) 
{"free_energy": -7.14, "intermolecular_energy": -8.33, "internal_energy": -0.73, "cluster_size": 45, "cluster_id": 1, "rank_in_cluster": 7}

>  <energy>  (17) 
-6.99

>  <cluster_rmsd>  (17) 
0.46

>  <cluster>  (17) 
1

$$$$

     RDKit          3D

 37 38  0  0  0  0  0  0  0  0999 V2000
  143.5260   75.8910  219.3670 C   0  0  0  0  0  0  0  0  0  0  0  0
  143.4680   74.8760  220.4560 C   0  0  0  0  0  0  0  0  0  0  0  0
  144.5050   73.8190  220.2120 C   0  0  0  0  0  0  0  0  0  0  0  0
  142.1210   74.2950  220.5250 N   0  0  0  0  0  0  0  0  0  0  0  0
  141.0520   74.9560  221.1460 C   0  0  0  0  0  0  0  0  0  0  0  0
  141.1610   76.0840  221.6880 O   0  0  0  0  0  0  0  0  0  0  0  0
  139.7270   74.2950  221.1690 C   0  0  0  0  0  0  0  0  0  0  0  0
  139.5530   73.4560  222.3460 N   0  0  0  0  0  0  0  0  0  0  0  0
  140.3470   72.2790  222.4790 C   0  0  0  0  0  0  0  0  0  0  0  0
  141.1660   72.0380  221.5470 O   0  0  0  0  0  0  0  0  0  0  0  0
  140.2150   71.4040  223.6360 C   0  0  0  0  0  0  0  0  0  0  0  0
  139.5760   70.1890  223.4620 C   0  0  0  0  0  0  0  0  0  0  0  0
  139.4460   69.3540  224.5480 C   0  0  0  0  0  0  0  0  0  0  0  0
  139.9380   69.7070  225.8010 C   0  0  0  0  0  0  0  0  0  0  0  0
  139.8150   68.8800  226.9000 C   0  0  0  0  0  0  0  0  0  0  0  0
  140.3160   69.2680  228.1160 C   0  0  0  0  0  0  0  0  0  0  0  0
  140.2130   68.4860  229.2120 F   0  0  0  0  0  0  0  0  0  0  0  0
  140.9490   70.5000  228.2390 C   0  0  0  0  0  0  0  0  0  0  0  0
  141.0880   71.3550  227.1460 C   0  0  0  0  0  0  0  0  0  0  0  0
  140.5780   70.9440  225.9350 C   0  0  0  0  0  0  0  0  0  0  0  0
  140.6880   71.7350  224.8520 N   0  0  0  0  0  0  0  0  0  0  0  0
  143.5835   76.8977  219.8067 H   0  0  0  0  0  0  0  0  0  0  0  0
  144.4153   75.7112  218.7451 H   0  0  0  0  0  0  0  0  0  0  0  0
  142.6220   75.8136  218.7451 H   0  0  0  0  0  0  0  0  0  0  0  0
  143.6820   75.3543  221.4232 H   0  0  0  0  0  0  0  0  0  0  0  0
  144.8765   73.4404  221.1757 H   0  0  0  0  0  0  0  0  0  0  0  0
  144.0582   72.9919  219.6407 H   0  0  0  0  0  0  0  0  0  0  0  0
  145.3405   74.2499  219.6407 H   0  0  0  0  0  0  0  0  0  0  0  0
  142.0310   73.3530  220.0720 H   0  0  0  0  0  0  0  0  0  0  0  0
  138.9449   75.0685  221.1662 H   0  0  0  0  0  0  0  0  0  0  0  0
  139.6549   73.6506  220.2805 H   0  0  0  0  0  0  0  0  0  0  0  0
  138.8700   73.6830  223.0950 H   0  0  0  0  0  0  0  0  0  0  0  0
  139.1809   69.8972  222.4778 H   0  0  0  0  0  0  0  0  0  0  0  0
  138.9413   68.3847  224.4228 H   0  0  0  0  0  0  0  0  0  0  0  0
  139.3132   67.9063  226.7996 H   0  0  0  0  0  0  0  0  0  0  0  0
  141.3479   70.8061  229.2174 H   0  0  0  0  0  0  0  0  0  0  0  0
  141.5900   72.3284  227.2484 H   0  0  0  0  0  0  0  0  0  0  0  0
  1  2  1  0
  2  3  1  0
  2  4  1  0
  4  5  1  0
  5  6  2  0
  5  7  1  0
  7  8  1  0
  8  9  1  0
  9 10  2  0
  9 11  1  0
 11 12  2  0
 12 13  1  0
 13 14  2  0
 14 15  1  0
 15 16  2  0
 16 17  1  0
 16 18  1  0
 18 19  2  0
 19 20  1  0
 20 21  2  0
 21 11  1  0
 20 14  1  0
  1 22  1  0
  1 23  1  0
  1 24  1  0
  2 25  1  0
  3 26  1  0
  3 27  1  0
  3 28  1  0
  4 29  1  0
  7 30  1  0
  7 31  1  0
  8 32  1  0
 12 33  1  0
 13 34  1  0
 15 35  1  0
 18 36  1  0
 19 37  1  0
M  END
>  <smiles>  (18) 
CC(C)NC(=O)CNC(=O)c1ccc2cc(F)ccc2n1

>  <score_type>  (18) 
oracle

>  <origin>  (18) 
autodockgpu

>  <m_score__min__energy>  (18) 
-7.1600000000000001

>  <m_primary>  (18) 
energy

>  <rmsd>  (18) 
2.027924125539291

>  <m_score__min__rmsd>  (18) 
2.027924125539291

>  <meeko>  (18) 
{"free_energy": -6.42, "intermolecular_energy": -7.61, "internal_energy": -1.37, "cluster_size": 45, "cluster_id": 1, "rank_in_cluster": 23}

>  <energy>  (18) 
-6.92

>  <cluster_rmsd>  (18) 
0.35

>  <cluster>  (18) 
1

$$$$

     RDKit          3D

 37 38  0  0  0  0  0  0  0  0999 V2000
  143.6940   75.2560  219.1800 C   0  0  0  0  0  0  0  0  0  0  0  0
  143.5810   74.5270  220.4750 C   0  0  0  0  0  0  0  0  0  0  0  0
  144.5440   73.3760  220.4880 C   0  0  0  0  0  0  0  0  0  0  0  0
  142.1990   74.0680  220.6700 N   0  0  0  0  0  0  0  0  0  0  0  0
  141.1430   74.9580  220.9080 C   0  0  0  0  0  0  0  0  0  0  0  0
  141.2920   76.2030  220.9730 O   0  0  0  0  0  0  0  0  0  0  0  0
  139.7810   74.4060  221.0930 C   0  0  0  0  0  0  0  0  0  0  0  0
  139.6780   73.5930  222.2970 N   0  0  0  0  0  0  0  0  0  0  0  0
  140.1970   72.2650  222.2800 C   0  0  0  0  0  0  0  0  0  0  0  0
  140.7220   71.8750  221.1990 O   0  0  0  0  0  0  0  0  0  0  0  0
  140.1210   71.4080  223.4550 C   0  0  0  0  0  0  0  0  0  0  0  0
  139.5480   70.1570  223.3110 C   0  0  0  0  0  0  0  0  0  0  0  0
  139.4710   69.3390  224.4140 C   0  0  0  0  0  0  0  0  0  0  0  0
  139.9530   69.7430  225.6550 C   0  0  0  0  0  0  0  0  0  0  0  0
  139.8840   68.9340  226.7720 C   0  0  0  0  0  0  0  0  0  0  0  0
  140.3730   69.3730  227.9750 C   0  0  0  0  0  0  0  0  0  0  0  0
  140.3200   68.6090  229.0880 F   0  0  0  0  0  0  0  0  0  0  0  0
  140.9390   70.6390  228.0680 C   0  0  0  0  0  0  0  0  0  0  0  0
  141.0230   71.4780  226.9570 C   0  0  0  0  0  0  0  0  0  0  0  0
  140.5260   71.0150  225.7590 C   0  0  0  0  0  0  0  0  0  0  0  0
  140.5850   71.7890  224.6590 N   0  0  0  0  0  0  0  0  0  0  0  0
  143.8598   76.3258  219.3747 H   0  0  0  0  0  0  0  0  0  0  0  0
  144.5403   74.8525  218.6047 H   0  0  0  0  0  0  0  0  0  0  0  0
  142.7652   75.1277  218.6047 H   0  0  0  0  0  0  0  0  0  0  0  0
  143.8359   75.2012  221.3060 H   0  0  0  0  0  0  0  0  0  0  0  0
  144.7735   73.1017  221.5282 H   0  0  0  0  0  0  0  0  0  0  0  0
  144.0933   72.5150  219.9727 H   0  0  0  0  0  0  0  0  0  0  0  0
  145.4710   73.6677  219.9727 H   0  0  0  0  0  0  0  0  0  0  0  0
  142.0760   73.0280  220.6150 H   0  0  0  0  0  0  0  0  0  0  0  0
  139.0673   75.2398  221.1660 H   0  0  0  0  0  0  0  0  0  0  0  0
  139.5563   73.7625  220.2296 H   0  0  0  0  0  0  0  0  0  0  0  0
  139.2380   73.9450  223.1700 H   0  0  0  0  0  0  0  0  0  0  0  0
  139.1626   69.8240  222.3360 H   0  0  0  0  0  0  0  0  0  0  0  0
  139.0176   68.3419  224.3126 H   0  0  0  0  0  0  0  0  0  0  0  0
  139.4346   67.9328  226.6961 H   0  0  0  0  0  0  0  0  0  0  0  0
  141.3282   70.9860  229.0366 H   0  0  0  0  0  0  0  0  0  0  0  0
  141.4725   72.4789  227.0353 H   0  0  0  0  0  0  0  0  0  0  0  0
  1  2  1  0
  2  3  1  0
  2  4  1  0
  4  5  1  0
  5  6  2  0
  5  7  1  0
  7  8  1  0
  8  9  1  0
  9 10  2  0
  9 11  1  0
 11 12  2  0
 12 13  1  0
 13 14  2  0
 14 15  1  0
 15 16  2  0
 16 17  1  0
 16 18  1  0
 18 19  2  0
 19 20  1  0
 20 21  2  0
 21 11  1  0
 20 14  1  0
  1 22  1  0
  1 23  1  0
  1 24  1  0
  2 25  1  0
  3 26  1  0
  3 27  1  0
  3 28  1  0
  4 29  1  0
  7 30  1  0
  7 31  1  0
  8 32  1  0
 12 33  1  0
 13 34  1  0
 15 35  1  0
 18 36  1  0
 19 37  1  0
M  END
>  <smiles>  (19) 
CC(C)NC(=O)CNC(=O)c1ccc2cc(F)ccc2n1

>  <score_type>  (19) 
oracle

>  <origin>  (19) 
autodockgpu

>  <m_score__min__energy>  (19) 
-7.1600000000000001

>  <m_primary>  (19) 
energy

>  <rmsd>  (19) 
2.137980578888693

>  <m_score__min__rmsd>  (19) 
2.137980578888693

>  <meeko>  (19) 
{"free_energy": -6.24, "intermolecular_energy": -7.43, "internal_energy": -1.48, "cluster_size": 45, "cluster_id": 1, "rank_in_cluster": 35}

>  <energy>  (19) 
-6.83

>  <cluster_rmsd>  (19) 
0.43

>  <cluster>  (19) 
1

$$$$

     RDKit          3D

 37 38  0  0  0  0  0  0  0  0999 V2000
  143.5440   75.8930  219.3710 C   0  0  0  0  0  0  0  0  0  0  0  0
  143.4880   74.8760  220.4590 C   0  0  0  0  0  0  0  0  0  0  0  0
  144.5260   73.8210  220.2120 C   0  0  0  0  0  0  0  0  0  0  0  0
  142.1410   74.2940  220.5280 N   0  0  0  0  0  0  0  0  0  0  0  0
  141.0660   74.9660  221.1240 C   0  0  0  0  0  0  0  0  0  0  0  0
  141.1680   76.1070  221.6410 O   0  0  0  0  0  0  0  0  0  0  0  0
  139.7420   74.3030  221.1500 C   0  0  0  0  0  0  0  0  0  0  0  0
  139.5690   73.4690  222.3310 N   0  0  0  0  0  0  0  0  0  0  0  0
  140.3260   72.2670  222.4440 C   0  0  0  0  0  0  0  0  0  0  0  0
  141.1140   71.9990  221.4930 O   0  0  0  0  0  0  0  0  0  0  0  0
  140.1940   71.3950  223.6040 C   0  0  0  0  0  0  0  0  0  0  0  0
  139.5550   70.1800  223.4340 C   0  0  0  0  0  0  0  0  0  0  0  0
  139.4240   69.3490  224.5230 C   0  0  0  0  0  0  0  0  0  0  0  0
  139.9160   69.7060  225.7750 C   0  0  0  0  0  0  0  0  0  0  0  0
  139.7920   68.8830  226.8770 C   0  0  0  0  0  0  0  0  0  0  0  0
  140.2920   69.2750  228.0920 C   0  0  0  0  0  0  0  0  0  0  0  0
  140.1880   68.4970  229.1900 F   0  0  0  0  0  0  0  0  0  0  0  0
  140.9260   70.5080  228.2100 C   0  0  0  0  0  0  0  0  0  0  0  0
  141.0650   71.3580  227.1150 C   0  0  0  0  0  0  0  0  0  0  0  0
  140.5550   70.9430  225.9050 C   0  0  0  0  0  0  0  0  0  0  0  0
  140.6660   71.7310  224.8190 N   0  0  0  0  0  0  0  0  0  0  0  0
  143.5994   76.8992  219.8121 H   0  0  0  0  0  0  0  0  0  0  0  0
  144.4338   75.7158  218.7489 H   0  0  0  0  0  0  0  0  0  0  0  0
  142.6402   75.8146  218.7489 H   0  0  0  0  0  0  0  0  0  0  0  0
  143.7023   75.3522  221.4272 H   0  0  0  0  0  0  0  0  0  0  0  0
  144.8994   73.4415  221.1746 H   0  0  0  0  0  0  0  0  0  0  0  0
  144.0796   72.9941  219.6402 H   0  0  0  0  0  0  0  0  0  0  0  0
  145.3600   74.2539  219.6402 H   0  0  0  0  0  0  0  0  0  0  0  0
  142.0570   73.3420  220.0960 H   0  0  0  0  0  0  0  0  0  0  0  0
  138.9587   75.0752  221.1435 H   0  0  0  0  0  0  0  0  0  0  0  0
  139.6711   73.6543  220.2645 H   0  0  0  0  0  0  0  0  0  0  0  0
  138.9110   73.7180  223.0960 H   0  0  0  0  0  0  0  0  0  0  0  0
  139.1605   69.8848  222.4505 H   0  0  0  0  0  0  0  0  0  0  0  0
  138.9185   68.3797  224.4011 H   0  0  0  0  0  0  0  0  0  0  0  0
  139.2901   67.9090  226.7796 H   0  0  0  0  0  0  0  0  0  0  0  0
  141.3253   70.8177  229.1871 H   0  0  0  0  0  0  0  0  0  0  0  0
  141.5672   72.3317  227.2140 H   0  0  0  0  0  0  0  0  0  0  0  0
  1  2  1  0
  2  3  1  0
  2  4  1  0
  4  5  1  0
  5  6  2  0
  5  7  1  0
  7  8  1  0
  8  9  1  0
  9 10  2  0
  9 11  1  0
 11 12  2  0
 12 13  1  0
 13 14  2  0
 14 15  1  0
 15 16  2  0
 16 17  1  0
 16 18  1  0
 18 19  2  0
 19 20  1  0
 20 21  2  0
 21 11  1  0
 20 14  1  0
  1 22  1  0
  1 23  1  0
  1 24  1  0
  2 25  1  0
  3 26  1  0
  3 27  1  0
  3 28  1  0
  4 29  1  0
  7 30  1  0
  7 31  1  0
  8 32  1  0
 12 33  1  0
 13 34  1  0
 15 35  1  0
 18 36  1  0
 19 37  1  0
M  END
>  <smiles>  (20) 
CC(C)NC(=O)CNC(=O)c1ccc2cc(F)ccc2n1

>  <score_type>  (20) 
oracle

>  <origin>  (20) 
autodockgpu

>  <m_score__min__energy>  (20) 
-7.1600000000000001

>  <m_primary>  (20) 
energy

>  <rmsd>  (20) 
2.028788565784443

>  <m_score__min__rmsd>  (20) 
2.028788565784443

>  <meeko>  (20) 
{"free_energy": -6.4, "intermolecular_energy": -7.59, "internal_energy": -1.39, "cluster_size": 45, "cluster_id": 1, "rank_in_cluster": 26}

>  <energy>  (20) 
-6.79

>  <cluster_rmsd>  (20) 
0.46

>  <cluster>  (20) 
1

$$$$

     RDKit          3D

 37 38  0  0  0  0  0  0  0  0999 V2000
  143.7000   75.6410  219.2710 C   0  0  0  0  0  0  0  0  0  0  0  0
  143.6140   74.7450  220.4590 C   0  0  0  0  0  0  0  0  0  0  0  0
  144.6120   73.6330  220.3200 C   0  0  0  0  0  0  0  0  0  0  0  0
  142.2480   74.2230  220.5930 N   0  0  0  0  0  0  0  0  0  0  0  0
  141.1710   75.0350  220.9730 C   0  0  0  0  0  0  0  0  0  0  0  0
  141.2880   76.2600  221.2270 O   0  0  0  0  0  0  0  0  0  0  0  0
  139.8270   74.4230  221.0840 C   0  0  0  0  0  0  0  0  0  0  0  0
  139.6940   73.6060  222.2820 N   0  0  0  0  0  0  0  0  0  0  0  0
  140.2540   72.2960  222.2900 C   0  0  0  0  0  0  0  0  0  0  0  0
  140.8420   71.9230  221.2360 O   0  0  0  0  0  0  0  0  0  0  0  0
  140.1510   71.4350  223.4610 C   0  0  0  0  0  0  0  0  0  0  0  0
  139.5480   70.2000  223.3080 C   0  0  0  0  0  0  0  0  0  0  0  0
  139.4440   69.3790  224.4080 C   0  0  0  0  0  0  0  0  0  0  0  0
  139.9290   69.7660  225.6540 C   0  0  0  0  0  0  0  0  0  0  0  0
  139.8330   68.9540  226.7660 C   0  0  0  0  0  0  0  0  0  0  0  0
  140.3250   69.3760  227.9750 C   0  0  0  0  0  0  0  0  0  0  0  0
  140.2470   68.6090  229.0830 F   0  0  0  0  0  0  0  0  0  0  0  0
  140.9220   70.6280  228.0760 C   0  0  0  0  0  0  0  0  0  0  0  0
  141.0330   71.4690  226.9690 C   0  0  0  0  0  0  0  0  0  0  0  0
  140.5330   71.0230  225.7660 C   0  0  0  0  0  0  0  0  0  0  0  0
  140.6170   71.8000  224.6700 N   0  0  0  0  0  0  0  0  0  0  0  0
  143.8001   76.6843  219.6050 H   0  0  0  0  0  0  0  0  0  0  0  0
  144.5757   75.3642  218.6656 H   0  0  0  0  0  0  0  0  0  0  0  0
  142.7876   75.5358  218.6656 H   0  0  0  0  0  0  0  0  0  0  0  0
  143.8512   75.3113  221.3717 H   0  0  0  0  0  0  0  0  0  0  0  0
  144.9200   73.2898  221.3187 H   0  0  0  0  0  0  0  0  0  0  0  0
  144.1554   72.7971  219.7697 H   0  0  0  0  0  0  0  0  0  0  0  0
  145.4922   73.9969  219.7697 H   0  0  0  0  0  0  0  0  0  0  0  0
  142.1520   73.2000  220.3810 H   0  0  0  0  0  0  0  0  0  0  0  0
  139.0740   75.2242  221.1158 H   0  0  0  0  0  0  0  0  0  0  0  0
  139.6790   73.7704  220.2110 H   0  0  0  0  0  0  0  0  0  0  0  0
  139.2030   73.9430  223.1330 H   0  0  0  0  0  0  0  0  0  0  0  0
  139.1602   69.8809  222.3293 H   0  0  0  0  0  0  0  0  0  0  0  0
  138.9664   68.3940  224.2998 H   0  0  0  0  0  0  0  0  0  0  0  0
  139.3600   67.9644  226.6824 H   0  0  0  0  0  0  0  0  0  0  0  0
  141.3143   70.9615  229.0480 H   0  0  0  0  0  0  0  0  0  0  0  0
  141.5057   72.4586  227.0543 H   0  0  0  0  0  0  0  0  0  0  0  0
  1  2  1  0
  2  3  1  0
  2  4  1  0
  4  5  1  0
  5  6  2  0
  5  7  1  0
  7  8  1  0
  8  9  1  0
  9 10  2  0
  9 11  1  0
 11 12  2  0
 12 13  1  0
 13 14  2  0
 14 15  1  0
 15 16  2  0
 16 17  1  0
 16 18  1  0
 18 19  2  0
 19 20  1  0
 20 21  2  0
 21 11  1  0
 20 14  1  0
  1 22  1  0
  1 23  1  0
  1 24  1  0
  2 25  1  0
  3 26  1  0
  3 27  1  0
  3 28  1  0
  4 29  1  0
  7 30  1  0
  7 31  1  0
  8 32  1  0
 12 33  1  0
 13 34  1  0
 15 35  1  0
 18 36  1  0
 19 37  1  0
M  END
>  <smiles>  (21) 
CC(C)NC(=O)CNC(=O)c1ccc2cc(F)ccc2n1

>  <score_type>  (21) 
oracle

>  <origin>  (21) 
autodockgpu

>  <m_score__min__energy>  (21) 
-7.1600000000000001

>  <m_primary>  (21) 
energy

>  <rmsd>  (21) 
2.105485134639443

>  <m_score__min__rmsd>  (21) 
2.105485134639443

>  <meeko>  (21) 
{"free_energy": -6.27, "intermolecular_energy": -7.46, "internal_energy": -1.46, "cluster_size": 45, "cluster_id": 1, "rank_in_cluster": 32}

>  <energy>  (21) 
-6.43

>  <cluster_rmsd>  (21) 
1.92

>  <cluster>  (21) 
1

$$$$

     RDKit          3D

 37 38  0  0  0  0  0  0  0  0999 V2000
  143.5640   75.8780  219.3750 C   0  0  0  0  0  0  0  0  0  0  0  0
  143.4990   74.8570  220.4590 C   0  0  0  0  0  0  0  0  0  0  0  0
  144.5280   73.7940  220.2070 C   0  0  0  0  0  0  0  0  0  0  0  0
  142.1470   74.2860  220.5260 N   0  0  0  0  0  0  0  0  0  0  0  0
  141.0810   74.9600  221.1390 C   0  0  0  0  0  0  0  0  0  0  0  0
  141.1970   76.0910  221.6720 O   0  0  0  0  0  0  0  0  0  0  0  0
  139.7520   74.3080  221.1610 C   0  0  0  0  0  0  0  0  0  0  0  0
  139.5700   73.4730  222.3400 N   0  0  0  0  0  0  0  0  0  0  0  0
  140.3470   72.2860  222.4720 C   0  0  0  0  0  0  0  0  0  0  0  0
  141.1590   72.0310  221.5380 O   0  0  0  0  0  0  0  0  0  0  0  0
  140.2060   71.4140  223.6300 C   0  0  0  0  0  0  0  0  0  0  0  0
  139.5660   70.2000  223.4560 C   0  0  0  0  0  0  0  0  0  0  0  0
  139.4270   69.3690  224.5440 C   0  0  0  0  0  0  0  0  0  0  0  0
  139.9140   69.7240  225.7990 C   0  0  0  0  0  0  0  0  0  0  0  0
  139.7830   68.9010  226.9000 C   0  0  0  0  0  0  0  0  0  0  0  0
  140.2780   69.2910  228.1170 C   0  0  0  0  0  0  0  0  0  0  0  0
  140.1660   68.5120  229.2150 F   0  0  0  0  0  0  0  0  0  0  0  0
  140.9130   70.5220  228.2400 C   0  0  0  0  0  0  0  0  0  0  0  0
  141.0600   71.3730  227.1450 C   0  0  0  0  0  0  0  0  0  0  0  0
  140.5560   70.9600  225.9330 C   0  0  0  0  0  0  0  0  0  0  0  0
  140.6740   71.7480  224.8480 N   0  0  0  0  0  0  0  0  0  0  0  0
  143.6279   76.8819  219.8202 H   0  0  0  0  0  0  0  0  0  0  0  0
  144.4524   75.6957  218.7524 H   0  0  0  0  0  0  0  0  0  0  0  0
  142.6597   75.8099  218.7524 H   0  0  0  0  0  0  0  0  0  0  0  0
  143.7171   75.3274  221.4291 H   0  0  0  0  0  0  0  0  0  0  0  0
  144.9005   73.4092  221.1678 H   0  0  0  0  0  0  0  0  0  0  0  0
  144.0735   72.9722  219.6342 H   0  0  0  0  0  0  0  0  0  0  0  0
  145.3642   74.2215  219.6342 H   0  0  0  0  0  0  0  0  0  0  0  0
  142.0520   73.3420  220.0800 H   0  0  0  0  0  0  0  0  0  0  0  0
  138.9750   75.0866  221.1546 H   0  0  0  0  0  0  0  0  0  0  0  0
  139.6774   73.6618  220.2739 H   0  0  0  0  0  0  0  0  0  0  0  0
  138.8920   73.7120  223.0910 H   0  0  0  0  0  0  0  0  0  0  0  0
  139.1770   69.9056  222.4701 H   0  0  0  0  0  0  0  0  0  0  0  0
  138.9191   68.4013  224.4192 H   0  0  0  0  0  0  0  0  0  0  0  0
  139.2792   67.9283  226.7998 H   0  0  0  0  0  0  0  0  0  0  0  0
  141.3069   70.8304  229.2197 H   0  0  0  0  0  0  0  0  0  0  0  0
  141.5639   72.3455  227.2471 H   0  0  0  0  0  0  0  0  0  0  0  0
  1  2  1  0
  2  3  1  0
  2  4  1  0
  4  5  1  0
  5  6  2  0
  5  7  1  0
  7  8  1  0
  8  9  1  0
  9 10  2  0
  9 11  1  0
 11 12  2  0
 12 13  1  0
 13 14  2  0
 14 15  1  0
 15 16  2  0
 16 17  1  0
 16 18  1  0
 18 19  2  0
 19 20  1  0
 20 21  2  0
 21 11  1  0
 20 14  1  0
  1 22  1  0
  1 23  1  0
  1 24  1  0
  2 25  1  0
  3 26  1  0
  3 27  1  0
  3 28  1  0
  4 29  1  0
  7 30  1  0
  7 31  1  0
  8 32  1  0
 12 33  1  0
 13 34  1  0
 15 35  1  0
 18 36  1  0
 19 37  1  0
M  END
>  <smiles>  (22) 
CC(C)NC(=O)CNC(=O)c1ccc2cc(F)ccc2n1

>  <score_type>  (22) 
oracle

>  <origin>  (22) 
autodockgpu

>  <m_score__min__energy>  (22) 
-7.1600000000000001

>  <m_primary>  (22) 
energy

>  <rmsd>  (22) 
2.0469908346544474

>  <m_score__min__rmsd>  (22) 
2.0469908346544474

>  <meeko>  (22) 
{"free_energy": -6.42, "intermolecular_energy": -7.61, "internal_energy": -1.38, "cluster_size": 45, "cluster_id": 1, "rank_in_cluster": 24}

>  <energy>  (22) 
-6.42

>  <cluster_rmsd>  (22) 
1.92

>  <cluster>  (22) 
1

$$$$

     RDKit          3D

 37 38  0  0  0  0  0  0  0  0999 V2000
  141.7850   79.0850  221.3680 C   0  0  0  0  0  0  0  0  0  0  0  0
  141.0820   78.2330  222.3690 C   0  0  0  0  0  0  0  0  0  0  0  0
  141.7950   78.3170  223.6870 C   0  0  0  0  0  0  0  0  0  0  0  0
  141.0160   76.8480  221.8860 N   0  0  0  0  0  0  0  0  0  0  0  0
  139.8060   76.1470  221.7870 C   0  0  0  0  0  0  0  0  0  0  0  0
  138.6950   76.6430  222.1020 O   0  0  0  0  0  0  0  0  0  0  0  0
  139.8330   74.7520  221.2900 C   0  0  0  0  0  0  0  0  0  0  0  0
  139.5810   73.7870  222.3510 N   0  0  0  0  0  0  0  0  0  0  0  0
  140.4510   72.6670  222.4870 C   0  0  0  0  0  0  0  0  0  0  0  0
  141.4040   72.5840  221.6610 O   0  0  0  0  0  0  0  0  0  0  0  0
  140.2460   71.6710  223.5300 C   0  0  0  0  0  0  0  0  0  0  0  0
  139.5640   70.5140  223.1990 C   0  0  0  0  0  0  0  0  0  0  0  0
  139.3640   69.5670  224.1770 C   0  0  0  0  0  0  0  0  0  0  0  0
  139.8290   69.7510  225.4750 C   0  0  0  0  0  0  0  0  0  0  0  0
  139.6370   68.8100  226.4670 C   0  0  0  0  0  0  0  0  0  0  0  0
  140.1130   69.0330  227.7330 C   0  0  0  0  0  0  0  0  0  0  0  0
  139.9420   68.1360  228.7280 F   0  0  0  0  0  0  0  0  0  0  0  0
  140.7920   70.2140  228.0160 C   0  0  0  0  0  0  0  0  0  0  0  0
  141.0010   71.1810  227.0340 C   0  0  0  0  0  0  0  0  0  0  0  0
  140.5140   70.9350  225.7700 C   0  0  0  0  0  0  0  0  0  0  0  0
  140.6920   71.8400  224.7890 N   0  0  0  0  0  0  0  0  0  0  0  0
  142.4011   79.8317  221.8903 H   0  0  0  0  0  0  0  0  0  0  0  0
  142.4291   78.4544  220.7375 H   0  0  0  0  0  0  0  0  0  0  0  0
  141.0435   79.5976  220.7375 H   0  0  0  0  0  0  0  0  0  0  0  0
  140.0522   78.5936  222.5087 H   0  0  0  0  0  0  0  0  0  0  0  0
  141.0647   78.2310  224.5051 H   0  0  0  0  0  0  0  0  0  0  0  0
  142.5265   77.4988  223.7609 H   0  0  0  0  0  0  0  0  0  0  0  0
  142.3163   79.2828  223.7609 H   0  0  0  0  0  0  0  0  0  0  0  0
  141.9440   76.4350  221.6240 H   0  0  0  0  0  0  0  0  0  0  0  0
  139.0609   74.6367  220.5150 H   0  0  0  0  0  0  0  0  0  0  0  0
  140.8370   74.5561  220.8857 H   0  0  0  0  0  0  0  0  0  0  0  0
  138.7860   73.8850  223.0140 H   0  0  0  0  0  0  0  0  0  0  0  0
  139.1899   70.3546  222.1769 H   0  0  0  0  0  0  0  0  0  0  0  0
  138.8235   68.6423  223.9264 H   0  0  0  0  0  0  0  0  0  0  0  0
  139.0997   67.8773  226.2404 H   0  0  0  0  0  0  0  0  0  0  0  0
  141.1711   70.3879  229.0339 H   0  0  0  0  0  0  0  0  0  0  0  0
  141.5390   72.1129  227.2622 H   0  0  0  0  0  0  0  0  0  0  0  0
  1  2  1  0
  2  3  1  0
  2  4  1  0
  4  5  1  0
  5  6  2  0
  5  7  1  0
  7  8  1  0
  8  9  1  0
  9 10  2  0
  9 11  1  0
 11 12  2  0
 12 13  1  0
 13 14  2  0
 14 15  1  0
 15 16  2  0
 16 17  1  0
 16 18  1  0
 18 19  2  0
 19 20  1  0
 20 21  2  0
 21 11  1  0
 20 14  1  0
  1 22  1  0
  1 23  1  0
  1 24  1  0
  2 25  1  0
  3 26  1  0
  3 27  1  0
  3 28  1  0
  4 29  1  0
  7 30  1  0
  7 31  1  0
  8 32  1  0
 12 33  1  0
 13 34  1  0
 15 35  1  0
 18 36  1  0
 19 37  1  0
M  END
>  <smiles>  (23) 
CC(C)NC(=O)CNC(=O)c1ccc2cc(F)ccc2n1

>  <score_type>  (23) 
oracle

>  <origin>  (23) 
autodockgpu

>  <m_score__min__energy>  (23) 
-7.1600000000000001

>  <m_primary>  (23) 
energy

>  <rmsd>  (23) 
2.1330301778000296

>  <m_score__min__rmsd>  (23) 
2.1330301778000296

>  <meeko>  (23) 
{"free_energy": -7.14, "intermolecular_energy": -8.33, "internal_energy": -0.73, "cluster_size": 45, "cluster_id": 1, "rank_in_cluster": 9}

>  <energy>  (23) 
-6.42

>  <cluster_rmsd>  (23) 
1.92

>  <cluster>  (23) 
1

$$$$

     RDKit          3D

 37 38  0  0  0  0  0  0  0  0999 V2000
  141.6620   79.0050  221.1010 C   0  0  0  0  0  0  0  0  0  0  0  0
  140.9600   78.2150  222.1530 C   0  0  0  0  0  0  0  0  0  0  0  0
  141.5530   78.5310  223.4950 C   0  0  0  0  0  0  0  0  0  0  0  0
  141.0590   76.7820  221.8490 N   0  0  0  0  0  0  0  0  0  0  0  0
  139.9480   76.0220  221.4560 C   0  0  0  0  0  0  0  0  0  0  0  0
  138.7940   76.5020  221.3340 O   0  0  0  0  0  0  0  0  0  0  0  0
  140.1410   74.5820  221.1710 C   0  0  0  0  0  0  0  0  0  0  0  0
  139.9410   73.7570  222.3550 N   0  0  0  0  0  0  0  0  0  0  0  0
  140.4240   72.4160  222.3520 C   0  0  0  0  0  0  0  0  0  0  0  0
  141.0060   72.0240  221.3010 O   0  0  0  0  0  0  0  0  0  0  0  0
  140.2530   71.5470  223.5080 C   0  0  0  0  0  0  0  0  0  0  0  0
  139.6130   70.3350  223.3210 C   0  0  0  0  0  0  0  0  0  0  0  0
  139.4450   69.5070  224.4070 C   0  0  0  0  0  0  0  0  0  0  0  0
  139.9020   69.8630  225.6720 C   0  0  0  0  0  0  0  0  0  0  0  0
  139.7410   69.0430  226.7710 C   0  0  0  0  0  0  0  0  0  0  0  0
  140.2080   69.4340  228.0000 C   0  0  0  0  0  0  0  0  0  0  0  0
  140.0670   68.6570  229.0960 F   0  0  0  0  0  0  0  0  0  0  0  0
  140.8440   70.6630  228.1350 C   0  0  0  0  0  0  0  0  0  0  0  0
  141.0200   71.5110  227.0430 C   0  0  0  0  0  0  0  0  0  0  0  0
  140.5440   71.0970  225.8190 C   0  0  0  0  0  0  0  0  0  0  0  0
  140.6910   71.8820  224.7360 N   0  0  0  0  0  0  0  0  0  0  0  0
  142.3206   79.7462  221.5773 H   0  0  0  0  0  0  0  0  0  0  0  0
  142.2630   78.3292  220.4748 H   0  0  0  0  0  0  0  0  0  0  0  0
  140.9202   79.5224  220.4748 H   0  0  0  0  0  0  0  0  0  0  0  0
  139.8937   78.4843  222.1740 H   0  0  0  0  0  0  0  0  0  0  0  0
  140.8795   78.1721  224.2872 H   0  0  0  0  0  0  0  0  0  0  0  0
  142.5295   78.0336  223.5907 H   0  0  0  0  0  0  0  0  0  0  0  0
  141.6847   79.6189  223.5907 H   0  0  0  0  0  0  0  0  0  0  0  0
  142.0230   76.3820  221.9520 H   0  0  0  0  0  0  0  0  0  0  0  0
  139.4213   74.2738  220.3983 H   0  0  0  0  0  0  0  0  0  0  0  0
  141.1774   74.4402  220.8307 H   0  0  0  0  0  0  0  0  0  0  0  0
  139.4580   74.1110  223.2040 H   0  0  0  0  0  0  0  0  0  0  0  0
  139.2467   70.0399  222.3267 H   0  0  0  0  0  0  0  0  0  0  0  0
  138.9373   68.5406  224.2719 H   0  0  0  0  0  0  0  0  0  0  0  0
  139.2361   68.0720  226.6605 H   0  0  0  0  0  0  0  0  0  0  0  0
  141.2156   70.9721  229.1231 H   0  0  0  0  0  0  0  0  0  0  0  0
  141.5242   72.4821  227.1556 H   0  0  0  0  0  0  0  0  0  0  0  0
  1  2  1  0
  2  3  1  0
  2  4  1  0
  4  5  1  0
  5  6  2  0
  5  7  1  0
  7  8  1  0
  8  9  1  0
  9 10  2  0
  9 11  1  0
 11 12  2  0
 12 13  1  0
 13 14  2  0
 14 15  1  0
 15 16  2  0
 16 17  1  0
 16 18  1  0
 18 19  2  0
 19 20  1  0
 20 21  2  0
 21 11  1  0
 20 14  1  0
  1 22  1  0
  1 23  1  0
  1 24  1  0
  2 25  1  0
  3 26  1  0
  3 27  1  0
  3 28  1  0
  4 29  1  0
  7 30  1  0
  7 31  1  0
  8 32  1  0
 12 33  1  0
 13 34  1  0
 15 35  1  0
 18 36  1  0
 19 37  1  0
M  END
>  <smiles>  (24) 
CC(C)NC(=O)CNC(=O)c1ccc2cc(F)ccc2n1

>  <score_type>  (24) 
oracle

>  <origin>  (24) 
autodockgpu

>  <m_score__min__energy>  (24) 
-7.1600000000000001

>  <m_primary>  (24) 
energy

>  <rmsd>  (24) 
2.0290717951297492

>  <m_score__min__rmsd>  (24) 
2.0290717951297492

>  <meeko>  (24) 
{"free_energy": -7.03, "intermolecular_energy": -8.22, "internal_energy": -0.71, "cluster_size": 45, "cluster_id": 1, "rank_in_cluster": 16}

>  <energy>  (24) 
-6.42

>  <cluster_rmsd>  (24) 
1.93

>  <cluster>  (24) 
1

$$$$

     RDKit          3D

 37 38  0  0  0  0  0  0  0  0999 V2000
  141.7490   79.1790  221.3160 C   0  0  0  0  0  0  0  0  0  0  0  0
  141.0510   78.3280  222.3210 C   0  0  0  0  0  0  0  0  0  0  0  0
  141.7370   78.4580  223.6500 C   0  0  0  0  0  0  0  0  0  0  0  0
  141.0320   76.9310  221.8650 N   0  0  0  0  0  0  0  0  0  0  0  0
  139.8430   76.2000  221.7460 C   0  0  0  0  0  0  0  0  0  0  0  0
  138.7120   76.6750  222.0170 O   0  0  0  0  0  0  0  0  0  0  0  0
  139.9180   74.7970  221.2790 C   0  0  0  0  0  0  0  0  0  0  0  0
  139.6630   73.8470  222.3530 N   0  0  0  0  0  0  0  0  0  0  0  0
  140.4710   72.6770  222.4480 C   0  0  0  0  0  0  0  0  0  0  0  0
  141.3750   72.5390  221.5750 O   0  0  0  0  0  0  0  0  0  0  0  0
  140.2600   71.6940  223.5020 C   0  0  0  0  0  0  0  0  0  0  0  0
  139.5740   70.5360  223.1820 C   0  0  0  0  0  0  0  0  0  0  0  0
  139.3690   69.6010  224.1710 C   0  0  0  0  0  0  0  0  0  0  0  0
  139.8330   69.7980  225.4680 C   0  0  0  0  0  0  0  0  0  0  0  0
  139.6350   68.8690  226.4700 C   0  0  0  0  0  0  0  0  0  0  0  0
  140.1090   69.1050  227.7350 C   0  0  0  0  0  0  0  0  0  0  0  0
  139.9330   68.2190  228.7390 F   0  0  0  0  0  0  0  0  0  0  0  0
  140.7920   70.2860  228.0050 C   0  0  0  0  0  0  0  0  0  0  0  0
  141.0060   71.2410  227.0120 C   0  0  0  0  0  0  0  0  0  0  0  0
  140.5220   70.9820  225.7500 C   0  0  0  0  0  0  0  0  0  0  0  0
  140.7050   71.8750  224.7600 N   0  0  0  0  0  0  0  0  0  0  0  0
  142.3642   79.9290  221.8346 H   0  0  0  0  0  0  0  0  0  0  0  0
  142.3934   78.5484  220.6858 H   0  0  0  0  0  0  0  0  0  0  0  0
  141.0045   79.6876  220.6858 H   0  0  0  0  0  0  0  0  0  0  0  0
  140.0093   78.6626  222.4344 H   0  0  0  0  0  0  0  0  0  0  0  0
  141.0025   78.3188  224.4569 H   0  0  0  0  0  0  0  0  0  0  0  0
  142.5228   77.6928  223.7334 H   0  0  0  0  0  0  0  0  0  0  0  0
  142.1884   79.4577  223.7334 H   0  0  0  0  0  0  0  0  0  0  0  0
  141.9770   76.5360  221.6390 H   0  0  0  0  0  0  0  0  0  0  0  0
  139.1694   74.6464  220.4872 H   0  0  0  0  0  0  0  0  0  0  0  0
  140.9369   74.6190  220.9046 H   0  0  0  0  0  0  0  0  0  0  0  0
  138.9100   73.9910  223.0550 H   0  0  0  0  0  0  0  0  0  0  0  0
  139.2011   70.3665  222.1611 H   0  0  0  0  0  0  0  0  0  0  0  0
  138.8252   68.6756  223.9303 H   0  0  0  0  0  0  0  0  0  0  0  0
  139.0948   67.9357  226.2527 H   0  0  0  0  0  0  0  0  0  0  0  0
  141.1706   70.4701  229.0213 H   0  0  0  0  0  0  0  0  0  0  0  0
  141.5458   72.1741  227.2308 H   0  0  0  0  0  0  0  0  0  0  0  0
  1  2  1  0
  2  3  1  0
  2  4  1  0
  4  5  1  0
  5  6  2  0
  5  7  1  0
  7  8  1  0
  8  9  1  0
  9 10  2  0
  9 11  1  0
 11 12  2  0
 12 13  1  0
 13 14  2  0
 14 15  1  0
 15 16  2  0
 16 17  1  0
 16 18  1  0
 18 19  2  0
 19 20  1  0
 20 21  2  0
 21 11  1  0
 20 14  1  0
  1 22  1  0
  1 23  1  0
  1 24  1  0
  2 25  1  0
  3 26  1  0
  3 27  1  0
  3 28  1  0
  4 29  1  0
  7 30  1  0
  7 31  1  0
  8 32  1  0
 12 33  1  0
 13 34  1  0
 15 35  1  0
 18 36  1  0
 19 37  1  0
M  END
>  <smiles>  (25) 
CC(C)NC(=O)CNC(=O)c1ccc2cc(F)ccc2n1

>  <score_type>  (25) 
oracle

>  <origin>  (25) 
autodockgpu

>  <m_score__min__energy>  (25) 
-7.1600000000000001

>  <m_primary>  (25) 
energy

>  <rmsd>  (25) 
2.147093947433428

>  <m_score__min__rmsd>  (25) 
2.147093947433428

>  <meeko>  (25) 
{"free_energy": -7.13, "intermolecular_energy": -8.32, "internal_energy": -0.73, "cluster_size": 45, "cluster_id": 1, "rank_in_cluster": 10}

>  <energy>  (25) 
-6.42

>  <cluster_rmsd>  (25) 
1.93

>  <cluster>  (25) 
1

$$$$

     RDKit          3D

 37 38  0  0  0  0  0  0  0  0999 V2000
  137.8710   76.5900  222.7300 C   0  0  0  0  0  0  0  0  0  0  0  0
  136.9420   75.4710  222.4060 C   0  0  0  0  0  0  0  0  0  0  0  0
  135.9750   75.2790  223.5380 C   0  0  0  0  0  0  0  0  0  0  0  0
  137.7090   74.2450  222.1450 N   0  0  0  0  0  0  0  0  0  0  0  0
  137.2960   73.2910  221.2050 C   0  0  0  0  0  0  0  0  0  0  0  0
  136.2500   73.4070  220.5200 O   0  0  0  0  0  0  0  0  0  0  0  0
  138.1310   72.0840  221.0090 C   0  0  0  0  0  0  0  0  0  0  0  0
  138.4580   71.4320  222.2690 N   0  0  0  0  0  0  0  0  0  0  0  0
  139.5680   71.9090  223.0260 C   0  0  0  0  0  0  0  0  0  0  0  0
  140.2070   72.8860  222.5430 O   0  0  0  0  0  0  0  0  0  0  0  0
  139.9400   71.2940  224.2930 C   0  0  0  0  0  0  0  0  0  0  0  0
  140.8570   71.9550  225.0910 C   0  0  0  0  0  0  0  0  0  0  0  0
  141.2150   71.3830  226.2900 C   0  0  0  0  0  0  0  0  0  0  0  0
  140.6780   70.1690  226.7080 C   0  0  0  0  0  0  0  0  0  0  0  0
  141.0280   69.5830  227.9090 C   0  0  0  0  0  0  0  0  0  0  0  0
  140.4730   68.3860  228.2800 C   0  0  0  0  0  0  0  0  0  0  0  0
  140.7920   67.7840  229.4460 F   0  0  0  0  0  0  0  0  0  0  0  0
  139.5560   67.7620  227.4420 C   0  0  0  0  0  0  0  0  0  0  0  0
  139.1850   68.3300  226.2240 C   0  0  0  0  0  0  0  0  0  0  0  0
  139.7540   69.5330  225.8730 C   0  0  0  0  0  0  0  0  0  0  0  0
  139.4260   70.1210  224.7070 N   0  0  0  0  0  0  0  0  0  0  0  0
  137.9556   76.6919  223.8220 H   0  0  0  0  0  0  0  0  0  0  0  0
  138.8627   76.3784  222.3036 H   0  0  0  0  0  0  0  0  0  0  0  0
  137.4806   77.5258  222.3036 H   0  0  0  0  0  0  0  0  0  0  0  0
  136.3691   75.7124  221.4985 H   0  0  0  0  0  0  0  0  0  0  0  0
  136.5059   75.3844  224.4956 H   0  0  0  0  0  0  0  0  0  0  0  0
  135.1803   76.0369  223.4739 H   0  0  0  0  0  0  0  0  0  0  0  0
  135.5302   74.2750  223.4739 H   0  0  0  0  0  0  0  0  0  0  0  0
  138.5820   74.1500  222.7190 H   0  0  0  0  0  0  0  0  0  0  0  0
  137.5824   71.3729  220.3739 H   0  0  0  0  0  0  0  0  0  0  0  0
  139.0733   72.3979  220.5362 H   0  0  0  0  0  0  0  0  0  0  0  0
  137.9110   70.6290  222.6380 H   0  0  0  0  0  0  0  0  0  0  0  0
  141.2897   72.9154  224.7742 H   0  0  0  0  0  0  0  0  0  0  0  0
  141.9434   71.8977  226.9339 H   0  0  0  0  0  0  0  0  0  0  0  0
  141.7545   70.0787  228.5697 H   0  0  0  0  0  0  0  0  0  0  0  0
  139.1145   66.8014  227.7458 H   0  0  0  0  0  0  0  0  0  0  0  0
  138.4597   67.8319  225.5638 H   0  0  0  0  0  0  0  0  0  0  0  0
  1  2  1  0
  2  3  1  0
  2  4  1  0
  4  5  1  0
  5  6  2  0
  5  7  1  0
  7  8  1  0
  8  9  1  0
  9 10  2  0
  9 11  1  0
 11 12  2  0
 12 13  1  0
 13 14  2  0
 14 15  1  0
 15 16  2  0
 16 17  1  0
 16 18  1  0
 18 19  2  0
 19 20  1  0
 20 21  2  0
 21 11  1  0
 20 14  1  0
  1 22  1  0
  1 23  1  0
  1 24  1  0
  2 25  1  0
  3 26  1  0
  3 27  1  0
  3 28  1  0
  4 29  1  0
  7 30  1  0
  7 31  1  0
  8 32  1  0
 12 33  1  0
 13 34  1  0
 15 35  1  0
 18 36  1  0
 19 37  1  0
M  END
>  <smiles>  (26) 
CC(C)NC(=O)CNC(=O)c1ccc2cc(F)ccc2n1

>  <score_type>  (26) 
oracle

>  <origin>  (26) 
autodockgpu

>  <m_score__min__energy>  (26) 
-7.1600000000000001

>  <m_primary>  (26) 
energy

>  <rmsd>  (26) 
3.7085612466761977

>  <m_score__min__rmsd>  (26) 
3.7085612466761977

>  <meeko>  (26) 
{"free_energy": -5.67, "intermolecular_energy": -6.86, "internal_energy": -1.66, "cluster_size": 1, "cluster_id": 3, "rank_in_cluster": 1}

>  <energy>  (26) 
-6.4

>  <cluster_rmsd>  (26) 
1.93

>  <cluster>  (26) 
1

$$$$

     RDKit          3D

 37 38  0  0  0  0  0  0  0  0999 V2000
  143.6960   75.2830  219.1830 C   0  0  0  0  0  0  0  0  0  0  0  0
  143.5890   74.5450  220.4740 C   0  0  0  0  0  0  0  0  0  0  0  0
  144.5590   73.4000  220.4790 C   0  0  0  0  0  0  0  0  0  0  0  0
  142.2100   74.0780  220.6680 N   0  0  0  0  0  0  0  0  0  0  0  0
  141.1550   74.9560  220.9530 C   0  0  0  0  0  0  0  0  0  0  0  0
  141.3050   76.1980  221.0640 O   0  0  0  0  0  0  0  0  0  0  0  0
  139.7970   74.3960  221.1340 C   0  0  0  0  0  0  0  0  0  0  0  0
  139.6970   73.5760  222.3330 N   0  0  0  0  0  0  0  0  0  0  0  0
  140.1970   72.2420  222.3010 C   0  0  0  0  0  0  0  0  0  0  0  0
  140.7040   71.8510  221.2120 O   0  0  0  0  0  0  0  0  0  0  0  0
  140.1230   71.3780  223.4720 C   0  0  0  0  0  0  0  0  0  0  0  0
  139.5500   70.1280  223.3210 C   0  0  0  0  0  0  0  0  0  0  0  0
  139.4750   69.3030  224.4210 C   0  0  0  0  0  0  0  0  0  0  0  0
  139.9590   69.7010  225.6630 C   0  0  0  0  0  0  0  0  0  0  0  0
  139.8910   68.8850  226.7750 C   0  0  0  0  0  0  0  0  0  0  0  0
  140.3800   69.3180  227.9810 C   0  0  0  0  0  0  0  0  0  0  0  0
  140.3300   68.5470  229.0890 F   0  0  0  0  0  0  0  0  0  0  0  0
  140.9460   70.5840  228.0800 C   0  0  0  0  0  0  0  0  0  0  0  0
  141.0280   71.4290  226.9730 C   0  0  0  0  0  0  0  0  0  0  0  0
  140.5310   70.9720  225.7740 C   0  0  0  0  0  0  0  0  0  0  0  0
  140.5880   71.7530  224.6780 N   0  0  0  0  0  0  0  0  0  0  0  0
  143.8512   76.3532  219.3842 H   0  0  0  0  0  0  0  0  0  0  0  0
  144.5467   74.8913  218.6061 H   0  0  0  0  0  0  0  0  0  0  0  0
  142.7690   75.1490  218.6061 H   0  0  0  0  0  0  0  0  0  0  0  0
  143.8413   75.2149  221.3092 H   0  0  0  0  0  0  0  0  0  0  0  0
  144.7938   73.1229  221.5173 H   0  0  0  0  0  0  0  0  0  0  0  0
  144.1118   72.5384  219.9617 H   0  0  0  0  0  0  0  0  0  0  0  0
  145.4824   73.6995  219.9617 H   0  0  0  0  0  0  0  0  0  0  0  0
  142.0860   73.0400  220.5750 H   0  0  0  0  0  0  0  0  0  0  0  0
  139.0788   75.2256  221.2110 H   0  0  0  0  0  0  0  0  0  0  0  0
  139.5767   73.7559  220.2670 H   0  0  0  0  0  0  0  0  0  0  0  0
  139.2720   73.9290  223.2140 H   0  0  0  0  0  0  0  0  0  0  0  0
  139.1632   69.8006  222.3447 H   0  0  0  0  0  0  0  0  0  0  0  0
  139.0219   68.3063  224.3152 H   0  0  0  0  0  0  0  0  0  0  0  0
  139.4429   67.8838  226.6932 H   0  0  0  0  0  0  0  0  0  0  0  0
  141.3366   70.9259  229.0498 H   0  0  0  0  0  0  0  0  0  0  0  0
  141.4763   72.4301  227.0561 H   0  0  0  0  0  0  0  0  0  0  0  0
  1  2  1  0
  2  3  1  0
  2  4  1  0
  4  5  1  0
  5  6  2  0
  5  7  1  0
  7  8  1  0
  8  9  1  0
  9 10  2  0
  9 11  1  0
 11 12  2  0
 12 13  1  0
 13 14  2  0
 14 15  1  0
 15 16  2  0
 16 17  1  0
 16 18  1  0
 18 19  2  0
 19 20  1  0
 20 21  2  0
 21 11  1  0
 20 14  1  0
  1 22  1  0
  1 23  1  0
  1 24  1  0
  2 25  1  0
  3 26  1  0
  3 27  1  0
  3 28  1  0
  4 29  1  0
  7 30  1  0
  7 31  1  0
  8 32  1  0
 12 33  1  0
 13 34  1  0
 15 35  1  0
 18 36  1  0
 19 37  1  0
M  END
>  <smiles>  (27) 
CC(C)NC(=O)CNC(=O)c1ccc2cc(F)ccc2n1

>  <score_type>  (27) 
oracle

>  <origin>  (27) 
autodockgpu

>  <m_score__min__energy>  (27) 
-7.1600000000000001

>  <m_primary>  (27) 
energy

>  <rmsd>  (27) 
2.1305978546018918

>  <m_score__min__rmsd>  (27) 
2.1305978546018918

>  <meeko>  (27) 
{"free_energy": -6.23, "intermolecular_energy": -7.43, "internal_energy": -1.49, "cluster_size": 45, "cluster_id": 1, "rank_in_cluster": 37}

>  <energy>  (27) 
-6.4

>  <cluster_rmsd>  (27) 
1.93

>  <cluster>  (27) 
1

$$$$

     RDKit          3D

 37 38  0  0  0  0  0  0  0  0999 V2000
  141.7190   79.1080  221.1460 C   0  0  0  0  0  0  0  0  0  0  0  0
  140.9540   78.2970  222.1350 C   0  0  0  0  0  0  0  0  0  0  0  0
  141.5160   78.5220  223.5090 C   0  0  0  0  0  0  0  0  0  0  0  0
  141.0070   76.8770  221.7630 N   0  0  0  0  0  0  0  0  0  0  0  0
  139.8500   76.1040  221.5980 C   0  0  0  0  0  0  0  0  0  0  0  0
  138.6900   76.5590  221.7540 O   0  0  0  0  0  0  0  0  0  0  0  0
  139.9980   74.6790  221.2230 C   0  0  0  0  0  0  0  0  0  0  0  0
  139.7520   73.7880  222.3480 N   0  0  0  0  0  0  0  0  0  0  0  0
  140.5030   72.5800  222.4490 C   0  0  0  0  0  0  0  0  0  0  0  0
  141.3480   72.3590  221.5370 O   0  0  0  0  0  0  0  0  0  0  0  0
  140.2990   71.6520  223.5540 C   0  0  0  0  0  0  0  0  0  0  0  0
  139.6340   70.4670  223.2920 C   0  0  0  0  0  0  0  0  0  0  0  0
  139.4350   69.5840  224.3290 C   0  0  0  0  0  0  0  0  0  0  0  0
  139.8850   69.8580  225.6160 C   0  0  0  0  0  0  0  0  0  0  0  0
  139.6940   68.9820  226.6660 C   0  0  0  0  0  0  0  0  0  0  0  0
  140.1550   69.2930  227.9190 C   0  0  0  0  0  0  0  0  0  0  0  0
  139.9850   68.4610  228.9690 F   0  0  0  0  0  0  0  0  0  0  0  0
  140.8170   70.4980  228.1300 C   0  0  0  0  0  0  0  0  0  0  0  0
  141.0240   71.4020  227.0880 C   0  0  0  0  0  0  0  0  0  0  0  0
  140.5530   71.0670  225.8390 C   0  0  0  0  0  0  0  0  0  0  0  0
  140.7300   71.9080  224.8030 N   0  0  0  0  0  0  0  0  0  0  0  0
  142.3794   79.8082  221.6785 H   0  0  0  0  0  0  0  0  0  0  0  0
  142.3244   78.4409  220.5148 H   0  0  0  0  0  0  0  0  0  0  0  0
  141.0177   79.6735  220.5148 H   0  0  0  0  0  0  0  0  0  0  0  0
  139.8990   78.6084  222.1370 H   0  0  0  0  0  0  0  0  0  0  0  0
  140.7722   78.2242  224.2627 H   0  0  0  0  0  0  0  0  0  0  0  0
  142.4276   77.9195  223.6355 H   0  0  0  0  0  0  0  0  0  0  0  0
  141.7600   79.5871  223.6355 H   0  0  0  0  0  0  0  0  0  0  0  0
  141.9770   76.4980  221.6340 H   0  0  0  0  0  0  0  0  0  0  0  0
  139.2800   74.4464  220.4228 H   0  0  0  0  0  0  0  0  0  0  0  0
  141.0339   74.5229  220.8876 H   0  0  0  0  0  0  0  0  0  0  0  0
  139.0480   74.0000  223.0820 H   0  0  0  0  0  0  0  0  0  0  0  0
  139.2730   70.2362  222.2789 H   0  0  0  0  0  0  0  0  0  0  0  0
  138.9072   68.6386  224.1350 H   0  0  0  0  0  0  0  0  0  0  0  0
  139.1695   68.0301  226.4963 H   0  0  0  0  0  0  0  0  0  0  0  0
  141.1842   70.7427  229.1376 H   0  0  0  0  0  0  0  0  0  0  0  0
  141.5479   72.3539  227.2594 H   0  0  0  0  0  0  0  0  0  0  0  0
  1  2  1  0
  2  3  1  0
  2  4  1  0
  4  5  1  0
  5  6  2  0
  5  7  1  0
  7  8  1  0
  8  9  1  0
  9 10  2  0
  9 11  1  0
 11 12  2  0
 12 13  1  0
 13 14  2  0
 14 15  1  0
 15 16  2  0
 16 17  1  0
 16 18  1  0
 18 19  2  0
 19 20  1  0
 20 21  2  0
 21 11  1  0
 20 14  1  0
  1 22  1  0
  1 23  1  0
  1 24  1  0
  2 25  1  0
  3 26  1  0
  3 27  1  0
  3 28  1  0
  4 29  1  0
  7 30  1  0
  7 31  1  0
  8 32  1  0
 12 33  1  0
 13 34  1  0
 15 35  1  0
 18 36  1  0
 19 37  1  0
M  END
>  <smiles>  (28) 
CC(C)NC(=O)CNC(=O)c1ccc2cc(F)ccc2n1

>  <score_type>  (28) 
oracle

>  <origin>  (28) 
autodockgpu

>  <m_score__min__energy>  (28) 
-7.1600000000000001

>  <m_primary>  (28) 
energy

>  <rmsd>  (28) 
2.0757384105011525

>  <m_score__min__rmsd>  (28) 
2.0757384105011525

>  <meeko>  (28) 
{"free_energy": -7.11, "intermolecular_energy": -8.3, "internal_energy": -0.72, "cluster_size": 45, "cluster_id": 1, "rank_in_cluster": 12}

>  <energy>  (28) 
-6.39

>  <cluster_rmsd>  (28) 
1.94

>  <cluster>  (28) 
1

$$$$

     RDKit          3D

 37 38  0  0  0  0  0  0  0  0999 V2000
  137.9150   76.9440  222.7030 C   0  0  0  0  0  0  0  0  0  0  0  0
  137.0730   75.7680  222.3410 C   0  0  0  0  0  0  0  0  0  0  0  0
  136.1790   75.4190  223.4950 C   0  0  0  0  0  0  0  0  0  0  0  0
  137.9320   74.6360  221.9690 N   0  0  0  0  0  0  0  0  0  0  0  0
  138.0140   74.1610  220.6530 C   0  0  0  0  0  0  0  0  0  0  0  0
  137.3680   74.6610  219.6990 O   0  0  0  0  0  0  0  0  0  0  0  0
  138.9050   73.0130  220.3690 C   0  0  0  0  0  0  0  0  0  0  0  0
  138.9150   72.0440  221.4560 N   0  0  0  0  0  0  0  0  0  0  0  0
  139.7450   72.2860  222.5890 C   0  0  0  0  0  0  0  0  0  0  0  0
  140.4310   73.3470  222.5750 O   0  0  0  0  0  0  0  0  0  0  0  0
  139.7940   71.3510  223.7050 C   0  0  0  0  0  0  0  0  0  0  0  0
  139.2160   70.1060  223.5350 C   0  0  0  0  0  0  0  0  0  0  0  0
  139.2560   69.2150  224.5830 C   0  0  0  0  0  0  0  0  0  0  0  0
  139.8590   69.5410  225.7940 C   0  0  0  0  0  0  0  0  0  0  0  0
  139.9070   68.6590  226.8540 C   0  0  0  0  0  0  0  0  0  0  0  0
  140.5120   69.0220  228.0300 C   0  0  0  0  0  0  0  0  0  0  0  0
  140.5770   68.1850  229.0870 F   0  0  0  0  0  0  0  0  0  0  0  0
  141.0780   70.2870  228.1500 C   0  0  0  0  0  0  0  0  0  0  0  0
  141.0440   71.1990  227.0960 C   0  0  0  0  0  0  0  0  0  0  0  0
  140.4320   70.8110  225.9250 C   0  0  0  0  0  0  0  0  0  0  0  0
  140.3750   71.6570  224.8800 N   0  0  0  0  0  0  0  0  0  0  0  0
  137.9755   77.0285  223.7981 H   0  0  0  0  0  0  0  0  0  0  0  0
  138.9256   76.8127  222.2890 H   0  0  0  0  0  0  0  0  0  0  0  0
  137.4651   77.8584  222.2890 H   0  0  0  0  0  0  0  0  0  0  0  0
  136.4405   76.0128  221.4750 H   0  0  0  0  0  0  0  0  0  0  0  0
  136.7034   75.6237  224.4400 H   0  0  0  0  0  0  0  0  0  0  0  0
  135.2626   76.0254  223.4453 H   0  0  0  0  0  0  0  0  0  0  0  0
  135.9158   74.3521  223.4453 H   0  0  0  0  0  0  0  0  0  0  0  0
  138.4710   74.2190  222.7670 H   0  0  0  0  0  0  0  0  0  0  0  0
  138.5585   72.5137  219.4522 H   0  0  0  0  0  0  0  0  0  0  0  0
  139.9280   73.3998  220.2512 H   0  0  0  0  0  0  0  0  0  0  0  0
  138.3390   71.1800  221.4350 H   0  0  0  0  0  0  0  0  0  0  0  0
  138.7352   69.8342  222.5837 H   0  0  0  0  0  0  0  0  0  0  0  0
  138.8004   68.2213  224.4605 H   0  0  0  0  0  0  0  0  0  0  0  0
  139.4578   67.6598  226.7553 H   0  0  0  0  0  0  0  0  0  0  0  0
  141.5621   70.5735  229.0953 H   0  0  0  0  0  0  0  0  0  0  0  0
  141.4925   72.1983  227.1968 H   0  0  0  0  0  0  0  0  0  0  0  0
  1  2  1  0
  2  3  1  0
  2  4  1  0
  4  5  1  0
  5  6  2  0
  5  7  1  0
  7  8  1  0
  8  9  1  0
  9 10  2  0
  9 11  1  0
 11 12  2  0
 12 13  1  0
 13 14  2  0
 14 15  1  0
 15 16  2  0
 16 17  1  0
 16 18  1  0
 18 19  2  0
 19 20  1  0
 20 21  2  0
 21 11  1  0
 20 14  1  0
  1 22  1  0
  1 23  1  0
  1 24  1  0
  2 25  1  0
  3 26  1  0
  3 27  1  0
  3 28  1  0
  4 29  1  0
  7 30  1  0
  7 31  1  0
  8 32  1  0
 12 33  1  0
 13 34  1  0
 15 35  1  0
 18 36  1  0
 19 37  1  0
M  END
>  <smiles>  (29) 
CC(C)NC(=O)CNC(=O)c1ccc2cc(F)ccc2n1

>  <score_type>  (29) 
oracle

>  <origin>  (29) 
autodockgpu

>  <m_score__min__energy>  (29) 
-7.1600000000000001

>  <m_primary>  (29) 
energy

>  <rmsd>  (29) 
2.6947498072612275

>  <m_score__min__rmsd>  (29) 
2.6947498072612275

>  <meeko>  (29) 
{"free_energy": -6.07, "intermolecular_energy": -7.27, "internal_energy": -1.41, "cluster_size": 45, "cluster_id": 1, "rank_in_cluster": 45}

>  <energy>  (29) 
-6.39

>  <cluster_rmsd>  (29) 
1.95

>  <cluster>  (29) 
1

$$$$

     RDKit          3D

 37 38  0  0  0  0  0  0  0  0999 V2000
  139.7460   78.4360  223.0480 C   0  0  0  0  0  0  0  0  0  0  0  0
  141.0630   78.0250  222.4850 C   0  0  0  0  0  0  0  0  0  0  0  0
  141.3810   78.8690  221.2860 C   0  0  0  0  0  0  0  0  0  0  0  0
  141.0340   76.5970  222.1400 N   0  0  0  0  0  0  0  0  0  0  0  0
  139.9860   76.0270  221.4050 C   0  0  0  0  0  0  0  0  0  0  0  0
  139.0000   76.6840  220.9880 O   0  0  0  0  0  0  0  0  0  0  0  0
  140.0390   74.5780  221.1030 C   0  0  0  0  0  0  0  0  0  0  0  0
  139.8750   73.7630  222.2980 N   0  0  0  0  0  0  0  0  0  0  0  0
  140.3560   72.4210  222.2910 C   0  0  0  0  0  0  0  0  0  0  0  0
  140.9060   72.0210  221.2260 O   0  0  0  0  0  0  0  0  0  0  0  0
  140.2190   71.5610  223.4580 C   0  0  0  0  0  0  0  0  0  0  0  0
  139.5880   70.3410  223.2960 C   0  0  0  0  0  0  0  0  0  0  0  0
  139.4530   69.5210  224.3930 C   0  0  0  0  0  0  0  0  0  0  0  0
  139.9330   69.8930  225.6440 C   0  0  0  0  0  0  0  0  0  0  0  0
  139.8050   69.0820  226.7540 C   0  0  0  0  0  0  0  0  0  0  0  0
  140.2930   69.4890  227.9690 C   0  0  0  0  0  0  0  0  0  0  0  0
  140.1850   68.7210  229.0740 F   0  0  0  0  0  0  0  0  0  0  0  0
  140.9190   70.7260  228.0790 C   0  0  0  0  0  0  0  0  0  0  0  0
  141.0620   71.5660  226.9760 C   0  0  0  0  0  0  0  0  0  0  0  0
  140.5650   71.1350  225.7670 C   0  0  0  0  0  0  0  0  0  0  0  0
  140.6800   71.9130  224.6740 N   0  0  0  0  0  0  0  0  0  0  0  0
  139.7960   78.4204  224.1468 H   0  0  0  0  0  0  0  0  0  0  0  0
  139.5025   79.4529  222.7064 H   0  0  0  0  0  0  0  0  0  0  0  0
  138.9673   77.7381  222.7064 H   0  0  0  0  0  0  0  0  0  0  0  0
  141.8533   78.1775  223.2347 H   0  0  0  0  0  0  0  0  0  0  0  0
  141.7509   79.8508  221.6164 H   0  0  0  0  0  0  0  0  0  0  0  0
  142.1531   78.3708  220.6813 H   0  0  0  0  0  0  0  0  0  0  0  0
  140.4721   79.0041  220.6813 H   0  0  0  0  0  0  0  0  0  0  0  0
  141.8580   76.0500  222.4890 H   0  0  0  0  0  0  0  0  0  0  0  0
  139.2342   74.3338  220.3940 H   0  0  0  0  0  0  0  0  0  0  0  0
  141.0282   74.3571  220.6756 H   0  0  0  0  0  0  0  0  0  0  0  0
  139.4170   74.1230  223.1580 H   0  0  0  0  0  0  0  0  0  0  0  0
  139.2028   70.0331  222.3127 H   0  0  0  0  0  0  0  0  0  0  0  0
  138.9534   68.5479  224.2775 H   0  0  0  0  0  0  0  0  0  0  0  0
  139.3090   68.1044  226.6632 H   0  0  0  0  0  0  0  0  0  0  0  0
  141.3090   71.0478  229.0559 H   0  0  0  0  0  0  0  0  0  0  0  0
  141.5571   72.5439  227.0689 H   0  0  0  0  0  0  0  0  0  0  0  0
  1  2  1  0
  2  3  1  0
  2  4  1  0
  4  5  1  0
  5  6  2  0
  5  7  1  0
  7  8  1  0
  8  9  1  0
  9 10  2  0
  9 11  1  0
 11 12  2  0
 12 13  1  0
 13 14  2  0
 14 15  1  0
 15 16  2  0
 16 17  1  0
 16 18  1  0
 18 19  2  0
 19 20  1  0
 20 21  2  0
 21 11  1  0
 20 14  1  0
  1 22  1  0
  1 23  1  0
  1 24  1  0
  2 25  1  0
  3 26  1  0
  3 27  1  0
  3 28  1  0
  4 29  1  0
  7 30  1  0
  7 31  1  0
  8 32  1  0
 12 33  1  0
 13 34  1  0
 15 35  1  0
 18 36  1  0
 19 37  1  0
M  END
>  <smiles>  (30) 
CC(C)NC(=O)CNC(=O)c1ccc2cc(F)ccc2n1

>  <score_type>  (30) 
oracle

>  <origin>  (30) 
autodockgpu

>  <m_score__min__energy>  (30) 
-7.1600000000000001

>  <m_primary>  (30) 
energy

>  <rmsd>  (30) 
2.3465062317045606

>  <m_score__min__rmsd>  (30) 
2.3465062317045606

>  <meeko>  (30) 
{"free_energy": -6.79, "intermolecular_energy": -7.99, "internal_energy": -0.67, "cluster_size": 45, "cluster_id": 1, "rank_in_cluster": 20}

>  <energy>  (30) 
-6.39

>  <cluster_rmsd>  (30) 
1.94

>  <cluster>  (30) 
1

$$$$

     RDKit          3D

 37 38  0  0  0  0  0  0  0  0999 V2000
  144.3860   73.7500  220.8370 C   0  0  0  0  0  0  0  0  0  0  0  0
  143.5000   73.9960  219.6640 C   0  0  0  0  0  0  0  0  0  0  0  0
  143.6930   75.4040  219.1780 C   0  0  0  0  0  0  0  0  0  0  0  0
  142.1010   73.7460  220.0340 N   0  0  0  0  0  0  0  0  0  0  0  0
  141.3580   74.6540  220.8010 C   0  0  0  0  0  0  0  0  0  0  0  0
  141.8240   75.7390  221.2280 O   0  0  0  0  0  0  0  0  0  0  0  0
  139.9530   74.3190  221.1290 C   0  0  0  0  0  0  0  0  0  0  0  0
  139.8480   73.5150  222.3380 N   0  0  0  0  0  0  0  0  0  0  0  0
  140.2370   72.1450  222.2930 C   0  0  0  0  0  0  0  0  0  0  0  0
  140.6560   71.7100  221.1830 O   0  0  0  0  0  0  0  0  0  0  0  0
  140.1530   71.2940  223.4720 C   0  0  0  0  0  0  0  0  0  0  0  0
  139.5730   70.0460  223.3340 C   0  0  0  0  0  0  0  0  0  0  0  0
  139.4890   69.2350  224.4420 C   0  0  0  0  0  0  0  0  0  0  0  0
  139.9700   69.6430  225.6820 C   0  0  0  0  0  0  0  0  0  0  0  0
  139.8930   68.8410  226.8030 C   0  0  0  0  0  0  0  0  0  0  0  0
  140.3810   69.2840  228.0050 C   0  0  0  0  0  0  0  0  0  0  0  0
  140.3210   68.5260  229.1220 F   0  0  0  0  0  0  0  0  0  0  0  0
  140.9550   70.5470  228.0920 C   0  0  0  0  0  0  0  0  0  0  0  0
  141.0460   71.3790  226.9760 C   0  0  0  0  0  0  0  0  0  0  0  0
  140.5500   70.9120  225.7800 C   0  0  0  0  0  0  0  0  0  0  0  0
  140.6160   71.6800  224.6760 N   0  0  0  0  0  0  0  0  0  0  0  0
  143.8175   73.9078  221.7654 H   0  0  0  0  0  0  0  0  0  0  0  0
  144.7569   72.7149  220.8057 H   0  0  0  0  0  0  0  0  0  0  0  0
  145.2375   74.4457  220.8057 H   0  0  0  0  0  0  0  0  0  0  0  0
  143.7624   73.3081  218.8467 H   0  0  0  0  0  0  0  0  0  0  0  0
  143.7857   76.0802  220.0406 H   0  0  0  0  0  0  0  0  0  0  0  0
  144.6071   75.4595  218.5687 H   0  0  0  0  0  0  0  0  0  0  0  0
  142.8275   75.7035  218.5687 H   0  0  0  0  0  0  0  0  0  0  0  0
  141.7130   72.8400  219.6770 H   0  0  0  0  0  0  0  0  0  0  0  0
  139.3907   75.2531  221.2747 H   0  0  0  0  0  0  0  0  0  0  0  0
  139.5423   73.7308  220.2952 H   0  0  0  0  0  0  0  0  0  0  0  0
  139.4980   73.9040  223.2360 H   0  0  0  0  0  0  0  0  0  0  0  0
  139.1876   69.7095  222.3602 H   0  0  0  0  0  0  0  0  0  0  0  0
  139.0304   68.2398  224.3452 H   0  0  0  0  0  0  0  0  0  0  0  0
  139.4381   67.8421  226.7314 H   0  0  0  0  0  0  0  0  0  0  0  0
  141.3449   70.8970  229.0592 H   0  0  0  0  0  0  0  0  0  0  0  0
  141.5004   72.3780  227.0496 H   0  0  0  0  0  0  0  0  0  0  0  0
  1  2  1  0
  2  3  1  0
  2  4  1  0
  4  5  1  0
  5  6  2  0
  5  7  1  0
  7  8  1  0
  8  9  1  0
  9 10  2  0
  9 11  1  0
 11 12  2  0
 12 13  1  0
 13 14  2  0
 14 15  1  0
 15 16  2  0
 16 17  1  0
 16 18  1  0
 18 19  2  0
 19 20  1  0
 20 21  2  0
 21 11  1  0
 20 14  1  0
  1 22  1  0
  1 23  1  0
  1 24  1  0
  2 25  1  0
  3 26  1  0
  3 27  1  0
  3 28  1  0
  4 29  1  0
  7 30  1  0
  7 31  1  0
  8 32  1  0
 12 33  1  0
 13 34  1  0
 15 35  1  0
 18 36  1  0
 19 37  1  0
M  END
>  <smiles>  (31) 
CC(C)NC(=O)CNC(=O)c1ccc2cc(F)ccc2n1

>  <score_type>  (31) 
oracle

>  <origin>  (31) 
autodockgpu

>  <m_score__min__energy>  (31) 
-7.1600000000000001

>  <m_primary>  (31) 
energy

>  <rmsd>  (31) 
2.5221073314547007

>  <m_score__min__rmsd>  (31) 
2.5221073314547007

>  <meeko>  (31) 
{"free_energy": -6.03, "intermolecular_energy": -7.22, "internal_energy": -1.43, "cluster_size": 4, "cluster_id": 2, "rank_in_cluster": 4}

>  <energy>  (31) 
-6.38

>  <cluster_rmsd>  (31) 
1.94

>  <cluster>  (31) 
1

$$$$

     RDKit          3D

 37 38  0  0  0  0  0  0  0  0999 V2000
  141.5210   79.0000  221.1540 C   0  0  0  0  0  0  0  0  0  0  0  0
  140.9650   78.1830  222.2700 C   0  0  0  0  0  0  0  0  0  0  0  0
  141.7280   78.4710  223.5300 C   0  0  0  0  0  0  0  0  0  0  0  0
  141.0270   76.7570  221.9230 N   0  0  0  0  0  0  0  0  0  0  0  0
  139.8960   76.0360  221.5180 C   0  0  0  0  0  0  0  0  0  0  0  0
  138.7520   76.5470  221.4210 O   0  0  0  0  0  0  0  0  0  0  0  0
  140.0510   74.6010  221.1870 C   0  0  0  0  0  0  0  0  0  0  0  0
  139.8240   73.7450  222.3430 N   0  0  0  0  0  0  0  0  0  0  0  0
  140.4440   72.4610  222.3840 C   0  0  0  0  0  0  0  0  0  0  0  0
  141.1630   72.1460  221.3950 O   0  0  0  0  0  0  0  0  0  0  0  0
  140.2520   71.5640  223.5160 C   0  0  0  0  0  0  0  0  0  0  0  0
  139.5950   70.3680  223.2920 C   0  0  0  0  0  0  0  0  0  0  0  0
  139.4080   69.5130  224.3540 C   0  0  0  0  0  0  0  0  0  0  0  0
  139.8620   69.8280  225.6310 C   0  0  0  0  0  0  0  0  0  0  0  0
  139.6830   68.9810  226.7070 C   0  0  0  0  0  0  0  0  0  0  0  0
  140.1470   69.3320  227.9480 C   0  0  0  0  0  0  0  0  0  0  0  0
  139.9880   68.5280  229.0220 F   0  0  0  0  0  0  0  0  0  0  0  0
  140.8010   70.5470  228.1210 C   0  0  0  0  0  0  0  0  0  0  0  0
  140.9960   71.4210  227.0530 C   0  0  0  0  0  0  0  0  0  0  0  0
  140.5220   71.0470  225.8160 C   0  0  0  0  0  0  0  0  0  0  0  0
  140.6880   71.8600  224.7550 N   0  0  0  0  0  0  0  0  0  0  0  0
  142.0946   79.8428  221.5670 H   0  0  0  0  0  0  0  0  0  0  0  0
  142.1819   78.3747  220.5357 H   0  0  0  0  0  0  0  0  0  0  0  0
  140.6968   79.3853  220.5357 H   0  0  0  0  0  0  0  0  0  0  0  0
  139.9101   78.4467  222.4361 H   0  0  0  0  0  0  0  0  0  0  0  0
  141.0999   78.2339  224.4013 H   0  0  0  0  0  0  0  0  0  0  0  0
  142.6388   77.8548  223.5561 H   0  0  0  0  0  0  0  0  0  0  0  0
  142.0045   79.5354  223.5561 H   0  0  0  0  0  0  0  0  0  0  0  0
  141.9830   76.3320  222.0040 H   0  0  0  0  0  0  0  0  0  0  0  0
  139.3262   74.3375  220.4027 H   0  0  0  0  0  0  0  0  0  0  0  0
  141.0843   74.4417  220.8450 H   0  0  0  0  0  0  0  0  0  0  0  0
  139.2260   74.0350  223.1410 H   0  0  0  0  0  0  0  0  0  0  0  0
  139.2302   70.1060  222.2879 H   0  0  0  0  0  0  0  0  0  0  0  0
  138.8874   68.5581  224.1895 H   0  0  0  0  0  0  0  0  0  0  0  0
  139.1657   68.0203  226.5674 H   0  0  0  0  0  0  0  0  0  0  0  0
  141.1713   70.8234  229.1193 H   0  0  0  0  0  0  0  0  0  0  0  0
  141.5134   72.3813  227.1944 H   0  0  0  0  0  0  0  0  0  0  0  0
  1  2  1  0
  2  3  1  0
  2  4  1  0
  4  5  1  0
  5  6  2  0
  5  7  1  0
  7  8  1  0
  8  9  1  0
  9 10  2  0
  9 11  1  0
 11 12  2  0
 12 13  1  0
 13 14  2  0
 14 15  1  0
 15 16  2  0
 16 17  1  0
 16 18  1  0
 18 19  2  0
 19 20  1  0
 20 21  2  0
 21 11  1  0
 20 14  1  0
  1 22  1  0
  1 23  1  0
  1 24  1  0
  2 25  1  0
  3 26  1  0
  3 27  1  0
  3 28  1  0
  4 29  1  0
  7 30  1  0
  7 31  1  0
  8 32  1  0
 12 33  1  0
 13 34  1  0
 15 35  1  0
 18 36  1  0
 19 37  1  0
M  END
>  <smiles>  (32) 
CC(C)NC(=O)CNC(=O)c1ccc2cc(F)ccc2n1

>  <score_type>  (32) 
oracle

>  <origin>  (32) 
autodockgpu

>  <m_score__min__energy>  (32) 
-7.1600000000000001

>  <m_primary>  (32) 
energy

>  <rmsd>  (32) 
2.0393806147436244

>  <m_score__min__rmsd>  (32) 
2.0393806147436244

>  <meeko>  (32) 
{"free_energy": -7.1, "intermolecular_energy": -8.29, "internal_energy": -0.7, "cluster_size": 45, "cluster_id": 1, "rank_in_cluster": 13}

>  <energy>  (32) 
-6.27

>  <cluster_rmsd>  (32) 
1.98

>  <cluster>  (32) 
1

$$$$

     RDKit          3D

 37 38  0  0  0  0  0  0  0  0999 V2000
  143.5450   75.9010  219.3750 C   0  0  0  0  0  0  0  0  0  0  0  0
  143.4810   74.8880  220.4660 C   0  0  0  0  0  0  0  0  0  0  0  0
  144.5160   73.8280  220.2260 C   0  0  0  0  0  0  0  0  0  0  0  0
  142.1320   74.3100  220.5310 N   0  0  0  0  0  0  0  0  0  0  0  0
  141.0640   74.9720  221.1510 C   0  0  0  0  0  0  0  0  0  0  0  0
  141.1750   76.0990  221.6950 O   0  0  0  0  0  0  0  0  0  0  0  0
  139.7370   74.3140  221.1710 C   0  0  0  0  0  0  0  0  0  0  0  0
  139.5580   73.4760  222.3480 N   0  0  0  0  0  0  0  0  0  0  0  0
  140.3510   72.2990  222.4850 C   0  0  0  0  0  0  0  0  0  0  0  0
  141.1730   72.0570  221.5560 O   0  0  0  0  0  0  0  0  0  0  0  0
  140.2140   71.4240  223.6410 C   0  0  0  0  0  0  0  0  0  0  0  0
  139.5690   70.2130  223.4670 C   0  0  0  0  0  0  0  0  0  0  0  0
  139.4340   69.3790  224.5540 C   0  0  0  0  0  0  0  0  0  0  0  0
  139.9270   69.7290  225.8070 C   0  0  0  0  0  0  0  0  0  0  0  0
  139.8000   68.9040  226.9060 C   0  0  0  0  0  0  0  0  0  0  0  0
  140.3020   69.2890  228.1220 C   0  0  0  0  0  0  0  0  0  0  0  0
  140.1940   68.5070  229.2180 F   0  0  0  0  0  0  0  0  0  0  0  0
  140.9420   70.5180  228.2450 C   0  0  0  0  0  0  0  0  0  0  0  0
  141.0850   71.3720  227.1520 C   0  0  0  0  0  0  0  0  0  0  0  0
  140.5730   70.9630  225.9410 C   0  0  0  0  0  0  0  0  0  0  0  0
  140.6880   71.7540  224.8580 N   0  0  0  0  0  0  0  0  0  0  0  0
  143.6086   76.9080  219.8130 H   0  0  0  0  0  0  0  0  0  0  0  0
  144.4332   75.7147  218.7533 H   0  0  0  0  0  0  0  0  0  0  0  0
  142.6405   75.8280  218.7533 H   0  0  0  0  0  0  0  0  0  0  0  0
  143.6929   75.3671  221.4333 H   0  0  0  0  0  0  0  0  0  0  0  0
  144.8847   73.4504  221.1911 H   0  0  0  0  0  0  0  0  0  0  0  0
  144.0683   73.0009  219.6555 H   0  0  0  0  0  0  0  0  0  0  0  0
  145.3536   74.2558  219.6555 H   0  0  0  0  0  0  0  0  0  0  0  0
  142.0410   73.3690  220.0770 H   0  0  0  0  0  0  0  0  0  0  0  0
  138.9567   75.0893  221.1658 H   0  0  0  0  0  0  0  0  0  0  0  0
  139.6656   73.6693  220.2826 H   0  0  0  0  0  0  0  0  0  0  0  0
  138.8720   73.7040  223.0930 H   0  0  0  0  0  0  0  0  0  0  0  0
  139.1729   69.9229  222.4826 H   0  0  0  0  0  0  0  0  0  0  0  0
  138.9240   68.4125  224.4288 H   0  0  0  0  0  0  0  0  0  0  0  0
  139.2935   67.9327  226.8057 H   0  0  0  0  0  0  0  0  0  0  0  0
  141.3429   70.8219  229.2232 H   0  0  0  0  0  0  0  0  0  0  0  0
  141.5915   72.3431  227.2541 H   0  0  0  0  0  0  0  0  0  0  0  0
  1  2  1  0
  2  3  1  0
  2  4  1  0
  4  5  1  0
  5  6  2  0
  5  7  1  0
  7  8  1  0
  8  9  1  0
  9 10  2  0
  9 11  1  0
 11 12  2  0
 12 13  1  0
 13 14  2  0
 14 15  1  0
 15 16  2  0
 16 17  1  0
 16 18  1  0
 18 19  2  0
 19 20  1  0
 20 21  2  0
 21 11  1  0
 20 14  1  0
  1 22  1  0
  1 23  1  0
  1 24  1  0
  2 25  1  0
  3 26  1  0
  3 27  1  0
  3 28  1  0
  4 29  1  0
  7 30  1  0
  7 31  1  0
  8 32  1  0
 12 33  1  0
 13 34  1  0
 15 35  1  0
 18 36  1  0
 19 37  1  0
M  END
>  <smiles>  (33) 
CC(C)NC(=O)CNC(=O)c1ccc2cc(F)ccc2n1

>  <score_type>  (33) 
oracle

>  <origin>  (33) 
autodockgpu

>  <m_score__min__energy>  (33) 
-7.1600000000000001

>  <m_primary>  (33) 
energy

>  <rmsd>  (33) 
2.03860074070011

>  <m_score__min__rmsd>  (33) 
2.03860074070011

>  <meeko>  (33) 
{"free_energy": -6.42, "intermolecular_energy": -7.62, "internal_energy": -1.37, "cluster_size": 45, "cluster_id": 1, "rank_in_cluster": 22}

>  <energy>  (33) 
-6.25

>  <cluster_rmsd>  (33) 
1.98

>  <cluster>  (33) 
1

$$$$

     RDKit          3D

 37 38  0  0  0  0  0  0  0  0999 V2000
  143.5510   75.9050  219.3610 C   0  0  0  0  0  0  0  0  0  0  0  0
  143.5000   74.8820  220.4440 C   0  0  0  0  0  0  0  0  0  0  0  0
  144.5360   73.8280  220.1860 C   0  0  0  0  0  0  0  0  0  0  0  0
  142.1530   74.3010  220.5170 N   0  0  0  0  0  0  0  0  0  0  0  0
  141.0780   74.9760  221.1110 C   0  0  0  0  0  0  0  0  0  0  0  0
  141.1810   76.1180  221.6240 O   0  0  0  0  0  0  0  0  0  0  0  0
  139.7540   74.3120  221.1410 C   0  0  0  0  0  0  0  0  0  0  0  0
  139.5840   73.4810  222.3240 N   0  0  0  0  0  0  0  0  0  0  0  0
  140.3380   72.2760  222.4360 C   0  0  0  0  0  0  0  0  0  0  0  0
  141.1200   72.0050  221.4820 O   0  0  0  0  0  0  0  0  0  0  0  0
  140.2070   71.4070  223.5970 C   0  0  0  0  0  0  0  0  0  0  0  0
  139.5690   70.1910  223.4300 C   0  0  0  0  0  0  0  0  0  0  0  0
  139.4390   69.3620  224.5210 C   0  0  0  0  0  0  0  0  0  0  0  0
  139.9330   69.7210  225.7710 C   0  0  0  0  0  0  0  0  0  0  0  0
  139.8110   68.9010  226.8750 C   0  0  0  0  0  0  0  0  0  0  0  0
  140.3130   69.2950  228.0890 C   0  0  0  0  0  0  0  0  0  0  0  0
  140.2110   68.5180  229.1890 F   0  0  0  0  0  0  0  0  0  0  0  0
  140.9460   70.5280  228.2040 C   0  0  0  0  0  0  0  0  0  0  0  0
  141.0830   71.3770  227.1060 C   0  0  0  0  0  0  0  0  0  0  0  0
  140.5720   70.9590  225.8980 C   0  0  0  0  0  0  0  0  0  0  0  0
  140.6810   71.7450  224.8110 N   0  0  0  0  0  0  0  0  0  0  0  0
  143.6011   76.9092  219.8072 H   0  0  0  0  0  0  0  0  0  0  0  0
  144.4418   75.7356  218.7383 H   0  0  0  0  0  0  0  0  0  0  0  0
  142.6478   75.8251  218.7383 H   0  0  0  0  0  0  0  0  0  0  0  0
  143.7197   75.3525  221.4137 H   0  0  0  0  0  0  0  0  0  0  0  0
  144.9142   73.4432  221.1446 H   0  0  0  0  0  0  0  0  0  0  0  0
  144.0862   73.0044  219.6121 H   0  0  0  0  0  0  0  0  0  0  0  0
  145.3672   74.2636  219.6121 H   0  0  0  0  0  0  0  0  0  0  0  0
  142.0690   73.3470  220.0880 H   0  0  0  0  0  0  0  0  0  0  0  0
  138.9701   75.0837  221.1342 H   0  0  0  0  0  0  0  0  0  0  0  0
  139.6817   73.6612  220.2571 H   0  0  0  0  0  0  0  0  0  0  0  0
  138.9300   73.7330  223.0910 H   0  0  0  0  0  0  0  0  0  0  0  0
  139.1744   69.8933  222.4473 H   0  0  0  0  0  0  0  0  0  0  0  0
  138.9326   68.3928  224.4018 H   0  0  0  0  0  0  0  0  0  0  0  0
  139.3087   67.9269  226.7805 H   0  0  0  0  0  0  0  0  0  0  0  0
  141.3464   70.8397  229.1800 H   0  0  0  0  0  0  0  0  0  0  0  0
  141.5843   72.3514  227.2024 H   0  0  0  0  0  0  0  0  0  0  0  0
  1  2  1  0
  2  3  1  0
  2  4  1  0
  4  5  1  0
  5  6  2  0
  5  7  1  0
  7  8  1  0
  8  9  1  0
  9 10  2  0
  9 11  1  0
 11 12  2  0
 12 13  1  0
 13 14  2  0
 14 15  1  0
 15 16  2  0
 16 17  1  0
 16 18  1  0
 18 19  2  0
 19 20  1  0
 20 21  2  0
 21 11  1  0
 20 14  1  0
  1 22  1  0
  1 23  1  0
  1 24  1  0
  2 25  1  0
  3 26  1  0
  3 27  1  0
  3 28  1  0
  4 29  1  0
  7 30  1  0
  7 31  1  0
  8 32  1  0
 12 33  1  0
 13 34  1  0
 15 35  1  0
 18 36  1  0
 19 37  1  0
M  END
>  <smiles>  (34) 
CC(C)NC(=O)CNC(=O)c1ccc2cc(F)ccc2n1

>  <score_type>  (34) 
oracle

>  <origin>  (34) 
autodockgpu

>  <m_score__min__energy>  (34) 
-7.1600000000000001

>  <m_primary>  (34) 
energy

>  <rmsd>  (34) 
2.033968363334176

>  <m_score__min__rmsd>  (34) 
2.033968363334176

>  <meeko>  (34) 
{"free_energy": -6.4, "intermolecular_energy": -7.59, "internal_energy": -1.4, "cluster_size": 45, "cluster_id": 1, "rank_in_cluster": 27}

>  <energy>  (34) 
-6.24

>  <cluster_rmsd>  (34) 
1.99

>  <cluster>  (34) 
1

$$$$

     RDKit          3D

 37 38  0  0  0  0  0  0  0  0999 V2000
  141.3240   78.9610  221.3070 C   0  0  0  0  0  0  0  0  0  0  0  0
  140.8940   78.1030  222.4470 C   0  0  0  0  0  0  0  0  0  0  0  0
  141.8010   78.3380  223.6200 C   0  0  0  0  0  0  0  0  0  0  0  0
  140.9020   76.6920  222.0410 N   0  0  0  0  0  0  0  0  0  0  0  0
  139.7350   76.0190  221.6550 C   0  0  0  0  0  0  0  0  0  0  0  0
  138.6030   76.5630  221.6280 O   0  0  0  0  0  0  0  0  0  0  0  0
  139.8360   74.5950  221.2620 C   0  0  0  0  0  0  0  0  0  0  0  0
  139.5850   73.6970  222.3810 N   0  0  0  0  0  0  0  0  0  0  0  0
  140.4520   72.5830  222.5800 C   0  0  0  0  0  0  0  0  0  0  0  0
  141.3990   72.4460  221.7560 O   0  0  0  0  0  0  0  0  0  0  0  0
  140.2480   71.6540  223.6840 C   0  0  0  0  0  0  0  0  0  0  0  0
  139.5510   70.4860  223.4290 C   0  0  0  0  0  0  0  0  0  0  0  0
  139.3530   69.6020  224.4640 C   0  0  0  0  0  0  0  0  0  0  0  0
  139.8340   69.8580  225.7440 C   0  0  0  0  0  0  0  0  0  0  0  0
  139.6430   68.9800  226.7930 C   0  0  0  0  0  0  0  0  0  0  0  0
  140.1350   69.2740  228.0380 C   0  0  0  0  0  0  0  0  0  0  0  0
  139.9660   68.4390  229.0870 F   0  0  0  0  0  0  0  0  0  0  0  0
  140.8290   70.4620  228.2420 C   0  0  0  0  0  0  0  0  0  0  0  0
  141.0360   71.3670  227.2020 C   0  0  0  0  0  0  0  0  0  0  0  0
  140.5340   71.0500  225.9600 C   0  0  0  0  0  0  0  0  0  0  0  0
  140.7100   71.8930  224.9250 N   0  0  0  0  0  0  0  0  0  0  0  0
  141.7853   79.8814  221.6944 H   0  0  0  0  0  0  0  0  0  0  0  0
  142.0550   78.4151  220.6925 H   0  0  0  0  0  0  0  0  0  0  0  0
  140.4491   79.2199  220.6925 H   0  0  0  0  0  0  0  0  0  0  0  0
  139.8677   78.3643  222.7443 H   0  0  0  0  0  0  0  0  0  0  0  0
  141.2381   78.1922  224.5537 H   0  0  0  0  0  0  0  0  0  0  0  0
  142.6400   77.6276  223.5829 H   0  0  0  0  0  0  0  0  0  0  0  0
  142.1895   79.3665  223.5829 H   0  0  0  0  0  0  0  0  0  0  0  0
  141.8470   76.2390  222.0640 H   0  0  0  0  0  0  0  0  0  0  0  0
  139.0976   74.3921  220.4723 H   0  0  0  0  0  0  0  0  0  0  0  0
  140.8613   74.4142  220.9069 H   0  0  0  0  0  0  0  0  0  0  0  0
  138.7950   73.8390  223.0400 H   0  0  0  0  0  0  0  0  0  0  0  0
  139.1644   70.2696  222.4222 H   0  0  0  0  0  0  0  0  0  0  0  0
  138.8007   68.6697  224.2750 H   0  0  0  0  0  0  0  0  0  0  0  0
  139.0939   68.0411  226.6286 H   0  0  0  0  0  0  0  0  0  0  0  0
  141.2221   70.6919  229.2433 H   0  0  0  0  0  0  0  0  0  0  0  0
  141.5840   72.3061  227.3688 H   0  0  0  0  0  0  0  0  0  0  0  0
  1  2  1  0
  2  3  1  0
  2  4  1  0
  4  5  1  0
  5  6  2  0
  5  7  1  0
  7  8  1  0
  8  9  1  0
  9 10  2  0
  9 11  1  0
 11 12  2  0
 12 13  1  0
 13 14  2  0
 14 15  1  0
 15 16  2  0
 16 17  1  0
 16 18  1  0
 18 19  2  0
 19 20  1  0
 20 21  2  0
 21 11  1  0
 20 14  1  0
  1 22  1  0
  1 23  1  0
  1 24  1  0
  2 25  1  0
  3 26  1  0
  3 27  1  0
  3 28  1  0
  4 29  1  0
  7 30  1  0
  7 31  1  0
  8 32  1  0
 12 33  1  0
 13 34  1  0
 15 35  1  0
 18 36  1  0
 19 37  1  0
M  END
>  <smiles>  (35) 
CC(C)NC(=O)CNC(=O)c1ccc2cc(F)ccc2n1

>  <score_type>  (35) 
oracle

>  <origin>  (35) 
autodockgpu

>  <m_score__min__energy>  (35) 
-7.1600000000000001

>  <m_primary>  (35) 
energy

>  <rmsd>  (35) 
2.083499308919246

>  <m_score__min__rmsd>  (35) 
2.083499308919246

>  <meeko>  (35) 
{"free_energy": -7.14, "intermolecular_energy": -8.33, "internal_energy": -0.7, "cluster_size": 45, "cluster_id": 1, "rank_in_cluster": 8}

>  <energy>  (35) 
-6.24

>  <cluster_rmsd>  (35) 
1.97

>  <cluster>  (35) 
1

$$$$

     RDKit          3D

 37 38  0  0  0  0  0  0  0  0999 V2000
  143.6880   75.2800  218.7670 C   0  0  0  0  0  0  0  0  0  0  0  0
  143.5140   74.8220  220.1740 C   0  0  0  0  0  0  0  0  0  0  0  0
  144.5330   73.7640  220.4850 C   0  0  0  0  0  0  0  0  0  0  0  0
  142.1480   74.3210  220.3710 N   0  0  0  0  0  0  0  0  0  0  0  0
  141.1410   75.1050  220.9500 C   0  0  0  0  0  0  0  0  0  0  0  0
  141.3250   76.2840  221.3430 O   0  0  0  0  0  0  0  0  0  0  0  0
  139.7900   74.5180  221.1110 C   0  0  0  0  0  0  0  0  0  0  0  0
  139.6880   73.6980  222.3100 N   0  0  0  0  0  0  0  0  0  0  0  0
  140.2390   72.3830  222.2960 C   0  0  0  0  0  0  0  0  0  0  0  0
  140.7900   72.0090  221.2230 O   0  0  0  0  0  0  0  0  0  0  0  0
  140.1650   71.5190  223.4670 C   0  0  0  0  0  0  0  0  0  0  0  0
  139.6010   70.2650  223.3150 C   0  0  0  0  0  0  0  0  0  0  0  0
  139.5260   69.4420  224.4150 C   0  0  0  0  0  0  0  0  0  0  0  0
  140.0010   69.8430  225.6600 C   0  0  0  0  0  0  0  0  0  0  0  0
  139.9340   69.0290  226.7720 C   0  0  0  0  0  0  0  0  0  0  0  0
  140.4150   69.4660  227.9790 C   0  0  0  0  0  0  0  0  0  0  0  0
  140.3640   68.6960  229.0880 F   0  0  0  0  0  0  0  0  0  0  0  0
  140.9720   70.7360  228.0800 C   0  0  0  0  0  0  0  0  0  0  0  0
  141.0530   71.5800  226.9730 C   0  0  0  0  0  0  0  0  0  0  0  0
  140.5650   71.1190  225.7710 C   0  0  0  0  0  0  0  0  0  0  0  0
  140.6220   71.8990  224.6750 N   0  0  0  0  0  0  0  0  0  0  0  0
  144.0787   76.3083  218.7618 H   0  0  0  0  0  0  0  0  0  0  0  0
  144.3965   74.6160  218.2502 H   0  0  0  0  0  0  0  0  0  0  0  0
  142.7173   75.2539  218.2502 H   0  0  0  0  0  0  0  0  0  0  0  0
  143.6681   75.6656  220.8629 H   0  0  0  0  0  0  0  0  0  0  0  0
  144.6328   73.6604  221.5755 H   0  0  0  0  0  0  0  0  0  0  0  0
  144.2095   72.8052  220.0536 H   0  0  0  0  0  0  0  0  0  0  0  0
  145.5033   74.0513  220.0536 H   0  0  0  0  0  0  0  0  0  0  0  0
  141.9950   73.3360  220.0430 H   0  0  0  0  0  0  0  0  0  0  0  0
  139.0544   75.3334  221.1754 H   0  0  0  0  0  0  0  0  0  0  0  0
  139.5955   73.8725  220.2418 H   0  0  0  0  0  0  0  0  0  0  0  0
  139.2270   74.0360  223.1770 H   0  0  0  0  0  0  0  0  0  0  0  0
  139.2213   69.9335  222.3373 H   0  0  0  0  0  0  0  0  0  0  0  0
  139.0796   68.4424  224.3077 H   0  0  0  0  0  0  0  0  0  0  0  0
  139.4926   68.0248  226.6896 H   0  0  0  0  0  0  0  0  0  0  0  0
  141.3559   71.0813  229.0513 H   0  0  0  0  0  0  0  0  0  0  0  0
  141.4937   72.5843  227.0576 H   0  0  0  0  0  0  0  0  0  0  0  0
  1  2  1  0
  2  3  1  0
  2  4  1  0
  4  5  1  0
  5  6  2  0
  5  7  1  0
  7  8  1  0
  8  9  1  0
  9 10  2  0
  9 11  1  0
 11 12  2  0
 12 13  1  0
 13 14  2  0
 14 15  1  0
 15 16  2  0
 16 17  1  0
 16 18  1  0
 18 19  2  0
 19 20  1  0
 20 21  2  0
 21 11  1  0
 20 14  1  0
  1 22  1  0
  1 23  1  0
  1 24  1  0
  2 25  1  0
  3 26  1  0
  3 27  1  0
  3 28  1  0
  4 29  1  0
  7 30  1  0
  7 31  1  0
  8 32  1  0
 12 33  1  0
 13 34  1  0
 15 35  1  0
 18 36  1  0
 19 37  1  0
M  END
>  <smiles>  (36) 
CC(C)NC(=O)CNC(=O)c1ccc2cc(F)ccc2n1

>  <score_type>  (36) 
oracle

>  <origin>  (36) 
autodockgpu

>  <m_score__min__energy>  (36) 
-7.1600000000000001

>  <m_primary>  (36) 
energy

>  <rmsd>  (36) 
2.1088549453527072

>  <m_score__min__rmsd>  (36) 
2.1088549453527072

>  <meeko>  (36) 
{"free_energy": -6.24, "intermolecular_energy": -7.43, "internal_energy": -1.48, "cluster_size": 45, "cluster_id": 1, "rank_in_cluster": 34}

>  <energy>  (36) 
-6.23

>  <cluster_rmsd>  (36) 
1.98

>  <cluster>  (36) 
1

$$$$

     RDKit          3D

 37 38  0  0  0  0  0  0  0  0999 V2000
  137.9060   77.0020  222.6950 C   0  0  0  0  0  0  0  0  0  0  0  0
  137.0910   75.8090  222.3290 C   0  0  0  0  0  0  0  0  0  0  0  0
  136.1960   75.4430  223.4770 C   0  0  0  0  0  0  0  0  0  0  0  0
  137.9760   74.6940  221.9650 N   0  0  0  0  0  0  0  0  0  0  0  0
  138.0050   74.1550  220.6720 C   0  0  0  0  0  0  0  0  0  0  0  0
  137.2860   74.5770  219.7330 O   0  0  0  0  0  0  0  0  0  0  0  0
  138.9280   73.0300  220.3950 C   0  0  0  0  0  0  0  0  0  0  0  0
  138.9440   72.0550  221.4760 N   0  0  0  0  0  0  0  0  0  0  0  0
  139.7590   72.3040  222.6180 C   0  0  0  0  0  0  0  0  0  0  0  0
  140.4270   73.3760  222.6170 O   0  0  0  0  0  0  0  0  0  0  0  0
  139.8140   71.3630  223.7290 C   0  0  0  0  0  0  0  0  0  0  0  0
  139.2520   70.1120  223.5490 C   0  0  0  0  0  0  0  0  0  0  0  0
  139.2980   69.2150  224.5920 C   0  0  0  0  0  0  0  0  0  0  0  0
  139.8900   69.5410  225.8070 C   0  0  0  0  0  0  0  0  0  0  0  0
  139.9440   68.6530  226.8630 C   0  0  0  0  0  0  0  0  0  0  0  0
  140.5380   69.0170  228.0440 C   0  0  0  0  0  0  0  0  0  0  0  0
  140.6080   68.1740  229.0960 F   0  0  0  0  0  0  0  0  0  0  0  0
  141.0870   70.2880  228.1750 C   0  0  0  0  0  0  0  0  0  0  0  0
  141.0480   71.2050  227.1260 C   0  0  0  0  0  0  0  0  0  0  0  0
  140.4470   70.8170  225.9500 C   0  0  0  0  0  0  0  0  0  0  0  0
  140.3850   71.6690  224.9090 N   0  0  0  0  0  0  0  0  0  0  0  0
  137.9628   77.0852  223.7904 H   0  0  0  0  0  0  0  0  0  0  0  0
  138.9199   76.8940  222.2824 H   0  0  0  0  0  0  0  0  0  0  0  0
  137.4367   77.9073  222.2824 H   0  0  0  0  0  0  0  0  0  0  0  0
  136.4598   76.0399  221.4582 H   0  0  0  0  0  0  0  0  0  0  0  0
  136.7116   75.6538  224.4256 H   0  0  0  0  0  0  0  0  0  0  0  0
  135.2703   76.0348  223.4234 H   0  0  0  0  0  0  0  0  0  0  0  0
  135.9502   74.3722  223.4234 H   0  0  0  0  0  0  0  0  0  0  0  0
  138.5760   74.3420  222.7500 H   0  0  0  0  0  0  0  0  0  0  0  0
  138.6080   72.5284  219.4698 H   0  0  0  0  0  0  0  0  0  0  0  0
  139.9432   73.4418  220.2956 H   0  0  0  0  0  0  0  0  0  0  0  0
  138.3830   71.1810  221.4450 H   0  0  0  0  0  0  0  0  0  0  0  0
  138.7790   69.8401  222.5938 H   0  0  0  0  0  0  0  0  0  0  0  0
  138.8558   68.2163  224.4611 H   0  0  0  0  0  0  0  0  0  0  0  0
  139.5083   67.6486  226.7563 H   0  0  0  0  0  0  0  0  0  0  0  0
  141.5613   70.5753  229.1250 H   0  0  0  0  0  0  0  0  0  0  0  0
  141.4845   72.2088  227.2347 H   0  0  0  0  0  0  0  0  0  0  0  0
  1  2  1  0
  2  3  1  0
  2  4  1  0
  4  5  1  0
  5  6  2  0
  5  7  1  0
  7  8  1  0
  8  9  1  0
  9 10  2  0
  9 11  1  0
 11 12  2  0
 12 13  1  0
 13 14  2  0
 14 15  1  0
 15 16  2  0
 16 17  1  0
 16 18  1  0
 18 19  2  0
 19 20  1  0
 20 21  2  0
 21 11  1  0
 20 14  1  0
  1 22  1  0
  1 23  1  0
  1 24  1  0
  2 25  1  0
  3 26  1  0
  3 27  1  0
  3 28  1  0
  4 29  1  0
  7 30  1  0
  7 31  1  0
  8 32  1  0
 12 33  1  0
 13 34  1  0
 15 35  1  0
 18 36  1  0
 19 37  1  0
M  END
>  <smiles>  (37) 
CC(C)NC(=O)CNC(=O)c1ccc2cc(F)ccc2n1

>  <score_type>  (37) 
oracle

>  <origin>  (37) 
autodockgpu

>  <m_score__min__energy>  (37) 
-7.1600000000000001

>  <m_primary>  (37) 
energy

>  <rmsd>  (37) 
2.6920581296243418

>  <m_score__min__rmsd>  (37) 
2.6920581296243418

>  <meeko>  (37) 
{"free_energy": -6.08, "intermolecular_energy": -7.27, "internal_energy": -1.42, "cluster_size": 45, "cluster_id": 1, "rank_in_cluster": 43}

>  <energy>  (37) 
-6.23

>  <cluster_rmsd>  (37) 
1.98

>  <cluster>  (37) 
1

$$$$

     RDKit          3D

 37 38  0  0  0  0  0  0  0  0999 V2000
  141.6940   79.0100  221.0960 C   0  0  0  0  0  0  0  0  0  0  0  0
  140.9980   78.2230  222.1530 C   0  0  0  0  0  0  0  0  0  0  0  0
  141.6030   78.5360  223.4910 C   0  0  0  0  0  0  0  0  0  0  0  0
  141.0880   76.7890  221.8490 N   0  0  0  0  0  0  0  0  0  0  0  0
  139.9740   76.0380  221.4490 C   0  0  0  0  0  0  0  0  0  0  0  0
  138.8240   76.5270  221.3220 O   0  0  0  0  0  0  0  0  0  0  0  0
  140.1570   74.5970  221.1630 C   0  0  0  0  0  0  0  0  0  0  0  0
  139.9520   73.7730  222.3460 N   0  0  0  0  0  0  0  0  0  0  0  0
  140.4380   72.4330  222.3470 C   0  0  0  0  0  0  0  0  0  0  0  0
  141.0260   72.0410  221.3000 O   0  0  0  0  0  0  0  0  0  0  0  0
  140.2600   71.5640  223.5030 C   0  0  0  0  0  0  0  0  0  0  0  0
  139.6150   70.3550  223.3150 C   0  0  0  0  0  0  0  0  0  0  0  0
  139.4420   69.5270  224.4000 C   0  0  0  0  0  0  0  0  0  0  0  0
  139.8990   69.8810  225.6660 C   0  0  0  0  0  0  0  0  0  0  0  0
  139.7330   69.0610  226.7650 C   0  0  0  0  0  0  0  0  0  0  0  0
  140.2000   69.4500  227.9940 C   0  0  0  0  0  0  0  0  0  0  0  0
  140.0540   68.6740  229.0900 F   0  0  0  0  0  0  0  0  0  0  0  0
  140.8410   70.6760  228.1310 C   0  0  0  0  0  0  0  0  0  0  0  0
  141.0220   71.5240  227.0390 C   0  0  0  0  0  0  0  0  0  0  0  0
  140.5470   71.1120  225.8150 C   0  0  0  0  0  0  0  0  0  0  0  0
  140.6990   71.8970  224.7320 N   0  0  0  0  0  0  0  0  0  0  0  0
  142.3525   79.7546  221.5670 H   0  0  0  0  0  0  0  0  0  0  0  0
  142.2944   78.3331  220.4704 H   0  0  0  0  0  0  0  0  0  0  0  0
  140.9488   79.5231  220.4704 H   0  0  0  0  0  0  0  0  0  0  0  0
  139.9331   78.4973  222.1817 H   0  0  0  0  0  0  0  0  0  0  0  0
  140.9299   78.1878  224.2883 H   0  0  0  0  0  0  0  0  0  0  0  0
  142.5739   78.0271  223.5825 H   0  0  0  0  0  0  0  0  0  0  0  0
  141.7485   79.6225  223.5825 H   0  0  0  0  0  0  0  0  0  0  0  0
  142.0490   76.3830  221.9560 H   0  0  0  0  0  0  0  0  0  0  0  0
  139.4348   74.2943  220.3905 H   0  0  0  0  0  0  0  0  0  0  0  0
  141.1922   74.4483  220.8221 H   0  0  0  0  0  0  0  0  0  0  0  0
  139.4630   74.1260  223.1920 H   0  0  0  0  0  0  0  0  0  0  0  0
  139.2485   70.0620  222.3201 H   0  0  0  0  0  0  0  0  0  0  0  0
  138.9306   68.5627  224.2637 H   0  0  0  0  0  0  0  0  0  0  0  0
  139.2242   68.0921  226.6538 H   0  0  0  0  0  0  0  0  0  0  0  0
  141.2125   70.9830  229.1198 H   0  0  0  0  0  0  0  0  0  0  0  0
  141.5294   72.4934  227.1526 H   0  0  0  0  0  0  0  0  0  0  0  0
  1  2  1  0
  2  3  1  0
  2  4  1  0
  4  5  1  0
  5  6  2  0
  5  7  1  0
  7  8  1  0
  8  9  1  0
  9 10  2  0
  9 11  1  0
 11 12  2  0
 12 13  1  0
 13 14  2  0
 14 15  1  0
 15 16  2  0
 16 17  1  0
 16 18  1  0
 18 19  2  0
 19 20  1  0
 20 21  2  0
 21 11  1  0
 20 14  1  0
  1 22  1  0
  1 23  1  0
  1 24  1  0
  2 25  1  0
  3 26  1  0
  3 27  1  0
  3 28  1  0
  4 29  1  0
  7 30  1  0
  7 31  1  0
  8 32  1  0
 12 33  1  0
 13 34  1  0
 15 35  1  0
 18 36  1  0
 19 37  1  0
M  END
>  <smiles>  (38) 
CC(C)NC(=O)CNC(=O)c1ccc2cc(F)ccc2n1

>  <score_type>  (38) 
oracle

>  <origin>  (38) 
autodockgpu

>  <m_score__min__energy>  (38) 
-7.1600000000000001

>  <m_primary>  (38) 
energy

>  <rmsd>  (38) 
2.039822408836788

>  <m_score__min__rmsd>  (38) 
2.039822408836788

>  <meeko>  (38) 
{"free_energy": -7.04, "intermolecular_energy": -8.24, "internal_energy": -0.71, "cluster_size": 45, "cluster_id": 1, "rank_in_cluster": 15}

>  <energy>  (38) 
-6.11

>  <cluster_rmsd>  (38) 
2.0

>  <cluster>  (38) 
1

$$$$

     RDKit          3D

 37 38  0  0  0  0  0  0  0  0999 V2000
  143.8290   74.6620  218.6410 C   0  0  0  0  0  0  0  0  0  0  0  0
  143.5490   74.5960  220.1030 C   0  0  0  0  0  0  0  0  0  0  0  0
  144.5260   73.6640  220.7590 C   0  0  0  0  0  0  0  0  0  0  0  0
  142.1640   74.1600  220.3260 N   0  0  0  0  0  0  0  0  0  0  0  0
  141.1930   75.0080  220.8770 C   0  0  0  0  0  0  0  0  0  0  0  0
  141.4290   76.1930  221.2200 O   0  0  0  0  0  0  0  0  0  0  0  0
  139.8220   74.4840  221.0680 C   0  0  0  0  0  0  0  0  0  0  0  0
  139.7060   73.6740  222.2720 N   0  0  0  0  0  0  0  0  0  0  0  0
  140.2590   72.3600  222.2770 C   0  0  0  0  0  0  0  0  0  0  0  0
  140.8240   71.9780  221.2130 O   0  0  0  0  0  0  0  0  0  0  0  0
  140.1730   71.5070  223.4540 C   0  0  0  0  0  0  0  0  0  0  0  0
  139.5840   70.2630  223.3130 C   0  0  0  0  0  0  0  0  0  0  0  0
  139.4970   69.4490  224.4190 C   0  0  0  0  0  0  0  0  0  0  0  0
  139.9840   69.8500  225.6590 C   0  0  0  0  0  0  0  0  0  0  0  0
  139.9050   69.0450  226.7780 C   0  0  0  0  0  0  0  0  0  0  0  0
  140.3990   69.4810  227.9800 C   0  0  0  0  0  0  0  0  0  0  0  0
  140.3370   68.7200  229.0940 F   0  0  0  0  0  0  0  0  0  0  0  0
  140.9810   70.7400  228.0690 C   0  0  0  0  0  0  0  0  0  0  0  0
  141.0750   71.5740  226.9560 C   0  0  0  0  0  0  0  0  0  0  0  0
  140.5730   71.1150  225.7600 C   0  0  0  0  0  0  0  0  0  0  0  0
  140.6420   71.8850  224.6580 N   0  0  0  0  0  0  0  0  0  0  0  0
  144.8883   74.9117  218.4815 H   0  0  0  0  0  0  0  0  0  0  0  0
  143.6087   73.6873  218.1811 H   0  0  0  0  0  0  0  0  0  0  0  0
  143.1966   75.4357  218.1811 H   0  0  0  0  0  0  0  0  0  0  0  0
  143.6678   75.5935  220.5512 H   0  0  0  0  0  0  0  0  0  0  0  0
  144.4367   73.7492  221.8521 H   0  0  0  0  0  0  0  0  0  0  0  0
  144.3087   72.6301  220.4528 H   0  0  0  0  0  0  0  0  0  0  0  0
  145.5485   73.9298  220.4528 H   0  0  0  0  0  0  0  0  0  0  0  0
  141.9690   73.1710  220.0400 H   0  0  0  0  0  0  0  0  0  0  0  0
  139.1258   75.3323  221.1432 H   0  0  0  0  0  0  0  0  0  0  0  0
  139.5817   73.8443  220.2060 H   0  0  0  0  0  0  0  0  0  0  0  0
  139.2340   74.0190  223.1310 H   0  0  0  0  0  0  0  0  0  0  0  0
  139.1942   69.9323  222.3390 H   0  0  0  0  0  0  0  0  0  0  0  0
  139.0312   68.4574  224.3204 H   0  0  0  0  0  0  0  0  0  0  0  0
  139.4435   68.0492  226.7046 H   0  0  0  0  0  0  0  0  0  0  0  0
  141.3750   71.0849  229.0363 H   0  0  0  0  0  0  0  0  0  0  0  0
  141.5368   72.5695  227.0316 H   0  0  0  0  0  0  0  0  0  0  0  0
  1  2  1  0
  2  3  1  0
  2  4  1  0
  4  5  1  0
  5  6  2  0
  5  7  1  0
  7  8  1  0
  8  9  1  0
  9 10  2  0
  9 11  1  0
 11 12  2  0
 12 13  1  0
 13 14  2  0
 14 15  1  0
 15 16  2  0
 16 17  1  0
 16 18  1  0
 18 19  2  0
 19 20  1  0
 20 21  2  0
 21 11  1  0
 20 14  1  0
  1 22  1  0
  1 23  1  0
  1 24  1  0
  2 25  1  0
  3 26  1  0
  3 27  1  0
  3 28  1  0
  4 29  1  0
  7 30  1  0
  7 31  1  0
  8 32  1  0
 12 33  1  0
 13 34  1  0
 15 35  1  0
 18 36  1  0
 19 37  1  0
M  END
>  <smiles>  (39) 
CC(C)NC(=O)CNC(=O)c1ccc2cc(F)ccc2n1

>  <score_type>  (39) 
oracle

>  <origin>  (39) 
autodockgpu

>  <m_score__min__energy>  (39) 
-7.1600000000000001

>  <m_primary>  (39) 
energy

>  <rmsd>  (39) 
2.2593436938415197

>  <m_score__min__rmsd>  (39) 
2.2593436938415197

>  <meeko>  (39) 
{"free_energy": -6.18, "intermolecular_energy": -7.38, "internal_energy": -1.48, "cluster_size": 4, "cluster_id": 2, "rank_in_cluster": 1}

>  <energy>  (39) 
-6.1

>  <cluster_rmsd>  (39) 
1.61

>  <cluster>  (39) 
1

$$$$

     RDKit          3D

 37 38  0  0  0  0  0  0  0  0999 V2000
  143.5620   75.8990  219.3620 C   0  0  0  0  0  0  0  0  0  0  0  0
  143.5100   74.8790  220.4470 C   0  0  0  0  0  0  0  0  0  0  0  0
  144.5490   73.8260  220.1940 C   0  0  0  0  0  0  0  0  0  0  0  0
  142.1650   74.2950  220.5190 N   0  0  0  0  0  0  0  0  0  0  0  0
  141.0850   74.9760  221.0980 C   0  0  0  0  0  0  0  0  0  0  0  0
  141.1810   76.1260  221.5950 O   0  0  0  0  0  0  0  0  0  0  0  0
  139.7620   74.3100  221.1280 C   0  0  0  0  0  0  0  0  0  0  0  0
  139.5930   73.4810  222.3120 N   0  0  0  0  0  0  0  0  0  0  0  0
  140.3300   72.2650  222.4160 C   0  0  0  0  0  0  0  0  0  0  0  0
  141.0980   71.9830  221.4530 O   0  0  0  0  0  0  0  0  0  0  0  0
  140.2000   71.3980  223.5780 C   0  0  0  0  0  0  0  0  0  0  0  0
  139.5630   70.1810  223.4130 C   0  0  0  0  0  0  0  0  0  0  0  0
  139.4340   69.3530  224.5050 C   0  0  0  0  0  0  0  0  0  0  0  0
  139.9260   69.7150  225.7550 C   0  0  0  0  0  0  0  0  0  0  0  0
  139.8050   68.8960  226.8600 C   0  0  0  0  0  0  0  0  0  0  0  0
  140.3050   69.2930  228.0730 C   0  0  0  0  0  0  0  0  0  0  0  0
  140.2030   68.5180  229.1740 F   0  0  0  0  0  0  0  0  0  0  0  0
  140.9360   70.5270  228.1870 C   0  0  0  0  0  0  0  0  0  0  0  0
  141.0730   71.3740  227.0880 C   0  0  0  0  0  0  0  0  0  0  0  0
  140.5640   70.9540  225.8810 C   0  0  0  0  0  0  0  0  0  0  0  0
  140.6720   71.7380  224.7920 N   0  0  0  0  0  0  0  0  0  0  0  0
  143.6132   76.9042  219.8059 H   0  0  0  0  0  0  0  0  0  0  0  0
  144.4525   75.7272  218.7396 H   0  0  0  0  0  0  0  0  0  0  0  0
  142.6586   75.8186  218.7396 H   0  0  0  0  0  0  0  0  0  0  0  0
  143.7259   75.3532  221.4158 H   0  0  0  0  0  0  0  0  0  0  0  0
  144.9256   73.4443  221.1544 H   0  0  0  0  0  0  0  0  0  0  0  0
  144.1021   73.0001  219.6211 H   0  0  0  0  0  0  0  0  0  0  0  0
  145.3808   74.2618  219.6211 H   0  0  0  0  0  0  0  0  0  0  0  0
  142.0850   73.3360  220.1040 H   0  0  0  0  0  0  0  0  0  0  0  0
  138.9768   75.0804  221.1194 H   0  0  0  0  0  0  0  0  0  0  0  0
  139.6910   73.6578  220.2450 H   0  0  0  0  0  0  0  0  0  0  0  0
  138.9510   73.7420  223.0870 H   0  0  0  0  0  0  0  0  0  0  0  0
  139.1683   69.8817  222.4308 H   0  0  0  0  0  0  0  0  0  0  0  0
  138.9301   68.3824  224.3866 H   0  0  0  0  0  0  0  0  0  0  0  0
  139.3051   67.9206  226.7665 H   0  0  0  0  0  0  0  0  0  0  0  0
  141.3347   70.8409  229.1630 H   0  0  0  0  0  0  0  0  0  0  0  0
  141.5732   72.3490  227.1833 H   0  0  0  0  0  0  0  0  0  0  0  0
  1  2  1  0
  2  3  1  0
  2  4  1  0
  4  5  1  0
  5  6  2  0
  5  7  1  0
  7  8  1  0
  8  9  1  0
  9 10  2  0
  9 11  1  0
 11 12  2  0
 12 13  1  0
 13 14  2  0
 14 15  1  0
 15 16  2  0
 16 17  1  0
 16 18  1  0
 18 19  2  0
 19 20  1  0
 20 21  2  0
 21 11  1  0
 20 14  1  0
  1 22  1  0
  1 23  1  0
  1 24  1  0
  2 25  1  0
  3 26  1  0
  3 27  1  0
  3 28  1  0
  4 29  1  0
  7 30  1  0
  7 31  1  0
  8 32  1  0
 12 33  1  0
 13 34  1  0
 15 35  1  0
 18 36  1  0
 19 37  1  0
M  END
>  <smiles>  (40) 
CC(C)NC(=O)CNC(=O)c1ccc2cc(F)ccc2n1

>  <score_type>  (40) 
oracle

>  <origin>  (40) 
autodockgpu

>  <m_score__min__energy>  (40) 
-7.1600000000000001

>  <m_primary>  (40) 
energy

>  <rmsd>  (40) 
2.0346208191086057

>  <m_score__min__rmsd>  (40) 
2.0346208191086057

>  <meeko>  (40) 
{"free_energy": -6.39, "intermolecular_energy": -7.58, "internal_energy": -1.4, "cluster_size": 45, "cluster_id": 1, "rank_in_cluster": 30}

>  <energy>  (40) 
-6.1

>  <cluster_rmsd>  (40) 
1.43

>  <cluster>  (40) 
1

$$$$

     RDKit          3D

 37 38  0  0  0  0  0  0  0  0999 V2000
  141.5410   79.1900  221.2580 C   0  0  0  0  0  0  0  0  0  0  0  0
  140.9870   78.3140  222.3290 C   0  0  0  0  0  0  0  0  0  0  0  0
  141.8070   78.4680  223.5770 C   0  0  0  0  0  0  0  0  0  0  0  0
  140.9700   76.9180  221.8720 N   0  0  0  0  0  0  0  0  0  0  0  0
  139.7790   76.1920  221.7310 C   0  0  0  0  0  0  0  0  0  0  0  0
  138.6460   76.6730  221.9820 O   0  0  0  0  0  0  0  0  0  0  0  0
  139.8560   74.7890  221.2640 C   0  0  0  0  0  0  0  0  0  0  0  0
  139.6120   73.8390  222.3410 N   0  0  0  0  0  0  0  0  0  0  0  0
  140.4480   72.6900  222.4510 C   0  0  0  0  0  0  0  0  0  0  0  0
  141.3650   72.5700  221.5890 O   0  0  0  0  0  0  0  0  0  0  0  0
  140.2500   71.7080  223.5080 C   0  0  0  0  0  0  0  0  0  0  0  0
  139.5720   70.5430  223.1940 C   0  0  0  0  0  0  0  0  0  0  0  0
  139.3790   69.6090  224.1850 C   0  0  0  0  0  0  0  0  0  0  0  0
  139.8470   69.8130  225.4800 C   0  0  0  0  0  0  0  0  0  0  0  0
  139.6610   68.8850  226.4850 C   0  0  0  0  0  0  0  0  0  0  0  0
  140.1400   69.1270  227.7470 C   0  0  0  0  0  0  0  0  0  0  0  0
  139.9750   68.2420  228.7540 F   0  0  0  0  0  0  0  0  0  0  0  0
  140.8140   70.3140  228.0110 C   0  0  0  0  0  0  0  0  0  0  0  0
  141.0160   71.2690  227.0150 C   0  0  0  0  0  0  0  0  0  0  0  0
  140.5280   71.0030  225.7560 C   0  0  0  0  0  0  0  0  0  0  0  0
  140.6990   71.8950  224.7630 N   0  0  0  0  0  0  0  0  0  0  0  0
  142.0756   80.0354  221.7157 H   0  0  0  0  0  0  0  0  0  0  0  0
  142.2372   78.6105  220.6339 H   0  0  0  0  0  0  0  0  0  0  0  0
  140.7190   79.5706  220.6339 H   0  0  0  0  0  0  0  0  0  0  0  0
  139.9523   78.6108  222.5554 H   0  0  0  0  0  0  0  0  0  0  0  0
  141.1599   78.3465  224.4582 H   0  0  0  0  0  0  0  0  0  0  0  0
  142.5967   77.7025  223.5936 H   0  0  0  0  0  0  0  0  0  0  0  0
  142.2652   79.4679  223.5936 H   0  0  0  0  0  0  0  0  0  0  0  0
  141.9170   76.5180  221.6620 H   0  0  0  0  0  0  0  0  0  0  0  0
  139.1024   74.6350  220.4777 H   0  0  0  0  0  0  0  0  0  0  0  0
  140.8727   74.6144  220.8820 H   0  0  0  0  0  0  0  0  0  0  0  0
  138.8480   73.9680  223.0330 H   0  0  0  0  0  0  0  0  0  0  0  0
  139.1961   70.3681  222.1751 H   0  0  0  0  0  0  0  0  0  0  0  0
  138.8420   68.6786  223.9486 H   0  0  0  0  0  0  0  0  0  0  0  0
  139.1263   67.9475  226.2726 H   0  0  0  0  0  0  0  0  0  0  0  0
  141.1953   70.5036  229.0252 H   0  0  0  0  0  0  0  0  0  0  0  0
  141.5494   72.2068  227.2293 H   0  0  0  0  0  0  0  0  0  0  0  0
  1  2  1  0
  2  3  1  0
  2  4  1  0
  4  5  1  0
  5  6  2  0
  5  7  1  0
  7  8  1  0
  8  9  1  0
  9 10  2  0
  9 11  1  0
 11 12  2  0
 12 13  1  0
 13 14  2  0
 14 15  1  0
 15 16  2  0
 16 17  1  0
 16 18  1  0
 18 19  2  0
 19 20  1  0
 20 21  2  0
 21 11  1  0
 20 14  1  0
  1 22  1  0
  1 23  1  0
  1 24  1  0
  2 25  1  0
  3 26  1  0
  3 27  1  0
  3 28  1  0
  4 29  1  0
  7 30  1  0
  7 31  1  0
  8 32  1  0
 12 33  1  0
 13 34  1  0
 15 35  1  0
 18 36  1  0
 19 37  1  0
M  END
>  <smiles>  (41) 
CC(C)NC(=O)CNC(=O)c1ccc2cc(F)ccc2n1

>  <score_type>  (41) 
oracle

>  <origin>  (41) 
autodockgpu

>  <m_score__min__energy>  (41) 
-7.1600000000000001

>  <m_primary>  (41) 
energy

>  <rmsd>  (41) 
2.1225041142534016

>  <m_score__min__rmsd>  (41) 
2.1225041142534016

>  <meeko>  (41) 
{"free_energy": -7.15, "intermolecular_energy": -8.34, "internal_energy": -0.73, "cluster_size": 45, "cluster_id": 1, "rank_in_cluster": 5}

>  <energy>  (41) 
-6.08

>  <cluster_rmsd>  (41) 
1.78

>  <cluster>  (41) 
1

$$$$

     RDKit          3D

 37 38  0  0  0  0  0  0  0  0999 V2000
  137.8140   77.0700  222.7140 C   0  0  0  0  0  0  0  0  0  0  0  0
  137.0370   75.8540  222.3430 C   0  0  0  0  0  0  0  0  0  0  0  0
  136.1480   75.4590  223.4860 C   0  0  0  0  0  0  0  0  0  0  0  0
  137.9560   74.7660  221.9810 N   0  0  0  0  0  0  0  0  0  0  0  0
  137.8970   74.1210  220.7380 C   0  0  0  0  0  0  0  0  0  0  0  0
  137.0640   74.4180  219.8470 O   0  0  0  0  0  0  0  0  0  0  0  0
  138.8630   73.0330  220.4590 C   0  0  0  0  0  0  0  0  0  0  0  0
  138.9080   72.0510  221.5330 N   0  0  0  0  0  0  0  0  0  0  0  0
  139.7490   72.2950  222.6570 C   0  0  0  0  0  0  0  0  0  0  0  0
  140.4130   73.3700  222.6470 O   0  0  0  0  0  0  0  0  0  0  0  0
  139.8330   71.3470  223.7600 C   0  0  0  0  0  0  0  0  0  0  0  0
  139.3480   70.0680  223.5550 C   0  0  0  0  0  0  0  0  0  0  0  0
  139.4220   69.1640  224.5900 C   0  0  0  0  0  0  0  0  0  0  0  0
  139.9680   69.5110  225.8220 C   0  0  0  0  0  0  0  0  0  0  0  0
  140.0500   68.6150  226.8700 C   0  0  0  0  0  0  0  0  0  0  0  0
  140.5960   69.0000  228.0670 C   0  0  0  0  0  0  0  0  0  0  0  0
  140.6900   68.1510  229.1130 F   0  0  0  0  0  0  0  0  0  0  0  0
  141.0680   70.2990  228.2230 C   0  0  0  0  0  0  0  0  0  0  0  0
  140.9990   71.2240  227.1820 C   0  0  0  0  0  0  0  0  0  0  0  0
  140.4470   70.8140  225.9890 C   0  0  0  0  0  0  0  0  0  0  0  0
  140.3590   71.6730  224.9560 N   0  0  0  0  0  0  0  0  0  0  0  0
  137.8662   77.1516  223.8097 H   0  0  0  0  0  0  0  0  0  0  0  0
  138.8316   76.9945  222.3031 H   0  0  0  0  0  0  0  0  0  0  0  0
  137.3179   77.9616  222.3031 H   0  0  0  0  0  0  0  0  0  0  0  0
  136.4033   76.0682  221.4698 H   0  0  0  0  0  0  0  0  0  0  0  0
  136.6526   75.6832  224.4374 H   0  0  0  0  0  0  0  0  0  0  0  0
  135.2053   76.0229  223.4291 H   0  0  0  0  0  0  0  0  0  0  0  0
  135.9346   74.3814  223.4291 H   0  0  0  0  0  0  0  0  0  0  0  0
  138.6510   74.5200  222.7260 H   0  0  0  0  0  0  0  0  0  0  0  0
  138.5679   72.5269  219.5280 H   0  0  0  0  0  0  0  0  0  0  0  0
  139.8628   73.4828  220.3695 H   0  0  0  0  0  0  0  0  0  0  0  0
  138.3490   71.1760  221.5090 H   0  0  0  0  0  0  0  0  0  0  0  0
  138.9130   69.7799  222.5866 H   0  0  0  0  0  0  0  0  0  0  0  0
  139.0406   68.1432  224.4399 H   0  0  0  0  0  0  0  0  0  0  0  0
  139.6757   67.5884  226.7436 H   0  0  0  0  0  0  0  0  0  0  0  0
  141.5041   70.6024  229.1862 H   0  0  0  0  0  0  0  0  0  0  0  0
  141.3741   72.2501  227.3099 H   0  0  0  0  0  0  0  0  0  0  0  0
  1  2  1  0
  2  3  1  0
  2  4  1  0
  4  5  1  0
  5  6  2  0
  5  7  1  0
  7  8  1  0
  8  9  1  0
  9 10  2  0
  9 11  1  0
 11 12  2  0
 12 13  1  0
 13 14  2  0
 14 15  1  0
 15 16  2  0
 16 17  1  0
 16 18  1  0
 18 19  2  0
 19 20  1  0
 20 21  2  0
 21 11  1  0
 20 14  1  0
  1 22  1  0
  1 23  1  0
  1 24  1  0
  2 25  1  0
  3 26  1  0
  3 27  1  0
  3 28  1  0
  4 29  1  0
  7 30  1  0
  7 31  1  0
  8 32  1  0
 12 33  1  0
 13 34  1  0
 15 35  1  0
 18 36  1  0
 19 37  1  0
M  END
>  <smiles>  (42) 
CC(C)NC(=O)CNC(=O)c1ccc2cc(F)ccc2n1

>  <score_type>  (42) 
oracle

>  <origin>  (42) 
autodockgpu

>  <m_score__min__energy>  (42) 
-7.1600000000000001

>  <m_primary>  (42) 
energy

>  <rmsd>  (42) 
2.7130081277081786

>  <m_score__min__rmsd>  (42) 
2.7130081277081786

>  <meeko>  (42) 
{"free_energy": -6.07, "intermolecular_energy": -7.27, "internal_energy": -1.43, "cluster_size": 45, "cluster_id": 1, "rank_in_cluster": 44}

>  <energy>  (42) 
-6.08

>  <cluster_rmsd>  (42) 
1.75

>  <cluster>  (42) 
1

$$$$

     RDKit          3D

 37 38  0  0  0  0  0  0  0  0999 V2000
  143.6390   75.5390  218.9590 C   0  0  0  0  0  0  0  0  0  0  0  0
  143.4540   74.9000  220.2930 C   0  0  0  0  0  0  0  0  0  0  0  0
  144.4790   73.8180  220.4760 C   0  0  0  0  0  0  0  0  0  0  0  0
  142.0900   74.3670  220.4060 N   0  0  0  0  0  0  0  0  0  0  0  0
  141.0720   75.0550  221.0800 C   0  0  0  0  0  0  0  0  0  0  0  0
  141.2450   76.1680  221.6360 O   0  0  0  0  0  0  0  0  0  0  0  0
  139.7260   74.4420  221.1450 C   0  0  0  0  0  0  0  0  0  0  0  0
  139.5660   73.5920  222.3170 N   0  0  0  0  0  0  0  0  0  0  0  0
  140.3190   72.3850  222.4030 C   0  0  0  0  0  0  0  0  0  0  0  0
  141.0910   72.1270  221.4360 O   0  0  0  0  0  0  0  0  0  0  0  0
  140.1990   71.4980  223.5520 C   0  0  0  0  0  0  0  0  0  0  0  0
  139.5760   70.2760  223.3680 C   0  0  0  0  0  0  0  0  0  0  0  0
  139.4570   69.4310  224.4470 C   0  0  0  0  0  0  0  0  0  0  0  0
  139.9450   69.7790  225.7020 C   0  0  0  0  0  0  0  0  0  0  0  0
  139.8330   68.9410  226.7940 C   0  0  0  0  0  0  0  0  0  0  0  0
  140.3290   69.3250  228.0140 C   0  0  0  0  0  0  0  0  0  0  0  0
  140.2360   68.5320  229.1030 F   0  0  0  0  0  0  0  0  0  0  0  0
  140.9450   70.5650  228.1470 C   0  0  0  0  0  0  0  0  0  0  0  0
  141.0720   71.4300  227.0610 C   0  0  0  0  0  0  0  0  0  0  0  0
  140.5680   71.0230  225.8470 C   0  0  0  0  0  0  0  0  0  0  0  0
  140.6670   71.8250  224.7710 N   0  0  0  0  0  0  0  0  0  0  0  0
  143.9426   76.5877  219.0937 H   0  0  0  0  0  0  0  0  0  0  0  0
  144.4182   75.0007  218.3995 H   0  0  0  0  0  0  0  0  0  0  0  0
  142.6927   75.5002  218.3995 H   0  0  0  0  0  0  0  0  0  0  0  0
  143.5932   75.6476  221.0878 H   0  0  0  0  0  0  0  0  0  0  0  0
  144.6424   73.6456  221.5500 H   0  0  0  0  0  0  0  0  0  0  0  0
  144.1207   72.8902  220.0060 H   0  0  0  0  0  0  0  0  0  0  0  0
  145.4248   74.1256  220.0060 H   0  0  0  0  0  0  0  0  0  0  0  0
  141.9480   73.4370  219.9410 H   0  0  0  0  0  0  0  0  0  0  0  0
  138.9731   75.2431  221.1826 H   0  0  0  0  0  0  0  0  0  0  0  0
  139.5968   73.8138  220.2513 H   0  0  0  0  0  0  0  0  0  0  0  0
  138.9210   73.8340  223.0950 H   0  0  0  0  0  0  0  0  0  0  0  0
  139.1849   69.9870  222.3814 H   0  0  0  0  0  0  0  0  0  0  0  0
  138.9640   68.4567  224.3140 H   0  0  0  0  0  0  0  0  0  0  0  0
  139.3441   67.9617  226.6851 H   0  0  0  0  0  0  0  0  0  0  0  0
  141.3395   70.8690  229.1278 H   0  0  0  0  0  0  0  0  0  0  0  0
  141.5608   72.4092  227.1714 H   0  0  0  0  0  0  0  0  0  0  0  0
  1  2  1  0
  2  3  1  0
  2  4  1  0
  4  5  1  0
  5  6  2  0
  5  7  1  0
  7  8  1  0
  8  9  1  0
  9 10  2  0
  9 11  1  0
 11 12  2  0
 12 13  1  0
 13 14  2  0
 14 15  1  0
 15 16  2  0
 16 17  1  0
 16 18  1  0
 18 19  2  0
 19 20  1  0
 20 21  2  0
 21 11  1  0
 20 14  1  0
  1 22  1  0
  1 23  1  0
  1 24  1  0
  2 25  1  0
  3 26  1  0
  3 27  1  0
  3 28  1  0
  4 29  1  0
  7 30  1  0
  7 31  1  0
  8 32  1  0
 12 33  1  0
 13 34  1  0
 15 35  1  0
 18 36  1  0
 19 37  1  0
M  END
>  <smiles>  (43) 
CC(C)NC(=O)CNC(=O)c1ccc2cc(F)ccc2n1

>  <score_type>  (43) 
oracle

>  <origin>  (43) 
autodockgpu

>  <m_score__min__energy>  (43) 
-7.1600000000000001

>  <m_primary>  (43) 
energy

>  <rmsd>  (43) 
2.0600117563589353

>  <m_score__min__rmsd>  (43) 
2.0600117563589353

>  <meeko>  (43) 
{"free_energy": -6.39, "intermolecular_energy": -7.58, "internal_energy": -1.39, "cluster_size": 45, "cluster_id": 1, "rank_in_cluster": 29}

>  <energy>  (43) 
-6.08

>  <cluster_rmsd>  (43) 
1.75

>  <cluster>  (43) 
1

$$$$

     RDKit          3D

 37 38  0  0  0  0  0  0  0  0999 V2000
  141.4540   78.9570  221.2540 C   0  0  0  0  0  0  0  0  0  0  0  0
  140.9510   78.1160  222.3760 C   0  0  0  0  0  0  0  0  0  0  0  0
  141.8110   78.3310  223.5870 C   0  0  0  0  0  0  0  0  0  0  0  0
  140.9400   76.7030  221.9740 N   0  0  0  0  0  0  0  0  0  0  0  0
  139.7610   76.0390  221.6100 C   0  0  0  0  0  0  0  0  0  0  0  0
  138.6330   76.5920  221.6010 O   0  0  0  0  0  0  0  0  0  0  0  0
  139.8430   74.6130  221.2190 C   0  0  0  0  0  0  0  0  0  0  0  0
  139.5970   73.7210  222.3440 N   0  0  0  0  0  0  0  0  0  0  0  0
  140.4490   72.5930  222.5300 C   0  0  0  0  0  0  0  0  0  0  0  0
  141.3800   72.4400  221.6900 O   0  0  0  0  0  0  0  0  0  0  0  0
  140.2490   71.6690  223.6380 C   0  0  0  0  0  0  0  0  0  0  0  0
  139.5650   70.4930  223.3880 C   0  0  0  0  0  0  0  0  0  0  0  0
  139.3700   69.6130  224.4270 C   0  0  0  0  0  0  0  0  0  0  0  0
  139.8430   69.8810  225.7070 C   0  0  0  0  0  0  0  0  0  0  0  0
  139.6560   69.0080  226.7600 C   0  0  0  0  0  0  0  0  0  0  0  0
  140.1410   69.3130  228.0060 C   0  0  0  0  0  0  0  0  0  0  0  0
  139.9750   68.4830  229.0590 F   0  0  0  0  0  0  0  0  0  0  0  0
  140.8220   70.5090  228.2060 C   0  0  0  0  0  0  0  0  0  0  0  0
  141.0250   71.4090  227.1610 C   0  0  0  0  0  0  0  0  0  0  0  0
  140.5310   71.0810  225.9190 C   0  0  0  0  0  0  0  0  0  0  0  0
  140.7040   71.9190  224.8800 N   0  0  0  0  0  0  0  0  0  0  0  0
  141.9787   79.8344  221.6600 H   0  0  0  0  0  0  0  0  0  0  0  0
  142.1481   78.3678  220.6367 H   0  0  0  0  0  0  0  0  0  0  0  0
  140.6065   79.2898  220.6367 H   0  0  0  0  0  0  0  0  0  0  0  0
  139.9200   78.4059  222.6270 H   0  0  0  0  0  0  0  0  0  0  0  0
  141.2093   78.1806  224.4955 H   0  0  0  0  0  0  0  0  0  0  0  0
  142.6449   77.6137  223.5766 H   0  0  0  0  0  0  0  0  0  0  0  0
  142.2092   79.3563  223.5766 H   0  0  0  0  0  0  0  0  0  0  0  0
  141.8820   76.2420  221.9830 H   0  0  0  0  0  0  0  0  0  0  0  0
  139.0928   74.4154  220.4391 H   0  0  0  0  0  0  0  0  0  0  0  0
  140.8617   74.4209  220.8510 H   0  0  0  0  0  0  0  0  0  0  0  0
  138.8210   73.8760  223.0170 H   0  0  0  0  0  0  0  0  0  0  0  0
  139.1855   70.2666  222.3807 H   0  0  0  0  0  0  0  0  0  0  0  0
  138.8268   68.6747  224.2410 H   0  0  0  0  0  0  0  0  0  0  0  0
  139.1156   68.0636  226.5989 H   0  0  0  0  0  0  0  0  0  0  0  0
  141.2077   70.7493  229.2077 H   0  0  0  0  0  0  0  0  0  0  0  0
  141.5642   72.3537  227.3243 H   0  0  0  0  0  0  0  0  0  0  0  0
  1  2  1  0
  2  3  1  0
  2  4  1  0
  4  5  1  0
  5  6  2  0
  5  7  1  0
  7  8  1  0
  8  9  1  0
  9 10  2  0
  9 11  1  0
 11 12  2  0
 12 13  1  0
 13 14  2  0
 14 15  1  0
 15 16  2  0
 16 17  1  0
 16 18  1  0
 18 19  2  0
 19 20  1  0
 20 21  2  0
 21 11  1  0
 20 14  1  0
  1 22  1  0
  1 23  1  0
  1 24  1  0
  2 25  1  0
  3 26  1  0
  3 27  1  0
  3 28  1  0
  4 29  1  0
  7 30  1  0
  7 31  1  0
  8 32  1  0
 12 33  1  0
 13 34  1  0
 15 35  1  0
 18 36  1  0
 19 37  1  0
M  END
>  <smiles>  (44) 
CC(C)NC(=O)CNC(=O)c1ccc2cc(F)ccc2n1

>  <score_type>  (44) 
oracle

>  <origin>  (44) 
autodockgpu

>  <m_score__min__energy>  (44) 
-7.1600000000000001

>  <m_primary>  (44) 
energy

>  <rmsd>  (44) 
2.0709957601689437

>  <m_score__min__rmsd>  (44) 
2.0709957601689437

>  <meeko>  (44) 
{"free_energy": -7.16, "intermolecular_energy": -8.35, "internal_energy": -0.71, "cluster_size": 45, "cluster_id": 1, "rank_in_cluster": 1}

>  <energy>  (44) 
-6.07

>  <cluster_rmsd>  (44) 
1.79

>  <cluster>  (44) 
1

$$$$

     RDKit          3D

 37 38  0  0  0  0  0  0  0  0999 V2000
  143.5220   75.8800  219.3780 C   0  0  0  0  0  0  0  0  0  0  0  0
  143.4570   74.8680  220.4700 C   0  0  0  0  0  0  0  0  0  0  0  0
  144.4930   73.8080  220.2320 C   0  0  0  0  0  0  0  0  0  0  0  0
  142.1080   74.2900  220.5350 N   0  0  0  0  0  0  0  0  0  0  0  0
  141.0430   74.9450  221.1680 C   0  0  0  0  0  0  0  0  0  0  0  0
  141.1580   76.0660  221.7250 O   0  0  0  0  0  0  0  0  0  0  0  0
  139.7170   74.2880  221.1860 C   0  0  0  0  0  0  0  0  0  0  0  0
  139.5380   73.4450  222.3600 N   0  0  0  0  0  0  0  0  0  0  0  0
  140.3550   72.2870  222.5100 C   0  0  0  0  0  0  0  0  0  0  0  0
  141.1970   72.0630  221.5960 O   0  0  0  0  0  0  0  0  0  0  0  0
  140.2190   71.4090  223.6650 C   0  0  0  0  0  0  0  0  0  0  0  0
  139.5830   70.1940  223.4860 C   0  0  0  0  0  0  0  0  0  0  0  0
  139.4490   69.3580  224.5710 C   0  0  0  0  0  0  0  0  0  0  0  0
  139.9350   69.7090  225.8260 C   0  0  0  0  0  0  0  0  0  0  0  0
  139.8080   68.8810  226.9240 C   0  0  0  0  0  0  0  0  0  0  0  0
  140.3030   69.2680  228.1430 C   0  0  0  0  0  0  0  0  0  0  0  0
  140.1960   68.4830  229.2370 F   0  0  0  0  0  0  0  0  0  0  0  0
  140.9330   70.5000  228.2700 C   0  0  0  0  0  0  0  0  0  0  0  0
  141.0750   71.3570  227.1790 C   0  0  0  0  0  0  0  0  0  0  0  0
  140.5720   70.9470  225.9650 C   0  0  0  0  0  0  0  0  0  0  0  0
  140.6860   71.7400  224.8840 N   0  0  0  0  0  0  0  0  0  0  0  0
  143.5867   76.8874  219.8151 H   0  0  0  0  0  0  0  0  0  0  0  0
  144.4099   75.6922  218.7565 H   0  0  0  0  0  0  0  0  0  0  0  0
  142.6173   75.8074  218.7565 H   0  0  0  0  0  0  0  0  0  0  0  0
  143.6677   75.3480  221.4370 H   0  0  0  0  0  0  0  0  0  0  0  0
  144.8610   73.4315  221.1978 H   0  0  0  0  0  0  0  0  0  0  0  0
  144.0463   72.9801  219.6619 H   0  0  0  0  0  0  0  0  0  0  0  0
  145.3309   74.2357  219.6619 H   0  0  0  0  0  0  0  0  0  0  0  0
  142.0140   73.3540  220.0700 H   0  0  0  0  0  0  0  0  0  0  0  0
  138.9370   75.0637  221.1843 H   0  0  0  0  0  0  0  0  0  0  0  0
  139.6450   73.6469  220.2951 H   0  0  0  0  0  0  0  0  0  0  0  0
  138.8340   73.6580  223.0950 H   0  0  0  0  0  0  0  0  0  0  0  0
  139.1933   69.9026  222.4994 H   0  0  0  0  0  0  0  0  0  0  0  0
  138.9453   68.3886  224.4425 H   0  0  0  0  0  0  0  0  0  0  0  0
  139.3077   67.9069  226.8203 H   0  0  0  0  0  0  0  0  0  0  0  0
  141.3275   70.8053  229.2504 H   0  0  0  0  0  0  0  0  0  0  0  0
  141.5740   72.3315  227.2854 H   0  0  0  0  0  0  0  0  0  0  0  0
  1  2  1  0
  2  3  1  0
  2  4  1  0
  4  5  1  0
  5  6  2  0
  5  7  1  0
  7  8  1  0
  8  9  1  0
  9 10  2  0
  9 11  1  0
 11 12  2  0
 12 13  1  0
 13 14  2  0
 14 15  1  0
 15 16  2  0
 16 17  1  0
 16 18  1  0
 18 19  2  0
 19 20  1  0
 20 21  2  0
 21 11  1  0
 20 14  1  0
  1 22  1  0
  1 23  1  0
  1 24  1  0
  2 25  1  0
  3 26  1  0
  3 27  1  0
  3 28  1  0
  4 29  1  0
  7 30  1  0
  7 31  1  0
  8 32  1  0
 12 33  1  0
 13 34  1  0
 15 35  1  0
 18 36  1  0
 19 37  1  0
M  END
>  <smiles>  (45) 
CC(C)NC(=O)CNC(=O)c1ccc2cc(F)ccc2n1

>  <score_type>  (45) 
oracle

>  <origin>  (45) 
autodockgpu

>  <m_score__min__energy>  (45) 
-7.1600000000000001

>  <m_primary>  (45) 
energy

>  <rmsd>  (45) 
2.0320657120319585

>  <m_score__min__rmsd>  (45) 
2.0320657120319585

>  <meeko>  (45) 
{"free_energy": -6.43, "intermolecular_energy": -7.62, "internal_energy": -1.35, "cluster_size": 45, "cluster_id": 1, "rank_in_cluster": 21}

>  <energy>  (45) 
-6.07

>  <cluster_rmsd>  (45) 
1.75

>  <cluster>  (45) 
1

$$$$

     RDKit          3D

 37 38  0  0  0  0  0  0  0  0999 V2000
  144.3910   73.7640  220.8450 C   0  0  0  0  0  0  0  0  0  0  0  0
  143.5090   74.0290  219.6740 C   0  0  0  0  0  0  0  0  0  0  0  0
  143.7000   75.4450  219.2130 C   0  0  0  0  0  0  0  0  0  0  0  0
  142.1090   73.7690  220.0340 N   0  0  0  0  0  0  0  0  0  0  0  0
  141.3550   74.6700  220.7990 C   0  0  0  0  0  0  0  0  0  0  0  0
  141.8120   75.7560  221.2330 O   0  0  0  0  0  0  0  0  0  0  0  0
  139.9500   74.3260  221.1170 C   0  0  0  0  0  0  0  0  0  0  0  0
  139.8420   73.5210  222.3250 N   0  0  0  0  0  0  0  0  0  0  0  0
  140.2490   72.1560  222.2850 C   0  0  0  0  0  0  0  0  0  0  0  0
  140.6860   71.7260  221.1800 O   0  0  0  0  0  0  0  0  0  0  0  0
  140.1630   71.3050  223.4640 C   0  0  0  0  0  0  0  0  0  0  0  0
  139.5760   70.0600  223.3260 C   0  0  0  0  0  0  0  0  0  0  0  0
  139.4890   69.2480  224.4330 C   0  0  0  0  0  0  0  0  0  0  0  0
  139.9750   69.6530  225.6730 C   0  0  0  0  0  0  0  0  0  0  0  0
  139.8950   68.8500  226.7930 C   0  0  0  0  0  0  0  0  0  0  0  0
  140.3870   69.2900  227.9950 C   0  0  0  0  0  0  0  0  0  0  0  0
  140.3250   68.5320  229.1110 F   0  0  0  0  0  0  0  0  0  0  0  0
  140.9680   70.5510  228.0820 C   0  0  0  0  0  0  0  0  0  0  0  0
  141.0610   71.3820  226.9670 C   0  0  0  0  0  0  0  0  0  0  0  0
  140.5610   70.9190  225.7710 C   0  0  0  0  0  0  0  0  0  0  0  0
  140.6300   71.6870  224.6680 N   0  0  0  0  0  0  0  0  0  0  0  0
  143.8274   73.9333  221.7743 H   0  0  0  0  0  0  0  0  0  0  0  0
  144.7400   72.7213  220.8127 H   0  0  0  0  0  0  0  0  0  0  0  0
  145.2569   74.4417  220.8127 H   0  0  0  0  0  0  0  0  0  0  0  0
  143.7766   73.3562  218.8459 H   0  0  0  0  0  0  0  0  0  0  0  0
  143.7892   76.1064  220.0874 H   0  0  0  0  0  0  0  0  0  0  0  0
  144.6154   75.5130  218.6069 H   0  0  0  0  0  0  0  0  0  0  0  0
  142.8353   75.7531  218.6069 H   0  0  0  0  0  0  0  0  0  0  0  0
  141.7290   72.8620  219.6720 H   0  0  0  0  0  0  0  0  0  0  0  0
  139.3807   75.2564  221.2590 H   0  0  0  0  0  0  0  0  0  0  0  0
  139.5487   73.7355  220.2802 H   0  0  0  0  0  0  0  0  0  0  0  0
  139.4770   73.9060  223.2190 H   0  0  0  0  0  0  0  0  0  0  0  0
  139.1873   69.7266  222.3524 H   0  0  0  0  0  0  0  0  0  0  0  0
  139.0246   68.2556  224.3361 H   0  0  0  0  0  0  0  0  0  0  0  0
  139.4349   67.8535  226.7210 H   0  0  0  0  0  0  0  0  0  0  0  0
  141.3613   70.8987  229.0487 H   0  0  0  0  0  0  0  0  0  0  0  0
  141.5205   72.3787  227.0406 H   0  0  0  0  0  0  0  0  0  0  0  0
  1  2  1  0
  2  3  1  0
  2  4  1  0
  4  5  1  0
  5  6  2  0
  5  7  1  0
  7  8  1  0
  8  9  1  0
  9 10  2  0
  9 11  1  0
 11 12  2  0
 12 13  1  0
 13 14  2  0
 14 15  1  0
 15 16  2  0
 16 17  1  0
 16 18  1  0
 18 19  2  0
 19 20  1  0
 20 21  2  0
 21 11  1  0
 20 14  1  0
  1 22  1  0
  1 23  1  0
  1 24  1  0
  2 25  1  0
  3 26  1  0
  3 27  1  0
  3 28  1  0
  4 29  1  0
  7 30  1  0
  7 31  1  0
  8 32  1  0
 12 33  1  0
 13 34  1  0
 15 35  1  0
 18 36  1  0
 19 37  1  0
M  END
>  <smiles>  (46) 
CC(C)NC(=O)CNC(=O)c1ccc2cc(F)ccc2n1

>  <score_type>  (46) 
oracle

>  <origin>  (46) 
autodockgpu

>  <m_score__min__energy>  (46) 
-7.1600000000000001

>  <m_primary>  (46) 
energy

>  <rmsd>  (46) 
2.5186149627380807

>  <m_score__min__rmsd>  (46) 
2.5186149627380807

>  <meeko>  (46) 
{"free_energy": -6.04, "intermolecular_energy": -7.24, "internal_energy": -1.42, "cluster_size": 4, "cluster_id": 2, "rank_in_cluster": 3}

>  <energy>  (46) 
-6.18

>  <cluster_rmsd>  (46) 
0.0

>  <cluster>  (46) 
2

$$$$

     RDKit          3D

 37 38  0  0  0  0  0  0  0  0999 V2000
  144.0000   74.4970  218.8720 C   0  0  0  0  0  0  0  0  0  0  0  0
  143.7820   74.3060  220.3340 C   0  0  0  0  0  0  0  0  0  0  0  0
  144.7140   73.2470  220.8450 C   0  0  0  0  0  0  0  0  0  0  0  0
  142.3790   73.9500  220.5860 N   0  0  0  0  0  0  0  0  0  0  0  0
  141.3930   74.9170  220.8240 C   0  0  0  0  0  0  0  0  0  0  0  0
  141.6290   76.1510  220.8400 O   0  0  0  0  0  0  0  0  0  0  0  0
  140.0040   74.4670  221.0700 C   0  0  0  0  0  0  0  0  0  0  0  0
  139.8930   73.6710  222.2850 N   0  0  0  0  0  0  0  0  0  0  0  0
  140.2520   72.2930  222.2430 C   0  0  0  0  0  0  0  0  0  0  0  0
  140.6520   71.8440  221.1310 O   0  0  0  0  0  0  0  0  0  0  0  0
  140.1610   71.4500  223.4270 C   0  0  0  0  0  0  0  0  0  0  0  0
  139.5720   70.2050  223.2950 C   0  0  0  0  0  0  0  0  0  0  0  0
  139.4800   69.4010  224.4080 C   0  0  0  0  0  0  0  0  0  0  0  0
  139.9620   69.8140  225.6470 C   0  0  0  0  0  0  0  0  0  0  0  0
  139.8780   69.0190  226.7720 C   0  0  0  0  0  0  0  0  0  0  0  0
  140.3670   69.4660  227.9730 C   0  0  0  0  0  0  0  0  0  0  0  0
  140.3000   68.7150  229.0940 F   0  0  0  0  0  0  0  0  0  0  0  0
  140.9490   70.7260  228.0530 C   0  0  0  0  0  0  0  0  0  0  0  0
  141.0480   71.5500  226.9320 C   0  0  0  0  0  0  0  0  0  0  0  0
  140.5510   71.0790  225.7380 C   0  0  0  0  0  0  0  0  0  0  0  0
  140.6240   71.8400  224.6300 N   0  0  0  0  0  0  0  0  0  0  0  0
  144.8188   75.2144  218.7140 H   0  0  0  0  0  0  0  0  0  0  0  0
  144.2629   73.5333  218.4115 H   0  0  0  0  0  0  0  0  0  0  0  0
  143.0792   74.8843  218.4115 H   0  0  0  0  0  0  0  0  0  0  0  0
  143.9962   75.2427  220.8695 H   0  0  0  0  0  0  0  0  0  0  0  0
  144.7084   73.2534  221.9450 H   0  0  0  0  0  0  0  0  0  0  0  0
  144.3842   72.2623  220.4823 H   0  0  0  0  0  0  0  0  0  0  0  0
  145.7327   73.4490  220.4823 H   0  0  0  0  0  0  0  0  0  0  0  0
  142.1840   72.9190  220.5720 H   0  0  0  0  0  0  0  0  0  0  0  0
  139.3563   75.3510  221.1647 H   0  0  0  0  0  0  0  0  0  0  0  0
  139.6971   73.8363  220.2226 H   0  0  0  0  0  0  0  0  0  0  0  0
  139.5590   74.0720  223.1830 H   0  0  0  0  0  0  0  0  0  0  0  0
  139.1861   69.8656  222.3225 H   0  0  0  0  0  0  0  0  0  0  0  0
  139.0146   68.4085  224.3165 H   0  0  0  0  0  0  0  0  0  0  0  0
  139.4169   68.0225  226.7052 H   0  0  0  0  0  0  0  0  0  0  0  0
  141.3389   71.0799  229.0188 H   0  0  0  0  0  0  0  0  0  0  0  0
  141.5094   72.5462  227.0001 H   0  0  0  0  0  0  0  0  0  0  0  0
  1  2  1  0
  2  3  1  0
  2  4  1  0
  4  5  1  0
  5  6  2  0
  5  7  1  0
  7  8  1  0
  8  9  1  0
  9 10  2  0
  9 11  1  0
 11 12  2  0
 12 13  1  0
 13 14  2  0
 14 15  1  0
 15 16  2  0
 16 17  1  0
 16 18  1  0
 18 19  2  0
 19 20  1  0
 20 21  2  0
 21 11  1  0
 20 14  1  0
  1 22  1  0
  1 23  1  0
  1 24  1  0
  2 25  1  0
  3 26  1  0
  3 27  1  0
  3 28  1  0
  4 29  1  0
  7 30  1  0
  7 31  1  0
  8 32  1  0
 12 33  1  0
 13 34  1  0
 15 35  1  0
 18 36  1  0
 19 37  1  0
M  END
>  <smiles>  (47) 
CC(C)NC(=O)CNC(=O)c1ccc2cc(F)ccc2n1

>  <score_type>  (47) 
oracle

>  <origin>  (47) 
autodockgpu

>  <m_score__min__energy>  (47) 
-7.1600000000000001

>  <m_primary>  (47) 
energy

>  <rmsd>  (47) 
2.3817250161848547

>  <m_score__min__rmsd>  (47) 
2.3817250161848547

>  <meeko>  (47) 
{"free_energy": -6.13, "intermolecular_energy": -7.33, "internal_energy": -1.52, "cluster_size": 4, "cluster_id": 2, "rank_in_cluster": 2}

>  <energy>  (47) 
-6.13

>  <cluster_rmsd>  (47) 
0.26

>  <cluster>  (47) 
2

$$$$

     RDKit          3D

 37 38  0  0  0  0  0  0  0  0999 V2000
  143.6040   75.6240  219.0390 C   0  0  0  0  0  0  0  0  0  0  0  0
  143.4440   74.9070  220.3360 C   0  0  0  0  0  0  0  0  0  0  0  0
  144.4800   73.8270  220.4430 C   0  0  0  0  0  0  0  0  0  0  0  0
  142.0860   74.3550  220.4360 N   0  0  0  0  0  0  0  0  0  0  0  0
  141.0510   75.0330  221.0940 C   0  0  0  0  0  0  0  0  0  0  0  0
  141.2000   76.1520  221.6440 O   0  0  0  0  0  0  0  0  0  0  0  0
  139.7120   74.4000  221.1470 C   0  0  0  0  0  0  0  0  0  0  0  0
  139.5510   73.5560  222.3220 N   0  0  0  0  0  0  0  0  0  0  0  0
  140.3200   72.3610  222.4250 C   0  0  0  0  0  0  0  0  0  0  0  0
  141.1080   72.1080  221.4700 O   0  0  0  0  0  0  0  0  0  0  0  0
  140.1990   71.4800  223.5790 C   0  0  0  0  0  0  0  0  0  0  0  0
  139.5710   70.2600  223.4020 C   0  0  0  0  0  0  0  0  0  0  0  0
  139.4510   69.4200  224.4850 C   0  0  0  0  0  0  0  0  0  0  0  0
  139.9430   69.7720  225.7380 C   0  0  0  0  0  0  0  0  0  0  0  0
  139.8300   68.9410  226.8340 C   0  0  0  0  0  0  0  0  0  0  0  0
  140.3300   69.3280  228.0510 C   0  0  0  0  0  0  0  0  0  0  0  0
  140.2370   68.5410  229.1440 F   0  0  0  0  0  0  0  0  0  0  0  0
  140.9520   70.5660  228.1770 C   0  0  0  0  0  0  0  0  0  0  0  0
  141.0800   71.4260  227.0870 C   0  0  0  0  0  0  0  0  0  0  0  0
  140.5710   71.0150  225.8760 C   0  0  0  0  0  0  0  0  0  0  0  0
  140.6720   71.8110  224.7950 N   0  0  0  0  0  0  0  0  0  0  0  0
  143.8399   76.6811  219.2311 H   0  0  0  0  0  0  0  0  0  0  0  0
  144.4217   75.1644  218.4644 H   0  0  0  0  0  0  0  0  0  0  0  0
  142.6685   75.5556  218.4644 H   0  0  0  0  0  0  0  0  0  0  0  0
  143.5884   75.6088  221.1706 H   0  0  0  0  0  0  0  0  0  0  0  0
  144.6820   73.6164  221.5036 H   0  0  0  0  0  0  0  0  0  0  0  0
  144.1106   72.9146  219.9519 H   0  0  0  0  0  0  0  0  0  0  0  0
  145.4069   74.1581  219.9519 H   0  0  0  0  0  0  0  0  0  0  0  0
  141.9630   73.4210  219.9750 H   0  0  0  0  0  0  0  0  0  0  0  0
  138.9470   75.1900  221.1703 H   0  0  0  0  0  0  0  0  0  0  0  0
  139.6025   73.7643  220.2560 H   0  0  0  0  0  0  0  0  0  0  0  0
  138.8920   73.7930  223.0900 H   0  0  0  0  0  0  0  0  0  0  0  0
  139.1765   69.9682  222.4175 H   0  0  0  0  0  0  0  0  0  0  0  0
  138.9543   68.4469  224.3572 H   0  0  0  0  0  0  0  0  0  0  0  0
  139.3364   67.9634  226.7310 H   0  0  0  0  0  0  0  0  0  0  0  0
  141.3505   70.8723  229.1554 H   0  0  0  0  0  0  0  0  0  0  0  0
  141.5730   72.4037  227.1918 H   0  0  0  0  0  0  0  0  0  0  0  0
  1  2  1  0
  2  3  1  0
  2  4  1  0
  4  5  1  0
  5  6  2  0
  5  7  1  0
  7  8  1  0
  8  9  1  0
  9 10  2  0
  9 11  1  0
 11 12  2  0
 12 13  1  0
 13 14  2  0
 14 15  1  0
 15 16  2  0
 16 17  1  0
 16 18  1  0
 18 19  2  0
 19 20  1  0
 20 21  2  0
 21 11  1  0
 20 14  1  0
  1 22  1  0
  1 23  1  0
  1 24  1  0
  2 25  1  0
  3 26  1  0
  3 27  1  0
  3 28  1  0
  4 29  1  0
  7 30  1  0
  7 31  1  0
  8 32  1  0
 12 33  1  0
 13 34  1  0
 15 35  1  0
 18 36  1  0
 19 37  1  0
M  END
>  <smiles>  (48) 
CC(C)NC(=O)CNC(=O)c1ccc2cc(F)ccc2n1

>  <score_type>  (48) 
oracle

>  <origin>  (48) 
autodockgpu

>  <m_score__min__energy>  (48) 
-7.1600000000000001

>  <m_primary>  (48) 
energy

>  <rmsd>  (48) 
2.042889374507855

>  <m_score__min__rmsd>  (48) 
2.042889374507855

>  <meeko>  (48) 
{"free_energy": -6.39, "intermolecular_energy": -7.58, "internal_energy": -1.38, "cluster_size": 45, "cluster_id": 1, "rank_in_cluster": 28}

>  <energy>  (48) 
-6.04

>  <cluster_rmsd>  (48) 
0.37

>  <cluster>  (48) 
2

$$$$

     RDKit          3D

 37 38  0  0  0  0  0  0  0  0999 V2000
  143.5680   75.7240  219.2190 C   0  0  0  0  0  0  0  0  0  0  0  0
  143.4420   74.8840  220.4440 C   0  0  0  0  0  0  0  0  0  0  0  0
  144.4930   73.8130  220.4270 C   0  0  0  0  0  0  0  0  0  0  0  0
  142.0930   74.3060  220.5150 N   0  0  0  0  0  0  0  0  0  0  0  0
  141.0290   74.9670  221.1430 C   0  0  0  0  0  0  0  0  0  0  0  0
  141.1430   76.0930  221.6880 O   0  0  0  0  0  0  0  0  0  0  0  0
  139.7020   74.3090  221.1680 C   0  0  0  0  0  0  0  0  0  0  0  0
  139.5280   73.4730  222.3470 N   0  0  0  0  0  0  0  0  0  0  0  0
  140.3230   72.2980  222.4850 C   0  0  0  0  0  0  0  0  0  0  0  0
  141.1440   72.0560  221.5550 O   0  0  0  0  0  0  0  0  0  0  0  0
  140.1900   71.4250  223.6430 C   0  0  0  0  0  0  0  0  0  0  0  0
  139.5540   70.2090  223.4710 C   0  0  0  0  0  0  0  0  0  0  0  0
  139.4230   69.3770  224.5590 C   0  0  0  0  0  0  0  0  0  0  0  0
  139.9120   69.7330  225.8120 C   0  0  0  0  0  0  0  0  0  0  0  0
  139.7890   68.9100  226.9130 C   0  0  0  0  0  0  0  0  0  0  0  0
  140.2860   69.3010  228.1290 C   0  0  0  0  0  0  0  0  0  0  0  0
  140.1820   68.5220  229.2270 F   0  0  0  0  0  0  0  0  0  0  0  0
  140.9170   70.5350  228.2500 C   0  0  0  0  0  0  0  0  0  0  0  0
  141.0560   71.3870  227.1550 C   0  0  0  0  0  0  0  0  0  0  0  0
  140.5490   70.9720  225.9440 C   0  0  0  0  0  0  0  0  0  0  0  0
  140.6600   71.7610  224.8590 N   0  0  0  0  0  0  0  0  0  0  0  0
  143.7254   76.7734  219.5086 H   0  0  0  0  0  0  0  0  0  0  0  0
  144.4240   75.3760  218.6222 H   0  0  0  0  0  0  0  0  0  0  0  0
  142.6476   75.6424  218.6222 H   0  0  0  0  0  0  0  0  0  0  0  0
  143.5940   75.5043  221.3396 H   0  0  0  0  0  0  0  0  0  0  0  0
  144.7580   73.5429  221.4599 H   0  0  0  0  0  0  0  0  0  0  0  0
  144.1046   72.9264  219.9043 H   0  0  0  0  0  0  0  0  0  0  0  0
  145.3867   74.1846  219.9043 H   0  0  0  0  0  0  0  0  0  0  0  0
  141.9990   73.3660  220.0600 H   0  0  0  0  0  0  0  0  0  0  0  0
  138.9215   75.0841  221.1644 H   0  0  0  0  0  0  0  0  0  0  0  0
  139.6270   73.6633  220.2806 H   0  0  0  0  0  0  0  0  0  0  0  0
  138.8420   73.7010  223.0940 H   0  0  0  0  0  0  0  0  0  0  0  0
  139.1618   69.9137  222.4866 H   0  0  0  0  0  0  0  0  0  0  0  0
  138.9195   68.4069  224.4352 H   0  0  0  0  0  0  0  0  0  0  0  0
  139.2894   67.9350  226.8141 H   0  0  0  0  0  0  0  0  0  0  0  0
  141.3138   70.8444  229.2282 H   0  0  0  0  0  0  0  0  0  0  0  0
  141.5558   72.3617  227.2556 H   0  0  0  0  0  0  0  0  0  0  0  0
  1  2  1  0
  2  3  1  0
  2  4  1  0
  4  5  1  0
  5  6  2  0
  5  7  1  0
  7  8  1  0
  8  9  1  0
  9 10  2  0
  9 11  1  0
 11 12  2  0
 12 13  1  0
 13 14  2  0
 14 15  1  0
 15 16  2  0
 16 17  1  0
 16 18  1  0
 18 19  2  0
 19 20  1  0
 20 21  2  0
 21 11  1  0
 20 14  1  0
  1 22  1  0
  1 23  1  0
  1 24  1  0
  2 25  1  0
  3 26  1  0
  3 27  1  0
  3 28  1  0
  4 29  1  0
  7 30  1  0
  7 31  1  0
  8 32  1  0
 12 33  1  0
 13 34  1  0
 15 35  1  0
 18 36  1  0
 19 37  1  0
M  END
>  <smiles>  (49) 
CC(C)NC(=O)CNC(=O)c1ccc2cc(F)ccc2n1

>  <score_type>  (49) 
oracle

>  <origin>  (49) 
autodockgpu

>  <m_score__min__energy>  (49) 
-7.1600000000000001

>  <m_primary>  (49) 
energy

>  <rmsd>  (49) 
2.0324463315923205

>  <m_score__min__rmsd>  (49) 
2.0324463315923205

>  <meeko>  (49) 
{"free_energy": -6.42, "intermolecular_energy": -7.61, "internal_energy": -1.37, "cluster_size": 45, "cluster_id": 1, "rank_in_cluster": 25}

>  <energy>  (49) 
-6.03

>  <cluster_rmsd>  (49) 
0.38

>  <cluster>  (49) 
2

$$$$

     RDKit          3D

 37 38  0  0  0  0  0  0  0  0999 V2000
  137.9130   77.0280  222.7110 C   0  0  0  0  0  0  0  0  0  0  0  0
  137.0980   75.8370  222.3400 C   0  0  0  0  0  0  0  0  0  0  0  0
  136.2020   75.4680  223.4870 C   0  0  0  0  0  0  0  0  0  0  0  0
  137.9800   74.7230  221.9730 N   0  0  0  0  0  0  0  0  0  0  0  0
  137.9800   74.1610  220.6880 C   0  0  0  0  0  0  0  0  0  0  0  0
  137.2340   74.5630  219.7610 O   0  0  0  0  0  0  0  0  0  0  0  0
  138.9040   73.0390  220.4060 C   0  0  0  0  0  0  0  0  0  0  0  0
  138.9220   72.0600  221.4840 N   0  0  0  0  0  0  0  0  0  0  0  0
  139.7460   72.3010  222.6220 C   0  0  0  0  0  0  0  0  0  0  0  0
  140.4200   73.3700  222.6190 O   0  0  0  0  0  0  0  0  0  0  0  0
  139.8030   71.3560  223.7290 C   0  0  0  0  0  0  0  0  0  0  0  0
  139.2510   70.1020  223.5420 C   0  0  0  0  0  0  0  0  0  0  0  0
  139.2990   69.2010  224.5810 C   0  0  0  0  0  0  0  0  0  0  0  0
  139.8850   69.5270  225.8000 C   0  0  0  0  0  0  0  0  0  0  0  0
  139.9410   68.6340  226.8520 C   0  0  0  0  0  0  0  0  0  0  0  0
  140.5300   68.9980  228.0360 C   0  0  0  0  0  0  0  0  0  0  0  0
  140.6010   68.1510  229.0860 F   0  0  0  0  0  0  0  0  0  0  0  0
  141.0710   70.2710  228.1740 C   0  0  0  0  0  0  0  0  0  0  0  0
  141.0280   71.1920  227.1280 C   0  0  0  0  0  0  0  0  0  0  0  0
  140.4330   70.8050  225.9490 C   0  0  0  0  0  0  0  0  0  0  0  0
  140.3690   71.6610  224.9120 N   0  0  0  0  0  0  0  0  0  0  0  0
  137.9677   77.1080  223.8067 H   0  0  0  0  0  0  0  0  0  0  0  0
  138.9277   76.9204  222.3001 H   0  0  0  0  0  0  0  0  0  0  0  0
  137.4452   77.9348  222.3001 H   0  0  0  0  0  0  0  0  0  0  0  0
  136.4686   76.0717  221.4690 H   0  0  0  0  0  0  0  0  0  0  0  0
  136.7157   75.6796  224.4364 H   0  0  0  0  0  0  0  0  0  0  0  0
  135.2749   76.0575  223.4324 H   0  0  0  0  0  0  0  0  0  0  0  0
  135.9589   74.3966  223.4324 H   0  0  0  0  0  0  0  0  0  0  0  0
  138.6030   74.3890  222.7480 H   0  0  0  0  0  0  0  0  0  0  0  0
  138.5840   72.5403  219.4793 H   0  0  0  0  0  0  0  0  0  0  0  0
  139.9185   73.4524  220.3069 H   0  0  0  0  0  0  0  0  0  0  0  0
  138.3560   71.1890  221.4540 H   0  0  0  0  0  0  0  0  0  0  0  0
  138.7838   69.8307  222.5838 H   0  0  0  0  0  0  0  0  0  0  0  0
  138.8640   68.1999  224.4446 H   0  0  0  0  0  0  0  0  0  0  0  0
  139.5118   67.6274  226.7400 H   0  0  0  0  0  0  0  0  0  0  0  0
  141.5418   70.5571  229.1261 H   0  0  0  0  0  0  0  0  0  0  0  0
  141.4571   72.1984  227.2419 H   0  0  0  0  0  0  0  0  0  0  0  0
  1  2  1  0
  2  3  1  0
  2  4  1  0
  4  5  1  0
  5  6  2  0
  5  7  1  0
  7  8  1  0
  8  9  1  0
  9 10  2  0
  9 11  1  0
 11 12  2  0
 12 13  1  0
 13 14  2  0
 14 15  1  0
 15 16  2  0
 16 17  1  0
 16 18  1  0
 18 19  2  0
 19 20  1  0
 20 21  2  0
 21 11  1  0
 20 14  1  0
  1 22  1  0
  1 23  1  0
  1 24  1  0
  2 25  1  0
  3 26  1  0
  3 27  1  0
  3 28  1  0
  4 29  1  0
  7 30  1  0
  7 31  1  0
  8 32  1  0
 12 33  1  0
 13 34  1  0
 15 35  1  0
 18 36  1  0
 19 37  1  0
M  END
>  <smiles>  (50) 
CC(C)NC(=O)CNC(=O)c1ccc2cc(F)ccc2n1

>  <score_type>  (50) 
oracle

>  <origin>  (50) 
autodockgpu

>  <m_score__min__energy>  (50) 
-7.1600000000000001

>  <m_primary>  (50) 
energy

>  <rmsd>  (50) 
2.690462520590237

>  <m_score__min__rmsd>  (50) 
2.690462520590237

>  <meeko>  (50) 
{"free_energy": -6.08, "intermolecular_energy": -7.27, "internal_energy": -1.42, "cluster_size": 45, "cluster_id": 1, "rank_in_cluster": 42}

>  <energy>  (50) 
-5.67

>  <cluster_rmsd>  (50) 
0.0

>  <cluster>  (50) 
3

$$$$
