
     RDKit          3D

 41 42  0  0  0  0  0  0  0  0999 V2000
  141.4840   78.6130  223.0870 C   0  0  0  0  0  0  0  0  0  0  0  0
  140.0540   78.8100  222.9520 N   0  0  0  0  0  0  0  0  0  0  0  0
  139.4560   79.8140  223.8310 C   0  0  0  0  0  0  0  0  0  0  0  0
  139.2610   78.0690  222.0150 C   0  0  0  0  0  0  0  0  0  0  0  0
  138.0410   78.3080  221.9720 O   0  0  0  0  0  0  0  0  0  0  0  0
  139.9630   77.0770  221.1710 C   0  0  0  0  0  0  0  0  0  0  0  0
  139.1300   75.8930  221.0780 N   0  0  0  0  0  0  0  0  0  0  0  0
  139.5790   74.6920  221.6770 C   0  0  0  0  0  0  0  0  0  0  0  0
  140.7070   74.6850  222.2780 O   0  0  0  0  0  0  0  0  0  0  0  0
  138.8400   73.4140  221.6670 C   0  0  0  0  0  0  0  0  0  0  0  0
  139.1770   72.5320  222.7480 N   0  0  0  0  0  0  0  0  0  0  0  0
  138.7290   71.1820  222.7980 C   0  0  0  0  0  0  0  0  0  0  0  0
  137.9920   70.6760  221.8860 O   0  0  0  0  0  0  0  0  0  0  0  0
  139.1240   70.3300  223.9390 C   0  0  0  0  0  0  0  0  0  0  0  0
  138.8750   68.9770  223.9070 C   0  0  0  0  0  0  0  0  0  0  0  0
  139.2300   68.1490  224.9540 C   0  0  0  0  0  0  0  0  0  0  0  0
  139.8530   68.7260  226.0580 C   0  0  0  0  0  0  0  0  0  0  0  0
  140.2250   67.9520  227.1250 C   0  0  0  0  0  0  0  0  0  0  0  0
  140.8500   68.5440  228.2270 C   0  0  0  0  0  0  0  0  0  0  0  0
  141.2340   67.8070  229.3010 F   0  0  0  0  0  0  0  0  0  0  0  0
  141.0760   69.9170  228.2030 C   0  0  0  0  0  0  0  0  0  0  0  0
  140.7070   70.7040  227.1380 C   0  0  0  0  0  0  0  0  0  0  0  0
  140.0930   70.1020  226.0640 C   0  0  0  0  0  0  0  0  0  0  0  0
  139.7290   70.8820  225.0150 N   0  0  0  0  0  0  0  0  0  0  0  0
  141.7500   78.5764  224.1537 H   0  0  0  0  0  0  0  0  0  0  0  0
  141.7709   77.6668  222.6049 H   0  0  0  0  0  0  0  0  0  0  0  0
  142.0161   79.4463  222.6049 H   0  0  0  0  0  0  0  0  0  0  0  0
  139.6251   79.5302  224.8802 H   0  0  0  0  0  0  0  0  0  0  0  0
  139.9182   80.7932  223.6370 H   0  0  0  0  0  0  0  0  0  0  0  0
  138.3749   79.8740  223.6370 H   0  0  0  0  0  0  0  0  0  0  0  0
  140.1311   77.4942  220.1672 H   0  0  0  0  0  0  0  0  0  0  0  0
  140.9377   76.8229  221.6130 H   0  0  0  0  0  0  0  0  0  0  0  0
  138.2250   75.9370  220.5670 H   0  0  0  0  0  0  0  0  0  0  0  0
  137.7644   73.6368  221.7259 H   0  0  0  0  0  0  0  0  0  0  0  0
  139.1171   72.8955  220.7373 H   0  0  0  0  0  0  0  0  0  0  0  0
  139.7760   72.8510  223.5560 H   0  0  0  0  0  0  0  0  0  0  0  0
  138.3806   68.5438  223.0250 H   0  0  0  0  0  0  0  0  0  0  0  0
  139.0272   67.0685  224.9171 H   0  0  0  0  0  0  0  0  0  0  0  0
  140.0329   66.8690  227.1151 H   0  0  0  0  0  0  0  0  0  0  0  0
  141.5672   70.3891  229.0666 H   0  0  0  0  0  0  0  0  0  0  0  0
  140.8978   71.7873  227.1443 H   0  0  0  0  0  0  0  0  0  0  0  0
  1  2  1  0
  2  3  1  0
  2  4  1  0
  4  5  2  0
  4  6  1  0
  6  7  1  0
  7  8  1  0
  8  9  2  0
  8 10  1  0
 10 11  1  0
 11 12  1  0
 12 13  2  0
 12 14  1  0
 14 15  2  0
 15 16  1  0
 16 17  2  0
 17 18  1  0
 18 19  2  0
 19 20  1  0
 19 21  1  0
 21 22  2  0
 22 23  1  0
 23 24  2  0
 24 14  1  0
 23 17  1  0
  1 25  1  0
  1 26  1  0
  1 27  1  0
  3 28  1  0
  3 29  1  0
  3 30  1  0
  6 31  1  0
  6 32  1  0
  7 33  1  0
 10 34  1  0
 10 35  1  0
 11 36  1  0
 15 37  1  0
 16 38  1  0
 18 39  1  0
 21 40  1  0
 22 41  1  0
M  END
>  <smiles>  (1) 
CN(C)C(=O)CNC(=O)CNC(=O)c1ccc2cc(F)ccc2n1

>  <score_type>  (1) 
oracle

>  <origin>  (1) 
autodockgpu

>  <m_score__min__energy>  (1) 
-7.7199999999999998

>  <m_primary>  (1) 
energy

>  <rmsd>  (1) 
4.6420879948833935

>  <m_score__min__rmsd>  (1) 
4.6420879948833935

>  <meeko>  (1) 
{"free_energy": -6.32, "intermolecular_energy": -7.81, "internal_energy": -1.69, "cluster_size": 49, "cluster_id": 1, "rank_in_cluster": 37}

>  <energy>  (1) 
-7.72

>  <cluster_rmsd>  (1) 
0.0

>  <cluster>  (1) 
1

$$$$

     RDKit          3D

 41 42  0  0  0  0  0  0  0  0999 V2000
  141.5530   79.4250  222.8030 C   0  0  0  0  0  0  0  0  0  0  0  0
  140.2930   78.7260  222.9590 N   0  0  0  0  0  0  0  0  0  0  0  0
  139.2640   79.4180  223.7340 C   0  0  0  0  0  0  0  0  0  0  0  0
  140.0570   77.4300  222.3910 C   0  0  0  0  0  0  0  0  0  0  0  0
  138.9420   76.9100  222.5790 O   0  0  0  0  0  0  0  0  0  0  0  0
  141.1630   76.8170  221.6230 C   0  0  0  0  0  0  0  0  0  0  0  0
  140.8010   75.4430  221.3300 N   0  0  0  0  0  0  0  0  0  0  0  0
  141.7570   74.6000  220.7140 C   0  0  0  0  0  0  0  0  0  0  0  0
  142.9090   75.0750  220.4310 O   0  0  0  0  0  0  0  0  0  0  0  0
  141.5330   73.1850  220.3610 C   0  0  0  0  0  0  0  0  0  0  0  0
  141.3600   72.3170  221.4910 N   0  0  0  0  0  0  0  0  0  0  0  0
  140.3150   72.4990  222.4400 C   0  0  0  0  0  0  0  0  0  0  0  0
  139.4710   73.4530  222.3470 O   0  0  0  0  0  0  0  0  0  0  0  0
  140.1940   71.5600  223.5730 C   0  0  0  0  0  0  0  0  0  0  0  0
  139.5690   70.3460  223.4000 C   0  0  0  0  0  0  0  0  0  0  0  0
  139.4370   69.4430  224.4370 C   0  0  0  0  0  0  0  0  0  0  0  0
  139.9590   69.7970  225.6790 C   0  0  0  0  0  0  0  0  0  0  0  0
  139.8560   68.9390  226.7420 C   0  0  0  0  0  0  0  0  0  0  0  0
  140.3840   69.3080  227.9830 C   0  0  0  0  0  0  0  0  0  0  0  0
  140.3000   68.4820  229.0580 F   0  0  0  0  0  0  0  0  0  0  0  0
  141.0050   70.5470  228.1000 C   0  0  0  0  0  0  0  0  0  0  0  0
  141.1150   71.4160  227.0390 C   0  0  0  0  0  0  0  0  0  0  0  0
  140.5880   71.0350  225.8270 C   0  0  0  0  0  0  0  0  0  0  0  0
  140.6980   71.8960  224.7830 N   0  0  0  0  0  0  0  0  0  0  0  0
  141.9694   79.6560  223.7946 H   0  0  0  0  0  0  0  0  0  0  0  0
  142.2587   78.7894  222.2480 H   0  0  0  0  0  0  0  0  0  0  0  0
  141.3872   80.3602  222.2480 H   0  0  0  0  0  0  0  0  0  0  0  0
  139.4621   79.2848  224.8078 H   0  0  0  0  0  0  0  0  0  0  0  0
  139.2791   80.4902  223.4886 H   0  0  0  0  0  0  0  0  0  0  0  0
  138.2767   78.9996  223.4886 H   0  0  0  0  0  0  0  0  0  0  0  0
  141.3168   77.3702  220.6848 H   0  0  0  0  0  0  0  0  0  0  0  0
  142.0954   76.8494  222.2058 H   0  0  0  0  0  0  0  0  0  0  0  0
  139.8470   75.0990  221.5620 H   0  0  0  0  0  0  0  0  0  0  0  0
  140.6288   73.1240  219.7375 H   0  0  0  0  0  0  0  0  0  0  0  0
  142.4369   72.8434  219.8355 H   0  0  0  0  0  0  0  0  0  0  0  0
  142.0060   71.5010  221.6660 H   0  0  0  0  0  0  0  0  0  0  0  0
  139.1641   70.0881  222.4103 H   0  0  0  0  0  0  0  0  0  0  0  0
  138.9357   68.4754  224.2868 H   0  0  0  0  0  0  0  0  0  0  0  0
  139.3604   67.9646  226.6198 H   0  0  0  0  0  0  0  0  0  0  0  0
  141.4224   70.8422  229.0740 H   0  0  0  0  0  0  0  0  0  0  0  0
  141.6116   72.3904  227.1570 H   0  0  0  0  0  0  0  0  0  0  0  0
  1  2  1  0
  2  3  1  0
  2  4  1  0
  4  5  2  0
  4  6  1  0
  6  7  1  0
  7  8  1  0
  8  9  2  0
  8 10  1  0
 10 11  1  0
 11 12  1  0
 12 13  2  0
 12 14  1  0
 14 15  2  0
 15 16  1  0
 16 17  2  0
 17 18  1  0
 18 19  2  0
 19 20  1  0
 19 21  1  0
 21 22  2  0
 22 23  1  0
 23 24  2  0
 24 14  1  0
 23 17  1  0
  1 25  1  0
  1 26  1  0
  1 27  1  0
  3 28  1  0
  3 29  1  0
  3 30  1  0
  6 31  1  0
  6 32  1  0
  7 33  1  0
 10 34  1  0
 10 35  1  0
 11 36  1  0
 15 37  1  0
 16 38  1  0
 18 39  1  0
 21 40  1  0
 22 41  1  0
M  END
>  <smiles>  (2) 
CN(C)C(=O)CNC(=O)CNC(=O)c1ccc2cc(F)ccc2n1

>  <score_type>  (2) 
oracle

>  <origin>  (2) 
autodockgpu

>  <m_score__min__energy>  (2) 
-7.7199999999999998

>  <m_primary>  (2) 
energy

>  <rmsd>  (2) 
4.9236731028378395

>  <m_score__min__rmsd>  (2) 
4.9236731028378395

>  <meeko>  (2) 
{"free_energy": -6.4, "intermolecular_energy": -7.89, "internal_energy": -2.09, "cluster_size": 49, "cluster_id": 1, "rank_in_cluster": 35}

>  <energy>  (2) 
-7.71

>  <cluster_rmsd>  (2) 
0.14

>  <cluster>  (2) 
1

$$$$

     RDKit          3D

 41 42  0  0  0  0  0  0  0  0999 V2000
  138.8340   78.4950  222.1850 C   0  0  0  0  0  0  0  0  0  0  0  0
  139.8940   77.5320  222.4060 N   0  0  0  0  0  0  0  0  0  0  0  0
  141.1330   78.0570  222.9770 C   0  0  0  0  0  0  0  0  0  0  0  0
  139.7490   76.1420  222.0860 C   0  0  0  0  0  0  0  0  0  0  0  0
  140.7150   75.3910  222.3110 O   0  0  0  0  0  0  0  0  0  0  0  0
  138.4540   75.7120  221.5130 C   0  0  0  0  0  0  0  0  0  0  0  0
  138.2290   74.3300  221.8930 N   0  0  0  0  0  0  0  0  0  0  0  0
  137.4720   73.4980  221.0320 C   0  0  0  0  0  0  0  0  0  0  0  0
  137.0060   73.9900  219.9490 O   0  0  0  0  0  0  0  0  0  0  0  0
  137.1660   72.0770  221.2850 C   0  0  0  0  0  0  0  0  0  0  0  0
  137.7470   71.5560  222.4900 N   0  0  0  0  0  0  0  0  0  0  0  0
  139.1180   71.7450  222.8190 C   0  0  0  0  0  0  0  0  0  0  0  0
  139.9190   72.3860  222.0560 O   0  0  0  0  0  0  0  0  0  0  0  0
  139.6440   71.1870  224.0810 C   0  0  0  0  0  0  0  0  0  0  0  0
  140.6050   71.8710  224.7910 C   0  0  0  0  0  0  0  0  0  0  0  0
  141.1200   71.3810  225.9740 C   0  0  0  0  0  0  0  0  0  0  0  0
  140.6370   70.1590  226.4370 C   0  0  0  0  0  0  0  0  0  0  0  0
  141.1130   69.6260  227.6060 C   0  0  0  0  0  0  0  0  0  0  0  0
  140.6200   68.3980  228.0590 C   0  0  0  0  0  0  0  0  0  0  0  0
  141.0690   67.8410  229.2130 F   0  0  0  0  0  0  0  0  0  0  0  0
  139.6500   67.7520  227.3010 C   0  0  0  0  0  0  0  0  0  0  0  0
  139.1640   68.2780  226.1260 C   0  0  0  0  0  0  0  0  0  0  0  0
  139.6630   69.4860  225.6980 C   0  0  0  0  0  0  0  0  0  0  0  0
  139.1820   70.0010  224.5380 N   0  0  0  0  0  0  0  0  0  0  0  0
  138.4487   78.8450  223.1540 H   0  0  0  0  0  0  0  0  0  0  0  0
  139.2283   79.3503  221.6166 H   0  0  0  0  0  0  0  0  0  0  0  0
  138.0204   78.0207  221.6166 H   0  0  0  0  0  0  0  0  0  0  0  0
  141.0708   78.0306  224.0749 H   0  0  0  0  0  0  0  0  0  0  0  0
  141.9807   77.4407  222.6429 H   0  0  0  0  0  0  0  0  0  0  0  0
  141.2799   79.0947  222.6429 H   0  0  0  0  0  0  0  0  0  0  0  0
  137.6440   76.3435  221.9069 H   0  0  0  0  0  0  0  0  0  0  0  0
  138.4718   75.8076  220.4173 H   0  0  0  0  0  0  0  0  0  0  0  0
  138.6130   73.9720  222.7910 H   0  0  0  0  0  0  0  0  0  0  0  0
  136.0737   71.9659  221.3525 H   0  0  0  0  0  0  0  0  0  0  0  0
  137.6014   71.5064  220.4515 H   0  0  0  0  0  0  0  0  0  0  0  0
  137.1760   71.0070  223.1860 H   0  0  0  0  0  0  0  0  0  0  0  0
  140.9721   72.8335  224.4052 H   0  0  0  0  0  0  0  0  0  0  0  0
  141.8868   71.9372  226.5331 H   0  0  0  0  0  0  0  0  0  0  0  0
  141.8794   70.1614  228.1856 H   0  0  0  0  0  0  0  0  0  0  0  0
  139.2573   66.7866  227.6528 H   0  0  0  0  0  0  0  0  0  0  0  0
  138.3966   67.7463  225.5443 H   0  0  0  0  0  0  0  0  0  0  0  0
  1  2  1  0
  2  3  1  0
  2  4  1  0
  4  5  2  0
  4  6  1  0
  6  7  1  0
  7  8  1  0
  8  9  2  0
  8 10  1  0
 10 11  1  0
 11 12  1  0
 12 13  2  0
 12 14  1  0
 14 15  2  0
 15 16  1  0
 16 17  2  0
 17 18  1  0
 18 19  2  0
 19 20  1  0
 19 21  1  0
 21 22  2  0
 22 23  1  0
 23 24  2  0
 24 14  1  0
 23 17  1  0
  1 25  1  0
  1 26  1  0
  1 27  1  0
  3 28  1  0
  3 29  1  0
  3 30  1  0
  6 31  1  0
  6 32  1  0
  7 33  1  0
 10 34  1  0
 10 35  1  0
 11 36  1  0
 15 37  1  0
 16 38  1  0
 18 39  1  0
 21 40  1  0
 22 41  1  0
M  END
>  <smiles>  (3) 
CN(C)C(=O)CNC(=O)CNC(=O)c1ccc2cc(F)ccc2n1

>  <score_type>  (3) 
oracle

>  <origin>  (3) 
autodockgpu

>  <m_score__min__energy>  (3) 
-7.7199999999999998

>  <m_primary>  (3) 
energy

>  <rmsd>  (3) 
3.43306004155517

>  <m_score__min__rmsd>  (3) 
3.43306004155517

>  <meeko>  (3) 
{"free_energy": -6.19, "intermolecular_energy": -7.68, "internal_energy": -1.92, "cluster_size": 49, "cluster_id": 1, "rank_in_cluster": 44}

>  <energy>  (3) 
-7.61

>  <cluster_rmsd>  (3) 
0.14

>  <cluster>  (3) 
1

$$$$

     RDKit          3D

 41 42  0  0  0  0  0  0  0  0999 V2000
  141.3490   81.0280  221.9840 C   0  0  0  0  0  0  0  0  0  0  0  0
  141.9330   80.1780  223.0010 N   0  0  0  0  0  0  0  0  0  0  0  0
  142.9420   80.7990  223.8590 C   0  0  0  0  0  0  0  0  0  0  0  0
  141.5540   78.8050  223.1670 C   0  0  0  0  0  0  0  0  0  0  0  0
  142.1120   78.1540  224.0690 O   0  0  0  0  0  0  0  0  0  0  0  0
  140.5230   78.2730  222.2480 C   0  0  0  0  0  0  0  0  0  0  0  0
  140.8730   76.9030  221.9220 N   0  0  0  0  0  0  0  0  0  0  0  0
  139.8450   76.0040  221.5500 C   0  0  0  0  0  0  0  0  0  0  0  0
  138.6390   76.4240  221.5160 O   0  0  0  0  0  0  0  0  0  0  0  0
  140.0500   74.5880  221.1890 C   0  0  0  0  0  0  0  0  0  0  0  0
  139.8520   73.6710  222.2760 N   0  0  0  0  0  0  0  0  0  0  0  0
  140.5230   72.4180  222.3480 C   0  0  0  0  0  0  0  0  0  0  0  0
  141.3380   72.0300  221.4440 O   0  0  0  0  0  0  0  0  0  0  0  0
  140.2750   71.5290  223.5010 C   0  0  0  0  0  0  0  0  0  0  0  0
  139.6110   70.3370  223.3240 C   0  0  0  0  0  0  0  0  0  0  0  0
  139.3620   69.4810  224.3780 C   0  0  0  0  0  0  0  0  0  0  0  0
  139.8050   69.8600  225.6430 C   0  0  0  0  0  0  0  0  0  0  0  0
  139.5850   69.0480  226.7250 C   0  0  0  0  0  0  0  0  0  0  0  0
  140.0360   69.4410  227.9890 C   0  0  0  0  0  0  0  0  0  0  0  0
  139.8350   68.6610  229.0820 F   0  0  0  0  0  0  0  0  0  0  0  0
  140.7010   70.6560  228.1090 C   0  0  0  0  0  0  0  0  0  0  0  0
  140.9290   71.4790  227.0300 C   0  0  0  0  0  0  0  0  0  0  0  0
  140.4770   71.0740  225.7950 C   0  0  0  0  0  0  0  0  0  0  0  0
  140.7020   71.8890  224.7330 N   0  0  0  0  0  0  0  0  0  0  0  0
  140.7888   81.8434  222.4650 H   0  0  0  0  0  0  0  0  0  0  0  0
  142.1476   81.4517  221.3573 H   0  0  0  0  0  0  0  0  0  0  0  0
  140.6671   80.4345  221.3573 H   0  0  0  0  0  0  0  0  0  0  0  0
  142.6769   80.6358  224.9140 H   0  0  0  0  0  0  0  0  0  0  0  0
  143.9247   80.3492  223.6541 H   0  0  0  0  0  0  0  0  0  0  0  0
  142.9832   81.8790  223.6541 H   0  0  0  0  0  0  0  0  0  0  0  0
  139.5380   78.2999  222.7370 H   0  0  0  0  0  0  0  0  0  0  0  0
  140.4769   78.8824  221.3334 H   0  0  0  0  0  0  0  0  0  0  0  0
  141.8660   76.5960  221.9760 H   0  0  0  0  0  0  0  0  0  0  0  0
  139.3431   74.3303  220.3866 H   0  0  0  0  0  0  0  0  0  0  0  0
  141.1005   74.4890  220.8780 H   0  0  0  0  0  0  0  0  0  0  0  0
  139.1950   73.8900  223.0720 H   0  0  0  0  0  0  0  0  0  0  0  0
  139.2695   70.0588  222.3160 H   0  0  0  0  0  0  0  0  0  0  0  0
  138.8308   68.5302  224.2238 H   0  0  0  0  0  0  0  0  0  0  0  0
  139.0562   68.0916  226.5997 H   0  0  0  0  0  0  0  0  0  0  0  0
  141.0573   70.9704  229.1011 H   0  0  0  0  0  0  0  0  0  0  0  0
  141.4586   72.4354  227.1515 H   0  0  0  0  0  0  0  0  0  0  0  0
  1  2  1  0
  2  3  1  0
  2  4  1  0
  4  5  2  0
  4  6  1  0
  6  7  1  0
  7  8  1  0
  8  9  2  0
  8 10  1  0
 10 11  1  0
 11 12  1  0
 12 13  2  0
 12 14  1  0
 14 15  2  0
 15 16  1  0
 16 17  2  0
 17 18  1  0
 18 19  2  0
 19 20  1  0
 19 21  1  0
 21 22  2  0
 22 23  1  0
 23 24  2  0
 24 14  1  0
 23 17  1  0
  1 25  1  0
  1 26  1  0
  1 27  1  0
  3 28  1  0
  3 29  1  0
  3 30  1  0
  6 31  1  0
  6 32  1  0
  7 33  1  0
 10 34  1  0
 10 35  1  0
 11 36  1  0
 15 37  1  0
 16 38  1  0
 18 39  1  0
 21 40  1  0
 22 41  1  0
M  END
>  <smiles>  (4) 
CN(C)C(=O)CNC(=O)CNC(=O)c1ccc2cc(F)ccc2n1

>  <score_type>  (4) 
oracle

>  <origin>  (4) 
autodockgpu

>  <m_score__min__energy>  (4) 
-7.7199999999999998

>  <m_primary>  (4) 
energy

>  <rmsd>  (4) 
5.449110294663088

>  <m_score__min__rmsd>  (4) 
5.449110294663088

>  <meeko>  (4) 
{"free_energy": -7.71, "intermolecular_energy": -9.21, "internal_energy": -1.08, "cluster_size": 49, "cluster_id": 1, "rank_in_cluster": 2}

>  <energy>  (4) 
-7.55

>  <cluster_rmsd>  (4) 
0.22

>  <cluster>  (4) 
1

$$$$

     RDKit          3D

 41 42  0  0  0  0  0  0  0  0999 V2000
  142.5720   79.6580  222.6410 C   0  0  0  0  0  0  0  0  0  0  0  0
  141.1550   79.6390  222.9450 N   0  0  0  0  0  0  0  0  0  0  0  0
  140.5920   80.8820  223.4690 C   0  0  0  0  0  0  0  0  0  0  0  0
  140.3420   78.4740  222.7480 C   0  0  0  0  0  0  0  0  0  0  0  0
  139.1350   78.5540  223.0390 O   0  0  0  0  0  0  0  0  0  0  0  0
  141.0090   77.2670  222.2120 C   0  0  0  0  0  0  0  0  0  0  0  0
  140.0460   76.1830  222.2110 N   0  0  0  0  0  0  0  0  0  0  0  0
  140.4130   74.9420  221.6360 C   0  0  0  0  0  0  0  0  0  0  0  0
  141.5790   74.8160  221.1310 O   0  0  0  0  0  0  0  0  0  0  0  0
  139.5420   73.7520  221.5660 C   0  0  0  0  0  0  0  0  0  0  0  0
  139.6560   72.8740  222.6960 N   0  0  0  0  0  0  0  0  0  0  0  0
  139.4950   71.4640  222.5850 C   0  0  0  0  0  0  0  0  0  0  0  0
  139.2310   70.8950  221.4720 O   0  0  0  0  0  0  0  0  0  0  0  0
  139.6350   70.6220  223.7900 C   0  0  0  0  0  0  0  0  0  0  0  0
  139.1880   69.3200  223.7770 C   0  0  0  0  0  0  0  0  0  0  0  0
  139.3030   68.5030  224.8840 C   0  0  0  0  0  0  0  0  0  0  0  0
  139.8890   69.0370  226.0300 C   0  0  0  0  0  0  0  0  0  0  0  0
  140.0270   68.2700  227.1570 C   0  0  0  0  0  0  0  0  0  0  0  0
  140.6180   68.8190  228.3000 C   0  0  0  0  0  0  0  0  0  0  0  0
  140.7720   68.0890  229.4340 F   0  0  0  0  0  0  0  0  0  0  0  0
  141.0510   70.1400  228.2540 C   0  0  0  0  0  0  0  0  0  0  0  0
  140.9180   70.9190  227.1280 C   0  0  0  0  0  0  0  0  0  0  0  0
  140.3330   70.3600  226.0150 C   0  0  0  0  0  0  0  0  0  0  0  0
  140.2030   71.1320  224.9060 N   0  0  0  0  0  0  0  0  0  0  0  0
  143.1480   79.6657  223.5781 H   0  0  0  0  0  0  0  0  0  0  0  0
  142.8338   78.7633  222.0571 H   0  0  0  0  0  0  0  0  0  0  0  0
  142.8097   80.5594  222.0571 H   0  0  0  0  0  0  0  0  0  0  0  0
  140.6042   80.8552  224.5686 H   0  0  0  0  0  0  0  0  0  0  0  0
  141.1922   81.7337  223.1164 H   0  0  0  0  0  0  0  0  0  0  0  0
  139.5559   80.9926  223.1164 H   0  0  0  0  0  0  0  0  0  0  0  0
  141.3567   77.4578  221.1860 H   0  0  0  0  0  0  0  0  0  0  0  0
  141.8779   77.0042  222.8332 H   0  0  0  0  0  0  0  0  0  0  0  0
  139.1000   76.3300  222.6190 H   0  0  0  0  0  0  0  0  0  0  0  0
  138.4981   74.0918  221.4966 H   0  0  0  0  0  0  0  0  0  0  0  0
  139.8615   73.1769  220.6844 H   0  0  0  0  0  0  0  0  0  0  0  0
  139.8660   73.2400  223.6620 H   0  0  0  0  0  0  0  0  0  0  0  0
  138.7275   68.9204  222.8614 H   0  0  0  0  0  0  0  0  0  0  0  0
  138.9435   67.4636  224.8621 H   0  0  0  0  0  0  0  0  0  0  0  0
  139.6749   67.2279  227.1630 H   0  0  0  0  0  0  0  0  0  0  0  0
  141.5163   70.5773  229.1497 H   0  0  0  0  0  0  0  0  0  0  0  0
  141.2700   71.9611  227.1176 H   0  0  0  0  0  0  0  0  0  0  0  0
  1  2  1  0
  2  3  1  0
  2  4  1  0
  4  5  2  0
  4  6  1  0
  6  7  1  0
  7  8  1  0
  8  9  2  0
  8 10  1  0
 10 11  1  0
 11 12  1  0
 12 13  2  0
 12 14  1  0
 14 15  2  0
 15 16  1  0
 16 17  2  0
 17 18  1  0
 18 19  2  0
 19 20  1  0
 19 21  1  0
 21 22  2  0
 22 23  1  0
 23 24  2  0
 24 14  1  0
 23 17  1  0
  1 25  1  0
  1 26  1  0
  1 27  1  0
  3 28  1  0
  3 29  1  0
  3 30  1  0
  6 31  1  0
  6 32  1  0
  7 33  1  0
 10 34  1  0
 10 35  1  0
 11 36  1  0
 15 37  1  0
 16 38  1  0
 18 39  1  0
 21 40  1  0
 22 41  1  0
M  END
>  <smiles>  (5) 
CN(C)C(=O)CNC(=O)CNC(=O)c1ccc2cc(F)ccc2n1

>  <score_type>  (5) 
oracle

>  <origin>  (5) 
autodockgpu

>  <m_score__min__energy>  (5) 
-7.7199999999999998

>  <m_primary>  (5) 
energy

>  <rmsd>  (5) 
4.979734034628088

>  <m_score__min__rmsd>  (5) 
4.979734034628088

>  <meeko>  (5) 
{"free_energy": -6.61, "intermolecular_energy": -8.1, "internal_energy": -1.68, "cluster_size": 49, "cluster_id": 1, "rank_in_cluster": 18}

>  <energy>  (5) 
-7.53

>  <cluster_rmsd>  (5) 
0.21

>  <cluster>  (5) 
1

$$$$

     RDKit          3D

 41 42  0  0  0  0  0  0  0  0999 V2000
  142.9260   79.8820  222.8030 C   0  0  0  0  0  0  0  0  0  0  0  0
  141.5230   79.9600  223.1580 N   0  0  0  0  0  0  0  0  0  0  0  0
  141.0910   81.1950  223.8100 C   0  0  0  0  0  0  0  0  0  0  0  0
  140.6010   78.8940  222.8900 C   0  0  0  0  0  0  0  0  0  0  0  0
  139.4150   79.0540  223.2310 O   0  0  0  0  0  0  0  0  0  0  0  0
  141.1390   77.6870  222.2240 C   0  0  0  0  0  0  0  0  0  0  0  0
  140.0570   76.7310  222.0820 N   0  0  0  0  0  0  0  0  0  0  0  0
  140.3290   75.4730  221.4930 C   0  0  0  0  0  0  0  0  0  0  0  0
  141.5180   75.2180  221.1010 O   0  0  0  0  0  0  0  0  0  0  0  0
  139.3340   74.4030  221.2870 C   0  0  0  0  0  0  0  0  0  0  0  0
  139.2790   73.4380  222.3480 N   0  0  0  0  0  0  0  0  0  0  0  0
  140.3200   72.4960  222.5780 C   0  0  0  0  0  0  0  0  0  0  0  0
  141.3650   72.4460  221.8460 O   0  0  0  0  0  0  0  0  0  0  0  0
  140.1970   71.5390  223.6960 C   0  0  0  0  0  0  0  0  0  0  0  0
  139.5860   70.3220  223.4990 C   0  0  0  0  0  0  0  0  0  0  0  0
  139.4550   69.4020  224.5200 C   0  0  0  0  0  0  0  0  0  0  0  0
  139.9610   69.7420  225.7720 C   0  0  0  0  0  0  0  0  0  0  0  0
  139.8560   68.8670  226.8210 C   0  0  0  0  0  0  0  0  0  0  0  0
  140.3690   69.2220  228.0730 C   0  0  0  0  0  0  0  0  0  0  0  0
  140.2840   68.3800  229.1340 F   0  0  0  0  0  0  0  0  0  0  0  0
  140.9760   70.4660  228.2140 C   0  0  0  0  0  0  0  0  0  0  0  0
  141.0870   71.3520  227.1680 C   0  0  0  0  0  0  0  0  0  0  0  0
  140.5750   70.9840  225.9450 C   0  0  0  0  0  0  0  0  0  0  0  0
  140.6860   71.8610  224.9150 N   0  0  0  0  0  0  0  0  0  0  0  0
  143.5346   79.8482  223.7187 H   0  0  0  0  0  0  0  0  0  0  0  0
  143.1043   78.9726  222.2104 H   0  0  0  0  0  0  0  0  0  0  0  0
  143.2040   80.7661  222.2104 H   0  0  0  0  0  0  0  0  0  0  0  0
  141.1354   81.0682  224.9018 H   0  0  0  0  0  0  0  0  0  0  0  0
  141.7541   82.0196  223.5094 H   0  0  0  0  0  0  0  0  0  0  0  0
  140.0585   81.4265  223.5094 H   0  0  0  0  0  0  0  0  0  0  0  0
  141.5341   77.9530  221.2325 H   0  0  0  0  0  0  0  0  0  0  0  0
  141.9548   77.2536  222.8212 H   0  0  0  0  0  0  0  0  0  0  0  0
  139.0990   76.9830  222.4000 H   0  0  0  0  0  0  0  0  0  0  0  0
  138.3418   74.8683  221.1922 H   0  0  0  0  0  0  0  0  0  0  0  0
  139.6382   73.8590  220.3806 H   0  0  0  0  0  0  0  0  0  0  0  0
  138.4570   73.3890  223.0080 H   0  0  0  0  0  0  0  0  0  0  0  0
  139.1917   70.0757  222.5021 H   0  0  0  0  0  0  0  0  0  0  0  0
  138.9664   68.4312  224.3499 H   0  0  0  0  0  0  0  0  0  0  0  0
  139.3707   67.8901  226.6794 H   0  0  0  0  0  0  0  0  0  0  0  0
  141.3812   70.7508  229.1962 H   0  0  0  0  0  0  0  0  0  0  0  0
  141.5725   72.3294  227.3055 H   0  0  0  0  0  0  0  0  0  0  0  0
  1  2  1  0
  2  3  1  0
  2  4  1  0
  4  5  2  0
  4  6  1  0
  6  7  1  0
  7  8  1  0
  8  9  2  0
  8 10  1  0
 10 11  1  0
 11 12  1  0
 12 13  2  0
 12 14  1  0
 14 15  2  0
 15 16  1  0
 16 17  2  0
 17 18  1  0
 18 19  2  0
 19 20  1  0
 19 21  1  0
 21 22  2  0
 22 23  1  0
 23 24  2  0
 24 14  1  0
 23 17  1  0
  1 25  1  0
  1 26  1  0
  1 27  1  0
  3 28  1  0
  3 29  1  0
  3 30  1  0
  6 31  1  0
  6 32  1  0
  7 33  1  0
 10 34  1  0
 10 35  1  0
 11 36  1  0
 15 37  1  0
 16 38  1  0
 18 39  1  0
 21 40  1  0
 22 41  1  0
M  END
>  <smiles>  (6) 
CN(C)C(=O)CNC(=O)CNC(=O)c1ccc2cc(F)ccc2n1

>  <score_type>  (6) 
oracle

>  <origin>  (6) 
autodockgpu

>  <m_score__min__energy>  (6) 
-7.7199999999999998

>  <m_primary>  (6) 
energy

>  <rmsd>  (6) 
5.301402058732955

>  <m_score__min__rmsd>  (6) 
5.301402058732955

>  <meeko>  (6) 
{"free_energy": -7.0, "intermolecular_energy": -8.5, "internal_energy": -1.42, "cluster_size": 49, "cluster_id": 1, "rank_in_cluster": 13}

>  <energy>  (6) 
-7.39

>  <cluster_rmsd>  (6) 
0.36

>  <cluster>  (6) 
1

$$$$

     RDKit          3D

 41 42  0  0  0  0  0  0  0  0999 V2000
  139.2140   79.1750  222.9950 C   0  0  0  0  0  0  0  0  0  0  0  0
  140.3000   78.2410  222.7780 N   0  0  0  0  0  0  0  0  0  0  0  0
  141.6480   78.7550  223.0160 C   0  0  0  0  0  0  0  0  0  0  0  0
  140.0790   76.8890  222.3540 C   0  0  0  0  0  0  0  0  0  0  0  0
  141.0760   76.1620  222.1940 O   0  0  0  0  0  0  0  0  0  0  0  0
  138.6770   76.4680  222.1420 C   0  0  0  0  0  0  0  0  0  0  0  0
  138.6600   75.0280  221.9660 N   0  0  0  0  0  0  0  0  0  0  0  0
  138.5630   74.5000  220.6560 C   0  0  0  0  0  0  0  0  0  0  0  0
  138.4890   75.3070  219.6680 O   0  0  0  0  0  0  0  0  0  0  0  0
  138.5380   73.0620  220.3240 C   0  0  0  0  0  0  0  0  0  0  0  0
  138.6730   72.1950  221.4590 N   0  0  0  0  0  0  0  0  0  0  0  0
  139.6960   72.3660  222.4330 C   0  0  0  0  0  0  0  0  0  0  0  0
  140.5640   73.2990  222.3500 O   0  0  0  0  0  0  0  0  0  0  0  0
  139.7670   71.4390  223.5800 C   0  0  0  0  0  0  0  0  0  0  0  0
  139.2520   70.1670  223.4730 C   0  0  0  0  0  0  0  0  0  0  0  0
  139.3010   69.2730  224.5240 C   0  0  0  0  0  0  0  0  0  0  0  0
  139.8900   69.6970  225.7120 C   0  0  0  0  0  0  0  0  0  0  0  0
  139.9650   68.8510  226.7880 C   0  0  0  0  0  0  0  0  0  0  0  0
  140.5600   69.2900  227.9750 C   0  0  0  0  0  0  0  0  0  0  0  0
  140.6510   68.4780  229.0590 F   0  0  0  0  0  0  0  0  0  0  0  0
  141.0630   70.5850  228.0260 C   0  0  0  0  0  0  0  0  0  0  0  0
  140.9940   71.4430  226.9530 C   0  0  0  0  0  0  0  0  0  0  0  0
  140.4040   70.9920  225.7950 C   0  0  0  0  0  0  0  0  0  0  0  0
  140.3380   71.8420  224.7380 N   0  0  0  0  0  0  0  0  0  0  0  0
  139.0569   79.3101  224.0753 H   0  0  0  0  0  0  0  0  0  0  0  0
  139.4659   80.1430  222.5372 H   0  0  0  0  0  0  0  0  0  0  0  0
  138.2946   78.7811  222.5372 H   0  0  0  0  0  0  0  0  0  0  0  0
  141.8283   78.8237  224.0990 H   0  0  0  0  0  0  0  0  0  0  0  0
  142.3849   78.0748  222.5641 H   0  0  0  0  0  0  0  0  0  0  0  0
  141.7449   79.7532  222.5641 H   0  0  0  0  0  0  0  0  0  0  0  0
  138.0687   76.7439  223.0160 H   0  0  0  0  0  0  0  0  0  0  0  0
  138.2602   76.9652  221.2537 H   0  0  0  0  0  0  0  0  0  0  0  0
  138.7070   74.4050  222.7970 H   0  0  0  0  0  0  0  0  0  0  0  0
  137.5806   72.8382  219.8307 H   0  0  0  0  0  0  0  0  0  0  0  0
  139.4058   72.8717  219.6753 H   0  0  0  0  0  0  0  0  0  0  0  0
  138.0120   71.3880  221.6200 H   0  0  0  0  0  0  0  0  0  0  0  0
  138.7892   69.8545  222.5253 H   0  0  0  0  0  0  0  0  0  0  0  0
  138.8879   68.2583  224.4258 H   0  0  0  0  0  0  0  0  0  0  0  0
  139.5589   67.8311  226.7181 H   0  0  0  0  0  0  0  0  0  0  0  0
  141.5326   70.9358  228.9568 H   0  0  0  0  0  0  0  0  0  0  0  0
  141.4000   72.4632  227.0192 H   0  0  0  0  0  0  0  0  0  0  0  0
  1  2  1  0
  2  3  1  0
  2  4  1  0
  4  5  2  0
  4  6  1  0
  6  7  1  0
  7  8  1  0
  8  9  2  0
  8 10  1  0
 10 11  1  0
 11 12  1  0
 12 13  2  0
 12 14  1  0
 14 15  2  0
 15 16  1  0
 16 17  2  0
 17 18  1  0
 18 19  2  0
 19 20  1  0
 19 21  1  0
 21 22  2  0
 22 23  1  0
 23 24  2  0
 24 14  1  0
 23 17  1  0
  1 25  1  0
  1 26  1  0
  1 27  1  0
  3 28  1  0
  3 29  1  0
  3 30  1  0
  6 31  1  0
  6 32  1  0
  7 33  1  0
 10 34  1  0
 10 35  1  0
 11 36  1  0
 15 37  1  0
 16 38  1  0
 18 39  1  0
 21 40  1  0
 22 41  1  0
M  END
>  <smiles>  (7) 
CN(C)C(=O)CNC(=O)CNC(=O)c1ccc2cc(F)ccc2n1

>  <score_type>  (7) 
oracle

>  <origin>  (7) 
autodockgpu

>  <m_score__min__energy>  (7) 
-7.7199999999999998

>  <m_primary>  (7) 
energy

>  <rmsd>  (7) 
4.460065144198104

>  <m_score__min__rmsd>  (7) 
4.460065144198104

>  <meeko>  (7) 
{"free_energy": -6.82, "intermolecular_energy": -8.31, "internal_energy": -1.51, "cluster_size": 49, "cluster_id": 1, "rank_in_cluster": 14}

>  <energy>  (7) 
-7.38

>  <cluster_rmsd>  (7) 
0.26

>  <cluster>  (7) 
1

$$$$

     RDKit          3D

 41 42  0  0  0  0  0  0  0  0999 V2000
  137.3670   78.5850  222.3020 C   0  0  0  0  0  0  0  0  0  0  0  0
  138.6730   78.0060  222.5430 N   0  0  0  0  0  0  0  0  0  0  0  0
  139.7210   78.9340  222.9640 C   0  0  0  0  0  0  0  0  0  0  0  0
  138.9360   76.6050  222.3810 C   0  0  0  0  0  0  0  0  0  0  0  0
  140.0900   76.2010  222.6110 O   0  0  0  0  0  0  0  0  0  0  0  0
  137.8060   75.7510  221.9520 C   0  0  0  0  0  0  0  0  0  0  0  0
  138.2370   74.3670  222.0180 N   0  0  0  0  0  0  0  0  0  0  0  0
  137.6420   73.4230  221.1470 C   0  0  0  0  0  0  0  0  0  0  0  0
  136.7410   73.8170  220.3310 O   0  0  0  0  0  0  0  0  0  0  0  0
  137.9790   71.9880  221.0980 C   0  0  0  0  0  0  0  0  0  0  0  0
  138.4150   71.4440  222.3530 N   0  0  0  0  0  0  0  0  0  0  0  0
  139.6000   71.8870  223.0060 C   0  0  0  0  0  0  0  0  0  0  0  0
  140.3530   72.7910  222.5090 O   0  0  0  0  0  0  0  0  0  0  0  0
  139.9810   71.2870  224.3010 C   0  0  0  0  0  0  0  0  0  0  0  0
  140.8700   71.9360  225.1260 C   0  0  0  0  0  0  0  0  0  0  0  0
  141.2490   71.4060  226.3440 C   0  0  0  0  0  0  0  0  0  0  0  0
  140.7030   70.1810  226.7190 C   0  0  0  0  0  0  0  0  0  0  0  0
  141.0450   69.6100  227.9170 C   0  0  0  0  0  0  0  0  0  0  0  0
  140.4880   68.3790  228.2810 C   0  0  0  0  0  0  0  0  0  0  0  0
  140.8040   67.7840  229.4600 F   0  0  0  0  0  0  0  0  0  0  0  0
  139.5960   67.7690  227.4070 C   0  0  0  0  0  0  0  0  0  0  0  0
  139.2440   68.3340  226.2030 C   0  0  0  0  0  0  0  0  0  0  0  0
  139.8030   69.5440  225.8630 C   0  0  0  0  0  0  0  0  0  0  0  0
  139.4550   70.0980  224.6730 N   0  0  0  0  0  0  0  0  0  0  0  0
  136.8788   78.8015  223.2637 H   0  0  0  0  0  0  0  0  0  0  0  0
  137.4793   79.5176  221.7297 H   0  0  0  0  0  0  0  0  0  0  0  0
  136.7513   77.8755  221.7297 H   0  0  0  0  0  0  0  0  0  0  0  0
  139.7602   78.9688  224.0628 H   0  0  0  0  0  0  0  0  0  0  0  0
  140.6911   78.5934  222.5730 H   0  0  0  0  0  0  0  0  0  0  0  0
  139.5003   79.9382  222.5730 H   0  0  0  0  0  0  0  0  0  0  0  0
  136.9464   75.9062  222.6206 H   0  0  0  0  0  0  0  0  0  0  0  0
  137.5024   76.0073  220.9262 H   0  0  0  0  0  0  0  0  0  0  0  0
  138.9630   74.0840  222.7070 H   0  0  0  0  0  0  0  0  0  0  0  0
  137.0855   71.4344  220.7735 H   0  0  0  0  0  0  0  0  0  0  0  0
  138.8213   71.8842  220.3981 H   0  0  0  0  0  0  0  0  0  0  0  0
  137.8700   70.6880  222.8480 H   0  0  0  0  0  0  0  0  0  0  0  0
  141.2898   72.9016  224.8077 H   0  0  0  0  0  0  0  0  0  0  0  0
  141.9593   71.9346  226.9968 H   0  0  0  0  0  0  0  0  0  0  0  0
  141.7535   70.1166  228.5888 H   0  0  0  0  0  0  0  0  0  0  0  0
  139.1561   66.8007  227.6877 H   0  0  0  0  0  0  0  0  0  0  0  0
  138.5341   67.8313  225.5298 H   0  0  0  0  0  0  0  0  0  0  0  0
  1  2  1  0
  2  3  1  0
  2  4  1  0
  4  5  2  0
  4  6  1  0
  6  7  1  0
  7  8  1  0
  8  9  2  0
  8 10  1  0
 10 11  1  0
 11 12  1  0
 12 13  2  0
 12 14  1  0
 14 15  2  0
 15 16  1  0
 16 17  2  0
 17 18  1  0
 18 19  2  0
 19 20  1  0
 19 21  1  0
 21 22  2  0
 22 23  1  0
 23 24  2  0
 24 14  1  0
 23 17  1  0
  1 25  1  0
  1 26  1  0
  1 27  1  0
  3 28  1  0
  3 29  1  0
  3 30  1  0
  6 31  1  0
  6 32  1  0
  7 33  1  0
 10 34  1  0
 10 35  1  0
 11 36  1  0
 15 37  1  0
 16 38  1  0
 18 39  1  0
 21 40  1  0
 22 41  1  0
M  END
>  <smiles>  (8) 
CN(C)C(=O)CNC(=O)CNC(=O)c1ccc2cc(F)ccc2n1

>  <score_type>  (8) 
oracle

>  <origin>  (8) 
autodockgpu

>  <m_score__min__energy>  (8) 
-7.7199999999999998

>  <m_primary>  (8) 
energy

>  <rmsd>  (8) 
3.567408080980742

>  <m_score__min__rmsd>  (8) 
3.567408080980742

>  <meeko>  (8) 
{"free_energy": -6.08, "intermolecular_energy": -7.57, "internal_energy": -2.27, "cluster_size": 49, "cluster_id": 1, "rank_in_cluster": 48}

>  <energy>  (8) 
-7.38

>  <cluster_rmsd>  (8) 
0.28

>  <cluster>  (8) 
1

$$$$

     RDKit          3D

 41 42  0  0  0  0  0  0  0  0999 V2000
  141.1510   81.0060  222.0690 C   0  0  0  0  0  0  0  0  0  0  0  0
  141.8310   80.1960  223.0610 N   0  0  0  0  0  0  0  0  0  0  0  0
  142.8290   80.8840  223.8790 C   0  0  0  0  0  0  0  0  0  0  0  0
  141.5510   78.8010  223.2380 C   0  0  0  0  0  0  0  0  0  0  0  0
  142.1860   78.1890  224.1160 O   0  0  0  0  0  0  0  0  0  0  0  0
  140.5220   78.2010  222.3600 C   0  0  0  0  0  0  0  0  0  0  0  0
  140.8760   76.8130  222.1350 N   0  0  0  0  0  0  0  0  0  0  0  0
  139.9800   75.9860  221.4150 C   0  0  0  0  0  0  0  0  0  0  0  0
  138.8840   76.4860  220.9900 O   0  0  0  0  0  0  0  0  0  0  0  0
  140.2060   74.5600  221.1080 C   0  0  0  0  0  0  0  0  0  0  0  0
  140.0200   73.6810  222.2280 N   0  0  0  0  0  0  0  0  0  0  0  0
  140.4550   72.3270  222.2140 C   0  0  0  0  0  0  0  0  0  0  0  0
  141.0320   71.8080  221.1990 O   0  0  0  0  0  0  0  0  0  0  0  0
  140.2380   71.4840  223.4070 C   0  0  0  0  0  0  0  0  0  0  0  0
  139.5740   70.2830  223.2920 C   0  0  0  0  0  0  0  0  0  0  0  0
  139.3530   69.4690  224.3850 C   0  0  0  0  0  0  0  0  0  0  0  0
  139.8230   69.8990  225.6240 C   0  0  0  0  0  0  0  0  0  0  0  0
  139.6310   69.1310  226.7410 C   0  0  0  0  0  0  0  0  0  0  0  0
  140.1080   69.5750  227.9780 C   0  0  0  0  0  0  0  0  0  0  0  0
  139.9360   68.8390  229.1060 F   0  0  0  0  0  0  0  0  0  0  0  0
  140.7710   70.7970  228.0350 C   0  0  0  0  0  0  0  0  0  0  0  0
  140.9700   71.5760  226.9190 C   0  0  0  0  0  0  0  0  0  0  0  0
  140.4920   71.1210  225.7120 C   0  0  0  0  0  0  0  0  0  0  0  0
  140.6910   71.8940  224.6140 N   0  0  0  0  0  0  0  0  0  0  0  0
  140.5229   81.7542  222.5746 H   0  0  0  0  0  0  0  0  0  0  0  0
  141.8950   81.5166  221.4399 H   0  0  0  0  0  0  0  0  0  0  0  0
  140.5193   80.3616  221.4399 H   0  0  0  0  0  0  0  0  0  0  0  0
  142.6016   80.7272  224.9438 H   0  0  0  0  0  0  0  0  0  0  0  0
  143.8278   80.4817  223.6543 H   0  0  0  0  0  0  0  0  0  0  0  0
  142.8083   81.9606  223.6543 H   0  0  0  0  0  0  0  0  0  0  0  0
  139.5367   78.2606  222.8455 H   0  0  0  0  0  0  0  0  0  0  0  0
  140.4744   78.7422  221.4035 H   0  0  0  0  0  0  0  0  0  0  0  0
  141.7710   76.4390  222.5110 H   0  0  0  0  0  0  0  0  0  0  0  0
  139.5040   74.2622  220.3152 H   0  0  0  0  0  0  0  0  0  0  0  0
  141.2584   74.4650  220.8025 H   0  0  0  0  0  0  0  0  0  0  0  0
  139.5490   74.0070  223.1140 H   0  0  0  0  0  0  0  0  0  0  0  0
  139.2104   69.9641  222.3040 H   0  0  0  0  0  0  0  0  0  0  0  0
  138.8225   68.5110  224.2808 H   0  0  0  0  0  0  0  0  0  0  0  0
  139.1036   68.1686  226.6656 H   0  0  0  0  0  0  0  0  0  0  0  0
  141.1487   71.1520  229.0052 H   0  0  0  0  0  0  0  0  0  0  0  0
  141.4980   72.5384  226.9899 H   0  0  0  0  0  0  0  0  0  0  0  0
  1  2  1  0
  2  3  1  0
  2  4  1  0
  4  5  2  0
  4  6  1  0
  6  7  1  0
  7  8  1  0
  8  9  2  0
  8 10  1  0
 10 11  1  0
 11 12  1  0
 12 13  2  0
 12 14  1  0
 14 15  2  0
 15 16  1  0
 16 17  2  0
 17 18  1  0
 18 19  2  0
 19 20  1  0
 19 21  1  0
 21 22  2  0
 22 23  1  0
 23 24  2  0
 24 14  1  0
 23 17  1  0
  1 25  1  0
  1 26  1  0
  1 27  1  0
  3 28  1  0
  3 29  1  0
  3 30  1  0
  6 31  1  0
  6 32  1  0
  7 33  1  0
 10 34  1  0
 10 35  1  0
 11 36  1  0
 15 37  1  0
 16 38  1  0
 18 39  1  0
 21 40  1  0
 22 41  1  0
M  END
>  <smiles>  (9) 
CN(C)C(=O)CNC(=O)CNC(=O)c1ccc2cc(F)ccc2n1

>  <score_type>  (9) 
oracle

>  <origin>  (9) 
autodockgpu

>  <m_score__min__energy>  (9) 
-7.7199999999999998

>  <m_primary>  (9) 
energy

>  <rmsd>  (9) 
5.447411513672795

>  <m_score__min__rmsd>  (9) 
5.447411513672795

>  <meeko>  (9) 
{"free_energy": -7.53, "intermolecular_energy": -9.02, "internal_energy": -1.28, "cluster_size": 49, "cluster_id": 1, "rank_in_cluster": 5}

>  <energy>  (9) 
-7.33

>  <cluster_rmsd>  (9) 
0.3

>  <cluster>  (9) 
1

$$$$

     RDKit          3D

 41 42  0  0  0  0  0  0  0  0999 V2000
  141.2030   80.8940  222.0980 C   0  0  0  0  0  0  0  0  0  0  0  0
  141.8690   80.0890  223.1020 N   0  0  0  0  0  0  0  0  0  0  0  0
  142.9080   80.7610  223.8820 C   0  0  0  0  0  0  0  0  0  0  0  0
  141.5380   78.7120  223.3280 C   0  0  0  0  0  0  0  0  0  0  0  0
  142.1660   78.1030  224.2130 O   0  0  0  0  0  0  0  0  0  0  0  0
  140.4720   78.1260  222.4860 C   0  0  0  0  0  0  0  0  0  0  0  0
  140.7860   76.7270  222.2700 N   0  0  0  0  0  0  0  0  0  0  0  0
  139.9330   75.9540  221.4440 C   0  0  0  0  0  0  0  0  0  0  0  0
  138.9110   76.5110  220.9180 O   0  0  0  0  0  0  0  0  0  0  0  0
  140.1270   74.5250  221.1320 C   0  0  0  0  0  0  0  0  0  0  0  0
  139.9670   73.6500  222.2600 N   0  0  0  0  0  0  0  0  0  0  0  0
  140.3420   72.2790  222.2190 C   0  0  0  0  0  0  0  0  0  0  0  0
  140.8380   71.7390  221.1730 O   0  0  0  0  0  0  0  0  0  0  0  0
  140.1570   71.4410  223.4220 C   0  0  0  0  0  0  0  0  0  0  0  0
  139.5530   70.2090  223.3190 C   0  0  0  0  0  0  0  0  0  0  0  0
  139.3630   69.3990  224.4200 C   0  0  0  0  0  0  0  0  0  0  0  0
  139.8030   69.8670  225.6560 C   0  0  0  0  0  0  0  0  0  0  0  0
  139.6390   69.1050  226.7830 C   0  0  0  0  0  0  0  0  0  0  0  0
  140.0860   69.5870  228.0170 C   0  0  0  0  0  0  0  0  0  0  0  0
  139.9410   68.8580  229.1530 F   0  0  0  0  0  0  0  0  0  0  0  0
  140.6890   70.8400  228.0620 C   0  0  0  0  0  0  0  0  0  0  0  0
  140.8590   71.6140  226.9370 C   0  0  0  0  0  0  0  0  0  0  0  0
  140.4120   71.1210  225.7330 C   0  0  0  0  0  0  0  0  0  0  0  0
  140.5810   71.8880  224.6260 N   0  0  0  0  0  0  0  0  0  0  0  0
  140.5764   81.6514  222.5917 H   0  0  0  0  0  0  0  0  0  0  0  0
  141.9555   81.3934  221.4701 H   0  0  0  0  0  0  0  0  0  0  0  0
  140.5715   80.2483  221.4701 H   0  0  0  0  0  0  0  0  0  0  0  0
  142.7041   80.6291  224.9549 H   0  0  0  0  0  0  0  0  0  0  0  0
  143.8884   80.3255  223.6389 H   0  0  0  0  0  0  0  0  0  0  0  0
  142.9129   81.8338  223.6389 H   0  0  0  0  0  0  0  0  0  0  0  0
  139.5019   78.2158  222.9967 H   0  0  0  0  0  0  0  0  0  0  0  0
  140.4120   78.6559  221.5239 H   0  0  0  0  0  0  0  0  0  0  0  0
  141.6190   76.3060  222.7290 H   0  0  0  0  0  0  0  0  0  0  0  0
  139.3935   74.2366  220.3647 H   0  0  0  0  0  0  0  0  0  0  0  0
  141.1666   74.4139  220.7902 H   0  0  0  0  0  0  0  0  0  0  0  0
  139.5630   73.9930  223.1720 H   0  0  0  0  0  0  0  0  0  0  0  0
  139.2125   69.8605  222.3328 H   0  0  0  0  0  0  0  0  0  0  0  0
  138.8797   68.4155  224.3246 H   0  0  0  0  0  0  0  0  0  0  0  0
  139.1577   68.1181  226.7171 H   0  0  0  0  0  0  0  0  0  0  0  0
  141.0419   71.2252  229.0300 H   0  0  0  0  0  0  0  0  0  0  0  0
  141.3399   72.6014  226.9988 H   0  0  0  0  0  0  0  0  0  0  0  0
  1  2  1  0
  2  3  1  0
  2  4  1  0
  4  5  2  0
  4  6  1  0
  6  7  1  0
  7  8  1  0
  8  9  2  0
  8 10  1  0
 10 11  1  0
 11 12  1  0
 12 13  2  0
 12 14  1  0
 14 15  2  0
 15 16  1  0
 16 17  2  0
 17 18  1  0
 18 19  2  0
 19 20  1  0
 19 21  1  0
 21 22  2  0
 22 23  1  0
 23 24  2  0
 24 14  1  0
 23 17  1  0
  1 25  1  0
  1 26  1  0
  1 27  1  0
  3 28  1  0
  3 29  1  0
  3 30  1  0
  6 31  1  0
  6 32  1  0
  7 33  1  0
 10 34  1  0
 10 35  1  0
 11 36  1  0
 15 37  1  0
 16 38  1  0
 18 39  1  0
 21 40  1  0
 22 41  1  0
M  END
>  <smiles>  (10) 
CN(C)C(=O)CNC(=O)CNC(=O)c1ccc2cc(F)ccc2n1

>  <score_type>  (10) 
oracle

>  <origin>  (10) 
autodockgpu

>  <m_score__min__energy>  (10) 
-7.7199999999999998

>  <m_primary>  (10) 
energy

>  <rmsd>  (10) 
5.406669054955324

>  <m_score__min__rmsd>  (10) 
5.406669054955324

>  <meeko>  (10) 
{"free_energy": -7.38, "intermolecular_energy": -8.87, "internal_energy": -1.34, "cluster_size": 49, "cluster_id": 1, "rank_in_cluster": 7}

>  <energy>  (10) 
-7.23

>  <cluster_rmsd>  (10) 
0.69

>  <cluster>  (10) 
1

$$$$

     RDKit          3D

 41 42  0  0  0  0  0  0  0  0999 V2000
  137.1540   78.4900  222.2890 C   0  0  0  0  0  0  0  0  0  0  0  0
  138.4810   77.9750  222.5580 N   0  0  0  0  0  0  0  0  0  0  0  0
  139.4750   78.9520  222.9990 C   0  0  0  0  0  0  0  0  0  0  0  0
  138.8130   76.5880  222.4040 C   0  0  0  0  0  0  0  0  0  0  0  0
  139.9810   76.2400  222.6590 O   0  0  0  0  0  0  0  0  0  0  0  0
  137.7350   75.6800  221.9540 C   0  0  0  0  0  0  0  0  0  0  0  0
  138.2370   74.3210  222.0110 N   0  0  0  0  0  0  0  0  0  0  0  0
  137.7220   73.3630  221.1040 C   0  0  0  0  0  0  0  0  0  0  0  0
  136.8270   73.7230  220.2660 O   0  0  0  0  0  0  0  0  0  0  0  0
  138.1380   71.9480  221.0430 C   0  0  0  0  0  0  0  0  0  0  0  0
  138.5530   71.4020  222.3040 N   0  0  0  0  0  0  0  0  0  0  0  0
  139.6880   71.8920  223.0090 C   0  0  0  0  0  0  0  0  0  0  0  0
  140.4110   72.8430  222.5580 O   0  0  0  0  0  0  0  0  0  0  0  0
  140.0510   71.2870  224.3070 C   0  0  0  0  0  0  0  0  0  0  0  0
  140.9370   71.9260  225.1430 C   0  0  0  0  0  0  0  0  0  0  0  0
  141.2990   71.3920  226.3630 C   0  0  0  0  0  0  0  0  0  0  0  0
  140.7380   70.1710  226.7310 C   0  0  0  0  0  0  0  0  0  0  0  0
  141.0630   69.5950  227.9310 C   0  0  0  0  0  0  0  0  0  0  0  0
  140.4920   68.3690  228.2880 C   0  0  0  0  0  0  0  0  0  0  0  0
  140.7900   67.7690  229.4690 F   0  0  0  0  0  0  0  0  0  0  0  0
  139.6020   67.7680  227.4040 C   0  0  0  0  0  0  0  0  0  0  0  0
  139.2690   68.3370  226.1970 C   0  0  0  0  0  0  0  0  0  0  0  0
  139.8420   69.5430  225.8640 C   0  0  0  0  0  0  0  0  0  0  0  0
  139.5110   70.1020  224.6730 N   0  0  0  0  0  0  0  0  0  0  0  0
  136.6386   78.6900  223.2400 H   0  0  0  0  0  0  0  0  0  0  0  0
  137.2328   79.4228  221.7114 H   0  0  0  0  0  0  0  0  0  0  0  0
  136.5829   77.7482  221.7114 H   0  0  0  0  0  0  0  0  0  0  0  0
  139.5012   78.9777  224.0984 H   0  0  0  0  0  0  0  0  0  0  0  0
  140.4655   78.6662  222.6152 H   0  0  0  0  0  0  0  0  0  0  0  0
  139.2063   79.9472  222.6152 H   0  0  0  0  0  0  0  0  0  0  0  0
  136.8613   75.7826  222.6144 H   0  0  0  0  0  0  0  0  0  0  0  0
  137.4298   75.9305  220.9273 H   0  0  0  0  0  0  0  0  0  0  0  0
  138.9550   74.0630  222.7190 H   0  0  0  0  0  0  0  0  0  0  0  0
  137.2891   71.3545  220.6727 H   0  0  0  0  0  0  0  0  0  0  0  0
  139.0119   71.9038  220.3764 H   0  0  0  0  0  0  0  0  0  0  0  0
  138.0300   70.6100  222.7630 H   0  0  0  0  0  0  0  0  0  0  0  0
  141.3685   72.8884  224.8307 H   0  0  0  0  0  0  0  0  0  0  0  0
  142.0075   71.9135  227.0234 H   0  0  0  0  0  0  0  0  0  0  0  0
  141.7695   70.0943  228.6103 H   0  0  0  0  0  0  0  0  0  0  0  0
  139.1489   66.8044  227.6798 H   0  0  0  0  0  0  0  0  0  0  0  0
  138.5627   67.8407  225.5152 H   0  0  0  0  0  0  0  0  0  0  0  0
  1  2  1  0
  2  3  1  0
  2  4  1  0
  4  5  2  0
  4  6  1  0
  6  7  1  0
  7  8  1  0
  8  9  2  0
  8 10  1  0
 10 11  1  0
 11 12  1  0
 12 13  2  0
 12 14  1  0
 14 15  2  0
 15 16  1  0
 16 17  2  0
 17 18  1  0
 18 19  2  0
 19 20  1  0
 19 21  1  0
 21 22  2  0
 22 23  1  0
 23 24  2  0
 24 14  1  0
 23 17  1  0
  1 25  1  0
  1 26  1  0
  1 27  1  0
  3 28  1  0
  3 29  1  0
  3 30  1  0
  6 31  1  0
  6 32  1  0
  7 33  1  0
 10 34  1  0
 10 35  1  0
 11 36  1  0
 15 37  1  0
 16 38  1  0
 18 39  1  0
 21 40  1  0
 22 41  1  0
M  END
>  <smiles>  (11) 
CN(C)C(=O)CNC(=O)CNC(=O)c1ccc2cc(F)ccc2n1

>  <score_type>  (11) 
oracle

>  <origin>  (11) 
autodockgpu

>  <m_score__min__energy>  (11) 
-7.7199999999999998

>  <m_primary>  (11) 
energy

>  <rmsd>  (11) 
3.5649510138259717

>  <m_score__min__rmsd>  (11) 
3.5649510138259717

>  <meeko>  (11) 
{"free_energy": -6.09, "intermolecular_energy": -7.58, "internal_energy": -2.28, "cluster_size": 49, "cluster_id": 1, "rank_in_cluster": 47}

>  <energy>  (11) 
-7.19

>  <cluster_rmsd>  (11) 
0.62

>  <cluster>  (11) 
1

$$$$

     RDKit          3D

 41 42  0  0  0  0  0  0  0  0999 V2000
  141.9540   79.3700  222.5940 C   0  0  0  0  0  0  0  0  0  0  0  0
  140.6960   78.7050  222.8720 N   0  0  0  0  0  0  0  0  0  0  0  0
  139.7660   79.4240  223.7400 C   0  0  0  0  0  0  0  0  0  0  0  0
  140.3720   77.4160  222.3340 C   0  0  0  0  0  0  0  0  0  0  0  0
  139.2680   76.9250  222.6290 O   0  0  0  0  0  0  0  0  0  0  0  0
  141.3830   76.7730  221.4650 C   0  0  0  0  0  0  0  0  0  0  0  0
  140.9310   75.4260  221.1680 N   0  0  0  0  0  0  0  0  0  0  0  0
  141.8520   74.5010  220.6190 C   0  0  0  0  0  0  0  0  0  0  0  0
  143.0520   74.8810  220.3980 O   0  0  0  0  0  0  0  0  0  0  0  0
  141.5380   73.1020  220.2710 C   0  0  0  0  0  0  0  0  0  0  0  0
  141.3490   72.2430  221.4050 N   0  0  0  0  0  0  0  0  0  0  0  0
  140.3690   72.5030  222.4040 C   0  0  0  0  0  0  0  0  0  0  0  0
  139.6030   73.5240  222.3560 O   0  0  0  0  0  0  0  0  0  0  0  0
  140.2250   71.5680  223.5380 C   0  0  0  0  0  0  0  0  0  0  0  0
  139.5950   70.3580  223.3600 C   0  0  0  0  0  0  0  0  0  0  0  0
  139.4430   69.4590  224.3970 C   0  0  0  0  0  0  0  0  0  0  0  0
  139.9480   69.8130  225.6450 C   0  0  0  0  0  0  0  0  0  0  0  0
  139.8240   68.9590  226.7090 C   0  0  0  0  0  0  0  0  0  0  0  0
  140.3360   69.3280  227.9570 C   0  0  0  0  0  0  0  0  0  0  0  0
  140.2310   68.5060  229.0330 F   0  0  0  0  0  0  0  0  0  0  0  0
  140.9630   70.5630  228.0790 C   0  0  0  0  0  0  0  0  0  0  0  0
  141.0940   71.4290  227.0180 C   0  0  0  0  0  0  0  0  0  0  0  0
  140.5820   71.0470  225.7990 C   0  0  0  0  0  0  0  0  0  0  0  0
  140.7130   71.9040  224.7550 N   0  0  0  0  0  0  0  0  0  0  0  0
  142.4479   79.6311  223.5415 H   0  0  0  0  0  0  0  0  0  0  0  0
  142.6040   78.6977  222.0148 H   0  0  0  0  0  0  0  0  0  0  0  0
  141.7645   80.2857  222.0148 H   0  0  0  0  0  0  0  0  0  0  0  0
  140.0200   79.2276  224.7921 H   0  0  0  0  0  0  0  0  0  0  0  0
  139.8383   80.5034  223.5407 H   0  0  0  0  0  0  0  0  0  0  0  0
  138.7396   79.0823  223.5407 H   0  0  0  0  0  0  0  0  0  0  0  0
  141.4900   77.3447  220.5314 H   0  0  0  0  0  0  0  0  0  0  0  0
  142.3587   76.7445  221.9721 H   0  0  0  0  0  0  0  0  0  0  0  0
  139.9420   75.1610  221.3500 H   0  0  0  0  0  0  0  0  0  0  0  0
  140.6141   73.0938  219.6740 H   0  0  0  0  0  0  0  0  0  0  0  0
  142.4051   72.7109  219.7186 H   0  0  0  0  0  0  0  0  0  0  0  0
  141.9330   71.3750  221.5450 H   0  0  0  0  0  0  0  0  0  0  0  0
  139.2021   70.0999  222.3655 H   0  0  0  0  0  0  0  0  0  0  0  0
  138.9388   68.4937  224.2419 H   0  0  0  0  0  0  0  0  0  0  0  0
  139.3240   67.9874  226.5823 H   0  0  0  0  0  0  0  0  0  0  0  0
  141.3685   70.8580  229.0581 H   0  0  0  0  0  0  0  0  0  0  0  0
  141.5946   72.4008  227.1408 H   0  0  0  0  0  0  0  0  0  0  0  0
  1  2  1  0
  2  3  1  0
  2  4  1  0
  4  5  2  0
  4  6  1  0
  6  7  1  0
  7  8  1  0
  8  9  2  0
  8 10  1  0
 10 11  1  0
 11 12  1  0
 12 13  2  0
 12 14  1  0
 14 15  2  0
 15 16  1  0
 16 17  2  0
 17 18  1  0
 18 19  2  0
 19 20  1  0
 19 21  1  0
 21 22  2  0
 22 23  1  0
 23 24  2  0
 24 14  1  0
 23 17  1  0
  1 25  1  0
  1 26  1  0
  1 27  1  0
  3 28  1  0
  3 29  1  0
  3 30  1  0
  6 31  1  0
  6 32  1  0
  7 33  1  0
 10 34  1  0
 10 35  1  0
 11 36  1  0
 15 37  1  0
 16 38  1  0
 18 39  1  0
 21 40  1  0
 22 41  1  0
M  END
>  <smiles>  (12) 
CN(C)C(=O)CNC(=O)CNC(=O)c1ccc2cc(F)ccc2n1

>  <score_type>  (12) 
oracle

>  <origin>  (12) 
autodockgpu

>  <m_score__min__energy>  (12) 
-7.7199999999999998

>  <m_primary>  (12) 
energy

>  <rmsd>  (12) 
4.925158133080733

>  <m_score__min__rmsd>  (12) 
4.925158133080733

>  <meeko>  (12) 
{"free_energy": -6.46, "intermolecular_energy": -7.95, "internal_energy": -2.08, "cluster_size": 49, "cluster_id": 1, "rank_in_cluster": 32}

>  <energy>  (12) 
-7.12

>  <cluster_rmsd>  (12) 
0.39

>  <cluster>  (12) 
1

$$$$

     RDKit          3D

 41 42  0  0  0  0  0  0  0  0999 V2000
  142.0890   79.2650  222.6890 C   0  0  0  0  0  0  0  0  0  0  0  0
  140.7930   78.6610  222.9250 N   0  0  0  0  0  0  0  0  0  0  0  0
  139.9020   79.3800  223.8340 C   0  0  0  0  0  0  0  0  0  0  0  0
  140.3950   77.4280  222.3090 C   0  0  0  0  0  0  0  0  0  0  0  0
  139.2620   76.9870  222.5730 O   0  0  0  0  0  0  0  0  0  0  0  0
  141.3700   76.7800  221.4040 C   0  0  0  0  0  0  0  0  0  0  0  0
  140.8810   75.4500  221.0930 N   0  0  0  0  0  0  0  0  0  0  0  0
  141.8010   74.4670  220.6550 C   0  0  0  0  0  0  0  0  0  0  0  0
  143.0340   74.7820  220.5430 O   0  0  0  0  0  0  0  0  0  0  0  0
  141.4510   73.0770  220.3070 C   0  0  0  0  0  0  0  0  0  0  0  0
  141.2760   72.2130  221.4400 N   0  0  0  0  0  0  0  0  0  0  0  0
  140.3290   72.4860  222.4670 C   0  0  0  0  0  0  0  0  0  0  0  0
  139.5810   73.5220  222.4460 O   0  0  0  0  0  0  0  0  0  0  0  0
  140.1980   71.5460  223.5990 C   0  0  0  0  0  0  0  0  0  0  0  0
  139.5830   70.3280  223.4170 C   0  0  0  0  0  0  0  0  0  0  0  0
  139.4420   69.4250  224.4520 C   0  0  0  0  0  0  0  0  0  0  0  0
  139.9440   69.7830  225.7010 C   0  0  0  0  0  0  0  0  0  0  0  0
  139.8310   68.9240  226.7630 C   0  0  0  0  0  0  0  0  0  0  0  0
  140.3390   69.2960  228.0120 C   0  0  0  0  0  0  0  0  0  0  0  0
  140.2450   68.4710  229.0860 F   0  0  0  0  0  0  0  0  0  0  0  0
  140.9500   70.5400  228.1370 C   0  0  0  0  0  0  0  0  0  0  0  0
  141.0690   71.4090  227.0770 C   0  0  0  0  0  0  0  0  0  0  0  0
  140.5620   71.0240  225.8580 C   0  0  0  0  0  0  0  0  0  0  0  0
  140.6810   71.8860  224.8150 N   0  0  0  0  0  0  0  0  0  0  0  0
  142.5700   79.4892  223.6525 H   0  0  0  0  0  0  0  0  0  0  0  0
  142.7198   78.5681  222.1177 H   0  0  0  0  0  0  0  0  0  0  0  0
  141.9610   80.1962  222.1177 H   0  0  0  0  0  0  0  0  0  0  0  0
  140.1804   79.1554  224.8742 H   0  0  0  0  0  0  0  0  0  0  0  0
  139.9916   80.4618  223.6559 H   0  0  0  0  0  0  0  0  0  0  0  0
  138.8636   79.0639  223.6559 H   0  0  0  0  0  0  0  0  0  0  0  0
  141.4676   77.3672  220.4790 H   0  0  0  0  0  0  0  0  0  0  0  0
  142.3567   76.7202  221.8866 H   0  0  0  0  0  0  0  0  0  0  0  0
  139.8660   75.2380  221.1830 H   0  0  0  0  0  0  0  0  0  0  0  0
  140.5114   73.0907  219.7352 H   0  0  0  0  0  0  0  0  0  0  0  0
  142.2957   72.6735  219.7293 H   0  0  0  0  0  0  0  0  0  0  0  0
  141.8460   71.3340  221.5580 H   0  0  0  0  0  0  0  0  0  0  0  0
  139.1939   70.0674  222.4216 H   0  0  0  0  0  0  0  0  0  0  0  0
  138.9491   68.4542  224.2952 H   0  0  0  0  0  0  0  0  0  0  0  0
  139.3431   67.9466  226.6337 H   0  0  0  0  0  0  0  0  0  0  0  0
  141.3515   70.8387  229.1166 H   0  0  0  0  0  0  0  0  0  0  0  0
  141.5573   72.3868  227.2014 H   0  0  0  0  0  0  0  0  0  0  0  0
  1  2  1  0
  2  3  1  0
  2  4  1  0
  4  5  2  0
  4  6  1  0
  6  7  1  0
  7  8  1  0
  8  9  2  0
  8 10  1  0
 10 11  1  0
 11 12  1  0
 12 13  2  0
 12 14  1  0
 14 15  2  0
 15 16  1  0
 16 17  2  0
 17 18  1  0
 18 19  2  0
 19 20  1  0
 19 21  1  0
 21 22  2  0
 22 23  1  0
 23 24  2  0
 24 14  1  0
 23 17  1  0
  1 25  1  0
  1 26  1  0
  1 27  1  0
  3 28  1  0
  3 29  1  0
  3 30  1  0
  6 31  1  0
  6 32  1  0
  7 33  1  0
 10 34  1  0
 10 35  1  0
 11 36  1  0
 15 37  1  0
 16 38  1  0
 18 39  1  0
 21 40  1  0
 22 41  1  0
M  END
>  <smiles>  (13) 
CN(C)C(=O)CNC(=O)CNC(=O)c1ccc2cc(F)ccc2n1

>  <score_type>  (13) 
oracle

>  <origin>  (13) 
autodockgpu

>  <m_score__min__energy>  (13) 
-7.7199999999999998

>  <m_primary>  (13) 
energy

>  <rmsd>  (13) 
4.918940593315961

>  <m_score__min__rmsd>  (13) 
4.918940593315961

>  <meeko>  (13) 
{"free_energy": -6.49, "intermolecular_energy": -7.98, "internal_energy": -2.06, "cluster_size": 49, "cluster_id": 1, "rank_in_cluster": 27}

>  <energy>  (13) 
-7.0

>  <cluster_rmsd>  (13) 
1.21

>  <cluster>  (13) 
1

$$$$

     RDKit          3D

 41 42  0  0  0  0  0  0  0  0999 V2000
  142.5750   79.6680  222.6160 C   0  0  0  0  0  0  0  0  0  0  0  0
  141.1630   79.6420  222.9420 N   0  0  0  0  0  0  0  0  0  0  0  0
  140.6010   80.8850  223.4700 C   0  0  0  0  0  0  0  0  0  0  0  0
  140.3530   78.4730  222.7610 C   0  0  0  0  0  0  0  0  0  0  0  0
  139.1500   78.5480  223.0690 O   0  0  0  0  0  0  0  0  0  0  0  0
  141.0180   77.2670  222.2190 C   0  0  0  0  0  0  0  0  0  0  0  0
  140.0550   76.1820  222.2210 N   0  0  0  0  0  0  0  0  0  0  0  0
  140.4220   74.9410  221.6460 C   0  0  0  0  0  0  0  0  0  0  0  0
  141.5880   74.8150  221.1400 O   0  0  0  0  0  0  0  0  0  0  0  0
  139.5520   73.7510  221.5790 C   0  0  0  0  0  0  0  0  0  0  0  0
  139.6690   72.8720  222.7080 N   0  0  0  0  0  0  0  0  0  0  0  0
  139.4710   71.4670  222.6050 C   0  0  0  0  0  0  0  0  0  0  0  0
  139.1680   70.9020  221.5000 O   0  0  0  0  0  0  0  0  0  0  0  0
  139.6170   70.6240  223.8090 C   0  0  0  0  0  0  0  0  0  0  0  0
  139.1600   69.3260  223.8020 C   0  0  0  0  0  0  0  0  0  0  0  0
  139.2800   68.5090  224.9080 C   0  0  0  0  0  0  0  0  0  0  0  0
  139.8810   69.0390  226.0470 C   0  0  0  0  0  0  0  0  0  0  0  0
  140.0260   68.2720  227.1740 C   0  0  0  0  0  0  0  0  0  0  0  0
  140.6320   68.8170  228.3100 C   0  0  0  0  0  0  0  0  0  0  0  0
  140.7920   68.0860  229.4430 F   0  0  0  0  0  0  0  0  0  0  0  0
  141.0750   70.1340  228.2590 C   0  0  0  0  0  0  0  0  0  0  0  0
  140.9360   70.9140  227.1340 C   0  0  0  0  0  0  0  0  0  0  0  0
  140.3360   70.3590  226.0270 C   0  0  0  0  0  0  0  0  0  0  0  0
  140.2000   71.1310  224.9190 N   0  0  0  0  0  0  0  0  0  0  0  0
  143.1654   79.6789  223.5440 H   0  0  0  0  0  0  0  0  0  0  0  0
  142.8321   78.7744  222.0283 H   0  0  0  0  0  0  0  0  0  0  0  0
  142.7991   80.5704  222.0283 H   0  0  0  0  0  0  0  0  0  0  0  0
  140.6143   80.8555  224.5695 H   0  0  0  0  0  0  0  0  0  0  0  0
  141.2014   81.7372  223.1188 H   0  0  0  0  0  0  0  0  0  0  0  0
  139.5646   80.9971  223.1188 H   0  0  0  0  0  0  0  0  0  0  0  0
  141.3602   77.4599  221.1915 H   0  0  0  0  0  0  0  0  0  0  0  0
  141.8903   77.0034  222.8351 H   0  0  0  0  0  0  0  0  0  0  0  0
  139.1100   76.3300  222.6290 H   0  0  0  0  0  0  0  0  0  0  0  0
  138.5078   74.0904  221.5129 H   0  0  0  0  0  0  0  0  0  0  0  0
  139.8701   73.1762  220.6967 H   0  0  0  0  0  0  0  0  0  0  0  0
  139.9100   73.2360  223.6690 H   0  0  0  0  0  0  0  0  0  0  0  0
  138.6869   68.9294  222.8916 H   0  0  0  0  0  0  0  0  0  0  0  0
  138.9126   67.4723  224.8903 H   0  0  0  0  0  0  0  0  0  0  0  0
  139.6671   67.2323  227.1845 H   0  0  0  0  0  0  0  0  0  0  0  0
  141.5535   70.5677  229.1495 H   0  0  0  0  0  0  0  0  0  0  0  0
  141.2950   71.9537  227.1200 H   0  0  0  0  0  0  0  0  0  0  0  0
  1  2  1  0
  2  3  1  0
  2  4  1  0
  4  5  2  0
  4  6  1  0
  6  7  1  0
  7  8  1  0
  8  9  2  0
  8 10  1  0
 10 11  1  0
 11 12  1  0
 12 13  2  0
 12 14  1  0
 14 15  2  0
 15 16  1  0
 16 17  2  0
 17 18  1  0
 18 19  2  0
 19 20  1  0
 19 21  1  0
 21 22  2  0
 22 23  1  0
 23 24  2  0
 24 14  1  0
 23 17  1  0
  1 25  1  0
  1 26  1  0
  1 27  1  0
  3 28  1  0
  3 29  1  0
  3 30  1  0
  6 31  1  0
  6 32  1  0
  7 33  1  0
 10 34  1  0
 10 35  1  0
 11 36  1  0
 15 37  1  0
 16 38  1  0
 18 39  1  0
 21 40  1  0
 22 41  1  0
M  END
>  <smiles>  (14) 
CN(C)C(=O)CNC(=O)CNC(=O)c1ccc2cc(F)ccc2n1

>  <score_type>  (14) 
oracle

>  <origin>  (14) 
autodockgpu

>  <m_score__min__energy>  (14) 
-7.7199999999999998

>  <m_primary>  (14) 
energy

>  <rmsd>  (14) 
4.979497777995645

>  <m_score__min__rmsd>  (14) 
4.979497777995645

>  <meeko>  (14) 
{"free_energy": -6.6, "intermolecular_energy": -8.1, "internal_energy": -1.68, "cluster_size": 49, "cluster_id": 1, "rank_in_cluster": 19}

>  <energy>  (14) 
-6.82

>  <cluster_rmsd>  (14) 
1.44

>  <cluster>  (14) 
1

$$$$

     RDKit          3D

 41 42  0  0  0  0  0  0  0  0999 V2000
  141.1580   80.7920  222.1560 C   0  0  0  0  0  0  0  0  0  0  0  0
  141.8680   79.9650  223.1120 N   0  0  0  0  0  0  0  0  0  0  0  0
  142.9670   80.6100  223.8300 C   0  0  0  0  0  0  0  0  0  0  0  0
  141.5220   78.5940  223.3500 C   0  0  0  0  0  0  0  0  0  0  0  0
  142.1900   77.9650  224.1910 O   0  0  0  0  0  0  0  0  0  0  0  0
  140.3930   78.0370  222.5720 C   0  0  0  0  0  0  0  0  0  0  0  0
  140.6330   76.6190  222.3820 N   0  0  0  0  0  0  0  0  0  0  0  0
  139.9400   75.9410  221.3510 C   0  0  0  0  0  0  0  0  0  0  0  0
  139.1210   76.5960  220.6210 O   0  0  0  0  0  0  0  0  0  0  0  0
  140.0830   74.5050  221.0380 C   0  0  0  0  0  0  0  0  0  0  0  0
  139.8800   73.6360  222.1620 N   0  0  0  0  0  0  0  0  0  0  0  0
  140.5070   72.3630  222.2640 C   0  0  0  0  0  0  0  0  0  0  0  0
  141.2830   71.9120  221.3550 O   0  0  0  0  0  0  0  0  0  0  0  0
  140.2580   71.5260  223.4560 C   0  0  0  0  0  0  0  0  0  0  0  0
  139.5260   70.3660  223.3440 C   0  0  0  0  0  0  0  0  0  0  0  0
  139.2730   69.5590  224.4350 C   0  0  0  0  0  0  0  0  0  0  0  0
  139.7850   69.9540  225.6700 C   0  0  0  0  0  0  0  0  0  0  0  0
  139.5640   69.1910  226.7860 C   0  0  0  0  0  0  0  0  0  0  0  0
  140.0840   69.6000  228.0180 C   0  0  0  0  0  0  0  0  0  0  0  0
  139.8850   68.8680  229.1450 F   0  0  0  0  0  0  0  0  0  0  0  0
  140.8160   70.7810  228.0710 C   0  0  0  0  0  0  0  0  0  0  0  0
  141.0440   71.5550  226.9570 C   0  0  0  0  0  0  0  0  0  0  0  0
  140.5240   71.1350  225.7550 C   0  0  0  0  0  0  0  0  0  0  0  0
  140.7510   71.9020  224.6580 N   0  0  0  0  0  0  0  0  0  0  0  0
  140.5330   81.5200  222.6939 H   0  0  0  0  0  0  0  0  0  0  0  0
  141.8826   81.3268  221.5244 H   0  0  0  0  0  0  0  0  0  0  0  0
  140.5197   80.1567  221.5244 H   0  0  0  0  0  0  0  0  0  0  0  0
  142.8034   80.5140  224.9135 H   0  0  0  0  0  0  0  0  0  0  0  0
  143.9166   80.1259  223.5582 H   0  0  0  0  0  0  0  0  0  0  0  0
  143.0074   81.6751  223.5582 H   0  0  0  0  0  0  0  0  0  0  0  0
  139.4520   78.1855  223.1219 H   0  0  0  0  0  0  0  0  0  0  0  0
  140.3138   78.5439  221.5990 H   0  0  0  0  0  0  0  0  0  0  0  0
  141.2960   76.1180  223.0070 H   0  0  0  0  0  0  0  0  0  0  0  0
  139.3462   74.2455  220.2635 H   0  0  0  0  0  0  0  0  0  0  0  0
  141.1207   74.3552  220.7053 H   0  0  0  0  0  0  0  0  0  0  0  0
  139.2540   73.9090  222.9660 H   0  0  0  0  0  0  0  0  0  0  0  0
  139.1322   70.0742  222.3592 H   0  0  0  0  0  0  0  0  0  0  0  0
  138.6863   68.6341  224.3332 H   0  0  0  0  0  0  0  0  0  0  0  0
  138.9805   68.2614  226.7134 H   0  0  0  0  0  0  0  0  0  0  0  0
  141.2271   71.1077  229.0376 H   0  0  0  0  0  0  0  0  0  0  0  0
  141.6269   72.4853  227.0257 H   0  0  0  0  0  0  0  0  0  0  0  0
  1  2  1  0
  2  3  1  0
  2  4  1  0
  4  5  2  0
  4  6  1  0
  6  7  1  0
  7  8  1  0
  8  9  2  0
  8 10  1  0
 10 11  1  0
 11 12  1  0
 12 13  2  0
 12 14  1  0
 14 15  2  0
 15 16  1  0
 16 17  2  0
 17 18  1  0
 18 19  2  0
 19 20  1  0
 19 21  1  0
 21 22  2  0
 22 23  1  0
 23 24  2  0
 24 14  1  0
 23 17  1  0
  1 25  1  0
  1 26  1  0
  1 27  1  0
  3 28  1  0
  3 29  1  0
  3 30  1  0
  6 31  1  0
  6 32  1  0
  7 33  1  0
 10 34  1  0
 10 35  1  0
 11 36  1  0
 15 37  1  0
 16 38  1  0
 18 39  1  0
 21 40  1  0
 22 41  1  0
M  END
>  <smiles>  (15) 
CN(C)C(=O)CNC(=O)CNC(=O)c1ccc2cc(F)ccc2n1

>  <score_type>  (15) 
oracle

>  <origin>  (15) 
autodockgpu

>  <m_score__min__energy>  (15) 
-7.7199999999999998

>  <m_primary>  (15) 
energy

>  <rmsd>  (15) 
5.3663273825725115

>  <m_score__min__rmsd>  (15) 
5.3663273825725115

>  <meeko>  (15) 
{"free_energy": -7.12, "intermolecular_energy": -8.61, "internal_energy": -1.3, "cluster_size": 49, "cluster_id": 1, "rank_in_cluster": 12}

>  <energy>  (15) 
-6.77

>  <cluster_rmsd>  (15) 
1.43

>  <cluster>  (15) 
1

$$$$

     RDKit          3D

 41 42  0  0  0  0  0  0  0  0999 V2000
  141.0760   80.8710  222.1550 C   0  0  0  0  0  0  0  0  0  0  0  0
  141.7990   80.0600  223.1150 N   0  0  0  0  0  0  0  0  0  0  0  0
  142.8650   80.7330  223.8540 C   0  0  0  0  0  0  0  0  0  0  0  0
  141.4950   78.6760  223.3340 C   0  0  0  0  0  0  0  0  0  0  0  0
  142.1700   78.0610  224.1790 O   0  0  0  0  0  0  0  0  0  0  0  0
  140.3960   78.0890  222.5350 C   0  0  0  0  0  0  0  0  0  0  0  0
  140.6970   76.6870  222.3150 N   0  0  0  0  0  0  0  0  0  0  0  0
  139.8940   75.9490  221.4130 C   0  0  0  0  0  0  0  0  0  0  0  0
  138.9260   76.5380  220.8210 O   0  0  0  0  0  0  0  0  0  0  0  0
  140.0810   74.5210  221.0880 C   0  0  0  0  0  0  0  0  0  0  0  0
  139.8890   73.6360  222.2010 N   0  0  0  0  0  0  0  0  0  0  0  0
  140.4740   72.3390  222.2540 C   0  0  0  0  0  0  0  0  0  0  0  0
  141.2000   71.8810  221.3080 O   0  0  0  0  0  0  0  0  0  0  0  0
  140.2390   71.4860  223.4370 C   0  0  0  0  0  0  0  0  0  0  0  0
  139.5420   70.3060  223.3090 C   0  0  0  0  0  0  0  0  0  0  0  0
  139.3050   69.4830  224.3920 C   0  0  0  0  0  0  0  0  0  0  0  0
  139.7930   69.8840  225.6340 C   0  0  0  0  0  0  0  0  0  0  0  0
  139.5850   69.1050  226.7420 C   0  0  0  0  0  0  0  0  0  0  0  0
  140.0810   69.5190  227.9820 C   0  0  0  0  0  0  0  0  0  0  0  0
  139.8940   68.7730  229.1010 F   0  0  0  0  0  0  0  0  0  0  0  0
  140.7770   70.7210  228.0510 C   0  0  0  0  0  0  0  0  0  0  0  0
  140.9930   71.5110  226.9450 C   0  0  0  0  0  0  0  0  0  0  0  0
  140.4960   71.0850  225.7350 C   0  0  0  0  0  0  0  0  0  0  0  0
  140.7100   71.8670  224.6460 N   0  0  0  0  0  0  0  0  0  0  0  0
  140.4362   81.5887  222.6894 H   0  0  0  0  0  0  0  0  0  0  0  0
  141.7921   81.4175  221.5236 H   0  0  0  0  0  0  0  0  0  0  0  0
  140.4512   80.2221  221.5236 H   0  0  0  0  0  0  0  0  0  0  0  0
  142.6890   80.6219  224.9341 H   0  0  0  0  0  0  0  0  0  0  0  0
  143.8337   80.2824  223.5921 H   0  0  0  0  0  0  0  0  0  0  0  0
  142.8748   81.8013  223.5921 H   0  0  0  0  0  0  0  0  0  0  0  0
  139.4458   78.1850  223.0809 H   0  0  0  0  0  0  0  0  0  0  0  0
  140.3022   78.6139  221.5729 H   0  0  0  0  0  0  0  0  0  0  0  0
  141.4840   76.2410  222.8280 H   0  0  0  0  0  0  0  0  0  0  0  0
  139.3611   74.2486  220.3021 H   0  0  0  0  0  0  0  0  0  0  0  0
  141.1264   74.4035  220.7665 H   0  0  0  0  0  0  0  0  0  0  0  0
  139.3030   73.9120  223.0330 H   0  0  0  0  0  0  0  0  0  0  0  0
  139.1643   70.0112  222.3189 H   0  0  0  0  0  0  0  0  0  0  0  0
  138.7487   68.5409  224.2780 H   0  0  0  0  0  0  0  0  0  0  0  0
  139.0307   68.1588  226.6563 H   0  0  0  0  0  0  0  0  0  0  0  0
  141.1688   71.0521  229.0241 H   0  0  0  0  0  0  0  0  0  0  0  0
  141.5479   72.4573  227.0263 H   0  0  0  0  0  0  0  0  0  0  0  0
  1  2  1  0
  2  3  1  0
  2  4  1  0
  4  5  2  0
  4  6  1  0
  6  7  1  0
  7  8  1  0
  8  9  2  0
  8 10  1  0
 10 11  1  0
 11 12  1  0
 12 13  2  0
 12 14  1  0
 14 15  2  0
 15 16  1  0
 16 17  2  0
 17 18  1  0
 18 19  2  0
 19 20  1  0
 19 21  1  0
 21 22  2  0
 22 23  1  0
 23 24  2  0
 24 14  1  0
 23 17  1  0
  1 25  1  0
  1 26  1  0
  1 27  1  0
  3 28  1  0
  3 29  1  0
  3 30  1  0
  6 31  1  0
  6 32  1  0
  7 33  1  0
 10 34  1  0
 10 35  1  0
 11 36  1  0
 15 37  1  0
 16 38  1  0
 18 39  1  0
 21 40  1  0
 22 41  1  0
M  END
>  <smiles>  (16) 
CN(C)C(=O)CNC(=O)CNC(=O)c1ccc2cc(F)ccc2n1

>  <score_type>  (16) 
oracle

>  <origin>  (16) 
autodockgpu

>  <m_score__min__energy>  (16) 
-7.7199999999999998

>  <m_primary>  (16) 
energy

>  <rmsd>  (16) 
5.385197641047679

>  <m_score__min__rmsd>  (16) 
5.385197641047679

>  <meeko>  (16) 
{"free_energy": -7.33, "intermolecular_energy": -8.83, "internal_energy": -1.3, "cluster_size": 49, "cluster_id": 1, "rank_in_cluster": 9}

>  <energy>  (16) 
-6.76

>  <cluster_rmsd>  (16) 
1.4

>  <cluster>  (16) 
1

$$$$

     RDKit          3D

 41 42  0  0  0  0  0  0  0  0999 V2000
  138.7910   78.8060  222.6600 C   0  0  0  0  0  0  0  0  0  0  0  0
  139.9450   77.9290  222.6530 N   0  0  0  0  0  0  0  0  0  0  0  0
  141.2260   78.5480  222.9920 C   0  0  0  0  0  0  0  0  0  0  0  0
  139.8490   76.5340  222.3350 C   0  0  0  0  0  0  0  0  0  0  0  0
  140.8960   75.8620  222.3560 O   0  0  0  0  0  0  0  0  0  0  0  0
  138.5070   76.0060  222.0080 C   0  0  0  0  0  0  0  0  0  0  0  0
  138.5470   74.5620  222.1360 N   0  0  0  0  0  0  0  0  0  0  0  0
  137.6590   73.7810  221.3560 C   0  0  0  0  0  0  0  0  0  0  0  0
  136.8470   74.3710  220.5660 O   0  0  0  0  0  0  0  0  0  0  0  0
  137.5880   72.3070  221.3790 C   0  0  0  0  0  0  0  0  0  0  0  0
  138.0820   71.7130  222.5890 N   0  0  0  0  0  0  0  0  0  0  0  0
  139.4270   71.8750  223.0240 C   0  0  0  0  0  0  0  0  0  0  0  0
  140.2810   72.5530  222.3580 O   0  0  0  0  0  0  0  0  0  0  0  0
  139.8620   71.2410  224.2850 C   0  0  0  0  0  0  0  0  0  0  0  0
  140.7620   71.8820  225.1050 C   0  0  0  0  0  0  0  0  0  0  0  0
  141.1910   71.3210  226.2910 C   0  0  0  0  0  0  0  0  0  0  0  0
  140.6840   70.0720  226.6420 C   0  0  0  0  0  0  0  0  0  0  0  0
  141.0750   69.4690  227.8080 C   0  0  0  0  0  0  0  0  0  0  0  0
  140.5580   68.2150  228.1470 C   0  0  0  0  0  0  0  0  0  0  0  0
  140.9230   67.5880  229.2950 F   0  0  0  0  0  0  0  0  0  0  0  0
  139.6520   67.6140  227.2800 C   0  0  0  0  0  0  0  0  0  0  0  0
  139.2510   68.2100  226.1070 C   0  0  0  0  0  0  0  0  0  0  0  0
  139.7720   69.4430  225.7910 C   0  0  0  0  0  0  0  0  0  0  0  0
  139.3750   70.0280  224.6330 N   0  0  0  0  0  0  0  0  0  0  0  0
  138.5031   79.0248  223.6989 H   0  0  0  0  0  0  0  0  0  0  0  0
  139.0405   79.7445  222.1432 H   0  0  0  0  0  0  0  0  0  0  0  0
  137.9536   78.3143  222.1432 H   0  0  0  0  0  0  0  0  0  0  0  0
  141.3307   78.5986  224.0858 H   0  0  0  0  0  0  0  0  0  0  0  0
  142.0461   77.9468  222.5726 H   0  0  0  0  0  0  0  0  0  0  0  0
  141.2646   79.5642  222.5726 H   0  0  0  0  0  0  0  0  0  0  0  0
  137.7632   76.4214  222.7038 H   0  0  0  0  0  0  0  0  0  0  0  0
  138.2253   76.2899  220.9833 H   0  0  0  0  0  0  0  0  0  0  0  0
  139.2120   74.1200  222.8020 H   0  0  0  0  0  0  0  0  0  0  0  0
  136.5363   72.0103  221.2534 H   0  0  0  0  0  0  0  0  0  0  0  0
  138.2327   71.9467  220.5638 H   0  0  0  0  0  0  0  0  0  0  0  0
  137.4620   71.1280  223.2100 H   0  0  0  0  0  0  0  0  0  0  0  0
  141.1498   72.8675  224.8076 H   0  0  0  0  0  0  0  0  0  0  0  0
  141.9104   71.8437  226.9384 H   0  0  0  0  0  0  0  0  0  0  0  0
  141.7927   69.9692  228.4749 H   0  0  0  0  0  0  0  0  0  0  0  0
  139.2416   66.6274  227.5414 H   0  0  0  0  0  0  0  0  0  0  0  0
  138.5321   67.7133  225.4388 H   0  0  0  0  0  0  0  0  0  0  0  0
  1  2  1  0
  2  3  1  0
  2  4  1  0
  4  5  2  0
  4  6  1  0
  6  7  1  0
  7  8  1  0
  8  9  2  0
  8 10  1  0
 10 11  1  0
 11 12  1  0
 12 13  2  0
 12 14  1  0
 14 15  2  0
 15 16  1  0
 16 17  2  0
 17 18  1  0
 18 19  2  0
 19 20  1  0
 19 21  1  0
 21 22  2  0
 22 23  1  0
 23 24  2  0
 24 14  1  0
 23 17  1  0
  1 25  1  0
  1 26  1  0
  1 27  1  0
  3 28  1  0
  3 29  1  0
  3 30  1  0
  6 31  1  0
  6 32  1  0
  7 33  1  0
 10 34  1  0
 10 35  1  0
 11 36  1  0
 15 37  1  0
 16 38  1  0
 18 39  1  0
 21 40  1  0
 22 41  1  0
M  END
>  <smiles>  (17) 
CN(C)C(=O)CNC(=O)CNC(=O)c1ccc2cc(F)ccc2n1

>  <score_type>  (17) 
oracle

>  <origin>  (17) 
autodockgpu

>  <m_score__min__energy>  (17) 
-7.7199999999999998

>  <m_primary>  (17) 
energy

>  <rmsd>  (17) 
3.579354130916344

>  <m_score__min__rmsd>  (17) 
3.579354130916344

>  <meeko>  (17) 
{"free_energy": -6.23, "intermolecular_energy": -7.73, "internal_energy": -2.09, "cluster_size": 49, "cluster_id": 1, "rank_in_cluster": 40}

>  <energy>  (17) 
-6.62

>  <cluster_rmsd>  (17) 
1.11

>  <cluster>  (17) 
1

$$$$

     RDKit          3D

 41 42  0  0  0  0  0  0  0  0999 V2000
  142.0390   79.3090  222.6350 C   0  0  0  0  0  0  0  0  0  0  0  0
  140.7430   78.6970  222.8490 N   0  0  0  0  0  0  0  0  0  0  0  0
  139.8360   79.4070  223.7490 C   0  0  0  0  0  0  0  0  0  0  0  0
  140.3610   77.4660  222.2200 C   0  0  0  0  0  0  0  0  0  0  0  0
  139.2260   77.0180  222.4660 O   0  0  0  0  0  0  0  0  0  0  0  0
  141.3510   76.8270  221.3260 C   0  0  0  0  0  0  0  0  0  0  0  0
  140.8810   75.4910  221.0140 N   0  0  0  0  0  0  0  0  0  0  0  0
  141.8210   74.5130  220.6050 C   0  0  0  0  0  0  0  0  0  0  0  0
  143.0530   74.8380  220.5200 O   0  0  0  0  0  0  0  0  0  0  0  0
  141.4910   73.1170  220.2590 C   0  0  0  0  0  0  0  0  0  0  0  0
  141.3020   72.2590  221.3950 N   0  0  0  0  0  0  0  0  0  0  0  0
  140.3340   72.5290  222.4020 C   0  0  0  0  0  0  0  0  0  0  0  0
  139.5770   73.5580  222.3600 O   0  0  0  0  0  0  0  0  0  0  0  0
  140.1900   71.5960  223.5370 C   0  0  0  0  0  0  0  0  0  0  0  0
  139.5350   70.3970  223.3670 C   0  0  0  0  0  0  0  0  0  0  0  0
  139.3810   69.5000  224.4050 C   0  0  0  0  0  0  0  0  0  0  0  0
  139.9120   69.8430  225.6460 C   0  0  0  0  0  0  0  0  0  0  0  0
  139.7880   68.9900  226.7110 C   0  0  0  0  0  0  0  0  0  0  0  0
  140.3250   69.3480  227.9520 C   0  0  0  0  0  0  0  0  0  0  0  0
  140.2210   68.5270  229.0290 F   0  0  0  0  0  0  0  0  0  0  0  0
  140.9760   70.5720  228.0660 C   0  0  0  0  0  0  0  0  0  0  0  0
  141.1070   71.4360  227.0040 C   0  0  0  0  0  0  0  0  0  0  0  0
  140.5710   71.0660  225.7920 C   0  0  0  0  0  0  0  0  0  0  0  0
  140.7010   71.9210  224.7460 N   0  0  0  0  0  0  0  0  0  0  0  0
  142.5054   79.5292  223.6066 H   0  0  0  0  0  0  0  0  0  0  0  0
  142.6812   78.6190  222.0680 H   0  0  0  0  0  0  0  0  0  0  0  0
  141.9142   80.2433  222.0680 H   0  0  0  0  0  0  0  0  0  0  0  0
  140.1113   79.1915  224.7920 H   0  0  0  0  0  0  0  0  0  0  0  0
  139.9107   80.4891  223.5661 H   0  0  0  0  0  0  0  0  0  0  0  0
  138.8035   79.0747  223.5661 H   0  0  0  0  0  0  0  0  0  0  0  0
  141.4501   77.4129  220.4003 H   0  0  0  0  0  0  0  0  0  0  0  0
  142.3337   76.7798  221.8180 H   0  0  0  0  0  0  0  0  0  0  0  0
  139.8670   75.2700  221.0810 H   0  0  0  0  0  0  0  0  0  0  0  0
  140.5627   73.1178  219.6688 H   0  0  0  0  0  0  0  0  0  0  0  0
  142.3502   72.7177  219.7002 H   0  0  0  0  0  0  0  0  0  0  0  0
  141.8780   71.3860  221.5300 H   0  0  0  0  0  0  0  0  0  0  0  0
  139.1235   70.1472  222.3779 H   0  0  0  0  0  0  0  0  0  0  0  0
  138.8557   68.5450  224.2567 H   0  0  0  0  0  0  0  0  0  0  0  0
  139.2685   68.0279  226.5907 H   0  0  0  0  0  0  0  0  0  0  0  0
  141.4008   70.8588  229.0393 H   0  0  0  0  0  0  0  0  0  0  0  0
  141.6270   72.3983  227.1206 H   0  0  0  0  0  0  0  0  0  0  0  0
  1  2  1  0
  2  3  1  0
  2  4  1  0
  4  5  2  0
  4  6  1  0
  6  7  1  0
  7  8  1  0
  8  9  2  0
  8 10  1  0
 10 11  1  0
 11 12  1  0
 12 13  2  0
 12 14  1  0
 14 15  2  0
 15 16  1  0
 16 17  2  0
 17 18  1  0
 18 19  2  0
 19 20  1  0
 19 21  1  0
 21 22  2  0
 22 23  1  0
 23 24  2  0
 24 14  1  0
 23 17  1  0
  1 25  1  0
  1 26  1  0
  1 27  1  0
  3 28  1  0
  3 29  1  0
  3 30  1  0
  6 31  1  0
  6 32  1  0
  7 33  1  0
 10 34  1  0
 10 35  1  0
 11 36  1  0
 15 37  1  0
 16 38  1  0
 18 39  1  0
 21 40  1  0
 22 41  1  0
M  END
>  <smiles>  (18) 
CN(C)C(=O)CNC(=O)CNC(=O)c1ccc2cc(F)ccc2n1

>  <score_type>  (18) 
oracle

>  <origin>  (18) 
autodockgpu

>  <m_score__min__energy>  (18) 
-7.7199999999999998

>  <m_primary>  (18) 
energy

>  <rmsd>  (18) 
4.931280466011806

>  <m_score__min__rmsd>  (18) 
4.931280466011806

>  <meeko>  (18) 
{"free_energy": -6.48, "intermolecular_energy": -7.98, "internal_energy": -2.05, "cluster_size": 49, "cluster_id": 1, "rank_in_cluster": 29}

>  <energy>  (18) 
-6.61

>  <cluster_rmsd>  (18) 
1.37

>  <cluster>  (18) 
1

$$$$

     RDKit          3D

 41 42  0  0  0  0  0  0  0  0999 V2000
  141.2010   80.6600  221.7780 C   0  0  0  0  0  0  0  0  0  0  0  0
  141.7180   79.9250  222.9150 N   0  0  0  0  0  0  0  0  0  0  0  0
  142.5240   80.6900  223.8640 C   0  0  0  0  0  0  0  0  0  0  0  0
  141.4600   78.5280  223.1080 C   0  0  0  0  0  0  0  0  0  0  0  0
  141.9470   77.9820  224.1150 O   0  0  0  0  0  0  0  0  0  0  0  0
  140.6320   77.8450  222.0890 C   0  0  0  0  0  0  0  0  0  0  0  0
  141.0680   76.4650  222.0040 N   0  0  0  0  0  0  0  0  0  0  0  0
  140.4830   75.6210  221.0290 C   0  0  0  0  0  0  0  0  0  0  0  0
  139.5850   76.0990  220.2560 O   0  0  0  0  0  0  0  0  0  0  0  0
  140.8270   74.2010  220.8240 C   0  0  0  0  0  0  0  0  0  0  0  0
  140.7050   73.3900  222.0020 N   0  0  0  0  0  0  0  0  0  0  0  0
  139.9600   72.1780  222.0200 C   0  0  0  0  0  0  0  0  0  0  0  0
  139.3480   71.7410  220.9880 O   0  0  0  0  0  0  0  0  0  0  0  0
  139.8870   71.3910  223.2680 C   0  0  0  0  0  0  0  0  0  0  0  0
  139.2060   70.1950  223.2910 C   0  0  0  0  0  0  0  0  0  0  0  0
  139.1160   69.4330  224.4380 C   0  0  0  0  0  0  0  0  0  0  0  0
  139.7390   69.9120  225.5890 C   0  0  0  0  0  0  0  0  0  0  0  0
  139.6810   69.1960  226.7550 C   0  0  0  0  0  0  0  0  0  0  0  0
  140.3110   69.6890  227.9030 C   0  0  0  0  0  0  0  0  0  0  0  0
  140.2740   69.0050  229.0750 F   0  0  0  0  0  0  0  0  0  0  0  0
  140.9840   70.9030  227.8210 C   0  0  0  0  0  0  0  0  0  0  0  0
  141.0490   71.6300  226.6550 C   0  0  0  0  0  0  0  0  0  0  0  0
  140.4220   71.1280  225.5380 C   0  0  0  0  0  0  0  0  0  0  0  0
  140.4880   71.8490  224.3900 N   0  0  0  0  0  0  0  0  0  0  0  0
  140.6021   81.5115  222.1334 H   0  0  0  0  0  0  0  0  0  0  0  0
  142.0389   81.0299  221.1688 H   0  0  0  0  0  0  0  0  0  0  0  0
  140.5696   79.9965  221.1688 H   0  0  0  0  0  0  0  0  0  0  0  0
  142.2377   80.4183  224.8908 H   0  0  0  0  0  0  0  0  0  0  0  0
  143.5888   80.4623  223.7078 H   0  0  0  0  0  0  0  0  0  0  0  0
  142.3522   81.7652  223.7078 H   0  0  0  0  0  0  0  0  0  0  0  0
  139.5726   77.8837  222.3826 H   0  0  0  0  0  0  0  0  0  0  0  0
  140.7439   78.3403  221.1132 H   0  0  0  0  0  0  0  0  0  0  0  0
  141.7910   76.1090  222.6620 H   0  0  0  0  0  0  0  0  0  0  0  0
  140.1579   73.7918  220.0527 H   0  0  0  0  0  0  0  0  0  0  0  0
  141.8862   74.1718  220.5285 H   0  0  0  0  0  0  0  0  0  0  0  0
  141.1670   73.6620  222.9110 H   0  0  0  0  0  0  0  0  0  0  0  0
  138.7208   69.8372  222.3709 H   0  0  0  0  0  0  0  0  0  0  0  0
  138.5700   68.4781  224.4437 H   0  0  0  0  0  0  0  0  0  0  0  0
  139.1417   68.2379  226.7889 H   0  0  0  0  0  0  0  0  0  0  0  0
  141.4818   71.2957  228.7199 H   0  0  0  0  0  0  0  0  0  0  0  0
  141.5883   72.5879  226.6167 H   0  0  0  0  0  0  0  0  0  0  0  0
  1  2  1  0
  2  3  1  0
  2  4  1  0
  4  5  2  0
  4  6  1  0
  6  7  1  0
  7  8  1  0
  8  9  2  0
  8 10  1  0
 10 11  1  0
 11 12  1  0
 12 13  2  0
 12 14  1  0
 14 15  2  0
 15 16  1  0
 16 17  2  0
 17 18  1  0
 18 19  2  0
 19 20  1  0
 19 21  1  0
 21 22  2  0
 22 23  1  0
 23 24  2  0
 24 14  1  0
 23 17  1  0
  1 25  1  0
  1 26  1  0
  1 27  1  0
  3 28  1  0
  3 29  1  0
  3 30  1  0
  6 31  1  0
  6 32  1  0
  7 33  1  0
 10 34  1  0
 10 35  1  0
 11 36  1  0
 15 37  1  0
 16 38  1  0
 18 39  1  0
 21 40  1  0
 22 41  1  0
M  END
>  <smiles>  (19) 
CN(C)C(=O)CNC(=O)CNC(=O)c1ccc2cc(F)ccc2n1

>  <score_type>  (19) 
oracle

>  <origin>  (19) 
autodockgpu

>  <m_score__min__energy>  (19) 
-7.7199999999999998

>  <m_primary>  (19) 
energy

>  <rmsd>  (19) 
5.270940960726648

>  <m_score__min__rmsd>  (19) 
5.270940960726648

>  <meeko>  (19) 
{"free_energy": -6.58, "intermolecular_energy": -8.07, "internal_energy": -1.59, "cluster_size": 49, "cluster_id": 1, "rank_in_cluster": 22}

>  <energy>  (19) 
-6.6

>  <cluster_rmsd>  (19) 
1.38

>  <cluster>  (19) 
1

$$$$

     RDKit          3D

 41 42  0  0  0  0  0  0  0  0999 V2000
  142.0920   79.2640  222.5590 C   0  0  0  0  0  0  0  0  0  0  0  0
  140.7920   78.6660  222.7840 N   0  0  0  0  0  0  0  0  0  0  0  0
  139.8920   79.3970  223.6740 C   0  0  0  0  0  0  0  0  0  0  0  0
  140.3990   77.4290  222.1740 C   0  0  0  0  0  0  0  0  0  0  0  0
  139.2610   76.9930  222.4270 O   0  0  0  0  0  0  0  0  0  0  0  0
  141.3830   76.7690  221.2880 C   0  0  0  0  0  0  0  0  0  0  0  0
  140.8910   75.4400  220.9780 N   0  0  0  0  0  0  0  0  0  0  0  0
  141.8140   74.4480  220.5640 C   0  0  0  0  0  0  0  0  0  0  0  0
  143.0500   74.7550  220.4710 O   0  0  0  0  0  0  0  0  0  0  0  0
  141.4610   73.0570  220.2200 C   0  0  0  0  0  0  0  0  0  0  0  0
  141.2760   72.2000  221.3560 N   0  0  0  0  0  0  0  0  0  0  0  0
  140.3420   72.4930  222.3890 C   0  0  0  0  0  0  0  0  0  0  0  0
  139.6160   73.5440  222.3710 O   0  0  0  0  0  0  0  0  0  0  0  0
  140.1990   71.5580  223.5230 C   0  0  0  0  0  0  0  0  0  0  0  0
  139.5660   70.3500  223.3470 C   0  0  0  0  0  0  0  0  0  0  0  0
  139.4140   69.4510  224.3840 C   0  0  0  0  0  0  0  0  0  0  0  0
  139.9250   69.8040  225.6310 C   0  0  0  0  0  0  0  0  0  0  0  0
  139.8020   68.9500  226.6950 C   0  0  0  0  0  0  0  0  0  0  0  0
  140.3190   69.3170  227.9420 C   0  0  0  0  0  0  0  0  0  0  0  0
  140.2160   68.4960  229.0180 F   0  0  0  0  0  0  0  0  0  0  0  0
  140.9490   70.5510  228.0620 C   0  0  0  0  0  0  0  0  0  0  0  0
  141.0790   71.4170  227.0000 C   0  0  0  0  0  0  0  0  0  0  0  0
  140.5620   71.0370  225.7830 C   0  0  0  0  0  0  0  0  0  0  0  0
  140.6920   71.8930  224.7380 N   0  0  0  0  0  0  0  0  0  0  0  0
  142.5674   79.4827  223.5266 H   0  0  0  0  0  0  0  0  0  0  0  0
  142.7232   78.5658  221.9898 H   0  0  0  0  0  0  0  0  0  0  0  0
  141.9726   80.1977  221.9898 H   0  0  0  0  0  0  0  0  0  0  0  0
  140.1564   79.1823  224.7199 H   0  0  0  0  0  0  0  0  0  0  0  0
  139.9874   80.4766  223.4859 H   0  0  0  0  0  0  0  0  0  0  0  0
  138.8549   79.0823  223.4859 H   0  0  0  0  0  0  0  0  0  0  0  0
  141.4980   77.3496  220.3608 H   0  0  0  0  0  0  0  0  0  0  0  0
  142.3618   76.7062  221.7860 H   0  0  0  0  0  0  0  0  0  0  0  0
  139.8740   75.2350  221.0520 H   0  0  0  0  0  0  0  0  0  0  0  0
  140.5250   73.0712  219.6423 H   0  0  0  0  0  0  0  0  0  0  0  0
  142.3074   72.6476  219.6491 H   0  0  0  0  0  0  0  0  0  0  0  0
  141.8290   71.3090  221.4720 H   0  0  0  0  0  0  0  0  0  0  0  0
  139.1701   70.0929  222.3534 H   0  0  0  0  0  0  0  0  0  0  0  0
  138.9060   68.4875  224.2305 H   0  0  0  0  0  0  0  0  0  0  0  0
  139.2989   67.9799  226.5694 H   0  0  0  0  0  0  0  0  0  0  0  0
  141.3578   70.8453  229.0399 H   0  0  0  0  0  0  0  0  0  0  0  0
  141.5829   72.3872  227.1212 H   0  0  0  0  0  0  0  0  0  0  0  0
  1  2  1  0
  2  3  1  0
  2  4  1  0
  4  5  2  0
  4  6  1  0
  6  7  1  0
  7  8  1  0
  8  9  2  0
  8 10  1  0
 10 11  1  0
 11 12  1  0
 12 13  2  0
 12 14  1  0
 14 15  2  0
 15 16  1  0
 16 17  2  0
 17 18  1  0
 18 19  2  0
 19 20  1  0
 19 21  1  0
 21 22  2  0
 22 23  1  0
 23 24  2  0
 24 14  1  0
 23 17  1  0
  1 25  1  0
  1 26  1  0
  1 27  1  0
  3 28  1  0
  3 29  1  0
  3 30  1  0
  6 31  1  0
  6 32  1  0
  7 33  1  0
 10 34  1  0
 10 35  1  0
 11 36  1  0
 15 37  1  0
 16 38  1  0
 18 39  1  0
 21 40  1  0
 22 41  1  0
M  END
>  <smiles>  (20) 
CN(C)C(=O)CNC(=O)CNC(=O)c1ccc2cc(F)ccc2n1

>  <score_type>  (20) 
oracle

>  <origin>  (20) 
autodockgpu

>  <m_score__min__energy>  (20) 
-7.7199999999999998

>  <m_primary>  (20) 
energy

>  <rmsd>  (20) 
4.903213340570738

>  <m_score__min__rmsd>  (20) 
4.903213340570738

>  <meeko>  (20) 
{"free_energy": -6.49, "intermolecular_energy": -7.98, "internal_energy": -2.05, "cluster_size": 49, "cluster_id": 1, "rank_in_cluster": 28}

>  <energy>  (20) 
-6.6

>  <cluster_rmsd>  (20) 
1.04

>  <cluster>  (20) 
1

$$$$

     RDKit          3D

 41 42  0  0  0  0  0  0  0  0999 V2000
  138.9550   78.8670  222.4270 C   0  0  0  0  0  0  0  0  0  0  0  0
  140.0520   77.9200  222.4770 N   0  0  0  0  0  0  0  0  0  0  0  0
  141.3690   78.4760  222.7830 C   0  0  0  0  0  0  0  0  0  0  0  0
  139.8690   76.5180  222.2420 C   0  0  0  0  0  0  0  0  0  0  0  0
  140.8710   75.7830  222.3070 O   0  0  0  0  0  0  0  0  0  0  0  0
  138.4950   76.0560  221.9420 C   0  0  0  0  0  0  0  0  0  0  0  0
  138.4530   74.6180  222.1240 N   0  0  0  0  0  0  0  0  0  0  0  0
  137.4960   73.8650  221.4010 C   0  0  0  0  0  0  0  0  0  0  0  0
  136.6970   74.4740  220.6130 O   0  0  0  0  0  0  0  0  0  0  0  0
  137.3380   72.4000  221.4820 C   0  0  0  0  0  0  0  0  0  0  0  0
  137.8850   71.8140  222.6730 N   0  0  0  0  0  0  0  0  0  0  0  0
  139.2740   71.8580  222.9750 C   0  0  0  0  0  0  0  0  0  0  0  0
  140.1220   72.4150  222.1990 O   0  0  0  0  0  0  0  0  0  0  0  0
  139.7640   71.2410  224.2250 C   0  0  0  0  0  0  0  0  0  0  0  0
  140.7160   71.8820  224.9850 C   0  0  0  0  0  0  0  0  0  0  0  0
  141.1960   71.3370  226.1580 C   0  0  0  0  0  0  0  0  0  0  0  0
  140.6880   70.1040  226.5590 C   0  0  0  0  0  0  0  0  0  0  0  0
  141.1290   69.5170  227.7160 C   0  0  0  0  0  0  0  0  0  0  0  0
  140.6100   68.2780  228.1060 C   0  0  0  0  0  0  0  0  0  0  0  0
  141.0240   67.6680  229.2460 F   0  0  0  0  0  0  0  0  0  0  0  0
  139.6500   67.6760  227.3000 C   0  0  0  0  0  0  0  0  0  0  0  0
  139.1980   68.2570  226.1370 C   0  0  0  0  0  0  0  0  0  0  0  0
  139.7230   69.4750  225.7700 C   0  0  0  0  0  0  0  0  0  0  0  0
  139.2750   70.0440  224.6220 N   0  0  0  0  0  0  0  0  0  0  0  0
  138.6505   79.1298  223.4508 H   0  0  0  0  0  0  0  0  0  0  0  0
  139.2780   79.7746  221.8961 H   0  0  0  0  0  0  0  0  0  0  0  0
  138.1042   78.4149  221.8961 H   0  0  0  0  0  0  0  0  0  0  0  0
  141.4993   78.5310  223.8739 H   0  0  0  0  0  0  0  0  0  0  0  0
  142.1486   77.8302  222.3527 H   0  0  0  0  0  0  0  0  0  0  0  0
  141.4500   79.4851  222.3527 H   0  0  0  0  0  0  0  0  0  0  0  0
  137.7816   76.5393  222.6257 H   0  0  0  0  0  0  0  0  0  0  0  0
  138.2223   76.3173  220.9089 H   0  0  0  0  0  0  0  0  0  0  0  0
  139.1110   74.1610  222.7870 H   0  0  0  0  0  0  0  0  0  0  0  0
  136.2638   72.1663  221.4446 H   0  0  0  0  0  0  0  0  0  0  0  0
  137.8965   71.9746  220.6352 H   0  0  0  0  0  0  0  0  0  0  0  0
  137.2730   71.3240  223.3790 H   0  0  0  0  0  0  0  0  0  0  0  0
  141.1043   72.8545  224.6482 H   0  0  0  0  0  0  0  0  0  0  0  0
  141.9558   71.8598  226.7574 H   0  0  0  0  0  0  0  0  0  0  0  0
  141.8877   70.0179  228.3353 H   0  0  0  0  0  0  0  0  0  0  0  0
  139.2377   66.7020  227.6023 H   0  0  0  0  0  0  0  0  0  0  0  0
  138.4369   67.7607  225.5170 H   0  0  0  0  0  0  0  0  0  0  0  0
  1  2  1  0
  2  3  1  0
  2  4  1  0
  4  5  2  0
  4  6  1  0
  6  7  1  0
  7  8  1  0
  8  9  2  0
  8 10  1  0
 10 11  1  0
 11 12  1  0
 12 13  2  0
 12 14  1  0
 14 15  2  0
 15 16  1  0
 16 17  2  0
 17 18  1  0
 18 19  2  0
 19 20  1  0
 19 21  1  0
 21 22  2  0
 22 23  1  0
 23 24  2  0
 24 14  1  0
 23 17  1  0
  1 25  1  0
  1 26  1  0
  1 27  1  0
  3 28  1  0
  3 29  1  0
  3 30  1  0
  6 31  1  0
  6 32  1  0
  7 33  1  0
 10 34  1  0
 10 35  1  0
 11 36  1  0
 15 37  1  0
 16 38  1  0
 18 39  1  0
 21 40  1  0
 22 41  1  0
M  END
>  <smiles>  (21) 
CN(C)C(=O)CNC(=O)CNC(=O)c1ccc2cc(F)ccc2n1

>  <score_type>  (21) 
oracle

>  <origin>  (21) 
autodockgpu

>  <m_score__min__energy>  (21) 
-7.7199999999999998

>  <m_primary>  (21) 
energy

>  <rmsd>  (21) 
3.5736631942216084

>  <m_score__min__rmsd>  (21) 
3.5736631942216084

>  <meeko>  (21) 
{"free_energy": -6.19, "intermolecular_energy": -7.68, "internal_energy": -2.12, "cluster_size": 49, "cluster_id": 1, "rank_in_cluster": 43}

>  <energy>  (21) 
-6.59

>  <cluster_rmsd>  (21) 
1.4

>  <cluster>  (21) 
1

$$$$

     RDKit          3D

 41 42  0  0  0  0  0  0  0  0999 V2000
  141.2150   80.9070  222.0240 C   0  0  0  0  0  0  0  0  0  0  0  0
  141.8870   80.1050  223.0280 N   0  0  0  0  0  0  0  0  0  0  0  0
  142.9210   80.7840  223.8070 C   0  0  0  0  0  0  0  0  0  0  0  0
  141.5650   78.7260  223.2520 C   0  0  0  0  0  0  0  0  0  0  0  0
  142.1960   78.1200  224.1370 O   0  0  0  0  0  0  0  0  0  0  0  0
  140.5010   78.1340  222.4100 C   0  0  0  0  0  0  0  0  0  0  0  0
  140.8120   76.7310  222.2120 N   0  0  0  0  0  0  0  0  0  0  0  0
  139.9910   75.9640  221.3510 C   0  0  0  0  0  0  0  0  0  0  0  0
  138.9990   76.5290  220.7760 O   0  0  0  0  0  0  0  0  0  0  0  0
  140.1860   74.5320  221.0510 C   0  0  0  0  0  0  0  0  0  0  0  0
  140.0090   73.6660  222.1830 N   0  0  0  0  0  0  0  0  0  0  0  0
  140.4160   72.3030  222.1700 C   0  0  0  0  0  0  0  0  0  0  0  0
  140.9570   71.7640  221.1460 O   0  0  0  0  0  0  0  0  0  0  0  0
  140.2100   71.4740  223.3750 C   0  0  0  0  0  0  0  0  0  0  0  0
  139.5490   70.2710  223.2800 C   0  0  0  0  0  0  0  0  0  0  0  0
  139.3380   69.4690  224.3850 C   0  0  0  0  0  0  0  0  0  0  0  0
  139.8160   69.9160  225.6140 C   0  0  0  0  0  0  0  0  0  0  0  0
  139.6350   69.1610  226.7430 C   0  0  0  0  0  0  0  0  0  0  0  0
  140.1200   69.6220  227.9710 C   0  0  0  0  0  0  0  0  0  0  0  0
  139.9590   68.9000  229.1090 F   0  0  0  0  0  0  0  0  0  0  0  0
  140.7800   70.8460  228.0070 C   0  0  0  0  0  0  0  0  0  0  0  0
  140.9690   71.6120  226.8800 C   0  0  0  0  0  0  0  0  0  0  0  0
  140.4830   71.1410  225.6820 C   0  0  0  0  0  0  0  0  0  0  0  0
  140.6710   71.9000  224.5730 N   0  0  0  0  0  0  0  0  0  0  0  0
  140.5839   81.6602  222.5184 H   0  0  0  0  0  0  0  0  0  0  0  0
  141.9641   81.4114  221.3960 H   0  0  0  0  0  0  0  0  0  0  0  0
  140.5872   80.2578  221.3960 H   0  0  0  0  0  0  0  0  0  0  0  0
  142.7184   80.6510  224.8800 H   0  0  0  0  0  0  0  0  0  0  0  0
  143.9043   80.3552  223.5636 H   0  0  0  0  0  0  0  0  0  0  0  0
  142.9183   81.8567  223.5636 H   0  0  0  0  0  0  0  0  0  0  0  0
  139.5283   78.2329  222.9140 H   0  0  0  0  0  0  0  0  0  0  0  0
  140.4479   78.6531  221.4417 H   0  0  0  0  0  0  0  0  0  0  0  0
  141.6200   76.3050  222.7100 H   0  0  0  0  0  0  0  0  0  0  0  0
  139.4621   74.2398  220.2761 H   0  0  0  0  0  0  0  0  0  0  0  0
  141.2296   74.4160  220.7232 H   0  0  0  0  0  0  0  0  0  0  0  0
  139.5670   74.0080  223.0770 H   0  0  0  0  0  0  0  0  0  0  0  0
  139.1789   69.9392  222.2987 H   0  0  0  0  0  0  0  0  0  0  0  0
  138.8095   68.5084  224.2967 H   0  0  0  0  0  0  0  0  0  0  0  0
  139.1103   68.1961  226.6837 H   0  0  0  0  0  0  0  0  0  0  0  0
  141.1640   71.2141  228.9698 H   0  0  0  0  0  0  0  0  0  0  0  0
  141.4952   72.5764  226.9352 H   0  0  0  0  0  0  0  0  0  0  0  0
  1  2  1  0
  2  3  1  0
  2  4  1  0
  4  5  2  0
  4  6  1  0
  6  7  1  0
  7  8  1  0
  8  9  2  0
  8 10  1  0
 10 11  1  0
 11 12  1  0
 12 13  2  0
 12 14  1  0
 14 15  2  0
 15 16  1  0
 16 17  2  0
 17 18  1  0
 18 19  2  0
 19 20  1  0
 19 21  1  0
 21 22  2  0
 22 23  1  0
 23 24  2  0
 24 14  1  0
 23 17  1  0
  1 25  1  0
  1 26  1  0
  1 27  1  0
  3 28  1  0
  3 29  1  0
  3 30  1  0
  6 31  1  0
  6 32  1  0
  7 33  1  0
 10 34  1  0
 10 35  1  0
 11 36  1  0
 15 37  1  0
 16 38  1  0
 18 39  1  0
 21 40  1  0
 22 41  1  0
M  END
>  <smiles>  (22) 
CN(C)C(=O)CNC(=O)CNC(=O)c1ccc2cc(F)ccc2n1

>  <score_type>  (22) 
oracle

>  <origin>  (22) 
autodockgpu

>  <m_score__min__energy>  (22) 
-7.7199999999999998

>  <m_primary>  (22) 
energy

>  <rmsd>  (22) 
5.410887593644807

>  <m_score__min__rmsd>  (22) 
5.410887593644807

>  <meeko>  (22) 
{"free_energy": -7.38, "intermolecular_energy": -8.87, "internal_energy": -1.32, "cluster_size": 49, "cluster_id": 1, "rank_in_cluster": 8}

>  <energy>  (22) 
-6.58

>  <cluster_rmsd>  (22) 
0.74

>  <cluster>  (22) 
1

$$$$

     RDKit          3D

 41 42  0  0  0  0  0  0  0  0999 V2000
  138.7240   78.7970  222.2410 C   0  0  0  0  0  0  0  0  0  0  0  0
  139.8550   77.8990  222.3660 N   0  0  0  0  0  0  0  0  0  0  0  0
  141.1430   78.5240  222.6600 C   0  0  0  0  0  0  0  0  0  0  0  0
  139.7290   76.4790  222.2130 C   0  0  0  0  0  0  0  0  0  0  0  0
  140.7580   75.7890  222.3390 O   0  0  0  0  0  0  0  0  0  0  0  0
  138.3810   75.9470  221.9180 C   0  0  0  0  0  0  0  0  0  0  0  0
  138.4140   74.5080  222.0970 N   0  0  0  0  0  0  0  0  0  0  0  0
  137.4480   73.7130  221.4340 C   0  0  0  0  0  0  0  0  0  0  0  0
  136.5730   74.2870  220.7010 O   0  0  0  0  0  0  0  0  0  0  0  0
  137.3610   72.2420  221.5190 C   0  0  0  0  0  0  0  0  0  0  0  0
  137.9080   71.6900  222.7260 N   0  0  0  0  0  0  0  0  0  0  0  0
  139.2720   71.8620  223.0930 C   0  0  0  0  0  0  0  0  0  0  0  0
  140.0960   72.5140  222.3660 O   0  0  0  0  0  0  0  0  0  0  0  0
  139.7620   71.2720  224.3560 C   0  0  0  0  0  0  0  0  0  0  0  0
  140.7160   71.9280  225.0990 C   0  0  0  0  0  0  0  0  0  0  0  0
  141.1970   71.4080  226.2840 C   0  0  0  0  0  0  0  0  0  0  0  0
  140.6880   70.1850  226.7130 C   0  0  0  0  0  0  0  0  0  0  0  0
  141.1300   69.6220  227.8810 C   0  0  0  0  0  0  0  0  0  0  0  0
  140.6090   68.3930  228.2990 C   0  0  0  0  0  0  0  0  0  0  0  0
  141.0240   67.8070  229.4510 F   0  0  0  0  0  0  0  0  0  0  0  0
  139.6470   67.7760  227.5070 C   0  0  0  0  0  0  0  0  0  0  0  0
  139.1950   68.3310  226.3330 C   0  0  0  0  0  0  0  0  0  0  0  0
  139.7210   69.5400  225.9390 C   0  0  0  0  0  0  0  0  0  0  0  0
  139.2720   70.0850  224.7790 N   0  0  0  0  0  0  0  0  0  0  0  0
  138.3679   79.0798  223.2426 H   0  0  0  0  0  0  0  0  0  0  0  0
  139.0314   79.6997  221.6928 H   0  0  0  0  0  0  0  0  0  0  0  0
  137.9144   78.2930  221.6928 H   0  0  0  0  0  0  0  0  0  0  0  0
  141.2784   78.5897  223.7497 H   0  0  0  0  0  0  0  0  0  0  0  0
  141.9521   77.9183  222.2258 H   0  0  0  0  0  0  0  0  0  0  0  0
  141.1679   79.5344  222.2258 H   0  0  0  0  0  0  0  0  0  0  0  0
  137.6464   76.3913  222.6057 H   0  0  0  0  0  0  0  0  0  0  0  0
  138.0911   76.1956  220.8864 H   0  0  0  0  0  0  0  0  0  0  0  0
  139.1340   74.0800  222.7150 H   0  0  0  0  0  0  0  0  0  0  0  0
  136.3009   71.9548  221.4575 H   0  0  0  0  0  0  0  0  0  0  0  0
  137.9595   71.8409  220.6878 H   0  0  0  0  0  0  0  0  0  0  0  0
  137.3160   71.1290  223.3950 H   0  0  0  0  0  0  0  0  0  0  0  0
  141.1057   72.8918  224.7396 H   0  0  0  0  0  0  0  0  0  0  0  0
  141.9583   71.9429  226.8707 H   0  0  0  0  0  0  0  0  0  0  0  0
  141.8914   70.1342  228.4876 H   0  0  0  0  0  0  0  0  0  0  0  0
  139.2330   66.8098  227.8311 H   0  0  0  0  0  0  0  0  0  0  0  0
  138.4329   67.8219  225.7247 H   0  0  0  0  0  0  0  0  0  0  0  0
  1  2  1  0
  2  3  1  0
  2  4  1  0
  4  5  2  0
  4  6  1  0
  6  7  1  0
  7  8  1  0
  8  9  2  0
  8 10  1  0
 10 11  1  0
 11 12  1  0
 12 13  2  0
 12 14  1  0
 14 15  2  0
 15 16  1  0
 16 17  2  0
 17 18  1  0
 18 19  2  0
 19 20  1  0
 19 21  1  0
 21 22  2  0
 22 23  1  0
 23 24  2  0
 24 14  1  0
 23 17  1  0
  1 25  1  0
  1 26  1  0
  1 27  1  0
  3 28  1  0
  3 29  1  0
  3 30  1  0
  6 31  1  0
  6 32  1  0
  7 33  1  0
 10 34  1  0
 10 35  1  0
 11 36  1  0
 15 37  1  0
 16 38  1  0
 18 39  1  0
 21 40  1  0
 22 41  1  0
M  END
>  <smiles>  (23) 
CN(C)C(=O)CNC(=O)CNC(=O)c1ccc2cc(F)ccc2n1

>  <score_type>  (23) 
oracle

>  <origin>  (23) 
autodockgpu

>  <m_score__min__energy>  (23) 
-7.7199999999999998

>  <m_primary>  (23) 
energy

>  <rmsd>  (23) 
3.521015063338213

>  <m_score__min__rmsd>  (23) 
3.521015063338213

>  <meeko>  (23) 
{"free_energy": -6.18, "intermolecular_energy": -7.67, "internal_energy": -2.15, "cluster_size": 49, "cluster_id": 1, "rank_in_cluster": 45}

>  <energy>  (23) 
-6.53

>  <cluster_rmsd>  (23) 
1.18

>  <cluster>  (23) 
1

$$$$

     RDKit          3D

 41 42  0  0  0  0  0  0  0  0999 V2000
  141.9320   79.3270  222.7140 C   0  0  0  0  0  0  0  0  0  0  0  0
  140.6500   78.6860  222.9290 N   0  0  0  0  0  0  0  0  0  0  0  0
  139.7050   79.4050  223.7820 C   0  0  0  0  0  0  0  0  0  0  0  0
  140.3160   77.4200  222.3430 C   0  0  0  0  0  0  0  0  0  0  0  0
  139.1900   76.9490  222.5850 O   0  0  0  0  0  0  0  0  0  0  0  0
  141.3420   76.7760  221.4940 C   0  0  0  0  0  0  0  0  0  0  0  0
  140.9020   75.4250  221.2030 N   0  0  0  0  0  0  0  0  0  0  0  0
  141.8240   74.5130  220.6340 C   0  0  0  0  0  0  0  0  0  0  0  0
  143.0150   74.9090  220.3900 O   0  0  0  0  0  0  0  0  0  0  0  0
  141.5220   73.1110  220.2870 C   0  0  0  0  0  0  0  0  0  0  0  0
  141.3510   72.2490  221.4230 N   0  0  0  0  0  0  0  0  0  0  0  0
  140.3660   72.4890  222.4210 C   0  0  0  0  0  0  0  0  0  0  0  0
  139.5770   73.4920  222.3710 O   0  0  0  0  0  0  0  0  0  0  0  0
  140.2430   71.5530  223.5570 C   0  0  0  0  0  0  0  0  0  0  0  0
  139.6450   70.3260  223.3780 C   0  0  0  0  0  0  0  0  0  0  0  0
  139.5130   69.4250  224.4160 C   0  0  0  0  0  0  0  0  0  0  0  0
  140.0040   69.7950  225.6660 C   0  0  0  0  0  0  0  0  0  0  0  0
  139.8980   68.9400  226.7310 C   0  0  0  0  0  0  0  0  0  0  0  0
  140.3960   69.3240  227.9800 C   0  0  0  0  0  0  0  0  0  0  0  0
  140.3090   68.5020  229.0570 F   0  0  0  0  0  0  0  0  0  0  0  0
  140.9890   70.5770  228.1020 C   0  0  0  0  0  0  0  0  0  0  0  0
  141.1020   71.4430  227.0400 C   0  0  0  0  0  0  0  0  0  0  0  0
  140.6050   71.0460  225.8190 C   0  0  0  0  0  0  0  0  0  0  0  0
  140.7170   71.9040  224.7740 N   0  0  0  0  0  0  0  0  0  0  0  0
  142.3939   79.5580  223.6852 H   0  0  0  0  0  0  0  0  0  0  0  0
  142.5892   78.6514  222.1468 H   0  0  0  0  0  0  0  0  0  0  0  0
  141.7859   80.2581  222.1468 H   0  0  0  0  0  0  0  0  0  0  0  0
  139.9495   79.2189  224.8382 H   0  0  0  0  0  0  0  0  0  0  0  0
  139.7711   80.4833  223.5748 H   0  0  0  0  0  0  0  0  0  0  0  0
  138.6834   79.0537  223.5748 H   0  0  0  0  0  0  0  0  0  0  0  0
  141.4585   77.3403  220.5570 H   0  0  0  0  0  0  0  0  0  0  0  0
  142.3109   76.7577  222.0144 H   0  0  0  0  0  0  0  0  0  0  0  0
  139.9200   75.1460  221.4020 H   0  0  0  0  0  0  0  0  0  0  0  0
  140.5936   73.0935  219.6973 H   0  0  0  0  0  0  0  0  0  0  0  0
  142.3885   72.7293  219.7271 H   0  0  0  0  0  0  0  0  0  0  0  0
  141.9540   71.3950  221.5640 H   0  0  0  0  0  0  0  0  0  0  0  0
  139.2625   70.0564  222.3825 H   0  0  0  0  0  0  0  0  0  0  0  0
  139.0354   68.4463  224.2608 H   0  0  0  0  0  0  0  0  0  0  0  0
  139.4233   67.9558  226.6043 H   0  0  0  0  0  0  0  0  0  0  0  0
  141.3811   70.8854  229.0824 H   0  0  0  0  0  0  0  0  0  0  0  0
  141.5772   72.4275  227.1627 H   0  0  0  0  0  0  0  0  0  0  0  0
  1  2  1  0
  2  3  1  0
  2  4  1  0
  4  5  2  0
  4  6  1  0
  6  7  1  0
  7  8  1  0
  8  9  2  0
  8 10  1  0
 10 11  1  0
 11 12  1  0
 12 13  2  0
 12 14  1  0
 14 15  2  0
 15 16  1  0
 16 17  2  0
 17 18  1  0
 18 19  2  0
 19 20  1  0
 19 21  1  0
 21 22  2  0
 22 23  1  0
 23 24  2  0
 24 14  1  0
 23 17  1  0
  1 25  1  0
  1 26  1  0
  1 27  1  0
  3 28  1  0
  3 29  1  0
  3 30  1  0
  6 31  1  0
  6 32  1  0
  7 33  1  0
 10 34  1  0
 10 35  1  0
 11 36  1  0
 15 37  1  0
 16 38  1  0
 18 39  1  0
 21 40  1  0
 22 41  1  0
M  END
>  <smiles>  (24) 
CN(C)C(=O)CNC(=O)CNC(=O)c1ccc2cc(F)ccc2n1

>  <score_type>  (24) 
oracle

>  <origin>  (24) 
autodockgpu

>  <m_score__min__energy>  (24) 
-7.7199999999999998

>  <m_primary>  (24) 
energy

>  <rmsd>  (24) 
4.929357237833635

>  <m_score__min__rmsd>  (24) 
4.929357237833635

>  <meeko>  (24) 
{"free_energy": -6.45, "intermolecular_energy": -7.95, "internal_energy": -2.08, "cluster_size": 49, "cluster_id": 1, "rank_in_cluster": 33}

>  <energy>  (24) 
-6.53

>  <cluster_rmsd>  (24) 
1.44

>  <cluster>  (24) 
1

$$$$

     RDKit          3D

 41 42  0  0  0  0  0  0  0  0999 V2000
  137.7000   78.7450  222.4510 C   0  0  0  0  0  0  0  0  0  0  0  0
  138.9840   78.1030  222.6480 N   0  0  0  0  0  0  0  0  0  0  0  0
  140.0870   78.9780  223.0420 C   0  0  0  0  0  0  0  0  0  0  0  0
  139.1740   76.6930  222.4720 C   0  0  0  0  0  0  0  0  0  0  0  0
  140.3140   76.2330  222.6640 O   0  0  0  0  0  0  0  0  0  0  0  0
  137.9930   75.8960  222.0730 C   0  0  0  0  0  0  0  0  0  0  0  0
  138.3610   74.4940  222.1120 N   0  0  0  0  0  0  0  0  0  0  0  0
  137.5790   73.5610  221.3880 C   0  0  0  0  0  0  0  0  0  0  0  0
  136.5710   73.9810  220.7250 O   0  0  0  0  0  0  0  0  0  0  0  0
  137.8340   72.1080  221.3320 C   0  0  0  0  0  0  0  0  0  0  0  0
  138.3040   71.5460  222.5660 N   0  0  0  0  0  0  0  0  0  0  0  0
  139.5530   71.9080  223.1420 C   0  0  0  0  0  0  0  0  0  0  0  0
  140.3380   72.7520  222.5910 O   0  0  0  0  0  0  0  0  0  0  0  0
  139.9670   71.2940  224.4200 C   0  0  0  0  0  0  0  0  0  0  0  0
  140.9000   71.9200  225.2160 C   0  0  0  0  0  0  0  0  0  0  0  0
  141.3110   71.3760  226.4170 C   0  0  0  0  0  0  0  0  0  0  0  0
  140.7510   70.1620  226.8080 C   0  0  0  0  0  0  0  0  0  0  0  0
  141.1230   69.5770  227.9900 C   0  0  0  0  0  0  0  0  0  0  0  0
  140.5530   68.3580  228.3690 C   0  0  0  0  0  0  0  0  0  0  0  0
  140.8970   67.7510  229.5340 F   0  0  0  0  0  0  0  0  0  0  0  0
  139.6150   67.7720  227.5250 C   0  0  0  0  0  0  0  0  0  0  0  0
  139.2340   68.3500  226.3370 C   0  0  0  0  0  0  0  0  0  0  0  0
  139.8070   69.5490  225.9810 C   0  0  0  0  0  0  0  0  0  0  0  0
  139.4290   70.1150  224.8070 N   0  0  0  0  0  0  0  0  0  0  0  0
  137.2490   78.9705  223.4286 H   0  0  0  0  0  0  0  0  0  0  0  0
  137.8398   79.6793  221.8874 H   0  0  0  0  0  0  0  0  0  0  0  0
  137.0365   78.0726  221.8874 H   0  0  0  0  0  0  0  0  0  0  0  0
  140.1447   79.0237  224.1395 H   0  0  0  0  0  0  0  0  0  0  0  0
  141.0313   78.5807  222.6415 H   0  0  0  0  0  0  0  0  0  0  0  0
  139.9149   79.9879  222.6415 H   0  0  0  0  0  0  0  0  0  0  0  0
  137.1638   76.0833  222.7711 H   0  0  0  0  0  0  0  0  0  0  0  0
  137.6687   76.1766  221.0600 H   0  0  0  0  0  0  0  0  0  0  0  0
  139.1800   74.1890  222.6770 H   0  0  0  0  0  0  0  0  0  0  0  0
  136.8958   71.6033  221.0581 H   0  0  0  0  0  0  0  0  0  0  0  0
  138.6319   71.9551  220.5904 H   0  0  0  0  0  0  0  0  0  0  0  0
  137.7370   70.8350  223.1020 H   0  0  0  0  0  0  0  0  0  0  0  0
  141.3290   72.8779  224.8869 H   0  0  0  0  0  0  0  0  0  0  0  0
  142.0569   71.8852  227.0449 H   0  0  0  0  0  0  0  0  0  0  0  0
  141.8667   70.0643  228.6377 H   0  0  0  0  0  0  0  0  0  0  0  0
  139.1626   66.8132  227.8182 H   0  0  0  0  0  0  0  0  0  0  0  0
  138.4897   67.8659  225.6876 H   0  0  0  0  0  0  0  0  0  0  0  0
  1  2  1  0
  2  3  1  0
  2  4  1  0
  4  5  2  0
  4  6  1  0
  6  7  1  0
  7  8  1  0
  8  9  2  0
  8 10  1  0
 10 11  1  0
 11 12  1  0
 12 13  2  0
 12 14  1  0
 14 15  2  0
 15 16  1  0
 16 17  2  0
 17 18  1  0
 18 19  2  0
 19 20  1  0
 19 21  1  0
 21 22  2  0
 22 23  1  0
 23 24  2  0
 24 14  1  0
 23 17  1  0
  1 25  1  0
  1 26  1  0
  1 27  1  0
  3 28  1  0
  3 29  1  0
  3 30  1  0
  6 31  1  0
  6 32  1  0
  7 33  1  0
 10 34  1  0
 10 35  1  0
 11 36  1  0
 15 37  1  0
 16 38  1  0
 18 39  1  0
 21 40  1  0
 22 41  1  0
M  END
>  <smiles>  (25) 
CN(C)C(=O)CNC(=O)CNC(=O)c1ccc2cc(F)ccc2n1

>  <score_type>  (25) 
oracle

>  <origin>  (25) 
autodockgpu

>  <m_score__min__energy>  (25) 
-7.7199999999999998

>  <m_primary>  (25) 
energy

>  <rmsd>  (25) 
3.6192687660466394

>  <m_score__min__rmsd>  (25) 
3.6192687660466394

>  <meeko>  (25) 
{"free_energy": -6.0, "intermolecular_energy": -7.5, "internal_energy": -2.33, "cluster_size": 49, "cluster_id": 1, "rank_in_cluster": 49}

>  <energy>  (25) 
-6.52

>  <cluster_rmsd>  (25) 
1.28

>  <cluster>  (25) 
1

$$$$

     RDKit          3D

 41 42  0  0  0  0  0  0  0  0999 V2000
  144.0820   74.8170  220.0940 C   0  0  0  0  0  0  0  0  0  0  0  0
  144.5670   73.4910  220.4210 N   0  0  0  0  0  0  0  0  0  0  0  0
  145.8530   73.4280  221.1120 C   0  0  0  0  0  0  0  0  0  0  0  0
  143.8370   72.3020  220.0900 C   0  0  0  0  0  0  0  0  0  0  0  0
  144.3350   71.2080  220.4120 O   0  0  0  0  0  0  0  0  0  0  0  0
  142.5440   72.4740  219.3910 C   0  0  0  0  0  0  0  0  0  0  0  0
  141.4820   72.1290  220.3160 N   0  0  0  0  0  0  0  0  0  0  0  0
  140.2260   71.7300  219.7970 C   0  0  0  0  0  0  0  0  0  0  0  0
  140.0650   71.6900  218.5300 O   0  0  0  0  0  0  0  0  0  0  0  0
  139.0570   71.3490  220.6130 C   0  0  0  0  0  0  0  0  0  0  0  0
  139.3890   70.8550  221.9200 N   0  0  0  0  0  0  0  0  0  0  0  0
  139.9410   71.6880  222.9320 C   0  0  0  0  0  0  0  0  0  0  0  0
  140.1840   72.9270  222.7360 O   0  0  0  0  0  0  0  0  0  0  0  0
  140.2490   71.1120  224.2570 C   0  0  0  0  0  0  0  0  0  0  0  0
  140.7960   71.9010  225.2420 C   0  0  0  0  0  0  0  0  0  0  0  0
  141.0970   71.3970  226.4920 C   0  0  0  0  0  0  0  0  0  0  0  0
  140.8290   70.0520  226.7340 C   0  0  0  0  0  0  0  0  0  0  0  0
  141.1080   69.5000  227.9560 C   0  0  0  0  0  0  0  0  0  0  0  0
  140.8340   68.1470  228.1850 C   0  0  0  0  0  0  0  0  0  0  0  0
  141.0970   67.5670  229.3840 F   0  0  0  0  0  0  0  0  0  0  0  0
  140.2810   67.3980  227.1510 C   0  0  0  0  0  0  0  0  0  0  0  0
  139.9970   67.9410  225.9200 C   0  0  0  0  0  0  0  0  0  0  0  0
  140.2740   69.2730  225.7160 C   0  0  0  0  0  0  0  0  0  0  0  0
  139.9930   69.8060  224.5000 N   0  0  0  0  0  0  0  0  0  0  0  0
  143.8789   75.3722  221.0216 H   0  0  0  0  0  0  0  0  0  0  0  0
  144.8430   75.3511  219.5061 H   0  0  0  0  0  0  0  0  0  0  0  0
  143.1560   74.7341  219.5061 H   0  0  0  0  0  0  0  0  0  0  0  0
  145.6859   73.4362  222.1992 H   0  0  0  0  0  0  0  0  0  0  0  0
  146.3767   72.5031  220.8285 H   0  0  0  0  0  0  0  0  0  0  0  0
  146.4646   74.2973  220.8285 H   0  0  0  0  0  0  0  0  0  0  0  0
  142.4314   73.5192  219.0673 H   0  0  0  0  0  0  0  0  0  0  0  0
  142.5016   71.8256  218.5034 H   0  0  0  0  0  0  0  0  0  0  0  0
  141.6480   72.1900  221.3410 H   0  0  0  0  0  0  0  0  0  0  0  0
  138.4152   72.2345  220.7314 H   0  0  0  0  0  0  0  0  0  0  0  0
  138.5543   70.5272  220.0820 H   0  0  0  0  0  0  0  0  0  0  0  0
  139.2340   69.8460  222.1850 H   0  0  0  0  0  0  0  0  0  0  0  0
  140.9990   72.9608  225.0285 H   0  0  0  0  0  0  0  0  0  0  0  0
  141.5346   72.0376  227.2718 H   0  0  0  0  0  0  0  0  0  0  0  0
  141.5456   70.1177  228.7541 H   0  0  0  0  0  0  0  0  0  0  0  0
  140.0633   66.3338  227.3244 H   0  0  0  0  0  0  0  0  0  0  0  0
  139.5597   67.3264  225.1193 H   0  0  0  0  0  0  0  0  0  0  0  0
  1  2  1  0
  2  3  1  0
  2  4  1  0
  4  5  2  0
  4  6  1  0
  6  7  1  0
  7  8  1  0
  8  9  2  0
  8 10  1  0
 10 11  1  0
 11 12  1  0
 12 13  2  0
 12 14  1  0
 14 15  2  0
 15 16  1  0
 16 17  2  0
 17 18  1  0
 18 19  2  0
 19 20  1  0
 19 21  1  0
 21 22  2  0
 22 23  1  0
 23 24  2  0
 24 14  1  0
 23 17  1  0
  1 25  1  0
  1 26  1  0
  1 27  1  0
  3 28  1  0
  3 29  1  0
  3 30  1  0
  6 31  1  0
  6 32  1  0
  7 33  1  0
 10 34  1  0
 10 35  1  0
 11 36  1  0
 15 37  1  0
 16 38  1  0
 18 39  1  0
 21 40  1  0
 22 41  1  0
M  END
>  <smiles>  (26) 
CN(C)C(=O)CNC(=O)CNC(=O)c1ccc2cc(F)ccc2n1

>  <score_type>  (26) 
oracle

>  <origin>  (26) 
autodockgpu

>  <m_score__min__energy>  (26) 
-7.7199999999999998

>  <m_primary>  (26) 
energy

>  <rmsd>  (26) 
4.107436602974712

>  <m_score__min__rmsd>  (26) 
4.107436602974712

>  <meeko>  (26) 
{"free_energy": -5.8, "intermolecular_energy": -7.29, "internal_energy": -2.03, "cluster_size": 1, "cluster_id": 2, "rank_in_cluster": 1}

>  <energy>  (26) 
-6.49

>  <cluster_rmsd>  (26) 
1.65

>  <cluster>  (26) 
1

$$$$

     RDKit          3D

 41 42  0  0  0  0  0  0  0  0999 V2000
  142.7800   79.6610  222.7240 C   0  0  0  0  0  0  0  0  0  0  0  0
  141.3720   79.6900  223.0640 N   0  0  0  0  0  0  0  0  0  0  0  0
  140.8970   80.8970  223.7390 C   0  0  0  0  0  0  0  0  0  0  0  0
  140.4850   78.6040  222.7630 C   0  0  0  0  0  0  0  0  0  0  0  0
  139.2920   78.7200  223.0950 O   0  0  0  0  0  0  0  0  0  0  0  0
  141.0660   77.4280  222.0770 C   0  0  0  0  0  0  0  0  0  0  0  0
  140.0610   76.3820  222.0480 N   0  0  0  0  0  0  0  0  0  0  0  0
  140.4460   75.0750  221.6610 C   0  0  0  0  0  0  0  0  0  0  0  0
  141.6640   74.8570  221.3440 O   0  0  0  0  0  0  0  0  0  0  0  0
  139.5380   73.9140  221.5880 C   0  0  0  0  0  0  0  0  0  0  0  0
  139.6580   73.0040  222.6920 N   0  0  0  0  0  0  0  0  0  0  0  0
  139.4380   71.6050  222.5550 C   0  0  0  0  0  0  0  0  0  0  0  0
  139.1140   71.0740  221.4400 O   0  0  0  0  0  0  0  0  0  0  0  0
  139.5880   70.7290  223.7340 C   0  0  0  0  0  0  0  0  0  0  0  0
  139.1340   69.4310  223.6920 C   0  0  0  0  0  0  0  0  0  0  0  0
  139.2570   68.5830  224.7750 C   0  0  0  0  0  0  0  0  0  0  0  0
  139.8600   69.0810  225.9270 C   0  0  0  0  0  0  0  0  0  0  0  0
  140.0080   68.2830  227.0310 C   0  0  0  0  0  0  0  0  0  0  0  0
  140.6160   68.7970  228.1810 C   0  0  0  0  0  0  0  0  0  0  0  0
  140.7790   68.0350  229.2920 F   0  0  0  0  0  0  0  0  0  0  0  0
  141.0560   70.1160  228.1660 C   0  0  0  0  0  0  0  0  0  0  0  0
  140.9130   70.9270  227.0640 C   0  0  0  0  0  0  0  0  0  0  0  0
  140.3120   70.4020  225.9430 C   0  0  0  0  0  0  0  0  0  0  0  0
  140.1730   71.2050  224.8580 N   0  0  0  0  0  0  0  0  0  0  0  0
  143.3797   79.6487  223.6461 H   0  0  0  0  0  0  0  0  0  0  0  0
  142.9962   78.7582  222.1339 H   0  0  0  0  0  0  0  0  0  0  0  0
  143.0332   80.5541  222.1339 H   0  0  0  0  0  0  0  0  0  0  0  0
  140.9532   80.7542  224.8282 H   0  0  0  0  0  0  0  0  0  0  0  0
  141.5260   81.7513  223.4483 H   0  0  0  0  0  0  0  0  0  0  0  0
  139.8545   81.0935  223.4483 H   0  0  0  0  0  0  0  0  0  0  0  0
  141.3521   77.6989  221.0500 H   0  0  0  0  0  0  0  0  0  0  0  0
  141.9632   77.0802  222.6100 H   0  0  0  0  0  0  0  0  0  0  0  0
  139.0760   76.6030  222.2980 H   0  0  0  0  0  0  0  0  0  0  0  0
  138.5033   74.2863  221.5585 H   0  0  0  0  0  0  0  0  0  0  0  0
  139.8142   73.3524  220.6834 H   0  0  0  0  0  0  0  0  0  0  0  0
  139.9160   73.3390  223.6590 H   0  0  0  0  0  0  0  0  0  0  0  0
  138.6605   69.0588  222.7715 H   0  0  0  0  0  0  0  0  0  0  0  0
  138.8902   67.5470  224.7290 H   0  0  0  0  0  0  0  0  0  0  0  0
  139.6503   67.2429  227.0130 H   0  0  0  0  0  0  0  0  0  0  0  0
  141.5355   70.5255  229.0673 H   0  0  0  0  0  0  0  0  0  0  0  0
  141.2696   71.9675  227.0786 H   0  0  0  0  0  0  0  0  0  0  0  0
  1  2  1  0
  2  3  1  0
  2  4  1  0
  4  5  2  0
  4  6  1  0
  6  7  1  0
  7  8  1  0
  8  9  2  0
  8 10  1  0
 10 11  1  0
 11 12  1  0
 12 13  2  0
 12 14  1  0
 14 15  2  0
 15 16  1  0
 16 17  2  0
 17 18  1  0
 18 19  2  0
 19 20  1  0
 19 21  1  0
 21 22  2  0
 22 23  1  0
 23 24  2  0
 24 14  1  0
 23 17  1  0
  1 25  1  0
  1 26  1  0
  1 27  1  0
  3 28  1  0
  3 29  1  0
  3 30  1  0
  6 31  1  0
  6 32  1  0
  7 33  1  0
 10 34  1  0
 10 35  1  0
 11 36  1  0
 15 37  1  0
 16 38  1  0
 18 39  1  0
 21 40  1  0
 22 41  1  0
M  END
>  <smiles>  (27) 
CN(C)C(=O)CNC(=O)CNC(=O)c1ccc2cc(F)ccc2n1

>  <score_type>  (27) 
oracle

>  <origin>  (27) 
autodockgpu

>  <m_score__min__energy>  (27) 
-7.7199999999999998

>  <m_primary>  (27) 
energy

>  <rmsd>  (27) 
5.066012837976595

>  <m_score__min__rmsd>  (27) 
5.066012837976595

>  <meeko>  (27) 
{"free_energy": -6.59, "intermolecular_energy": -8.08, "internal_energy": -1.68, "cluster_size": 49, "cluster_id": 1, "rank_in_cluster": 21}

>  <energy>  (27) 
-6.49

>  <cluster_rmsd>  (27) 
1.64

>  <cluster>  (27) 
1

$$$$

     RDKit          3D

 41 42  0  0  0  0  0  0  0  0999 V2000
  141.2410   79.6100  222.7700 C   0  0  0  0  0  0  0  0  0  0  0  0
  140.0200   78.8440  222.9220 N   0  0  0  0  0  0  0  0  0  0  0  0
  138.8990   79.5360  223.5550 C   0  0  0  0  0  0  0  0  0  0  0  0
  139.9060   77.4840  222.4810 C   0  0  0  0  0  0  0  0  0  0  0  0
  138.8170   76.9080  222.6540 O   0  0  0  0  0  0  0  0  0  0  0  0
  141.0990   76.8750  221.8510 C   0  0  0  0  0  0  0  0  0  0  0  0
  140.8010   75.4830  221.5720 N   0  0  0  0  0  0  0  0  0  0  0  0
  141.7360   74.7180  220.8360 C   0  0  0  0  0  0  0  0  0  0  0  0
  142.8130   75.2760  220.4350 O   0  0  0  0  0  0  0  0  0  0  0  0
  141.5710   73.2950  220.4810 C   0  0  0  0  0  0  0  0  0  0  0  0
  141.3930   72.4240  221.6080 N   0  0  0  0  0  0  0  0  0  0  0  0
  140.2920   72.5480  222.5010 C   0  0  0  0  0  0  0  0  0  0  0  0
  139.3970   73.4480  222.3560 O   0  0  0  0  0  0  0  0  0  0  0  0
  140.1700   71.6100  223.6350 C   0  0  0  0  0  0  0  0  0  0  0  0
  139.5360   70.4000  223.4650 C   0  0  0  0  0  0  0  0  0  0  0  0
  139.4030   69.4980  224.5020 C   0  0  0  0  0  0  0  0  0  0  0  0
  139.9320   69.8490  225.7410 C   0  0  0  0  0  0  0  0  0  0  0  0
  139.8290   68.9920  226.8050 C   0  0  0  0  0  0  0  0  0  0  0  0
  140.3650   69.3560  228.0440 C   0  0  0  0  0  0  0  0  0  0  0  0
  140.2810   68.5310  229.1190 F   0  0  0  0  0  0  0  0  0  0  0  0
  140.9940   70.5910  228.1570 C   0  0  0  0  0  0  0  0  0  0  0  0
  141.1050   71.4600  227.0970 C   0  0  0  0  0  0  0  0  0  0  0  0
  140.5700   71.0820  225.8870 C   0  0  0  0  0  0  0  0  0  0  0  0
  140.6810   71.9420  224.8420 N   0  0  0  0  0  0  0  0  0  0  0  0
  141.6420   79.8616  223.7629 H   0  0  0  0  0  0  0  0  0  0  0  0
  141.9811   79.0141  222.2159 H   0  0  0  0  0  0  0  0  0  0  0  0
  141.0265   80.5357  222.2159 H   0  0  0  0  0  0  0  0  0  0  0  0
  139.0000   79.4737  224.6486 H   0  0  0  0  0  0  0  0  0  0  0  0
  138.8985   80.5918  223.2464 H   0  0  0  0  0  0  0  0  0  0  0  0
  137.9549   79.0633  223.2464 H   0  0  0  0  0  0  0  0  0  0  0  0
  141.3350   77.4007  220.9140 H   0  0  0  0  0  0  0  0  0  0  0  0
  141.9658   76.9514  222.5239 H   0  0  0  0  0  0  0  0  0  0  0  0
  139.9050   75.0700  221.9040 H   0  0  0  0  0  0  0  0  0  0  0  0
  140.6889   73.2018  219.8304 H   0  0  0  0  0  0  0  0  0  0  0  0
  142.5018   72.9832  219.9846 H   0  0  0  0  0  0  0  0  0  0  0  0
  142.0780   71.6510  221.8230 H   0  0  0  0  0  0  0  0  0  0  0  0
  139.1246   70.1450  222.4772 H   0  0  0  0  0  0  0  0  0  0  0  0
  138.8955   68.5334  224.3539 H   0  0  0  0  0  0  0  0  0  0  0  0
  139.3264   68.0210  226.6849 H   0  0  0  0  0  0  0  0  0  0  0  0
  141.4179   70.8833  229.1290 H   0  0  0  0  0  0  0  0  0  0  0  0
  141.6080   72.4313  227.2133 H   0  0  0  0  0  0  0  0  0  0  0  0
  1  2  1  0
  2  3  1  0
  2  4  1  0
  4  5  2  0
  4  6  1  0
  6  7  1  0
  7  8  1  0
  8  9  2  0
  8 10  1  0
 10 11  1  0
 11 12  1  0
 12 13  2  0
 12 14  1  0
 14 15  2  0
 15 16  1  0
 16 17  2  0
 17 18  1  0
 18 19  2  0
 19 20  1  0
 19 21  1  0
 21 22  2  0
 22 23  1  0
 23 24  2  0
 24 14  1  0
 23 17  1  0
  1 25  1  0
  1 26  1  0
  1 27  1  0
  3 28  1  0
  3 29  1  0
  3 30  1  0
  6 31  1  0
  6 32  1  0
  7 33  1  0
 10 34  1  0
 10 35  1  0
 11 36  1  0
 15 37  1  0
 16 38  1  0
 18 39  1  0
 21 40  1  0
 22 41  1  0
M  END
>  <smiles>  (28) 
CN(C)C(=O)CNC(=O)CNC(=O)c1ccc2cc(F)ccc2n1

>  <score_type>  (28) 
oracle

>  <origin>  (28) 
autodockgpu

>  <m_score__min__energy>  (28) 
-7.7199999999999998

>  <m_primary>  (28) 
energy

>  <rmsd>  (28) 
4.947318975340351

>  <m_score__min__rmsd>  (28) 
4.947318975340351

>  <meeko>  (28) 
{"free_energy": -6.29, "intermolecular_energy": -7.78, "internal_energy": -2.11, "cluster_size": 49, "cluster_id": 1, "rank_in_cluster": 39}

>  <energy>  (28) 
-6.49

>  <cluster_rmsd>  (28) 
1.66

>  <cluster>  (28) 
1

$$$$

     RDKit          3D

 41 42  0  0  0  0  0  0  0  0999 V2000
  142.1020   79.3160  222.6770 C   0  0  0  0  0  0  0  0  0  0  0  0
  140.8050   78.7070  222.8980 N   0  0  0  0  0  0  0  0  0  0  0  0
  139.8930   79.4360  223.7760 C   0  0  0  0  0  0  0  0  0  0  0  0
  140.4280   77.4620  222.2950 C   0  0  0  0  0  0  0  0  0  0  0  0
  139.2920   77.0180  222.5440 O   0  0  0  0  0  0  0  0  0  0  0  0
  141.4250   76.8040  221.4210 C   0  0  0  0  0  0  0  0  0  0  0  0
  140.9480   75.4680  221.1190 N   0  0  0  0  0  0  0  0  0  0  0  0
  141.8640   74.5110  220.6200 C   0  0  0  0  0  0  0  0  0  0  0  0
  143.0820   74.8540  220.4460 O   0  0  0  0  0  0  0  0  0  0  0  0
  141.5250   73.1170  220.2730 C   0  0  0  0  0  0  0  0  0  0  0  0
  141.3390   72.2580  221.4070 N   0  0  0  0  0  0  0  0  0  0  0  0
  140.3470   72.5050  222.3970 C   0  0  0  0  0  0  0  0  0  0  0  0
  139.5660   73.5140  222.3390 O   0  0  0  0  0  0  0  0  0  0  0  0
  140.2080   71.5710  223.5320 C   0  0  0  0  0  0  0  0  0  0  0  0
  139.5720   70.3630  223.3580 C   0  0  0  0  0  0  0  0  0  0  0  0
  139.4240   69.4650  224.3960 C   0  0  0  0  0  0  0  0  0  0  0  0
  139.9380   69.8180  225.6410 C   0  0  0  0  0  0  0  0  0  0  0  0
  139.8180   68.9640  226.7060 C   0  0  0  0  0  0  0  0  0  0  0  0
  140.3400   69.3310  227.9510 C   0  0  0  0  0  0  0  0  0  0  0  0
  140.2400   68.5100  229.0280 F   0  0  0  0  0  0  0  0  0  0  0  0
  140.9720   70.5650  228.0680 C   0  0  0  0  0  0  0  0  0  0  0  0
  141.0990   71.4300  227.0060 C   0  0  0  0  0  0  0  0  0  0  0  0
  140.5780   71.0500  225.7910 C   0  0  0  0  0  0  0  0  0  0  0  0
  140.7040   71.9060  224.7450 N   0  0  0  0  0  0  0  0  0  0  0  0
  142.5731   79.5372  223.6461 H   0  0  0  0  0  0  0  0  0  0  0  0
  142.7402   78.6234  222.1086 H   0  0  0  0  0  0  0  0  0  0  0  0
  141.9768   80.2494  222.1086 H   0  0  0  0  0  0  0  0  0  0  0  0
  140.1510   79.2298  224.8252 H   0  0  0  0  0  0  0  0  0  0  0  0
  139.9814   80.5151  223.5819 H   0  0  0  0  0  0  0  0  0  0  0  0
  138.8599   79.1120  223.5819 H   0  0  0  0  0  0  0  0  0  0  0  0
  141.5408   77.3779  220.4897 H   0  0  0  0  0  0  0  0  0  0  0  0
  142.4009   76.7549  221.9261 H   0  0  0  0  0  0  0  0  0  0  0  0
  139.9440   75.2320  221.2600 H   0  0  0  0  0  0  0  0  0  0  0  0
  140.5931   73.1237  219.6886 H   0  0  0  0  0  0  0  0  0  0  0  0
  142.3789   72.7149  219.7081 H   0  0  0  0  0  0  0  0  0  0  0  0
  141.9350   71.3990  221.5540 H   0  0  0  0  0  0  0  0  0  0  0  0
  139.1713   70.1064  222.3663 H   0  0  0  0  0  0  0  0  0  0  0  0
  138.9161   68.5011  224.2444 H   0  0  0  0  0  0  0  0  0  0  0  0
  139.3135   67.9943  226.5825 H   0  0  0  0  0  0  0  0  0  0  0  0
  141.3847   70.8593  229.0443 H   0  0  0  0  0  0  0  0  0  0  0  0
  141.6039   72.4000  227.1252 H   0  0  0  0  0  0  0  0  0  0  0  0
  1  2  1  0
  2  3  1  0
  2  4  1  0
  4  5  2  0
  4  6  1  0
  6  7  1  0
  7  8  1  0
  8  9  2  0
  8 10  1  0
 10 11  1  0
 11 12  1  0
 12 13  2  0
 12 14  1  0
 14 15  2  0
 15 16  1  0
 16 17  2  0
 17 18  1  0
 18 19  2  0
 19 20  1  0
 19 21  1  0
 21 22  2  0
 22 23  1  0
 23 24  2  0
 24 14  1  0
 23 17  1  0
  1 25  1  0
  1 26  1  0
  1 27  1  0
  3 28  1  0
  3 29  1  0
  3 30  1  0
  6 31  1  0
  6 32  1  0
  7 33  1  0
 10 34  1  0
 10 35  1  0
 11 36  1  0
 15 37  1  0
 16 38  1  0
 18 39  1  0
 21 40  1  0
 22 41  1  0
M  END
>  <smiles>  (29) 
CN(C)C(=O)CNC(=O)CNC(=O)c1ccc2cc(F)ccc2n1

>  <score_type>  (29) 
oracle

>  <origin>  (29) 
autodockgpu

>  <m_score__min__energy>  (29) 
-7.7199999999999998

>  <m_primary>  (29) 
energy

>  <rmsd>  (29) 
4.948537287783817

>  <m_score__min__rmsd>  (29) 
4.948537287783817

>  <meeko>  (29) 
{"free_energy": -6.46, "intermolecular_energy": -7.95, "internal_energy": -2.1, "cluster_size": 49, "cluster_id": 1, "rank_in_cluster": 31}

>  <energy>  (29) 
-6.48

>  <cluster_rmsd>  (29) 
1.65

>  <cluster>  (29) 
1

$$$$

     RDKit          3D

 41 42  0  0  0  0  0  0  0  0999 V2000
  139.7730   80.9780  223.3610 C   0  0  0  0  0  0  0  0  0  0  0  0
  141.1080   80.4150  223.3680 N   0  0  0  0  0  0  0  0  0  0  0  0
  142.1670   81.2740  223.8970 C   0  0  0  0  0  0  0  0  0  0  0  0
  141.3880   79.0940  222.8870 C   0  0  0  0  0  0  0  0  0  0  0  0
  142.5670   78.6980  222.9330 O   0  0  0  0  0  0  0  0  0  0  0  0
  140.2470   78.3050  222.3730 C   0  0  0  0  0  0  0  0  0  0  0  0
  140.7150   76.9610  222.0960 N   0  0  0  0  0  0  0  0  0  0  0  0
  139.8010   76.0100  221.5800 C   0  0  0  0  0  0  0  0  0  0  0  0
  138.5900   76.3640  221.3780 O   0  0  0  0  0  0  0  0  0  0  0  0
  140.1340   74.6110  221.2490 C   0  0  0  0  0  0  0  0  0  0  0  0
  139.9660   73.6930  222.3400 N   0  0  0  0  0  0  0  0  0  0  0  0
  140.4930   72.3720  222.3120 C   0  0  0  0  0  0  0  0  0  0  0  0
  141.1420   71.9190  221.3100 O   0  0  0  0  0  0  0  0  0  0  0  0
  140.2890   71.4860  223.4760 C   0  0  0  0  0  0  0  0  0  0  0  0
  139.6710   70.2670  223.3160 C   0  0  0  0  0  0  0  0  0  0  0  0
  139.4630   69.4130  224.3800 C   0  0  0  0  0  0  0  0  0  0  0  0
  139.8990   69.8220  225.6380 C   0  0  0  0  0  0  0  0  0  0  0  0
  139.7190   69.0130  226.7290 C   0  0  0  0  0  0  0  0  0  0  0  0
  140.1620   69.4370  227.9870 C   0  0  0  0  0  0  0  0  0  0  0  0
  139.9990   68.6610  229.0890 F   0  0  0  0  0  0  0  0  0  0  0  0
  140.7790   70.6780  228.0890 C   0  0  0  0  0  0  0  0  0  0  0  0
  140.9670   71.4980  227.0010 C   0  0  0  0  0  0  0  0  0  0  0  0
  140.5230   71.0630  225.7730 C   0  0  0  0  0  0  0  0  0  0  0  0
  140.7090   71.8750  224.7020 N   0  0  0  0  0  0  0  0  0  0  0  0
  139.4305   81.1224  224.3963 H   0  0  0  0  0  0  0  0  0  0  0  0
  139.7865   81.9471  222.8407 H   0  0  0  0  0  0  0  0  0  0  0  0
  139.0885   80.2919  222.8407 H   0  0  0  0  0  0  0  0  0  0  0  0
  142.1412   81.2530  224.9965 H   0  0  0  0  0  0  0  0  0  0  0  0
  143.1439   80.9100  223.5462 H   0  0  0  0  0  0  0  0  0  0  0  0
  142.0124   82.3050  223.5462 H   0  0  0  0  0  0  0  0  0  0  0  0
  139.4466   78.2728  223.1269 H   0  0  0  0  0  0  0  0  0  0  0  0
  139.8482   78.7653  221.4570 H   0  0  0  0  0  0  0  0  0  0  0  0
  141.7060   76.7080  222.2880 H   0  0  0  0  0  0  0  0  0  0  0  0
  139.4839   74.2877  220.4227 H   0  0  0  0  0  0  0  0  0  0  0  0
  141.2011   74.5942  220.9827 H   0  0  0  0  0  0  0  0  0  0  0  0
  139.4410   73.9640  223.2140 H   0  0  0  0  0  0  0  0  0  0  0  0
  139.3338   69.9652  222.3134 H   0  0  0  0  0  0  0  0  0  0  0  0
  138.9687   68.4405  224.2391 H   0  0  0  0  0  0  0  0  0  0  0  0
  139.2286   68.0348  226.6167 H   0  0  0  0  0  0  0  0  0  0  0  0
  141.1296   71.0166  229.0752 H   0  0  0  0  0  0  0  0  0  0  0  0
  141.4592   72.4757  227.1094 H   0  0  0  0  0  0  0  0  0  0  0  0
  1  2  1  0
  2  3  1  0
  2  4  1  0
  4  5  2  0
  4  6  1  0
  6  7  1  0
  7  8  1  0
  8  9  2  0
  8 10  1  0
 10 11  1  0
 11 12  1  0
 12 13  2  0
 12 14  1  0
 14 15  2  0
 15 16  1  0
 16 17  2  0
 17 18  1  0
 18 19  2  0
 19 20  1  0
 19 21  1  0
 21 22  2  0
 22 23  1  0
 23 24  2  0
 24 14  1  0
 23 17  1  0
  1 25  1  0
  1 26  1  0
  1 27  1  0
  3 28  1  0
  3 29  1  0
  3 30  1  0
  6 31  1  0
  6 32  1  0
  7 33  1  0
 10 34  1  0
 10 35  1  0
 11 36  1  0
 15 37  1  0
 16 38  1  0
 18 39  1  0
 21 40  1  0
 22 41  1  0
M  END
>  <smiles>  (30) 
CN(C)C(=O)CNC(=O)CNC(=O)c1ccc2cc(F)ccc2n1

>  <score_type>  (30) 
oracle

>  <origin>  (30) 
autodockgpu

>  <m_score__min__energy>  (30) 
-7.7199999999999998

>  <m_primary>  (30) 
energy

>  <rmsd>  (30) 
5.541206658157609

>  <m_score__min__rmsd>  (30) 
5.541206658157609

>  <meeko>  (30) 
{"free_energy": -7.19, "intermolecular_energy": -8.68, "internal_energy": -1.45, "cluster_size": 49, "cluster_id": 1, "rank_in_cluster": 11}

>  <energy>  (30) 
-6.46

>  <cluster_rmsd>  (30) 
1.66

>  <cluster>  (30) 
1

$$$$

     RDKit          3D

 41 42  0  0  0  0  0  0  0  0999 V2000
  142.2540   79.4700  222.6540 C   0  0  0  0  0  0  0  0  0  0  0  0
  140.8400   79.3900  222.9620 N   0  0  0  0  0  0  0  0  0  0  0  0
  140.2140   80.6230  223.4350 C   0  0  0  0  0  0  0  0  0  0  0  0
  140.0890   78.1780  222.8150 C   0  0  0  0  0  0  0  0  0  0  0  0
  138.8790   78.2070  223.1040 O   0  0  0  0  0  0  0  0  0  0  0  0
  140.8170   76.9850  222.3270 C   0  0  0  0  0  0  0  0  0  0  0  0
  139.9230   75.8460  222.4090 N   0  0  0  0  0  0  0  0  0  0  0  0
  140.1650   74.7250  221.5780 C   0  0  0  0  0  0  0  0  0  0  0  0
  141.1610   74.7520  220.7780 O   0  0  0  0  0  0  0  0  0  0  0  0
  139.3450   73.4980  221.5530 C   0  0  0  0  0  0  0  0  0  0  0  0
  139.5390   72.6400  222.6880 N   0  0  0  0  0  0  0  0  0  0  0  0
  139.2260   71.2520  222.6560 C   0  0  0  0  0  0  0  0  0  0  0  0
  138.7460   70.6870  221.6160 O   0  0  0  0  0  0  0  0  0  0  0  0
  139.4610   70.4290  223.8600 C   0  0  0  0  0  0  0  0  0  0  0  0
  139.0960   69.1020  223.8700 C   0  0  0  0  0  0  0  0  0  0  0  0
  139.3000   68.3020  224.9760 C   0  0  0  0  0  0  0  0  0  0  0  0
  139.8900   68.8790  226.0980 C   0  0  0  0  0  0  0  0  0  0  0  0
  140.1150   68.1310  227.2230 C   0  0  0  0  0  0  0  0  0  0  0  0
  140.7090   68.7240  228.3420 C   0  0  0  0  0  0  0  0  0  0  0  0
  140.9480   68.0130  229.4740 F   0  0  0  0  0  0  0  0  0  0  0  0
  141.0560   70.0690  228.2750 C   0  0  0  0  0  0  0  0  0  0  0  0
  140.8360   70.8300  227.1500 C   0  0  0  0  0  0  0  0  0  0  0  0
  140.2500   70.2280  226.0610 C   0  0  0  0  0  0  0  0  0  0  0  0
  140.0330   70.9820  224.9530 N   0  0  0  0  0  0  0  0  0  0  0  0
  142.8317   79.5027  223.5895 H   0  0  0  0  0  0  0  0  0  0  0  0
  142.5524   78.5873  222.0694 H   0  0  0  0  0  0  0  0  0  0  0  0
  142.4510   80.3807  222.0694 H   0  0  0  0  0  0  0  0  0  0  0  0
  140.2089   80.6331  224.5349 H   0  0  0  0  0  0  0  0  0  0  0  0
  140.7818   81.4886  223.0630 H   0  0  0  0  0  0  0  0  0  0  0  0
  139.1801   80.6754  223.0630 H   0  0  0  0  0  0  0  0  0  0  0  0
  141.1289   77.1397  221.2835 H   0  0  0  0  0  0  0  0  0  0  0  0
  141.7142   76.8097  222.9388 H   0  0  0  0  0  0  0  0  0  0  0  0
  139.1140   75.8690  223.0620 H   0  0  0  0  0  0  0  0  0  0  0  0
  138.2854   73.7913  221.5188 H   0  0  0  0  0  0  0  0  0  0  0  0
  139.6564   72.9264  220.6663 H   0  0  0  0  0  0  0  0  0  0  0  0
  139.9250   73.0060  223.5990 H   0  0  0  0  0  0  0  0  0  0  0  0
  138.6296   68.6678  222.9733 H   0  0  0  0  0  0  0  0  0  0  0  0
  139.0059   67.2421  224.9715 H   0  0  0  0  0  0  0  0  0  0  0  0
  139.8299   67.0688  227.2465 H   0  0  0  0  0  0  0  0  0  0  0  0
  141.5227   70.5410  229.1521 H   0  0  0  0  0  0  0  0  0  0  0  0
  141.1213   71.8920  227.1223 H   0  0  0  0  0  0  0  0  0  0  0  0
  1  2  1  0
  2  3  1  0
  2  4  1  0
  4  5  2  0
  4  6  1  0
  6  7  1  0
  7  8  1  0
  8  9  2  0
  8 10  1  0
 10 11  1  0
 11 12  1  0
 12 13  2  0
 12 14  1  0
 14 15  2  0
 15 16  1  0
 16 17  2  0
 17 18  1  0
 18 19  2  0
 19 20  1  0
 19 21  1  0
 21 22  2  0
 22 23  1  0
 23 24  2  0
 24 14  1  0
 23 17  1  0
  1 25  1  0
  1 26  1  0
  1 27  1  0
  3 28  1  0
  3 29  1  0
  3 30  1  0
  6 31  1  0
  6 32  1  0
  7 33  1  0
 10 34  1  0
 10 35  1  0
 11 36  1  0
 15 37  1  0
 16 38  1  0
 18 39  1  0
 21 40  1  0
 22 41  1  0
M  END
>  <smiles>  (31) 
CN(C)C(=O)CNC(=O)CNC(=O)c1ccc2cc(F)ccc2n1

>  <score_type>  (31) 
oracle

>  <origin>  (31) 
autodockgpu

>  <m_score__min__energy>  (31) 
-7.7199999999999998

>  <m_primary>  (31) 
energy

>  <rmsd>  (31) 
4.820580920149239

>  <m_score__min__rmsd>  (31) 
4.820580920149239

>  <meeko>  (31) 
{"free_energy": -6.53, "intermolecular_energy": -8.02, "internal_energy": -1.6, "cluster_size": 49, "cluster_id": 1, "rank_in_cluster": 24}

>  <energy>  (31) 
-6.46

>  <cluster_rmsd>  (31) 
1.65

>  <cluster>  (31) 
1

$$$$

     RDKit          3D

 41 42  0  0  0  0  0  0  0  0999 V2000
  141.9730   79.2740  222.6380 C   0  0  0  0  0  0  0  0  0  0  0  0
  140.6920   78.6440  222.8860 N   0  0  0  0  0  0  0  0  0  0  0  0
  139.7540   79.3980  223.7170 C   0  0  0  0  0  0  0  0  0  0  0  0
  140.3510   77.3570  222.3530 C   0  0  0  0  0  0  0  0  0  0  0  0
  139.2260   76.8980  222.6210 O   0  0  0  0  0  0  0  0  0  0  0  0
  141.3700   76.6780  221.5230 C   0  0  0  0  0  0  0  0  0  0  0  0
  140.9140   75.3260  221.2650 N   0  0  0  0  0  0  0  0  0  0  0  0
  141.7590   74.4430  220.5510 C   0  0  0  0  0  0  0  0  0  0  0  0
  142.8970   74.8640  220.1510 O   0  0  0  0  0  0  0  0  0  0  0  0
  141.4310   73.0430  220.2180 C   0  0  0  0  0  0  0  0  0  0  0  0
  141.2710   72.1890  221.3610 N   0  0  0  0  0  0  0  0  0  0  0  0
  140.3180   72.4540  222.3840 C   0  0  0  0  0  0  0  0  0  0  0  0
  139.5500   73.4750  222.3500 O   0  0  0  0  0  0  0  0  0  0  0  0
  140.2040   71.5260  223.5260 C   0  0  0  0  0  0  0  0  0  0  0  0
  139.6190   70.2920  223.3570 C   0  0  0  0  0  0  0  0  0  0  0  0
  139.4950   69.3970  224.4010 C   0  0  0  0  0  0  0  0  0  0  0  0
  139.9820   69.7820  225.6490 C   0  0  0  0  0  0  0  0  0  0  0  0
  139.8850   68.9330  226.7200 C   0  0  0  0  0  0  0  0  0  0  0  0
  140.3780   69.3320  227.9670 C   0  0  0  0  0  0  0  0  0  0  0  0
  140.2990   68.5170  229.0500 F   0  0  0  0  0  0  0  0  0  0  0  0
  140.9590   70.5910  228.0790 C   0  0  0  0  0  0  0  0  0  0  0  0
  141.0630   71.4510  227.0100 C   0  0  0  0  0  0  0  0  0  0  0  0
  140.5700   71.0390  225.7930 C   0  0  0  0  0  0  0  0  0  0  0  0
  140.6740   71.8910  224.7410 N   0  0  0  0  0  0  0  0  0  0  0  0
  142.4565   79.5118  223.5970 H   0  0  0  0  0  0  0  0  0  0  0  0
  142.6139   78.5883  222.0643 H   0  0  0  0  0  0  0  0  0  0  0  0
  141.8212   80.2002  222.0643 H   0  0  0  0  0  0  0  0  0  0  0  0
  139.9781   79.2178  224.7787 H   0  0  0  0  0  0  0  0  0  0  0  0
  139.8519   80.4717  223.4986 H   0  0  0  0  0  0  0  0  0  0  0  0
  138.7265   79.0716  223.4986 H   0  0  0  0  0  0  0  0  0  0  0  0
  141.4956   77.2168  220.5722 H   0  0  0  0  0  0  0  0  0  0  0  0
  142.3373   76.6602  222.0465 H   0  0  0  0  0  0  0  0  0  0  0  0
  139.9740   75.0260  221.5940 H   0  0  0  0  0  0  0  0  0  0  0  0
  140.4908   73.0352  219.6471 H   0  0  0  0  0  0  0  0  0  0  0  0
  142.2813   72.6468  219.6435 H   0  0  0  0  0  0  0  0  0  0  0  0
  141.8590   71.3220  221.4910 H   0  0  0  0  0  0  0  0  0  0  0  0
  139.2399   70.0110  222.3633 H   0  0  0  0  0  0  0  0  0  0  0  0
  139.0273   68.4125  224.2527 H   0  0  0  0  0  0  0  0  0  0  0  0
  139.4218   67.9425  226.6000 H   0  0  0  0  0  0  0  0  0  0  0  0
  141.3490   70.9103  229.0567 H   0  0  0  0  0  0  0  0  0  0  0  0
  141.5278   72.4413  227.1251 H   0  0  0  0  0  0  0  0  0  0  0  0
  1  2  1  0
  2  3  1  0
  2  4  1  0
  4  5  2  0
  4  6  1  0
  6  7  1  0
  7  8  1  0
  8  9  2  0
  8 10  1  0
 10 11  1  0
 11 12  1  0
 12 13  2  0
 12 14  1  0
 14 15  2  0
 15 16  1  0
 16 17  2  0
 17 18  1  0
 18 19  2  0
 19 20  1  0
 19 21  1  0
 21 22  2  0
 22 23  1  0
 23 24  2  0
 24 14  1  0
 23 17  1  0
  1 25  1  0
  1 26  1  0
  1 27  1  0
  3 28  1  0
  3 29  1  0
  3 30  1  0
  6 31  1  0
  6 32  1  0
  7 33  1  0
 10 34  1  0
 10 35  1  0
 11 36  1  0
 15 37  1  0
 16 38  1  0
 18 39  1  0
 21 40  1  0
 22 41  1  0
M  END
>  <smiles>  (32) 
CN(C)C(=O)CNC(=O)CNC(=O)c1ccc2cc(F)ccc2n1

>  <score_type>  (32) 
oracle

>  <origin>  (32) 
autodockgpu

>  <m_score__min__energy>  (32) 
-7.7199999999999998

>  <m_primary>  (32) 
energy

>  <rmsd>  (32) 
4.892010526760525

>  <m_score__min__rmsd>  (32) 
4.892010526760525

>  <meeko>  (32) 
{"free_energy": -6.41, "intermolecular_energy": -7.9, "internal_energy": -2.07, "cluster_size": 49, "cluster_id": 1, "rank_in_cluster": 34}

>  <energy>  (32) 
-6.46

>  <cluster_rmsd>  (32) 
1.66

>  <cluster>  (32) 
1

$$$$

     RDKit          3D

 41 42  0  0  0  0  0  0  0  0999 V2000
  139.7210   80.8900  223.4910 C   0  0  0  0  0  0  0  0  0  0  0  0
  141.0850   80.4380  223.3080 N   0  0  0  0  0  0  0  0  0  0  0  0
  142.1310   81.3270  223.8110 C   0  0  0  0  0  0  0  0  0  0  0  0
  141.4040   79.1930  222.6710 C   0  0  0  0  0  0  0  0  0  0  0  0
  142.6060   78.8900  222.5600 O   0  0  0  0  0  0  0  0  0  0  0  0
  140.2720   78.3660  222.1980 C   0  0  0  0  0  0  0  0  0  0  0  0
  140.7700   77.0300  221.9310 N   0  0  0  0  0  0  0  0  0  0  0  0
  139.8520   76.0210  221.5520 C   0  0  0  0  0  0  0  0  0  0  0  0
  138.6120   76.3160  221.4610 O   0  0  0  0  0  0  0  0  0  0  0  0
  140.2110   74.6230  221.2470 C   0  0  0  0  0  0  0  0  0  0  0  0
  140.0120   73.7130  222.3400 N   0  0  0  0  0  0  0  0  0  0  0  0
  140.5490   72.3960  222.3430 C   0  0  0  0  0  0  0  0  0  0  0  0
  141.2360   71.9390  221.3680 O   0  0  0  0  0  0  0  0  0  0  0  0
  140.3100   71.5180  223.5070 C   0  0  0  0  0  0  0  0  0  0  0  0
  139.6160   70.3400  223.3520 C   0  0  0  0  0  0  0  0  0  0  0  0
  139.3740   69.4950  224.4160 C   0  0  0  0  0  0  0  0  0  0  0  0
  139.8540   69.8710  225.6690 C   0  0  0  0  0  0  0  0  0  0  0  0
  139.6420   69.0700  226.7600 C   0  0  0  0  0  0  0  0  0  0  0  0
  140.1300   69.4600  228.0110 C   0  0  0  0  0  0  0  0  0  0  0  0
  139.9390   68.6910  229.1130 F   0  0  0  0  0  0  0  0  0  0  0  0
  140.8240   70.6610  228.1080 C   0  0  0  0  0  0  0  0  0  0  0  0
  141.0430   71.4730  227.0200 C   0  0  0  0  0  0  0  0  0  0  0  0
  140.5540   71.0720  225.7980 C   0  0  0  0  0  0  0  0  0  0  0  0
  140.7720   71.8760  224.7270 N   0  0  0  0  0  0  0  0  0  0  0  0
  139.5001   80.9632  224.5661 H   0  0  0  0  0  0  0  0  0  0  0  0
  139.5961   81.8776  223.0229 H   0  0  0  0  0  0  0  0  0  0  0  0
  139.0310   80.1725  223.0229 H   0  0  0  0  0  0  0  0  0  0  0  0
  142.1214   81.3189  224.9109 H   0  0  0  0  0  0  0  0  0  0  0  0
  143.1109   80.9811  223.4503 H   0  0  0  0  0  0  0  0  0  0  0  0
  141.9476   82.3499  223.4503 H   0  0  0  0  0  0  0  0  0  0  0  0
  139.4913   78.3251  222.9719 H   0  0  0  0  0  0  0  0  0  0  0  0
  139.8383   78.8003  221.2852 H   0  0  0  0  0  0  0  0  0  0  0  0
  141.7850   76.8270  222.0310 H   0  0  0  0  0  0  0  0  0  0  0  0
  139.5952   74.2854  220.4004 H   0  0  0  0  0  0  0  0  0  0  0  0
  141.2874   74.6149  221.0205 H   0  0  0  0  0  0  0  0  0  0  0  0
  139.4550   73.9870  223.1930 H   0  0  0  0  0  0  0  0  0  0  0  0
  139.2444   70.0646  222.3540 H   0  0  0  0  0  0  0  0  0  0  0  0
  138.8198   68.5547  224.2793 H   0  0  0  0  0  0  0  0  0  0  0  0
  139.0904   68.1244  226.6524 H   0  0  0  0  0  0  0  0  0  0  0  0
  141.2114   70.9725  229.0893 H   0  0  0  0  0  0  0  0  0  0  0  0
  141.5949   72.4188  227.1240 H   0  0  0  0  0  0  0  0  0  0  0  0
  1  2  1  0
  2  3  1  0
  2  4  1  0
  4  5  2  0
  4  6  1  0
  6  7  1  0
  7  8  1  0
  8  9  2  0
  8 10  1  0
 10 11  1  0
 11 12  1  0
 12 13  2  0
 12 14  1  0
 14 15  2  0
 15 16  1  0
 16 17  2  0
 17 18  1  0
 18 19  2  0
 19 20  1  0
 19 21  1  0
 21 22  2  0
 22 23  1  0
 23 24  2  0
 24 14  1  0
 23 17  1  0
  1 25  1  0
  1 26  1  0
  1 27  1  0
  3 28  1  0
  3 29  1  0
  3 30  1  0
  6 31  1  0
  6 32  1  0
  7 33  1  0
 10 34  1  0
 10 35  1  0
 11 36  1  0
 15 37  1  0
 16 38  1  0
 18 39  1  0
 21 40  1  0
 22 41  1  0
M  END
>  <smiles>  (33) 
CN(C)C(=O)CNC(=O)CNC(=O)c1ccc2cc(F)ccc2n1

>  <score_type>  (33) 
oracle

>  <origin>  (33) 
autodockgpu

>  <m_score__min__energy>  (33) 
-7.7199999999999998

>  <m_primary>  (33) 
energy

>  <rmsd>  (33) 
5.555838883920013

>  <m_score__min__rmsd>  (33) 
5.555838883920013

>  <meeko>  (33) 
{"free_energy": -7.23, "intermolecular_energy": -8.72, "internal_energy": -1.42, "cluster_size": 49, "cluster_id": 1, "rank_in_cluster": 10}

>  <energy>  (33) 
-6.45

>  <cluster_rmsd>  (33) 
1.65

>  <cluster>  (33) 
1

$$$$

     RDKit          3D

 41 42  0  0  0  0  0  0  0  0999 V2000
  137.8070   78.6720  222.3230 C   0  0  0  0  0  0  0  0  0  0  0  0
  139.0640   77.9930  222.5710 N   0  0  0  0  0  0  0  0  0  0  0  0
  140.1780   78.8370  222.9980 C   0  0  0  0  0  0  0  0  0  0  0  0
  139.2180   76.5770  222.4090 C   0  0  0  0  0  0  0  0  0  0  0  0
  140.3360   76.0840  222.6450 O   0  0  0  0  0  0  0  0  0  0  0  0
  138.0280   75.8130  221.9730 C   0  0  0  0  0  0  0  0  0  0  0  0
  138.3430   74.4000  222.0590 N   0  0  0  0  0  0  0  0  0  0  0  0
  137.6760   73.4970  221.1950 C   0  0  0  0  0  0  0  0  0  0  0  0
  136.8140   73.9530  220.3700 O   0  0  0  0  0  0  0  0  0  0  0  0
  137.8950   72.0380  221.1670 C   0  0  0  0  0  0  0  0  0  0  0  0
  138.3410   71.4850  222.4150 N   0  0  0  0  0  0  0  0  0  0  0  0
  139.5670   71.8710  223.0240 C   0  0  0  0  0  0  0  0  0  0  0  0
  140.3510   72.7290  222.4930 O   0  0  0  0  0  0  0  0  0  0  0  0
  139.9560   71.2670  224.3150 C   0  0  0  0  0  0  0  0  0  0  0  0
  140.8640   71.9040  225.1290 C   0  0  0  0  0  0  0  0  0  0  0  0
  141.2520   71.3690  226.3420 C   0  0  0  0  0  0  0  0  0  0  0  0
  140.6940   70.1510  226.7240 C   0  0  0  0  0  0  0  0  0  0  0  0
  141.0430   69.5750  227.9180 C   0  0  0  0  0  0  0  0  0  0  0  0
  140.4750   68.3530  228.2890 C   0  0  0  0  0  0  0  0  0  0  0  0
  140.7970   67.7540  229.4640 F   0  0  0  0  0  0  0  0  0  0  0  0
  139.5630   67.7550  227.4260 C   0  0  0  0  0  0  0  0  0  0  0  0
  139.2040   68.3240  226.2260 C   0  0  0  0  0  0  0  0  0  0  0  0
  139.7750   69.5260  225.8790 C   0  0  0  0  0  0  0  0  0  0  0  0
  139.4190   70.0840  224.6940 N   0  0  0  0  0  0  0  0  0  0  0  0
  137.3331   78.9280  223.2821 H   0  0  0  0  0  0  0  0  0  0  0  0
  137.9940   79.5918  221.7494 H   0  0  0  0  0  0  0  0  0  0  0  0
  137.1403   78.0113  221.7494 H   0  0  0  0  0  0  0  0  0  0  0  0
  140.2160   78.8658  224.0970 H   0  0  0  0  0  0  0  0  0  0  0  0
  141.1206   78.4244  222.6092 H   0  0  0  0  0  0  0  0  0  0  0  0
  140.0359   79.8561  222.6092 H   0  0  0  0  0  0  0  0  0  0  0  0
  137.1753   76.0454  222.6279 H   0  0  0  0  0  0  0  0  0  0  0  0
  137.7602   76.0815  220.9404 H   0  0  0  0  0  0  0  0  0  0  0  0
  139.0400   74.0660  222.7550 H   0  0  0  0  0  0  0  0  0  0  0  0
  136.9467   71.5521  220.8938 H   0  0  0  0  0  0  0  0  0  0  0  0
  138.6954   71.8528  220.4355 H   0  0  0  0  0  0  0  0  0  0  0  0
  137.7720   70.7650  222.9350 H   0  0  0  0  0  0  0  0  0  0  0  0
  141.2921   72.8642  224.8055 H   0  0  0  0  0  0  0  0  0  0  0  0
  141.9779   71.8878  226.9853 H   0  0  0  0  0  0  0  0  0  0  0  0
  141.7665   70.0721  228.5809 H   0  0  0  0  0  0  0  0  0  0  0  0
  139.1129   66.7932  227.7130 H   0  0  0  0  0  0  0  0  0  0  0  0
  138.4794   67.8305  225.5616 H   0  0  0  0  0  0  0  0  0  0  0  0
  1  2  1  0
  2  3  1  0
  2  4  1  0
  4  5  2  0
  4  6  1  0
  6  7  1  0
  7  8  1  0
  8  9  2  0
  8 10  1  0
 10 11  1  0
 11 12  1  0
 12 13  2  0
 12 14  1  0
 14 15  2  0
 15 16  1  0
 16 17  2  0
 17 18  1  0
 18 19  2  0
 19 20  1  0
 19 21  1  0
 21 22  2  0
 22 23  1  0
 23 24  2  0
 24 14  1  0
 23 17  1  0
  1 25  1  0
  1 26  1  0
  1 27  1  0
  3 28  1  0
  3 29  1  0
  3 30  1  0
  6 31  1  0
  6 32  1  0
  7 33  1  0
 10 34  1  0
 10 35  1  0
 11 36  1  0
 15 37  1  0
 16 38  1  0
 18 39  1  0
 21 40  1  0
 22 41  1  0
M  END
>  <smiles>  (34) 
CN(C)C(=O)CNC(=O)CNC(=O)c1ccc2cc(F)ccc2n1

>  <score_type>  (34) 
oracle

>  <origin>  (34) 
autodockgpu

>  <m_score__min__energy>  (34) 
-7.7199999999999998

>  <m_primary>  (34) 
energy

>  <rmsd>  (34) 
3.5433581493870476

>  <m_score__min__rmsd>  (34) 
3.5433581493870476

>  <meeko>  (34) 
{"free_energy": -6.13, "intermolecular_energy": -7.62, "internal_energy": -2.24, "cluster_size": 49, "cluster_id": 1, "rank_in_cluster": 46}

>  <energy>  (34) 
-6.41

>  <cluster_rmsd>  (34) 
1.64

>  <cluster>  (34) 
1

$$$$

     RDKit          3D

 41 42  0  0  0  0  0  0  0  0999 V2000
  139.4670   79.3770  223.4850 C   0  0  0  0  0  0  0  0  0  0  0  0
  140.4900   78.5440  222.8850 N   0  0  0  0  0  0  0  0  0  0  0  0
  141.8240   79.1330  222.7860 C   0  0  0  0  0  0  0  0  0  0  0  0
  140.2210   77.2170  222.4120 C   0  0  0  0  0  0  0  0  0  0  0  0
  141.1640   76.5780  221.9120 O   0  0  0  0  0  0  0  0  0  0  0  0
  138.8370   76.7140  222.5600 C   0  0  0  0  0  0  0  0  0  0  0  0
  138.8500   75.2830  222.3210 N   0  0  0  0  0  0  0  0  0  0  0  0
  138.4350   74.7970  221.0570 C   0  0  0  0  0  0  0  0  0  0  0  0
  138.0580   75.6330  220.1670 O   0  0  0  0  0  0  0  0  0  0  0  0
  138.3980   73.3740  220.6690 C   0  0  0  0  0  0  0  0  0  0  0  0
  138.5500   72.4620  221.7670 N   0  0  0  0  0  0  0  0  0  0  0  0
  139.7060   72.4530  222.5970 C   0  0  0  0  0  0  0  0  0  0  0  0
  140.6840   73.2540  222.4100 O   0  0  0  0  0  0  0  0  0  0  0  0
  139.7890   71.4910  223.7150 C   0  0  0  0  0  0  0  0  0  0  0  0
  139.3010   70.2140  223.5630 C   0  0  0  0  0  0  0  0  0  0  0  0
  139.3610   69.2870  224.5850 C   0  0  0  0  0  0  0  0  0  0  0  0
  139.9340   69.6850  225.7910 C   0  0  0  0  0  0  0  0  0  0  0  0
  140.0200   68.8060  226.8390 C   0  0  0  0  0  0  0  0  0  0  0  0
  140.5980   69.2180  228.0430 C   0  0  0  0  0  0  0  0  0  0  0  0
  140.7000   68.3740  229.1020 F   0  0  0  0  0  0  0  0  0  0  0  0
  141.0740   70.5220  228.1390 C   0  0  0  0  0  0  0  0  0  0  0  0
  140.9950   71.4120  227.0940 C   0  0  0  0  0  0  0  0  0  0  0  0
  140.4210   70.9870  225.9180 C   0  0  0  0  0  0  0  0  0  0  0  0
  140.3440   71.8690  224.8890 N   0  0  0  0  0  0  0  0  0  0  0  0
  139.5411   79.3166  224.5808 H   0  0  0  0  0  0  0  0  0  0  0  0
  139.6088   80.4198  223.1648 H   0  0  0  0  0  0  0  0  0  0  0  0
  138.4746   79.0268  223.1648 H   0  0  0  0  0  0  0  0  0  0  0  0
  142.2229   79.3091  223.7959 H   0  0  0  0  0  0  0  0  0  0  0  0
  142.4893   78.4450  222.2438 H   0  0  0  0  0  0  0  0  0  0  0  0
  141.7638   80.0882  222.2438 H   0  0  0  0  0  0  0  0  0  0  0  0
  138.4725   76.9189  223.5774 H   0  0  0  0  0  0  0  0  0  0  0  0
  138.1706   77.2144  221.8420 H   0  0  0  0  0  0  0  0  0  0  0  0
  139.1490   74.6350  223.0770 H   0  0  0  0  0  0  0  0  0  0  0  0
  137.4309   73.1732  220.1848 H   0  0  0  0  0  0  0  0  0  0  0  0
  139.2529   73.2065  219.9974 H   0  0  0  0  0  0  0  0  0  0  0  0
  137.8050   71.7550  222.0060 H   0  0  0  0  0  0  0  0  0  0  0  0
  138.8511   69.9234  222.6022 H   0  0  0  0  0  0  0  0  0  0  0  0
  138.9692   68.2679  224.4512 H   0  0  0  0  0  0  0  0  0  0  0  0
  139.6358   67.7807  226.7330 H   0  0  0  0  0  0  0  0  0  0  0  0
  141.5295   70.8524  229.0842 H   0  0  0  0  0  0  0  0  0  0  0  0
  141.3807   72.4372  227.1955 H   0  0  0  0  0  0  0  0  0  0  0  0
  1  2  1  0
  2  3  1  0
  2  4  1  0
  4  5  2  0
  4  6  1  0
  6  7  1  0
  7  8  1  0
  8  9  2  0
  8 10  1  0
 10 11  1  0
 11 12  1  0
 12 13  2  0
 12 14  1  0
 14 15  2  0
 15 16  1  0
 16 17  2  0
 17 18  1  0
 18 19  2  0
 19 20  1  0
 19 21  1  0
 21 22  2  0
 22 23  1  0
 23 24  2  0
 24 14  1  0
 23 17  1  0
  1 25  1  0
  1 26  1  0
  1 27  1  0
  3 28  1  0
  3 29  1  0
  3 30  1  0
  6 31  1  0
  6 32  1  0
  7 33  1  0
 10 34  1  0
 10 35  1  0
 11 36  1  0
 15 37  1  0
 16 38  1  0
 18 39  1  0
 21 40  1  0
 22 41  1  0
M  END
>  <smiles>  (35) 
CN(C)C(=O)CNC(=O)CNC(=O)c1ccc2cc(F)ccc2n1

>  <score_type>  (35) 
oracle

>  <origin>  (35) 
autodockgpu

>  <m_score__min__energy>  (35) 
-7.7199999999999998

>  <m_primary>  (35) 
energy

>  <rmsd>  (35) 
4.624072502922102

>  <m_score__min__rmsd>  (35) 
4.624072502922102

>  <meeko>  (35) 
{"free_energy": -6.76, "intermolecular_energy": -8.25, "internal_energy": -1.63, "cluster_size": 49, "cluster_id": 1, "rank_in_cluster": 16}

>  <energy>  (35) 
-6.4

>  <cluster_rmsd>  (35) 
1.64

>  <cluster>  (35) 
1

$$$$

     RDKit          3D

 41 42  0  0  0  0  0  0  0  0999 V2000
  139.4710   79.3290  223.4630 C   0  0  0  0  0  0  0  0  0  0  0  0
  140.5850   78.5630  222.9410 N   0  0  0  0  0  0  0  0  0  0  0  0
  141.9000   79.1970  223.0270 C   0  0  0  0  0  0  0  0  0  0  0  0
  140.4200   77.2580  222.3700 C   0  0  0  0  0  0  0  0  0  0  0  0
  141.4370   76.6770  221.9480 O   0  0  0  0  0  0  0  0  0  0  0  0
  139.0480   76.7050  222.3310 C   0  0  0  0  0  0  0  0  0  0  0  0
  139.1290   75.3300  221.8780 N   0  0  0  0  0  0  0  0  0  0  0  0
  137.9310   74.5940  221.7080 C   0  0  0  0  0  0  0  0  0  0  0  0
  136.8150   75.1620  221.9630 O   0  0  0  0  0  0  0  0  0  0  0  0
  137.8580   73.1920  221.2530 C   0  0  0  0  0  0  0  0  0  0  0  0
  138.1480   72.2260  222.2740 N   0  0  0  0  0  0  0  0  0  0  0  0
  139.4050   72.1710  222.9370 C   0  0  0  0  0  0  0  0  0  0  0  0
  140.3580   72.9760  222.6570 O   0  0  0  0  0  0  0  0  0  0  0  0
  139.6290   71.1550  223.9850 C   0  0  0  0  0  0  0  0  0  0  0  0
  139.3110   69.8370  223.7470 C   0  0  0  0  0  0  0  0  0  0  0  0
  139.5060   68.8590  224.7020 C   0  0  0  0  0  0  0  0  0  0  0  0
  140.0380   69.2460  225.9300 C   0  0  0  0  0  0  0  0  0  0  0  0
  140.2520   68.3170  226.9140 C   0  0  0  0  0  0  0  0  0  0  0  0
  140.7870   68.7190  228.1420 C   0  0  0  0  0  0  0  0  0  0  0  0
  141.0130   67.8260  229.1390 F   0  0  0  0  0  0  0  0  0  0  0  0
  141.0880   70.0640  228.3260 C   0  0  0  0  0  0  0  0  0  0  0  0
  140.8790   71.0060  227.3460 C   0  0  0  0  0  0  0  0  0  0  0  0
  140.3510   70.5890  226.1450 C   0  0  0  0  0  0  0  0  0  0  0  0
  140.1450   71.5210  225.1800 N   0  0  0  0  0  0  0  0  0  0  0  0
  139.4970   79.3112  224.5625 H   0  0  0  0  0  0  0  0  0  0  0  0
  139.5441   80.3687  223.1113 H   0  0  0  0  0  0  0  0  0  0  0  0
  138.5264   78.8886  223.1113 H   0  0  0  0  0  0  0  0  0  0  0  0
  142.1748   79.3295  224.0839 H   0  0  0  0  0  0  0  0  0  0  0  0
  142.6472   78.5602  222.5309 H   0  0  0  0  0  0  0  0  0  0  0  0
  141.8671   80.1782  222.5309 H   0  0  0  0  0  0  0  0  0  0  0  0
  138.6029   76.7407  223.3363 H   0  0  0  0  0  0  0  0  0  0  0  0
  138.4188   77.2947  221.6481 H   0  0  0  0  0  0  0  0  0  0  0  0
  140.0580   74.8990  221.6960 H   0  0  0  0  0  0  0  0  0  0  0  0
  136.8410   73.0034  220.8786 H   0  0  0  0  0  0  0  0  0  0  0  0
  138.6275   73.0714  220.4763 H   0  0  0  0  0  0  0  0  0  0  0  0
  137.4330   71.5120  222.5780 H   0  0  0  0  0  0  0  0  0  0  0  0
  138.8905   69.5555  222.7703 H   0  0  0  0  0  0  0  0  0  0  0  0
  139.2496   67.8086  224.4998 H   0  0  0  0  0  0  0  0  0  0  0  0
  140.0041   67.2597  226.7389 H   0  0  0  0  0  0  0  0  0  0  0  0
  141.5084   70.3862  229.2901 H   0  0  0  0  0  0  0  0  0  0  0  0
  141.1270   72.0639  227.5172 H   0  0  0  0  0  0  0  0  0  0  0  0
  1  2  1  0
  2  3  1  0
  2  4  1  0
  4  5  2  0
  4  6  1  0
  6  7  1  0
  7  8  1  0
  8  9  2  0
  8 10  1  0
 10 11  1  0
 11 12  1  0
 12 13  2  0
 12 14  1  0
 14 15  2  0
 15 16  1  0
 16 17  2  0
 17 18  1  0
 18 19  2  0
 19 20  1  0
 19 21  1  0
 21 22  2  0
 22 23  1  0
 23 24  2  0
 24 14  1  0
 23 17  1  0
  1 25  1  0
  1 26  1  0
  1 27  1  0
  3 28  1  0
  3 29  1  0
  3 30  1  0
  6 31  1  0
  6 32  1  0
  7 33  1  0
 10 34  1  0
 10 35  1  0
 11 36  1  0
 15 37  1  0
 16 38  1  0
 18 39  1  0
 21 40  1  0
 22 41  1  0
M  END
>  <smiles>  (36) 
CN(C)C(=O)CNC(=O)CNC(=O)c1ccc2cc(F)ccc2n1

>  <score_type>  (36) 
oracle

>  <origin>  (36) 
autodockgpu

>  <m_score__min__energy>  (36) 
-7.7199999999999998

>  <m_primary>  (36) 
energy

>  <rmsd>  (36) 
4.587271929703669

>  <m_score__min__rmsd>  (36) 
4.587271929703669

>  <meeko>  (36) 
{"free_energy": -6.2, "intermolecular_energy": -7.69, "internal_energy": -2.1, "cluster_size": 49, "cluster_id": 1, "rank_in_cluster": 42}

>  <energy>  (36) 
-6.38

>  <cluster_rmsd>  (36) 
1.61

>  <cluster>  (36) 
1

$$$$

     RDKit          3D

 41 42  0  0  0  0  0  0  0  0999 V2000
  141.2500   79.5570  222.8620 C   0  0  0  0  0  0  0  0  0  0  0  0
  140.0230   78.8000  223.0080 N   0  0  0  0  0  0  0  0  0  0  0  0
  138.9120   79.4930  223.6590 C   0  0  0  0  0  0  0  0  0  0  0  0
  139.8930   77.4490  222.5450 C   0  0  0  0  0  0  0  0  0  0  0  0
  138.7990   76.8800  222.7150 O   0  0  0  0  0  0  0  0  0  0  0  0
  141.0770   76.8390  221.8990 C   0  0  0  0  0  0  0  0  0  0  0  0
  140.7660   75.4530  221.6060 N   0  0  0  0  0  0  0  0  0  0  0  0
  141.6970   74.6860  220.8650 C   0  0  0  0  0  0  0  0  0  0  0  0
  142.7800   75.2380  220.4720 O   0  0  0  0  0  0  0  0  0  0  0  0
  141.5200   73.2680  220.4960 C   0  0  0  0  0  0  0  0  0  0  0  0
  141.3650   72.3840  221.6160 N   0  0  0  0  0  0  0  0  0  0  0  0
  140.2840   72.4980  222.5340 C   0  0  0  0  0  0  0  0  0  0  0  0
  139.3880   73.4020  222.4210 O   0  0  0  0  0  0  0  0  0  0  0  0
  140.1850   71.5460  223.6590 C   0  0  0  0  0  0  0  0  0  0  0  0
  139.5950   70.3170  223.4720 C   0  0  0  0  0  0  0  0  0  0  0  0
  139.4850   69.4010  224.5000 C   0  0  0  0  0  0  0  0  0  0  0  0
  139.9910   69.7580  225.7470 C   0  0  0  0  0  0  0  0  0  0  0  0
  139.9080   68.8880  226.8030 C   0  0  0  0  0  0  0  0  0  0  0  0
  140.4210   69.2600  228.0490 C   0  0  0  0  0  0  0  0  0  0  0  0
  140.3570   68.4230  229.1160 F   0  0  0  0  0  0  0  0  0  0  0  0
  141.0060   70.5150  228.1790 C   0  0  0  0  0  0  0  0  0  0  0  0
  141.0960   71.3970  227.1270 C   0  0  0  0  0  0  0  0  0  0  0  0
  140.5840   71.0120  225.9090 C   0  0  0  0  0  0  0  0  0  0  0  0
  140.6740   71.8850  224.8740 N   0  0  0  0  0  0  0  0  0  0  0  0
  141.6494   79.8034  223.8569 H   0  0  0  0  0  0  0  0  0  0  0  0
  141.9876   78.9567  222.3092 H   0  0  0  0  0  0  0  0  0  0  0  0
  141.0444   80.4855  222.3092 H   0  0  0  0  0  0  0  0  0  0  0  0
  139.0252   79.4224  224.7509 H   0  0  0  0  0  0  0  0  0  0  0  0
  138.9129   80.5510  223.3579 H   0  0  0  0  0  0  0  0  0  0  0  0
  137.9622   79.0269  223.3579 H   0  0  0  0  0  0  0  0  0  0  0  0
  141.3101   77.3740  220.9666 H   0  0  0  0  0  0  0  0  0  0  0  0
  141.9495   76.9012  222.5659 H   0  0  0  0  0  0  0  0  0  0  0  0
  139.8660   75.0450  221.9300 H   0  0  0  0  0  0  0  0  0  0  0  0
  140.6233   73.1852  219.8644 H   0  0  0  0  0  0  0  0  0  0  0  0
  142.4382   72.9599  219.9746 H   0  0  0  0  0  0  0  0  0  0  0  0
  142.0520   71.6060  221.8050 H   0  0  0  0  0  0  0  0  0  0  0  0
  139.2009   70.0574  222.4784 H   0  0  0  0  0  0  0  0  0  0  0  0
  139.0127   68.4208  224.3386 H   0  0  0  0  0  0  0  0  0  0  0  0
  139.4398   67.9015  226.6705 H   0  0  0  0  0  0  0  0  0  0  0  0
  141.4110   70.8129  229.1574 H   0  0  0  0  0  0  0  0  0  0  0  0
  141.5647   72.3837  227.2560 H   0  0  0  0  0  0  0  0  0  0  0  0
  1  2  1  0
  2  3  1  0
  2  4  1  0
  4  5  2  0
  4  6  1  0
  6  7  1  0
  7  8  1  0
  8  9  2  0
  8 10  1  0
 10 11  1  0
 11 12  1  0
 12 13  2  0
 12 14  1  0
 14 15  2  0
 15 16  1  0
 16 17  2  0
 17 18  1  0
 18 19  2  0
 19 20  1  0
 19 21  1  0
 21 22  2  0
 22 23  1  0
 23 24  2  0
 24 14  1  0
 23 17  1  0
  1 25  1  0
  1 26  1  0
  1 27  1  0
  3 28  1  0
  3 29  1  0
  3 30  1  0
  6 31  1  0
  6 32  1  0
  7 33  1  0
 10 34  1  0
 10 35  1  0
 11 36  1  0
 15 37  1  0
 16 38  1  0
 18 39  1  0
 21 40  1  0
 22 41  1  0
M  END
>  <smiles>  (37) 
CN(C)C(=O)CNC(=O)CNC(=O)c1ccc2cc(F)ccc2n1

>  <score_type>  (37) 
oracle

>  <origin>  (37) 
autodockgpu

>  <m_score__min__energy>  (37) 
-7.7199999999999998

>  <m_primary>  (37) 
energy

>  <rmsd>  (37) 
4.9351527055683455

>  <m_score__min__rmsd>  (37) 
4.9351527055683455

>  <meeko>  (37) 
{"free_energy": -6.31, "intermolecular_energy": -7.8, "internal_energy": -2.11, "cluster_size": 49, "cluster_id": 1, "rank_in_cluster": 38}

>  <energy>  (37) 
-6.32

>  <cluster_rmsd>  (37) 
1.74

>  <cluster>  (37) 
1

$$$$

     RDKit          3D

 41 42  0  0  0  0  0  0  0  0999 V2000
  138.5860   78.8370  222.4210 C   0  0  0  0  0  0  0  0  0  0  0  0
  139.7700   78.0040  222.4810 N   0  0  0  0  0  0  0  0  0  0  0  0
  141.0240   78.6890  222.7930 C   0  0  0  0  0  0  0  0  0  0  0  0
  139.7280   76.5900  222.2510 C   0  0  0  0  0  0  0  0  0  0  0  0
  140.7980   75.9580  222.3250 O   0  0  0  0  0  0  0  0  0  0  0  0
  138.4090   75.9940  221.9430 C   0  0  0  0  0  0  0  0  0  0  0  0
  138.5240   74.5530  222.0710 N   0  0  0  0  0  0  0  0  0  0  0  0
  137.6610   73.7280  221.3110 C   0  0  0  0  0  0  0  0  0  0  0  0
  136.8040   74.2760  220.5380 O   0  0  0  0  0  0  0  0  0  0  0  0
  137.6650   72.2520  221.3350 C   0  0  0  0  0  0  0  0  0  0  0  0
  138.1490   71.6860  222.5620 N   0  0  0  0  0  0  0  0  0  0  0  0
  139.4760   71.8980  223.0290 C   0  0  0  0  0  0  0  0  0  0  0  0
  140.3210   72.6010  222.3780 O   0  0  0  0  0  0  0  0  0  0  0  0
  139.9000   71.2900  224.3060 C   0  0  0  0  0  0  0  0  0  0  0  0
  140.8100   71.9390  225.1100 C   0  0  0  0  0  0  0  0  0  0  0  0
  141.2290   71.4020  226.3110 C   0  0  0  0  0  0  0  0  0  0  0  0
  140.7040   70.1700  226.6920 C   0  0  0  0  0  0  0  0  0  0  0  0
  141.0860   69.5900  227.8740 C   0  0  0  0  0  0  0  0  0  0  0  0
  140.5500   68.3530  228.2440 C   0  0  0  0  0  0  0  0  0  0  0  0
  140.9060   67.7500  229.4080 F   0  0  0  0  0  0  0  0  0  0  0  0
  139.6360   67.7430  227.3920 C   0  0  0  0  0  0  0  0  0  0  0  0
  139.2440   68.3150  226.2040 C   0  0  0  0  0  0  0  0  0  0  0  0
  139.7840   69.5330  225.8570 C   0  0  0  0  0  0  0  0  0  0  0  0
  139.3950   70.0940  224.6840 N   0  0  0  0  0  0  0  0  0  0  0  0
  138.2513   79.0725  223.4420 H   0  0  0  0  0  0  0  0  0  0  0  0
  138.8207   79.7700  221.8877 H   0  0  0  0  0  0  0  0  0  0  0  0
  137.7871   78.3009  221.8877 H   0  0  0  0  0  0  0  0  0  0  0  0
  141.1442   78.7547  223.8844 H   0  0  0  0  0  0  0  0  0  0  0  0
  141.8660   78.1256  222.3646 H   0  0  0  0  0  0  0  0  0  0  0  0
  141.0049   79.7020  222.3646 H   0  0  0  0  0  0  0  0  0  0  0  0
  137.6551   76.3720  222.6492 H   0  0  0  0  0  0  0  0  0  0  0  0
  138.0988   76.2622  220.9223 H   0  0  0  0  0  0  0  0  0  0  0  0
  139.2250   74.1460  222.7230 H   0  0  0  0  0  0  0  0  0  0  0  0
  136.6346   71.9014  221.1759 H   0  0  0  0  0  0  0  0  0  0  0  0
  138.3532   71.9243  220.5419 H   0  0  0  0  0  0  0  0  0  0  0  0
  137.5340   71.0840  223.1730 H   0  0  0  0  0  0  0  0  0  0  0  0
  141.2135   72.9101  224.7873 H   0  0  0  0  0  0  0  0  0  0  0  0
  141.9546   71.9307  226.9466 H   0  0  0  0  0  0  0  0  0  0  0  0
  141.8112   70.0958  228.5285 H   0  0  0  0  0  0  0  0  0  0  0  0
  139.2117   66.7692  227.6779 H   0  0  0  0  0  0  0  0  0  0  0  0
  138.5179   67.8123  225.5482 H   0  0  0  0  0  0  0  0  0  0  0  0
  1  2  1  0
  2  3  1  0
  2  4  1  0
  4  5  2  0
  4  6  1  0
  6  7  1  0
  7  8  1  0
  8  9  2  0
  8 10  1  0
 10 11  1  0
 11 12  1  0
 12 13  2  0
 12 14  1  0
 14 15  2  0
 15 16  1  0
 16 17  2  0
 17 18  1  0
 18 19  2  0
 19 20  1  0
 19 21  1  0
 21 22  2  0
 22 23  1  0
 23 24  2  0
 24 14  1  0
 23 17  1  0
  1 25  1  0
  1 26  1  0
  1 27  1  0
  3 28  1  0
  3 29  1  0
  3 30  1  0
  6 31  1  0
  6 32  1  0
  7 33  1  0
 10 34  1  0
 10 35  1  0
 11 36  1  0
 15 37  1  0
 16 38  1  0
 18 39  1  0
 21 40  1  0
 22 41  1  0
M  END
>  <smiles>  (38) 
CN(C)C(=O)CNC(=O)CNC(=O)c1ccc2cc(F)ccc2n1

>  <score_type>  (38) 
oracle

>  <origin>  (38) 
autodockgpu

>  <m_score__min__energy>  (38) 
-7.7199999999999998

>  <m_primary>  (38) 
energy

>  <rmsd>  (38) 
3.55242296066196

>  <m_score__min__rmsd>  (38) 
3.55242296066196

>  <meeko>  (38) 
{"free_energy": -6.21, "intermolecular_energy": -7.71, "internal_energy": -2.15, "cluster_size": 49, "cluster_id": 1, "rank_in_cluster": 41}

>  <energy>  (38) 
-6.31

>  <cluster_rmsd>  (38) 
1.65

>  <cluster>  (38) 
1

$$$$

     RDKit          3D

 41 42  0  0  0  0  0  0  0  0999 V2000
  140.8150   79.3820  223.7000 C   0  0  0  0  0  0  0  0  0  0  0  0
  141.6560   79.5160  222.5280 N   0  0  0  0  0  0  0  0  0  0  0  0
  142.9450   80.1760  222.7320 C   0  0  0  0  0  0  0  0  0  0  0  0
  141.2590   79.0340  221.2370 C   0  0  0  0  0  0  0  0  0  0  0  0
  142.0490   79.1950  220.2900 O   0  0  0  0  0  0  0  0  0  0  0  0
  139.9350   78.3800  221.1380 C   0  0  0  0  0  0  0  0  0  0  0  0
  140.1360   77.0270  220.6540 N   0  0  0  0  0  0  0  0  0  0  0  0
  139.8890   75.9430  221.5310 C   0  0  0  0  0  0  0  0  0  0  0  0
  139.5010   76.1890  222.7230 O   0  0  0  0  0  0  0  0  0  0  0  0
  140.0460   74.5190  221.1790 C   0  0  0  0  0  0  0  0  0  0  0  0
  139.9250   73.6220  222.2930 N   0  0  0  0  0  0  0  0  0  0  0  0
  140.2990   72.2510  222.2130 C   0  0  0  0  0  0  0  0  0  0  0  0
  140.7600   71.7340  221.1400 O   0  0  0  0  0  0  0  0  0  0  0  0
  140.1550   71.3900  223.4040 C   0  0  0  0  0  0  0  0  0  0  0  0
  139.5500   70.1580  223.2950 C   0  0  0  0  0  0  0  0  0  0  0  0
  139.3980   69.3250  224.3860 C   0  0  0  0  0  0  0  0  0  0  0  0
  139.8760   69.7700  225.6160 C   0  0  0  0  0  0  0  0  0  0  0  0
  139.7510   68.9850  226.7320 C   0  0  0  0  0  0  0  0  0  0  0  0
  140.2360   69.4440  227.9610 C   0  0  0  0  0  0  0  0  0  0  0  0
  140.1290   68.6920  229.0860 F   0  0  0  0  0  0  0  0  0  0  0  0
  140.8370   70.6970  228.0110 C   0  0  0  0  0  0  0  0  0  0  0  0
  140.9690   71.4940  226.8980 C   0  0  0  0  0  0  0  0  0  0  0  0
  140.4850   71.0240  225.6990 C   0  0  0  0  0  0  0  0  0  0  0  0
  140.6160   71.8140  224.6020 N   0  0  0  0  0  0  0  0  0  0  0  0
  141.4307   79.4801  224.6063 H   0  0  0  0  0  0  0  0  0  0  0  0
  140.0466   80.1690  223.6918 H   0  0  0  0  0  0  0  0  0  0  0  0
  140.3292   78.3951  223.6918 H   0  0  0  0  0  0  0  0  0  0  0  0
  143.1394   80.2755  223.8101 H   0  0  0  0  0  0  0  0  0  0  0  0
  143.7419   79.5750  222.2697 H   0  0  0  0  0  0  0  0  0  0  0  0
  142.9232   81.1739  222.2697 H   0  0  0  0  0  0  0  0  0  0  0  0
  139.4566   78.3546  222.1282 H   0  0  0  0  0  0  0  0  0  0  0  0
  139.2844   78.9386  220.4490 H   0  0  0  0  0  0  0  0  0  0  0  0
  140.4680   76.8700  219.6810 H   0  0  0  0  0  0  0  0  0  0  0  0
  139.2733   74.2587  220.4407 H   0  0  0  0  0  0  0  0  0  0  0  0
  141.0667   74.4005  220.7864 H   0  0  0  0  0  0  0  0  0  0  0  0
  139.5510   73.9450  223.2250 H   0  0  0  0  0  0  0  0  0  0  0  0
  139.1781   69.8287  222.3135 H   0  0  0  0  0  0  0  0  0  0  0  0
  138.9149   68.3417  224.2866 H   0  0  0  0  0  0  0  0  0  0  0  0
  139.2711   67.9977  226.6617 H   0  0  0  0  0  0  0  0  0  0  0  0
  141.2203   71.0636  228.9747 H   0  0  0  0  0  0  0  0  0  0  0  0
  141.4490   72.4815  226.9647 H   0  0  0  0  0  0  0  0  0  0  0  0
  1  2  1  0
  2  3  1  0
  2  4  1  0
  4  5  2  0
  4  6  1  0
  6  7  1  0
  7  8  1  0
  8  9  2  0
  8 10  1  0
 10 11  1  0
 11 12  1  0
 12 13  2  0
 12 14  1  0
 14 15  2  0
 15 16  1  0
 16 17  2  0
 17 18  1  0
 18 19  2  0
 19 20  1  0
 19 21  1  0
 21 22  2  0
 22 23  1  0
 23 24  2  0
 24 14  1  0
 23 17  1  0
  1 25  1  0
  1 26  1  0
  1 27  1  0
  3 28  1  0
  3 29  1  0
  3 30  1  0
  6 31  1  0
  6 32  1  0
  7 33  1  0
 10 34  1  0
 10 35  1  0
 11 36  1  0
 15 37  1  0
 16 38  1  0
 18 39  1  0
 21 40  1  0
 22 41  1  0
M  END
>  <smiles>  (39) 
CN(C)C(=O)CNC(=O)CNC(=O)c1ccc2cc(F)ccc2n1

>  <score_type>  (39) 
oracle

>  <origin>  (39) 
autodockgpu

>  <m_score__min__energy>  (39) 
-7.7199999999999998

>  <m_primary>  (39) 
energy

>  <rmsd>  (39) 
5.266881544118331

>  <m_score__min__rmsd>  (39) 
5.266881544118331

>  <meeko>  (39) 
{"free_energy": -6.53, "intermolecular_energy": -8.02, "internal_energy": -1.6, "cluster_size": 49, "cluster_id": 1, "rank_in_cluster": 23}

>  <energy>  (39) 
-6.29

>  <cluster_rmsd>  (39) 
1.65

>  <cluster>  (39) 
1

$$$$

     RDKit          3D

 41 42  0  0  0  0  0  0  0  0999 V2000
  140.4050   81.0860  222.3390 C   0  0  0  0  0  0  0  0  0  0  0  0
  141.3730   80.3250  223.1040 N   0  0  0  0  0  0  0  0  0  0  0  0
  142.3910   81.1020  223.8090 C   0  0  0  0  0  0  0  0  0  0  0  0
  141.3440   78.8930  223.1740 C   0  0  0  0  0  0  0  0  0  0  0  0
  142.2170   78.3280  223.8570 O   0  0  0  0  0  0  0  0  0  0  0  0
  140.2710   78.2010  222.4250 C   0  0  0  0  0  0  0  0  0  0  0  0
  140.6990   76.8360  222.1820 N   0  0  0  0  0  0  0  0  0  0  0  0
  139.8120   75.9480  221.5270 C   0  0  0  0  0  0  0  0  0  0  0  0
  138.6600   76.3730  221.1740 O   0  0  0  0  0  0  0  0  0  0  0  0
  140.1090   74.5370  221.2110 C   0  0  0  0  0  0  0  0  0  0  0  0
  139.9220   73.6360  222.3130 N   0  0  0  0  0  0  0  0  0  0  0  0
  140.5580   72.3650  222.3750 C   0  0  0  0  0  0  0  0  0  0  0  0
  141.3290   71.9440  221.4480 O   0  0  0  0  0  0  0  0  0  0  0  0
  140.3250   71.4950  223.5460 C   0  0  0  0  0  0  0  0  0  0  0  0
  139.6430   70.3080  223.3980 C   0  0  0  0  0  0  0  0  0  0  0  0
  139.4070   69.4690  224.4690 C   0  0  0  0  0  0  0  0  0  0  0  0
  139.8820   69.8600  225.7190 C   0  0  0  0  0  0  0  0  0  0  0  0
  139.6750   69.0650  226.8160 C   0  0  0  0  0  0  0  0  0  0  0  0
  140.1570   69.4690  228.0650 C   0  0  0  0  0  0  0  0  0  0  0  0
  139.9710   68.7070  229.1730 F   0  0  0  0  0  0  0  0  0  0  0  0
  140.8390   70.6790  228.1540 C   0  0  0  0  0  0  0  0  0  0  0  0
  141.0530   71.4840  227.0600 C   0  0  0  0  0  0  0  0  0  0  0  0
  140.5700   71.0680  225.8400 C   0  0  0  0  0  0  0  0  0  0  0  0
  140.7820   71.8660  224.7630 N   0  0  0  0  0  0  0  0  0  0  0  0
  139.7299   81.6167  223.0264 H   0  0  0  0  0  0  0  0  0  0  0  0
  140.9304   81.8154  221.7050 H   0  0  0  0  0  0  0  0  0  0  0  0
  139.8202   80.4033  221.7050 H   0  0  0  0  0  0  0  0  0  0  0  0
  142.2488   80.9934  224.8944 H   0  0  0  0  0  0  0  0  0  0  0  0
  143.3901   80.7347  223.5316 H   0  0  0  0  0  0  0  0  0  0  0  0
  142.3002   82.1626  223.5316 H   0  0  0  0  0  0  0  0  0  0  0  0
  139.3436   78.2012  223.0165 H   0  0  0  0  0  0  0  0  0  0  0  0
  140.0788   78.7155  221.4719 H   0  0  0  0  0  0  0  0  0  0  0  0
  141.6390   76.5250  222.4990 H   0  0  0  0  0  0  0  0  0  0  0  0
  139.4481   74.2206  220.3905 H   0  0  0  0  0  0  0  0  0  0  0  0
  141.1745   74.4905  220.9415 H   0  0  0  0  0  0  0  0  0  0  0  0
  139.3000   73.8830  223.1290 H   0  0  0  0  0  0  0  0  0  0  0  0
  139.2769   70.0208  222.4013 H   0  0  0  0  0  0  0  0  0  0  0  0
  138.8616   68.5226  224.3394 H   0  0  0  0  0  0  0  0  0  0  0  0
  139.1323   68.1136  226.7145 H   0  0  0  0  0  0  0  0  0  0  0  0
  141.2202   71.0026  229.1338 H   0  0  0  0  0  0  0  0  0  0  0  0
  141.5960   72.4357  227.1572 H   0  0  0  0  0  0  0  0  0  0  0  0
  1  2  1  0
  2  3  1  0
  2  4  1  0
  4  5  2  0
  4  6  1  0
  6  7  1  0
  7  8  1  0
  8  9  2  0
  8 10  1  0
 10 11  1  0
 11 12  1  0
 12 13  2  0
 12 14  1  0
 14 15  2  0
 15 16  1  0
 16 17  2  0
 17 18  1  0
 18 19  2  0
 19 20  1  0
 19 21  1  0
 21 22  2  0
 22 23  1  0
 23 24  2  0
 24 14  1  0
 23 17  1  0
  1 25  1  0
  1 26  1  0
  1 27  1  0
  3 28  1  0
  3 29  1  0
  3 30  1  0
  6 31  1  0
  6 32  1  0
  7 33  1  0
 10 34  1  0
 10 35  1  0
 11 36  1  0
 15 37  1  0
 16 38  1  0
 18 39  1  0
 21 40  1  0
 22 41  1  0
M  END
>  <smiles>  (40) 
CN(C)C(=O)CNC(=O)CNC(=O)c1ccc2cc(F)ccc2n1

>  <score_type>  (40) 
oracle

>  <origin>  (40) 
autodockgpu

>  <m_score__min__energy>  (40) 
-7.7199999999999998

>  <m_primary>  (40) 
energy

>  <rmsd>  (40) 
5.426986101924524

>  <m_score__min__rmsd>  (40) 
5.426986101924524

>  <meeko>  (40) 
{"free_energy": -7.39, "intermolecular_energy": -8.89, "internal_energy": -1.33, "cluster_size": 49, "cluster_id": 1, "rank_in_cluster": 6}

>  <energy>  (40) 
-6.23

>  <cluster_rmsd>  (40) 
1.78

>  <cluster>  (40) 
1

$$$$

     RDKit          3D

 41 42  0  0  0  0  0  0  0  0999 V2000
  142.5080   79.6430  222.6430 C   0  0  0  0  0  0  0  0  0  0  0  0
  141.0980   79.5720  222.9700 N   0  0  0  0  0  0  0  0  0  0  0  0
  140.4930   80.8000  223.4830 C   0  0  0  0  0  0  0  0  0  0  0  0
  140.3300   78.3730  222.8050 C   0  0  0  0  0  0  0  0  0  0  0  0
  139.1240   78.4090  223.1130 O   0  0  0  0  0  0  0  0  0  0  0  0
  141.0360   77.1840  222.2770 C   0  0  0  0  0  0  0  0  0  0  0  0
  140.1290   76.0540  222.3420 N   0  0  0  0  0  0  0  0  0  0  0  0
  140.1750   75.0800  221.3160 C   0  0  0  0  0  0  0  0  0  0  0  0
  141.0100   75.2270  220.3610 O   0  0  0  0  0  0  0  0  0  0  0  0
  139.3180   73.8800  221.2510 C   0  0  0  0  0  0  0  0  0  0  0  0
  139.4350   73.0120  222.3880 N   0  0  0  0  0  0  0  0  0  0  0  0
  139.3820   71.5950  222.2750 C   0  0  0  0  0  0  0  0  0  0  0  0
  139.2190   71.0080  221.1520 O   0  0  0  0  0  0  0  0  0  0  0  0
  139.5190   70.7650  223.4890 C   0  0  0  0  0  0  0  0  0  0  0  0
  139.0970   69.4560  223.4810 C   0  0  0  0  0  0  0  0  0  0  0  0
  139.2090   68.6500  224.5970 C   0  0  0  0  0  0  0  0  0  0  0  0
  139.7660   69.2040  225.7470 C   0  0  0  0  0  0  0  0  0  0  0  0
  139.9010   68.4500  226.8830 C   0  0  0  0  0  0  0  0  0  0  0  0
  140.4620   69.0190  228.0300 C   0  0  0  0  0  0  0  0  0  0  0  0
  140.6110   68.3010  229.1730 F   0  0  0  0  0  0  0  0  0  0  0  0
  140.8700   70.3480  227.9800 C   0  0  0  0  0  0  0  0  0  0  0  0
  140.7410   71.1150  226.8460 C   0  0  0  0  0  0  0  0  0  0  0  0
  140.1850   70.5360  225.7280 C   0  0  0  0  0  0  0  0  0  0  0  0
  140.0580   71.2960  224.6110 N   0  0  0  0  0  0  0  0  0  0  0  0
  143.0985   79.6727  223.5706 H   0  0  0  0  0  0  0  0  0  0  0  0
  142.7931   78.7581  222.0551 H   0  0  0  0  0  0  0  0  0  0  0  0
  142.7027   80.5521  222.0551 H   0  0  0  0  0  0  0  0  0  0  0  0
  140.5021   80.7815  224.5828 H   0  0  0  0  0  0  0  0  0  0  0  0
  141.0665   81.6682  223.1261 H   0  0  0  0  0  0  0  0  0  0  0  0
  139.4552   80.8743  223.1261 H   0  0  0  0  0  0  0  0  0  0  0  0
  141.3359   77.3615  221.2337 H   0  0  0  0  0  0  0  0  0  0  0  0
  141.9388   76.9820  222.8722 H   0  0  0  0  0  0  0  0  0  0  0  0
  139.4520   75.9790  223.1290 H   0  0  0  0  0  0  0  0  0  0  0  0
  138.2708   74.2076  221.1733 H   0  0  0  0  0  0  0  0  0  0  0  0
  139.6493   73.3016  220.3760 H   0  0  0  0  0  0  0  0  0  0  0  0
  139.5670   73.3940  223.3630 H   0  0  0  0  0  0  0  0  0  0  0  0
  138.6588   69.0401  222.5617 H   0  0  0  0  0  0  0  0  0  0  0  0
  138.8691   67.6040  224.5781 H   0  0  0  0  0  0  0  0  0  0  0  0
  139.5693   67.4012  226.8924 H   0  0  0  0  0  0  0  0  0  0  0  0
  141.3115   70.8015  228.8797 H   0  0  0  0  0  0  0  0  0  0  0  0
  141.0734   72.1635  226.8327 H   0  0  0  0  0  0  0  0  0  0  0  0
  1  2  1  0
  2  3  1  0
  2  4  1  0
  4  5  2  0
  4  6  1  0
  6  7  1  0
  7  8  1  0
  8  9  2  0
  8 10  1  0
 10 11  1  0
 11 12  1  0
 12 13  2  0
 12 14  1  0
 14 15  2  0
 15 16  1  0
 16 17  2  0
 17 18  1  0
 18 19  2  0
 19 20  1  0
 19 21  1  0
 21 22  2  0
 22 23  1  0
 23 24  2  0
 24 14  1  0
 23 17  1  0
  1 25  1  0
  1 26  1  0
  1 27  1  0
  3 28  1  0
  3 29  1  0
  3 30  1  0
  6 31  1  0
  6 32  1  0
  7 33  1  0
 10 34  1  0
 10 35  1  0
 11 36  1  0
 15 37  1  0
 16 38  1  0
 18 39  1  0
 21 40  1  0
 22 41  1  0
M  END
>  <smiles>  (41) 
CN(C)C(=O)CNC(=O)CNC(=O)c1ccc2cc(F)ccc2n1

>  <score_type>  (41) 
oracle

>  <origin>  (41) 
autodockgpu

>  <m_score__min__energy>  (41) 
-7.7199999999999998

>  <m_primary>  (41) 
energy

>  <rmsd>  (41) 
4.986947175496311

>  <m_score__min__rmsd>  (41) 
4.986947175496311

>  <meeko>  (41) 
{"free_energy": -6.52, "intermolecular_energy": -8.01, "internal_energy": -1.45, "cluster_size": 49, "cluster_id": 1, "rank_in_cluster": 25}

>  <energy>  (41) 
-6.21

>  <cluster_rmsd>  (41) 
1.78

>  <cluster>  (41) 
1

$$$$

     RDKit          3D

 41 42  0  0  0  0  0  0  0  0999 V2000
  141.3780   79.0340  223.8740 C   0  0  0  0  0  0  0  0  0  0  0  0
  141.9870   79.4870  222.6390 N   0  0  0  0  0  0  0  0  0  0  0  0
  143.2450   80.2210  222.7730 C   0  0  0  0  0  0  0  0  0  0  0  0
  141.4000   79.2370  221.3550 C   0  0  0  0  0  0  0  0  0  0  0  0
  141.9980   79.6660  220.3510 O   0  0  0  0  0  0  0  0  0  0  0  0
  140.1270   78.4840  221.3290 C   0  0  0  0  0  0  0  0  0  0  0  0
  140.4070   77.1410  220.8570 N   0  0  0  0  0  0  0  0  0  0  0  0
  139.9110   76.0400  221.5960 C   0  0  0  0  0  0  0  0  0  0  0  0
  139.2370   76.2610  222.6580 O   0  0  0  0  0  0  0  0  0  0  0  0
  140.1130   74.6220  221.2380 C   0  0  0  0  0  0  0  0  0  0  0  0
  139.9530   73.7110  222.3350 N   0  0  0  0  0  0  0  0  0  0  0  0
  140.4110   72.3650  222.2810 C   0  0  0  0  0  0  0  0  0  0  0  0
  140.9870   71.8830  221.2480 O   0  0  0  0  0  0  0  0  0  0  0  0
  140.2200   71.4870  223.4530 C   0  0  0  0  0  0  0  0  0  0  0  0
  139.6120   70.2610  223.3060 C   0  0  0  0  0  0  0  0  0  0  0  0
  139.4160   69.4140  224.3780 C   0  0  0  0  0  0  0  0  0  0  0  0
  139.8550   69.8360  225.6300 C   0  0  0  0  0  0  0  0  0  0  0  0
  139.6860   69.0350  226.7290 C   0  0  0  0  0  0  0  0  0  0  0  0
  140.1320   69.4720  227.9800 C   0  0  0  0  0  0  0  0  0  0  0  0
  139.9810   68.7050  229.0900 F   0  0  0  0  0  0  0  0  0  0  0  0
  140.7390   70.7200  228.0700 C   0  0  0  0  0  0  0  0  0  0  0  0
  140.9150   71.5330  226.9740 C   0  0  0  0  0  0  0  0  0  0  0  0
  140.4690   71.0840  225.7520 C   0  0  0  0  0  0  0  0  0  0  0  0
  140.6430   71.8890  224.6740 N   0  0  0  0  0  0  0  0  0  0  0  0
  141.9329   79.4468  224.7294 H   0  0  0  0  0  0  0  0  0  0  0  0
  140.3334   79.3764  223.9149 H   0  0  0  0  0  0  0  0  0  0  0  0
  141.4055   77.9351  223.9149 H   0  0  0  0  0  0  0  0  0  0  0  0
  143.4783   80.3571  223.8393 H   0  0  0  0  0  0  0  0  0  0  0  0
  144.0540   79.6532  222.2902 H   0  0  0  0  0  0  0  0  0  0  0  0
  143.1488   81.2047  222.2902 H   0  0  0  0  0  0  0  0  0  0  0  0
  139.6982   78.4416  222.3411 H   0  0  0  0  0  0  0  0  0  0  0  0
  139.4050   78.9791  220.6629 H   0  0  0  0  0  0  0  0  0  0  0  0
  140.9730   77.0030  219.9960 H   0  0  0  0  0  0  0  0  0  0  0  0
  139.3838   74.3554  220.4588 H   0  0  0  0  0  0  0  0  0  0  0  0
  141.1544   74.5269  220.8968 H   0  0  0  0  0  0  0  0  0  0  0  0
  139.4860   74.0040  223.2350 H   0  0  0  0  0  0  0  0  0  0  0  0
  139.2732   69.9478  222.3074 H   0  0  0  0  0  0  0  0  0  0  0  0
  138.9285   68.4366  224.2473 H   0  0  0  0  0  0  0  0  0  0  0  0
  139.2016   68.0526  226.6274 H   0  0  0  0  0  0  0  0  0  0  0  0
  141.0908   71.0694  229.0519 H   0  0  0  0  0  0  0  0  0  0  0  0
  141.3993   72.5158  227.0720 H   0  0  0  0  0  0  0  0  0  0  0  0
  1  2  1  0
  2  3  1  0
  2  4  1  0
  4  5  2  0
  4  6  1  0
  6  7  1  0
  7  8  1  0
  8  9  2  0
  8 10  1  0
 10 11  1  0
 11 12  1  0
 12 13  2  0
 12 14  1  0
 14 15  2  0
 15 16  1  0
 16 17  2  0
 17 18  1  0
 18 19  2  0
 19 20  1  0
 19 21  1  0
 21 22  2  0
 22 23  1  0
 23 24  2  0
 24 14  1  0
 23 17  1  0
  1 25  1  0
  1 26  1  0
  1 27  1  0
  3 28  1  0
  3 29  1  0
  3 30  1  0
  6 31  1  0
  6 32  1  0
  7 33  1  0
 10 34  1  0
 10 35  1  0
 11 36  1  0
 15 37  1  0
 16 38  1  0
 18 39  1  0
 21 40  1  0
 22 41  1  0
M  END
>  <smiles>  (42) 
CN(C)C(=O)CNC(=O)CNC(=O)c1ccc2cc(F)ccc2n1

>  <score_type>  (42) 
oracle

>  <origin>  (42) 
autodockgpu

>  <m_score__min__energy>  (42) 
-7.7199999999999998

>  <m_primary>  (42) 
energy

>  <rmsd>  (42) 
5.341490325551329

>  <m_score__min__rmsd>  (42) 
5.341490325551329

>  <meeko>  (42) 
{"free_energy": -6.62, "intermolecular_energy": -8.11, "internal_energy": -1.51, "cluster_size": 49, "cluster_id": 1, "rank_in_cluster": 17}

>  <energy>  (42) 
-6.2

>  <cluster_rmsd>  (42) 
1.65

>  <cluster>  (42) 
1

$$$$

     RDKit          3D

 41 42  0  0  0  0  0  0  0  0999 V2000
  141.2990   81.1030  222.0440 C   0  0  0  0  0  0  0  0  0  0  0  0
  141.9120   80.2410  223.0350 N   0  0  0  0  0  0  0  0  0  0  0  0
  142.9120   80.8650  223.9000 C   0  0  0  0  0  0  0  0  0  0  0  0
  141.5660   78.8560  223.1700 C   0  0  0  0  0  0  0  0  0  0  0  0
  142.1470   78.1970  224.0510 O   0  0  0  0  0  0  0  0  0  0  0  0
  140.5410   78.3230  222.2460 C   0  0  0  0  0  0  0  0  0  0  0  0
  140.9000   76.9570  221.9150 N   0  0  0  0  0  0  0  0  0  0  0  0
  139.8710   76.0370  221.5990 C   0  0  0  0  0  0  0  0  0  0  0  0
  138.6570   76.4350  221.6200 O   0  0  0  0  0  0  0  0  0  0  0  0
  140.0830   74.6210  221.2410 C   0  0  0  0  0  0  0  0  0  0  0  0
  139.9560   73.7100  222.3440 N   0  0  0  0  0  0  0  0  0  0  0  0
  140.3460   72.3450  222.2540 C   0  0  0  0  0  0  0  0  0  0  0  0
  140.8260   71.8430  221.1810 O   0  0  0  0  0  0  0  0  0  0  0  0
  140.1940   71.4690  223.4330 C   0  0  0  0  0  0  0  0  0  0  0  0
  139.6070   70.2310  223.3020 C   0  0  0  0  0  0  0  0  0  0  0  0
  139.4490   69.3850  224.3820 C   0  0  0  0  0  0  0  0  0  0  0  0
  139.9020   69.8220  225.6240 C   0  0  0  0  0  0  0  0  0  0  0  0
  139.7700   69.0230  226.7290 C   0  0  0  0  0  0  0  0  0  0  0  0
  140.2300   69.4760  227.9700 C   0  0  0  0  0  0  0  0  0  0  0  0
  140.1150   68.7100  229.0860 F   0  0  0  0  0  0  0  0  0  0  0  0
  140.8140   70.7360  228.0430 C   0  0  0  0  0  0  0  0  0  0  0  0
  140.9530   71.5460  226.9400 C   0  0  0  0  0  0  0  0  0  0  0  0
  140.4930   71.0830  225.7290 C   0  0  0  0  0  0  0  0  0  0  0  0
  140.6310   71.8860  224.6430 N   0  0  0  0  0  0  0  0  0  0  0  0
  140.7330   81.8989  222.5501 H   0  0  0  0  0  0  0  0  0  0  0  0
  142.0813   81.5526  221.4149 H   0  0  0  0  0  0  0  0  0  0  0  0
  140.6175   80.5116  221.4149 H   0  0  0  0  0  0  0  0  0  0  0  0
  142.6422   80.6967  224.9530 H   0  0  0  0  0  0  0  0  0  0  0  0
  143.8985   80.4219  223.6989 H   0  0  0  0  0  0  0  0  0  0  0  0
  142.9476   81.9459  223.6989 H   0  0  0  0  0  0  0  0  0  0  0  0
  139.5545   78.3420  222.7323 H   0  0  0  0  0  0  0  0  0  0  0  0
  140.4937   78.9364  221.3342 H   0  0  0  0  0  0  0  0  0  0  0  0
  141.8990   76.6680  221.9240 H   0  0  0  0  0  0  0  0  0  0  0  0
  139.3417   74.3435  220.4771 H   0  0  0  0  0  0  0  0  0  0  0  0
  141.1186   74.5377  220.8796 H   0  0  0  0  0  0  0  0  0  0  0  0
  139.5660   74.0190  223.2740 H   0  0  0  0  0  0  0  0  0  0  0  0
  139.2546   69.9071  222.3116 H   0  0  0  0  0  0  0  0  0  0  0  0
  138.9800   68.3969  224.2648 H   0  0  0  0  0  0  0  0  0  0  0  0
  139.3046   68.0302  226.6408 H   0  0  0  0  0  0  0  0  0  0  0  0
  141.1773   71.0973  229.0164 H   0  0  0  0  0  0  0  0  0  0  0  0
  141.4200   72.5384  227.0241 H   0  0  0  0  0  0  0  0  0  0  0  0
  1  2  1  0
  2  3  1  0
  2  4  1  0
  4  5  2  0
  4  6  1  0
  6  7  1  0
  7  8  1  0
  8  9  2  0
  8 10  1  0
 10 11  1  0
 11 12  1  0
 12 13  2  0
 12 14  1  0
 14 15  2  0
 15 16  1  0
 16 17  2  0
 17 18  1  0
 18 19  2  0
 19 20  1  0
 19 21  1  0
 21 22  2  0
 22 23  1  0
 23 24  2  0
 24 14  1  0
 23 17  1  0
  1 25  1  0
  1 26  1  0
  1 27  1  0
  3 28  1  0
  3 29  1  0
  3 30  1  0
  6 31  1  0
  6 32  1  0
  7 33  1  0
 10 34  1  0
 10 35  1  0
 11 36  1  0
 15 37  1  0
 16 38  1  0
 18 39  1  0
 21 40  1  0
 22 41  1  0
M  END
>  <smiles>  (43) 
CN(C)C(=O)CNC(=O)CNC(=O)c1ccc2cc(F)ccc2n1

>  <score_type>  (43) 
oracle

>  <origin>  (43) 
autodockgpu

>  <m_score__min__energy>  (43) 
-7.7199999999999998

>  <m_primary>  (43) 
energy

>  <rmsd>  (43) 
5.487658248220145

>  <m_score__min__rmsd>  (43) 
5.487658248220145

>  <meeko>  (43) 
{"free_energy": -7.61, "intermolecular_energy": -9.1, "internal_energy": -1.15, "cluster_size": 49, "cluster_id": 1, "rank_in_cluster": 3}

>  <energy>  (43) 
-6.19

>  <cluster_rmsd>  (43) 
1.8

>  <cluster>  (43) 
1

$$$$

     RDKit          3D

 41 42  0  0  0  0  0  0  0  0999 V2000
  142.1070   79.2820  222.6400 C   0  0  0  0  0  0  0  0  0  0  0  0
  140.8090   78.6800  222.8700 N   0  0  0  0  0  0  0  0  0  0  0  0
  139.9210   79.3950  223.7850 C   0  0  0  0  0  0  0  0  0  0  0  0
  140.4080   77.4540  222.2440 C   0  0  0  0  0  0  0  0  0  0  0  0
  139.2730   77.0140  222.5040 O   0  0  0  0  0  0  0  0  0  0  0  0
  141.3810   76.8090  221.3340 C   0  0  0  0  0  0  0  0  0  0  0  0
  140.8900   75.4820  221.0160 N   0  0  0  0  0  0  0  0  0  0  0  0
  141.8120   74.4960  220.5870 C   0  0  0  0  0  0  0  0  0  0  0  0
  143.0480   74.8060  220.4900 O   0  0  0  0  0  0  0  0  0  0  0  0
  141.4600   73.1070  220.2330 C   0  0  0  0  0  0  0  0  0  0  0  0
  141.2790   72.2410  221.3640 N   0  0  0  0  0  0  0  0  0  0  0  0
  140.3360   72.5160  222.3920 C   0  0  0  0  0  0  0  0  0  0  0  0
  139.5970   73.5580  222.3770 O   0  0  0  0  0  0  0  0  0  0  0  0
  140.1990   71.5730  223.5210 C   0  0  0  0  0  0  0  0  0  0  0  0
  139.5700   70.3630  223.3360 C   0  0  0  0  0  0  0  0  0  0  0  0
  139.4240   69.4560  224.3670 C   0  0  0  0  0  0  0  0  0  0  0  0
  139.9340   69.8030  225.6160 C   0  0  0  0  0  0  0  0  0  0  0  0
  139.8160   68.9410  226.6750 C   0  0  0  0  0  0  0  0  0  0  0  0
  140.3330   69.3020  227.9230 C   0  0  0  0  0  0  0  0  0  0  0  0
  140.2340   68.4720  228.9940 F   0  0  0  0  0  0  0  0  0  0  0  0
  140.9570   70.5380  228.0510 C   0  0  0  0  0  0  0  0  0  0  0  0
  141.0820   71.4110  226.9960 C   0  0  0  0  0  0  0  0  0  0  0  0
  140.5660   71.0370  225.7760 C   0  0  0  0  0  0  0  0  0  0  0  0
  140.6910   71.9010  224.7370 N   0  0  0  0  0  0  0  0  0  0  0  0
  142.5847   79.5036  223.6058 H   0  0  0  0  0  0  0  0  0  0  0  0
  142.7386   78.5849  222.0698 H   0  0  0  0  0  0  0  0  0  0  0  0
  141.9829   80.2145  222.0698 H   0  0  0  0  0  0  0  0  0  0  0  0
  140.2039   79.1672  224.8233 H   0  0  0  0  0  0  0  0  0  0  0  0
  140.0087   80.4775  223.6101 H   0  0  0  0  0  0  0  0  0  0  0  0
  138.8822   79.0783  223.6101 H   0  0  0  0  0  0  0  0  0  0  0  0
  141.4785   77.4012  220.4122 H   0  0  0  0  0  0  0  0  0  0  0  0
  142.3680   76.7447  221.8154 H   0  0  0  0  0  0  0  0  0  0  0  0
  139.8740   75.2740  221.0940 H   0  0  0  0  0  0  0  0  0  0  0  0
  140.5226   73.1242  219.6577 H   0  0  0  0  0  0  0  0  0  0  0  0
  142.3053   72.7030  219.6565 H   0  0  0  0  0  0  0  0  0  0  0  0
  141.8430   71.3560  221.4780 H   0  0  0  0  0  0  0  0  0  0  0  0
  139.1733   70.1119  222.3412 H   0  0  0  0  0  0  0  0  0  0  0  0
  138.9212   68.4908  224.2072 H   0  0  0  0  0  0  0  0  0  0  0  0
  139.3168   67.9696  226.5437 H   0  0  0  0  0  0  0  0  0  0  0  0
  141.3650   70.8276  229.0306 H   0  0  0  0  0  0  0  0  0  0  0  0
  141.5813   72.3828  227.1237 H   0  0  0  0  0  0  0  0  0  0  0  0
  1  2  1  0
  2  3  1  0
  2  4  1  0
  4  5  2  0
  4  6  1  0
  6  7  1  0
  7  8  1  0
  8  9  2  0
  8 10  1  0
 10 11  1  0
 11 12  1  0
 12 13  2  0
 12 14  1  0
 14 15  2  0
 15 16  1  0
 16 17  2  0
 17 18  1  0
 18 19  2  0
 19 20  1  0
 19 21  1  0
 21 22  2  0
 22 23  1  0
 23 24  2  0
 24 14  1  0
 23 17  1  0
  1 25  1  0
  1 26  1  0
  1 27  1  0
  3 28  1  0
  3 29  1  0
  3 30  1  0
  6 31  1  0
  6 32  1  0
  7 33  1  0
 10 34  1  0
 10 35  1  0
 11 36  1  0
 15 37  1  0
 16 38  1  0
 18 39  1  0
 21 40  1  0
 22 41  1  0
M  END
>  <smiles>  (44) 
CN(C)C(=O)CNC(=O)CNC(=O)c1ccc2cc(F)ccc2n1

>  <score_type>  (44) 
oracle

>  <origin>  (44) 
autodockgpu

>  <m_score__min__energy>  (44) 
-7.7199999999999998

>  <m_primary>  (44) 
energy

>  <rmsd>  (44) 
4.929860897853674

>  <m_score__min__rmsd>  (44) 
4.929860897853674

>  <meeko>  (44) 
{"free_energy": -6.49, "intermolecular_energy": -7.99, "internal_energy": -2.05, "cluster_size": 49, "cluster_id": 1, "rank_in_cluster": 26}

>  <energy>  (44) 
-6.19

>  <cluster_rmsd>  (44) 
1.9

>  <cluster>  (44) 
1

$$$$

     RDKit          3D

 41 42  0  0  0  0  0  0  0  0999 V2000
  142.1440   79.2700  222.5120 C   0  0  0  0  0  0  0  0  0  0  0  0
  140.8420   78.7180  222.8280 N   0  0  0  0  0  0  0  0  0  0  0  0
  139.9840   79.5390  223.6810 C   0  0  0  0  0  0  0  0  0  0  0  0
  140.4080   77.4420  222.3380 C   0  0  0  0  0  0  0  0  0  0  0  0
  139.2720   77.0520  222.6630 O   0  0  0  0  0  0  0  0  0  0  0  0
  141.3520   76.6900  221.4810 C   0  0  0  0  0  0  0  0  0  0  0  0
  140.7820   75.3820  221.2220 N   0  0  0  0  0  0  0  0  0  0  0  0
  141.5650   74.4160  220.5460 C   0  0  0  0  0  0  0  0  0  0  0  0
  142.7490   74.7260  220.1800 O   0  0  0  0  0  0  0  0  0  0  0  0
  141.1210   73.0470  220.2170 C   0  0  0  0  0  0  0  0  0  0  0  0
  141.0280   72.1710  221.3510 N   0  0  0  0  0  0  0  0  0  0  0  0
  140.2650   72.4990  222.5060 C   0  0  0  0  0  0  0  0  0  0  0  0
  139.6220   73.5980  222.6080 O   0  0  0  0  0  0  0  0  0  0  0  0
  140.2090   71.5430  223.6310 C   0  0  0  0  0  0  0  0  0  0  0  0
  139.6760   70.2880  223.4440 C   0  0  0  0  0  0  0  0  0  0  0  0
  139.6070   69.3680  224.4720 C   0  0  0  0  0  0  0  0  0  0  0  0
  140.0940   69.7490  225.7200 C   0  0  0  0  0  0  0  0  0  0  0  0
  140.0500   68.8760  226.7750 C   0  0  0  0  0  0  0  0  0  0  0  0
  140.5430   69.2720  228.0230 C   0  0  0  0  0  0  0  0  0  0  0  0
  140.5150   68.4330  229.0900 F   0  0  0  0  0  0  0  0  0  0  0  0
  141.0690   70.5530  228.1530 C   0  0  0  0  0  0  0  0  0  0  0  0
  141.1190   71.4370  227.1010 C   0  0  0  0  0  0  0  0  0  0  0  0
  140.6280   71.0290  225.8820 C   0  0  0  0  0  0  0  0  0  0  0  0
  140.6790   71.9040  224.8470 N   0  0  0  0  0  0  0  0  0  0  0  0
  142.6817   79.4980  223.4442 H   0  0  0  0  0  0  0  0  0  0  0  0
  142.7199   78.5386  221.9260 H   0  0  0  0  0  0  0  0  0  0  0  0
  142.0188   80.1924  221.9260 H   0  0  0  0  0  0  0  0  0  0  0  0
  140.2060   79.3266  224.7372 H   0  0  0  0  0  0  0  0  0  0  0  0
  140.1712   80.6030  223.4738 H   0  0  0  0  0  0  0  0  0  0  0  0
  138.9293   79.3051  223.4738 H   0  0  0  0  0  0  0  0  0  0  0  0
  141.5019   77.2258  220.5321 H   0  0  0  0  0  0  0  0  0  0  0  0
  142.3251   76.5887  221.9839 H   0  0  0  0  0  0  0  0  0  0  0  0
  139.8080   75.1730  221.5220 H   0  0  0  0  0  0  0  0  0  0  0  0
  140.1285   73.1096  219.7469 H   0  0  0  0  0  0  0  0  0  0  0  0
  141.8825   72.6194  219.5482 H   0  0  0  0  0  0  0  0  0  0  0  0
  141.5250   71.2410  221.3730 H   0  0  0  0  0  0  0  0  0  0  0  0
  139.2951   70.0104  222.4501 H   0  0  0  0  0  0  0  0  0  0  0  0
  139.1812   68.3667  224.3102 H   0  0  0  0  0  0  0  0  0  0  0  0
  139.6291   67.8685  226.6414 H   0  0  0  0  0  0  0  0  0  0  0  0
  141.4586   70.8700  229.1316 H   0  0  0  0  0  0  0  0  0  0  0  0
  141.5408   72.4446  227.2306 H   0  0  0  0  0  0  0  0  0  0  0  0
  1  2  1  0
  2  3  1  0
  2  4  1  0
  4  5  2  0
  4  6  1  0
  6  7  1  0
  7  8  1  0
  8  9  2  0
  8 10  1  0
 10 11  1  0
 11 12  1  0
 12 13  2  0
 12 14  1  0
 14 15  2  0
 15 16  1  0
 16 17  2  0
 17 18  1  0
 18 19  2  0
 19 20  1  0
 19 21  1  0
 21 22  2  0
 22 23  1  0
 23 24  2  0
 24 14  1  0
 23 17  1  0
  1 25  1  0
  1 26  1  0
  1 27  1  0
  3 28  1  0
  3 29  1  0
  3 30  1  0
  6 31  1  0
  6 32  1  0
  7 33  1  0
 10 34  1  0
 10 35  1  0
 11 36  1  0
 15 37  1  0
 16 38  1  0
 18 39  1  0
 21 40  1  0
 22 41  1  0
M  END
>  <smiles>  (45) 
CN(C)C(=O)CNC(=O)CNC(=O)c1ccc2cc(F)ccc2n1

>  <score_type>  (45) 
oracle

>  <origin>  (45) 
autodockgpu

>  <m_score__min__energy>  (45) 
-7.7199999999999998

>  <m_primary>  (45) 
energy

>  <rmsd>  (45) 
4.8708747004721555

>  <m_score__min__rmsd>  (45) 
4.8708747004721555

>  <meeko>  (45) 
{"free_energy": -6.38, "intermolecular_energy": -7.87, "internal_energy": -2.04, "cluster_size": 49, "cluster_id": 1, "rank_in_cluster": 36}

>  <energy>  (45) 
-6.18

>  <cluster_rmsd>  (45) 
1.84

>  <cluster>  (45) 
1

$$$$

     RDKit          3D

 41 42  0  0  0  0  0  0  0  0999 V2000
  139.3940   80.4530  222.6000 C   0  0  0  0  0  0  0  0  0  0  0  0
  140.6670   79.9890  223.1150 N   0  0  0  0  0  0  0  0  0  0  0  0
  141.5170   81.0020  223.7390 C   0  0  0  0  0  0  0  0  0  0  0  0
  141.0800   78.6190  223.0250 C   0  0  0  0  0  0  0  0  0  0  0  0
  142.1910   78.3160  223.4960 O   0  0  0  0  0  0  0  0  0  0  0  0
  140.1460   77.6730  222.3760 C   0  0  0  0  0  0  0  0  0  0  0  0
  140.8580   76.4330  222.1300 N   0  0  0  0  0  0  0  0  0  0  0  0
  140.1390   75.3170  221.6370 C   0  0  0  0  0  0  0  0  0  0  0  0
  138.8840   75.4340  221.4260 O   0  0  0  0  0  0  0  0  0  0  0  0
  140.7280   73.9980  221.3380 C   0  0  0  0  0  0  0  0  0  0  0  0
  140.6840   73.0730  222.4350 N   0  0  0  0  0  0  0  0  0  0  0  0
  139.6910   72.0590  222.5390 C   0  0  0  0  0  0  0  0  0  0  0  0
  138.7720   71.9150  221.6640 O   0  0  0  0  0  0  0  0  0  0  0  0
  139.7150   71.1370  223.6920 C   0  0  0  0  0  0  0  0  0  0  0  0
  139.1040   69.9070  223.6050 C   0  0  0  0  0  0  0  0  0  0  0  0
  139.1060   69.0190  224.6620 C   0  0  0  0  0  0  0  0  0  0  0  0
  139.7490   69.4050  225.8360 C   0  0  0  0  0  0  0  0  0  0  0  0
  139.7810   68.5630  226.9160 C   0  0  0  0  0  0  0  0  0  0  0  0
  140.4310   68.9630  228.0880 C   0  0  0  0  0  0  0  0  0  0  0  0
  140.4830   68.1540  229.1770 F   0  0  0  0  0  0  0  0  0  0  0  0
  141.0310   70.2180  228.1190 C   0  0  0  0  0  0  0  0  0  0  0  0
  141.0060   71.0710  227.0410 C   0  0  0  0  0  0  0  0  0  0  0  0
  140.3610   70.6580  225.8980 C   0  0  0  0  0  0  0  0  0  0  0  0
  140.3370   71.5040  224.8360 N   0  0  0  0  0  0  0  0  0  0  0  0
  138.7258   80.6966  223.4392 H   0  0  0  0  0  0  0  0  0  0  0  0
  139.5526   81.3511  221.9850 H   0  0  0  0  0  0  0  0  0  0  0  0
  138.9375   79.6634  221.9850 H   0  0  0  0  0  0  0  0  0  0  0  0
  141.4457   80.9170  224.8334 H   0  0  0  0  0  0  0  0  0  0  0  0
  142.5604   80.8482  223.4265 H   0  0  0  0  0  0  0  0  0  0  0  0
  141.1844   82.0029  223.4265 H   0  0  0  0  0  0  0  0  0  0  0  0
  139.2870   77.4848  223.0369 H   0  0  0  0  0  0  0  0  0  0  0  0
  139.7748   78.0932  221.4296 H   0  0  0  0  0  0  0  0  0  0  0  0
  141.8770   76.3740  222.3290 H   0  0  0  0  0  0  0  0  0  0  0  0
  140.1781   73.5579  220.4930 H   0  0  0  0  0  0  0  0  0  0  0  0
  141.7905   74.1697  221.1109 H   0  0  0  0  0  0  0  0  0  0  0  0
  141.3930   73.1070  223.2160 H   0  0  0  0  0  0  0  0  0  0  0  0
  138.6008   69.6240  222.6687 H   0  0  0  0  0  0  0  0  0  0  0  0
  138.6155   68.0379  224.5798 H   0  0  0  0  0  0  0  0  0  0  0  0
  139.2975   67.5764  226.8617 H   0  0  0  0  0  0  0  0  0  0  0  0
  141.5432   70.5389  229.0380 H   0  0  0  0  0  0  0  0  0  0  0  0
  141.4891   72.0580  227.0910 H   0  0  0  0  0  0  0  0  0  0  0  0
  1  2  1  0
  2  3  1  0
  2  4  1  0
  4  5  2  0
  4  6  1  0
  6  7  1  0
  7  8  1  0
  8  9  2  0
  8 10  1  0
 10 11  1  0
 11 12  1  0
 12 13  2  0
 12 14  1  0
 14 15  2  0
 15 16  1  0
 16 17  2  0
 17 18  1  0
 18 19  2  0
 19 20  1  0
 19 21  1  0
 21 22  2  0
 22 23  1  0
 23 24  2  0
 24 14  1  0
 23 17  1  0
  1 25  1  0
  1 26  1  0
  1 27  1  0
  3 28  1  0
  3 29  1  0
  3 30  1  0
  6 31  1  0
  6 32  1  0
  7 33  1  0
 10 34  1  0
 10 35  1  0
 11 36  1  0
 15 37  1  0
 16 38  1  0
 18 39  1  0
 21 40  1  0
 22 41  1  0
M  END
>  <smiles>  (46) 
CN(C)C(=O)CNC(=O)CNC(=O)c1ccc2cc(F)ccc2n1

>  <score_type>  (46) 
oracle

>  <origin>  (46) 
autodockgpu

>  <m_score__min__energy>  (46) 
-7.7199999999999998

>  <m_primary>  (46) 
energy

>  <rmsd>  (46) 
5.117686179358758

>  <m_score__min__rmsd>  (46) 
5.117686179358758

>  <meeko>  (46) 
{"free_energy": -6.6, "intermolecular_energy": -8.09, "internal_energy": -1.64, "cluster_size": 49, "cluster_id": 1, "rank_in_cluster": 20}

>  <energy>  (46) 
-6.13

>  <cluster_rmsd>  (46) 
1.88

>  <cluster>  (46) 
1

$$$$

     RDKit          3D

 41 42  0  0  0  0  0  0  0  0999 V2000
  141.1510   80.9490  222.1090 C   0  0  0  0  0  0  0  0  0  0  0  0
  141.8280   80.1440  223.1070 N   0  0  0  0  0  0  0  0  0  0  0  0
  142.8630   80.8210  223.8860 C   0  0  0  0  0  0  0  0  0  0  0  0
  141.5100   78.7630  223.3250 C   0  0  0  0  0  0  0  0  0  0  0  0
  142.1460   78.1540  224.2050 O   0  0  0  0  0  0  0  0  0  0  0  0
  140.4460   78.1730  222.4840 C   0  0  0  0  0  0  0  0  0  0  0  0
  140.7870   76.7850  222.2330 N   0  0  0  0  0  0  0  0  0  0  0  0
  139.8800   75.9790  221.5020 C   0  0  0  0  0  0  0  0  0  0  0  0
  138.7870   76.4970  221.0900 O   0  0  0  0  0  0  0  0  0  0  0  0
  140.0920   74.5570  221.1690 C   0  0  0  0  0  0  0  0  0  0  0  0
  139.8930   73.6590  222.2710 N   0  0  0  0  0  0  0  0  0  0  0  0
  140.4970   72.3720  222.3250 C   0  0  0  0  0  0  0  0  0  0  0  0
  141.2500   71.9340  221.3900 O   0  0  0  0  0  0  0  0  0  0  0  0
  140.2530   71.5060  223.4960 C   0  0  0  0  0  0  0  0  0  0  0  0
  139.5690   70.3210  223.3470 C   0  0  0  0  0  0  0  0  0  0  0  0
  139.3220   69.4860  224.4190 C   0  0  0  0  0  0  0  0  0  0  0  0
  139.7890   69.8780  225.6710 C   0  0  0  0  0  0  0  0  0  0  0  0
  139.5730   69.0870  226.7690 C   0  0  0  0  0  0  0  0  0  0  0  0
  140.0470   69.4930  228.0200 C   0  0  0  0  0  0  0  0  0  0  0  0
  139.8510   68.7340  229.1290 F   0  0  0  0  0  0  0  0  0  0  0  0
  140.7330   70.7000  228.1100 C   0  0  0  0  0  0  0  0  0  0  0  0
  140.9570   71.5020  227.0150 C   0  0  0  0  0  0  0  0  0  0  0  0
  140.4810   71.0850  225.7940 C   0  0  0  0  0  0  0  0  0  0  0  0
  140.7030   71.8790  224.7160 N   0  0  0  0  0  0  0  0  0  0  0  0
  140.5204   81.6989  222.6090 H   0  0  0  0  0  0  0  0  0  0  0  0
  141.8969   81.4575  221.4804 H   0  0  0  0  0  0  0  0  0  0  0  0
  140.5221   80.3013  221.4804 H   0  0  0  0  0  0  0  0  0  0  0  0
  142.6601   80.6883  224.9589 H   0  0  0  0  0  0  0  0  0  0  0  0
  143.8456   80.3905  223.6427 H   0  0  0  0  0  0  0  0  0  0  0  0
  142.8623   81.8937  223.6427 H   0  0  0  0  0  0  0  0  0  0  0  0
  139.4810   78.2308  223.0088 H   0  0  0  0  0  0  0  0  0  0  0  0
  140.3621   78.7224  221.5347 H   0  0  0  0  0  0  0  0  0  0  0  0
  141.6800   76.3970  222.5990 H   0  0  0  0  0  0  0  0  0  0  0  0
  139.3897   74.2817  220.3684 H   0  0  0  0  0  0  0  0  0  0  0  0
  141.1445   74.4568  220.8655 H   0  0  0  0  0  0  0  0  0  0  0  0
  139.2850   73.9200  223.0930 H   0  0  0  0  0  0  0  0  0  0  0  0
  139.2098   70.0315  222.3484 H   0  0  0  0  0  0  0  0  0  0  0  0
  138.7738   68.5414  224.2880 H   0  0  0  0  0  0  0  0  0  0  0  0
  139.0289   68.1365  226.6665 H   0  0  0  0  0  0  0  0  0  0  0  0
  141.1095   71.0245  229.0913 H   0  0  0  0  0  0  0  0  0  0  0  0
  141.5026   72.4521  227.1135 H   0  0  0  0  0  0  0  0  0  0  0  0
  1  2  1  0
  2  3  1  0
  2  4  1  0
  4  5  2  0
  4  6  1  0
  6  7  1  0
  7  8  1  0
  8  9  2  0
  8 10  1  0
 10 11  1  0
 11 12  1  0
 12 13  2  0
 12 14  1  0
 14 15  2  0
 15 16  1  0
 16 17  2  0
 17 18  1  0
 18 19  2  0
 19 20  1  0
 19 21  1  0
 21 22  2  0
 22 23  1  0
 23 24  2  0
 24 14  1  0
 23 17  1  0
  1 25  1  0
  1 26  1  0
  1 27  1  0
  3 28  1  0
  3 29  1  0
  3 30  1  0
  6 31  1  0
  6 32  1  0
  7 33  1  0
 10 34  1  0
 10 35  1  0
 11 36  1  0
 15 37  1  0
 16 38  1  0
 18 39  1  0
 21 40  1  0
 22 41  1  0
M  END
>  <smiles>  (47) 
CN(C)C(=O)CNC(=O)CNC(=O)c1ccc2cc(F)ccc2n1

>  <score_type>  (47) 
oracle

>  <origin>  (47) 
autodockgpu

>  <m_score__min__energy>  (47) 
-7.7199999999999998

>  <m_primary>  (47) 
energy

>  <rmsd>  (47) 
5.423074978561797

>  <m_score__min__rmsd>  (47) 
5.423074978561797

>  <meeko>  (47) 
{"free_energy": -7.55, "intermolecular_energy": -9.04, "internal_energy": -1.24, "cluster_size": 49, "cluster_id": 1, "rank_in_cluster": 4}

>  <energy>  (47) 
-6.09

>  <cluster_rmsd>  (47) 
1.97

>  <cluster>  (47) 
1

$$$$

     RDKit          3D

 41 42  0  0  0  0  0  0  0  0999 V2000
  142.0030   79.2880  222.6770 C   0  0  0  0  0  0  0  0  0  0  0  0
  140.7000   78.6750  222.8440 N   0  0  0  0  0  0  0  0  0  0  0  0
  139.7590   79.3880  223.7060 C   0  0  0  0  0  0  0  0  0  0  0  0
  140.3440   77.4410  222.2070 C   0  0  0  0  0  0  0  0  0  0  0  0
  139.2010   76.9930  222.4100 O   0  0  0  0  0  0  0  0  0  0  0  0
  141.3690   76.8000  221.3540 C   0  0  0  0  0  0  0  0  0  0  0  0
  140.9160   75.4590  221.0350 N   0  0  0  0  0  0  0  0  0  0  0  0
  141.8720   74.4880  220.6510 C   0  0  0  0  0  0  0  0  0  0  0  0
  143.1040   74.8210  220.5930 O   0  0  0  0  0  0  0  0  0  0  0  0
  141.5600   73.0880  220.3020 C   0  0  0  0  0  0  0  0  0  0  0  0
  141.3470   72.2330  221.4360 N   0  0  0  0  0  0  0  0  0  0  0  0
  140.3450   72.4950  222.4110 C   0  0  0  0  0  0  0  0  0  0  0  0
  139.5770   73.5140  222.3400 O   0  0  0  0  0  0  0  0  0  0  0  0
  140.1770   71.5660  223.5460 C   0  0  0  0  0  0  0  0  0  0  0  0
  139.4990   70.3810  223.3740 C   0  0  0  0  0  0  0  0  0  0  0  0
  139.3230   69.4870  224.4110 C   0  0  0  0  0  0  0  0  0  0  0  0
  139.8560   69.8200  225.6540 C   0  0  0  0  0  0  0  0  0  0  0  0
  139.7100   68.9700  226.7190 C   0  0  0  0  0  0  0  0  0  0  0  0
  140.2510   69.3170  227.9620 C   0  0  0  0  0  0  0  0  0  0  0  0
  140.1260   68.4990  229.0380 F   0  0  0  0  0  0  0  0  0  0  0  0
  140.9260   70.5280  228.0770 C   0  0  0  0  0  0  0  0  0  0  0  0
  141.0790   71.3890  227.0150 C   0  0  0  0  0  0  0  0  0  0  0  0
  140.5390   71.0290  225.8020 C   0  0  0  0  0  0  0  0  0  0  0  0
  140.6920   71.8810  224.7570 N   0  0  0  0  0  0  0  0  0  0  0  0
  142.4407   79.4939  223.6650 H   0  0  0  0  0  0  0  0  0  0  0  0
  142.6609   78.6049  222.1197 H   0  0  0  0  0  0  0  0  0  0  0  0
  141.8962   80.2303  222.1197 H   0  0  0  0  0  0  0  0  0  0  0  0
  140.0104   79.1975  224.7598 H   0  0  0  0  0  0  0  0  0  0  0  0
  139.8217   80.4674  223.5034 H   0  0  0  0  0  0  0  0  0  0  0  0
  138.7368   79.0356  223.5034 H   0  0  0  0  0  0  0  0  0  0  0  0
  141.4992   77.3796  220.4282 H   0  0  0  0  0  0  0  0  0  0  0  0
  142.3335   76.7609  221.8815 H   0  0  0  0  0  0  0  0  0  0  0  0
  139.9020   75.2320  221.0800 H   0  0  0  0  0  0  0  0  0  0  0  0
  140.6474   73.0805  219.6879 H   0  0  0  0  0  0  0  0  0  0  0  0
  142.4361   72.6923  219.7674 H   0  0  0  0  0  0  0  0  0  0  0  0
  141.9300   71.3680  221.5930 H   0  0  0  0  0  0  0  0  0  0  0  0
  139.0861   70.1396  222.3834 H   0  0  0  0  0  0  0  0  0  0  0  0
  138.7796   68.5425  224.2606 H   0  0  0  0  0  0  0  0  0  0  0  0
  139.1701   68.0194  226.5973 H   0  0  0  0  0  0  0  0  0  0  0  0
  141.3526   70.8070  229.0518 H   0  0  0  0  0  0  0  0  0  0  0  0
  141.6188   72.3402  227.1326 H   0  0  0  0  0  0  0  0  0  0  0  0
  1  2  1  0
  2  3  1  0
  2  4  1  0
  4  5  2  0
  4  6  1  0
  6  7  1  0
  7  8  1  0
  8  9  2  0
  8 10  1  0
 10 11  1  0
 11 12  1  0
 12 13  2  0
 12 14  1  0
 14 15  2  0
 15 16  1  0
 16 17  2  0
 17 18  1  0
 18 19  2  0
 19 20  1  0
 19 21  1  0
 21 22  2  0
 22 23  1  0
 23 24  2  0
 24 14  1  0
 23 17  1  0
  1 25  1  0
  1 26  1  0
  1 27  1  0
  3 28  1  0
  3 29  1  0
  3 30  1  0
  6 31  1  0
  6 32  1  0
  7 33  1  0
 10 34  1  0
 10 35  1  0
 11 36  1  0
 15 37  1  0
 16 38  1  0
 18 39  1  0
 21 40  1  0
 22 41  1  0
M  END
>  <smiles>  (48) 
CN(C)C(=O)CNC(=O)CNC(=O)c1ccc2cc(F)ccc2n1

>  <score_type>  (48) 
oracle

>  <origin>  (48) 
autodockgpu

>  <m_score__min__energy>  (48) 
-7.7199999999999998

>  <m_primary>  (48) 
energy

>  <rmsd>  (48) 
4.921796863832988

>  <m_score__min__rmsd>  (48) 
4.921796863832988

>  <meeko>  (48) 
{"free_energy": -6.46, "intermolecular_energy": -7.96, "internal_energy": -2.06, "cluster_size": 49, "cluster_id": 1, "rank_in_cluster": 30}

>  <energy>  (48) 
-6.08

>  <cluster_rmsd>  (48) 
1.95

>  <cluster>  (48) 
1

$$$$

     RDKit          3D

 41 42  0  0  0  0  0  0  0  0999 V2000
  139.2060   79.2960  223.1550 C   0  0  0  0  0  0  0  0  0  0  0  0
  140.2990   78.4080  222.8120 N   0  0  0  0  0  0  0  0  0  0  0  0
  141.6440   78.9720  222.9140 C   0  0  0  0  0  0  0  0  0  0  0  0
  140.0860   77.0520  222.3940 C   0  0  0  0  0  0  0  0  0  0  0  0
  141.0870   76.3660  222.1200 O   0  0  0  0  0  0  0  0  0  0  0  0
  138.6860   76.5780  222.3250 C   0  0  0  0  0  0  0  0  0  0  0  0
  138.7050   75.1420  222.1230 N   0  0  0  0  0  0  0  0  0  0  0  0
  138.4240   74.6280  220.8340 C   0  0  0  0  0  0  0  0  0  0  0  0
  138.1570   75.4440  219.8880 O   0  0  0  0  0  0  0  0  0  0  0  0
  138.4110   73.1960  220.4800 C   0  0  0  0  0  0  0  0  0  0  0  0
  138.5560   72.3110  221.6010 N   0  0  0  0  0  0  0  0  0  0  0  0
  139.6600   72.3880  222.4950 C   0  0  0  0  0  0  0  0  0  0  0  0
  140.5960   73.2460  222.3490 O   0  0  0  0  0  0  0  0  0  0  0  0
  139.7380   71.4500  223.6330 C   0  0  0  0  0  0  0  0  0  0  0  0
  139.2230   70.1790  223.5160 C   0  0  0  0  0  0  0  0  0  0  0  0
  139.2770   69.2750  224.5580 C   0  0  0  0  0  0  0  0  0  0  0  0
  139.8730   69.6880  225.7480 C   0  0  0  0  0  0  0  0  0  0  0  0
  139.9540   68.8310  226.8140 C   0  0  0  0  0  0  0  0  0  0  0  0
  140.5560   69.2590  228.0020 C   0  0  0  0  0  0  0  0  0  0  0  0
  140.6540   68.4370  229.0780 F   0  0  0  0  0  0  0  0  0  0  0  0
  141.0580   70.5540  228.0630 C   0  0  0  0  0  0  0  0  0  0  0  0
  140.9830   71.4230  226.9990 C   0  0  0  0  0  0  0  0  0  0  0  0
  140.3870   70.9830  225.8400 C   0  0  0  0  0  0  0  0  0  0  0  0
  140.3150   71.8420  224.7920 N   0  0  0  0  0  0  0  0  0  0  0  0
  139.1200   79.3659  224.2494 H   0  0  0  0  0  0  0  0  0  0  0  0
  139.4006   80.2951  222.7380 H   0  0  0  0  0  0  0  0  0  0  0  0
  138.2679   78.9009  222.7380 H   0  0  0  0  0  0  0  0  0  0  0  0
  141.9146   79.0855  223.9741 H   0  0  0  0  0  0  0  0  0  0  0  0
  142.3620   78.2992  222.4223 H   0  0  0  0  0  0  0  0  0  0  0  0
  141.6674   79.9557  222.4223 H   0  0  0  0  0  0  0  0  0  0  0  0
  138.1655   76.8153  223.2645 H   0  0  0  0  0  0  0  0  0  0  0  0
  138.1572   77.0720  221.4965 H   0  0  0  0  0  0  0  0  0  0  0  0
  138.9120   74.5100  222.9230 H   0  0  0  0  0  0  0  0  0  0  0  0
  137.4546   72.9718  219.9850 H   0  0  0  0  0  0  0  0  0  0  0  0
  139.2796   73.0240  219.8273 H   0  0  0  0  0  0  0  0  0  0  0  0
  137.8430   71.5630  221.8110 H   0  0  0  0  0  0  0  0  0  0  0  0
  138.7561   69.8755  222.5674 H   0  0  0  0  0  0  0  0  0  0  0  0
  138.8629   68.2614  224.4523 H   0  0  0  0  0  0  0  0  0  0  0  0
  139.5478   67.8117  226.7360 H   0  0  0  0  0  0  0  0  0  0  0  0
  141.5319   70.8960  228.9949 H   0  0  0  0  0  0  0  0  0  0  0  0
  141.3889   72.4427  227.0732 H   0  0  0  0  0  0  0  0  0  0  0  0
  1  2  1  0
  2  3  1  0
  2  4  1  0
  4  5  2  0
  4  6  1  0
  6  7  1  0
  7  8  1  0
  8  9  2  0
  8 10  1  0
 10 11  1  0
 11 12  1  0
 12 13  2  0
 12 14  1  0
 14 15  2  0
 15 16  1  0
 16 17  2  0
 17 18  1  0
 18 19  2  0
 19 20  1  0
 19 21  1  0
 21 22  2  0
 22 23  1  0
 23 24  2  0
 24 14  1  0
 23 17  1  0
  1 25  1  0
  1 26  1  0
  1 27  1  0
  3 28  1  0
  3 29  1  0
  3 30  1  0
  6 31  1  0
  6 32  1  0
  7 33  1  0
 10 34  1  0
 10 35  1  0
 11 36  1  0
 15 37  1  0
 16 38  1  0
 18 39  1  0
 21 40  1  0
 22 41  1  0
M  END
>  <smiles>  (49) 
CN(C)C(=O)CNC(=O)CNC(=O)c1ccc2cc(F)ccc2n1

>  <score_type>  (49) 
oracle

>  <origin>  (49) 
autodockgpu

>  <m_score__min__energy>  (49) 
-7.7199999999999998

>  <m_primary>  (49) 
energy

>  <rmsd>  (49) 
4.527053726512239

>  <m_score__min__rmsd>  (49) 
4.527053726512239

>  <meeko>  (49) 
{"free_energy": -6.77, "intermolecular_energy": -8.26, "internal_energy": -1.61, "cluster_size": 49, "cluster_id": 1, "rank_in_cluster": 15}

>  <energy>  (49) 
-6.0

>  <cluster_rmsd>  (49) 
1.91

>  <cluster>  (49) 
1

$$$$

     RDKit          3D

 41 42  0  0  0  0  0  0  0  0999 V2000
  141.5240   80.9380  221.8230 C   0  0  0  0  0  0  0  0  0  0  0  0
  141.9540   80.1570  222.9660 N   0  0  0  0  0  0  0  0  0  0  0  0
  142.9280   80.7930  223.8500 C   0  0  0  0  0  0  0  0  0  0  0  0
  141.4590   78.8360  223.2240 C   0  0  0  0  0  0  0  0  0  0  0  0
  141.8860   78.2440  224.2310 O   0  0  0  0  0  0  0  0  0  0  0  0
  140.4740   78.2840  222.2680 C   0  0  0  0  0  0  0  0  0  0  0  0
  140.8550   76.9170  221.9680 N   0  0  0  0  0  0  0  0  0  0  0  0
  139.8550   76.0030  221.5560 C   0  0  0  0  0  0  0  0  0  0  0  0
  138.6460   76.4080  221.4640 O   0  0  0  0  0  0  0  0  0  0  0  0
  140.0920   74.5870  221.2150 C   0  0  0  0  0  0  0  0  0  0  0  0
  139.9280   73.6820  222.3170 N   0  0  0  0  0  0  0  0  0  0  0  0
  140.4130   72.3440  222.2850 C   0  0  0  0  0  0  0  0  0  0  0  0
  141.0170   71.8650  221.2670 O   0  0  0  0  0  0  0  0  0  0  0  0
  140.2150   71.4730  223.4610 C   0  0  0  0  0  0  0  0  0  0  0  0
  139.5840   70.2580  223.3210 C   0  0  0  0  0  0  0  0  0  0  0  0
  139.3830   69.4170  224.3970 C   0  0  0  0  0  0  0  0  0  0  0  0
  139.8370   69.8360  225.6450 C   0  0  0  0  0  0  0  0  0  0  0  0
  139.6630   69.0410  226.7480 C   0  0  0  0  0  0  0  0  0  0  0  0
  140.1250   69.4740  227.9940 C   0  0  0  0  0  0  0  0  0  0  0  0
  139.9700   68.7130  229.1070 F   0  0  0  0  0  0  0  0  0  0  0  0
  140.7550   70.7120  228.0760 C   0  0  0  0  0  0  0  0  0  0  0  0
  140.9360   71.5180  226.9760 C   0  0  0  0  0  0  0  0  0  0  0  0
  140.4730   71.0740  225.7590 C   0  0  0  0  0  0  0  0  0  0  0  0
  140.6540   71.8720  224.6760 N   0  0  0  0  0  0  0  0  0  0  0  0
  141.0208   81.8519  222.1717 H   0  0  0  0  0  0  0  0  0  0  0  0
  142.3992   81.2106  221.2150 H   0  0  0  0  0  0  0  0  0  0  0  0
  140.8257   80.3442  221.2150 H   0  0  0  0  0  0  0  0  0  0  0  0
  142.6470   80.6095  224.8976 H   0  0  0  0  0  0  0  0  0  0  0  0
  143.9262   80.3721  223.6590 H   0  0  0  0  0  0  0  0  0  0  0  0
  142.9441   81.8762  223.6590 H   0  0  0  0  0  0  0  0  0  0  0  0
  139.4694   78.3014  222.7159 H   0  0  0  0  0  0  0  0  0  0  0  0
  140.4574   78.8859  221.3475 H   0  0  0  0  0  0  0  0  0  0  0  0
  141.8470   76.6220  222.0690 H   0  0  0  0  0  0  0  0  0  0  0  0
  139.3840   74.2993  220.4238 H   0  0  0  0  0  0  0  0  0  0  0  0
  141.1417   74.5098  220.8955 H   0  0  0  0  0  0  0  0  0  0  0  0
  139.4380   73.9740  223.2050 H   0  0  0  0  0  0  0  0  0  0  0  0
  139.2308   69.9491  222.3261 H   0  0  0  0  0  0  0  0  0  0  0  0
  138.8801   68.4466  224.2726 H   0  0  0  0  0  0  0  0  0  0  0  0
  139.1619   68.0664  226.6529 H   0  0  0  0  0  0  0  0  0  0  0  0
  141.1209   71.0580  229.0540 H   0  0  0  0  0  0  0  0  0  0  0  0
  141.4381   72.4925  227.0672 H   0  0  0  0  0  0  0  0  0  0  0  0
  1  2  1  0
  2  3  1  0
  2  4  1  0
  4  5  2  0
  4  6  1  0
  6  7  1  0
  7  8  1  0
  8  9  2  0
  8 10  1  0
 10 11  1  0
 11 12  1  0
 12 13  2  0
 12 14  1  0
 14 15  2  0
 15 16  1  0
 16 17  2  0
 17 18  1  0
 18 19  2  0
 19 20  1  0
 19 21  1  0
 21 22  2  0
 22 23  1  0
 23 24  2  0
 24 14  1  0
 23 17  1  0
  1 25  1  0
  1 26  1  0
  1 27  1  0
  3 28  1  0
  3 29  1  0
  3 30  1  0
  6 31  1  0
  6 32  1  0
  7 33  1  0
 10 34  1  0
 10 35  1  0
 11 36  1  0
 15 37  1  0
 16 38  1  0
 18 39  1  0
 21 40  1  0
 22 41  1  0
M  END
>  <smiles>  (50) 
CN(C)C(=O)CNC(=O)CNC(=O)c1ccc2cc(F)ccc2n1

>  <score_type>  (50) 
oracle

>  <origin>  (50) 
autodockgpu

>  <m_score__min__energy>  (50) 
-7.7199999999999998

>  <m_primary>  (50) 
energy

>  <rmsd>  (50) 
5.430743834248923

>  <m_score__min__rmsd>  (50) 
5.430743834248923

>  <meeko>  (50) 
{"free_energy": -7.72, "intermolecular_energy": -9.21, "internal_energy": -1.07, "cluster_size": 49, "cluster_id": 1, "rank_in_cluster": 1}

>  <energy>  (50) 
-5.8

>  <cluster_rmsd>  (50) 
0.0

>  <cluster>  (50) 
2

$$$$
