
     RDKit          3D

 56 59  0  0  0  0  0  0  0  0999 V2000
  138.3390   72.6060  220.9210 O   0  0  0  0  0  0  0  0  0  0  0  0
  139.3250   72.5990  221.6800 C   0  0  0  0  0  0  0  0  0  0  0  0
  140.3650   73.5270  221.4770 N   0  0  0  0  0  0  0  0  0  0  0  0
  140.4650   74.5200  220.4820 C   0  0  0  0  0  0  0  0  0  0  0  0
  141.7900   74.9670  220.0920 C   0  0  0  0  0  0  0  0  0  0  0  0
  142.7220   74.4650  220.8650 O   0  0  0  0  0  0  0  0  0  0  0  0
  142.2590   75.8010  219.0710 N   0  0  0  0  0  0  0  0  0  0  0  0
  142.4820   75.5690  217.6490 C   0  0  0  0  0  0  0  0  0  0  0  0
  143.1040   76.8730  217.0880 C   0  0  0  0  0  0  0  0  0  0  0  0
  142.3040   77.8410  217.9970 C   0  0  2  0  0  0  0  0  0  0  0  0
  142.7310   79.1370  217.8810 O   0  0  0  0  0  0  0  0  0  0  0  0
  142.7090   77.1830  219.3080 C   0  0  1  0  0  0  0  0  0  0  0  0
  142.2060   77.8520  220.5180 C   0  0  0  0  0  0  0  0  0  0  0  0
  140.8150   77.6240  220.5620 O   0  0  0  0  0  0  0  0  0  0  0  0
  140.3140   77.8060  221.8440 C   0  0  0  0  0  0  0  0  0  0  0  0
  140.9450   79.0500  222.3580 C   0  0  0  0  0  0  0  0  0  0  0  0
  141.8380   78.9260  223.4090 C   0  0  0  0  0  0  0  0  0  0  0  0
  142.4850   80.0110  223.9560 C   0  0  0  0  0  0  0  0  0  0  0  0
  142.2140   81.2500  223.4220 C   0  0  0  0  0  0  0  0  0  0  0  0
  141.3240   81.4150  222.3670 C   0  0  0  0  0  0  0  0  0  0  0  0
  140.6710   80.3090  221.8150 C   0  0  0  0  0  0  0  0  0  0  0  0
  139.4170   71.6330  222.7910 C   0  0  0  0  0  0  0  0  0  0  0  0
  138.7810   70.4160  222.7670 C   0  0  0  0  0  0  0  0  0  0  0  0
  138.8590   69.5180  223.8380 C   0  0  0  0  0  0  0  0  0  0  0  0
  139.6110   69.8910  224.9520 C   0  0  0  0  0  0  0  0  0  0  0  0
  139.7580   69.1040  226.0640 C   0  0  0  0  0  0  0  0  0  0  0  0
  140.5060   69.5330  227.1360 C   0  0  0  0  0  0  0  0  0  0  0  0
  140.7150   68.5620  228.5890 Cl  0  0  0  0  0  0  0  0  0  0  0  0
  141.1240   70.7610  227.1110 C   0  0  0  0  0  0  0  0  0  0  0  0
  140.9870   71.5710  225.9920 C   0  0  0  0  0  0  0  0  0  0  0  0
  140.2200   71.1170  224.9100 C   0  0  0  0  0  0  0  0  0  0  0  0
  140.1310   71.9600  223.8740 N   0  0  0  0  0  0  0  0  0  0  0  0
  141.1780   73.4530  222.1720 H   0  0  0  0  0  0  0  0  0  0  0  0
  139.9737   74.1282  219.5792 H   0  0  0  0  0  0  0  0  0  0  0  0
  139.9990   75.4079  220.9341 H   0  0  0  0  0  0  0  0  0  0  0  0
  143.1723   74.7248  217.5044 H   0  0  0  0  0  0  0  0  0  0  0  0
  141.5434   75.3193  217.1326 H   0  0  0  0  0  0  0  0  0  0  0  0
  144.1895   76.9322  217.2561 H   0  0  0  0  0  0  0  0  0  0  0  0
  143.0356   77.0339  216.0020 H   0  0  0  0  0  0  0  0  0  0  0  0
  141.2256   77.9499  217.8093 H   0  0  0  0  0  0  0  0  0  0  0  0
  143.4130   79.1530  217.1350 H   0  0  0  0  0  0  0  0  0  0  0  0
  143.7819   77.2433  219.5429 H   0  0  0  0  0  0  0  0  0  0  0  0
  142.6874   77.4292  221.4122 H   0  0  0  0  0  0  0  0  0  0  0  0
  142.4286   78.9290  220.4947 H   0  0  0  0  0  0  0  0  0  0  0  0
  139.2199   77.9164  221.8146 H   0  0  0  0  0  0  0  0  0  0  0  0
  140.5377   76.9442  222.4900 H   0  0  0  0  0  0  0  0  0  0  0  0
  142.0373   77.9258  223.8211 H   0  0  0  0  0  0  0  0  0  0  0  0
  143.1928   79.8919  224.7895 H   0  0  0  0  0  0  0  0  0  0  0  0
  142.7156   82.1345  223.8417 H   0  0  0  0  0  0  0  0  0  0  0  0
  141.1326   82.4207  221.9646 H   0  0  0  0  0  0  0  0  0  0  0  0
  139.9642   80.4255  220.9802 H   0  0  0  0  0  0  0  0  0  0  0  0
  138.1928   70.1387  221.8798 H   0  0  0  0  0  0  0  0  0  0  0  0
  138.3427   68.5473  223.8022 H   0  0  0  0  0  0  0  0  0  0  0  0
  139.2723   68.1177  226.1000 H   0  0  0  0  0  0  0  0  0  0  0  0
  141.7219   71.0987  227.9704 H   0  0  0  0  0  0  0  0  0  0  0  0
  141.4741   72.5566  225.9548 H   0  0  0  0  0  0  0  0  0  0  0  0
  1  2  2  0
  2  3  1  0
  3  4  1  0
  4  5  1  0
  5  6  2  0
  5  7  1  0
  7  8  1  0
  8  9  1  0
  9 10  1  0
 10 11  1  0
 10 12  1  0
 12 13  1  0
 13 14  1  0
 14 15  1  0
 15 16  1  0
 16 17  2  0
 17 18  1  0
 18 19  2  0
 19 20  1  0
 20 21  2  0
  2 22  1  0
 22 23  2  0
 23 24  1  0
 24 25  2  0
 25 26  1  0
 26 27  2  0
 27 28  1  0
 27 29  1  0
 29 30  2  0
 30 31  1  0
 31 32  2  0
 12  7  1  0
 21 16  1  0
 32 22  1  0
 31 25  1  0
  3 33  1  0
  4 34  1  0
  4 35  1  0
  8 36  1  0
  8 37  1  0
  9 38  1  0
  9 39  1  0
 10 40  1  6
 11 41  1  0
 12 42  1  1
 13 43  1  0
 13 44  1  0
 15 45  1  0
 15 46  1  0
 17 47  1  0
 18 48  1  0
 19 49  1  0
 20 50  1  0
 21 51  1  0
 23 52  1  0
 24 53  1  0
 26 54  1  0
 29 55  1  0
 30 56  1  0
M  END
>  <smiles>  (1) 
O=C(NCC(=O)N1CC[C@H](O)[C@H]1COCc1ccccc1)c1ccc2cc(Cl)ccc2n1

>  <score_type>  (1) 
oracle

>  <origin>  (1) 
autodockgpu

>  <m_score__min__energy>  (1) 
-8.8699999999999992

>  <m_primary>  (1) 
energy

>  <rmsd>  (1) 
2.4397322989150028

>  <m_score__min__rmsd>  (1) 
2.4397322989150028

>  <meeko>  (1) 
{"free_energy": -8.13, "intermolecular_energy": -10.81, "internal_energy": -2.19, "cluster_size": 16, "cluster_id": 2, "rank_in_cluster": 9}

>  <energy>  (1) 
-8.87

>  <cluster_rmsd>  (1) 
0.0

>  <cluster>  (1) 
1

$$$$

     RDKit          3D

 56 59  0  0  0  0  0  0  0  0999 V2000
  136.0280   76.2400  222.4340 O   0  0  0  0  0  0  0  0  0  0  0  0
  136.7480   75.2530  222.6720 C   0  0  0  0  0  0  0  0  0  0  0  0
  136.2020   74.1420  223.3440 N   0  0  0  0  0  0  0  0  0  0  0  0
  134.8870   73.9700  223.8200 C   0  0  0  0  0  0  0  0  0  0  0  0
  134.6970   73.2330  225.0560 C   0  0  0  0  0  0  0  0  0  0  0  0
  134.6320   74.0290  226.0950 O   0  0  0  0  0  0  0  0  0  0  0  0
  134.5620   71.8710  225.3490 N   0  0  0  0  0  0  0  0  0  0  0  0
  133.6720   71.1520  226.2520 C   0  0  0  0  0  0  0  0  0  0  0  0
  134.0940   69.6620  226.1860 C   0  0  0  0  0  0  0  0  0  0  0  0
  134.4700   69.6660  224.6810 C   0  0  2  0  0  0  0  0  0  0  0  0
  135.0630   68.4950  224.2900 O   0  0  0  0  0  0  0  0  0  0  0  0
  135.4370   70.8370  224.7720 C   0  0  1  0  0  0  0  0  0  0  0  0
  136.1270   71.1680  223.5160 C   0  0  0  0  0  0  0  0  0  0  0  0
  137.4590   71.4870  223.8540 O   0  0  0  0  0  0  0  0  0  0  0  0
  138.2770   70.3670  223.7910 C   0  0  0  0  0  0  0  0  0  0  0  0
  139.2380   70.4970  224.9170 C   0  0  0  0  0  0  0  0  0  0  0  0
  139.1230   69.5980  225.9630 C   0  0  0  0  0  0  0  0  0  0  0  0
  139.9650   69.6230  227.0520 C   0  0  0  0  0  0  0  0  0  0  0  0
  140.9460   70.5880  227.0760 C   0  0  0  0  0  0  0  0  0  0  0  0
  141.0930   71.5100  226.0450 C   0  0  0  0  0  0  0  0  0  0  0  0
  140.2360   71.4780  224.9420 C   0  0  0  0  0  0  0  0  0  0  0  0
  138.1630   75.2300  222.2560 C   0  0  0  0  0  0  0  0  0  0  0  0
  138.8790   76.3770  222.0090 C   0  0  0  0  0  0  0  0  0  0  0  0
  140.2150   76.3400  221.5940 C   0  0  0  0  0  0  0  0  0  0  0  0
  140.8170   75.0910  221.4350 C   0  0  0  0  0  0  0  0  0  0  0  0
  142.1150   74.9240  221.0270 C   0  0  0  0  0  0  0  0  0  0  0  0
  142.6490   73.6650  220.8790 C   0  0  0  0  0  0  0  0  0  0  0  0
  144.3060   73.4000  220.3490 Cl  0  0  0  0  0  0  0  0  0  0  0  0
  141.8910   72.5480  221.1390 C   0  0  0  0  0  0  0  0  0  0  0  0
  140.5750   72.6990  221.5550 C   0  0  0  0  0  0  0  0  0  0  0  0
  140.0470   73.9900  221.6990 C   0  0  0  0  0  0  0  0  0  0  0  0
  138.7700   74.0490  222.0950 N   0  0  0  0  0  0  0  0  0  0  0  0
  136.8870   73.3340  223.5110 H   0  0  0  0  0  0  0  0  0  0  0  0
  134.4601   74.9728  223.9690 H   0  0  0  0  0  0  0  0  0  0  0  0
  134.3983   73.3496  223.0543 H   0  0  0  0  0  0  0  0  0  0  0  0
  133.7813   71.5335  227.2779 H   0  0  0  0  0  0  0  0  0  0  0  0
  132.6189   71.2819  225.9619 H   0  0  0  0  0  0  0  0  0  0  0  0
  134.9505   69.4337  226.8373 H   0  0  0  0  0  0  0  0  0  0  0  0
  133.3559   68.9165  226.5167 H   0  0  0  0  0  0  0  0  0  0  0  0
  133.6554   69.7527  223.9469 H   0  0  0  0  0  0  0  0  0  0  0  0
  135.9790   68.7360  223.9370 H   0  0  0  0  0  0  0  0  0  0  0  0
  136.3311   70.6517  225.3854 H   0  0  0  0  0  0  0  0  0  0  0  0
  136.1057   70.3055  222.8337 H   0  0  0  0  0  0  0  0  0  0  0  0
  135.6366   72.0107  223.0067 H   0  0  0  0  0  0  0  0  0  0  0  0
  137.6791   69.4504  223.9028 H   0  0  0  0  0  0  0  0  0  0  0  0
  138.7966   70.3018  222.8237 H   0  0  0  0  0  0  0  0  0  0  0  0
  138.3305   68.8362  225.9228 H   0  0  0  0  0  0  0  0  0  0  0  0
  139.8576   68.8984  227.8726 H   0  0  0  0  0  0  0  0  0  0  0  0
  141.6327   70.6313  227.9342 H   0  0  0  0  0  0  0  0  0  0  0  0
  141.8881   72.2683  226.0983 H   0  0  0  0  0  0  0  0  0  0  0  0
  140.3422   72.2007  224.1195 H   0  0  0  0  0  0  0  0  0  0  0  0
  138.3877   77.3522  222.1414 H   0  0  0  0  0  0  0  0  0  0  0  0
  140.7737   77.2673  221.3990 H   0  0  0  0  0  0  0  0  0  0  0  0
  142.7365   75.8067  220.8156 H   0  0  0  0  0  0  0  0  0  0  0  0
  142.3232   71.5437  221.0186 H   0  0  0  0  0  0  0  0  0  0  0  0
  139.9541   71.8166  221.7690 H   0  0  0  0  0  0  0  0  0  0  0  0
  1  2  2  0
  2  3  1  0
  3  4  1  0
  4  5  1  0
  5  6  2  0
  5  7  1  0
  7  8  1  0
  8  9  1  0
  9 10  1  0
 10 11  1  0
 10 12  1  0
 12 13  1  0
 13 14  1  0
 14 15  1  0
 15 16  1  0
 16 17  2  0
 17 18  1  0
 18 19  2  0
 19 20  1  0
 20 21  2  0
  2 22  1  0
 22 23  2  0
 23 24  1  0
 24 25  2  0
 25 26  1  0
 26 27  2  0
 27 28  1  0
 27 29  1  0
 29 30  2  0
 30 31  1  0
 31 32  2  0
 12  7  1  0
 21 16  1  0
 32 22  1  0
 31 25  1  0
  3 33  1  0
  4 34  1  0
  4 35  1  0
  8 36  1  0
  8 37  1  0
  9 38  1  0
  9 39  1  0
 10 40  1  6
 11 41  1  0
 12 42  1  1
 13 43  1  0
 13 44  1  0
 15 45  1  0
 15 46  1  0
 17 47  1  0
 18 48  1  0
 19 49  1  0
 20 50  1  0
 21 51  1  0
 23 52  1  0
 24 53  1  0
 26 54  1  0
 29 55  1  0
 30 56  1  0
M  END
>  <smiles>  (2) 
O=C(NCC(=O)N1CC[C@H](O)[C@H]1COCc1ccccc1)c1ccc2cc(Cl)ccc2n1

>  <score_type>  (2) 
oracle

>  <origin>  (2) 
autodockgpu

>  <m_score__min__energy>  (2) 
-8.8699999999999992

>  <m_primary>  (2) 
energy

>  <rmsd>  (2) 
8.399595190285536

>  <m_score__min__rmsd>  (2) 
8.399595190285536

>  <meeko>  (2) 
{"free_energy": -7.24, "intermolecular_energy": -9.93, "internal_energy": -3.03, "cluster_size": 1, "cluster_id": 8, "rank_in_cluster": 1}

>  <energy>  (2) 
-8.75

>  <cluster_rmsd>  (2) 
0.08

>  <cluster>  (2) 
1

$$$$

     RDKit          3D

 56 59  0  0  0  0  0  0  0  0999 V2000
  134.7330   68.3490  225.1240 O   0  0  0  0  0  0  0  0  0  0  0  0
  135.0900   69.4830  224.7560 C   0  0  0  0  0  0  0  0  0  0  0  0
  136.0710   69.6100  223.7530 N   0  0  0  0  0  0  0  0  0  0  0  0
  136.7520   68.5860  223.0650 C   0  0  0  0  0  0  0  0  0  0  0  0
  138.1820   68.7330  222.8620 C   0  0  0  0  0  0  0  0  0  0  0  0
  138.8410   67.6650  223.2400 O   0  0  0  0  0  0  0  0  0  0  0  0
  138.9760   69.7630  222.3440 N   0  0  0  0  0  0  0  0  0  0  0  0
  139.4710   70.0280  220.9990 C   0  0  0  0  0  0  0  0  0  0  0  0
  140.3780   71.2800  221.1070 C   0  0  0  0  0  0  0  0  0  0  0  0
  139.5420   71.9930  222.2010 C   0  0  2  0  0  0  0  0  0  0  0  0
  140.1630   73.1160  222.6800 O   0  0  0  0  0  0  0  0  0  0  0  0
  139.5530   70.8280  223.1800 C   0  0  1  0  0  0  0  0  0  0  0  0
  138.8960   71.0970  224.4690 C   0  0  0  0  0  0  0  0  0  0  0  0
  139.8220   71.8110  225.2570 O   0  0  0  0  0  0  0  0  0  0  0  0
  141.0230   71.1230  225.3730 C   0  0  0  0  0  0  0  0  0  0  0  0
  140.7800   70.0350  226.3560 C   0  0  0  0  0  0  0  0  0  0  0  0
  140.1150   70.3660  227.5230 C   0  0  0  0  0  0  0  0  0  0  0  0
  139.8300   69.4370  228.4980 C   0  0  0  0  0  0  0  0  0  0  0  0
  140.2340   68.1390  228.2770 C   0  0  0  0  0  0  0  0  0  0  0  0
  140.9050   67.7680  227.1170 C   0  0  0  0  0  0  0  0  0  0  0  0
  141.1900   68.7160  226.1320 C   0  0  0  0  0  0  0  0  0  0  0  0
  134.4970   70.6940  225.3540 C   0  0  0  0  0  0  0  0  0  0  0  0
  133.4980   70.6410  226.2950 C   0  0  0  0  0  0  0  0  0  0  0  0
  132.9300   71.7990  226.8380 C   0  0  0  0  0  0  0  0  0  0  0  0
  133.4090   73.0330  226.3960 C   0  0  0  0  0  0  0  0  0  0  0  0
  132.9290   74.2350  226.8450 C   0  0  0  0  0  0  0  0  0  0  0  0
  133.4370   75.4190  226.3640 C   0  0  0  0  0  0  0  0  0  0  0  0
  132.8470   76.9870  226.9040 Cl  0  0  0  0  0  0  0  0  0  0  0  0
  134.4380   75.4200  225.4210 C   0  0  0  0  0  0  0  0  0  0  0  0
  134.9360   74.2110  224.9560 C   0  0  0  0  0  0  0  0  0  0  0  0
  134.4060   73.0140  225.4580 C   0  0  0  0  0  0  0  0  0  0  0  0
  134.9350   71.8930  224.9520 N   0  0  0  0  0  0  0  0  0  0  0  0
  136.3230   70.6200  223.4940 H   0  0  0  0  0  0  0  0  0  0  0  0
  136.5961   67.6542  223.6284 H   0  0  0  0  0  0  0  0  0  0  0  0
  136.3276   68.6086  222.0504 H   0  0  0  0  0  0  0  0  0  0  0  0
  140.0505   69.1687  220.6304 H   0  0  0  0  0  0  0  0  0  0  0  0
  138.6430   70.1943  220.2942 H   0  0  0  0  0  0  0  0  0  0  0  0
  141.3976   71.0383  221.4416 H   0  0  0  0  0  0  0  0  0  0  0  0
  140.5727   71.8397  220.1802 H   0  0  0  0  0  0  0  0  0  0  0  0
  138.5570   72.3925  221.9178 H   0  0  0  0  0  0  0  0  0  0  0  0
  139.8230   73.2570  223.6220 H   0  0  0  0  0  0  0  0  0  0  0  0
  140.5457   70.5642  223.5737 H   0  0  0  0  0  0  0  0  0  0  0  0
  137.9882   71.6984  224.3131 H   0  0  0  0  0  0  0  0  0  0  0  0
  138.5969   70.1606  224.9626 H   0  0  0  0  0  0  0  0  0  0  0  0
  141.3168   70.7007  224.4007 H   0  0  0  0  0  0  0  0  0  0  0  0
  141.8369   71.7866  225.7003 H   0  0  0  0  0  0  0  0  0  0  0  0
  139.8027   71.4094  227.6774 H   0  0  0  0  0  0  0  0  0  0  0  0
  139.2996   69.7206  229.4190 H   0  0  0  0  0  0  0  0  0  0  0  0
  140.0200   67.3750  229.0389 H   0  0  0  0  0  0  0  0  0  0  0  0
  141.2131   66.7217  226.9744 H   0  0  0  0  0  0  0  0  0  0  0  0
  141.7197   68.4349  225.2098 H   0  0  0  0  0  0  0  0  0  0  0  0
  133.1336   69.6593  226.6318 H   0  0  0  0  0  0  0  0  0  0  0  0
  132.1300   71.7384  227.5906 H   0  0  0  0  0  0  0  0  0  0  0  0
  132.1281   74.2533  227.5989 H   0  0  0  0  0  0  0  0  0  0  0  0
  134.8401   76.3700  225.0390 H   0  0  0  0  0  0  0  0  0  0  0  0
  135.7371   74.1921  224.2024 H   0  0  0  0  0  0  0  0  0  0  0  0
  1  2  2  0
  2  3  1  0
  3  4  1  0
  4  5  1  0
  5  6  2  0
  5  7  1  0
  7  8  1  0
  8  9  1  0
  9 10  1  0
 10 11  1  0
 10 12  1  0
 12 13  1  0
 13 14  1  0
 14 15  1  0
 15 16  1  0
 16 17  2  0
 17 18  1  0
 18 19  2  0
 19 20  1  0
 20 21  2  0
  2 22  1  0
 22 23  2  0
 23 24  1  0
 24 25  2  0
 25 26  1  0
 26 27  2  0
 27 28  1  0
 27 29  1  0
 29 30  2  0
 30 31  1  0
 31 32  2  0
 12  7  1  0
 21 16  1  0
 32 22  1  0
 31 25  1  0
  3 33  1  0
  4 34  1  0
  4 35  1  0
  8 36  1  0
  8 37  1  0
  9 38  1  0
  9 39  1  0
 10 40  1  6
 11 41  1  0
 12 42  1  1
 13 43  1  0
 13 44  1  0
 15 45  1  0
 15 46  1  0
 17 47  1  0
 18 48  1  0
 19 49  1  0
 20 50  1  0
 21 51  1  0
 23 52  1  0
 24 53  1  0
 26 54  1  0
 29 55  1  0
 30 56  1  0
M  END
>  <smiles>  (3) 
O=C(NCC(=O)N1CC[C@H](O)[C@H]1COCc1ccccc1)c1ccc2cc(Cl)ccc2n1

>  <score_type>  (3) 
oracle

>  <origin>  (3) 
autodockgpu

>  <m_score__min__energy>  (3) 
-8.8699999999999992

>  <m_primary>  (3) 
energy

>  <rmsd>  (3) 
7.096433608779697

>  <m_score__min__rmsd>  (3) 
7.096433608779697

>  <meeko>  (3) 
{"free_energy": -8.07, "intermolecular_energy": -10.76, "internal_energy": -2.86, "cluster_size": 8, "cluster_id": 1, "rank_in_cluster": 7}

>  <energy>  (3) 
-8.72

>  <cluster_rmsd>  (3) 
0.39

>  <cluster>  (3) 
1

$$$$

     RDKit          3D

 56 59  0  0  0  0  0  0  0  0999 V2000
  142.8760   76.2350  217.6350 O   0  0  0  0  0  0  0  0  0  0  0  0
  142.9450   76.9760  218.6330 C   0  0  0  0  0  0  0  0  0  0  0  0
  143.5150   76.4850  219.8230 N   0  0  0  0  0  0  0  0  0  0  0  0
  144.0460   75.2040  220.0720 C   0  0  0  0  0  0  0  0  0  0  0  0
  143.2430   74.0480  219.7150 C   0  0  0  0  0  0  0  0  0  0  0  0
  143.4560   73.6690  218.4780 O   0  0  0  0  0  0  0  0  0  0  0  0
  142.3140   73.2710  220.4170 N   0  0  0  0  0  0  0  0  0  0  0  0
  142.3270   71.8720  220.8260 C   0  0  0  0  0  0  0  0  0  0  0  0
  140.9530   71.6010  221.4910 C   0  0  0  0  0  0  0  0  0  0  0  0
  140.8060   73.0010  222.1390 C   0  0  2  0  0  0  0  0  0  0  0  0
  139.5730   73.1850  222.7070 O   0  0  0  0  0  0  0  0  0  0  0  0
  141.0040   73.7840  220.8500 C   0  0  1  0  0  0  0  0  0  0  0  0
  140.8680   75.2430  220.9840 C   0  0  0  0  0  0  0  0  0  0  0  0
  140.1390   75.4770  222.1680 O   0  0  0  0  0  0  0  0  0  0  0  0
  139.2390   76.5230  222.0090 C   0  0  0  0  0  0  0  0  0  0  0  0
  139.8580   77.7020  222.6680 C   0  0  0  0  0  0  0  0  0  0  0  0
  141.2230   77.6620  222.8980 C   0  0  0  0  0  0  0  0  0  0  0  0
  141.9000   78.7010  223.4940 C   0  0  0  0  0  0  0  0  0  0  0  0
  141.1690   79.8060  223.8670 C   0  0  0  0  0  0  0  0  0  0  0  0
  139.7970   79.8840  223.6540 C   0  0  0  0  0  0  0  0  0  0  0  0
  139.1160   78.8250  223.0470 C   0  0  0  0  0  0  0  0  0  0  0  0
  142.4420   78.3610  218.5820 C   0  0  0  0  0  0  0  0  0  0  0  0
  142.2290   79.0270  217.4000 C   0  0  0  0  0  0  0  0  0  0  0  0
  141.7720   80.3500  217.3670 C   0  0  0  0  0  0  0  0  0  0  0  0
  141.5310   80.9900  218.5830 C   0  0  0  0  0  0  0  0  0  0  0  0
  141.0890   82.2830  218.6830 C   0  0  0  0  0  0  0  0  0  0  0  0
  140.8780   82.8620  219.9130 C   0  0  0  0  0  0  0  0  0  0  0  0
  140.3210   84.5220  220.0920 Cl  0  0  0  0  0  0  0  0  0  0  0  0
  141.1060   82.1520  221.0690 C   0  0  0  0  0  0  0  0  0  0  0  0
  141.5520   80.8400  220.9860 C   0  0  0  0  0  0  0  0  0  0  0  0
  141.7620   80.2680  219.7240 C   0  0  0  0  0  0  0  0  0  0  0  0
  142.2000   79.0030  219.7310 N   0  0  0  0  0  0  0  0  0  0  0  0
  143.5360   77.1850  220.6360 H   0  0  0  0  0  0  0  0  0  0  0  0
  144.9917   75.1289  219.5153 H   0  0  0  0  0  0  0  0  0  0  0  0
  144.1287   75.1511  221.1676 H   0  0  0  0  0  0  0  0  0  0  0  0
  142.4615   71.2202  219.9502 H   0  0  0  0  0  0  0  0  0  0  0  0
  143.1550   71.6658  221.5201 H   0  0  0  0  0  0  0  0  0  0  0  0
  140.1612   71.3870  220.7580 H   0  0  0  0  0  0  0  0  0  0  0  0
  140.8824   70.7297  222.1587 H   0  0  0  0  0  0  0  0  0  0  0  0
  141.4716   73.2518  222.9781 H   0  0  0  0  0  0  0  0  0  0  0  0
  139.5630   74.1220  223.0850 H   0  0  0  0  0  0  0  0  0  0  0  0
  140.2201   73.6333  220.0932 H   0  0  0  0  0  0  0  0  0  0  0  0
  141.8610   75.7113  221.0519 H   0  0  0  0  0  0  0  0  0  0  0  0
  140.3535   75.6732  220.1121 H   0  0  0  0  0  0  0  0  0  0  0  0
  139.0739   76.7257  220.9405 H   0  0  0  0  0  0  0  0  0  0  0  0
  138.2609   76.2826  222.4511 H   0  0  0  0  0  0  0  0  0  0  0  0
  141.7862   76.7676  222.5933 H   0  0  0  0  0  0  0  0  0  0  0  0
  142.9853   78.6504  223.6660 H   0  0  0  0  0  0  0  0  0  0  0  0
  141.6845   80.6510  224.3470 H   0  0  0  0  0  0  0  0  0  0  0  0
  139.2451   80.7834  223.9647 H   0  0  0  0  0  0  0  0  0  0  0  0
  138.0309   78.8734  222.8730 H   0  0  0  0  0  0  0  0  0  0  0  0
  142.4232   78.5056  216.4511 H   0  0  0  0  0  0  0  0  0  0  0  0
  141.6079   80.8691  216.4112 H   0  0  0  0  0  0  0  0  0  0  0  0
  140.9006   82.8651  217.7689 H   0  0  0  0  0  0  0  0  0  0  0  0
  140.9365   82.6196  222.0501 H   0  0  0  0  0  0  0  0  0  0  0  0
  141.7383   80.2565  221.8997 H   0  0  0  0  0  0  0  0  0  0  0  0
  1  2  2  0
  2  3  1  0
  3  4  1  0
  4  5  1  0
  5  6  2  0
  5  7  1  0
  7  8  1  0
  8  9  1  0
  9 10  1  0
 10 11  1  0
 10 12  1  0
 12 13  1  0
 13 14  1  0
 14 15  1  0
 15 16  1  0
 16 17  2  0
 17 18  1  0
 18 19  2  0
 19 20  1  0
 20 21  2  0
  2 22  1  0
 22 23  2  0
 23 24  1  0
 24 25  2  0
 25 26  1  0
 26 27  2  0
 27 28  1  0
 27 29  1  0
 29 30  2  0
 30 31  1  0
 31 32  2  0
 12  7  1  0
 21 16  1  0
 32 22  1  0
 31 25  1  0
  3 33  1  0
  4 34  1  0
  4 35  1  0
  8 36  1  0
  8 37  1  0
  9 38  1  0
  9 39  1  0
 10 40  1  1
 11 41  1  0
 12 42  1  6
 13 43  1  0
 13 44  1  0
 15 45  1  0
 15 46  1  0
 17 47  1  0
 18 48  1  0
 19 49  1  0
 20 50  1  0
 21 51  1  0
 23 52  1  0
 24 53  1  0
 26 54  1  0
 29 55  1  0
 30 56  1  0
M  END
>  <smiles>  (4) 
O=C(NCC(=O)N1CC[C@H](O)[C@H]1COCc1ccccc1)c1ccc2cc(Cl)ccc2n1

>  <score_type>  (4) 
oracle

>  <origin>  (4) 
autodockgpu

>  <m_score__min__energy>  (4) 
-8.8699999999999992

>  <m_primary>  (4) 
energy

>  <rmsd>  (4) 
9.414886349228329

>  <m_score__min__rmsd>  (4) 
9.414886349228329

>  <meeko>  (4) 
{"free_energy": -7.12, "intermolecular_energy": -9.81, "internal_energy": -3.18, "cluster_size": 3, "cluster_id": 9, "rank_in_cluster": 1}

>  <energy>  (4) 
-8.69

>  <cluster_rmsd>  (4) 
1.33

>  <cluster>  (4) 
1

$$$$

     RDKit          3D

 56 59  0  0  0  0  0  0  0  0999 V2000
  133.7380   69.2380  226.4670 O   0  0  0  0  0  0  0  0  0  0  0  0
  134.0640   70.3190  225.9440 C   0  0  0  0  0  0  0  0  0  0  0  0
  135.0070   70.3280  224.8980 N   0  0  0  0  0  0  0  0  0  0  0  0
  135.6800   69.2320  224.3220 C   0  0  0  0  0  0  0  0  0  0  0  0
  137.0300   69.4400  223.8300 C   0  0  0  0  0  0  0  0  0  0  0  0
  137.8650   68.5460  224.3010 O   0  0  0  0  0  0  0  0  0  0  0  0
  137.6000   70.3810  222.9640 N   0  0  0  0  0  0  0  0  0  0  0  0
  137.1940   70.8680  221.6520 C   0  0  0  0  0  0  0  0  0  0  0  0
  138.3090   71.8370  221.1830 C   0  0  0  0  0  0  0  0  0  0  0  0
  138.6310   72.4090  222.5880 C   0  0  2  0  0  0  0  0  0  0  0  0
  139.7330   73.2220  222.5790 O   0  0  0  0  0  0  0  0  0  0  0  0
  138.8770   71.0590  223.2450 C   0  0  1  0  0  0  0  0  0  0  0  0
  139.3050   71.1230  224.6510 C   0  0  0  0  0  0  0  0  0  0  0  0
  140.6310   71.6030  224.6520 O   0  0  0  0  0  0  0  0  0  0  0  0
  141.0910   71.8150  225.9450 C   0  0  0  0  0  0  0  0  0  0  0  0
  140.7820   70.5720  226.6980 C   0  0  0  0  0  0  0  0  0  0  0  0
  141.2890   69.3830  226.2050 C   0  0  0  0  0  0  0  0  0  0  0  0
  141.0720   68.1740  226.8270 C   0  0  0  0  0  0  0  0  0  0  0  0
  140.3170   68.1780  227.9780 C   0  0  0  0  0  0  0  0  0  0  0  0
  139.7890   69.3510  228.5050 C   0  0  0  0  0  0  0  0  0  0  0  0
  140.0150   70.5750  227.8690 C   0  0  0  0  0  0  0  0  0  0  0  0
  133.4730   71.5910  226.4030 C   0  0  0  0  0  0  0  0  0  0  0  0
  132.3140   71.6430  227.1390 C   0  0  0  0  0  0  0  0  0  0  0  0
  131.7520   72.8580  227.5490 C   0  0  0  0  0  0  0  0  0  0  0  0
  132.4070   74.0370  227.1900 C   0  0  0  0  0  0  0  0  0  0  0  0
  131.9530   75.2860  227.5250 C   0  0  0  0  0  0  0  0  0  0  0  0
  132.6400   76.4120  227.1330 C   0  0  0  0  0  0  0  0  0  0  0  0
  132.0920   78.0360  227.5310 Cl  0  0  0  0  0  0  0  0  0  0  0  0
  133.7960   76.3060  226.3970 C   0  0  0  0  0  0  0  0  0  0  0  0
  134.2700   75.0480  226.0500 C   0  0  0  0  0  0  0  0  0  0  0  0
  133.5570   73.9120  226.4580 C   0  0  0  0  0  0  0  0  0  0  0  0
  134.0760   72.7390  226.0760 N   0  0  0  0  0  0  0  0  0  0  0  0
  135.2340   71.2990  224.5020 H   0  0  0  0  0  0  0  0  0  0  0  0
  135.7287   68.4411  225.0849 H   0  0  0  0  0  0  0  0  0  0  0  0
  135.0944   68.9938  223.4218 H   0  0  0  0  0  0  0  0  0  0  0  0
  137.0976   70.0288  220.9474 H   0  0  0  0  0  0  0  0  0  0  0  0
  136.2182   71.3738  221.6978 H   0  0  0  0  0  0  0  0  0  0  0  0
  139.1645   71.3133  220.7314 H   0  0  0  0  0  0  0  0  0  0  0  0
  138.0468   72.5593  220.3959 H   0  0  0  0  0  0  0  0  0  0  0  0
  137.8832   73.0619  223.0618 H   0  0  0  0  0  0  0  0  0  0  0  0
  139.9990   73.3620  223.5440 H   0  0  0  0  0  0  0  0  0  0  0  0
  139.7437   70.5062  222.8536 H   0  0  0  0  0  0  0  0  0  0  0  0
  138.6540   71.8078  225.2142 H   0  0  0  0  0  0  0  0  0  0  0  0
  139.2431   70.1336  225.1278 H   0  0  0  0  0  0  0  0  0  0  0  0
  142.1755   71.9991  225.9396 H   0  0  0  0  0  0  0  0  0  0  0  0
  140.6136   72.6934  226.4038 H   0  0  0  0  0  0  0  0  0  0  0  0
  141.8874   69.4043  225.2823 H   0  0  0  0  0  0  0  0  0  0  0  0
  141.4864   67.2401  226.4195 H   0  0  0  0  0  0  0  0  0  0  0  0
  140.1261   67.2262  228.4953 H   0  0  0  0  0  0  0  0  0  0  0  0
  139.1903   69.3158  229.4272 H   0  0  0  0  0  0  0  0  0  0  0  0
  139.6034   71.5105  228.2756 H   0  0  0  0  0  0  0  0  0  0  0  0
  131.8132   70.7030  227.4141 H   0  0  0  0  0  0  0  0  0  0  0  0
  130.8223   72.8826  228.1363 H   0  0  0  0  0  0  0  0  0  0  0  0
  131.0295   75.3895  228.1136 H   0  0  0  0  0  0  0  0  0  0  0  0
  134.3406   77.2096  226.0858 H   0  0  0  0  0  0  0  0  0  0  0  0
  135.1938   74.9439  225.4621 H   0  0  0  0  0  0  0  0  0  0  0  0
  1  2  2  0
  2  3  1  0
  3  4  1  0
  4  5  1  0
  5  6  2  0
  5  7  1  0
  7  8  1  0
  8  9  1  0
  9 10  1  0
 10 11  1  0
 10 12  1  0
 12 13  1  0
 13 14  1  0
 14 15  1  0
 15 16  1  0
 16 17  2  0
 17 18  1  0
 18 19  2  0
 19 20  1  0
 20 21  2  0
  2 22  1  0
 22 23  2  0
 23 24  1  0
 24 25  2  0
 25 26  1  0
 26 27  2  0
 27 28  1  0
 27 29  1  0
 29 30  2  0
 30 31  1  0
 31 32  2  0
 12  7  1  0
 21 16  1  0
 32 22  1  0
 31 25  1  0
  3 33  1  0
  4 34  1  0
  4 35  1  0
  8 36  1  0
  8 37  1  0
  9 38  1  0
  9 39  1  0
 10 40  1  1
 11 41  1  0
 12 42  1  6
 13 43  1  0
 13 44  1  0
 15 45  1  0
 15 46  1  0
 17 47  1  0
 18 48  1  0
 19 49  1  0
 20 50  1  0
 21 51  1  0
 23 52  1  0
 24 53  1  0
 26 54  1  0
 29 55  1  0
 30 56  1  0
M  END
>  <smiles>  (5) 
O=C(NCC(=O)N1CC[C@H](O)[C@H]1COCc1ccccc1)c1ccc2cc(Cl)ccc2n1

>  <score_type>  (5) 
oracle

>  <origin>  (5) 
autodockgpu

>  <m_score__min__energy>  (5) 
-8.8699999999999992

>  <m_primary>  (5) 
energy

>  <rmsd>  (5) 
7.764396813980275

>  <m_score__min__rmsd>  (5) 
7.764396813980275

>  <meeko>  (5) 
{"free_energy": -8.72, "intermolecular_energy": -11.4, "internal_energy": -2.37, "cluster_size": 8, "cluster_id": 1, "rank_in_cluster": 3}

>  <energy>  (5) 
-8.49

>  <cluster_rmsd>  (5) 
0.39

>  <cluster>  (5) 
1

$$$$

     RDKit          3D

 56 59  0  0  0  0  0  0  0  0999 V2000
  139.9920   71.9270  221.5950 O   0  0  0  0  0  0  0  0  0  0  0  0
  139.4300   73.0010  221.8720 C   0  0  0  0  0  0  0  0  0  0  0  0
  138.1550   72.9830  222.4700 N   0  0  0  0  0  0  0  0  0  0  0  0
  137.3710   71.8650  222.8180 C   0  0  0  0  0  0  0  0  0  0  0  0
  136.2190   72.0780  223.6750 C   0  0  0  0  0  0  0  0  0  0  0  0
  135.9240   73.3490  223.7930 O   0  0  0  0  0  0  0  0  0  0  0  0
  135.3730   71.2100  224.3770 N   0  0  0  0  0  0  0  0  0  0  0  0
  133.9770   71.3260  224.7800 C   0  0  0  0  0  0  0  0  0  0  0  0
  133.6590   70.0610  225.6170 C   0  0  0  0  0  0  0  0  0  0  0  0
  134.5590   69.0960  224.8030 C   0  0  2  0  0  0  0  0  0  0  0  0
  134.6530   67.8580  225.3830 O   0  0  0  0  0  0  0  0  0  0  0  0
  135.8270   69.9260  224.9370 C   0  0  1  0  0  0  0  0  0  0  0  0
  137.0280   69.3240  224.3390 C   0  0  0  0  0  0  0  0  0  0  0  0
  137.6380   68.5460  225.3460 O   0  0  0  0  0  0  0  0  0  0  0  0
  139.0100   68.4540  225.1500 C   0  0  0  0  0  0  0  0  0  0  0  0
  139.6090   69.5840  225.9060 C   0  0  0  0  0  0  0  0  0  0  0  0
  139.5690   69.5220  227.2880 C   0  0  0  0  0  0  0  0  0  0  0  0
  140.1000   70.5090  228.0860 C   0  0  0  0  0  0  0  0  0  0  0  0
  140.6850   71.5870  227.4600 C   0  0  0  0  0  0  0  0  0  0  0  0
  140.7440   71.6870  226.0750 C   0  0  0  0  0  0  0  0  0  0  0  0
  140.2040   70.6800  225.2710 C   0  0  0  0  0  0  0  0  0  0  0  0
  140.0830   74.2930  221.5870 C   0  0  0  0  0  0  0  0  0  0  0  0
  141.1490   74.4080  220.7280 C   0  0  0  0  0  0  0  0  0  0  0  0
  141.7730   75.6370  220.4830 C   0  0  0  0  0  0  0  0  0  0  0  0
  141.2810   76.7640  221.1420 C   0  0  0  0  0  0  0  0  0  0  0  0
  141.8100   78.0190  220.9910 C   0  0  0  0  0  0  0  0  0  0  0  0
  141.2850   79.0900  221.6760 C   0  0  0  0  0  0  0  0  0  0  0  0
  141.9370   80.7180  221.5230 Cl  0  0  0  0  0  0  0  0  0  0  0  0
  140.2180   78.9230  222.5250 C   0  0  0  0  0  0  0  0  0  0  0  0
  139.6680   77.6590  222.6890 C   0  0  0  0  0  0  0  0  0  0  0  0
  140.2170   76.5790  221.9830 C   0  0  0  0  0  0  0  0  0  0  0  0
  139.6350   75.3930  222.2020 N   0  0  0  0  0  0  0  0  0  0  0  0
  137.7390   73.9500  222.6760 H   0  0  0  0  0  0  0  0  0  0  0  0
  137.0037   71.4195  221.8817 H   0  0  0  0  0  0  0  0  0  0  0  0
  138.0445   71.2341  223.4166 H   0  0  0  0  0  0  0  0  0  0  0  0
  133.8299   72.2313  225.3872 H   0  0  0  0  0  0  0  0  0  0  0  0
  133.3138   71.4040  223.9059 H   0  0  0  0  0  0  0  0  0  0  0  0
  133.9766   70.1548  226.6660 H   0  0  0  0  0  0  0  0  0  0  0  0
  132.5997   69.7858  225.7269 H   0  0  0  0  0  0  0  0  0  0  0  0
  134.2423   68.8355  223.7823 H   0  0  0  0  0  0  0  0  0  0  0  0
  135.6010   67.7660  225.7210 H   0  0  0  0  0  0  0  0  0  0  0  0
  136.2085   70.0234  225.9641 H   0  0  0  0  0  0  0  0  0  0  0  0
  136.7484   68.6880  223.4862 H   0  0  0  0  0  0  0  0  0  0  0  0
  137.7151   70.0987  223.9679 H   0  0  0  0  0  0  0  0  0  0  0  0
  139.3873   67.4947  225.5339 H   0  0  0  0  0  0  0  0  0  0  0  0
  139.2683   68.5024  224.0818 H   0  0  0  0  0  0  0  0  0  0  0  0
  139.0953   68.6518  227.7659 H   0  0  0  0  0  0  0  0  0  0  0  0
  140.0588   70.4396  229.1830 H   0  0  0  0  0  0  0  0  0  0  0  0
  141.1176   72.3913  228.0731 H   0  0  0  0  0  0  0  0  0  0  0  0
  141.2183   72.5635  225.6094 H   0  0  0  0  0  0  0  0  0  0  0  0
  140.2452   70.7465  224.1738 H   0  0  0  0  0  0  0  0  0  0  0  0
  141.5231   73.5081  220.2178 H   0  0  0  0  0  0  0  0  0  0  0  0
  142.6254   75.7118  219.7918 H   0  0  0  0  0  0  0  0  0  0  0  0
  142.6639   78.1716  220.3145 H   0  0  0  0  0  0  0  0  0  0  0  0
  139.8030   79.7835  223.0702 H   0  0  0  0  0  0  0  0  0  0  0  0
  138.8128   77.5067  223.3639 H   0  0  0  0  0  0  0  0  0  0  0  0
  1  2  2  0
  2  3  1  0
  3  4  1  0
  4  5  1  0
  5  6  2  0
  5  7  1  0
  7  8  1  0
  8  9  1  0
  9 10  1  0
 10 11  1  0
 10 12  1  0
 12 13  1  0
 13 14  1  0
 14 15  1  0
 15 16  1  0
 16 17  2  0
 17 18  1  0
 18 19  2  0
 19 20  1  0
 20 21  2  0
  2 22  1  0
 22 23  2  0
 23 24  1  0
 24 25  2  0
 25 26  1  0
 26 27  2  0
 27 28  1  0
 27 29  1  0
 29 30  2  0
 30 31  1  0
 31 32  2  0
 12  7  1  0
 21 16  1  0
 32 22  1  0
 31 25  1  0
  3 33  1  0
  4 34  1  0
  4 35  1  0
  8 36  1  0
  8 37  1  0
  9 38  1  0
  9 39  1  0
 10 40  1  6
 11 41  1  0
 12 42  1  1
 13 43  1  0
 13 44  1  0
 15 45  1  0
 15 46  1  0
 17 47  1  0
 18 48  1  0
 19 49  1  0
 20 50  1  0
 21 51  1  0
 23 52  1  0
 24 53  1  0
 26 54  1  0
 29 55  1  0
 30 56  1  0
M  END
>  <smiles>  (6) 
O=C(NCC(=O)N1CC[C@H](O)[C@H]1COCc1ccccc1)c1ccc2cc(Cl)ccc2n1

>  <score_type>  (6) 
oracle

>  <origin>  (6) 
autodockgpu

>  <m_score__min__energy>  (6) 
-8.8699999999999992

>  <m_primary>  (6) 
energy

>  <rmsd>  (6) 
8.758569184340772

>  <m_score__min__rmsd>  (6) 
8.758569184340772

>  <meeko>  (6) 
{"free_energy": -7.59, "intermolecular_energy": -10.27, "internal_energy": -3.05, "cluster_size": 6, "cluster_id": 3, "rank_in_cluster": 6}

>  <energy>  (6) 
-8.25

>  <cluster_rmsd>  (6) 
0.77

>  <cluster>  (6) 
1

$$$$

     RDKit          3D

 56 59  0  0  0  0  0  0  0  0999 V2000
  142.8840   76.6560  217.4930 O   0  0  0  0  0  0  0  0  0  0  0  0
  142.9060   77.3310  218.5380 C   0  0  0  0  0  0  0  0  0  0  0  0
  143.4200   76.7630  219.7200 N   0  0  0  0  0  0  0  0  0  0  0  0
  143.9410   75.4680  219.9100 C   0  0  0  0  0  0  0  0  0  0  0  0
  143.1000   74.3360  219.5680 C   0  0  0  0  0  0  0  0  0  0  0  0
  143.1230   74.0800  218.2820 O   0  0  0  0  0  0  0  0  0  0  0  0
  142.2940   73.4760  220.3240 N   0  0  0  0  0  0  0  0  0  0  0  0
  142.5300   72.1410  220.8590 C   0  0  0  0  0  0  0  0  0  0  0  0
  141.2020   71.6980  221.5250 C   0  0  0  0  0  0  0  0  0  0  0  0
  140.8000   73.1040  222.0400 C   0  0  2  0  0  0  0  0  0  0  0  0
  139.5370   73.1230  222.5690 O   0  0  0  0  0  0  0  0  0  0  0  0
  140.9030   73.7930  220.6880 C   0  0  1  0  0  0  0  0  0  0  0  0
  140.5190   75.2130  220.6860 C   0  0  0  0  0  0  0  0  0  0  0  0
  140.2000   75.5510  222.0170 O   0  0  0  0  0  0  0  0  0  0  0  0
  139.2260   76.5410  222.0670 C   0  0  0  0  0  0  0  0  0  0  0  0
  139.8710   77.7180  222.7050 C   0  0  0  0  0  0  0  0  0  0  0  0
  141.2390   77.6680  222.9050 C   0  0  0  0  0  0  0  0  0  0  0  0
  141.9380   78.7050  223.4790 C   0  0  0  0  0  0  0  0  0  0  0  0
  141.2260   79.8190  223.8610 C   0  0  0  0  0  0  0  0  0  0  0  0
  139.8500   79.9070  223.6770 C   0  0  0  0  0  0  0  0  0  0  0  0
  139.1470   78.8510  223.0920 C   0  0  0  0  0  0  0  0  0  0  0  0
  142.4040   78.7180  218.5540 C   0  0  0  0  0  0  0  0  0  0  0  0
  142.1730   79.4330  217.4040 C   0  0  0  0  0  0  0  0  0  0  0  0
  141.7170   80.7560  217.4330 C   0  0  0  0  0  0  0  0  0  0  0  0
  141.4980   81.3450  218.6790 C   0  0  0  0  0  0  0  0  0  0  0  0
  141.0600   82.6340  218.8400 C   0  0  0  0  0  0  0  0  0  0  0  0
  140.8710   83.1610  220.0970 C   0  0  0  0  0  0  0  0  0  0  0  0
  140.3190   84.8130  220.3530 Cl  0  0  0  0  0  0  0  0  0  0  0  0
  141.1160   82.4040  221.2170 C   0  0  0  0  0  0  0  0  0  0  0  0
  141.5590   81.0960  221.0730 C   0  0  0  0  0  0  0  0  0  0  0  0
  141.7470   80.5770  219.7850 C   0  0  0  0  0  0  0  0  0  0  0  0
  142.1830   79.3120  219.7320 N   0  0  0  0  0  0  0  0  0  0  0  0
  143.4030   77.4100  220.5760 H   0  0  0  0  0  0  0  0  0  0  0  0
  144.8549   75.3912  219.3026 H   0  0  0  0  0  0  0  0  0  0  0  0
  144.0808   75.3862  220.9980 H   0  0  0  0  0  0  0  0  0  0  0  0
  142.7992   71.4479  220.0483 H   0  0  0  0  0  0  0  0  0  0  0  0
  143.3592   72.1408  221.5818 H   0  0  0  0  0  0  0  0  0  0  0  0
  140.4807   71.2881  220.8027 H   0  0  0  0  0  0  0  0  0  0  0  0
  141.2596   70.8894  222.2686 H   0  0  0  0  0  0  0  0  0  0  0  0
  141.3869   73.5378  222.8630 H   0  0  0  0  0  0  0  0  0  0  0  0
  139.4430   73.9970  223.0680 H   0  0  0  0  0  0  0  0  0  0  0  0
  140.1798   73.4443  219.9361 H   0  0  0  0  0  0  0  0  0  0  0  0
  141.3559   75.8310  220.3286 H   0  0  0  0  0  0  0  0  0  0  0  0
  139.6629   75.3892  220.0182 H   0  0  0  0  0  0  0  0  0  0  0  0
  138.8864   76.7947  221.0520 H   0  0  0  0  0  0  0  0  0  0  0  0
  138.3429   76.2093  222.6329 H   0  0  0  0  0  0  0  0  0  0  0  0
  141.7877   76.7668  222.5940 H   0  0  0  0  0  0  0  0  0  0  0  0
  143.0264   78.6457  223.6272 H   0  0  0  0  0  0  0  0  0  0  0  0
  141.7592   80.6623  224.3242 H   0  0  0  0  0  0  0  0  0  0  0  0
  139.3126   80.8130  223.9938 H   0  0  0  0  0  0  0  0  0  0  0  0
  138.0590   78.9084  222.9404 H   0  0  0  0  0  0  0  0  0  0  0  0
  142.3517   78.9514  216.4313 H   0  0  0  0  0  0  0  0  0  0  0  0
  141.5368   81.3142  216.5024 H   0  0  0  0  0  0  0  0  0  0  0  0
  140.8573   83.2541  217.9543 H   0  0  0  0  0  0  0  0  0  0  0  0
  140.9625   82.8305  222.2193 H   0  0  0  0  0  0  0  0  0  0  0  0
  141.7598   80.4752  221.9586 H   0  0  0  0  0  0  0  0  0  0  0  0
  1  2  2  0
  2  3  1  0
  3  4  1  0
  4  5  1  0
  5  6  2  0
  5  7  1  0
  7  8  1  0
  8  9  1  0
  9 10  1  0
 10 11  1  0
 10 12  1  0
 12 13  1  0
 13 14  1  0
 14 15  1  0
 15 16  1  0
 16 17  2  0
 17 18  1  0
 18 19  2  0
 19 20  1  0
 20 21  2  0
  2 22  1  0
 22 23  2  0
 23 24  1  0
 24 25  2  0
 25 26  1  0
 26 27  2  0
 27 28  1  0
 27 29  1  0
 29 30  2  0
 30 31  1  0
 31 32  2  0
 12  7  1  0
 21 16  1  0
 32 22  1  0
 31 25  1  0
  3 33  1  0
  4 34  1  0
  4 35  1  0
  8 36  1  0
  8 37  1  0
  9 38  1  0
  9 39  1  0
 10 40  1  1
 11 41  1  0
 12 42  1  6
 13 43  1  0
 13 44  1  0
 15 45  1  0
 15 46  1  0
 17 47  1  0
 18 48  1  0
 19 49  1  0
 20 50  1  0
 21 51  1  0
 23 52  1  0
 24 53  1  0
 26 54  1  0
 29 55  1  0
 30 56  1  0
M  END
>  <smiles>  (7) 
O=C(NCC(=O)N1CC[C@H](O)[C@H]1COCc1ccccc1)c1ccc2cc(Cl)ccc2n1

>  <score_type>  (7) 
oracle

>  <origin>  (7) 
autodockgpu

>  <m_score__min__energy>  (7) 
-8.8699999999999992

>  <m_primary>  (7) 
energy

>  <rmsd>  (7) 
9.552189107860196

>  <m_score__min__rmsd>  (7) 
9.552189107860196

>  <meeko>  (7) 
{"free_energy": -6.95, "intermolecular_energy": -9.64, "internal_energy": -3.33, "cluster_size": 3, "cluster_id": 9, "rank_in_cluster": 2}

>  <energy>  (7) 
-8.07

>  <cluster_rmsd>  (7) 
1.18

>  <cluster>  (7) 
1

$$$$

     RDKit          3D

 56 59  0  0  0  0  0  0  0  0999 V2000
  140.6800   73.7950  221.8000 O   0  0  0  0  0  0  0  0  0  0  0  0
  139.9550   72.7870  221.7130 C   0  0  0  0  0  0  0  0  0  0  0  0
  139.1720   72.5930  220.5590 N   0  0  0  0  0  0  0  0  0  0  0  0
  139.0760   73.4190  219.4210 C   0  0  0  0  0  0  0  0  0  0  0  0
  139.1270   74.8570  219.6130 C   0  0  0  0  0  0  0  0  0  0  0  0
  139.2210   75.4990  218.4750 O   0  0  0  0  0  0  0  0  0  0  0  0
  139.0870   75.6750  220.7490 N   0  0  0  0  0  0  0  0  0  0  0  0
  138.1160   75.7930  221.8300 C   0  0  0  0  0  0  0  0  0  0  0  0
  138.6080   76.9530  222.7320 C   0  0  0  0  0  0  0  0  0  0  0  0
  140.1210   76.6690  222.5540 C   0  0  2  0  0  0  0  0  0  0  0  0
  140.9040   77.6440  223.1130 O   0  0  0  0  0  0  0  0  0  0  0  0
  140.1020   76.7030  221.0330 C   0  0  1  0  0  0  0  0  0  0  0  0
  141.4160   76.5410  220.3920 C   0  0  0  0  0  0  0  0  0  0  0  0
  142.2130   77.6230  220.8180 O   0  0  0  0  0  0  0  0  0  0  0  0
  141.7210   78.8310  220.3410 C   0  0  0  0  0  0  0  0  0  0  0  0
  141.7760   79.7770  221.4850 C   0  0  0  0  0  0  0  0  0  0  0  0
  142.8180   79.6340  222.3830 C   0  0  0  0  0  0  0  0  0  0  0  0
  142.9700   80.4600  223.4740 C   0  0  0  0  0  0  0  0  0  0  0  0
  142.0360   81.4550  223.6540 C   0  0  0  0  0  0  0  0  0  0  0  0
  140.9740   81.6310  222.7740 C   0  0  0  0  0  0  0  0  0  0  0  0
  140.8270   80.7890  221.6680 C   0  0  0  0  0  0  0  0  0  0  0  0
  139.9090   71.7930  222.8020 C   0  0  0  0  0  0  0  0  0  0  0  0
  139.2880   70.5750  222.6640 C   0  0  0  0  0  0  0  0  0  0  0  0
  139.2340   69.6490  223.7120 C   0  0  0  0  0  0  0  0  0  0  0  0
  139.8350   69.9950  224.9230 C   0  0  0  0  0  0  0  0  0  0  0  0
  139.8420   69.1780  226.0240 C   0  0  0  0  0  0  0  0  0  0  0  0
  140.4450   69.5800  227.1930 C   0  0  0  0  0  0  0  0  0  0  0  0
  140.4720   68.5710  228.6350 Cl  0  0  0  0  0  0  0  0  0  0  0  0
  141.0540   70.8090  227.2810 C   0  0  0  0  0  0  0  0  0  0  0  0
  141.0570   71.6490  226.1750 C   0  0  0  0  0  0  0  0  0  0  0  0
  140.4370   71.2230  224.9920 C   0  0  0  0  0  0  0  0  0  0  0  0
  140.4770   72.0920  223.9750 N   0  0  0  0  0  0  0  0  0  0  0  0
  138.5750   71.7020  220.5630 H   0  0  0  0  0  0  0  0  0  0  0  0
  139.9057   73.1494  218.7510 H   0  0  0  0  0  0  0  0  0  0  0  0
  138.0647   73.2309  219.0312 H   0  0  0  0  0  0  0  0  0  0  0  0
  137.1199   76.0226  221.4238 H   0  0  0  0  0  0  0  0  0  0  0  0
  138.0324   74.8538  222.3966 H   0  0  0  0  0  0  0  0  0  0  0  0
  138.3138   77.9418  222.3503 H   0  0  0  0  0  0  0  0  0  0  0  0
  138.2220   76.9855  223.7615 H   0  0  0  0  0  0  0  0  0  0  0  0
  140.5326   75.7638  223.0243 H   0  0  0  0  0  0  0  0  0  0  0  0
  141.8410   77.5030  222.7610 H   0  0  0  0  0  0  0  0  0  0  0  0
  139.8475   77.6801  220.5966 H   0  0  0  0  0  0  0  0  0  0  0  0
  141.8732   75.5893  220.7006 H   0  0  0  0  0  0  0  0  0  0  0  0
  141.3217   76.5276  219.2961 H   0  0  0  0  0  0  0  0  0  0  0  0
  142.3448   79.1971  219.5122 H   0  0  0  0  0  0  0  0  0  0  0  0
  140.6962   78.7243  219.9559 H   0  0  0  0  0  0  0  0  0  0  0  0
  143.5520   78.8312  222.2197 H   0  0  0  0  0  0  0  0  0  0  0  0
  143.8069   80.3296  224.1759 H   0  0  0  0  0  0  0  0  0  0  0  0
  142.1324   82.1293  224.5177 H   0  0  0  0  0  0  0  0  0  0  0  0
  140.2459   82.4368  222.9490 H   0  0  0  0  0  0  0  0  0  0  0  0
  139.9918   80.9178  220.9638 H   0  0  0  0  0  0  0  0  0  0  0  0
  138.8197   70.3204  221.7018 H   0  0  0  0  0  0  0  0  0  0  0  0
  138.7330   68.6780  223.5850 H   0  0  0  0  0  0  0  0  0  0  0  0
  139.3602   68.1905  225.9719 H   0  0  0  0  0  0  0  0  0  0  0  0
  141.5346   71.1244  228.2188 H   0  0  0  0  0  0  0  0  0  0  0  0
  141.5398   72.6361  226.2266 H   0  0  0  0  0  0  0  0  0  0  0  0
  1  2  2  0
  2  3  1  0
  3  4  1  0
  4  5  1  0
  5  6  2  0
  5  7  1  0
  7  8  1  0
  8  9  1  0
  9 10  1  0
 10 11  1  0
 10 12  1  0
 12 13  1  0
 13 14  1  0
 14 15  1  0
 15 16  1  0
 16 17  2  0
 17 18  1  0
 18 19  2  0
 19 20  1  0
 20 21  2  0
  2 22  1  0
 22 23  2  0
 23 24  1  0
 24 25  2  0
 25 26  1  0
 26 27  2  0
 27 28  1  0
 27 29  1  0
 29 30  2  0
 30 31  1  0
 31 32  2  0
 12  7  1  0
 21 16  1  0
 32 22  1  0
 31 25  1  0
  3 33  1  0
  4 34  1  0
  4 35  1  0
  8 36  1  0
  8 37  1  0
  9 38  1  0
  9 39  1  0
 10 40  1  6
 11 41  1  0
 12 42  1  1
 13 43  1  0
 13 44  1  0
 15 45  1  0
 15 46  1  0
 17 47  1  0
 18 48  1  0
 19 49  1  0
 20 50  1  0
 21 51  1  0
 23 52  1  0
 24 53  1  0
 26 54  1  0
 29 55  1  0
 30 56  1  0
M  END
>  <smiles>  (8) 
O=C(NCC(=O)N1CC[C@H](O)[C@H]1COCc1ccccc1)c1ccc2cc(Cl)ccc2n1

>  <score_type>  (8) 
oracle

>  <origin>  (8) 
autodockgpu

>  <m_score__min__energy>  (8) 
-8.8699999999999992

>  <m_primary>  (8) 
energy

>  <rmsd>  (8) 
3.1260369809661106

>  <m_score__min__rmsd>  (8) 
3.1260369809661106

>  <meeko>  (8) 
{"free_energy": -7.94, "intermolecular_energy": -10.62, "internal_energy": -2.34, "cluster_size": 16, "cluster_id": 2, "rank_in_cluster": 11}

>  <energy>  (8) 
-8.04

>  <cluster_rmsd>  (8) 
1.18

>  <cluster>  (8) 
1

$$$$

     RDKit          3D

 56 59  0  0  0  0  0  0  0  0999 V2000
  140.1150   72.4000  220.6160 O   0  0  0  0  0  0  0  0  0  0  0  0
  139.9200   72.7250  221.8020 C   0  0  0  0  0  0  0  0  0  0  0  0
  139.6440   74.0690  222.1170 N   0  0  0  0  0  0  0  0  0  0  0  0
  139.5530   75.1690  221.2410 C   0  0  0  0  0  0  0  0  0  0  0  0
  140.6760   76.0880  221.1780 C   0  0  0  0  0  0  0  0  0  0  0  0
  141.1010   76.4230  222.3710 O   0  0  0  0  0  0  0  0  0  0  0  0
  141.3830   76.6650  220.1170 N   0  0  0  0  0  0  0  0  0  0  0  0
  141.5730   78.0540  219.7150 C   0  0  0  0  0  0  0  0  0  0  0  0
  142.3840   78.0180  218.3950 C   0  0  0  0  0  0  0  0  0  0  0  0
  143.2480   76.7850  218.7670 C   0  0  2  0  0  0  0  0  0  0  0  0
  144.0100   76.3480  217.7160 O   0  0  0  0  0  0  0  0  0  0  0  0
  142.0740   75.8720  219.0870 C   0  0  1  0  0  0  0  0  0  0  0  0
  142.4420   74.4920  219.4420 C   0  0  0  0  0  0  0  0  0  0  0  0
  143.8230   74.4990  219.7260 O   0  0  0  0  0  0  0  0  0  0  0  0
  144.1170   73.7020  220.8250 C   0  0  0  0  0  0  0  0  0  0  0  0
  144.4250   72.3530  220.2830 C   0  0  0  0  0  0  0  0  0  0  0  0
  143.4440   71.3820  220.3890 C   0  0  0  0  0  0  0  0  0  0  0  0
  143.6200   70.1020  219.9130 C   0  0  0  0  0  0  0  0  0  0  0  0
  144.8250   69.8050  219.3180 C   0  0  0  0  0  0  0  0  0  0  0  0
  145.8350   70.7520  219.1930 C   0  0  0  0  0  0  0  0  0  0  0  0
  145.6490   72.0500  219.6770 C   0  0  0  0  0  0  0  0  0  0  0  0
  139.9720   71.7190  222.8800 C   0  0  0  0  0  0  0  0  0  0  0  0
  139.5360   70.4280  222.7060 C   0  0  0  0  0  0  0  0  0  0  0  0
  139.5700   69.4890  223.7440 C   0  0  0  0  0  0  0  0  0  0  0  0
  140.0670   69.8990  224.9820 C   0  0  0  0  0  0  0  0  0  0  0  0
  140.1450   69.0770  226.0750 C   0  0  0  0  0  0  0  0  0  0  0  0
  140.6370   69.5440  227.2730 C   0  0  0  0  0  0  0  0  0  0  0  0
  140.7470   68.5290  228.7060 Cl  0  0  0  0  0  0  0  0  0  0  0  0
  141.0610   70.8460  227.3950 C   0  0  0  0  0  0  0  0  0  0  0  0
  140.9900   71.6920  226.2970 C   0  0  0  0  0  0  0  0  0  0  0  0
  140.4850   71.1990  225.0850 C   0  0  0  0  0  0  0  0  0  0  0  0
  140.4430   72.0790  224.0790 N   0  0  0  0  0  0  0  0  0  0  0  0
  139.4890   74.2660  223.1600 H   0  0  0  0  0  0  0  0  0  0  0  0
  139.4018   74.7681  220.2279 H   0  0  0  0  0  0  0  0  0  0  0  0
  138.7273   75.7731  221.6451 H   0  0  0  0  0  0  0  0  0  0  0  0
  140.5997   78.5395  219.5508 H   0  0  0  0  0  0  0  0  0  0  0  0
  142.1000   78.6266  220.4924 H   0  0  0  0  0  0  0  0  0  0  0  0
  141.7513   77.8425  217.5125 H   0  0  0  0  0  0  0  0  0  0  0  0
  142.9179   78.9364  218.1097 H   0  0  0  0  0  0  0  0  0  0  0  0
  144.0090   76.9073  219.5519 H   0  0  0  0  0  0  0  0  0  0  0  0
  144.6220   75.6300  218.0790 H   0  0  0  0  0  0  0  0  0  0  0  0
  141.4260   75.6361  218.2300 H   0  0  0  0  0  0  0  0  0  0  0  0
  141.8752   74.1644  220.3260 H   0  0  0  0  0  0  0  0  0  0  0  0
  142.2115   73.7982  218.6201 H   0  0  0  0  0  0  0  0  0  0  0  0
  144.9860   74.1037  221.3667 H   0  0  0  0  0  0  0  0  0  0  0  0
  143.2770   73.6687  221.5344 H   0  0  0  0  0  0  0  0  0  0  0  0
  142.4899   71.6423  220.8707 H   0  0  0  0  0  0  0  0  0  0  0  0
  142.8271   69.3451  220.0048 H   0  0  0  0  0  0  0  0  0  0  0  0
  144.9937   68.7895  218.9304 H   0  0  0  0  0  0  0  0  0  0  0  0
  146.7851   70.4785  218.7109 H   0  0  0  0  0  0  0  0  0  0  0  0
  146.4398   72.8090  219.5844 H   0  0  0  0  0  0  0  0  0  0  0  0
  139.1489   70.1231  221.7225 H   0  0  0  0  0  0  0  0  0  0  0  0
  139.2157   68.4593  223.5885 H   0  0  0  0  0  0  0  0  0  0  0  0
  139.8108   68.0321  225.9946 H   0  0  0  0  0  0  0  0  0  0  0  0
  141.4532   71.2141  228.3545 H   0  0  0  0  0  0  0  0  0  0  0  0
  141.3257   72.7365  226.3764 H   0  0  0  0  0  0  0  0  0  0  0  0
  1  2  2  0
  2  3  1  0
  3  4  1  0
  4  5  1  0
  5  6  2  0
  5  7  1  0
  7  8  1  0
  8  9  1  0
  9 10  1  0
 10 11  1  0
 10 12  1  0
 12 13  1  0
 13 14  1  0
 14 15  1  0
 15 16  1  0
 16 17  2  0
 17 18  1  0
 18 19  2  0
 19 20  1  0
 20 21  2  0
  2 22  1  0
 22 23  2  0
 23 24  1  0
 24 25  2  0
 25 26  1  0
 26 27  2  0
 27 28  1  0
 27 29  1  0
 29 30  2  0
 30 31  1  0
 31 32  2  0
 12  7  1  0
 21 16  1  0
 32 22  1  0
 31 25  1  0
  3 33  1  0
  4 34  1  0
  4 35  1  0
  8 36  1  0
  8 37  1  0
  9 38  1  0
  9 39  1  0
 10 40  1  1
 11 41  1  0
 12 42  1  6
 13 43  1  0
 13 44  1  0
 15 45  1  0
 15 46  1  0
 17 47  1  0
 18 48  1  0
 19 49  1  0
 20 50  1  0
 21 51  1  0
 23 52  1  0
 24 53  1  0
 26 54  1  0
 29 55  1  0
 30 56  1  0
M  END
>  <smiles>  (9) 
O=C(NCC(=O)N1CC[C@H](O)[C@H]1COCc1ccccc1)c1ccc2cc(Cl)ccc2n1

>  <score_type>  (9) 
oracle

>  <origin>  (9) 
autodockgpu

>  <m_score__min__energy>  (9) 
-8.8699999999999992

>  <m_primary>  (9) 
energy

>  <rmsd>  (9) 
2.4245201549938766

>  <m_score__min__rmsd>  (9) 
2.4245201549938766

>  <meeko>  (9) 
{"free_energy": -7.77, "intermolecular_energy": -10.45, "internal_energy": -2.85, "cluster_size": 7, "cluster_id": 5, "rank_in_cluster": 3}

>  <energy>  (9) 
-8.49

>  <cluster_rmsd>  (9) 
0.0

>  <cluster>  (9) 
2

$$$$

     RDKit          3D

 56 59  0  0  0  0  0  0  0  0999 V2000
  137.9980   71.3530  221.1280 O   0  0  0  0  0  0  0  0  0  0  0  0
  138.5520   71.7800  222.1570 C   0  0  0  0  0  0  0  0  0  0  0  0
  138.8030   73.1600  222.2890 N   0  0  0  0  0  0  0  0  0  0  0  0
  138.5090   74.1910  221.3740 C   0  0  0  0  0  0  0  0  0  0  0  0
  138.7660   75.5600  221.7820 C   0  0  0  0  0  0  0  0  0  0  0  0
  139.7140   75.6330  222.6840 O   0  0  0  0  0  0  0  0  0  0  0  0
  138.2180   76.7920  221.4020 N   0  0  0  0  0  0  0  0  0  0  0  0
  137.0110   77.4920  221.8240 C   0  0  0  0  0  0  0  0  0  0  0  0
  136.9230   78.7710  220.9530 C   0  0  0  0  0  0  0  0  0  0  0  0
  138.4510   79.0250  220.8810 C   0  0  2  0  0  0  0  0  0  0  0  0
  138.7700   80.0390  220.0170 O   0  0  0  0  0  0  0  0  0  0  0  0
  138.8080   77.6430  220.3560 C   0  0  1  0  0  0  0  0  0  0  0  0
  140.2340   77.4440  220.0560 C   0  0  0  0  0  0  0  0  0  0  0  0
  140.9160   78.5750  220.5500 O   0  0  0  0  0  0  0  0  0  0  0  0
  141.8130   78.2270  221.5520 C   0  0  0  0  0  0  0  0  0  0  0  0
  141.8760   79.3930  222.4700 C   0  0  0  0  0  0  0  0  0  0  0  0
  143.1130   79.7310  222.9900 C   0  0  0  0  0  0  0  0  0  0  0  0
  143.2860   80.7970  223.8440 C   0  0  0  0  0  0  0  0  0  0  0  0
  142.1730   81.5350  224.1760 C   0  0  0  0  0  0  0  0  0  0  0  0
  140.9130   81.2260  223.6750 C   0  0  0  0  0  0  0  0  0  0  0  0
  140.7440   80.1430  222.8080 C   0  0  0  0  0  0  0  0  0  0  0  0
  138.9440   70.8610  223.2420 C   0  0  0  0  0  0  0  0  0  0  0  0
  138.6230   69.5250  223.2310 C   0  0  0  0  0  0  0  0  0  0  0  0
  138.9840   68.6680  224.2770 C   0  0  0  0  0  0  0  0  0  0  0  0
  139.6890   69.2090  225.3530 C   0  0  0  0  0  0  0  0  0  0  0  0
  140.0920   68.4760  226.4390 C   0  0  0  0  0  0  0  0  0  0  0  0
  140.7780   69.0700  227.4730 C   0  0  0  0  0  0  0  0  0  0  0  0
  141.3060   68.1720  228.8920 Cl  0  0  0  0  0  0  0  0  0  0  0  0
  141.0750   70.4110  227.4370 C   0  0  0  0  0  0  0  0  0  0  0  0
  140.6770   71.1690  226.3440 C   0  0  0  0  0  0  0  0  0  0  0  0
  139.9770   70.5470  225.3000 C   0  0  0  0  0  0  0  0  0  0  0  0
  139.6230   71.3470  224.2880 N   0  0  0  0  0  0  0  0  0  0  0  0
  139.2850   73.4450  223.2040 H   0  0  0  0  0  0  0  0  0  0  0  0
  139.1035   74.0030  220.4678 H   0  0  0  0  0  0  0  0  0  0  0  0
  137.4172   74.1429  221.2485 H   0  0  0  0  0  0  0  0  0  0  0  0
  136.1266   76.8585  221.6610 H   0  0  0  0  0  0  0  0  0  0  0  0
  137.0461   77.7394  222.8953 H   0  0  0  0  0  0  0  0  0  0  0  0
  136.4767   78.5825  219.9654 H   0  0  0  0  0  0  0  0  0  0  0  0
  136.2955   79.5921  221.3299 H   0  0  0  0  0  0  0  0  0  0  0  0
  138.9620   79.3529  221.7983 H   0  0  0  0  0  0  0  0  0  0  0  0
  139.7440   79.9200  219.7760 H   0  0  0  0  0  0  0  0  0  0  0  0
  138.4153   77.4135  219.3544 H   0  0  0  0  0  0  0  0  0  0  0  0
  140.6018   76.5335  220.5518 H   0  0  0  0  0  0  0  0  0  0  0  0
  140.3971   77.3260  218.9746 H   0  0  0  0  0  0  0  0  0  0  0  0
  141.4576   77.3359  222.0902 H   0  0  0  0  0  0  0  0  0  0  0  0
  142.8037   77.9859  221.1392 H   0  0  0  0  0  0  0  0  0  0  0  0
  143.9889   79.1268  222.7113 H   0  0  0  0  0  0  0  0  0  0  0  0
  144.2781   81.0496  224.2464 H   0  0  0  0  0  0  0  0  0  0  0  0
  142.2829   82.3926  224.8561 H   0  0  0  0  0  0  0  0  0  0  0  0
  140.0448   81.8372  223.9627 H   0  0  0  0  0  0  0  0  0  0  0  0
  139.7530   79.8883  222.4042 H   0  0  0  0  0  0  0  0  0  0  0  0
  138.0658   69.1170  222.3748 H   0  0  0  0  0  0  0  0  0  0  0  0
  138.7200   67.6004  224.2517 H   0  0  0  0  0  0  0  0  0  0  0  0
  139.8643   67.4008  226.4842 H   0  0  0  0  0  0  0  0  0  0  0  0
  141.6235   70.8801  228.2671 H   0  0  0  0  0  0  0  0  0  0  0  0
  140.9077   72.2435  226.2975 H   0  0  0  0  0  0  0  0  0  0  0  0
  1  2  2  0
  2  3  1  0
  3  4  1  0
  4  5  1  0
  5  6  2  0
  5  7  1  0
  7  8  1  0
  8  9  1  0
  9 10  1  0
 10 11  1  0
 10 12  1  0
 12 13  1  0
 13 14  1  0
 14 15  1  0
 15 16  1  0
 16 17  2  0
 17 18  1  0
 18 19  2  0
 19 20  1  0
 20 21  2  0
  2 22  1  0
 22 23  2  0
 23 24  1  0
 24 25  2  0
 25 26  1  0
 26 27  2  0
 27 28  1  0
 27 29  1  0
 29 30  2  0
 30 31  1  0
 31 32  2  0
 12  7  1  0
 21 16  1  0
 32 22  1  0
 31 25  1  0
  3 33  1  0
  4 34  1  0
  4 35  1  0
  8 36  1  0
  8 37  1  0
  9 38  1  0
  9 39  1  0
 10 40  1  1
 11 41  1  0
 12 42  1  6
 13 43  1  0
 13 44  1  0
 15 45  1  0
 15 46  1  0
 17 47  1  0
 18 48  1  0
 19 49  1  0
 20 50  1  0
 21 51  1  0
 23 52  1  0
 24 53  1  0
 26 54  1  0
 29 55  1  0
 30 56  1  0
M  END
>  <smiles>  (10) 
O=C(NCC(=O)N1CC[C@H](O)[C@H]1COCc1ccccc1)c1ccc2cc(Cl)ccc2n1

>  <score_type>  (10) 
oracle

>  <origin>  (10) 
autodockgpu

>  <m_score__min__energy>  (10) 
-8.8699999999999992

>  <m_primary>  (10) 
energy

>  <rmsd>  (10) 
2.8794910382571306

>  <m_score__min__rmsd>  (10) 
2.8794910382571306

>  <meeko>  (10) 
{"free_energy": -7.46, "intermolecular_energy": -10.14, "internal_energy": -3.0, "cluster_size": 5, "cluster_id": 7, "rank_in_cluster": 2}

>  <energy>  (10) 
-8.45

>  <cluster_rmsd>  (10) 
1.17

>  <cluster>  (10) 
2

$$$$

     RDKit          3D

 56 59  0  0  0  0  0  0  0  0999 V2000
  138.5630   73.5440  220.6880 O   0  0  0  0  0  0  0  0  0  0  0  0
  138.3530   74.4180  221.5490 C   0  0  0  0  0  0  0  0  0  0  0  0
  137.2170   74.3190  222.3750 N   0  0  0  0  0  0  0  0  0  0  0  0
  136.2200   73.3250  222.3720 C   0  0  0  0  0  0  0  0  0  0  0  0
  135.9380   72.6340  223.6170 C   0  0  0  0  0  0  0  0  0  0  0  0
  135.3490   73.4170  224.4880 O   0  0  0  0  0  0  0  0  0  0  0  0
  136.1570   71.3230  224.0580 N   0  0  0  0  0  0  0  0  0  0  0  0
  135.2440   70.2870  224.5240 C   0  0  0  0  0  0  0  0  0  0  0  0
  136.1280   69.0900  224.9560 C   0  0  0  0  0  0  0  0  0  0  0  0
  137.2100   69.2820  223.8620 C   0  0  2  0  0  0  0  0  0  0  0  0
  138.2860   68.4530  224.0440 O   0  0  0  0  0  0  0  0  0  0  0  0
  137.5010   70.7370  224.1940 C   0  0  1  0  0  0  0  0  0  0  0  0
  138.5800   71.3490  223.4030 C   0  0  0  0  0  0  0  0  0  0  0  0
  139.7550   70.6210  223.6860 O   0  0  0  0  0  0  0  0  0  0  0  0
  140.7000   71.4150  224.3220 C   0  0  0  0  0  0  0  0  0  0  0  0
  140.6980   70.9930  225.7470 C   0  0  0  0  0  0  0  0  0  0  0  0
  140.3460   69.6840  226.0250 C   0  0  0  0  0  0  0  0  0  0  0  0
  140.3180   69.1860  227.3080 C   0  0  0  0  0  0  0  0  0  0  0  0
  140.6560   70.0420  228.3310 C   0  0  0  0  0  0  0  0  0  0  0  0
  141.0140   71.3640  228.0920 C   0  0  0  0  0  0  0  0  0  0  0  0
  141.0410   71.8630  226.7870 C   0  0  0  0  0  0  0  0  0  0  0  0
  139.2820   75.5520  221.7170 C   0  0  0  0  0  0  0  0  0  0  0  0
  140.5390   75.5660  221.1620 C   0  0  0  0  0  0  0  0  0  0  0  0
  141.4180   76.6390  221.3470 C   0  0  0  0  0  0  0  0  0  0  0  0
  140.9820   77.7160  222.1220 C   0  0  0  0  0  0  0  0  0  0  0  0
  141.7510   78.8200  222.3820 C   0  0  0  0  0  0  0  0  0  0  0  0
  141.2680   79.8460  223.1610 C   0  0  0  0  0  0  0  0  0  0  0  0
  142.2220   81.2790  223.5300 Cl  0  0  0  0  0  0  0  0  0  0  0  0
  140.0030   79.7840  223.6930 C   0  0  0  0  0  0  0  0  0  0  0  0
  139.2090   78.6730  223.4390 C   0  0  0  0  0  0  0  0  0  0  0  0
  139.7190   77.6370  222.6440 C   0  0  0  0  0  0  0  0  0  0  0  0
  138.8950   76.6000  222.4530 N   0  0  0  0  0  0  0  0  0  0  0  0
  137.1100   75.1120  223.0900 H   0  0  0  0  0  0  0  0  0  0  0  0
  135.2845   73.8020  222.0444 H   0  0  0  0  0  0  0  0  0  0  0  0
  136.6170   72.5421  221.7091 H   0  0  0  0  0  0  0  0  0  0  0  0
  134.6558   70.6538  225.3781 H   0  0  0  0  0  0  0  0  0  0  0  0
  134.5342   69.9957  223.7357 H   0  0  0  0  0  0  0  0  0  0  0  0
  136.5287   69.2036  225.9741 H   0  0  0  0  0  0  0  0  0  0  0  0
  135.6433   68.1042  225.0139 H   0  0  0  0  0  0  0  0  0  0  0  0
  136.9354   69.0572  222.8208 H   0  0  0  0  0  0  0  0  0  0  0  0
  139.1070   68.9820  223.7840 H   0  0  0  0  0  0  0  0  0  0  0  0
  137.9363   70.9049  225.1902 H   0  0  0  0  0  0  0  0  0  0  0  0
  138.3452   71.2871  222.3301 H   0  0  0  0  0  0  0  0  0  0  0  0
  138.7027   72.4120  223.6580 H   0  0  0  0  0  0  0  0  0  0  0  0
  141.6937   71.2563  223.8779 H   0  0  0  0  0  0  0  0  0  0  0  0
  140.4632   72.4842  224.2183 H   0  0  0  0  0  0  0  0  0  0  0  0
  140.0791   69.0178  225.1913 H   0  0  0  0  0  0  0  0  0  0  0  0
  140.0357   68.1418  227.5082 H   0  0  0  0  0  0  0  0  0  0  0  0
  140.6426   69.6702  229.3662 H   0  0  0  0  0  0  0  0  0  0  0  0
  141.2773   72.0205  228.9344 H   0  0  0  0  0  0  0  0  0  0  0  0
  141.3230   72.9067  226.5842 H   0  0  0  0  0  0  0  0  0  0  0  0
  140.8638   74.7085  220.5544 H   0  0  0  0  0  0  0  0  0  0  0  0
  142.4213   76.6344  220.8960 H   0  0  0  0  0  0  0  0  0  0  0  0
  142.7660   78.8866  221.9632 H   0  0  0  0  0  0  0  0  0  0  0  0
  139.6220   80.6074  224.3150 H   0  0  0  0  0  0  0  0  0  0  0  0
  138.1933   78.6069  223.8562 H   0  0  0  0  0  0  0  0  0  0  0  0
  1  2  2  0
  2  3  1  0
  3  4  1  0
  4  5  1  0
  5  6  2  0
  5  7  1  0
  7  8  1  0
  8  9  1  0
  9 10  1  0
 10 11  1  0
 10 12  1  0
 12 13  1  0
 13 14  1  0
 14 15  1  0
 15 16  1  0
 16 17  2  0
 17 18  1  0
 18 19  2  0
 19 20  1  0
 20 21  2  0
  2 22  1  0
 22 23  2  0
 23 24  1  0
 24 25  2  0
 25 26  1  0
 26 27  2  0
 27 28  1  0
 27 29  1  0
 29 30  2  0
 30 31  1  0
 31 32  2  0
 12  7  1  0
 21 16  1  0
 32 22  1  0
 31 25  1  0
  3 33  1  0
  4 34  1  0
  4 35  1  0
  8 36  1  0
  8 37  1  0
  9 38  1  0
  9 39  1  0
 10 40  1  6
 11 41  1  0
 12 42  1  1
 13 43  1  0
 13 44  1  0
 15 45  1  0
 15 46  1  0
 17 47  1  0
 18 48  1  0
 19 49  1  0
 20 50  1  0
 21 51  1  0
 23 52  1  0
 24 53  1  0
 26 54  1  0
 29 55  1  0
 30 56  1  0
M  END
>  <smiles>  (11) 
O=C(NCC(=O)N1CC[C@H](O)[C@H]1COCc1ccccc1)c1ccc2cc(Cl)ccc2n1

>  <score_type>  (11) 
oracle

>  <origin>  (11) 
autodockgpu

>  <m_score__min__energy>  (11) 
-8.8699999999999992

>  <m_primary>  (11) 
energy

>  <rmsd>  (11) 
8.208746040202746

>  <m_score__min__rmsd>  (11) 
8.208746040202746

>  <meeko>  (11) 
{"free_energy": -7.61, "intermolecular_energy": -10.29, "internal_energy": -2.83, "cluster_size": 6, "cluster_id": 3, "rank_in_cluster": 5}

>  <energy>  (11) 
-8.4

>  <cluster_rmsd>  (11) 
0.62

>  <cluster>  (11) 
2

$$$$

     RDKit          3D

 56 59  0  0  0  0  0  0  0  0999 V2000
  139.4660   72.2410  220.5670 O   0  0  0  0  0  0  0  0  0  0  0  0
  139.5490   72.6070  221.7540 C   0  0  0  0  0  0  0  0  0  0  0  0
  139.5390   73.9830  222.0570 N   0  0  0  0  0  0  0  0  0  0  0  0
  139.4500   75.0720  221.1680 C   0  0  0  0  0  0  0  0  0  0  0  0
  140.3420   76.1980  221.3730 C   0  0  0  0  0  0  0  0  0  0  0  0
  140.9020   76.1690  222.5570 O   0  0  0  0  0  0  0  0  0  0  0  0
  140.7210   77.2800  220.5690 N   0  0  0  0  0  0  0  0  0  0  0  0
  140.7070   78.7180  220.8030 C   0  0  0  0  0  0  0  0  0  0  0  0
  141.1650   79.3800  219.4780 C   0  0  0  0  0  0  0  0  0  0  0  0
  142.1780   78.2740  219.0850 C   0  0  2  0  0  0  0  0  0  0  0  0
  142.6840   78.4570  217.8250 O   0  0  0  0  0  0  0  0  0  0  0  0
  141.1890   77.1230  219.1820 C   0  0  1  0  0  0  0  0  0  0  0  0
  141.7290   75.8080  218.8030 C   0  0  0  0  0  0  0  0  0  0  0  0
  143.1340   75.9280  218.8080 O   0  0  0  0  0  0  0  0  0  0  0  0
  143.6540   75.7180  220.0780 C   0  0  0  0  0  0  0  0  0  0  0  0
  143.7320   74.2440  220.2510 C   0  0  0  0  0  0  0  0  0  0  0  0
  144.9300   73.6270  219.9400 C   0  0  0  0  0  0  0  0  0  0  0  0
  145.1150   72.2690  220.0700 C   0  0  0  0  0  0  0  0  0  0  0  0
  144.0520   71.5230  220.5270 C   0  0  0  0  0  0  0  0  0  0  0  0
  142.8320   72.1070  220.8500 C   0  0  0  0  0  0  0  0  0  0  0  0
  142.6520   73.4860  220.7160 C   0  0  0  0  0  0  0  0  0  0  0  0
  139.6520   71.6200  222.8450 C   0  0  0  0  0  0  0  0  0  0  0  0
  139.1750   70.3370  222.7280 C   0  0  0  0  0  0  0  0  0  0  0  0
  139.2610   69.4170  223.7790 C   0  0  0  0  0  0  0  0  0  0  0  0
  139.8520   69.8380  224.9710 C   0  0  0  0  0  0  0  0  0  0  0  0
  139.9880   69.0340  226.0730 C   0  0  0  0  0  0  0  0  0  0  0  0
  140.5730   69.5100  227.2230 C   0  0  0  0  0  0  0  0  0  0  0  0
  140.7600   68.5190  228.6660 Cl  0  0  0  0  0  0  0  0  0  0  0  0
  141.0340   70.8030  227.2900 C   0  0  0  0  0  0  0  0  0  0  0  0
  140.9060   71.6310  226.1830 C   0  0  0  0  0  0  0  0  0  0  0  0
  140.3070   71.1280  225.0200 C   0  0  0  0  0  0  0  0  0  0  0  0
  140.2140   71.9910  224.0010 N   0  0  0  0  0  0  0  0  0  0  0  0
  139.6150   74.2140  223.1020 H   0  0  0  0  0  0  0  0  0  0  0  0
  139.6412   74.6841  220.1566 H   0  0  0  0  0  0  0  0  0  0  0  0
  138.4452   75.4846  221.3415 H   0  0  0  0  0  0  0  0  0  0  0  0
  139.6918   79.0514  221.0641 H   0  0  0  0  0  0  0  0  0  0  0  0
  141.3694   78.9934  221.6369 H   0  0  0  0  0  0  0  0  0  0  0  0
  140.3467   79.4846  218.7503 H   0  0  0  0  0  0  0  0  0  0  0  0
  141.5454   80.4104  219.5375 H   0  0  0  0  0  0  0  0  0  0  0  0
  143.0995   78.1853  219.6791 H   0  0  0  0  0  0  0  0  0  0  0  0
  143.4030   77.7580  217.6960 H   0  0  0  0  0  0  0  0  0  0  0  0
  140.3666   77.1586  218.4523 H   0  0  0  0  0  0  0  0  0  0  0  0
  141.4115   75.0447  219.5287 H   0  0  0  0  0  0  0  0  0  0  0  0
  141.3625   75.5013  217.8122 H   0  0  0  0  0  0  0  0  0  0  0  0
  144.6554   76.1658  220.1597 H   0  0  0  0  0  0  0  0  0  0  0  0
  143.0250   76.1815  220.8523 H   0  0  0  0  0  0  0  0  0  0  0  0
  145.7650   74.2434  219.5757 H   0  0  0  0  0  0  0  0  0  0  0  0
  146.0764   71.7975  219.8181 H   0  0  0  0  0  0  0  0  0  0  0  0
  144.1709   70.4353  220.6397 H   0  0  0  0  0  0  0  0  0  0  0  0
  142.0043   71.4799  221.2129 H   0  0  0  0  0  0  0  0  0  0  0  0
  141.6921   73.9604  220.9680 H   0  0  0  0  0  0  0  0  0  0  0  0
  138.7120   70.0237  221.7806 H   0  0  0  0  0  0  0  0  0  0  0  0
  138.8745   68.3931  223.6689 H   0  0  0  0  0  0  0  0  0  0  0  0
  139.6251   67.9962  226.0370 H   0  0  0  0  0  0  0  0  0  0  0  0
  141.5003   71.1786  228.2127 H   0  0  0  0  0  0  0  0  0  0  0  0
  141.2700   72.6684  226.2182 H   0  0  0  0  0  0  0  0  0  0  0  0
  1  2  2  0
  2  3  1  0
  3  4  1  0
  4  5  1  0
  5  6  2  0
  5  7  1  0
  7  8  1  0
  8  9  1  0
  9 10  1  0
 10 11  1  0
 10 12  1  0
 12 13  1  0
 13 14  1  0
 14 15  1  0
 15 16  1  0
 16 17  2  0
 17 18  1  0
 18 19  2  0
 19 20  1  0
 20 21  2  0
  2 22  1  0
 22 23  2  0
 23 24  1  0
 24 25  2  0
 25 26  1  0
 26 27  2  0
 27 28  1  0
 27 29  1  0
 29 30  2  0
 30 31  1  0
 31 32  2  0
 12  7  1  0
 21 16  1  0
 32 22  1  0
 31 25  1  0
  3 33  1  0
  4 34  1  0
  4 35  1  0
  8 36  1  0
  8 37  1  0
  9 38  1  0
  9 39  1  0
 10 40  1  1
 11 41  1  0
 12 42  1  6
 13 43  1  0
 13 44  1  0
 15 45  1  0
 15 46  1  0
 17 47  1  0
 18 48  1  0
 19 49  1  0
 20 50  1  0
 21 51  1  0
 23 52  1  0
 24 53  1  0
 26 54  1  0
 29 55  1  0
 30 56  1  0
M  END
>  <smiles>  (12) 
O=C(NCC(=O)N1CC[C@H](O)[C@H]1COCc1ccccc1)c1ccc2cc(Cl)ccc2n1

>  <score_type>  (12) 
oracle

>  <origin>  (12) 
autodockgpu

>  <m_score__min__energy>  (12) 
-8.8699999999999992

>  <m_primary>  (12) 
energy

>  <rmsd>  (12) 
2.452720976077873

>  <m_score__min__rmsd>  (12) 
2.452720976077873

>  <meeko>  (12) 
{"free_energy": -7.24, "intermolecular_energy": -9.92, "internal_energy": -3.33, "cluster_size": 7, "cluster_id": 5, "rank_in_cluster": 6}

>  <energy>  (12) 
-8.31

>  <cluster_rmsd>  (12) 
1.4

>  <cluster>  (12) 
2

$$$$

     RDKit          3D

 56 59  0  0  0  0  0  0  0  0999 V2000
  142.6130   78.2250  216.6750 O   0  0  0  0  0  0  0  0  0  0  0  0
  142.5740   78.5180  217.8840 C   0  0  0  0  0  0  0  0  0  0  0  0
  142.9210   77.5480  218.8450 N   0  0  0  0  0  0  0  0  0  0  0  0
  143.3260   76.2160  218.6320 C   0  0  0  0  0  0  0  0  0  0  0  0
  143.3730   75.3230  219.7760 C   0  0  0  0  0  0  0  0  0  0  0  0
  144.5450   75.3420  220.3630 O   0  0  0  0  0  0  0  0  0  0  0  0
  142.4310   74.4740  220.3680 N   0  0  0  0  0  0  0  0  0  0  0  0
  142.5440   73.1300  220.9230 C   0  0  0  0  0  0  0  0  0  0  0  0
  141.1120   72.7080  221.3380 C   0  0  0  0  0  0  0  0  0  0  0  0
  140.6500   74.1180  221.7890 C   0  0  2  0  0  0  0  0  0  0  0  0
  139.3130   74.1570  222.0860 O   0  0  0  0  0  0  0  0  0  0  0  0
  141.0030   74.8150  220.4830 C   0  0  1  0  0  0  0  0  0  0  0  0
  140.6500   76.2420  220.4280 C   0  0  0  0  0  0  0  0  0  0  0  0
  141.5150   76.9110  221.3180 O   0  0  0  0  0  0  0  0  0  0  0  0
  140.8750   77.2130  222.5130 C   0  0  0  0  0  0  0  0  0  0  0  0
  141.2670   78.6070  222.8470 C   0  0  0  0  0  0  0  0  0  0  0  0
  142.4940   79.0530  222.3880 C   0  0  0  0  0  0  0  0  0  0  0  0
  142.9520   80.3280  222.6330 C   0  0  0  0  0  0  0  0  0  0  0  0
  142.1420   81.1660  223.3640 C   0  0  0  0  0  0  0  0  0  0  0  0
  140.9030   80.7550  223.8430 C   0  0  0  0  0  0  0  0  0  0  0  0
  140.4440   79.4600  223.5900 C   0  0  0  0  0  0  0  0  0  0  0  0
  142.1730   79.8680  218.3230 C   0  0  0  0  0  0  0  0  0  0  0  0
  142.7170   81.0110  217.7890 C   0  0  0  0  0  0  0  0  0  0  0  0
  142.3420   82.2850  218.2290 C   0  0  0  0  0  0  0  0  0  0  0  0
  141.3850   82.3730  219.2410 C   0  0  0  0  0  0  0  0  0  0  0  0
  140.9420   83.5610  219.7620 C   0  0  0  0  0  0  0  0  0  0  0  0
  140.0020   83.5810  220.7660 C   0  0  0  0  0  0  0  0  0  0  0  0
  139.4090   85.0810  221.4720 Cl  0  0  0  0  0  0  0  0  0  0  0  0
  139.4870   82.4100  221.2670 C   0  0  0  0  0  0  0  0  0  0  0  0
  139.9240   81.1970  220.7500 C   0  0  0  0  0  0  0  0  0  0  0  0
  140.8830   81.1960  219.7280 C   0  0  0  0  0  0  0  0  0  0  0  0
  141.2560   79.9870  219.2900 N   0  0  0  0  0  0  0  0  0  0  0  0
  142.8600   77.8800  219.8630 H   0  0  0  0  0  0  0  0  0  0  0  0
  142.6299   75.7759  217.9028 H   0  0  0  0  0  0  0  0  0  0  0  0
  144.3735   76.2978  218.3062 H   0  0  0  0  0  0  0  0  0  0  0  0
  142.9406   72.4376  220.1659 H   0  0  0  0  0  0  0  0  0  0  0  0
  143.2312   73.1089  221.7816 H   0  0  0  0  0  0  0  0  0  0  0  0
  140.5232   72.3176  220.4949 H   0  0  0  0  0  0  0  0  0  0  0  0
  141.0223   71.8928  222.0711 H   0  0  0  0  0  0  0  0  0  0  0  0
  141.0893   74.5345  222.7074 H   0  0  0  0  0  0  0  0  0  0  0  0
  139.2410   74.2260  223.0910 H   0  0  0  0  0  0  0  0  0  0  0  0
  140.4187   74.4857  219.6111 H   0  0  0  0  0  0  0  0  0  0  0  0
  140.7865   76.6266  219.4065 H   0  0  0  0  0  0  0  0  0  0  0  0
  139.5978   76.3990  220.7078 H   0  0  0  0  0  0  0  0  0  0  0  0
  139.7841   77.1416  222.3910 H   0  0  0  0  0  0  0  0  0  0  0  0
  141.1606   76.5120  223.3112 H   0  0  0  0  0  0  0  0  0  0  0  0
  143.1255   78.3647  221.8071 H   0  0  0  0  0  0  0  0  0  0  0  0
  143.9298   80.6644  222.2580 H   0  0  0  0  0  0  0  0  0  0  0  0
  142.4841   82.1898  223.5755 H   0  0  0  0  0  0  0  0  0  0  0  0
  140.2815   81.4526  224.4237 H   0  0  0  0  0  0  0  0  0  0  0  0
  139.4661   79.1217  223.9633 H   0  0  0  0  0  0  0  0  0  0  0  0
  143.4697   80.9218  216.9919 H   0  0  0  0  0  0  0  0  0  0  0  0
  142.7879   83.1899  217.7906 H   0  0  0  0  0  0  0  0  0  0  0  0
  141.3426   84.5087  219.3729 H   0  0  0  0  0  0  0  0  0  0  0  0
  138.7356   82.4328  222.0700 H   0  0  0  0  0  0  0  0  0  0  0  0
  139.5224   80.2492  221.1379 H   0  0  0  0  0  0  0  0  0  0  0  0
  1  2  2  0
  2  3  1  0
  3  4  1  0
  4  5  1  0
  5  6  2  0
  5  7  1  0
  7  8  1  0
  8  9  1  0
  9 10  1  0
 10 11  1  0
 10 12  1  0
 12 13  1  0
 13 14  1  0
 14 15  1  0
 15 16  1  0
 16 17  2  0
 17 18  1  0
 18 19  2  0
 19 20  1  0
 20 21  2  0
  2 22  1  0
 22 23  2  0
 23 24  1  0
 24 25  2  0
 25 26  1  0
 26 27  2  0
 27 28  1  0
 27 29  1  0
 29 30  2  0
 30 31  1  0
 31 32  2  0
 12  7  1  0
 21 16  1  0
 32 22  1  0
 31 25  1  0
  3 33  1  0
  4 34  1  0
  4 35  1  0
  8 36  1  0
  8 37  1  0
  9 38  1  0
  9 39  1  0
 10 40  1  1
 11 41  1  0
 12 42  1  6
 13 43  1  0
 13 44  1  0
 15 45  1  0
 15 46  1  0
 17 47  1  0
 18 48  1  0
 19 49  1  0
 20 50  1  0
 21 51  1  0
 23 52  1  0
 24 53  1  0
 26 54  1  0
 29 55  1  0
 30 56  1  0
M  END
>  <smiles>  (13) 
O=C(NCC(=O)N1CC[C@H](O)[C@H]1COCc1ccccc1)c1ccc2cc(Cl)ccc2n1

>  <score_type>  (13) 
oracle

>  <origin>  (13) 
autodockgpu

>  <m_score__min__energy>  (13) 
-8.8699999999999992

>  <m_primary>  (13) 
energy

>  <rmsd>  (13) 
9.894486795757581

>  <m_score__min__rmsd>  (13) 
9.894486795757581

>  <meeko>  (13) 
{"free_energy": -6.8, "intermolecular_energy": -9.49, "internal_energy": -3.6, "cluster_size": 3, "cluster_id": 9, "rank_in_cluster": 3}

>  <energy>  (13) 
-8.27

>  <cluster_rmsd>  (13) 
1.15

>  <cluster>  (13) 
2

$$$$

     RDKit          3D

 56 59  0  0  0  0  0  0  0  0999 V2000
  139.8190   72.8020  220.6860 O   0  0  0  0  0  0  0  0  0  0  0  0
  139.7500   73.0500  221.9040 C   0  0  0  0  0  0  0  0  0  0  0  0
  139.5640   74.3790  222.3320 N   0  0  0  0  0  0  0  0  0  0  0  0
  139.4410   75.5400  221.5430 C   0  0  0  0  0  0  0  0  0  0  0  0
  138.2770   76.3830  221.7430 C   0  0  0  0  0  0  0  0  0  0  0  0
  137.2320   75.6910  222.1270 O   0  0  0  0  0  0  0  0  0  0  0  0
  138.0570   77.7600  221.6170 N   0  0  0  0  0  0  0  0  0  0  0  0
  137.4480   78.7350  222.5140 C   0  0  0  0  0  0  0  0  0  0  0  0
  137.4210   80.0790  221.7440 C   0  0  0  0  0  0  0  0  0  0  0  0
  138.7620   79.8650  220.9950 C   0  0  2  0  0  0  0  0  0  0  0  0
  138.9940   80.8340  220.0550 O   0  0  0  0  0  0  0  0  0  0  0  0
  138.3860   78.5170  220.3980 C   0  0  1  0  0  0  0  0  0  0  0  0
  139.3950   77.9340  219.5010 C   0  0  0  0  0  0  0  0  0  0  0  0
  140.5770   78.6840  219.6740 O   0  0  0  0  0  0  0  0  0  0  0  0
  141.4960   78.0030  220.4620 C   0  0  0  0  0  0  0  0  0  0  0  0
  141.7260   78.8570  221.6560 C   0  0  0  0  0  0  0  0  0  0  0  0
  141.4370   78.3140  222.8950 C   0  0  0  0  0  0  0  0  0  0  0  0
  141.6200   79.0130  224.0670 C   0  0  0  0  0  0  0  0  0  0  0  0
  142.1060   80.2970  223.9720 C   0  0  0  0  0  0  0  0  0  0  0  0
  142.4080   80.8780  222.7450 C   0  0  0  0  0  0  0  0  0  0  0  0
  142.2210   80.1620  221.5600 C   0  0  0  0  0  0  0  0  0  0  0  0
  139.8560   71.9700  222.9030 C   0  0  0  0  0  0  0  0  0  0  0  0
  139.4550   70.6820  222.6430 C   0  0  0  0  0  0  0  0  0  0  0  0
  139.5420   69.6710  223.6080 C   0  0  0  0  0  0  0  0  0  0  0  0
  140.0540   70.0060  224.8620 C   0  0  0  0  0  0  0  0  0  0  0  0
  140.1810   69.1090  225.8900 C   0  0  0  0  0  0  0  0  0  0  0  0
  140.6860   69.5020  227.1090 C   0  0  0  0  0  0  0  0  0  0  0  0
  140.8600   68.3890  228.4610 Cl  0  0  0  0  0  0  0  0  0  0  0  0
  141.0730   70.8040  227.3180 C   0  0  0  0  0  0  0  0  0  0  0  0
  140.9520   71.7260  226.2870 C   0  0  0  0  0  0  0  0  0  0  0  0
  140.4350   71.3070  225.0530 C   0  0  0  0  0  0  0  0  0  0  0  0
  140.3430   72.2570  224.1150 N   0  0  0  0  0  0  0  0  0  0  0  0
  139.5160   74.5080  223.3960 H   0  0  0  0  0  0  0  0  0  0  0  0
  140.3296   76.1598  221.7335 H   0  0  0  0  0  0  0  0  0  0  0  0
  139.3314   75.1620  220.5158 H   0  0  0  0  0  0  0  0  0  0  0  0
  136.4253   78.4253  222.7750 H   0  0  0  0  0  0  0  0  0  0  0  0
  138.0157   78.8236  223.4520 H   0  0  0  0  0  0  0  0  0  0  0  0
  136.5618   80.1606  221.0620 H   0  0  0  0  0  0  0  0  0  0  0  0
  137.3214   80.9972  222.3414 H   0  0  0  0  0  0  0  0  0  0  0  0
  139.6912   79.9050  221.5823 H   0  0  0  0  0  0  0  0  0  0  0  0
  139.7480   80.4990  219.4720 H   0  0  0  0  0  0  0  0  0  0  0  0
  137.5523   78.5460  219.6810 H   0  0  0  0  0  0  0  0  0  0  0  0
  139.5728   76.8810  219.7648 H   0  0  0  0  0  0  0  0  0  0  0  0
  139.0576   77.9653  218.4545 H   0  0  0  0  0  0  0  0  0  0  0  0
  141.0907   77.0259  220.7636 H   0  0  0  0  0  0  0  0  0  0  0  0
  142.4321   77.8140  219.9162 H   0  0  0  0  0  0  0  0  0  0  0  0
  141.0469   77.2867  222.9457 H   0  0  0  0  0  0  0  0  0  0  0  0
  141.3865   78.5620  225.0428 H   0  0  0  0  0  0  0  0  0  0  0  0
  142.2599   80.8800  224.8920 H   0  0  0  0  0  0  0  0  0  0  0  0
  142.7961   81.9066  222.7074 H   0  0  0  0  0  0  0  0  0  0  0  0
  142.4554   80.6099  220.5830 H   0  0  0  0  0  0  0  0  0  0  0  0
  139.0541   70.4379  221.6482 H   0  0  0  0  0  0  0  0  0  0  0  0
  139.2167   68.6443  223.3843 H   0  0  0  0  0  0  0  0  0  0  0  0
  139.8760   68.0629  225.7396 H   0  0  0  0  0  0  0  0  0  0  0  0
  141.4753   71.1131  228.2940 H   0  0  0  0  0  0  0  0  0  0  0  0
  141.2579   72.7720  226.4365 H   0  0  0  0  0  0  0  0  0  0  0  0
  1  2  2  0
  2  3  1  0
  3  4  1  0
  4  5  1  0
  5  6  2  0
  5  7  1  0
  7  8  1  0
  8  9  1  0
  9 10  1  0
 10 11  1  0
 10 12  1  0
 12 13  1  0
 13 14  1  0
 14 15  1  0
 15 16  1  0
 16 17  2  0
 17 18  1  0
 18 19  2  0
 19 20  1  0
 20 21  2  0
  2 22  1  0
 22 23  2  0
 23 24  1  0
 24 25  2  0
 25 26  1  0
 26 27  2  0
 27 28  1  0
 27 29  1  0
 29 30  2  0
 30 31  1  0
 31 32  2  0
 12  7  1  0
 21 16  1  0
 32 22  1  0
 31 25  1  0
  3 33  1  0
  4 34  1  0
  4 35  1  0
  8 36  1  0
  8 37  1  0
  9 38  1  0
  9 39  1  0
 10 40  1  1
 11 41  1  0
 12 42  1  6
 13 43  1  0
 13 44  1  0
 15 45  1  0
 15 46  1  0
 17 47  1  0
 18 48  1  0
 19 49  1  0
 20 50  1  0
 21 51  1  0
 23 52  1  0
 24 53  1  0
 26 54  1  0
 29 55  1  0
 30 56  1  0
M  END
>  <smiles>  (14) 
O=C(NCC(=O)N1CC[C@H](O)[C@H]1COCc1ccccc1)c1ccc2cc(Cl)ccc2n1

>  <score_type>  (14) 
oracle

>  <origin>  (14) 
autodockgpu

>  <m_score__min__energy>  (14) 
-8.8699999999999992

>  <m_primary>  (14) 
energy

>  <rmsd>  (14) 
3.587047022845717

>  <m_score__min__rmsd>  (14) 
3.587047022845717

>  <meeko>  (14) 
{"free_energy": -7.31, "intermolecular_energy": -9.99, "internal_energy": -2.82, "cluster_size": 5, "cluster_id": 7, "rank_in_cluster": 3}

>  <energy>  (14) 
-8.2

>  <cluster_rmsd>  (14) 
1.6

>  <cluster>  (14) 
2

$$$$

     RDKit          3D

 56 59  0  0  0  0  0  0  0  0999 V2000
  142.8680   80.2520  218.5170 O   0  0  0  0  0  0  0  0  0  0  0  0
  141.8190   79.9690  219.1230 C   0  0  0  0  0  0  0  0  0  0  0  0
  141.3800   78.6320  219.1630 N   0  0  0  0  0  0  0  0  0  0  0  0
  141.9830   77.4980  218.5830 C   0  0  0  0  0  0  0  0  0  0  0  0
  142.5320   76.4870  219.4680 C   0  0  0  0  0  0  0  0  0  0  0  0
  143.7910   76.7150  219.7490 O   0  0  0  0  0  0  0  0  0  0  0  0
  141.9910   75.3470  220.0740 N   0  0  0  0  0  0  0  0  0  0  0  0
  142.5310   74.0100  220.2920 C   0  0  0  0  0  0  0  0  0  0  0  0
  141.3920   73.1790  220.9350 C   0  0  0  0  0  0  0  0  0  0  0  0
  140.7910   74.3410  221.7670 C   0  0  2  0  0  0  0  0  0  0  0  0
  139.6130   73.9930  222.3720 O   0  0  0  0  0  0  0  0  0  0  0  0
  140.6130   75.2910  220.5910 C   0  0  1  0  0  0  0  0  0  0  0  0
  139.9700   76.5720  220.9220 C   0  0  0  0  0  0  0  0  0  0  0  0
  140.0720   76.7310  222.3190 O   0  0  0  0  0  0  0  0  0  0  0  0
  139.4780   77.9140  222.7370 C   0  0  0  0  0  0  0  0  0  0  0  0
  140.5880   78.8830  222.9350 C   0  0  0  0  0  0  0  0  0  0  0  0
  140.3020   80.0490  223.6230 C   0  0  0  0  0  0  0  0  0  0  0  0
  141.2560   81.0110  223.8690 C   0  0  0  0  0  0  0  0  0  0  0  0
  142.5300   80.7790  223.4020 C   0  0  0  0  0  0  0  0  0  0  0  0
  142.8550   79.6190  222.7070 C   0  0  0  0  0  0  0  0  0  0  0  0
  141.8820   78.6470  222.4610 C   0  0  0  0  0  0  0  0  0  0  0  0
  141.0320   81.0160  219.8020 C   0  0  0  0  0  0  0  0  0  0  0  0
  141.4550   82.3200  219.8860 C   0  0  0  0  0  0  0  0  0  0  0  0
  140.7080   83.2990  220.5520 C   0  0  0  0  0  0  0  0  0  0  0  0
  139.5020   82.9160  221.1400 C   0  0  0  0  0  0  0  0  0  0  0  0
  138.6870   83.7780  221.8240 C   0  0  0  0  0  0  0  0  0  0  0  0
  137.5130   83.3370  222.3900 C   0  0  0  0  0  0  0  0  0  0  0  0
  136.4380   84.4050  223.2860 Cl  0  0  0  0  0  0  0  0  0  0  0  0
  137.1330   82.0200  222.2780 C   0  0  0  0  0  0  0  0  0  0  0  0
  137.9470   81.1330  221.5860 C   0  0  0  0  0  0  0  0  0  0  0  0
  139.1400   81.6010  221.0180 C   0  0  0  0  0  0  0  0  0  0  0  0
  139.8700   80.6820  220.3750 N   0  0  0  0  0  0  0  0  0  0  0  0
  140.4670   78.4730  219.7040 H   0  0  0  0  0  0  0  0  0  0  0  0
  141.2221   77.0070  217.9586 H   0  0  0  0  0  0  0  0  0  0  0  0
  142.8574   77.8969  218.0479 H   0  0  0  0  0  0  0  0  0  0  0  0
  142.8356   73.5617  219.3348 H   0  0  0  0  0  0  0  0  0  0  0  0
  143.4192   74.0389  220.9404 H   0  0  0  0  0  0  0  0  0  0  0  0
  140.6862   72.7794  220.1919 H   0  0  0  0  0  0  0  0  0  0  0  0
  141.6821   72.2693  221.4812 H   0  0  0  0  0  0  0  0  0  0  0  0
  141.3725   74.7153  222.6224 H   0  0  0  0  0  0  0  0  0  0  0  0
  139.3510   74.7680  222.9660 H   0  0  0  0  0  0  0  0  0  0  0  0
  139.8905   74.9567  219.8319 H   0  0  0  0  0  0  0  0  0  0  0  0
  140.4845   77.3976  220.4085 H   0  0  0  0  0  0  0  0  0  0  0  0
  138.9182   76.5800  220.6000 H   0  0  0  0  0  0  0  0  0  0  0  0
  138.7807   78.2831  221.9705 H   0  0  0  0  0  0  0  0  0  0  0  0
  138.8999   77.7695  223.6616 H   0  0  0  0  0  0  0  0  0  0  0  0
  139.2767   80.2132  223.9861 H   0  0  0  0  0  0  0  0  0  0  0  0
  141.0091   81.9313  224.4186 H   0  0  0  0  0  0  0  0  0  0  0  0
  143.3119   81.5312  223.5834 H   0  0  0  0  0  0  0  0  0  0  0  0
  143.8838   79.4660  222.3490 H   0  0  0  0  0  0  0  0  0  0  0  0
  142.1262   77.7256  221.9120 H   0  0  0  0  0  0  0  0  0  0  0  0
  142.4085   82.6034  219.4163 H   0  0  0  0  0  0  0  0  0  0  0  0
  141.0613   84.3391  220.6100 H   0  0  0  0  0  0  0  0  0  0  0  0
  138.9742   84.8353  221.9221 H   0  0  0  0  0  0  0  0  0  0  0  0
  136.1933   81.6726  222.7322 H   0  0  0  0  0  0  0  0  0  0  0  0
  137.6592   80.0762  221.4848 H   0  0  0  0  0  0  0  0  0  0  0  0
  1  2  2  0
  2  3  1  0
  3  4  1  0
  4  5  1  0
  5  6  2  0
  5  7  1  0
  7  8  1  0
  8  9  1  0
  9 10  1  0
 10 11  1  0
 10 12  1  0
 12 13  1  0
 13 14  1  0
 14 15  1  0
 15 16  1  0
 16 17  2  0
 17 18  1  0
 18 19  2  0
 19 20  1  0
 20 21  2  0
  2 22  1  0
 22 23  2  0
 23 24  1  0
 24 25  2  0
 25 26  1  0
 26 27  2  0
 27 28  1  0
 27 29  1  0
 29 30  2  0
 30 31  1  0
 31 32  2  0
 12  7  1  0
 21 16  1  0
 32 22  1  0
 31 25  1  0
  3 33  1  0
  4 34  1  0
  4 35  1  0
  8 36  1  0
  8 37  1  0
  9 38  1  0
  9 39  1  0
 10 40  1  1
 11 41  1  0
 12 42  1  6
 13 43  1  0
 13 44  1  0
 15 45  1  0
 15 46  1  0
 17 47  1  0
 18 48  1  0
 19 49  1  0
 20 50  1  0
 21 51  1  0
 23 52  1  0
 24 53  1  0
 26 54  1  0
 29 55  1  0
 30 56  1  0
M  END
>  <smiles>  (15) 
O=C(NCC(=O)N1CC[C@H](O)[C@H]1COCc1ccccc1)c1ccc2cc(Cl)ccc2n1

>  <score_type>  (15) 
oracle

>  <origin>  (15) 
autodockgpu

>  <m_score__min__energy>  (15) 
-8.8699999999999992

>  <m_primary>  (15) 
energy

>  <rmsd>  (15) 
9.785973108671973

>  <m_score__min__rmsd>  (15) 
9.785973108671973

>  <meeko>  (15) 
{"free_energy": -5.74, "intermolecular_energy": -8.43, "internal_energy": -4.19, "cluster_size": 1, "cluster_id": 10, "rank_in_cluster": 1}

>  <energy>  (15) 
-8.18

>  <cluster_rmsd>  (15) 
1.23

>  <cluster>  (15) 
2

$$$$

     RDKit          3D

 56 59  0  0  0  0  0  0  0  0999 V2000
  133.5590   69.0540  226.1640 O   0  0  0  0  0  0  0  0  0  0  0  0
  134.0620   70.1490  225.8540 C   0  0  0  0  0  0  0  0  0  0  0  0
  135.1900   70.1800  225.0110 N   0  0  0  0  0  0  0  0  0  0  0  0
  135.8790   69.0940  224.4350 C   0  0  0  0  0  0  0  0  0  0  0  0
  137.2810   69.2710  224.1050 C   0  0  0  0  0  0  0  0  0  0  0  0
  138.0540   68.4910  224.8200 O   0  0  0  0  0  0  0  0  0  0  0  0
  137.9550   70.0850  223.1870 N   0  0  0  0  0  0  0  0  0  0  0  0
  137.8000   70.2650  221.7480 C   0  0  0  0  0  0  0  0  0  0  0  0
  138.9190   71.2430  221.3090 C   0  0  0  0  0  0  0  0  0  0  0  0
  138.9000   72.1040  222.5980 C   0  0  2  0  0  0  0  0  0  0  0  0
  139.9220   73.0160  222.6300 O   0  0  0  0  0  0  0  0  0  0  0  0
  139.0950   70.9400  223.5580 C   0  0  1  0  0  0  0  0  0  0  0  0
  139.2140   71.3180  224.9740 C   0  0  0  0  0  0  0  0  0  0  0  0
  140.4820   71.9150  225.1320 O   0  0  0  0  0  0  0  0  0  0  0  0
  141.4650   70.9600  225.3580 C   0  0  0  0  0  0  0  0  0  0  0  0
  140.9150   70.0430  226.3900 C   0  0  0  0  0  0  0  0  0  0  0  0
  140.8880   68.6910  226.0930 C   0  0  0  0  0  0  0  0  0  0  0  0
  140.4080   67.7530  226.9780 C   0  0  0  0  0  0  0  0  0  0  0  0
  139.9430   68.2020  228.1930 C   0  0  0  0  0  0  0  0  0  0  0  0
  139.9530   69.5520  228.5280 C   0  0  0  0  0  0  0  0  0  0  0  0
  140.4430   70.4990  227.6250 C   0  0  0  0  0  0  0  0  0  0  0  0
  133.4900   71.4140  226.3540 C   0  0  0  0  0  0  0  0  0  0  0  0
  132.3450   71.4580  227.1110 C   0  0  0  0  0  0  0  0  0  0  0  0
  131.8010   72.6670  227.5610 C   0  0  0  0  0  0  0  0  0  0  0  0
  132.4600   73.8490  227.2190 C   0  0  0  0  0  0  0  0  0  0  0  0
  132.0240   75.0930  227.5930 C   0  0  0  0  0  0  0  0  0  0  0  0
  132.7140   76.2220  227.2160 C   0  0  0  0  0  0  0  0  0  0  0  0
  132.1870   77.8410  227.6640 Cl  0  0  0  0  0  0  0  0  0  0  0  0
  133.8560   76.1250  226.4580 C   0  0  0  0  0  0  0  0  0  0  0  0
  134.3130   74.8720  226.0720 C   0  0  0  0  0  0  0  0  0  0  0  0
  133.5970   73.7330  226.4640 C   0  0  0  0  0  0  0  0  0  0  0  0
  134.0980   72.5650  226.0450 N   0  0  0  0  0  0  0  0  0  0  0  0
  135.5640   71.1620  224.7930 H   0  0  0  0  0  0  0  0  0  0  0  0
  135.8135   68.2538  225.1419 H   0  0  0  0  0  0  0  0  0  0  0  0
  135.3864   68.9421  223.4632 H   0  0  0  0  0  0  0  0  0  0  0  0
  137.9114   69.3013  221.2294 H   0  0  0  0  0  0  0  0  0  0  0  0
  136.8038   70.6598  221.4995 H   0  0  0  0  0  0  0  0  0  0  0  0
  139.8839   70.7398  221.1488 H   0  0  0  0  0  0  0  0  0  0  0  0
  138.7781   71.7689  220.3532 H   0  0  0  0  0  0  0  0  0  0  0  0
  138.0265   72.7494  222.7726 H   0  0  0  0  0  0  0  0  0  0  0  0
  139.9650   73.3710  223.5750 H   0  0  0  0  0  0  0  0  0  0  0  0
  140.0604   70.4211  223.4639 H   0  0  0  0  0  0  0  0  0  0  0  0
  138.4227   72.0333  225.2426 H   0  0  0  0  0  0  0  0  0  0  0  0
  139.1077   70.4392  225.6270 H   0  0  0  0  0  0  0  0  0  0  0  0
  141.6813   70.4074  224.4318 H   0  0  0  0  0  0  0  0  0  0  0  0
  142.4068   71.4216  225.6896 H   0  0  0  0  0  0  0  0  0  0  0  0
  141.2635   68.3549  225.1152 H   0  0  0  0  0  0  0  0  0  0  0  0
  140.3964   66.6829  226.7235 H   0  0  0  0  0  0  0  0  0  0  0  0
  139.5528   67.4735  228.9189 H   0  0  0  0  0  0  0  0  0  0  0  0
  139.5734   69.8756  229.5084 H   0  0  0  0  0  0  0  0  0  0  0  0
  140.4571   71.5695  227.8775 H   0  0  0  0  0  0  0  0  0  0  0  0
  131.8405   70.5158  227.3714 H   0  0  0  0  0  0  0  0  0  0  0  0
  130.8823   72.6849  228.1657 H   0  0  0  0  0  0  0  0  0  0  0  0
  131.1126   75.1900  228.2012 H   0  0  0  0  0  0  0  0  0  0  0  0
  134.4030   77.0315  226.1598 H   0  0  0  0  0  0  0  0  0  0  0  0
  135.2258   74.7746  225.4660 H   0  0  0  0  0  0  0  0  0  0  0  0
  1  2  2  0
  2  3  1  0
  3  4  1  0
  4  5  1  0
  5  6  2  0
  5  7  1  0
  7  8  1  0
  8  9  1  0
  9 10  1  0
 10 11  1  0
 10 12  1  0
 12 13  1  0
 13 14  1  0
 14 15  1  0
 15 16  1  0
 16 17  2  0
 17 18  1  0
 18 19  2  0
 19 20  1  0
 20 21  2  0
  2 22  1  0
 22 23  2  0
 23 24  1  0
 24 25  2  0
 25 26  1  0
 26 27  2  0
 27 28  1  0
 27 29  1  0
 29 30  2  0
 30 31  1  0
 31 32  2  0
 12  7  1  0
 21 16  1  0
 32 22  1  0
 31 25  1  0
  3 33  1  0
  4 34  1  0
  4 35  1  0
  8 36  1  0
  8 37  1  0
  9 38  1  0
  9 39  1  0
 10 40  1  1
 11 41  1  0
 12 42  1  6
 13 43  1  0
 13 44  1  0
 15 45  1  0
 15 46  1  0
 17 47  1  0
 18 48  1  0
 19 49  1  0
 20 50  1  0
 21 51  1  0
 23 52  1  0
 24 53  1  0
 26 54  1  0
 29 55  1  0
 30 56  1  0
M  END
>  <smiles>  (16) 
O=C(NCC(=O)N1CC[C@H](O)[C@H]1COCc1ccccc1)c1ccc2cc(Cl)ccc2n1

>  <score_type>  (16) 
oracle

>  <origin>  (16) 
autodockgpu

>  <m_score__min__energy>  (16) 
-8.8699999999999992

>  <m_primary>  (16) 
energy

>  <rmsd>  (16) 
7.778556594408829

>  <m_score__min__rmsd>  (16) 
7.778556594408829

>  <meeko>  (16) 
{"free_energy": -8.49, "intermolecular_energy": -11.18, "internal_energy": -2.6, "cluster_size": 8, "cluster_id": 1, "rank_in_cluster": 5}

>  <energy>  (16) 
-8.13

>  <cluster_rmsd>  (16) 
1.21

>  <cluster>  (16) 
2

$$$$

     RDKit          3D

 56 59  0  0  0  0  0  0  0  0999 V2000
  141.3680   74.0280  221.3980 O   0  0  0  0  0  0  0  0  0  0  0  0
  140.3030   74.3610  221.9510 C   0  0  0  0  0  0  0  0  0  0  0  0
  139.3650   73.3710  222.3040 N   0  0  0  0  0  0  0  0  0  0  0  0
  139.4530   71.9780  222.1110 C   0  0  0  0  0  0  0  0  0  0  0  0
  138.2700   71.1760  222.3660 C   0  0  0  0  0  0  0  0  0  0  0  0
  137.2730   71.9030  222.8090 O   0  0  0  0  0  0  0  0  0  0  0  0
  137.9880   69.8120  222.2270 N   0  0  0  0  0  0  0  0  0  0  0  0
  137.3250   69.0580  221.1700 C   0  0  0  0  0  0  0  0  0  0  0  0
  137.2450   67.5920  221.6650 C   0  0  0  0  0  0  0  0  0  0  0  0
  138.6030   67.5980  222.4130 C   0  0  2  0  0  0  0  0  0  0  0  0
  138.8010   66.4550  223.1420 O   0  0  0  0  0  0  0  0  0  0  0  0
  138.2970   68.8190  223.2680 C   0  0  1  0  0  0  0  0  0  0  0  0
  139.3430   69.1720  224.2400 C   0  0  0  0  0  0  0  0  0  0  0  0
  139.1980   68.2920  225.3330 O   0  0  0  0  0  0  0  0  0  0  0  0
  140.3440   68.2690  226.1180 C   0  0  0  0  0  0  0  0  0  0  0  0
  140.5260   69.6570  226.6180 C   0  0  0  0  0  0  0  0  0  0  0  0
  139.8630   70.0090  227.7810 C   0  0  0  0  0  0  0  0  0  0  0  0
  139.9670   71.2640  228.3370 C   0  0  0  0  0  0  0  0  0  0  0  0
  140.7650   72.1820  227.6920 C   0  0  0  0  0  0  0  0  0  0  0  0
  141.4470   71.8660  226.5220 C   0  0  0  0  0  0  0  0  0  0  0  0
  141.3370   70.5900  225.9640 C   0  0  0  0  0  0  0  0  0  0  0  0
  140.0140   75.7770  222.2430 C   0  0  0  0  0  0  0  0  0  0  0  0
  141.0040   76.7200  222.3820 C   0  0  0  0  0  0  0  0  0  0  0  0
  140.7160   78.0570  222.6810 C   0  0  0  0  0  0  0  0  0  0  0  0
  139.3770   78.4200  222.8360 C   0  0  0  0  0  0  0  0  0  0  0  0
  138.9690   79.6930  223.1360 C   0  0  0  0  0  0  0  0  0  0  0  0
  137.6330   79.9860  223.2860 C   0  0  0  0  0  0  0  0  0  0  0  0
  137.0610   81.6030  223.6800 Cl  0  0  0  0  0  0  0  0  0  0  0  0
  136.6800   79.0060  223.1360 C   0  0  0  0  0  0  0  0  0  0  0  0
  137.0760   77.7110  222.8310 C   0  0  0  0  0  0  0  0  0  0  0  0
  138.4420   77.4310  222.6830 C   0  0  0  0  0  0  0  0  0  0  0  0
  138.7410   76.1580  222.3970 N   0  0  0  0  0  0  0  0  0  0  0  0
  138.4750   73.7410  222.7740 H   0  0  0  0  0  0  0  0  0  0  0  0
  139.7409   71.8111  221.0625 H   0  0  0  0  0  0  0  0  0  0  0  0
  140.1789   71.6425  222.8663 H   0  0  0  0  0  0  0  0  0  0  0  0
  136.3148   69.4562  220.9945 H   0  0  0  0  0  0  0  0  0  0  0  0
  137.8773   69.1298  220.2214 H   0  0  0  0  0  0  0  0  0  0  0  0
  136.3912   67.4162  222.3360 H   0  0  0  0  0  0  0  0  0  0  0  0
  137.0957   66.8129  220.9029 H   0  0  0  0  0  0  0  0  0  0  0  0
  139.5224   67.6332  221.8101 H   0  0  0  0  0  0  0  0  0  0  0  0
  139.4240   66.6980  223.9000 H   0  0  0  0  0  0  0  0  0  0  0  0
  137.4717   68.6869  223.9832 H   0  0  0  0  0  0  0  0  0  0  0  0
  140.3378   69.0514  223.7862 H   0  0  0  0  0  0  0  0  0  0  0  0
  139.2457   70.2195  224.5613 H   0  0  0  0  0  0  0  0  0  0  0  0
  140.2165   67.5730  226.9602 H   0  0  0  0  0  0  0  0  0  0  0  0
  141.2188   67.9295  225.5440 H   0  0  0  0  0  0  0  0  0  0  0  0
  139.2305   69.2592  228.2787 H   0  0  0  0  0  0  0  0  0  0  0  0
  139.4322   71.5238  229.2625 H   0  0  0  0  0  0  0  0  0  0  0  0
  140.8659   73.1930  228.1136 H   0  0  0  0  0  0  0  0  0  0  0  0
  142.0762   72.6245  226.0335 H   0  0  0  0  0  0  0  0  0  0  0  0
  141.8715   70.3273  225.0392 H   0  0  0  0  0  0  0  0  0  0  0  0
  142.0533   76.4154  222.2546 H   0  0  0  0  0  0  0  0  0  0  0  0
  141.5206   78.7991  222.7905 H   0  0  0  0  0  0  0  0  0  0  0  0
  139.7177   80.4896  223.2583 H   0  0  0  0  0  0  0  0  0  0  0  0
  135.6133   79.2462  223.2567 H   0  0  0  0  0  0  0  0  0  0  0  0
  136.3276   76.9144  222.7069 H   0  0  0  0  0  0  0  0  0  0  0  0
  1  2  2  0
  2  3  1  0
  3  4  1  0
  4  5  1  0
  5  6  2  0
  5  7  1  0
  7  8  1  0
  8  9  1  0
  9 10  1  0
 10 11  1  0
 10 12  1  0
 12 13  1  0
 13 14  1  0
 14 15  1  0
 15 16  1  0
 16 17  2  0
 17 18  1  0
 18 19  2  0
 19 20  1  0
 20 21  2  0
  2 22  1  0
 22 23  2  0
 23 24  1  0
 24 25  2  0
 25 26  1  0
 26 27  2  0
 27 28  1  0
 27 29  1  0
 29 30  2  0
 30 31  1  0
 31 32  2  0
 12  7  1  0
 21 16  1  0
 32 22  1  0
 31 25  1  0
  3 33  1  0
  4 34  1  0
  4 35  1  0
  8 36  1  0
  8 37  1  0
  9 38  1  0
  9 39  1  0
 10 40  1  6
 11 41  1  0
 12 42  1  1
 13 43  1  0
 13 44  1  0
 15 45  1  0
 15 46  1  0
 17 47  1  0
 18 48  1  0
 19 49  1  0
 20 50  1  0
 21 51  1  0
 23 52  1  0
 24 53  1  0
 26 54  1  0
 29 55  1  0
 30 56  1  0
M  END
>  <smiles>  (17) 
O=C(NCC(=O)N1CC[C@H](O)[C@H]1COCc1ccccc1)c1ccc2cc(Cl)ccc2n1

>  <score_type>  (17) 
oracle

>  <origin>  (17) 
autodockgpu

>  <m_score__min__energy>  (17) 
-8.8699999999999992

>  <m_primary>  (17) 
energy

>  <rmsd>  (17) 
8.478663934809177

>  <m_score__min__rmsd>  (17) 
8.478663934809177

>  <meeko>  (17) 
{"free_energy": -7.8, "intermolecular_energy": -10.48, "internal_energy": -2.77, "cluster_size": 2, "cluster_id": 6, "rank_in_cluster": 1}

>  <energy>  (17) 
-8.13

>  <cluster_rmsd>  (17) 
1.65

>  <cluster>  (17) 
2

$$$$

     RDKit          3D

 56 59  0  0  0  0  0  0  0  0999 V2000
  133.6980   69.0930  226.4390 O   0  0  0  0  0  0  0  0  0  0  0  0
  134.1300   70.1830  226.0200 C   0  0  0  0  0  0  0  0  0  0  0  0
  135.2070   70.2000  225.1130 N   0  0  0  0  0  0  0  0  0  0  0  0
  135.9140   69.1060  224.5780 C   0  0  0  0  0  0  0  0  0  0  0  0
  137.3090   69.2990  224.2250 C   0  0  0  0  0  0  0  0  0  0  0  0
  138.1060   68.5550  224.9540 O   0  0  0  0  0  0  0  0  0  0  0  0
  137.9560   70.0980  223.2750 N   0  0  0  0  0  0  0  0  0  0  0  0
  137.7280   70.2920  221.8480 C   0  0  0  0  0  0  0  0  0  0  0  0
  138.8510   71.2370  221.3520 C   0  0  0  0  0  0  0  0  0  0  0  0
  138.9290   72.0900  222.6440 C   0  0  2  0  0  0  0  0  0  0  0  0
  139.9790   72.9710  222.6240 O   0  0  0  0  0  0  0  0  0  0  0  0
  139.1410   70.9150  223.5860 C   0  0  1  0  0  0  0  0  0  0  0  0
  139.3490   71.2810  224.9960 C   0  0  0  0  0  0  0  0  0  0  0  0
  140.6110   71.9060  225.0720 O   0  0  0  0  0  0  0  0  0  0  0  0
  141.1240   71.8510  226.3620 C   0  0  0  0  0  0  0  0  0  0  0  0
  140.8870   70.4640  226.8390 C   0  0  0  0  0  0  0  0  0  0  0  0
  141.4640   69.4330  226.1180 C   0  0  0  0  0  0  0  0  0  0  0  0
  141.3160   68.1110  226.4750 C   0  0  0  0  0  0  0  0  0  0  0  0
  140.5610   67.8350  227.5920 C   0  0  0  0  0  0  0  0  0  0  0  0
  139.9640   68.8420  228.3420 C   0  0  0  0  0  0  0  0  0  0  0  0
  140.1200   70.1820  227.9740 C   0  0  0  0  0  0  0  0  0  0  0  0
  133.5260   71.4550  226.4600 C   0  0  0  0  0  0  0  0  0  0  0  0
  132.3650   71.5070  227.1920 C   0  0  0  0  0  0  0  0  0  0  0  0
  131.7910   72.7230  227.5840 C   0  0  0  0  0  0  0  0  0  0  0  0
  132.4360   73.9020  227.2100 C   0  0  0  0  0  0  0  0  0  0  0  0
  131.9710   75.1520  227.5270 C   0  0  0  0  0  0  0  0  0  0  0  0
  132.6480   76.2780  227.1200 C   0  0  0  0  0  0  0  0  0  0  0  0
  132.0840   77.9030  227.4940 Cl  0  0  0  0  0  0  0  0  0  0  0  0
  133.8060   76.1730  226.3890 C   0  0  0  0  0  0  0  0  0  0  0  0
  134.2930   74.9150  226.0600 C   0  0  0  0  0  0  0  0  0  0  0  0
  133.5890   73.7780  226.4820 C   0  0  0  0  0  0  0  0  0  0  0  0
  134.1200   72.6040  226.1180 N   0  0  0  0  0  0  0  0  0  0  0  0
  135.5200   71.1790  224.8020 H   0  0  0  0  0  0  0  0  0  0  0  0
  135.8744   68.2965  225.3217 H   0  0  0  0  0  0  0  0  0  0  0  0
  135.4154   68.9009  223.6192 H   0  0  0  0  0  0  0  0  0  0  0  0
  137.7801   69.3286  221.3197 H   0  0  0  0  0  0  0  0  0  0  0  0
  136.7327   70.7196  221.6570 H   0  0  0  0  0  0  0  0  0  0  0  0
  139.7895   70.7051  221.1368 H   0  0  0  0  0  0  0  0  0  0  0  0
  138.6749   71.7726  220.4075 H   0  0  0  0  0  0  0  0  0  0  0  0
  138.0864   72.7603  222.8693 H   0  0  0  0  0  0  0  0  0  0  0  0
  140.0420   73.3690  223.5500 H   0  0  0  0  0  0  0  0  0  0  0  0
  140.0832   70.3675  223.4362 H   0  0  0  0  0  0  0  0  0  0  0  0
  138.5622   71.9746  225.3274 H   0  0  0  0  0  0  0  0  0  0  0  0
  139.3079   70.3936  225.6447 H   0  0  0  0  0  0  0  0  0  0  0  0
  142.2012   72.0737  226.3546 H   0  0  0  0  0  0  0  0  0  0  0  0
  140.6423   72.5904  227.0187 H   0  0  0  0  0  0  0  0  0  0  0  0
  142.0622   69.6782  225.2280 H   0  0  0  0  0  0  0  0  0  0  0  0
  141.7837   67.3060  225.8892 H   0  0  0  0  0  0  0  0  0  0  0  0
  140.4260   66.7877  227.9002 H   0  0  0  0  0  0  0  0  0  0  0  0
  139.3664   68.5835  229.2286 H   0  0  0  0  0  0  0  0  0  0  0  0
  139.6541   70.9889  228.5588 H   0  0  0  0  0  0  0  0  0  0  0  0
  131.8717   70.5665  227.4787 H   0  0  0  0  0  0  0  0  0  0  0  0
  130.8598   72.7475  228.1690 H   0  0  0  0  0  0  0  0  0  0  0  0
  131.0461   75.2557  228.1134 H   0  0  0  0  0  0  0  0  0  0  0  0
  134.3429   77.0775  226.0671 H   0  0  0  0  0  0  0  0  0  0  0  0
  135.2193   74.8116  225.4758 H   0  0  0  0  0  0  0  0  0  0  0  0
  1  2  2  0
  2  3  1  0
  3  4  1  0
  4  5  1  0
  5  6  2  0
  5  7  1  0
  7  8  1  0
  8  9  1  0
  9 10  1  0
 10 11  1  0
 10 12  1  0
 12 13  1  0
 13 14  1  0
 14 15  1  0
 15 16  1  0
 16 17  2  0
 17 18  1  0
 18 19  2  0
 19 20  1  0
 20 21  2  0
  2 22  1  0
 22 23  2  0
 23 24  1  0
 24 25  2  0
 25 26  1  0
 26 27  2  0
 27 28  1  0
 27 29  1  0
 29 30  2  0
 30 31  1  0
 31 32  2  0
 12  7  1  0
 21 16  1  0
 32 22  1  0
 31 25  1  0
  3 33  1  0
  4 34  1  0
  4 35  1  0
  8 36  1  0
  8 37  1  0
  9 38  1  0
  9 39  1  0
 10 40  1  1
 11 41  1  0
 12 42  1  6
 13 43  1  0
 13 44  1  0
 15 45  1  0
 15 46  1  0
 17 47  1  0
 18 48  1  0
 19 49  1  0
 20 50  1  0
 21 51  1  0
 23 52  1  0
 24 53  1  0
 26 54  1  0
 29 55  1  0
 30 56  1  0
M  END
>  <smiles>  (18) 
O=C(NCC(=O)N1CC[C@H](O)[C@H]1COCc1ccccc1)c1ccc2cc(Cl)ccc2n1

>  <score_type>  (18) 
oracle

>  <origin>  (18) 
autodockgpu

>  <m_score__min__energy>  (18) 
-8.8699999999999992

>  <m_primary>  (18) 
energy

>  <rmsd>  (18) 
7.821063447730398

>  <m_score__min__rmsd>  (18) 
7.821063447730398

>  <meeko>  (18) 
{"free_energy": -8.87, "intermolecular_energy": -11.55, "internal_energy": -2.51, "cluster_size": 8, "cluster_id": 1, "rank_in_cluster": 1}

>  <energy>  (18) 
-8.03

>  <cluster_rmsd>  (18) 
1.73

>  <cluster>  (18) 
2

$$$$

     RDKit          3D

 56 59  0  0  0  0  0  0  0  0999 V2000
  133.8280   69.0810  226.4710 O   0  0  0  0  0  0  0  0  0  0  0  0
  134.2190   70.1710  226.0150 C   0  0  0  0  0  0  0  0  0  0  0  0
  135.2600   70.1930  225.0670 N   0  0  0  0  0  0  0  0  0  0  0  0
  135.9710   69.1030  224.5270 C   0  0  0  0  0  0  0  0  0  0  0  0
  137.3630   69.3060  224.1680 C   0  0  0  0  0  0  0  0  0  0  0  0
  138.1660   68.5540  224.8800 O   0  0  0  0  0  0  0  0  0  0  0  0
  138.0010   70.1200  223.2250 N   0  0  0  0  0  0  0  0  0  0  0  0
  137.7930   70.3000  221.7940 C   0  0  0  0  0  0  0  0  0  0  0  0
  138.8940   71.2790  221.3130 C   0  0  0  0  0  0  0  0  0  0  0  0
  138.9220   72.1400  222.6020 C   0  0  2  0  0  0  0  0  0  0  0  0
  139.9430   73.0530  222.5950 O   0  0  0  0  0  0  0  0  0  0  0  0
  139.1540   70.9760  223.5540 C   0  0  1  0  0  0  0  0  0  0  0  0
  139.3240   71.3550  224.9650 C   0  0  0  0  0  0  0  0  0  0  0  0
  140.6090   71.9240  225.0810 O   0  0  0  0  0  0  0  0  0  0  0  0
  141.0880   71.8280  226.3820 C   0  0  0  0  0  0  0  0  0  0  0  0
  140.9060   70.4080  226.7820 C   0  0  0  0  0  0  0  0  0  0  0  0
  140.1740   70.1570  227.9290 C   0  0  0  0  0  0  0  0  0  0  0  0
  139.9370   68.8810  228.3870 C   0  0  0  0  0  0  0  0  0  0  0  0
  140.4590   67.8360  227.6590 C   0  0  0  0  0  0  0  0  0  0  0  0
  141.2000   68.0480  226.5010 C   0  0  0  0  0  0  0  0  0  0  0  0
  141.4360   69.3460  226.0410 C   0  0  0  0  0  0  0  0  0  0  0  0
  133.6020   71.4380  226.4510 C   0  0  0  0  0  0  0  0  0  0  0  0
  132.4440   71.4810  227.1890 C   0  0  0  0  0  0  0  0  0  0  0  0
  131.8590   72.6920  227.5780 C   0  0  0  0  0  0  0  0  0  0  0  0
  132.4890   73.8770  227.1950 C   0  0  0  0  0  0  0  0  0  0  0  0
  132.0110   75.1220  227.5080 C   0  0  0  0  0  0  0  0  0  0  0  0
  132.6740   76.2540  227.0940 C   0  0  0  0  0  0  0  0  0  0  0  0
  132.0940   77.8750  227.4630 Cl  0  0  0  0  0  0  0  0  0  0  0  0
  133.8300   76.1580  226.3580 C   0  0  0  0  0  0  0  0  0  0  0  0
  134.3300   74.9040  226.0330 C   0  0  0  0  0  0  0  0  0  0  0  0
  133.6400   73.7620  226.4630 C   0  0  0  0  0  0  0  0  0  0  0  0
  134.1820   72.5930  226.1020 N   0  0  0  0  0  0  0  0  0  0  0  0
  135.5380   71.1710  224.7250 H   0  0  0  0  0  0  0  0  0  0  0  0
  135.9400   68.2923  225.2698 H   0  0  0  0  0  0  0  0  0  0  0  0
  135.4689   68.8950  223.5706 H   0  0  0  0  0  0  0  0  0  0  0  0
  137.8858   69.3364  221.2717 H   0  0  0  0  0  0  0  0  0  0  0  0
  136.7880   70.6944  221.5830 H   0  0  0  0  0  0  0  0  0  0  0  0
  139.8528   70.7767  221.1169 H   0  0  0  0  0  0  0  0  0  0  0  0
  138.7172   71.8045  220.3630 H   0  0  0  0  0  0  0  0  0  0  0  0
  138.0550   72.7843  222.8098 H   0  0  0  0  0  0  0  0  0  0  0  0
  140.0490   73.3780  223.5470 H   0  0  0  0  0  0  0  0  0  0  0  0
  140.1156   70.4578  223.4246 H   0  0  0  0  0  0  0  0  0  0  0  0
  138.5573   72.0884  225.2553 H   0  0  0  0  0  0  0  0  0  0  0  0
  139.2179   70.4810  225.6244 H   0  0  0  0  0  0  0  0  0  0  0  0
  142.1527   72.1019  226.4184 H   0  0  0  0  0  0  0  0  0  0  0  0
  140.5526   72.5092  227.0597 H   0  0  0  0  0  0  0  0  0  0  0  0
  139.7669   71.0078  228.4951 H   0  0  0  0  0  0  0  0  0  0  0  0
  139.3519   68.7028  229.3013 H   0  0  0  0  0  0  0  0  0  0  0  0
  140.2855   66.8054  228.0022 H   0  0  0  0  0  0  0  0  0  0  0  0
  141.6024   67.1889  225.9443 H   0  0  0  0  0  0  0  0  0  0  0  0
  142.0194   69.5271  225.1262 H   0  0  0  0  0  0  0  0  0  0  0  0
  131.9625   70.5366  227.4827 H   0  0  0  0  0  0  0  0  0  0  0  0
  130.9306   72.7090  228.1678 H   0  0  0  0  0  0  0  0  0  0  0  0
  131.0868   75.2176  228.0969 H   0  0  0  0  0  0  0  0  0  0  0  0
  134.3551   77.0668  226.0289 H   0  0  0  0  0  0  0  0  0  0  0  0
  135.2553   74.8080  225.4459 H   0  0  0  0  0  0  0  0  0  0  0  0
  1  2  2  0
  2  3  1  0
  3  4  1  0
  4  5  1  0
  5  6  2  0
  5  7  1  0
  7  8  1  0
  8  9  1  0
  9 10  1  0
 10 11  1  0
 10 12  1  0
 12 13  1  0
 13 14  1  0
 14 15  1  0
 15 16  1  0
 16 17  2  0
 17 18  1  0
 18 19  2  0
 19 20  1  0
 20 21  2  0
  2 22  1  0
 22 23  2  0
 23 24  1  0
 24 25  2  0
 25 26  1  0
 26 27  2  0
 27 28  1  0
 27 29  1  0
 29 30  2  0
 30 31  1  0
 31 32  2  0
 12  7  1  0
 21 16  1  0
 32 22  1  0
 31 25  1  0
  3 33  1  0
  4 34  1  0
  4 35  1  0
  8 36  1  0
  8 37  1  0
  9 38  1  0
  9 39  1  0
 10 40  1  1
 11 41  1  0
 12 42  1  6
 13 43  1  0
 13 44  1  0
 15 45  1  0
 15 46  1  0
 17 47  1  0
 18 48  1  0
 19 49  1  0
 20 50  1  0
 21 51  1  0
 23 52  1  0
 24 53  1  0
 26 54  1  0
 29 55  1  0
 30 56  1  0
M  END
>  <smiles>  (19) 
O=C(NCC(=O)N1CC[C@H](O)[C@H]1COCc1ccccc1)c1ccc2cc(Cl)ccc2n1

>  <score_type>  (19) 
oracle

>  <origin>  (19) 
autodockgpu

>  <m_score__min__energy>  (19) 
-8.8699999999999992

>  <m_primary>  (19) 
energy

>  <rmsd>  (19) 
7.767326192641033

>  <m_score__min__rmsd>  (19) 
7.767326192641033

>  <meeko>  (19) 
{"free_energy": -8.75, "intermolecular_energy": -11.43, "internal_energy": -2.58, "cluster_size": 8, "cluster_id": 1, "rank_in_cluster": 2}

>  <energy>  (19) 
-7.94

>  <cluster_rmsd>  (19) 
1.46

>  <cluster>  (19) 
2

$$$$

     RDKit          3D

 56 59  0  0  0  0  0  0  0  0999 V2000
  140.7870   73.9910  222.0810 O   0  0  0  0  0  0  0  0  0  0  0  0
  140.1020   72.9640  221.9310 C   0  0  0  0  0  0  0  0  0  0  0  0
  139.3630   72.7890  220.7450 N   0  0  0  0  0  0  0  0  0  0  0  0
  139.2750   73.6550  219.6370 C   0  0  0  0  0  0  0  0  0  0  0  0
  138.8300   75.0180  219.8680 C   0  0  0  0  0  0  0  0  0  0  0  0
  137.9580   75.4060  218.9690 O   0  0  0  0  0  0  0  0  0  0  0  0
  139.1340   75.9730  220.8450 N   0  0  0  0  0  0  0  0  0  0  0  0
  138.5700   76.2300  222.1650 C   0  0  0  0  0  0  0  0  0  0  0  0
  139.2850   77.4940  222.7050 C   0  0  0  0  0  0  0  0  0  0  0  0
  140.6650   77.1870  222.0690 C   0  0  2  0  0  0  0  0  0  0  0  0
  141.5480   78.2240  222.2140 O   0  0  0  0  0  0  0  0  0  0  0  0
  140.1430   77.0270  220.6490 C   0  0  1  0  0  0  0  0  0  0  0  0
  141.1770   76.7830  219.6320 C   0  0  0  0  0  0  0  0  0  0  0  0
  142.3850   76.5590  220.3250 O   0  0  0  0  0  0  0  0  0  0  0  0
  143.3840   76.1160  219.4680 C   0  0  0  0  0  0  0  0  0  0  0  0
  143.7970   74.7820  219.9740 C   0  0  0  0  0  0  0  0  0  0  0  0
  142.8660   73.7590  219.9150 C   0  0  0  0  0  0  0  0  0  0  0  0
  143.1450   72.4830  220.3490 C   0  0  0  0  0  0  0  0  0  0  0  0
  144.4020   72.2440  220.8570 C   0  0  0  0  0  0  0  0  0  0  0  0
  145.3640   73.2450  220.9340 C   0  0  0  0  0  0  0  0  0  0  0  0
  145.0740   74.5380  220.4910 C   0  0  0  0  0  0  0  0  0  0  0  0
  140.0560   71.9250  222.9780 C   0  0  0  0  0  0  0  0  0  0  0  0
  139.5100   70.6830  222.7630 C   0  0  0  0  0  0  0  0  0  0  0  0
  139.4540   69.7150  223.7730 C   0  0  0  0  0  0  0  0  0  0  0  0
  139.9740   70.0430  225.0250 C   0  0  0  0  0  0  0  0  0  0  0  0
  139.9720   69.1860  226.0940 C   0  0  0  0  0  0  0  0  0  0  0  0
  140.4920   69.5720  227.3070 C   0  0  0  0  0  0  0  0  0  0  0  0
  140.5020   68.5090  228.7100 Cl  0  0  0  0  0  0  0  0  0  0  0  0
  141.0280   70.8270  227.4710 C   0  0  0  0  0  0  0  0  0  0  0  0
  141.0400   71.7090  226.3990 C   0  0  0  0  0  0  0  0  0  0  0  0
  140.5040   71.2980  225.1700 C   0  0  0  0  0  0  0  0  0  0  0  0
  140.5470   72.2080  224.1900 N   0  0  0  0  0  0  0  0  0  0  0  0
  138.7980   71.8780  220.6950 H   0  0  0  0  0  0  0  0  0  0  0  0
  140.2765   73.7104  219.1854 H   0  0  0  0  0  0  0  0  0  0  0  0
  138.4892   73.2137  219.0064 H   0  0  0  0  0  0  0  0  0  0  0  0
  137.4873   76.4084  222.0884 H   0  0  0  0  0  0  0  0  0  0  0  0
  138.7158   75.3708  222.8362 H   0  0  0  0  0  0  0  0  0  0  0  0
  138.8414   78.4269  222.3269 H   0  0  0  0  0  0  0  0  0  0  0  0
  139.2599   77.6575  223.7925 H   0  0  0  0  0  0  0  0  0  0  0  0
  141.2458   76.3484  222.4807 H   0  0  0  0  0  0  0  0  0  0  0  0
  142.4440   77.8910  221.8860 H   0  0  0  0  0  0  0  0  0  0  0  0
  139.7185   77.9408  220.2078 H   0  0  0  0  0  0  0  0  0  0  0  0
  140.9159   75.8996  219.0308 H   0  0  0  0  0  0  0  0  0  0  0  0
  141.2674   77.6393  218.9475 H   0  0  0  0  0  0  0  0  0  0  0  0
  142.9975   76.0324  218.4416 H   0  0  0  0  0  0  0  0  0  0  0  0
  144.2316   76.8166  219.4417 H   0  0  0  0  0  0  0  0  0  0  0  0
  141.8674   73.9737  219.5066 H   0  0  0  0  0  0  0  0  0  0  0  0
  142.3914   71.6837  220.2921 H   0  0  0  0  0  0  0  0  0  0  0  0
  144.6522   71.2333  221.2118 H   0  0  0  0  0  0  0  0  0  0  0  0
  146.3584   73.0178  221.3458 H   0  0  0  0  0  0  0  0  0  0  0  0
  145.8260   75.3389  220.5469 H   0  0  0  0  0  0  0  0  0  0  0  0
  139.1052   70.4421  221.7690 H   0  0  0  0  0  0  0  0  0  0  0  0
  139.0129   68.7250  223.5847 H   0  0  0  0  0  0  0  0  0  0  0  0
  139.5492   68.1768  225.9805 H   0  0  0  0  0  0  0  0  0  0  0  0
  141.4439   71.1299  228.4433 H   0  0  0  0  0  0  0  0  0  0  0  0
  141.4645   72.7174  226.5122 H   0  0  0  0  0  0  0  0  0  0  0  0
  1  2  2  0
  2  3  1  0
  3  4  1  0
  4  5  1  0
  5  6  2  0
  5  7  1  0
  7  8  1  0
  8  9  1  0
  9 10  1  0
 10 11  1  0
 10 12  1  0
 12 13  1  0
 13 14  1  0
 14 15  1  0
 15 16  1  0
 16 17  2  0
 17 18  1  0
 18 19  2  0
 19 20  1  0
 20 21  2  0
  2 22  1  0
 22 23  2  0
 23 24  1  0
 24 25  2  0
 25 26  1  0
 26 27  2  0
 27 28  1  0
 27 29  1  0
 29 30  2  0
 30 31  1  0
 31 32  2  0
 12  7  1  0
 21 16  1  0
 32 22  1  0
 31 25  1  0
  3 33  1  0
  4 34  1  0
  4 35  1  0
  8 36  1  0
  8 37  1  0
  9 38  1  0
  9 39  1  0
 10 40  1  1
 11 41  1  0
 12 42  1  6
 13 43  1  0
 13 44  1  0
 15 45  1  0
 15 46  1  0
 17 47  1  0
 18 48  1  0
 19 49  1  0
 20 50  1  0
 21 51  1  0
 23 52  1  0
 24 53  1  0
 26 54  1  0
 29 55  1  0
 30 56  1  0
M  END
>  <smiles>  (20) 
O=C(NCC(=O)N1CC[C@H](O)[C@H]1COCc1ccccc1)c1ccc2cc(Cl)ccc2n1

>  <score_type>  (20) 
oracle

>  <origin>  (20) 
autodockgpu

>  <m_score__min__energy>  (20) 
-8.8699999999999992

>  <m_primary>  (20) 
energy

>  <rmsd>  (20) 
3.03359165077208

>  <m_score__min__rmsd>  (20) 
3.03359165077208

>  <meeko>  (20) 
{"free_energy": -7.88, "intermolecular_energy": -10.57, "internal_energy": -2.94, "cluster_size": 7, "cluster_id": 5, "rank_in_cluster": 1}

>  <energy>  (20) 
-7.77

>  <cluster_rmsd>  (20) 
1.64

>  <cluster>  (20) 
2

$$$$

     RDKit          3D

 56 59  0  0  0  0  0  0  0  0999 V2000
  138.0910   71.7350  221.0140 O   0  0  0  0  0  0  0  0  0  0  0  0
  138.6950   72.0940  222.0410 C   0  0  0  0  0  0  0  0  0  0  0  0
  139.0720   73.4440  222.1880 N   0  0  0  0  0  0  0  0  0  0  0  0
  138.8590   74.5110  221.2930 C   0  0  0  0  0  0  0  0  0  0  0  0
  139.8820   75.5360  221.1950 C   0  0  0  0  0  0  0  0  0  0  0  0
  139.4630   76.6900  221.6560 O   0  0  0  0  0  0  0  0  0  0  0  0
  141.2010   75.5340  220.7250 N   0  0  0  0  0  0  0  0  0  0  0  0
  142.2230   74.4950  220.7000 C   0  0  0  0  0  0  0  0  0  0  0  0
  143.5040   75.1590  220.1340 C   0  0  0  0  0  0  0  0  0  0  0  0
  142.7760   76.0990  219.1390 C   0  0  2  0  0  0  0  0  0  0  0  0
  143.6290   76.9920  218.5470 O   0  0  0  0  0  0  0  0  0  0  0  0
  141.8590   76.7310  220.1760 C   0  0  1  0  0  0  0  0  0  0  0  0
  140.9860   77.7970  219.6620 C   0  0  0  0  0  0  0  0  0  0  0  0
  141.8070   78.9190  219.4270 O   0  0  0  0  0  0  0  0  0  0  0  0
  141.2760   80.0640  220.0070 C   0  0  0  0  0  0  0  0  0  0  0  0
  141.3870   79.8700  221.4760 C   0  0  0  0  0  0  0  0  0  0  0  0
  140.2380   79.5180  222.1620 C   0  0  0  0  0  0  0  0  0  0  0  0
  140.2280   79.3050  223.5220 C   0  0  0  0  0  0  0  0  0  0  0  0
  141.4170   79.4560  224.1980 C   0  0  0  0  0  0  0  0  0  0  0  0
  142.5920   79.8100  223.5450 C   0  0  0  0  0  0  0  0  0  0  0  0
  142.5950   80.0230  222.1640 C   0  0  0  0  0  0  0  0  0  0  0  0
  139.0180   71.1270  223.1060 C   0  0  0  0  0  0  0  0  0  0  0  0
  138.6370   69.8080  223.0470 C   0  0  0  0  0  0  0  0  0  0  0  0
  138.9310   68.9060  224.0760 C   0  0  0  0  0  0  0  0  0  0  0  0
  139.6350   69.3820  225.1830 C   0  0  0  0  0  0  0  0  0  0  0  0
  139.9760   68.6000  226.2550 C   0  0  0  0  0  0  0  0  0  0  0  0
  140.6630   69.1300  227.3230 C   0  0  0  0  0  0  0  0  0  0  0  0
  141.1150   68.1680  228.7260 Cl  0  0  0  0  0  0  0  0  0  0  0  0
  141.0220   70.4570  227.3340 C   0  0  0  0  0  0  0  0  0  0  0  0
  140.6860   71.2640  226.2550 C   0  0  0  0  0  0  0  0  0  0  0  0
  139.9850   70.7050  225.1770 C   0  0  0  0  0  0  0  0  0  0  0  0
  139.6920   71.5500  224.1810 N   0  0  0  0  0  0  0  0  0  0  0  0
  139.5890   73.6710  223.0990 H   0  0  0  0  0  0  0  0  0  0  0  0
  138.7351   74.0763  220.2902 H   0  0  0  0  0  0  0  0  0  0  0  0
  137.9824   75.0374  221.6986 H   0  0  0  0  0  0  0  0  0  0  0  0
  142.4071   74.1172  221.7165 H   0  0  0  0  0  0  0  0  0  0  0  0
  141.9094   73.6402  220.0827 H   0  0  0  0  0  0  0  0  0  0  0  0
  144.0712   75.7085  220.8997 H   0  0  0  0  0  0  0  0  0  0  0  0
  144.2737   74.4909  219.7203 H   0  0  0  0  0  0  0  0  0  0  0  0
  142.2934   75.6447  218.2611 H   0  0  0  0  0  0  0  0  0  0  0  0
  143.6420   77.8150  219.1340 H   0  0  0  0  0  0  0  0  0  0  0  0
  142.3730   77.3220  220.9483 H   0  0  0  0  0  0  0  0  0  0  0  0
  140.5072   77.4755  218.7253 H   0  0  0  0  0  0  0  0  0  0  0  0
  140.1889   78.0353  220.3816 H   0  0  0  0  0  0  0  0  0  0  0  0
  141.8473   80.9506  219.6946 H   0  0  0  0  0  0  0  0  0  0  0  0
  140.2318   80.2233  219.7000 H   0  0  0  0  0  0  0  0  0  0  0  0
  139.2990   79.4043  221.6005 H   0  0  0  0  0  0  0  0  0  0  0  0
  139.3039   79.0245  224.0487 H   0  0  0  0  0  0  0  0  0  0  0  0
  141.4383   79.2920  225.2855 H   0  0  0  0  0  0  0  0  0  0  0  0
  143.5240   79.9230  224.1182 H   0  0  0  0  0  0  0  0  0  0  0  0
  143.5181   80.3021  221.6348 H   0  0  0  0  0  0  0  0  0  0  0  0
  138.0848   69.4507  222.1653 H   0  0  0  0  0  0  0  0  0  0  0  0
  138.6167   67.8537  224.0141 H   0  0  0  0  0  0  0  0  0  0  0  0
  139.6973   67.5359  226.2620 H   0  0  0  0  0  0  0  0  0  0  0  0
  141.5708   70.8760  228.1903 H   0  0  0  0  0  0  0  0  0  0  0  0
  140.9661   72.3277  226.2461 H   0  0  0  0  0  0  0  0  0  0  0  0
  1  2  2  0
  2  3  1  0
  3  4  1  0
  4  5  1  0
  5  6  2  0
  5  7  1  0
  7  8  1  0
  8  9  1  0
  9 10  1  0
 10 11  1  0
 10 12  1  0
 12 13  1  0
 13 14  1  0
 14 15  1  0
 15 16  1  0
 16 17  2  0
 17 18  1  0
 18 19  2  0
 19 20  1  0
 20 21  2  0
  2 22  1  0
 22 23  2  0
 23 24  1  0
 24 25  2  0
 25 26  1  0
 26 27  2  0
 27 28  1  0
 27 29  1  0
 29 30  2  0
 30 31  1  0
 31 32  2  0
 12  7  1  0
 21 16  1  0
 32 22  1  0
 31 25  1  0
  3 33  1  0
  4 34  1  0
  4 35  1  0
  8 36  1  0
  8 37  1  0
  9 38  1  0
  9 39  1  0
 10 40  1  6
 11 41  1  0
 12 42  1  1
 13 43  1  0
 13 44  1  0
 15 45  1  0
 15 46  1  0
 17 47  1  0
 18 48  1  0
 19 49  1  0
 20 50  1  0
 21 51  1  0
 23 52  1  0
 24 53  1  0
 26 54  1  0
 29 55  1  0
 30 56  1  0
M  END
>  <smiles>  (21) 
O=C(NCC(=O)N1CC[C@H](O)[C@H]1COCc1ccccc1)c1ccc2cc(Cl)ccc2n1

>  <score_type>  (21) 
oracle

>  <origin>  (21) 
autodockgpu

>  <m_score__min__energy>  (21) 
-8.8699999999999992

>  <m_primary>  (21) 
energy

>  <rmsd>  (21) 
2.173096001311032

>  <m_score__min__rmsd>  (21) 
2.173096001311032

>  <meeko>  (21) 
{"free_energy": -8.31, "intermolecular_energy": -10.99, "internal_energy": -2.55, "cluster_size": 16, "cluster_id": 2, "rank_in_cluster": 4}

>  <energy>  (21) 
-7.7

>  <cluster_rmsd>  (21) 
1.2

>  <cluster>  (21) 
2

$$$$

     RDKit          3D

 56 59  0  0  0  0  0  0  0  0999 V2000
  138.2420   71.4620  221.1240 O   0  0  0  0  0  0  0  0  0  0  0  0
  138.8390   71.8490  222.1450 C   0  0  0  0  0  0  0  0  0  0  0  0
  139.2380   73.1960  222.2480 N   0  0  0  0  0  0  0  0  0  0  0  0
  139.0580   74.2320  221.3110 C   0  0  0  0  0  0  0  0  0  0  0  0
  139.9910   74.3230  220.2020 C   0  0  0  0  0  0  0  0  0  0  0  0
  139.4410   73.9620  219.0690 O   0  0  0  0  0  0  0  0  0  0  0  0
  141.3300   74.7200  220.1070 N   0  0  0  0  0  0  0  0  0  0  0  0
  142.5760   73.9680  220.1840 C   0  0  0  0  0  0  0  0  0  0  0  0
  143.7200   75.0110  220.0970 C   0  0  0  0  0  0  0  0  0  0  0  0
  142.9960   75.9650  219.1120 C   0  0  2  0  0  0  0  0  0  0  0  0
  143.6820   77.1360  218.9240 O   0  0  0  0  0  0  0  0  0  0  0  0
  141.7410   76.1260  219.9560 C   0  0  1  0  0  0  0  0  0  0  0  0
  140.7430   77.0600  219.4110 C   0  0  0  0  0  0  0  0  0  0  0  0
  141.3150   78.3470  219.4700 O   0  0  0  0  0  0  0  0  0  0  0  0
  140.5290   79.2150  220.2170 C   0  0  0  0  0  0  0  0  0  0  0  0
  141.2220   79.3770  221.5210 C   0  0  0  0  0  0  0  0  0  0  0  0
  141.9310   80.5470  221.7280 C   0  0  0  0  0  0  0  0  0  0  0  0
  142.6040   80.8040  222.9010 C   0  0  0  0  0  0  0  0  0  0  0  0
  142.5530   79.8440  223.8870 C   0  0  0  0  0  0  0  0  0  0  0  0
  141.8510   78.6560  223.7170 C   0  0  0  0  0  0  0  0  0  0  0  0
  141.1700   78.4020  222.5240 C   0  0  0  0  0  0  0  0  0  0  0  0
  139.1290   70.9160  223.2510 C   0  0  0  0  0  0  0  0  0  0  0  0
  138.7210   69.6050  223.2370 C   0  0  0  0  0  0  0  0  0  0  0  0
  138.9840   68.7360  224.3020 C   0  0  0  0  0  0  0  0  0  0  0  0
  139.6840   69.2390  225.4000 C   0  0  0  0  0  0  0  0  0  0  0  0
  139.9960   68.4920  226.5050 C   0  0  0  0  0  0  0  0  0  0  0  0
  140.6810   69.0490  227.5600 C   0  0  0  0  0  0  0  0  0  0  0  0
  141.0960   68.1320  229.0040 Cl  0  0  0  0  0  0  0  0  0  0  0  0
  141.0680   70.3670  227.5260 C   0  0  0  0  0  0  0  0  0  0  0  0
  140.7610   71.1390  226.4130 C   0  0  0  0  0  0  0  0  0  0  0  0
  140.0620   70.5540  225.3480 C   0  0  0  0  0  0  0  0  0  0  0  0
  139.7990   71.3670  224.3170 N   0  0  0  0  0  0  0  0  0  0  0  0
  139.7470   73.4470  223.1580 H   0  0  0  0  0  0  0  0  0  0  0  0
  138.0520   74.1130  220.8822 H   0  0  0  0  0  0  0  0  0  0  0  0
  139.2281   75.1535  221.8870 H   0  0  0  0  0  0  0  0  0  0  0  0
  142.6319   73.4200  221.1361 H   0  0  0  0  0  0  0  0  0  0  0  0
  142.6471   73.2281  219.3732 H   0  0  0  0  0  0  0  0  0  0  0  0
  143.9371   75.4852  221.0655 H   0  0  0  0  0  0  0  0  0  0  0  0
  144.7130   74.6427  219.7999 H   0  0  0  0  0  0  0  0  0  0  0  0
  142.8557   75.6250  218.0753 H   0  0  0  0  0  0  0  0  0  0  0  0
  143.3890   77.7670  219.6570 H   0  0  0  0  0  0  0  0  0  0  0  0
  141.8963   76.6266  220.9231 H   0  0  0  0  0  0  0  0  0  0  0  0
  140.5079   76.7975  218.3690 H   0  0  0  0  0  0  0  0  0  0  0  0
  139.8066   77.0174  219.9867 H   0  0  0  0  0  0  0  0  0  0  0  0
  140.4419   80.1860  219.7074 H   0  0  0  0  0  0  0  0  0  0  0  0
  139.5098   78.8228  220.3488 H   0  0  0  0  0  0  0  0  0  0  0  0
  141.9579   81.2993  220.9259 H   0  0  0  0  0  0  0  0  0  0  0  0
  143.1617   81.7411  223.0453 H   0  0  0  0  0  0  0  0  0  0  0  0
  143.0820   80.0219  224.8349 H   0  0  0  0  0  0  0  0  0  0  0  0
  141.8317   77.9117  224.5267 H   0  0  0  0  0  0  0  0  0  0  0  0
  140.6110   77.4660  222.3776 H   0  0  0  0  0  0  0  0  0  0  0  0
  138.1711   69.2265  222.3627 H   0  0  0  0  0  0  0  0  0  0  0  0
  138.6493   67.6885  224.2747 H   0  0  0  0  0  0  0  0  0  0  0  0
  139.6954   67.4348  226.5493 H   0  0  0  0  0  0  0  0  0  0  0  0
  141.6159   70.8066  228.3725 H   0  0  0  0  0  0  0  0  0  0  0  0
  141.0625   72.1959  226.3678 H   0  0  0  0  0  0  0  0  0  0  0  0
  1  2  2  0
  2  3  1  0
  3  4  1  0
  4  5  1  0
  5  6  2  0
  5  7  1  0
  7  8  1  0
  8  9  1  0
  9 10  1  0
 10 11  1  0
 10 12  1  0
 12 13  1  0
 13 14  1  0
 14 15  1  0
 15 16  1  0
 16 17  2  0
 17 18  1  0
 18 19  2  0
 19 20  1  0
 20 21  2  0
  2 22  1  0
 22 23  2  0
 23 24  1  0
 24 25  2  0
 25 26  1  0
 26 27  2  0
 27 28  1  0
 27 29  1  0
 29 30  2  0
 30 31  1  0
 31 32  2  0
 12  7  1  0
 21 16  1  0
 32 22  1  0
 31 25  1  0
  3 33  1  0
  4 34  1  0
  4 35  1  0
  8 36  1  0
  8 37  1  0
  9 38  1  0
  9 39  1  0
 10 40  1  6
 11 41  1  0
 12 42  1  1
 13 43  1  0
 13 44  1  0
 15 45  1  0
 15 46  1  0
 17 47  1  0
 18 48  1  0
 19 49  1  0
 20 50  1  0
 21 51  1  0
 23 52  1  0
 24 53  1  0
 26 54  1  0
 29 55  1  0
 30 56  1  0
M  END
>  <smiles>  (22) 
O=C(NCC(=O)N1CC[C@H](O)[C@H]1COCc1ccccc1)c1ccc2cc(Cl)ccc2n1

>  <score_type>  (22) 
oracle

>  <origin>  (22) 
autodockgpu

>  <m_score__min__energy>  (22) 
-8.8699999999999992

>  <m_primary>  (22) 
energy

>  <rmsd>  (22) 
2.273082827832307

>  <m_score__min__rmsd>  (22) 
2.273082827832307

>  <meeko>  (22) 
{"free_energy": -8.13, "intermolecular_energy": -10.81, "internal_energy": -2.5, "cluster_size": 16, "cluster_id": 2, "rank_in_cluster": 8}

>  <energy>  (22) 
-7.63

>  <cluster_rmsd>  (22) 
1.5

>  <cluster>  (22) 
2

$$$$

     RDKit          3D

 56 59  0  0  0  0  0  0  0  0999 V2000
  139.5340   72.7240  221.0100 O   0  0  0  0  0  0  0  0  0  0  0  0
  139.1020   73.7280  221.6050 C   0  0  0  0  0  0  0  0  0  0  0  0
  137.8940   73.6440  222.3240 N   0  0  0  0  0  0  0  0  0  0  0  0
  137.0470   72.5280  222.4770 C   0  0  0  0  0  0  0  0  0  0  0  0
  136.0350   72.5750  223.5170 C   0  0  0  0  0  0  0  0  0  0  0  0
  135.8230   73.7990  223.9380 O   0  0  0  0  0  0  0  0  0  0  0  0
  135.2530   71.5950  224.1390 N   0  0  0  0  0  0  0  0  0  0  0  0
  133.8260   71.5280  224.4290 C   0  0  0  0  0  0  0  0  0  0  0  0
  133.6040   70.2150  225.2220 C   0  0  0  0  0  0  0  0  0  0  0  0
  134.6790   69.3870  224.4720 C   0  0  2  0  0  0  0  0  0  0  0  0
  134.8810   68.1580  225.0430 O   0  0  0  0  0  0  0  0  0  0  0  0
  135.8180   70.3650  224.7170 C   0  0  1  0  0  0  0  0  0  0  0  0
  137.1290   69.9290  224.2110 C   0  0  0  0  0  0  0  0  0  0  0  0
  137.7170   69.1440  225.2250 O   0  0  0  0  0  0  0  0  0  0  0  0
  139.0880   69.0220  225.0380 C   0  0  0  0  0  0  0  0  0  0  0  0
  139.7200   69.9030  226.0530 C   0  0  0  0  0  0  0  0  0  0  0  0
  140.4400   70.9920  225.5950 C   0  0  0  0  0  0  0  0  0  0  0  0
  141.0600   71.8770  226.4480 C   0  0  0  0  0  0  0  0  0  0  0  0
  140.9440   71.6460  227.7990 C   0  0  0  0  0  0  0  0  0  0  0  0
  140.2300   70.5620  228.2990 C   0  0  0  0  0  0  0  0  0  0  0  0
  139.6020   69.6680  227.4270 C   0  0  0  0  0  0  0  0  0  0  0  0
  139.8420   75.0040  221.5690 C   0  0  0  0  0  0  0  0  0  0  0  0
  140.9950   75.1700  220.8400 C   0  0  0  0  0  0  0  0  0  0  0  0
  141.6980   76.3800  220.8330 C   0  0  0  0  0  0  0  0  0  0  0  0
  141.1940   77.4350  221.5940 C   0  0  0  0  0  0  0  0  0  0  0  0
  141.7950   78.6640  221.6740 C   0  0  0  0  0  0  0  0  0  0  0  0
  141.2530   79.6630  222.4500 C   0  0  0  0  0  0  0  0  0  0  0  0
  141.9930   81.2540  222.5910 Cl  0  0  0  0  0  0  0  0  0  0  0  0
  140.0960   79.4470  223.1600 C   0  0  0  0  0  0  0  0  0  0  0  0
  139.4740   78.2080  223.0900 C   0  0  0  0  0  0  0  0  0  0  0  0
  140.0410   77.2030  222.2950 C   0  0  0  0  0  0  0  0  0  0  0  0
  139.3850   76.0360  222.2870 N   0  0  0  0  0  0  0  0  0  0  0  0
  137.5920   74.5530  222.8060 H   0  0  0  0  0  0  0  0  0  0  0  0
  136.5252   72.3804  221.5200 H   0  0  0  0  0  0  0  0  0  0  0  0
  137.7196   71.7144  222.7863 H   0  0  0  0  0  0  0  0  0  0  0  0
  133.5191   72.3944  225.0333 H   0  0  0  0  0  0  0  0  0  0  0  0
  133.2293   71.5426  223.5050 H   0  0  0  0  0  0  0  0  0  0  0  0
  133.8237   70.3242  226.2943 H   0  0  0  0  0  0  0  0  0  0  0  0
  132.5821   69.8084  225.2423 H   0  0  0  0  0  0  0  0  0  0  0  0
  134.4792   69.1111  223.4261 H   0  0  0  0  0  0  0  0  0  0  0  0
  135.8060   68.1750  225.4500 H   0  0  0  0  0  0  0  0  0  0  0  0
  136.1022   70.4868  225.7727 H   0  0  0  0  0  0  0  0  0  0  0  0
  137.0022   69.3322  223.2957 H   0  0  0  0  0  0  0  0  0  0  0  0
  137.7633   70.7927  223.9629 H   0  0  0  0  0  0  0  0  0  0  0  0
  139.4028   67.9788  225.1883 H   0  0  0  0  0  0  0  0  0  0  0  0
  139.3823   69.3078  224.0174 H   0  0  0  0  0  0  0  0  0  0  0  0
  140.5199   71.1566  224.5103 H   0  0  0  0  0  0  0  0  0  0  0  0
  141.6273   72.7373  226.0633 H   0  0  0  0  0  0  0  0  0  0  0  0
  141.4293   72.3376  228.5034 H   0  0  0  0  0  0  0  0  0  0  0  0
  140.1592   70.4075  229.3858 H   0  0  0  0  0  0  0  0  0  0  0  0
  139.0333   68.8074  227.8089 H   0  0  0  0  0  0  0  0  0  0  0  0
  141.3764   74.3273  220.2447 H   0  0  0  0  0  0  0  0  0  0  0  0
  142.6204   76.4958  220.2450 H   0  0  0  0  0  0  0  0  0  0  0  0
  142.7211   78.8541  221.1116 H   0  0  0  0  0  0  0  0  0  0  0  0
  139.6667   80.2491  223.7784 H   0  0  0  0  0  0  0  0  0  0  0  0
  138.5476   78.0175  223.6516 H   0  0  0  0  0  0  0  0  0  0  0  0
  1  2  2  0
  2  3  1  0
  3  4  1  0
  4  5  1  0
  5  6  2  0
  5  7  1  0
  7  8  1  0
  8  9  1  0
  9 10  1  0
 10 11  1  0
 10 12  1  0
 12 13  1  0
 13 14  1  0
 14 15  1  0
 15 16  1  0
 16 17  2  0
 17 18  1  0
 18 19  2  0
 19 20  1  0
 20 21  2  0
  2 22  1  0
 22 23  2  0
 23 24  1  0
 24 25  2  0
 25 26  1  0
 26 27  2  0
 27 28  1  0
 27 29  1  0
 29 30  2  0
 30 31  1  0
 31 32  2  0
 12  7  1  0
 21 16  1  0
 32 22  1  0
 31 25  1  0
  3 33  1  0
  4 34  1  0
  4 35  1  0
  8 36  1  0
  8 37  1  0
  9 38  1  0
  9 39  1  0
 10 40  1  6
 11 41  1  0
 12 42  1  1
 13 43  1  0
 13 44  1  0
 15 45  1  0
 15 46  1  0
 17 47  1  0
 18 48  1  0
 19 49  1  0
 20 50  1  0
 21 51  1  0
 23 52  1  0
 24 53  1  0
 26 54  1  0
 29 55  1  0
 30 56  1  0
M  END
>  <smiles>  (23) 
O=C(NCC(=O)N1CC[C@H](O)[C@H]1COCc1ccccc1)c1ccc2cc(Cl)ccc2n1

>  <score_type>  (23) 
oracle

>  <origin>  (23) 
autodockgpu

>  <m_score__min__energy>  (23) 
-8.8699999999999992

>  <m_primary>  (23) 
energy

>  <rmsd>  (23) 
8.702126327798982

>  <m_score__min__rmsd>  (23) 
8.702126327798982

>  <meeko>  (23) 
{"free_energy": -7.73, "intermolecular_energy": -10.41, "internal_energy": -2.94, "cluster_size": 6, "cluster_id": 3, "rank_in_cluster": 4}

>  <energy>  (23) 
-7.62

>  <cluster_rmsd>  (23) 
1.49

>  <cluster>  (23) 
2

$$$$

     RDKit          3D

 56 59  0  0  0  0  0  0  0  0999 V2000
  138.2080   71.2940  220.7450 O   0  0  0  0  0  0  0  0  0  0  0  0
  138.5090   71.7510  221.8630 C   0  0  0  0  0  0  0  0  0  0  0  0
  138.5090   73.1450  222.0660 N   0  0  0  0  0  0  0  0  0  0  0  0
  138.2060   74.1610  221.1380 C   0  0  0  0  0  0  0  0  0  0  0  0
  139.0950   74.3420  220.0050 C   0  0  0  0  0  0  0  0  0  0  0  0
  138.4910   74.9200  218.9960 O   0  0  0  0  0  0  0  0  0  0  0  0
  140.4440   74.0350  219.7870 N   0  0  0  0  0  0  0  0  0  0  0  0
  141.1020   73.1930  218.7960 C   0  0  0  0  0  0  0  0  0  0  0  0
  142.6100   73.1970  219.1540 C   0  0  0  0  0  0  0  0  0  0  0  0
  142.6570   74.6660  219.6480 C   0  0  2  0  0  0  0  0  0  0  0  0
  143.8610   74.9860  220.2170 O   0  0  0  0  0  0  0  0  0  0  0  0
  141.5280   74.5200  220.6570 C   0  0  1  0  0  0  0  0  0  0  0  0
  141.2540   75.7220  221.4590 C   0  0  0  0  0  0  0  0  0  0  0  0
  141.7900   76.8170  220.7490 O   0  0  0  0  0  0  0  0  0  0  0  0
  140.9430   77.9160  220.8010 C   0  0  0  0  0  0  0  0  0  0  0  0
  141.4460   78.7690  221.9090 C   0  0  0  0  0  0  0  0  0  0  0  0
  142.0600   79.9620  221.5680 C   0  0  0  0  0  0  0  0  0  0  0  0
  142.5550   80.8320  222.5130 C   0  0  0  0  0  0  0  0  0  0  0  0
  142.4240   80.4760  223.8360 C   0  0  0  0  0  0  0  0  0  0  0  0
  141.8140   79.2860  224.2180 C   0  0  0  0  0  0  0  0  0  0  0  0
  141.3120   78.4090  223.2540 C   0  0  0  0  0  0  0  0  0  0  0  0
  138.8630   70.8520  222.9780 C   0  0  0  0  0  0  0  0  0  0  0  0
  138.5230   69.5210  222.9890 C   0  0  0  0  0  0  0  0  0  0  0  0
  138.8460   68.6840  224.0640 C   0  0  0  0  0  0  0  0  0  0  0  0
  139.5340   69.2390  225.1430 C   0  0  0  0  0  0  0  0  0  0  0  0
  139.9000   68.5260  226.2540 C   0  0  0  0  0  0  0  0  0  0  0  0
  140.5700   69.1340  227.2910 C   0  0  0  0  0  0  0  0  0  0  0  0
  141.0520   68.2620  228.7420 Cl  0  0  0  0  0  0  0  0  0  0  0  0
  140.8880   70.4700  227.2310 C   0  0  0  0  0  0  0  0  0  0  0  0
  140.5260   71.2070  226.1120 C   0  0  0  0  0  0  0  0  0  0  0  0
  139.8430   70.5710  225.0660 C   0  0  0  0  0  0  0  0  0  0  0  0
  139.5240   71.3530  224.0270 N   0  0  0  0  0  0  0  0  0  0  0  0
  138.7810   73.4570  223.0550 H   0  0  0  0  0  0  0  0  0  0  0  0
  137.2046   73.9476  220.7360 H   0  0  0  0  0  0  0  0  0  0  0  0
  138.3038   75.0936  221.7131 H   0  0  0  0  0  0  0  0  0  0  0  0
  140.7027   72.1690  218.8408 H   0  0  0  0  0  0  0  0  0  0  0  0
  140.9322   73.5687  217.7762 H   0  0  0  0  0  0  0  0  0  0  0  0
  142.8607   72.4747  219.9449 H   0  0  0  0  0  0  0  0  0  0  0  0
  143.3148   72.9128  218.3587 H   0  0  0  0  0  0  0  0  0  0  0  0
  142.5519   75.4643  218.8986 H   0  0  0  0  0  0  0  0  0  0  0  0
  143.7030   75.8020  220.7920 H   0  0  0  0  0  0  0  0  0  0  0  0
  141.7401   73.8339  221.4902 H   0  0  0  0  0  0  0  0  0  0  0  0
  140.1695   75.8503  221.5905 H   0  0  0  0  0  0  0  0  0  0  0  0
  141.7057   75.6407  222.4587 H   0  0  0  0  0  0  0  0  0  0  0  0
  140.9738   78.4676  219.8498 H   0  0  0  0  0  0  0  0  0  0  0  0
  139.8990   77.6124  220.9684 H   0  0  0  0  0  0  0  0  0  0  0  0
  142.1557   80.2241  220.5040 H   0  0  0  0  0  0  0  0  0  0  0  0
  143.0373   81.7767  222.2216 H   0  0  0  0  0  0  0  0  0  0  0  0
  142.8125   81.1513  224.6126 H   0  0  0  0  0  0  0  0  0  0  0  0
  141.7264   79.0342  225.2852 H   0  0  0  0  0  0  0  0  0  0  0  0
  140.8267   77.4652  223.5432 H   0  0  0  0  0  0  0  0  0  0  0  0
  137.9815   69.1008  222.1287 H   0  0  0  0  0  0  0  0  0  0  0  0
  138.5655   67.6204  224.0578 H   0  0  0  0  0  0  0  0  0  0  0  0
  139.6556   67.4554  226.3180 H   0  0  0  0  0  0  0  0  0  0  0  0
  141.4245   70.9506  228.0623 H   0  0  0  0  0  0  0  0  0  0  0  0
  140.7720   72.2771  226.0467 H   0  0  0  0  0  0  0  0  0  0  0  0
  1  2  2  0
  2  3  1  0
  3  4  1  0
  4  5  1  0
  5  6  2  0
  5  7  1  0
  7  8  1  0
  8  9  1  0
  9 10  1  0
 10 11  1  0
 10 12  1  0
 12 13  1  0
 13 14  1  0
 14 15  1  0
 15 16  1  0
 16 17  2  0
 17 18  1  0
 18 19  2  0
 19 20  1  0
 20 21  2  0
  2 22  1  0
 22 23  2  0
 23 24  1  0
 24 25  2  0
 25 26  1  0
 26 27  2  0
 27 28  1  0
 27 29  1  0
 29 30  2  0
 30 31  1  0
 31 32  2  0
 12  7  1  0
 21 16  1  0
 32 22  1  0
 31 25  1  0
  3 33  1  0
  4 34  1  0
  4 35  1  0
  8 36  1  0
  8 37  1  0
  9 38  1  0
  9 39  1  0
 10 40  1  6
 11 41  1  0
 12 42  1  1
 13 43  1  0
 13 44  1  0
 15 45  1  0
 15 46  1  0
 17 47  1  0
 18 48  1  0
 19 49  1  0
 20 50  1  0
 21 51  1  0
 23 52  1  0
 24 53  1  0
 26 54  1  0
 29 55  1  0
 30 56  1  0
M  END
>  <smiles>  (24) 
O=C(NCC(=O)N1CC[C@H](O)[C@H]1COCc1ccccc1)c1ccc2cc(Cl)ccc2n1

>  <score_type>  (24) 
oracle

>  <origin>  (24) 
autodockgpu

>  <m_score__min__energy>  (24) 
-8.8699999999999992

>  <m_primary>  (24) 
energy

>  <rmsd>  (24) 
2.4122958369053644

>  <m_score__min__rmsd>  (24) 
2.4122958369053644

>  <meeko>  (24) 
{"free_energy": -7.7, "intermolecular_energy": -10.38, "internal_energy": -2.47, "cluster_size": 16, "cluster_id": 2, "rank_in_cluster": 13}

>  <energy>  (24) 
-7.3

>  <cluster_rmsd>  (24) 
1.67

>  <cluster>  (24) 
2

$$$$

     RDKit          3D

 56 59  0  0  0  0  0  0  0  0999 V2000
  139.9010   72.4600  220.6910 O   0  0  0  0  0  0  0  0  0  0  0  0
  139.7800   72.7870  221.8850 C   0  0  0  0  0  0  0  0  0  0  0  0
  139.6160   74.1450  222.2200 N   0  0  0  0  0  0  0  0  0  0  0  0
  139.5700   75.2570  221.3560 C   0  0  0  0  0  0  0  0  0  0  0  0
  140.7240   76.1360  221.3100 C   0  0  0  0  0  0  0  0  0  0  0  0
  141.0020   76.6400  222.4880 O   0  0  0  0  0  0  0  0  0  0  0  0
  141.5850   76.5360  220.2810 N   0  0  0  0  0  0  0  0  0  0  0  0
  142.7460   75.8930  219.6770 C   0  0  0  0  0  0  0  0  0  0  0  0
  143.3160   76.9010  218.6480 C   0  0  0  0  0  0  0  0  0  0  0  0
  141.9460   77.4790  218.2080 C   0  0  2  0  0  0  0  0  0  0  0  0
  142.0800   78.5610  217.3780 O   0  0  0  0  0  0  0  0  0  0  0  0
  141.4810   77.8430  219.6100 C   0  0  1  0  0  0  0  0  0  0  0  0
  140.1790   78.5250  219.6730 C   0  0  0  0  0  0  0  0  0  0  0  0
  140.4200   79.8890  219.4090 O   0  0  0  0  0  0  0  0  0  0  0  0
  139.9860   80.6900  220.4570 C   0  0  0  0  0  0  0  0  0  0  0  0
  140.8300   80.3300  221.6250 C   0  0  0  0  0  0  0  0  0  0  0  0
  140.1960   79.7780  222.7250 C   0  0  0  0  0  0  0  0  0  0  0  0
  140.8810   79.4000  223.8570 C   0  0  0  0  0  0  0  0  0  0  0  0
  142.2440   79.5920  223.8700 C   0  0  0  0  0  0  0  0  0  0  0  0
  142.9170   80.1450  222.7860 C   0  0  0  0  0  0  0  0  0  0  0  0
  142.2150   80.5250  221.6390 C   0  0  0  0  0  0  0  0  0  0  0  0
  139.8010   71.7700  222.9540 C   0  0  0  0  0  0  0  0  0  0  0  0
  139.2490   70.5220  222.7970 C   0  0  0  0  0  0  0  0  0  0  0  0
  139.2570   69.5740  223.8270 C   0  0  0  0  0  0  0  0  0  0  0  0
  139.8520   69.9290  225.0390 C   0  0  0  0  0  0  0  0  0  0  0  0
  139.9170   69.0930  226.1220 C   0  0  0  0  0  0  0  0  0  0  0  0
  140.5090   69.5050  227.2940 C   0  0  0  0  0  0  0  0  0  0  0  0
  140.6080   68.4710  228.7150 Cl  0  0  0  0  0  0  0  0  0  0  0  0
  141.0490   70.7650  227.4000 C   0  0  0  0  0  0  0  0  0  0  0  0
  140.9930   71.6250  226.3120 C   0  0  0  0  0  0  0  0  0  0  0  0
  140.3850   71.1880  225.1260 C   0  0  0  0  0  0  0  0  0  0  0  0
  140.3650   72.0780  224.1270 N   0  0  0  0  0  0  0  0  0  0  0  0
  139.5200   74.3430  223.2700 H   0  0  0  0  0  0  0  0  0  0  0  0
  139.4115   74.8728  220.3376 H   0  0  0  0  0  0  0  0  0  0  0  0
  138.7637   75.8855  221.7621 H   0  0  0  0  0  0  0  0  0  0  0  0
  143.4992   75.6671  220.4462 H   0  0  0  0  0  0  0  0  0  0  0  0
  142.4711   74.9430  219.1955 H   0  0  0  0  0  0  0  0  0  0  0  0
  143.9672   77.6574  219.1104 H   0  0  0  0  0  0  0  0  0  0  0  0
  143.9663   76.4970  217.8582 H   0  0  0  0  0  0  0  0  0  0  0  0
  141.2804   76.8325  217.6172 H   0  0  0  0  0  0  0  0  0  0  0  0
  141.7360   79.3630  217.8880 H   0  0  0  0  0  0  0  0  0  0  0  0
  142.0784   78.6216  220.1069 H   0  0  0  0  0  0  0  0  0  0  0  0
  139.4963   78.1081  218.9180 H   0  0  0  0  0  0  0  0  0  0  0  0
  139.7106   78.3908  220.6592 H   0  0  0  0  0  0  0  0  0  0  0  0
  140.1159   81.7528  220.2048 H   0  0  0  0  0  0  0  0  0  0  0  0
  138.9180   80.5329  220.6683 H   0  0  0  0  0  0  0  0  0  0  0  0
  139.1056   79.6365  222.6930 H   0  0  0  0  0  0  0  0  0  0  0  0
  140.3587   78.9606  224.7196 H   0  0  0  0  0  0  0  0  0  0  0  0
  142.8167   79.2999  224.7626 H   0  0  0  0  0  0  0  0  0  0  0  0
  144.0072   80.2840  222.8316 H   0  0  0  0  0  0  0  0  0  0  0  0
  142.7351   80.9636  220.7746 H   0  0  0  0  0  0  0  0  0  0  0  0
  138.7871   70.2598  221.8337 H   0  0  0  0  0  0  0  0  0  0  0  0
  138.8082   68.5797  223.6857 H   0  0  0  0  0  0  0  0  0  0  0  0
  139.4913   68.0810  226.0542 H   0  0  0  0  0  0  0  0  0  0  0  0
  141.5214   71.0888  228.3391 H   0  0  0  0  0  0  0  0  0  0  0  0
  141.4201   72.6365  226.3790 H   0  0  0  0  0  0  0  0  0  0  0  0
  1  2  2  0
  2  3  1  0
  3  4  1  0
  4  5  1  0
  5  6  2  0
  5  7  1  0
  7  8  1  0
  8  9  1  0
  9 10  1  0
 10 11  1  0
 10 12  1  0
 12 13  1  0
 13 14  1  0
 14 15  1  0
 15 16  1  0
 16 17  2  0
 17 18  1  0
 18 19  2  0
 19 20  1  0
 20 21  2  0
  2 22  1  0
 22 23  2  0
 23 24  1  0
 24 25  2  0
 25 26  1  0
 26 27  2  0
 27 28  1  0
 27 29  1  0
 29 30  2  0
 30 31  1  0
 31 32  2  0
 12  7  1  0
 21 16  1  0
 32 22  1  0
 31 25  1  0
  3 33  1  0
  4 34  1  0
  4 35  1  0
  8 36  1  0
  8 37  1  0
  9 38  1  0
  9 39  1  0
 10 40  1  6
 11 41  1  0
 12 42  1  1
 13 43  1  0
 13 44  1  0
 15 45  1  0
 15 46  1  0
 17 47  1  0
 18 48  1  0
 19 49  1  0
 20 50  1  0
 21 51  1  0
 23 52  1  0
 24 53  1  0
 26 54  1  0
 29 55  1  0
 30 56  1  0
M  END
>  <smiles>  (25) 
O=C(NCC(=O)N1CC[C@H](O)[C@H]1COCc1ccccc1)c1ccc2cc(Cl)ccc2n1

>  <score_type>  (25) 
oracle

>  <origin>  (25) 
autodockgpu

>  <m_score__min__energy>  (25) 
-8.8699999999999992

>  <m_primary>  (25) 
energy

>  <rmsd>  (25) 
2.3265342298937965

>  <m_score__min__rmsd>  (25) 
2.3265342298937965

>  <meeko>  (25) 
{"free_energy": -8.03, "intermolecular_energy": -10.71, "internal_energy": -2.77, "cluster_size": 16, "cluster_id": 2, "rank_in_cluster": 10}

>  <energy>  (25) 
-8.46

>  <cluster_rmsd>  (25) 
0.0

>  <cluster>  (25) 
3

$$$$

     RDKit          3D

 56 59  0  0  0  0  0  0  0  0999 V2000
  139.8640   73.7300  222.3440 O   0  0  0  0  0  0  0  0  0  0  0  0
  139.5970   72.5400  222.0990 C   0  0  0  0  0  0  0  0  0  0  0  0
  139.1850   72.1730  220.8030 N   0  0  0  0  0  0  0  0  0  0  0  0
  139.0160   73.0000  219.6750 C   0  0  0  0  0  0  0  0  0  0  0  0
  139.8860   74.1540  219.5360 C   0  0  0  0  0  0  0  0  0  0  0  0
  139.2070   75.2750  219.4910 O   0  0  0  0  0  0  0  0  0  0  0  0
  141.2750   74.3030  219.4520 N   0  0  0  0  0  0  0  0  0  0  0  0
  142.2710   73.6750  218.5920 C   0  0  0  0  0  0  0  0  0  0  0  0
  143.6490   74.2020  219.0670 C   0  0  0  0  0  0  0  0  0  0  0  0
  143.1620   75.6270  219.4340 C   0  0  2  0  0  0  0  0  0  0  0  0
  144.1310   76.3610  220.0670 O   0  0  0  0  0  0  0  0  0  0  0  0
  142.0450   75.1690  220.3600 C   0  0  1  0  0  0  0  0  0  0  0  0
  141.3130   76.2540  221.0310 C   0  0  0  0  0  0  0  0  0  0  0  0
  141.5450   77.4260  220.2820 O   0  0  0  0  0  0  0  0  0  0  0  0
  140.6920   78.4510  220.6720 C   0  0  0  0  0  0  0  0  0  0  0  0
  141.3540   79.1210  221.8210 C   0  0  0  0  0  0  0  0  0  0  0  0
  141.1540   78.5800  223.0790 C   0  0  0  0  0  0  0  0  0  0  0  0
  141.7250   79.1160  224.2110 C   0  0  0  0  0  0  0  0  0  0  0  0
  142.5190   80.2300  224.0570 C   0  0  0  0  0  0  0  0  0  0  0  0
  142.7440   80.8030  222.8100 C   0  0  0  0  0  0  0  0  0  0  0  0
  142.1620   80.2530  221.6650 C   0  0  0  0  0  0  0  0  0  0  0  0
  139.7100   71.5080  223.1480 C   0  0  0  0  0  0  0  0  0  0  0  0
  139.2510   70.2250  222.9740 C   0  0  0  0  0  0  0  0  0  0  0  0
  139.3460   69.2620  223.9850 C   0  0  0  0  0  0  0  0  0  0  0  0
  139.9270   69.6400  225.1970 C   0  0  0  0  0  0  0  0  0  0  0  0
  140.0700   68.7910  226.2640 C   0  0  0  0  0  0  0  0  0  0  0  0
  140.6440   69.2260  227.4360 C   0  0  0  0  0  0  0  0  0  0  0  0
  140.8400   68.1770  228.8360 Cl  0  0  0  0  0  0  0  0  0  0  0  0
  141.0870   70.5210  227.5600 C   0  0  0  0  0  0  0  0  0  0  0  0
  140.9520   71.3940  226.4880 C   0  0  0  0  0  0  0  0  0  0  0  0
  140.3640   70.9330  225.3020 C   0  0  0  0  0  0  0  0  0  0  0  0
  140.2630   71.8370  224.3210 N   0  0  0  0  0  0  0  0  0  0  0  0
  138.9730   71.1290  220.6750 H   0  0  0  0  0  0  0  0  0  0  0  0
  139.1627   72.3714  218.7843 H   0  0  0  0  0  0  0  0  0  0  0  0
  138.0106   73.4289  219.7986 H   0  0  0  0  0  0  0  0  0  0  0  0
  142.2261   72.5806  218.6932 H   0  0  0  0  0  0  0  0  0  0  0  0
  142.0940   73.9152  217.5332 H   0  0  0  0  0  0  0  0  0  0  0  0
  144.0387   73.6498  219.9349 H   0  0  0  0  0  0  0  0  0  0  0  0
  144.4863   74.1258  218.3577 H   0  0  0  0  0  0  0  0  0  0  0  0
  142.8792   76.3017  218.6126 H   0  0  0  0  0  0  0  0  0  0  0  0
  143.6990   77.2300  220.3510 H   0  0  0  0  0  0  0  0  0  0  0  0
  142.3817   74.6398  221.2636 H   0  0  0  0  0  0  0  0  0  0  0  0
  140.2370   76.0266  221.0549 H   0  0  0  0  0  0  0  0  0  0  0  0
  141.6530   76.3758  222.0700 H   0  0  0  0  0  0  0  0  0  0  0  0
  140.5476   79.1630  219.8460 H   0  0  0  0  0  0  0  0  0  0  0  0
  139.6994   78.0656  220.9481 H   0  0  0  0  0  0  0  0  0  0  0  0
  140.5157   77.6896  223.1779 H   0  0  0  0  0  0  0  0  0  0  0  0
  141.5532   78.6706  225.2020 H   0  0  0  0  0  0  0  0  0  0  0  0
  142.9883   80.6792  224.9447 H   0  0  0  0  0  0  0  0  0  0  0  0
  143.3835   81.6939  222.7246 H   0  0  0  0  0  0  0  0  0  0  0  0
  142.3334   80.6956  220.6727 H   0  0  0  0  0  0  0  0  0  0  0  0
  138.7956   69.9465  222.0122 H   0  0  0  0  0  0  0  0  0  0  0  0
  138.9742   68.2385  223.8295 H   0  0  0  0  0  0  0  0  0  0  0  0
  139.7220   67.7507  226.1820 H   0  0  0  0  0  0  0  0  0  0  0  0
  141.5445   70.8632  228.5000 H   0  0  0  0  0  0  0  0  0  0  0  0
  141.3020   72.4337  226.5688 H   0  0  0  0  0  0  0  0  0  0  0  0
  1  2  2  0
  2  3  1  0
  3  4  1  0
  4  5  1  0
  5  6  2  0
  5  7  1  0
  7  8  1  0
  8  9  1  0
  9 10  1  0
 10 11  1  0
 10 12  1  0
 12 13  1  0
 13 14  1  0
 14 15  1  0
 15 16  1  0
 16 17  2  0
 17 18  1  0
 18 19  2  0
 19 20  1  0
 20 21  2  0
  2 22  1  0
 22 23  2  0
 23 24  1  0
 24 25  2  0
 25 26  1  0
 26 27  2  0
 27 28  1  0
 27 29  1  0
 29 30  2  0
 30 31  1  0
 31 32  2  0
 12  7  1  0
 21 16  1  0
 32 22  1  0
 31 25  1  0
  3 33  1  0
  4 34  1  0
  4 35  1  0
  8 36  1  0
  8 37  1  0
  9 38  1  0
  9 39  1  0
 10 40  1  6
 11 41  1  0
 12 42  1  1
 13 43  1  0
 13 44  1  0
 15 45  1  0
 15 46  1  0
 17 47  1  0
 18 48  1  0
 19 49  1  0
 20 50  1  0
 21 51  1  0
 23 52  1  0
 24 53  1  0
 26 54  1  0
 29 55  1  0
 30 56  1  0
M  END
>  <smiles>  (26) 
O=C(NCC(=O)N1CC[C@H](O)[C@H]1COCc1ccccc1)c1ccc2cc(Cl)ccc2n1

>  <score_type>  (26) 
oracle

>  <origin>  (26) 
autodockgpu

>  <m_score__min__energy>  (26) 
-8.8699999999999992

>  <m_primary>  (26) 
energy

>  <rmsd>  (26) 
2.5611855189124455

>  <m_score__min__rmsd>  (26) 
2.5611855189124455

>  <meeko>  (26) 
{"free_energy": -8.49, "intermolecular_energy": -11.17, "internal_energy": -2.04, "cluster_size": 16, "cluster_id": 2, "rank_in_cluster": 1}

>  <energy>  (26) 
-7.98

>  <cluster_rmsd>  (26) 
1.74

>  <cluster>  (26) 
3

$$$$

     RDKit          3D

 56 59  0  0  0  0  0  0  0  0999 V2000
  138.9230   71.5950  220.6230 O   0  0  0  0  0  0  0  0  0  0  0  0
  139.0830   72.0080  221.7860 C   0  0  0  0  0  0  0  0  0  0  0  0
  139.0210   73.3910  222.0470 N   0  0  0  0  0  0  0  0  0  0  0  0
  138.7960   74.4400  221.1340 C   0  0  0  0  0  0  0  0  0  0  0  0
  139.7420   74.6170  220.0470 C   0  0  0  0  0  0  0  0  0  0  0  0
  139.1390   74.7520  218.8910 O   0  0  0  0  0  0  0  0  0  0  0  0
  141.1390   74.6800  219.9930 N   0  0  0  0  0  0  0  0  0  0  0  0
  142.1440   73.6960  219.6090 C   0  0  0  0  0  0  0  0  0  0  0  0
  143.5220   74.3590  219.8600 C   0  0  0  0  0  0  0  0  0  0  0  0
  143.0870   75.7940  219.4640 C   0  0  2  0  0  0  0  0  0  0  0  0
  144.0580   76.7230  219.7280 O   0  0  0  0  0  0  0  0  0  0  0  0
  141.9060   75.8620  220.4210 C   0  0  1  0  0  0  0  0  0  0  0  0
  141.1960   77.1500  220.4380 C   0  0  0  0  0  0  0  0  0  0  0  0
  141.8300   77.9520  221.4080 O   0  0  0  0  0  0  0  0  0  0  0  0
  141.3550   77.6740  222.6830 C   0  0  0  0  0  0  0  0  0  0  0  0
  140.5270   78.8430  223.0760 C   0  0  0  0  0  0  0  0  0  0  0  0
  139.1540   78.6700  223.1170 C   0  0  0  0  0  0  0  0  0  0  0  0
  138.2940   79.6830  223.4750 C   0  0  0  0  0  0  0  0  0  0  0  0
  138.8460   80.9010  223.7990 C   0  0  0  0  0  0  0  0  0  0  0  0
  140.2190   81.1150  223.7700 C   0  0  0  0  0  0  0  0  0  0  0  0
  141.0870   80.0820  223.4060 C   0  0  0  0  0  0  0  0  0  0  0  0
  139.3330   71.0680  222.8950 C   0  0  0  0  0  0  0  0  0  0  0  0
  138.9470   69.7500  222.8480 C   0  0  0  0  0  0  0  0  0  0  0  0
  139.1720   68.8740  223.9160 C   0  0  0  0  0  0  0  0  0  0  0  0
  139.8090   69.3760  225.0520 C   0  0  0  0  0  0  0  0  0  0  0  0
  140.0780   68.6210  226.1630 C   0  0  0  0  0  0  0  0  0  0  0  0
  140.7020   69.1770  227.2560 C   0  0  0  0  0  0  0  0  0  0  0  0
  141.0600   68.2500  228.7100 Cl  0  0  0  0  0  0  0  0  0  0  0  0
  141.0700   70.5010  227.2540 C   0  0  0  0  0  0  0  0  0  0  0  0
  140.8060   71.2800  226.1360 C   0  0  0  0  0  0  0  0  0  0  0  0
  140.1680   70.6970  225.0320 C   0  0  0  0  0  0  0  0  0  0  0  0
  139.9430   71.5170  223.9980 N   0  0  0  0  0  0  0  0  0  0  0  0
  139.1710   73.6640  223.0730 H   0  0  0  0  0  0  0  0  0  0  0  0
  137.8072   74.2728  220.6821 H   0  0  0  0  0  0  0  0  0  0  0  0
  138.8994   75.3539  221.7374 H   0  0  0  0  0  0  0  0  0  0  0  0
  142.0412   72.7880  220.2214 H   0  0  0  0  0  0  0  0  0  0  0  0
  142.0298   73.3987  218.5561 H   0  0  0  0  0  0  0  0  0  0  0  0
  143.8433   74.2869  220.9096 H   0  0  0  0  0  0  0  0  0  0  0  0
  144.3872   73.9332  219.3308 H   0  0  0  0  0  0  0  0  0  0  0  0
  142.8768   75.9933  218.4028 H   0  0  0  0  0  0  0  0  0  0  0  0
  143.6730   77.3620  220.4090 H   0  0  0  0  0  0  0  0  0  0  0  0
  142.1731   75.8287  221.4876 H   0  0  0  0  0  0  0  0  0  0  0  0
  141.2586   77.6299  219.4502 H   0  0  0  0  0  0  0  0  0  0  0  0
  140.1312   77.0105  220.6761 H   0  0  0  0  0  0  0  0  0  0  0  0
  140.7440   76.7594  222.6721 H   0  0  0  0  0  0  0  0  0  0  0  0
  142.1791   77.5076  223.3923 H   0  0  0  0  0  0  0  0  0  0  0  0
  138.7354   77.6874  222.8539 H   0  0  0  0  0  0  0  0  0  0  0  0
  137.2058   79.5248  223.5012 H   0  0  0  0  0  0  0  0  0  0  0  0
  138.1820   81.7286  224.0891 H   0  0  0  0  0  0  0  0  0  0  0  0
  140.6245   82.1026  224.0349 H   0  0  0  0  0  0  0  0  0  0  0  0
  142.1756   80.2380  223.3798 H   0  0  0  0  0  0  0  0  0  0  0  0
  138.4464   69.3723  221.9443 H   0  0  0  0  0  0  0  0  0  0  0  0
  138.8564   67.8217  223.8618 H   0  0  0  0  0  0  0  0  0  0  0  0
  139.7921   67.5590  226.1815 H   0  0  0  0  0  0  0  0  0  0  0  0
  141.5693   70.9395  228.1306 H   0  0  0  0  0  0  0  0  0  0  0  0
  141.0937   72.3415  226.1164 H   0  0  0  0  0  0  0  0  0  0  0  0
  1  2  2  0
  2  3  1  0
  3  4  1  0
  4  5  1  0
  5  6  2  0
  5  7  1  0
  7  8  1  0
  8  9  1  0
  9 10  1  0
 10 11  1  0
 10 12  1  0
 12 13  1  0
 13 14  1  0
 14 15  1  0
 15 16  1  0
 16 17  2  0
 17 18  1  0
 18 19  2  0
 19 20  1  0
 20 21  2  0
  2 22  1  0
 22 23  2  0
 23 24  1  0
 24 25  2  0
 25 26  1  0
 26 27  2  0
 27 28  1  0
 27 29  1  0
 29 30  2  0
 30 31  1  0
 31 32  2  0
 12  7  1  0
 21 16  1  0
 32 22  1  0
 31 25  1  0
  3 33  1  0
  4 34  1  0
  4 35  1  0
  8 36  1  0
  8 37  1  0
  9 38  1  0
  9 39  1  0
 10 40  1  6
 11 41  1  0
 12 42  1  1
 13 43  1  0
 13 44  1  0
 15 45  1  0
 15 46  1  0
 17 47  1  0
 18 48  1  0
 19 49  1  0
 20 50  1  0
 21 51  1  0
 23 52  1  0
 24 53  1  0
 26 54  1  0
 29 55  1  0
 30 56  1  0
M  END
>  <smiles>  (27) 
O=C(NCC(=O)N1CC[C@H](O)[C@H]1COCc1ccccc1)c1ccc2cc(Cl)ccc2n1

>  <score_type>  (27) 
oracle

>  <origin>  (27) 
autodockgpu

>  <m_score__min__energy>  (27) 
-8.8699999999999992

>  <m_primary>  (27) 
energy

>  <rmsd>  (27) 
2.323562673547233

>  <m_score__min__rmsd>  (27) 
2.323562673547233

>  <meeko>  (27) 
{"free_energy": -7.62, "intermolecular_energy": -10.31, "internal_energy": -2.4, "cluster_size": 16, "cluster_id": 2, "rank_in_cluster": 15}

>  <energy>  (27) 
-7.93

>  <cluster_rmsd>  (27) 
1.43

>  <cluster>  (27) 
3

$$$$

     RDKit          3D

 56 59  0  0  0  0  0  0  0  0999 V2000
  140.6840   73.9890  222.3130 O   0  0  0  0  0  0  0  0  0  0  0  0
  139.9130   73.0180  222.2100 C   0  0  0  0  0  0  0  0  0  0  0  0
  139.0040   72.9640  221.1360 N   0  0  0  0  0  0  0  0  0  0  0  0
  138.8220   73.9020  220.1000 C   0  0  0  0  0  0  0  0  0  0  0  0
  139.9700   74.2530  219.2840 C   0  0  0  0  0  0  0  0  0  0  0  0
  139.9820   73.5970  218.1490 O   0  0  0  0  0  0  0  0  0  0  0  0
  141.0380   75.1390  219.4630 N   0  0  0  0  0  0  0  0  0  0  0  0
  142.4060   75.1290  218.9600 C   0  0  0  0  0  0  0  0  0  0  0  0
  143.1160   76.3490  219.6030 C   0  0  0  0  0  0  0  0  0  0  0  0
  141.8780   77.2830  219.5910 C   0  0  2  0  0  0  0  0  0  0  0  0
  142.1040   78.4550  220.2620 O   0  0  0  0  0  0  0  0  0  0  0  0
  140.9600   76.3240  220.3340 C   0  0  1  0  0  0  0  0  0  0  0  0
  139.6190   76.8520  220.6260 C   0  0  0  0  0  0  0  0  0  0  0  0
  139.5400   77.0140  222.0240 O   0  0  0  0  0  0  0  0  0  0  0  0
  140.8030   77.1170  222.5930 C   0  0  0  0  0  0  0  0  0  0  0  0
  140.9640   78.5420  222.9820 C   0  0  0  0  0  0  0  0  0  0  0  0
  142.2490   79.0010  223.2100 C   0  0  0  0  0  0  0  0  0  0  0  0
  142.5130   80.3040  223.5670 C   0  0  0  0  0  0  0  0  0  0  0  0
  141.4410   81.1580  223.6980 C   0  0  0  0  0  0  0  0  0  0  0  0
  140.1350   80.7340  223.4790 C   0  0  0  0  0  0  0  0  0  0  0  0
  139.8750   79.4100  223.1150 C   0  0  0  0  0  0  0  0  0  0  0  0
  139.9420   71.9210  223.1970 C   0  0  0  0  0  0  0  0  0  0  0  0
  139.4580   70.6660  222.9200 C   0  0  0  0  0  0  0  0  0  0  0  0
  139.4720   69.6400  223.8720 C   0  0  0  0  0  0  0  0  0  0  0  0
  139.9990   69.9250  225.1330 C   0  0  0  0  0  0  0  0  0  0  0  0
  140.0610   69.0090  226.1510 C   0  0  0  0  0  0  0  0  0  0  0  0
  140.5850   69.3540  227.3760 C   0  0  0  0  0  0  0  0  0  0  0  0
  140.6770   68.2150  228.7150 Cl  0  0  0  0  0  0  0  0  0  0  0  0
  141.0560   70.6250  227.6030 C   0  0  0  0  0  0  0  0  0  0  0  0
  141.0020   71.5650  226.5830 C   0  0  0  0  0  0  0  0  0  0  0  0
  140.4650   71.1960  225.3410 C   0  0  0  0  0  0  0  0  0  0  0  0
  140.4410   72.1610  224.4150 N   0  0  0  0  0  0  0  0  0  0  0  0
  138.3750   72.0960  221.1200 H   0  0  0  0  0  0  0  0  0  0  0  0
  138.0533   73.4976  219.4250 H   0  0  0  0  0  0  0  0  0  0  0  0
  138.5611   74.8356  220.6199 H   0  0  0  0  0  0  0  0  0  0  0  0
  142.9120   74.1968  219.2515 H   0  0  0  0  0  0  0  0  0  0  0  0
  142.4283   75.1869  217.8618 H   0  0  0  0  0  0  0  0  0  0  0  0
  143.4813   76.1408  220.6195 H   0  0  0  0  0  0  0  0  0  0  0  0
  144.0269   76.7173  219.1083 H   0  0  0  0  0  0  0  0  0  0  0  0
  141.5230   77.6545  218.6184 H   0  0  0  0  0  0  0  0  0  0  0  0
  142.9000   78.2960  220.8650 H   0  0  0  0  0  0  0  0  0  0  0  0
  141.2604   76.1068  221.3697 H   0  0  0  0  0  0  0  0  0  0  0  0
  139.4758   77.8202  220.1240 H   0  0  0  0  0  0  0  0  0  0  0  0
  138.8380   76.1674  220.2635 H   0  0  0  0  0  0  0  0  0  0  0  0
  140.8769   76.4687  223.4786 H   0  0  0  0  0  0  0  0  0  0  0  0
  141.5878   76.8009  221.8900 H   0  0  0  0  0  0  0  0  0  0  0  0
  143.0897   78.2998  223.1022 H   0  0  0  0  0  0  0  0  0  0  0  0
  143.5425   80.6502  223.7412 H   0  0  0  0  0  0  0  0  0  0  0  0
  141.6227   82.2046  223.9838 H   0  0  0  0  0  0  0  0  0  0  0  0
  139.3026   81.4440  223.5928 H   0  0  0  0  0  0  0  0  0  0  0  0
  138.8467   79.0614  222.9387 H   0  0  0  0  0  0  0  0  0  0  0  0
  139.0472   70.4610  221.9204 H   0  0  0  0  0  0  0  0  0  0  0  0
  139.0800   68.6402  223.6340 H   0  0  0  0  0  0  0  0  0  0  0  0
  139.6880   67.9873  225.9870 H   0  0  0  0  0  0  0  0  0  0  0  0
  141.4723   70.8951  228.5847 H   0  0  0  0  0  0  0  0  0  0  0  0
  141.3757   72.5865  226.7468 H   0  0  0  0  0  0  0  0  0  0  0  0
  1  2  2  0
  2  3  1  0
  3  4  1  0
  4  5  1  0
  5  6  2  0
  5  7  1  0
  7  8  1  0
  8  9  1  0
  9 10  1  0
 10 11  1  0
 10 12  1  0
 12 13  1  0
 13 14  1  0
 14 15  1  0
 15 16  1  0
 16 17  2  0
 17 18  1  0
 18 19  2  0
 19 20  1  0
 20 21  2  0
  2 22  1  0
 22 23  2  0
 23 24  1  0
 24 25  2  0
 25 26  1  0
 26 27  2  0
 27 28  1  0
 27 29  1  0
 29 30  2  0
 30 31  1  0
 31 32  2  0
 12  7  1  0
 21 16  1  0
 32 22  1  0
 31 25  1  0
  3 33  1  0
  4 34  1  0
  4 35  1  0
  8 36  1  0
  8 37  1  0
  9 38  1  0
  9 39  1  0
 10 40  1  6
 11 41  1  0
 12 42  1  1
 13 43  1  0
 13 44  1  0
 15 45  1  0
 15 46  1  0
 17 47  1  0
 18 48  1  0
 19 49  1  0
 20 50  1  0
 21 51  1  0
 23 52  1  0
 24 53  1  0
 26 54  1  0
 29 55  1  0
 30 56  1  0
M  END
>  <smiles>  (28) 
O=C(NCC(=O)N1CC[C@H](O)[C@H]1COCc1ccccc1)c1ccc2cc(Cl)ccc2n1

>  <score_type>  (28) 
oracle

>  <origin>  (28) 
autodockgpu

>  <m_score__min__energy>  (28) 
-8.8699999999999992

>  <m_primary>  (28) 
energy

>  <rmsd>  (28) 
2.573819791560788

>  <m_score__min__rmsd>  (28) 
2.573819791560788

>  <meeko>  (28) 
{"free_energy": -8.45, "intermolecular_energy": -11.14, "internal_energy": -1.75, "cluster_size": 16, "cluster_id": 2, "rank_in_cluster": 2}

>  <energy>  (28) 
-7.73

>  <cluster_rmsd>  (28) 
1.47

>  <cluster>  (28) 
3

$$$$

     RDKit          3D

 56 59  0  0  0  0  0  0  0  0999 V2000
  138.2080   71.7110  220.9900 O   0  0  0  0  0  0  0  0  0  0  0  0
  138.6960   72.0850  222.0720 C   0  0  0  0  0  0  0  0  0  0  0  0
  138.9280   73.4570  222.2920 N   0  0  0  0  0  0  0  0  0  0  0  0
  138.6790   74.5340  221.4180 C   0  0  0  0  0  0  0  0  0  0  0  0
  138.9660   75.8770  221.8880 C   0  0  0  0  0  0  0  0  0  0  0  0
  139.9310   75.8890  222.7750 O   0  0  0  0  0  0  0  0  0  0  0  0
  138.4320   77.1350  221.5810 N   0  0  0  0  0  0  0  0  0  0  0  0
  137.5620   78.0320  222.3300 C   0  0  0  0  0  0  0  0  0  0  0  0
  137.2590   79.2290  221.3930 C   0  0  0  0  0  0  0  0  0  0  0  0
  138.6510   79.2580  220.7110 C   0  0  2  0  0  0  0  0  0  0  0  0
  138.6970   80.1360  219.6600 O   0  0  0  0  0  0  0  0  0  0  0  0
  138.6390   77.7980  220.2830 C   0  0  1  0  0  0  0  0  0  0  0  0
  139.8060   77.3740  219.4940 C   0  0  0  0  0  0  0  0  0  0  0  0
  140.7210   78.4470  219.5100 O   0  0  0  0  0  0  0  0  0  0  0  0
  141.8500   78.1360  220.2550 C   0  0  0  0  0  0  0  0  0  0  0  0
  141.7670   78.9590  221.4900 C   0  0  0  0  0  0  0  0  0  0  0  0
  141.4500   78.3100  222.6700 C   0  0  0  0  0  0  0  0  0  0  0  0
  141.3540   78.9730  223.8720 C   0  0  0  0  0  0  0  0  0  0  0  0
  141.5850   80.3300  223.8710 C   0  0  0  0  0  0  0  0  0  0  0  0
  141.9060   81.0180  222.7060 C   0  0  0  0  0  0  0  0  0  0  0  0
  142.0030   80.3380  221.4890 C   0  0  0  0  0  0  0  0  0  0  0  0
  139.0320   71.1110  223.1280 C   0  0  0  0  0  0  0  0  0  0  0  0
  138.7420   69.7730  223.0170 C   0  0  0  0  0  0  0  0  0  0  0  0
  139.0470   68.8630  224.0360 C   0  0  0  0  0  0  0  0  0  0  0  0
  139.6630   69.3520  225.1890 C   0  0  0  0  0  0  0  0  0  0  0  0
  140.0040   68.5640  226.2570 C   0  0  0  0  0  0  0  0  0  0  0  0
  140.6030   69.1080  227.3700 C   0  0  0  0  0  0  0  0  0  0  0  0
  141.0500   68.1380  228.7690 Cl  0  0  0  0  0  0  0  0  0  0  0  0
  140.8720   70.4550  227.4320 C   0  0  0  0  0  0  0  0  0  0  0  0
  140.5350   71.2680  226.3580 C   0  0  0  0  0  0  0  0  0  0  0  0
  139.9250   70.6960  225.2330 C   0  0  0  0  0  0  0  0  0  0  0  0
  139.6240   71.5470  224.2450 N   0  0  0  0  0  0  0  0  0  0  0  0
  139.3510   73.6960  223.2480 H   0  0  0  0  0  0  0  0  0  0  0  0
  139.2842   74.3680  220.5146 H   0  0  0  0  0  0  0  0  0  0  0  0
  137.5886   74.5222  221.2733 H   0  0  0  0  0  0  0  0  0  0  0  0
  136.6292   77.5171  222.6036 H   0  0  0  0  0  0  0  0  0  0  0  0
  138.0404   78.3659  223.2625 H   0  0  0  0  0  0  0  0  0  0  0  0
  136.4435   79.0188  220.6854 H   0  0  0  0  0  0  0  0  0  0  0  0
  136.9121   80.1601  221.8649 H   0  0  0  0  0  0  0  0  0  0  0  0
  139.5109   79.5908  221.3109 H   0  0  0  0  0  0  0  0  0  0  0  0
  139.5130   79.8930  219.1140 H   0  0  0  0  0  0  0  0  0  0  0  0
  137.8635   77.5385  219.5473 H   0  0  0  0  0  0  0  0  0  0  0  0
  140.2628   76.4802  219.9440 H   0  0  0  0  0  0  0  0  0  0  0  0
  139.5146   77.1194  218.4643 H   0  0  0  0  0  0  0  0  0  0  0  0
  141.8572   77.0657  220.5090 H   0  0  0  0  0  0  0  0  0  0  0  0
  142.7726   78.3448  219.6936 H   0  0  0  0  0  0  0  0  0  0  0  0
  141.2682   77.2254  222.6465 H   0  0  0  0  0  0  0  0  0  0  0  0
  141.1019   78.4382  224.7996 H   0  0  0  0  0  0  0  0  0  0  0  0
  141.5137   80.8854  224.8178 H   0  0  0  0  0  0  0  0  0  0  0  0
  142.0845   82.1028  222.7425 H   0  0  0  0  0  0  0  0  0  0  0  0
  142.2568   80.8699  220.5602 H   0  0  0  0  0  0  0  0  0  0  0  0
  138.2561   69.4060  222.1009 H   0  0  0  0  0  0  0  0  0  0  0  0
  138.8083   67.7943  223.9311 H   0  0  0  0  0  0  0  0  0  0  0  0
  139.7965   67.4842  226.2242 H   0  0  0  0  0  0  0  0  0  0  0  0
  141.3500   70.8848  228.3246 H   0  0  0  0  0  0  0  0  0  0  0  0
  140.7441   72.3475  226.3896 H   0  0  0  0  0  0  0  0  0  0  0  0
  1  2  2  0
  2  3  1  0
  3  4  1  0
  4  5  1  0
  5  6  2  0
  5  7  1  0
  7  8  1  0
  8  9  1  0
  9 10  1  0
 10 11  1  0
 10 12  1  0
 12 13  1  0
 13 14  1  0
 14 15  1  0
 15 16  1  0
 16 17  2  0
 17 18  1  0
 18 19  2  0
 19 20  1  0
 20 21  2  0
  2 22  1  0
 22 23  2  0
 23 24  1  0
 24 25  2  0
 25 26  1  0
 26 27  2  0
 27 28  1  0
 27 29  1  0
 29 30  2  0
 30 31  1  0
 31 32  2  0
 12  7  1  0
 21 16  1  0
 32 22  1  0
 31 25  1  0
  3 33  1  0
  4 34  1  0
  4 35  1  0
  8 36  1  0
  8 37  1  0
  9 38  1  0
  9 39  1  0
 10 40  1  1
 11 41  1  0
 12 42  1  6
 13 43  1  0
 13 44  1  0
 15 45  1  0
 15 46  1  0
 17 47  1  0
 18 48  1  0
 19 49  1  0
 20 50  1  0
 21 51  1  0
 23 52  1  0
 24 53  1  0
 26 54  1  0
 29 55  1  0
 30 56  1  0
M  END
>  <smiles>  (29) 
O=C(NCC(=O)N1CC[C@H](O)[C@H]1COCc1ccccc1)c1ccc2cc(Cl)ccc2n1

>  <score_type>  (29) 
oracle

>  <origin>  (29) 
autodockgpu

>  <m_score__min__energy>  (29) 
-8.8699999999999992

>  <m_primary>  (29) 
energy

>  <rmsd>  (29) 
3.026140532188008

>  <m_score__min__rmsd>  (29) 
3.026140532188008

>  <meeko>  (29) 
{"free_energy": -7.31, "intermolecular_energy": -9.99, "internal_energy": -3.37, "cluster_size": 5, "cluster_id": 7, "rank_in_cluster": 4}

>  <energy>  (29) 
-7.61

>  <cluster_rmsd>  (29) 
1.86

>  <cluster>  (29) 
3

$$$$

     RDKit          3D

 56 59  0  0  0  0  0  0  0  0999 V2000
  141.6530   72.6120  220.8420 O   0  0  0  0  0  0  0  0  0  0  0  0
  141.0540   73.4520  221.5390 C   0  0  0  0  0  0  0  0  0  0  0  0
  140.1610   73.0150  222.5370 N   0  0  0  0  0  0  0  0  0  0  0  0
  139.8190   71.6930  222.8830 C   0  0  0  0  0  0  0  0  0  0  0  0
  138.4760   71.2320  222.5800 C   0  0  0  0  0  0  0  0  0  0  0  0
  138.3010   71.0500  221.2940 O   0  0  0  0  0  0  0  0  0  0  0  0
  137.3610   70.9420  223.3740 N   0  0  0  0  0  0  0  0  0  0  0  0
  136.0410   71.5540  223.4600 C   0  0  0  0  0  0  0  0  0  0  0  0
  135.2960   70.8250  224.6060 C   0  0  0  0  0  0  0  0  0  0  0  0
  135.9150   69.4280  224.3410 C   0  0  2  0  0  0  0  0  0  0  0  0
  135.5870   68.5200  225.3130 O   0  0  0  0  0  0  0  0  0  0  0  0
  137.3620   69.8920  224.4060 C   0  0  1  0  0  0  0  0  0  0  0  0
  138.3630   68.8220  224.2710 C   0  0  0  0  0  0  0  0  0  0  0  0
  138.4390   68.1750  225.5210 O   0  0  0  0  0  0  0  0  0  0  0  0
  139.7530   68.0800  225.9610 C   0  0  0  0  0  0  0  0  0  0  0  0
  140.0760   69.3940  226.5750 C   0  0  0  0  0  0  0  0  0  0  0  0
  140.8390   70.2770  225.8310 C   0  0  0  0  0  0  0  0  0  0  0  0
  141.1890   71.5230  226.2990 C   0  0  0  0  0  0  0  0  0  0  0  0
  140.7530   71.8770  227.5560 C   0  0  0  0  0  0  0  0  0  0  0  0
  139.9850   71.0180  228.3340 C   0  0  0  0  0  0  0  0  0  0  0  0
  139.6320   69.7550  227.8520 C   0  0  0  0  0  0  0  0  0  0  0  0
  141.2720   74.8970  221.3360 C   0  0  0  0  0  0  0  0  0  0  0  0
  141.9840   75.3940  220.2720 C   0  0  0  0  0  0  0  0  0  0  0  0
  142.2010   76.7670  220.1030 C   0  0  0  0  0  0  0  0  0  0  0  0
  141.6680   77.6360  221.0560 C   0  0  0  0  0  0  0  0  0  0  0  0
  141.8170   78.9970  221.0050 C   0  0  0  0  0  0  0  0  0  0  0  0
  141.2750   79.8010  221.9810 C   0  0  0  0  0  0  0  0  0  0  0  0
  141.4490   81.5530  221.9640 Cl  0  0  0  0  0  0  0  0  0  0  0  0
  140.5690   79.2540  223.0260 C   0  0  0  0  0  0  0  0  0  0  0  0
  140.4070   77.8770  223.0930 C   0  0  0  0  0  0  0  0  0  0  0  0
  140.9680   77.0740  222.0900 C   0  0  0  0  0  0  0  0  0  0  0  0
  140.7730   75.7570  222.2310 N   0  0  0  0  0  0  0  0  0  0  0  0
  139.6860   73.8010  223.0920 H   0  0  0  0  0  0  0  0  0  0  0  0
  140.5192   71.0265  222.3581 H   0  0  0  0  0  0  0  0  0  0  0  0
  139.8729   71.6752  223.9815 H   0  0  0  0  0  0  0  0  0  0  0  0
  136.1327   72.6264  223.6873 H   0  0  0  0  0  0  0  0  0  0  0  0
  135.4962   71.4635  222.5087 H   0  0  0  0  0  0  0  0  0  0  0  0
  135.5526   71.2218  225.5993 H   0  0  0  0  0  0  0  0  0  0  0  0
  134.1982   70.8936  224.6135 H   0  0  0  0  0  0  0  0  0  0  0  0
  135.6066   68.8926  223.4309 H   0  0  0  0  0  0  0  0  0  0  0  0
  136.4570   68.1670  225.6860 H   0  0  0  0  0  0  0  0  0  0  0  0
  137.6818   70.2675  225.3892 H   0  0  0  0  0  0  0  0  0  0  0  0
  138.0521   68.1085  223.4936 H   0  0  0  0  0  0  0  0  0  0  0  0
  139.3412   69.2314  223.9785 H   0  0  0  0  0  0  0  0  0  0  0  0
  139.8494   67.2762  226.7057 H   0  0  0  0  0  0  0  0  0  0  0  0
  140.4384   67.8426  225.1340 H   0  0  0  0  0  0  0  0  0  0  0  0
  141.1778   69.9720  224.8299 H   0  0  0  0  0  0  0  0  0  0  0  0
  141.7949   72.2109  225.6910 H   0  0  0  0  0  0  0  0  0  0  0  0
  141.0196   72.8665  227.9557 H   0  0  0  0  0  0  0  0  0  0  0  0
  139.6536   71.3343  229.3341 H   0  0  0  0  0  0  0  0  0  0  0  0
  139.0243   69.0662  228.4572 H   0  0  0  0  0  0  0  0  0  0  0  0
  142.3958   74.6931  219.5310 H   0  0  0  0  0  0  0  0  0  0  0  0
  142.7741   77.1489  219.2453 H   0  0  0  0  0  0  0  0  0  0  0  0
  142.3763   79.4520  220.1743 H   0  0  0  0  0  0  0  0  0  0  0  0
  140.1362   79.9019  223.8024 H   0  0  0  0  0  0  0  0  0  0  0  0
  139.8457   77.4217  223.9223 H   0  0  0  0  0  0  0  0  0  0  0  0
  1  2  2  0
  2  3  1  0
  3  4  1  0
  4  5  1  0
  5  6  2  0
  5  7  1  0
  7  8  1  0
  8  9  1  0
  9 10  1  0
 10 11  1  0
 10 12  1  0
 12 13  1  0
 13 14  1  0
 14 15  1  0
 15 16  1  0
 16 17  2  0
 17 18  1  0
 18 19  2  0
 19 20  1  0
 20 21  2  0
  2 22  1  0
 22 23  2  0
 23 24  1  0
 24 25  2  0
 25 26  1  0
 26 27  2  0
 27 28  1  0
 27 29  1  0
 29 30  2  0
 30 31  1  0
 31 32  2  0
 12  7  1  0
 21 16  1  0
 32 22  1  0
 31 25  1  0
  3 33  1  0
  4 34  1  0
  4 35  1  0
  8 36  1  0
  8 37  1  0
  9 38  1  0
  9 39  1  0
 10 40  1  6
 11 41  1  0
 12 42  1  1
 13 43  1  0
 13 44  1  0
 15 45  1  0
 15 46  1  0
 17 47  1  0
 18 48  1  0
 19 49  1  0
 20 50  1  0
 21 51  1  0
 23 52  1  0
 24 53  1  0
 26 54  1  0
 29 55  1  0
 30 56  1  0
M  END
>  <smiles>  (30) 
O=C(NCC(=O)N1CC[C@H](O)[C@H]1COCc1ccccc1)c1ccc2cc(Cl)ccc2n1

>  <score_type>  (30) 
oracle

>  <origin>  (30) 
autodockgpu

>  <m_score__min__energy>  (30) 
-8.8699999999999992

>  <m_primary>  (30) 
energy

>  <rmsd>  (30) 
8.563215226479173

>  <m_score__min__rmsd>  (30) 
8.563215226479173

>  <meeko>  (30) 
{"free_energy": -8.46, "intermolecular_energy": -11.15, "internal_energy": -2.68, "cluster_size": 6, "cluster_id": 3, "rank_in_cluster": 1}

>  <energy>  (30) 
-7.59

>  <cluster_rmsd>  (30) 
1.38

>  <cluster>  (30) 
3

$$$$

     RDKit          3D

 56 59  0  0  0  0  0  0  0  0999 V2000
  132.1600   69.7050  226.4410 O   0  0  0  0  0  0  0  0  0  0  0  0
  133.0030   70.6130  226.3160 C   0  0  0  0  0  0  0  0  0  0  0  0
  134.2700   70.3130  225.7800 N   0  0  0  0  0  0  0  0  0  0  0  0
  134.7600   69.0670  225.3420 C   0  0  0  0  0  0  0  0  0  0  0  0
  135.4610   69.0140  224.0720 C   0  0  0  0  0  0  0  0  0  0  0  0
  135.0720   67.9980  223.3410 O   0  0  0  0  0  0  0  0  0  0  0  0
  136.4410   69.8220  223.4840 N   0  0  0  0  0  0  0  0  0  0  0  0
  136.3960   70.7400  222.3520 C   0  0  0  0  0  0  0  0  0  0  0  0
  137.8440   71.2540  222.1500 C   0  0  0  0  0  0  0  0  0  0  0  0
  138.2200   71.2790  223.6540 C   0  0  2  0  0  0  0  0  0  0  0  0
  139.5490   71.5470  223.8540 O   0  0  0  0  0  0  0  0  0  0  0  0
  137.8460   69.8290  223.9260 C   0  0  1  0  0  0  0  0  0  0  0  0
  138.1190   69.3650  225.2940 C   0  0  0  0  0  0  0  0  0  0  0  0
  138.9950   68.2660  225.1850 O   0  0  0  0  0  0  0  0  0  0  0  0
  139.7620   68.1150  226.3330 C   0  0  0  0  0  0  0  0  0  0  0  0
  140.2200   69.4800  226.7020 C   0  0  0  0  0  0  0  0  0  0  0  0
  139.7690   70.0020  227.9020 C   0  0  0  0  0  0  0  0  0  0  0  0
  140.1360   71.2530  228.3450 C   0  0  0  0  0  0  0  0  0  0  0  0
  140.9810   71.9890  227.5460 C   0  0  0  0  0  0  0  0  0  0  0  0
  141.4550   71.4990  226.3340 C   0  0  0  0  0  0  0  0  0  0  0  0
  141.0790   70.2290  225.8900 C   0  0  0  0  0  0  0  0  0  0  0  0
  132.6890   71.9970  226.7170 C   0  0  0  0  0  0  0  0  0  0  0  0
  131.5970   72.3130  227.4890 C   0  0  0  0  0  0  0  0  0  0  0  0
  131.2990   73.6330  227.8440 C   0  0  0  0  0  0  0  0  0  0  0  0
  132.1510   74.6420  227.3910 C   0  0  0  0  0  0  0  0  0  0  0  0
  131.9620   75.9710  227.6650 C   0  0  0  0  0  0  0  0  0  0  0  0
  132.8330   76.9200  227.1810 C   0  0  0  0  0  0  0  0  0  0  0  0
  132.6270   78.6390  227.4990 Cl  0  0  0  0  0  0  0  0  0  0  0  0
  133.9120   76.5520  226.4130 C   0  0  0  0  0  0  0  0  0  0  0  0
  134.1190   75.2100  226.1260 C   0  0  0  0  0  0  0  0  0  0  0  0
  133.2200   74.2570  226.6270 C   0  0  0  0  0  0  0  0  0  0  0  0
  133.4860   72.9870  226.2990 N   0  0  0  0  0  0  0  0  0  0  0  0
  134.9380   71.1500  225.7070 H   0  0  0  0  0  0  0  0  0  0  0  0
  135.4534   68.6999  226.1129 H   0  0  0  0  0  0  0  0  0  0  0  0
  133.8568   68.4603  225.1805 H   0  0  0  0  0  0  0  0  0  0  0  0
  136.0489   70.2152  221.4497 H   0  0  0  0  0  0  0  0  0  0  0  0
  135.6996   71.5707  222.5388 H   0  0  0  0  0  0  0  0  0  0  0  0
  138.4650   70.5567  221.5685 H   0  0  0  0  0  0  0  0  0  0  0  0
  137.9695   72.1902  221.5863 H   0  0  0  0  0  0  0  0  0  0  0  0
  137.7455   72.0409  224.2899 H   0  0  0  0  0  0  0  0  0  0  0  0
  139.6480   72.5530  223.8410 H   0  0  0  0  0  0  0  0  0  0  0  0
  138.4597   69.0862  223.3953 H   0  0  0  0  0  0  0  0  0  0  0  0
  138.5905   70.1683  225.8792 H   0  0  0  0  0  0  0  0  0  0  0  0
  137.1887   69.0784  225.8062 H   0  0  0  0  0  0  0  0  0  0  0  0
  139.1563   67.6830  227.1433 H   0  0  0  0  0  0  0  0  0  0  0  0
  140.6115   67.4369  226.1638 H   0  0  0  0  0  0  0  0  0  0  0  0
  139.0935   69.3960  228.5237 H   0  0  0  0  0  0  0  0  0  0  0  0
  139.7673   71.6496  229.3025 H   0  0  0  0  0  0  0  0  0  0  0  0
  141.2898   72.9922  227.8751 H   0  0  0  0  0  0  0  0  0  0  0  0
  142.1298   72.1149  225.7214 H   0  0  0  0  0  0  0  0  0  0  0  0
  141.4464   69.8305  224.9328 H   0  0  0  0  0  0  0  0  0  0  0  0
  130.9379   71.5044  227.8381 H   0  0  0  0  0  0  0  0  0  0  0  0
  130.4198   73.8688  228.4615 H   0  0  0  0  0  0  0  0  0  0  0  0
  131.1042   76.2830  228.2789 H   0  0  0  0  0  0  0  0  0  0  0  0
  134.6055   77.3147  226.0291 H   0  0  0  0  0  0  0  0  0  0  0  0
  134.9775   74.8976  225.5132 H   0  0  0  0  0  0  0  0  0  0  0  0
  1  2  2  0
  2  3  1  0
  3  4  1  0
  4  5  1  0
  5  6  2  0
  5  7  1  0
  7  8  1  0
  8  9  1  0
  9 10  1  0
 10 11  1  0
 10 12  1  0
 12 13  1  0
 13 14  1  0
 14 15  1  0
 15 16  1  0
 16 17  2  0
 17 18  1  0
 18 19  2  0
 19 20  1  0
 20 21  2  0
  2 22  1  0
 22 23  2  0
 23 24  1  0
 24 25  2  0
 25 26  1  0
 26 27  2  0
 27 28  1  0
 27 29  1  0
 29 30  2  0
 30 31  1  0
 31 32  2  0
 12  7  1  0
 21 16  1  0
 32 22  1  0
 31 25  1  0
  3 33  1  0
  4 34  1  0
  4 35  1  0
  8 36  1  0
  8 37  1  0
  9 38  1  0
  9 39  1  0
 10 40  1  1
 11 41  1  0
 12 42  1  6
 13 43  1  0
 13 44  1  0
 15 45  1  0
 15 46  1  0
 17 47  1  0
 18 48  1  0
 19 49  1  0
 20 50  1  0
 21 51  1  0
 23 52  1  0
 24 53  1  0
 26 54  1  0
 29 55  1  0
 30 56  1  0
M  END
>  <smiles>  (31) 
O=C(NCC(=O)N1CC[C@H](O)[C@H]1COCc1ccccc1)c1ccc2cc(Cl)ccc2n1

>  <score_type>  (31) 
oracle

>  <origin>  (31) 
autodockgpu

>  <m_score__min__energy>  (31) 
-8.8699999999999992

>  <m_primary>  (31) 
energy

>  <rmsd>  (31) 
8.703832064715952

>  <m_score__min__rmsd>  (31) 
8.703832064715952

>  <meeko>  (31) 
{"free_energy": -8.69, "intermolecular_energy": -11.37, "internal_energy": -1.81, "cluster_size": 8, "cluster_id": 1, "rank_in_cluster": 4}

>  <energy>  (31) 
-8.25

>  <cluster_rmsd>  (31) 
0.0

>  <cluster>  (31) 
4

$$$$

     RDKit          3D

 56 59  0  0  0  0  0  0  0  0999 V2000
  134.7240   68.4350  224.9600 O   0  0  0  0  0  0  0  0  0  0  0  0
  135.1720   69.5950  225.0150 C   0  0  0  0  0  0  0  0  0  0  0  0
  136.4280   69.8810  224.4460 N   0  0  0  0  0  0  0  0  0  0  0  0
  137.3090   69.0000  223.7880 C   0  0  0  0  0  0  0  0  0  0  0  0
  138.2670   69.5600  222.8530 C   0  0  0  0  0  0  0  0  0  0  0  0
  139.1860   68.6900  222.5130 O   0  0  0  0  0  0  0  0  0  0  0  0
  138.3940   70.8170  222.2490 N   0  0  0  0  0  0  0  0  0  0  0  0
  137.5240   71.5530  221.3400 C   0  0  0  0  0  0  0  0  0  0  0  0
  138.2850   72.8490  220.9620 C   0  0  0  0  0  0  0  0  0  0  0  0
  138.9630   73.0490  222.3420 C   0  0  2  0  0  0  0  0  0  0  0  0
  139.8820   74.0640  222.3270 O   0  0  0  0  0  0  0  0  0  0  0  0
  139.5890   71.6640  222.4030 C   0  0  1  0  0  0  0  0  0  0  0  0
  140.4350   71.4180  223.5810 C   0  0  0  0  0  0  0  0  0  0  0  0
  139.5700   71.3210  224.6910 O   0  0  0  0  0  0  0  0  0  0  0  0
  140.2470   71.5570  225.8810 C   0  0  0  0  0  0  0  0  0  0  0  0
  140.4230   70.2290  226.5230 C   0  0  0  0  0  0  0  0  0  0  0  0
  140.2640   70.1560  227.8960 C   0  0  0  0  0  0  0  0  0  0  0  0
  140.3970   68.9760  228.5910 C   0  0  0  0  0  0  0  0  0  0  0  0
  140.7010   67.8430  227.8710 C   0  0  0  0  0  0  0  0  0  0  0  0
  140.8700   67.8750  226.4910 C   0  0  0  0  0  0  0  0  0  0  0  0
  140.7330   69.0770  225.7910 C   0  0  0  0  0  0  0  0  0  0  0  0
  134.4030   70.6730  225.6640 C   0  0  0  0  0  0  0  0  0  0  0  0
  133.3700   70.4230  226.5340 C   0  0  0  0  0  0  0  0  0  0  0  0
  132.6340   71.4560  227.1270 C   0  0  0  0  0  0  0  0  0  0  0  0
  132.9790   72.7710  226.8100 C   0  0  0  0  0  0  0  0  0  0  0  0
  132.3310   73.8660  227.3190 C   0  0  0  0  0  0  0  0  0  0  0  0
  132.7140   75.1380  226.9610 C   0  0  0  0  0  0  0  0  0  0  0  0
  131.9060   76.5740  227.5800 Cl  0  0  0  0  0  0  0  0  0  0  0  0
  133.7550   75.3360  226.0860 C   0  0  0  0  0  0  0  0  0  0  0  0
  134.4240   74.2380  225.5620 C   0  0  0  0  0  0  0  0  0  0  0  0
  134.0200   72.9490  225.9380 C   0  0  0  0  0  0  0  0  0  0  0  0
  134.7090   71.9450  225.3830 N   0  0  0  0  0  0  0  0  0  0  0  0
  136.7420   70.9030  224.5360 H   0  0  0  0  0  0  0  0  0  0  0  0
  137.8816   68.4712  224.5642 H   0  0  0  0  0  0  0  0  0  0  0  0
  136.6535   68.3741  223.1646 H   0  0  0  0  0  0  0  0  0  0  0  0
  137.3206   70.9546  220.4397 H   0  0  0  0  0  0  0  0  0  0  0  0
  136.5561   71.7809  221.8103 H   0  0  0  0  0  0  0  0  0  0  0  0
  139.0112   72.6938  220.1505 H   0  0  0  0  0  0  0  0  0  0  0  0
  137.6871   73.6856  220.5713 H   0  0  0  0  0  0  0  0  0  0  0  0
  138.3271   73.3428  223.1901 H   0  0  0  0  0  0  0  0  0  0  0  0
  139.5830   74.7380  223.0190 H   0  0  0  0  0  0  0  0  0  0  0  0
  140.3493   71.4666  221.6329 H   0  0  0  0  0  0  0  0  0  0  0  0
  140.9961   70.4803  223.4551 H   0  0  0  0  0  0  0  0  0  0  0  0
  141.1648   72.2293  223.7191 H   0  0  0  0  0  0  0  0  0  0  0  0
  141.2258   72.0165  225.6791 H   0  0  0  0  0  0  0  0  0  0  0  0
  139.6899   72.2478  226.5310 H   0  0  0  0  0  0  0  0  0  0  0  0
  140.0227   71.0743  228.4514 H   0  0  0  0  0  0  0  0  0  0  0  0
  140.2652   68.9394  229.6825 H   0  0  0  0  0  0  0  0  0  0  0  0
  140.8134   66.8860  228.4017 H   0  0  0  0  0  0  0  0  0  0  0  0
  141.1127   66.9498  225.9477 H   0  0  0  0  0  0  0  0  0  0  0  0
  140.8646   69.1164  224.6996 H   0  0  0  0  0  0  0  0  0  0  0  0
  133.1133   69.3802  226.7720 H   0  0  0  0  0  0  0  0  0  0  0  0
  131.8092   71.2380  227.8214 H   0  0  0  0  0  0  0  0  0  0  0  0
  131.4958   73.7265  228.0212 H   0  0  0  0  0  0  0  0  0  0  0  0
  134.0557   76.3556  225.8032 H   0  0  0  0  0  0  0  0  0  0  0  0
  135.2601   74.3775  224.8610 H   0  0  0  0  0  0  0  0  0  0  0  0
  1  2  2  0
  2  3  1  0
  3  4  1  0
  4  5  1  0
  5  6  2  0
  5  7  1  0
  7  8  1  0
  8  9  1  0
  9 10  1  0
 10 11  1  0
 10 12  1  0
 12 13  1  0
 13 14  1  0
 14 15  1  0
 15 16  1  0
 16 17  2  0
 17 18  1  0
 18 19  2  0
 19 20  1  0
 20 21  2  0
  2 22  1  0
 22 23  2  0
 23 24  1  0
 24 25  2  0
 25 26  1  0
 26 27  2  0
 27 28  1  0
 27 29  1  0
 29 30  2  0
 30 31  1  0
 31 32  2  0
 12  7  1  0
 21 16  1  0
 32 22  1  0
 31 25  1  0
  3 33  1  0
  4 34  1  0
  4 35  1  0
  8 36  1  0
  8 37  1  0
  9 38  1  0
  9 39  1  0
 10 40  1  1
 11 41  1  0
 12 42  1  6
 13 43  1  0
 13 44  1  0
 15 45  1  0
 15 46  1  0
 17 47  1  0
 18 48  1  0
 19 49  1  0
 20 50  1  0
 21 51  1  0
 23 52  1  0
 24 53  1  0
 26 54  1  0
 29 55  1  0
 30 56  1  0
M  END
>  <smiles>  (32) 
O=C(NCC(=O)N1CC[C@H](O)[C@H]1COCc1ccccc1)c1ccc2cc(Cl)ccc2n1

>  <score_type>  (32) 
oracle

>  <origin>  (32) 
autodockgpu

>  <m_score__min__energy>  (32) 
-8.8699999999999992

>  <m_primary>  (32) 
energy

>  <rmsd>  (32) 
6.804135293193308

>  <m_score__min__rmsd>  (32) 
6.804135293193308

>  <meeko>  (32) 
{"free_energy": -8.04, "intermolecular_energy": -10.73, "internal_energy": -2.24, "cluster_size": 8, "cluster_id": 1, "rank_in_cluster": 8}

>  <energy>  (32) 
-7.88

>  <cluster_rmsd>  (32) 
0.0

>  <cluster>  (32) 
5

$$$$

     RDKit          3D

 56 59  0  0  0  0  0  0  0  0999 V2000
  138.8860   71.8390  220.7690 O   0  0  0  0  0  0  0  0  0  0  0  0
  139.2770   72.1940  221.8960 C   0  0  0  0  0  0  0  0  0  0  0  0
  139.5520   73.5540  222.1380 N   0  0  0  0  0  0  0  0  0  0  0  0
  139.4520   74.6370  221.2430 C   0  0  0  0  0  0  0  0  0  0  0  0
  140.4470   75.6910  221.3290 C   0  0  0  0  0  0  0  0  0  0  0  0
  140.5890   76.1300  222.5560 O   0  0  0  0  0  0  0  0  0  0  0  0
  141.2720   76.3100  220.3830 N   0  0  0  0  0  0  0  0  0  0  0  0
  142.5980   75.9740  219.8790 C   0  0  0  0  0  0  0  0  0  0  0  0
  142.9990   77.1170  218.9120 C   0  0  0  0  0  0  0  0  0  0  0  0
  141.5730   77.3690  218.3570 C   0  0  2  0  0  0  0  0  0  0  0  0
  141.5160   78.4750  217.5500 O   0  0  0  0  0  0  0  0  0  0  0  0
  140.9190   77.5740  219.7150 C   0  0  1  0  0  0  0  0  0  0  0  0
  139.4920   77.9290  219.6680 C   0  0  0  0  0  0  0  0  0  0  0  0
  139.0920   78.1880  220.9960 O   0  0  0  0  0  0  0  0  0  0  0  0
  139.2270   79.5340  221.3100 C   0  0  0  0  0  0  0  0  0  0  0  0
  140.4690   79.6440  222.1190 C   0  0  0  0  0  0  0  0  0  0  0  0
  141.5120   80.3830  221.5900 C   0  0  0  0  0  0  0  0  0  0  0  0
  142.7040   80.5570  222.2570 C   0  0  0  0  0  0  0  0  0  0  0  0
  142.8350   79.9620  223.4910 C   0  0  0  0  0  0  0  0  0  0  0  0
  141.8100   79.2110  224.0550 C   0  0  0  0  0  0  0  0  0  0  0  0
  140.6030   79.0400  223.3730 C   0  0  0  0  0  0  0  0  0  0  0  0
  139.4490   71.2100  222.9820 C   0  0  0  0  0  0  0  0  0  0  0  0
  138.9970   69.9170  222.8860 C   0  0  0  0  0  0  0  0  0  0  0  0
  139.1490   69.0000  223.9320 C   0  0  0  0  0  0  0  0  0  0  0  0
  139.7820   69.4350  225.0970 C   0  0  0  0  0  0  0  0  0  0  0  0
  139.9830   68.6350  226.1920 C   0  0  0  0  0  0  0  0  0  0  0  0
  140.6070   69.1260  227.3160 C   0  0  0  0  0  0  0  0  0  0  0  0
  140.8790   68.1400  228.7490 Cl  0  0  0  0  0  0  0  0  0  0  0  0
  141.0410   70.4290  227.3630 C   0  0  0  0  0  0  0  0  0  0  0  0
  140.8470   71.2520  226.2620 C   0  0  0  0  0  0  0  0  0  0  0  0
  140.2090   70.7350  225.1260 C   0  0  0  0  0  0  0  0  0  0  0  0
  140.0530   71.5950  224.1120 N   0  0  0  0  0  0  0  0  0  0  0  0
  139.8850   73.7770  223.1340 H   0  0  0  0  0  0  0  0  0  0  0  0
  139.5009   74.2243  220.2245 H   0  0  0  0  0  0  0  0  0  0  0  0
  138.5074   75.1303  221.5158 H   0  0  0  0  0  0  0  0  0  0  0  0
  143.3159   75.9087  220.7099 H   0  0  0  0  0  0  0  0  0  0  0  0
  142.5961   75.0001  219.3675 H   0  0  0  0  0  0  0  0  0  0  0  0
  143.4116   77.9917  219.4361 H   0  0  0  0  0  0  0  0  0  0  0  0
  143.7908   76.8999  218.1800 H   0  0  0  0  0  0  0  0  0  0  0  0
  141.1315   76.6010  217.7049 H   0  0  0  0  0  0  0  0  0  0  0  0
  142.4710   78.7200  217.3260 H   0  0  0  0  0  0  0  0  0  0  0  0
  141.2717   78.4569  220.2682 H   0  0  0  0  0  0  0  0  0  0  0  0
  139.3450   78.8248  219.0468 H   0  0  0  0  0  0  0  0  0  0  0  0
  138.8972   77.1148  219.2285 H   0  0  0  0  0  0  0  0  0  0  0  0
  139.3146   80.1336  220.3920 H   0  0  0  0  0  0  0  0  0  0  0  0
  138.3524   79.9084  221.8621 H   0  0  0  0  0  0  0  0  0  0  0  0
  141.3845   80.8482  220.6014 H   0  0  0  0  0  0  0  0  0  0  0  0
  143.5211   81.1495  221.8198 H   0  0  0  0  0  0  0  0  0  0  0  0
  143.7767   80.0840  224.0464 H   0  0  0  0  0  0  0  0  0  0  0  0
  141.9502   78.7491  225.0434 H   0  0  0  0  0  0  0  0  0  0  0  0
  139.7839   78.4490  223.8086 H   0  0  0  0  0  0  0  0  0  0  0  0
  138.5007   69.5924  221.9595 H   0  0  0  0  0  0  0  0  0  0  0  0
  138.7807   67.9677  223.8387 H   0  0  0  0  0  0  0  0  0  0  0  0
  139.6419   67.5894  226.1720 H   0  0  0  0  0  0  0  0  0  0  0  0
  141.5376   70.8164  228.2648 H   0  0  0  0  0  0  0  0  0  0  0  0
  141.1898   72.2971  226.2808 H   0  0  0  0  0  0  0  0  0  0  0  0
  1  2  2  0
  2  3  1  0
  3  4  1  0
  4  5  1  0
  5  6  2  0
  5  7  1  0
  7  8  1  0
  8  9  1  0
  9 10  1  0
 10 11  1  0
 10 12  1  0
 12 13  1  0
 13 14  1  0
 14 15  1  0
 15 16  1  0
 16 17  2  0
 17 18  1  0
 18 19  2  0
 19 20  1  0
 20 21  2  0
  2 22  1  0
 22 23  2  0
 23 24  1  0
 24 25  2  0
 25 26  1  0
 26 27  2  0
 27 28  1  0
 27 29  1  0
 29 30  2  0
 30 31  1  0
 31 32  2  0
 12  7  1  0
 21 16  1  0
 32 22  1  0
 31 25  1  0
  3 33  1  0
  4 34  1  0
  4 35  1  0
  8 36  1  0
  8 37  1  0
  9 38  1  0
  9 39  1  0
 10 40  1  6
 11 41  1  0
 12 42  1  1
 13 43  1  0
 13 44  1  0
 15 45  1  0
 15 46  1  0
 17 47  1  0
 18 48  1  0
 19 49  1  0
 20 50  1  0
 21 51  1  0
 23 52  1  0
 24 53  1  0
 26 54  1  0
 29 55  1  0
 30 56  1  0
M  END
>  <smiles>  (33) 
O=C(NCC(=O)N1CC[C@H](O)[C@H]1COCc1ccccc1)c1ccc2cc(Cl)ccc2n1

>  <score_type>  (33) 
oracle

>  <origin>  (33) 
autodockgpu

>  <m_score__min__energy>  (33) 
-8.8699999999999992

>  <m_primary>  (33) 
energy

>  <rmsd>  (33) 
2.108835891720461

>  <m_score__min__rmsd>  (33) 
2.108835891720461

>  <meeko>  (33) 
{"free_energy": -7.77, "intermolecular_energy": -10.45, "internal_energy": -2.4, "cluster_size": 16, "cluster_id": 2, "rank_in_cluster": 12}

>  <energy>  (33) 
-7.79

>  <cluster_rmsd>  (33) 
0.26

>  <cluster>  (33) 
5

$$$$

     RDKit          3D

 56 59  0  0  0  0  0  0  0  0999 V2000
  139.6400   73.8350  222.3210 O   0  0  0  0  0  0  0  0  0  0  0  0
  139.5240   72.6280  222.0380 C   0  0  0  0  0  0  0  0  0  0  0  0
  139.2940   72.2470  220.7020 N   0  0  0  0  0  0  0  0  0  0  0  0
  139.1630   73.0750  219.5690 C   0  0  0  0  0  0  0  0  0  0  0  0
  140.1050   74.1680  219.4080 C   0  0  0  0  0  0  0  0  0  0  0  0
  139.5090   75.2790  219.0500 O   0  0  0  0  0  0  0  0  0  0  0  0
  141.4930   74.2680  219.5640 N   0  0  0  0  0  0  0  0  0  0  0  0
  142.5850   73.3950  219.1500 C   0  0  0  0  0  0  0  0  0  0  0  0
  143.8840   74.0260  219.7120 C   0  0  0  0  0  0  0  0  0  0  0  0
  143.4400   75.5010  219.5320 C   0  0  2  0  0  0  0  0  0  0  0  0
  144.3230   76.3830  220.0980 O   0  0  0  0  0  0  0  0  0  0  0  0
  142.1390   75.3620  220.3080 C   0  0  1  0  0  0  0  0  0  0  0  0
  141.3740   76.6080  220.4630 C   0  0  0  0  0  0  0  0  0  0  0  0
  142.3140   77.6570  220.5360 O   0  0  0  0  0  0  0  0  0  0  0  0
  141.7400   78.8740  220.1930 C   0  0  0  0  0  0  0  0  0  0  0  0
  141.7820   79.7090  221.4220 C   0  0  0  0  0  0  0  0  0  0  0  0
  142.5320   79.2410  222.4860 C   0  0  0  0  0  0  0  0  0  0  0  0
  142.6470   79.9370  223.6680 C   0  0  0  0  0  0  0  0  0  0  0  0
  141.9790   81.1360  223.7680 C   0  0  0  0  0  0  0  0  0  0  0  0
  141.2150   81.6390  222.7210 C   0  0  0  0  0  0  0  0  0  0  0  0
  141.1040   80.9280  221.5230 C   0  0  0  0  0  0  0  0  0  0  0  0
  139.6280   71.5930  223.0840 C   0  0  0  0  0  0  0  0  0  0  0  0
  139.0710   70.3450  222.9460 C   0  0  0  0  0  0  0  0  0  0  0  0
  139.1600   69.3790  223.9560 C   0  0  0  0  0  0  0  0  0  0  0  0
  139.8390   69.7170  225.1270 C   0  0  0  0  0  0  0  0  0  0  0  0
  139.9870   68.8630  226.1880 C   0  0  0  0  0  0  0  0  0  0  0  0
  140.6610   69.2580  227.3210 C   0  0  0  0  0  0  0  0  0  0  0  0
  140.8690   68.2000  228.7120 Cl  0  0  0  0  0  0  0  0  0  0  0  0
  141.2010   70.5190  227.4090 C   0  0  0  0  0  0  0  0  0  0  0  0
  141.0620   71.3970  226.3430 C   0  0  0  0  0  0  0  0  0  0  0  0
  140.3710   70.9770  225.1980 C   0  0  0  0  0  0  0  0  0  0  0  0
  140.2740   71.8840  224.2190 N   0  0  0  0  0  0  0  0  0  0  0  0
  139.2040   71.1900  220.5430 H   0  0  0  0  0  0  0  0  0  0  0  0
  139.2548   72.4313  218.6817 H   0  0  0  0  0  0  0  0  0  0  0  0
  138.1899   73.5700  219.7030 H   0  0  0  0  0  0  0  0  0  0  0  0
  142.4427   72.3853  219.5626 H   0  0  0  0  0  0  0  0  0  0  0  0
  142.6279   73.3007  218.0549 H   0  0  0  0  0  0  0  0  0  0  0  0
  144.0637   73.7619  220.7646 H   0  0  0  0  0  0  0  0  0  0  0  0
  144.8317   73.7265  219.2406 H   0  0  0  0  0  0  0  0  0  0  0  0
  143.3657   75.8942  218.5074 H   0  0  0  0  0  0  0  0  0  0  0  0
  143.8530   77.2760  220.1420 H   0  0  0  0  0  0  0  0  0  0  0  0
  142.2610   75.1321  221.3768 H   0  0  0  0  0  0  0  0  0  0  0  0
  140.7095   76.7544  219.5987 H   0  0  0  0  0  0  0  0  0  0  0  0
  140.7470   76.5764  221.3662 H   0  0  0  0  0  0  0  0  0  0  0  0
  142.3138   79.3530  219.3859 H   0  0  0  0  0  0  0  0  0  0  0  0
  140.7100   78.7448  219.8292 H   0  0  0  0  0  0  0  0  0  0  0  0
  143.0550   78.2787  222.3839 H   0  0  0  0  0  0  0  0  0  0  0  0
  143.2506   79.5491  224.5018 H   0  0  0  0  0  0  0  0  0  0  0  0
  142.0515   81.7123  224.7021 H   0  0  0  0  0  0  0  0  0  0  0  0
  140.6952   82.6016  222.8362 H   0  0  0  0  0  0  0  0  0  0  0  0
  140.5030   81.3146  220.6867 H   0  0  0  0  0  0  0  0  0  0  0  0
  138.5397   70.0972  222.0153 H   0  0  0  0  0  0  0  0  0  0  0  0
  138.7083   68.3840  223.8299 H   0  0  0  0  0  0  0  0  0  0  0  0
  139.5622   67.8498  226.1337 H   0  0  0  0  0  0  0  0  0  0  0  0
  141.7389   70.8297  228.3168 H   0  0  0  0  0  0  0  0  0  0  0  0
  141.4886   72.4095  226.3960 H   0  0  0  0  0  0  0  0  0  0  0  0
  1  2  2  0
  2  3  1  0
  3  4  1  0
  4  5  1  0
  5  6  2  0
  5  7  1  0
  7  8  1  0
  8  9  1  0
  9 10  1  0
 10 11  1  0
 10 12  1  0
 12 13  1  0
 13 14  1  0
 14 15  1  0
 15 16  1  0
 16 17  2  0
 17 18  1  0
 18 19  2  0
 19 20  1  0
 20 21  2  0
  2 22  1  0
 22 23  2  0
 23 24  1  0
 24 25  2  0
 25 26  1  0
 26 27  2  0
 27 28  1  0
 27 29  1  0
 29 30  2  0
 30 31  1  0
 31 32  2  0
 12  7  1  0
 21 16  1  0
 32 22  1  0
 31 25  1  0
  3 33  1  0
  4 34  1  0
  4 35  1  0
  8 36  1  0
  8 37  1  0
  9 38  1  0
  9 39  1  0
 10 40  1  6
 11 41  1  0
 12 42  1  1
 13 43  1  0
 13 44  1  0
 15 45  1  0
 15 46  1  0
 17 47  1  0
 18 48  1  0
 19 49  1  0
 20 50  1  0
 21 51  1  0
 23 52  1  0
 24 53  1  0
 26 54  1  0
 29 55  1  0
 30 56  1  0
M  END
>  <smiles>  (34) 
O=C(NCC(=O)N1CC[C@H](O)[C@H]1COCc1ccccc1)c1ccc2cc(Cl)ccc2n1

>  <score_type>  (34) 
oracle

>  <origin>  (34) 
autodockgpu

>  <m_score__min__energy>  (34) 
-8.8699999999999992

>  <m_primary>  (34) 
energy

>  <rmsd>  (34) 
2.6346136698831084

>  <m_score__min__rmsd>  (34) 
2.6346136698831084

>  <meeko>  (34) 
{"free_energy": -8.4, "intermolecular_energy": -11.08, "internal_energy": -1.86, "cluster_size": 16, "cluster_id": 2, "rank_in_cluster": 3}

>  <energy>  (34) 
-7.77

>  <cluster_rmsd>  (34) 
1.9

>  <cluster>  (34) 
5

$$$$

     RDKit          3D

 56 59  0  0  0  0  0  0  0  0999 V2000
  139.6020   72.1940  220.5600 O   0  0  0  0  0  0  0  0  0  0  0  0
  139.6030   72.5610  221.7490 C   0  0  0  0  0  0  0  0  0  0  0  0
  139.5170   73.9340  222.0520 N   0  0  0  0  0  0  0  0  0  0  0  0
  139.4290   75.0200  221.1580 C   0  0  0  0  0  0  0  0  0  0  0  0
  140.5570   75.9300  221.0730 C   0  0  0  0  0  0  0  0  0  0  0  0
  141.4060   75.7490  222.0550 O   0  0  0  0  0  0  0  0  0  0  0  0
  140.9130   76.9330  220.1640 N   0  0  0  0  0  0  0  0  0  0  0  0
  140.7390   78.3800  220.1930 C   0  0  0  0  0  0  0  0  0  0  0  0
  141.2660   78.9100  218.8360 C   0  0  0  0  0  0  0  0  0  0  0  0
  142.4150   77.8780  218.6930 C   0  0  2  0  0  0  0  0  0  0  0  0
  143.0290   77.9500  217.4700 O   0  0  0  0  0  0  0  0  0  0  0  0
  141.5340   76.6490  218.8590 C   0  0  1  0  0  0  0  0  0  0  0  0
  142.2320   75.3630  218.7160 C   0  0  0  0  0  0  0  0  0  0  0  0
  143.6100   75.6290  218.8580 O   0  0  0  0  0  0  0  0  0  0  0  0
  144.0670   75.2680  220.1190 C   0  0  0  0  0  0  0  0  0  0  0  0
  143.9460   73.7890  220.1920 C   0  0  0  0  0  0  0  0  0  0  0  0
  144.9450   73.0360  219.6010 C   0  0  0  0  0  0  0  0  0  0  0  0
  144.9380   71.6600  219.6160 C   0  0  0  0  0  0  0  0  0  0  0  0
  143.8850   71.0360  220.2470 C   0  0  0  0  0  0  0  0  0  0  0  0
  142.8610   71.7580  220.8510 C   0  0  0  0  0  0  0  0  0  0  0  0
  142.8760   73.1550  220.8330 C   0  0  0  0  0  0  0  0  0  0  0  0
  139.6900   71.5770  222.8450 C   0  0  0  0  0  0  0  0  0  0  0  0
  139.1960   70.3000  222.7320 C   0  0  0  0  0  0  0  0  0  0  0  0
  139.2670   69.3830  223.7870 C   0  0  0  0  0  0  0  0  0  0  0  0
  139.8610   69.8000  224.9790 C   0  0  0  0  0  0  0  0  0  0  0  0
  139.9820   68.9990  226.0840 C   0  0  0  0  0  0  0  0  0  0  0  0
  140.5710   69.4720  227.2340 C   0  0  0  0  0  0  0  0  0  0  0  0
  140.7410   68.4850  228.6810 Cl  0  0  0  0  0  0  0  0  0  0  0  0
  141.0500   70.7590  227.2970 C   0  0  0  0  0  0  0  0  0  0  0  0
  140.9360   71.5840  226.1860 C   0  0  0  0  0  0  0  0  0  0  0  0
  140.3330   71.0850  225.0230 C   0  0  0  0  0  0  0  0  0  0  0  0
  140.2550   71.9450  224.0010 N   0  0  0  0  0  0  0  0  0  0  0  0
  139.5260   74.1670  223.0990 H   0  0  0  0  0  0  0  0  0  0  0  0
  139.2694   74.6031  220.1527 H   0  0  0  0  0  0  0  0  0  0  0  0
  138.6100   75.6366  221.5569 H   0  0  0  0  0  0  0  0  0  0  0  0
  139.6753   78.6331  220.3133 H   0  0  0  0  0  0  0  0  0  0  0  0
  141.2830   78.8307  221.0361 H   0  0  0  0  0  0  0  0  0  0  0  0
  140.5210   78.8306  218.0306 H   0  0  0  0  0  0  0  0  0  0  0  0
  141.5388   79.9744  218.7852 H   0  0  0  0  0  0  0  0  0  0  0  0
  143.2742   77.9667  219.3741 H   0  0  0  0  0  0  0  0  0  0  0  0
  143.7730   77.2660  217.4780 H   0  0  0  0  0  0  0  0  0  0  0  0
  140.7916   76.5011  218.0609 H   0  0  0  0  0  0  0  0  0  0  0  0
  141.8992   74.6627  219.4963 H   0  0  0  0  0  0  0  0  0  0  0  0
  142.0173   74.9039  217.7397 H   0  0  0  0  0  0  0  0  0  0  0  0
  145.1164   75.5721  220.2465 H   0  0  0  0  0  0  0  0  0  0  0  0
  143.4857   75.7589  220.9134 H   0  0  0  0  0  0  0  0  0  0  0  0
  145.7752   73.5563  219.1009 H   0  0  0  0  0  0  0  0  0  0  0  0
  145.7435   71.0802  219.1417 H   0  0  0  0  0  0  0  0  0  0  0  0
  143.8528   69.9368  220.2741 H   0  0  0  0  0  0  0  0  0  0  0  0
  142.0348   71.2262  221.3456 H   0  0  0  0  0  0  0  0  0  0  0  0
  142.0726   73.7376  221.3074 H   0  0  0  0  0  0  0  0  0  0  0  0
  138.7311   69.9892  221.7847 H   0  0  0  0  0  0  0  0  0  0  0  0
  138.8666   68.3641  223.6798 H   0  0  0  0  0  0  0  0  0  0  0  0
  139.6041   67.9665  226.0514 H   0  0  0  0  0  0  0  0  0  0  0  0
  141.5194   71.1319  228.2193 H   0  0  0  0  0  0  0  0  0  0  0  0
  141.3142   72.6164  226.2180 H   0  0  0  0  0  0  0  0  0  0  0  0
  1  2  2  0
  2  3  1  0
  3  4  1  0
  4  5  1  0
  5  6  2  0
  5  7  1  0
  7  8  1  0
  8  9  1  0
  9 10  1  0
 10 11  1  0
 10 12  1  0
 12 13  1  0
 13 14  1  0
 14 15  1  0
 15 16  1  0
 16 17  2  0
 17 18  1  0
 18 19  2  0
 19 20  1  0
 20 21  2  0
  2 22  1  0
 22 23  2  0
 23 24  1  0
 24 25  2  0
 25 26  1  0
 26 27  2  0
 27 28  1  0
 27 29  1  0
 29 30  2  0
 30 31  1  0
 31 32  2  0
 12  7  1  0
 21 16  1  0
 32 22  1  0
 31 25  1  0
  3 33  1  0
  4 34  1  0
  4 35  1  0
  8 36  1  0
  8 37  1  0
  9 38  1  0
  9 39  1  0
 10 40  1  1
 11 41  1  0
 12 42  1  6
 13 43  1  0
 13 44  1  0
 15 45  1  0
 15 46  1  0
 17 47  1  0
 18 48  1  0
 19 49  1  0
 20 50  1  0
 21 51  1  0
 23 52  1  0
 24 53  1  0
 26 54  1  0
 29 55  1  0
 30 56  1  0
M  END
>  <smiles>  (35) 
O=C(NCC(=O)N1CC[C@H](O)[C@H]1COCc1ccccc1)c1ccc2cc(Cl)ccc2n1

>  <score_type>  (35) 
oracle

>  <origin>  (35) 
autodockgpu

>  <m_score__min__energy>  (35) 
-8.8699999999999992

>  <m_primary>  (35) 
energy

>  <rmsd>  (35) 
2.2816227991011484

>  <m_score__min__rmsd>  (35) 
2.2816227991011484

>  <meeko>  (35) 
{"free_energy": -7.06, "intermolecular_energy": -9.75, "internal_energy": -3.2, "cluster_size": 7, "cluster_id": 5, "rank_in_cluster": 7}

>  <energy>  (35) 
-7.57

>  <cluster_rmsd>  (35) 
1.83

>  <cluster>  (35) 
5

$$$$

     RDKit          3D

 56 59  0  0  0  0  0  0  0  0999 V2000
  139.9540   72.7280  220.7390 O   0  0  0  0  0  0  0  0  0  0  0  0
  139.7390   72.9870  221.9370 C   0  0  0  0  0  0  0  0  0  0  0  0
  139.3970   74.3000  222.3130 N   0  0  0  0  0  0  0  0  0  0  0  0
  139.2580   75.4350  221.4890 C   0  0  0  0  0  0  0  0  0  0  0  0
  140.4240   76.2730  221.2750 C   0  0  0  0  0  0  0  0  0  0  0  0
  140.3260   77.4170  221.9060 O   0  0  0  0  0  0  0  0  0  0  0  0
  141.6090   76.0990  220.5510 N   0  0  0  0  0  0  0  0  0  0  0  0
  142.5130   74.9630  220.4200 C   0  0  0  0  0  0  0  0  0  0  0  0
  143.6970   75.4460  219.5460 C   0  0  0  0  0  0  0  0  0  0  0  0
  142.8570   76.3760  218.6320 C   0  0  2  0  0  0  0  0  0  0  0  0
  143.6390   77.1280  217.7960 O   0  0  0  0  0  0  0  0  0  0  0  0
  142.2350   77.1770  219.7660 C   0  0  1  0  0  0  0  0  0  0  0  0
  141.3660   78.2840  219.3380 C   0  0  0  0  0  0  0  0  0  0  0  0
  142.1900   79.4190  219.1990 O   0  0  0  0  0  0  0  0  0  0  0  0
  141.5550   80.5640  219.6620 C   0  0  0  0  0  0  0  0  0  0  0  0
  141.4170   80.3910  221.1310 C   0  0  0  0  0  0  0  0  0  0  0  0
  142.5670   80.1310  221.8550 C   0  0  0  0  0  0  0  0  0  0  0  0
  142.5560   79.9610  223.2210 C   0  0  0  0  0  0  0  0  0  0  0  0
  141.3420   80.0570  223.8640 C   0  0  0  0  0  0  0  0  0  0  0  0
  140.1650   80.3160  223.1720 C   0  0  0  0  0  0  0  0  0  0  0  0
  140.1840   80.4890  221.7850 C   0  0  0  0  0  0  0  0  0  0  0  0
  139.8340   71.9350  222.9660 C   0  0  0  0  0  0  0  0  0  0  0  0
  139.4180   70.6450  222.7450 C   0  0  0  0  0  0  0  0  0  0  0  0
  139.4940   69.6610  223.7380 C   0  0  0  0  0  0  0  0  0  0  0  0
  140.0120   70.0250  224.9820 C   0  0  0  0  0  0  0  0  0  0  0  0
  140.1310   69.1570  226.0350 C   0  0  0  0  0  0  0  0  0  0  0  0
  140.6430   69.5790  227.2400 C   0  0  0  0  0  0  0  0  0  0  0  0
  140.8060   68.5030  228.6240 Cl  0  0  0  0  0  0  0  0  0  0  0  0
  141.0460   70.8820  227.4120 C   0  0  0  0  0  0  0  0  0  0  0  0
  140.9340   71.7750  226.3550 C   0  0  0  0  0  0  0  0  0  0  0  0
  140.4100   71.3270  225.1340 C   0  0  0  0  0  0  0  0  0  0  0  0
  140.3270   72.2510  224.1690 N   0  0  0  0  0  0  0  0  0  0  0  0
  139.2290   74.4400  223.3630 H   0  0  0  0  0  0  0  0  0  0  0  0
  138.9236   75.0828  220.5020 H   0  0  0  0  0  0  0  0  0  0  0  0
  138.5528   76.0817  222.0317 H   0  0  0  0  0  0  0  0  0  0  0  0
  142.8744   74.6481  221.4100 H   0  0  0  0  0  0  0  0  0  0  0  0
  142.0060   74.1000  219.9636 H   0  0  0  0  0  0  0  0  0  0  0  0
  144.4567   75.9922  220.1244 H   0  0  0  0  0  0  0  0  0  0  0  0
  144.3037   74.6727  219.0522 H   0  0  0  0  0  0  0  0  0  0  0  0
  142.1637   75.9070  217.9183 H   0  0  0  0  0  0  0  0  0  0  0  0
  143.5210   78.0920  218.0760 H   0  0  0  0  0  0  0  0  0  0  0  0
  142.9476   77.7708  220.3572 H   0  0  0  0  0  0  0  0  0  0  0  0
  140.8901   78.0416  218.3764 H   0  0  0  0  0  0  0  0  0  0  0  0
  140.5667   78.4644  220.0718 H   0  0  0  0  0  0  0  0  0  0  0  0
  142.1608   81.4542  219.4374 H   0  0  0  0  0  0  0  0  0  0  0  0
  140.5765   80.7048  219.1795 H   0  0  0  0  0  0  0  0  0  0  0  0
  143.5251   80.0574  221.3195 H   0  0  0  0  0  0  0  0  0  0  0  0
  143.4822   79.7562  223.7780 H   0  0  0  0  0  0  0  0  0  0  0  0
  141.3029   79.9250  224.9554 H   0  0  0  0  0  0  0  0  0  0  0  0
  139.2130   80.3853  223.7188 H   0  0  0  0  0  0  0  0  0  0  0  0
  139.2595   80.6955  221.2258 H   0  0  0  0  0  0  0  0  0  0  0  0
  139.0129   70.3768  221.7581 H   0  0  0  0  0  0  0  0  0  0  0  0
  139.1558   68.6324  223.5438 H   0  0  0  0  0  0  0  0  0  0  0  0
  139.8135   68.1106  225.9157 H   0  0  0  0  0  0  0  0  0  0  0  0
  141.4535   71.2140  228.3783 H   0  0  0  0  0  0  0  0  0  0  0  0
  141.2524   72.8212  226.4739 H   0  0  0  0  0  0  0  0  0  0  0  0
  1  2  2  0
  2  3  1  0
  3  4  1  0
  4  5  1  0
  5  6  2  0
  5  7  1  0
  7  8  1  0
  8  9  1  0
  9 10  1  0
 10 11  1  0
 10 12  1  0
 12 13  1  0
 13 14  1  0
 14 15  1  0
 15 16  1  0
 16 17  2  0
 17 18  1  0
 18 19  2  0
 19 20  1  0
 20 21  2  0
  2 22  1  0
 22 23  2  0
 23 24  1  0
 24 25  2  0
 25 26  1  0
 26 27  2  0
 27 28  1  0
 27 29  1  0
 29 30  2  0
 30 31  1  0
 31 32  2  0
 12  7  1  0
 21 16  1  0
 32 22  1  0
 31 25  1  0
  3 33  1  0
  4 34  1  0
  4 35  1  0
  8 36  1  0
  8 37  1  0
  9 38  1  0
  9 39  1  0
 10 40  1  6
 11 41  1  0
 12 42  1  1
 13 43  1  0
 13 44  1  0
 15 45  1  0
 15 46  1  0
 17 47  1  0
 18 48  1  0
 19 49  1  0
 20 50  1  0
 21 51  1  0
 23 52  1  0
 24 53  1  0
 26 54  1  0
 29 55  1  0
 30 56  1  0
M  END
>  <smiles>  (36) 
O=C(NCC(=O)N1CC[C@H](O)[C@H]1COCc1ccccc1)c1ccc2cc(Cl)ccc2n1

>  <score_type>  (36) 
oracle

>  <origin>  (36) 
autodockgpu

>  <m_score__min__energy>  (36) 
-8.8699999999999992

>  <m_primary>  (36) 
energy

>  <rmsd>  (36) 
2.3432703473998835

>  <m_score__min__rmsd>  (36) 
2.3432703473998835

>  <meeko>  (36) 
{"free_energy": -8.2, "intermolecular_energy": -10.88, "internal_energy": -2.65, "cluster_size": 16, "cluster_id": 2, "rank_in_cluster": 6}

>  <energy>  (36) 
-7.45

>  <cluster_rmsd>  (36) 
0.41

>  <cluster>  (36) 
5

$$$$

     RDKit          3D

 56 59  0  0  0  0  0  0  0  0999 V2000
  140.7010   73.8080  221.9430 O   0  0  0  0  0  0  0  0  0  0  0  0
  140.0310   72.7670  221.8160 C   0  0  0  0  0  0  0  0  0  0  0  0
  139.3230   72.5400  220.6200 N   0  0  0  0  0  0  0  0  0  0  0  0
  139.2500   73.3630  219.4790 C   0  0  0  0  0  0  0  0  0  0  0  0
  138.9720   74.7750  219.6710 C   0  0  0  0  0  0  0  0  0  0  0  0
  138.4030   75.3090  218.6180 O   0  0  0  0  0  0  0  0  0  0  0  0
  139.1780   75.6560  220.7390 N   0  0  0  0  0  0  0  0  0  0  0  0
  138.5360   75.7730  222.0430 C   0  0  0  0  0  0  0  0  0  0  0  0
  139.1580   77.0180  222.7240 C   0  0  0  0  0  0  0  0  0  0  0  0
  140.5820   76.8300  222.1410 C   0  0  2  0  0  0  0  0  0  0  0  0
  141.4030   77.8910  222.4190 O   0  0  0  0  0  0  0  0  0  0  0  0
  140.1400   76.7690  220.6860 C   0  0  1  0  0  0  0  0  0  0  0  0
  141.2360   76.6600  219.7100 C   0  0  0  0  0  0  0  0  0  0  0  0
  142.4340   76.5830  220.4490 O   0  0  0  0  0  0  0  0  0  0  0  0
  143.4940   76.1740  219.6510 C   0  0  0  0  0  0  0  0  0  0  0  0
  143.7810   74.7690  220.0370 C   0  0  0  0  0  0  0  0  0  0  0  0
  145.0340   74.4910  220.5560 C   0  0  0  0  0  0  0  0  0  0  0  0
  145.4030   73.2260  220.9540 C   0  0  0  0  0  0  0  0  0  0  0  0
  144.4740   72.2200  220.8180 C   0  0  0  0  0  0  0  0  0  0  0  0
  143.2050   72.4590  220.3010 C   0  0  0  0  0  0  0  0  0  0  0  0
  142.8370   73.7450  219.9000 C   0  0  0  0  0  0  0  0  0  0  0  0
  139.9720   71.7680  222.9000 C   0  0  0  0  0  0  0  0  0  0  0  0
  139.3650   70.5450  222.7450 C   0  0  0  0  0  0  0  0  0  0  0  0
  139.2980   69.6150  223.7890 C   0  0  0  0  0  0  0  0  0  0  0  0
  139.8730   69.9610  225.0130 C   0  0  0  0  0  0  0  0  0  0  0  0
  139.8660   69.1410  226.1100 C   0  0  0  0  0  0  0  0  0  0  0  0
  140.4420   69.5440  227.2930 C   0  0  0  0  0  0  0  0  0  0  0  0
  140.4500   68.5290  228.7310 Cl  0  0  0  0  0  0  0  0  0  0  0  0
  141.0380   70.7780  227.3960 C   0  0  0  0  0  0  0  0  0  0  0  0
  141.0550   71.6210  226.2940 C   0  0  0  0  0  0  0  0  0  0  0  0
  140.4620   71.1940  225.0980 C   0  0  0  0  0  0  0  0  0  0  0  0
  140.5140   72.0680  224.0850 N   0  0  0  0  0  0  0  0  0  0  0  0
  138.7700   71.6210  220.5910 H   0  0  0  0  0  0  0  0  0  0  0  0
  140.2169   73.2881  218.9599 H   0  0  0  0  0  0  0  0  0  0  0  0
  138.3782   72.9854  218.9245 H   0  0  0  0  0  0  0  0  0  0  0  0
  137.4509   75.9070  221.9226 H   0  0  0  0  0  0  0  0  0  0  0  0
  138.6911   74.8673  222.6476 H   0  0  0  0  0  0  0  0  0  0  0  0
  138.6876   77.9583  222.4007 H   0  0  0  0  0  0  0  0  0  0  0  0
  139.0697   77.0870  223.8183 H   0  0  0  0  0  0  0  0  0  0  0  0
  141.1829   75.9869  222.5126 H   0  0  0  0  0  0  0  0  0  0  0  0
  142.2880   77.6990  221.9710 H   0  0  0  0  0  0  0  0  0  0  0  0
  139.6919   77.6965  220.3000 H   0  0  0  0  0  0  0  0  0  0  0  0
  141.1096   75.7545  219.0984 H   0  0  0  0  0  0  0  0  0  0  0  0
  141.2466   77.5250  219.0305 H   0  0  0  0  0  0  0  0  0  0  0  0
  143.2153   76.2288  218.5883 H   0  0  0  0  0  0  0  0  0  0  0  0
  144.3749   76.8176  219.7916 H   0  0  0  0  0  0  0  0  0  0  0  0
  145.7610   75.3107  220.6539 H   0  0  0  0  0  0  0  0  0  0  0  0
  146.4035   73.0267  221.3655 H   0  0  0  0  0  0  0  0  0  0  0  0
  144.7423   71.1988  221.1266 H   0  0  0  0  0  0  0  0  0  0  0  0
  142.4875   71.6305  220.2075 H   0  0  0  0  0  0  0  0  0  0  0  0
  141.8367   73.9468  219.4894 H   0  0  0  0  0  0  0  0  0  0  0  0
  138.9189   70.2895  221.7725 H   0  0  0  0  0  0  0  0  0  0  0  0
  138.8069   68.6407  223.6491 H   0  0  0  0  0  0  0  0  0  0  0  0
  139.3947   68.1492  226.0447 H   0  0  0  0  0  0  0  0  0  0  0  0
  141.4976   71.0947  228.3439 H   0  0  0  0  0  0  0  0  0  0  0  0
  141.5280   72.6120  226.3583 H   0  0  0  0  0  0  0  0  0  0  0  0
  1  2  2  0
  2  3  1  0
  3  4  1  0
  4  5  1  0
  5  6  2  0
  5  7  1  0
  7  8  1  0
  8  9  1  0
  9 10  1  0
 10 11  1  0
 10 12  1  0
 12 13  1  0
 13 14  1  0
 14 15  1  0
 15 16  1  0
 16 17  2  0
 17 18  1  0
 18 19  2  0
 19 20  1  0
 20 21  2  0
  2 22  1  0
 22 23  2  0
 23 24  1  0
 24 25  2  0
 25 26  1  0
 26 27  2  0
 27 28  1  0
 27 29  1  0
 29 30  2  0
 30 31  1  0
 31 32  2  0
 12  7  1  0
 21 16  1  0
 32 22  1  0
 31 25  1  0
  3 33  1  0
  4 34  1  0
  4 35  1  0
  8 36  1  0
  8 37  1  0
  9 38  1  0
  9 39  1  0
 10 40  1  1
 11 41  1  0
 12 42  1  6
 13 43  1  0
 13 44  1  0
 15 45  1  0
 15 46  1  0
 17 47  1  0
 18 48  1  0
 19 49  1  0
 20 50  1  0
 21 51  1  0
 23 52  1  0
 24 53  1  0
 26 54  1  0
 29 55  1  0
 30 56  1  0
M  END
>  <smiles>  (37) 
O=C(NCC(=O)N1CC[C@H](O)[C@H]1COCc1ccccc1)c1ccc2cc(Cl)ccc2n1

>  <score_type>  (37) 
oracle

>  <origin>  (37) 
autodockgpu

>  <m_score__min__energy>  (37) 
-8.8699999999999992

>  <m_primary>  (37) 
energy

>  <rmsd>  (37) 
2.9900651884929235

>  <m_score__min__rmsd>  (37) 
2.9900651884929235

>  <meeko>  (37) 
{"free_energy": -7.79, "intermolecular_energy": -10.47, "internal_energy": -2.86, "cluster_size": 7, "cluster_id": 5, "rank_in_cluster": 2}

>  <energy>  (37) 
-7.24

>  <cluster_rmsd>  (37) 
1.62

>  <cluster>  (37) 
5

$$$$

     RDKit          3D

 56 59  0  0  0  0  0  0  0  0999 V2000
  138.1220   72.2530  221.1880 O   0  0  0  0  0  0  0  0  0  0  0  0
  139.1900   72.1720  221.8210 C   0  0  0  0  0  0  0  0  0  0  0  0
  140.2690   73.0090  221.4750 N   0  0  0  0  0  0  0  0  0  0  0  0
  140.3260   73.9800  220.4560 C   0  0  0  0  0  0  0  0  0  0  0  0
  141.5190   74.8020  220.3600 C   0  0  0  0  0  0  0  0  0  0  0  0
  142.5530   74.2300  220.9270 O   0  0  0  0  0  0  0  0  0  0  0  0
  141.7790   76.0520  219.7860 N   0  0  0  0  0  0  0  0  0  0  0  0
  142.6690   76.4620  218.7070 C   0  0  0  0  0  0  0  0  0  0  0  0
  142.5630   78.0050  218.6180 C   0  0  0  0  0  0  0  0  0  0  0  0
  141.0580   78.0870  218.9790 C   0  0  2  0  0  0  0  0  0  0  0  0
  140.6350   79.3780  219.1580 O   0  0  0  0  0  0  0  0  0  0  0  0
  141.1720   77.3010  220.2760 C   0  0  1  0  0  0  0  0  0  0  0  0
  139.9210   77.1810  221.0410 C   0  0  0  0  0  0  0  0  0  0  0  0
  139.4920   78.4940  221.3280 O   0  0  0  0  0  0  0  0  0  0  0  0
  139.4760   78.7320  222.6960 C   0  0  0  0  0  0  0  0  0  0  0  0
  140.7240   79.4820  222.9960 C   0  0  0  0  0  0  0  0  0  0  0  0
  140.5930   80.7540  223.5270 C   0  0  0  0  0  0  0  0  0  0  0  0
  141.6810   81.5330  223.8490 C   0  0  0  0  0  0  0  0  0  0  0  0
  142.9310   81.0040  223.6240 C   0  0  0  0  0  0  0  0  0  0  0  0
  143.1040   79.7310  223.0930 C   0  0  0  0  0  0  0  0  0  0  0  0
  141.9950   78.9450  222.7680 C   0  0  0  0  0  0  0  0  0  0  0  0
  139.3390   71.2120  222.9320 C   0  0  0  0  0  0  0  0  0  0  0  0
  138.7690   69.9630  222.9110 C   0  0  0  0  0  0  0  0  0  0  0  0
  138.9010   69.0710  223.9810 C   0  0  0  0  0  0  0  0  0  0  0  0
  139.6370   69.4840  225.0920 C   0  0  0  0  0  0  0  0  0  0  0  0
  139.8310   68.7060  226.2030 C   0  0  0  0  0  0  0  0  0  0  0  0
  140.5610   69.1750  227.2710 C   0  0  0  0  0  0  0  0  0  0  0  0
  140.8290   68.2160  228.7230 Cl  0  0  0  0  0  0  0  0  0  0  0  0
  141.1120   70.4340  227.2440 C   0  0  0  0  0  0  0  0  0  0  0  0
  140.9260   71.2350  226.1260 C   0  0  0  0  0  0  0  0  0  0  0  0
  140.1790   70.7410  225.0470 C   0  0  0  0  0  0  0  0  0  0  0  0
  140.0400   71.5780  224.0120 N   0  0  0  0  0  0  0  0  0  0  0  0
  141.1520   72.8750  222.0690 H   0  0  0  0  0  0  0  0  0  0  0  0
  140.2142   73.4535  219.4967 H   0  0  0  0  0  0  0  0  0  0  0  0
  139.5246   74.6897  220.7094 H   0  0  0  0  0  0  0  0  0  0  0  0
  143.7035   76.1637  218.9325 H   0  0  0  0  0  0  0  0  0  0  0  0
  142.3888   75.9866  217.7554 H   0  0  0  0  0  0  0  0  0  0  0  0
  143.2039   78.5176  219.3504 H   0  0  0  0  0  0  0  0  0  0  0  0
  142.8785   78.4754  217.6751 H   0  0  0  0  0  0  0  0  0  0  0  0
  140.3313   77.7199  218.2393 H   0  0  0  0  0  0  0  0  0  0  0  0
  140.1000   79.3930  220.0160 H   0  0  0  0  0  0  0  0  0  0  0  0
  141.7747   77.7861  221.0579 H   0  0  0  0  0  0  0  0  0  0  0  0
  139.1607   76.6561  220.4440 H   0  0  0  0  0  0  0  0  0  0  0  0
  140.0769   76.6055  221.9654 H   0  0  0  0  0  0  0  0  0  0  0  0
  138.5949   79.3311  222.9694 H   0  0  0  0  0  0  0  0  0  0  0  0
  139.4225   77.7937  223.2676 H   0  0  0  0  0  0  0  0  0  0  0  0
  139.5835   81.1562  223.6975 H   0  0  0  0  0  0  0  0  0  0  0  0
  141.5558   82.5412  224.2706 H   0  0  0  0  0  0  0  0  0  0  0  0
  143.8184   81.6052  223.8712 H   0  0  0  0  0  0  0  0  0  0  0  0
  144.1189   79.3403  222.9278 H   0  0  0  0  0  0  0  0  0  0  0  0
  142.1179   77.9364  222.3464 H   0  0  0  0  0  0  0  0  0  0  0  0
  138.1916   69.6545  222.0270 H   0  0  0  0  0  0  0  0  0  0  0  0
  138.4382   68.0737  223.9472 H   0  0  0  0  0  0  0  0  0  0  0  0
  139.3984   67.6954  226.2416 H   0  0  0  0  0  0  0  0  0  0  0  0
  141.6950   70.8032  228.1006 H   0  0  0  0  0  0  0  0  0  0  0  0
  141.3594   72.2453  226.0868 H   0  0  0  0  0  0  0  0  0  0  0  0
  1  2  2  0
  2  3  1  0
  3  4  1  0
  4  5  1  0
  5  6  2  0
  5  7  1  0
  7  8  1  0
  8  9  1  0
  9 10  1  0
 10 11  1  0
 10 12  1  0
 12 13  1  0
 13 14  1  0
 14 15  1  0
 15 16  1  0
 16 17  2  0
 17 18  1  0
 18 19  2  0
 19 20  1  0
 20 21  2  0
  2 22  1  0
 22 23  2  0
 23 24  1  0
 24 25  2  0
 25 26  1  0
 26 27  2  0
 27 28  1  0
 27 29  1  0
 29 30  2  0
 30 31  1  0
 31 32  2  0
 12  7  1  0
 21 16  1  0
 32 22  1  0
 31 25  1  0
  3 33  1  0
  4 34  1  0
  4 35  1  0
  8 36  1  0
  8 37  1  0
  9 38  1  0
  9 39  1  0
 10 40  1  6
 11 41  1  0
 12 42  1  1
 13 43  1  0
 13 44  1  0
 15 45  1  0
 15 46  1  0
 17 47  1  0
 18 48  1  0
 19 49  1  0
 20 50  1  0
 21 51  1  0
 23 52  1  0
 24 53  1  0
 26 54  1  0
 29 55  1  0
 30 56  1  0
M  END
>  <smiles>  (38) 
O=C(NCC(=O)N1CC[C@H](O)[C@H]1COCc1ccccc1)c1ccc2cc(Cl)ccc2n1

>  <score_type>  (38) 
oracle

>  <origin>  (38) 
autodockgpu

>  <m_score__min__energy>  (38) 
-8.8699999999999992

>  <m_primary>  (38) 
energy

>  <rmsd>  (38) 
2.5721751480043

>  <m_score__min__rmsd>  (38) 
2.5721751480043

>  <meeko>  (38) 
{"free_energy": -7.3, "intermolecular_energy": -9.99, "internal_energy": -2.75, "cluster_size": 16, "cluster_id": 2, "rank_in_cluster": 16}

>  <energy>  (38) 
-7.06

>  <cluster_rmsd>  (38) 
1.68

>  <cluster>  (38) 
5

$$$$

     RDKit          3D

 56 59  0  0  0  0  0  0  0  0999 V2000
  138.6230   71.3740  220.6730 O   0  0  0  0  0  0  0  0  0  0  0  0
  138.8440   71.8110  221.8170 C   0  0  0  0  0  0  0  0  0  0  0  0
  138.8030   73.2000  222.0490 N   0  0  0  0  0  0  0  0  0  0  0  0
  138.5380   74.2310  221.1270 C   0  0  0  0  0  0  0  0  0  0  0  0
  139.5510   74.5370  220.1330 C   0  0  0  0  0  0  0  0  0  0  0  0
  139.0340   74.6880  218.9380 O   0  0  0  0  0  0  0  0  0  0  0  0
  140.9390   74.7090  220.2010 N   0  0  0  0  0  0  0  0  0  0  0  0
  142.0290   73.7590  220.3900 C   0  0  0  0  0  0  0  0  0  0  0  0
  143.3290   74.5990  220.4670 C   0  0  0  0  0  0  0  0  0  0  0  0
  142.8890   75.6760  219.4410 C   0  0  2  0  0  0  0  0  0  0  0  0
  143.7730   76.7190  219.3700 O   0  0  0  0  0  0  0  0  0  0  0  0
  141.5870   76.0290  220.1450 C   0  0  1  0  0  0  0  0  0  0  0  0
  140.8250   77.1230  219.5250 C   0  0  0  0  0  0  0  0  0  0  0  0
  140.9090   78.2260  220.4000 O   0  0  0  0  0  0  0  0  0  0  0  0
  141.5800   77.8920  221.5690 C   0  0  0  0  0  0  0  0  0  0  0  0
  141.8200   79.1720  222.2840 C   0  0  0  0  0  0  0  0  0  0  0  0
  141.5960   80.3460  221.5860 C   0  0  0  0  0  0  0  0  0  0  0  0
  141.7790   81.5870  222.1530 C   0  0  0  0  0  0  0  0  0  0  0  0
  142.2010   81.6330  223.4620 C   0  0  0  0  0  0  0  0  0  0  0  0
  142.4380   80.4760  224.1970 C   0  0  0  0  0  0  0  0  0  0  0  0
  142.2490   79.2190  223.6150 C   0  0  0  0  0  0  0  0  0  0  0  0
  139.1440   70.8930  222.9320 C   0  0  0  0  0  0  0  0  0  0  0  0
  138.7640   69.5730  222.9260 C   0  0  0  0  0  0  0  0  0  0  0  0
  139.0360   68.7190  224.0000 C   0  0  0  0  0  0  0  0  0  0  0  0
  139.7170   69.2460  225.0990 C   0  0  0  0  0  0  0  0  0  0  0  0
  140.0350   68.5140  226.2130 C   0  0  0  0  0  0  0  0  0  0  0  0
  140.7000   69.0930  227.2690 C   0  0  0  0  0  0  0  0  0  0  0  0
  141.1220   68.1960  228.7240 Cl  0  0  0  0  0  0  0  0  0  0  0  0
  141.0590   70.4190  227.2270 C   0  0  0  0  0  0  0  0  0  0  0  0
  140.7460   71.1750  226.1060 C   0  0  0  0  0  0  0  0  0  0  0  0
  140.0670   70.5680  225.0400 C   0  0  0  0  0  0  0  0  0  0  0  0
  139.7960   71.3660  224.0010 N   0  0  0  0  0  0  0  0  0  0  0  0
  139.0050   73.4940  223.0610 H   0  0  0  0  0  0  0  0  0  0  0  0
  137.6210   73.9566  220.5850 H   0  0  0  0  0  0  0  0  0  0  0  0
  138.4764   75.1400  221.7434 H   0  0  0  0  0  0  0  0  0  0  0  0
  141.8846   73.1942  221.3228 H   0  0  0  0  0  0  0  0  0  0  0  0
  142.0718   73.0304  219.5670 H   0  0  0  0  0  0  0  0  0  0  0  0
  143.5070   75.0151  221.4696 H   0  0  0  0  0  0  0  0  0  0  0  0
  144.2763   74.0759  220.2695 H   0  0  0  0  0  0  0  0  0  0  0  0
  142.8164   75.3807  218.3839 H   0  0  0  0  0  0  0  0  0  0  0  0
  143.3360   77.5030  219.8340 H   0  0  0  0  0  0  0  0  0  0  0  0
  141.7081   76.4817  221.1402 H   0  0  0  0  0  0  0  0  0  0  0  0
  141.2597   77.3809  218.5480 H   0  0  0  0  0  0  0  0  0  0  0  0
  139.7778   76.8298  219.3594 H   0  0  0  0  0  0  0  0  0  0  0  0
  140.9639   77.2201  222.1846 H   0  0  0  0  0  0  0  0  0  0  0  0
  142.5228   77.3667  221.3561 H   0  0  0  0  0  0  0  0  0  0  0  0
  141.2596   80.2852  220.5405 H   0  0  0  0  0  0  0  0  0  0  0  0
  141.5947   82.5081  221.5807 H   0  0  0  0  0  0  0  0  0  0  0  0
  142.3551   82.6115  223.9403 H   0  0  0  0  0  0  0  0  0  0  0  0
  142.7758   80.5505  225.2412 H   0  0  0  0  0  0  0  0  0  0  0  0
  142.4317   78.2963  224.1853 H   0  0  0  0  0  0  0  0  0  0  0  0
  138.2298   69.1756  222.0504 H   0  0  0  0  0  0  0  0  0  0  0  0
  138.7230   67.6647  223.9793 H   0  0  0  0  0  0  0  0  0  0  0  0
  139.7554   67.4513  226.2634 H   0  0  0  0  0  0  0  0  0  0  0  0
  141.5898   70.8771  228.0746 H   0  0  0  0  0  0  0  0  0  0  0  0
  141.0271   72.2372  226.0545 H   0  0  0  0  0  0  0  0  0  0  0  0
  1  2  2  0
  2  3  1  0
  3  4  1  0
  4  5  1  0
  5  6  2  0
  5  7  1  0
  7  8  1  0
  8  9  1  0
  9 10  1  0
 10 11  1  0
 10 12  1  0
 12 13  1  0
 13 14  1  0
 14 15  1  0
 15 16  1  0
 16 17  2  0
 17 18  1  0
 18 19  2  0
 19 20  1  0
 20 21  2  0
  2 22  1  0
 22 23  2  0
 23 24  1  0
 24 25  2  0
 25 26  1  0
 26 27  2  0
 27 28  1  0
 27 29  1  0
 29 30  2  0
 30 31  1  0
 31 32  2  0
 12  7  1  0
 21 16  1  0
 32 22  1  0
 31 25  1  0
  3 33  1  0
  4 34  1  0
  4 35  1  0
  8 36  1  0
  8 37  1  0
  9 38  1  0
  9 39  1  0
 10 40  1  6
 11 41  1  0
 12 42  1  1
 13 43  1  0
 13 44  1  0
 15 45  1  0
 15 46  1  0
 17 47  1  0
 18 48  1  0
 19 49  1  0
 20 50  1  0
 21 51  1  0
 23 52  1  0
 24 53  1  0
 26 54  1  0
 29 55  1  0
 30 56  1  0
M  END
>  <smiles>  (39) 
O=C(NCC(=O)N1CC[C@H](O)[C@H]1COCc1ccccc1)c1ccc2cc(Cl)ccc2n1

>  <score_type>  (39) 
oracle

>  <origin>  (39) 
autodockgpu

>  <m_score__min__energy>  (39) 
-8.8699999999999992

>  <m_primary>  (39) 
energy

>  <rmsd>  (39) 
2.2278455049618624

>  <m_score__min__rmsd>  (39) 
2.2278455049618624

>  <meeko>  (39) 
{"free_energy": -8.18, "intermolecular_energy": -10.86, "internal_energy": -1.99, "cluster_size": 16, "cluster_id": 2, "rank_in_cluster": 7}

>  <energy>  (39) 
-7.8

>  <cluster_rmsd>  (39) 
0.0

>  <cluster>  (39) 
6

$$$$

     RDKit          3D

 56 59  0  0  0  0  0  0  0  0999 V2000
  138.3280   71.2200  220.8040 O   0  0  0  0  0  0  0  0  0  0  0  0
  138.6270   71.6720  221.9250 C   0  0  0  0  0  0  0  0  0  0  0  0
  138.6460   73.0660  222.1290 N   0  0  0  0  0  0  0  0  0  0  0  0
  138.3650   74.0870  221.1990 C   0  0  0  0  0  0  0  0  0  0  0  0
  138.6570   75.4570  221.5790 C   0  0  0  0  0  0  0  0  0  0  0  0
  137.7490   75.9430  222.3910 O   0  0  0  0  0  0  0  0  0  0  0  0
  139.6970   76.3390  221.2640 N   0  0  0  0  0  0  0  0  0  0  0  0
  141.0770   76.1100  220.8540 C   0  0  0  0  0  0  0  0  0  0  0  0
  141.7390   77.5080  220.7520 C   0  0  0  0  0  0  0  0  0  0  0  0
  140.4780   78.2480  220.2330 C   0  0  2  0  0  0  0  0  0  0  0  0
  140.6580   79.6040  220.1770 O   0  0  0  0  0  0  0  0  0  0  0  0
  139.5670   77.8020  221.3670 C   0  0  1  0  0  0  0  0  0  0  0  0
  138.2060   78.3580  221.3220 C   0  0  0  0  0  0  0  0  0  0  0  0
  138.2800   79.6620  221.8520 O   0  0  0  0  0  0  0  0  0  0  0  0
  138.5860   79.6400  223.2070 C   0  0  0  0  0  0  0  0  0  0  0  0
  140.0070   80.0600  223.3140 C   0  0  0  0  0  0  0  0  0  0  0  0
  140.9010   79.1570  223.8620 C   0  0  0  0  0  0  0  0  0  0  0  0
  142.2410   79.4390  224.0020 C   0  0  0  0  0  0  0  0  0  0  0  0
  142.6800   80.6710  223.5730 C   0  0  0  0  0  0  0  0  0  0  0  0
  141.8130   81.6050  223.0170 C   0  0  0  0  0  0  0  0  0  0  0  0
  140.4540   81.3120  222.8770 C   0  0  0  0  0  0  0  0  0  0  0  0
  138.9580   70.7670  223.0420 C   0  0  0  0  0  0  0  0  0  0  0  0
  138.6050   69.4400  223.0460 C   0  0  0  0  0  0  0  0  0  0  0  0
  138.9070   68.5970  224.1220 C   0  0  0  0  0  0  0  0  0  0  0  0
  139.5860   69.1440  225.2120 C   0  0  0  0  0  0  0  0  0  0  0  0
  139.9310   68.4250  226.3260 C   0  0  0  0  0  0  0  0  0  0  0  0
  140.5940   69.0240  227.3730 C   0  0  0  0  0  0  0  0  0  0  0  0
  141.0480   68.1440  228.8280 Cl  0  0  0  0  0  0  0  0  0  0  0  0
  140.9240   70.3570  227.3200 C   0  0  0  0  0  0  0  0  0  0  0  0
  140.5840   71.1000  226.1980 C   0  0  0  0  0  0  0  0  0  0  0  0
  139.9080   70.4730  225.1420 C   0  0  0  0  0  0  0  0  0  0  0  0
  139.6100   71.2600  224.1010 N   0  0  0  0  0  0  0  0  0  0  0  0
  138.9150   73.3730  223.1210 H   0  0  0  0  0  0  0  0  0  0  0  0
  138.9450   73.8695  220.2900 H   0  0  0  0  0  0  0  0  0  0  0  0
  137.2711   74.0614  221.0867 H   0  0  0  0  0  0  0  0  0  0  0  0
  141.5993   75.4950  221.6017 H   0  0  0  0  0  0  0  0  0  0  0  0
  141.1250   75.5742  219.8945 H   0  0  0  0  0  0  0  0  0  0  0  0
  142.0834   77.8870  221.7255 H   0  0  0  0  0  0  0  0  0  0  0  0
  142.6526   77.5872  220.1444 H   0  0  0  0  0  0  0  0  0  0  0  0
  140.1377   78.0310  219.2097 H   0  0  0  0  0  0  0  0  0  0  0  0
  139.8710   80.0220  220.6530 H   0  0  0  0  0  0  0  0  0  0  0  0
  139.8469   78.1810  222.3610 H   0  0  0  0  0  0  0  0  0  0  0  0
  137.8449   78.3915  220.2835 H   0  0  0  0  0  0  0  0  0  0  0  0
  137.5068   77.7364  221.9006 H   0  0  0  0  0  0  0  0  0  0  0  0
  137.9386   80.3394  223.7562 H   0  0  0  0  0  0  0  0  0  0  0  0
  138.4281   78.6408  223.6390 H   0  0  0  0  0  0  0  0  0  0  0  0
  140.5273   78.1785  224.1979 H   0  0  0  0  0  0  0  0  0  0  0  0
  142.9352   78.7070  224.4404 H   0  0  0  0  0  0  0  0  0  0  0  0
  143.7459   80.9236  223.6728 H   0  0  0  0  0  0  0  0  0  0  0  0
  142.1992   82.5802  222.6854 H   0  0  0  0  0  0  0  0  0  0  0  0
  139.7581   82.0418  222.4375 H   0  0  0  0  0  0  0  0  0  0  0  0
  138.0693   69.0274  222.1784 H   0  0  0  0  0  0  0  0  0  0  0  0
  138.6180   67.5357  224.1089 H   0  0  0  0  0  0  0  0  0  0  0  0
  139.6752   67.3567  226.3844 H   0  0  0  0  0  0  0  0  0  0  0  0
  141.4532   70.8312  228.1597 H   0  0  0  0  0  0  0  0  0  0  0  0
  140.8418   72.1677  226.1381 H   0  0  0  0  0  0  0  0  0  0  0  0
  1  2  2  0
  2  3  1  0
  3  4  1  0
  4  5  1  0
  5  6  2  0
  5  7  1  0
  7  8  1  0
  8  9  1  0
  9 10  1  0
 10 11  1  0
 10 12  1  0
 12 13  1  0
 13 14  1  0
 14 15  1  0
 15 16  1  0
 16 17  2  0
 17 18  1  0
 18 19  2  0
 19 20  1  0
 20 21  2  0
  2 22  1  0
 22 23  2  0
 23 24  1  0
 24 25  2  0
 25 26  1  0
 26 27  2  0
 27 28  1  0
 27 29  1  0
 29 30  2  0
 30 31  1  0
 31 32  2  0
 12  7  1  0
 21 16  1  0
 32 22  1  0
 31 25  1  0
  3 33  1  0
  4 34  1  0
  4 35  1  0
  8 36  1  0
  8 37  1  0
  9 38  1  0
  9 39  1  0
 10 40  1  6
 11 41  1  0
 12 42  1  1
 13 43  1  0
 13 44  1  0
 15 45  1  0
 15 46  1  0
 17 47  1  0
 18 48  1  0
 19 49  1  0
 20 50  1  0
 21 51  1  0
 23 52  1  0
 24 53  1  0
 26 54  1  0
 29 55  1  0
 30 56  1  0
M  END
>  <smiles>  (40) 
O=C(NCC(=O)N1CC[C@H](O)[C@H]1COCc1ccccc1)c1ccc2cc(Cl)ccc2n1

>  <score_type>  (40) 
oracle

>  <origin>  (40) 
autodockgpu

>  <m_score__min__energy>  (40) 
-8.8699999999999992

>  <m_primary>  (40) 
energy

>  <rmsd>  (40) 
2.7376113168621266

>  <m_score__min__rmsd>  (40) 
2.7376113168621266

>  <meeko>  (40) 
{"free_energy": -7.62, "intermolecular_energy": -10.3, "internal_energy": -2.55, "cluster_size": 5, "cluster_id": 7, "rank_in_cluster": 1}

>  <energy>  (40) 
-7.08

>  <cluster_rmsd>  (40) 
1.85

>  <cluster>  (40) 
6

$$$$

     RDKit          3D

 56 59  0  0  0  0  0  0  0  0999 V2000
  140.7050   72.8350  220.9390 O   0  0  0  0  0  0  0  0  0  0  0  0
  140.0120   72.9510  221.9670 C   0  0  0  0  0  0  0  0  0  0  0  0
  139.2040   74.0920  222.1340 N   0  0  0  0  0  0  0  0  0  0  0  0
  139.0560   75.1910  221.2640 C   0  0  0  0  0  0  0  0  0  0  0  0
  138.0770   76.2070  221.6050 C   0  0  0  0  0  0  0  0  0  0  0  0
  137.8160   76.2220  222.8890 O   0  0  0  0  0  0  0  0  0  0  0  0
  137.3800   77.1590  220.8510 N   0  0  0  0  0  0  0  0  0  0  0  0
  135.9860   77.2390  220.4330 C   0  0  0  0  0  0  0  0  0  0  0  0
  135.8730   78.4960  219.5350 C   0  0  0  0  0  0  0  0  0  0  0  0
  136.9040   79.3500  220.3170 C   0  0  2  0  0  0  0  0  0  0  0  0
  137.1900   80.5300  219.6830 O   0  0  0  0  0  0  0  0  0  0  0  0
  138.0300   78.3300  220.2410 C   0  0  1  0  0  0  0  0  0  0  0  0
  139.3050   78.7710  220.8290 C   0  0  0  0  0  0  0  0  0  0  0  0
  139.8340   79.7520  219.9660 O   0  0  0  0  0  0  0  0  0  0  0  0
  141.2230   79.7110  219.9470 C   0  0  0  0  0  0  0  0  0  0  0  0
  141.6610   80.0040  221.3360 C   0  0  0  0  0  0  0  0  0  0  0  0
  141.4950   81.2980  221.7990 C   0  0  0  0  0  0  0  0  0  0  0  0
  141.8580   81.6780  223.0710 C   0  0  0  0  0  0  0  0  0  0  0  0
  142.4060   80.7170  223.8900 C   0  0  0  0  0  0  0  0  0  0  0  0
  142.5890   79.4070  223.4610 C   0  0  0  0  0  0  0  0  0  0  0  0
  142.2170   79.0280  222.1690 C   0  0  0  0  0  0  0  0  0  0  0  0
  140.0240   71.9070  223.0090 C   0  0  0  0  0  0  0  0  0  0  0  0
  139.5430   70.6390  222.7900 C   0  0  0  0  0  0  0  0  0  0  0  0
  139.5410   69.6640  223.7950 C   0  0  0  0  0  0  0  0  0  0  0  0
  140.0480   70.0140  225.0470 C   0  0  0  0  0  0  0  0  0  0  0  0
  140.0940   69.1520  226.1110 C   0  0  0  0  0  0  0  0  0  0  0  0
  140.5980   69.5590  227.3250 C   0  0  0  0  0  0  0  0  0  0  0  0
  140.6680   68.4910  228.7230 Cl  0  0  0  0  0  0  0  0  0  0  0  0
  141.0680   70.8390  227.4930 C   0  0  0  0  0  0  0  0  0  0  0  0
  141.0310   71.7250  226.4250 C   0  0  0  0  0  0  0  0  0  0  0  0
  140.5130   71.2930  225.1960 C   0  0  0  0  0  0  0  0  0  0  0  0
  140.5050   72.2090  224.2200 N   0  0  0  0  0  0  0  0  0  0  0  0
  138.6400   74.1160  223.0460 H   0  0  0  0  0  0  0  0  0  0  0  0
  140.0344   75.6894  221.1983 H   0  0  0  0  0  0  0  0  0  0  0  0
  138.6786   74.7507  220.3293 H   0  0  0  0  0  0  0  0  0  0  0  0
  135.7062   76.3391  219.8656 H   0  0  0  0  0  0  0  0  0  0  0  0
  135.3118   77.3048  221.2997 H   0  0  0  0  0  0  0  0  0  0  0  0
  136.1806   78.3048  218.4963 H   0  0  0  0  0  0  0  0  0  0  0  0
  134.8693   78.9245  219.3970 H   0  0  0  0  0  0  0  0  0  0  0  0
  136.6240   79.7048  221.3199 H   0  0  0  0  0  0  0  0  0  0  0  0
  138.1960   80.5750  219.5920 H   0  0  0  0  0  0  0  0  0  0  0  0
  138.4007   78.1250  219.2258 H   0  0  0  0  0  0  0  0  0  0  0  0
  139.1335   79.1982  221.8280 H   0  0  0  0  0  0  0  0  0  0  0  0
  140.0011   77.9266  220.9404 H   0  0  0  0  0  0  0  0  0  0  0  0
  141.5717   78.7143  219.6386 H   0  0  0  0  0  0  0  0  0  0  0  0
  141.6375   80.4373  219.2324 H   0  0  0  0  0  0  0  0  0  0  0  0
  141.0571   82.0497  221.1259 H   0  0  0  0  0  0  0  0  0  0  0  0
  141.7155   82.7113  223.4202 H   0  0  0  0  0  0  0  0  0  0  0  0
  142.7073   80.9927  224.9114 H   0  0  0  0  0  0  0  0  0  0  0  0
  143.0293   78.6648  224.1431 H   0  0  0  0  0  0  0  0  0  0  0  0
  142.3569   77.9949  221.8181 H   0  0  0  0  0  0  0  0  0  0  0  0
  139.1479   70.3821  221.7961 H   0  0  0  0  0  0  0  0  0  0  0  0
  139.1517   68.6532  223.6034 H   0  0  0  0  0  0  0  0  0  0  0  0
  139.7238   68.1229  225.9934 H   0  0  0  0  0  0  0  0  0  0  0  0
  141.4702   71.1590  228.4655 H   0  0  0  0  0  0  0  0  0  0  0  0
  141.4036   72.7534  226.5416 H   0  0  0  0  0  0  0  0  0  0  0  0
  1  2  2  0
  2  3  1  0
  3  4  1  0
  4  5  1  0
  5  6  2  0
  5  7  1  0
  7  8  1  0
  8  9  1  0
  9 10  1  0
 10 11  1  0
 10 12  1  0
 12 13  1  0
 13 14  1  0
 14 15  1  0
 15 16  1  0
 16 17  2  0
 17 18  1  0
 18 19  2  0
 19 20  1  0
 20 21  2  0
  2 22  1  0
 22 23  2  0
 23 24  1  0
 24 25  2  0
 25 26  1  0
 26 27  2  0
 27 28  1  0
 27 29  1  0
 29 30  2  0
 30 31  1  0
 31 32  2  0
 12  7  1  0
 21 16  1  0
 32 22  1  0
 31 25  1  0
  3 33  1  0
  4 34  1  0
  4 35  1  0
  8 36  1  0
  8 37  1  0
  9 38  1  0
  9 39  1  0
 10 40  1  1
 11 41  1  0
 12 42  1  6
 13 43  1  0
 13 44  1  0
 15 45  1  0
 15 46  1  0
 17 47  1  0
 18 48  1  0
 19 49  1  0
 20 50  1  0
 21 51  1  0
 23 52  1  0
 24 53  1  0
 26 54  1  0
 29 55  1  0
 30 56  1  0
M  END
>  <smiles>  (41) 
O=C(NCC(=O)N1CC[C@H](O)[C@H]1COCc1ccccc1)c1ccc2cc(Cl)ccc2n1

>  <score_type>  (41) 
oracle

>  <origin>  (41) 
autodockgpu

>  <m_score__min__energy>  (41) 
-8.8699999999999992

>  <m_primary>  (41) 
energy

>  <rmsd>  (41) 
3.3073587590420717

>  <m_score__min__rmsd>  (41) 
3.3073587590420717

>  <meeko>  (41) 
{"free_energy": -7.23, "intermolecular_energy": -9.91, "internal_energy": -2.47, "cluster_size": 5, "cluster_id": 7, "rank_in_cluster": 5}

>  <energy>  (41) 
-7.62

>  <cluster_rmsd>  (41) 
0.0

>  <cluster>  (41) 
7

$$$$

     RDKit          3D

 56 59  0  0  0  0  0  0  0  0999 V2000
  141.5580   74.1410  220.7210 O   0  0  0  0  0  0  0  0  0  0  0  0
  140.7060   74.2780  221.6180 C   0  0  0  0  0  0  0  0  0  0  0  0
  140.2230   73.1420  222.2950 N   0  0  0  0  0  0  0  0  0  0  0  0
  140.5760   71.7930  222.0960 C   0  0  0  0  0  0  0  0  0  0  0  0
  139.5990   70.7730  222.4330 C   0  0  0  0  0  0  0  0  0  0  0  0
  139.9490   69.5930  221.9830 O   0  0  0  0  0  0  0  0  0  0  0  0
  138.3880   70.8000  223.1350 N   0  0  0  0  0  0  0  0  0  0  0  0
  137.2570   71.7180  223.0910 C   0  0  0  0  0  0  0  0  0  0  0  0
  136.2700   71.2470  224.1880 C   0  0  0  0  0  0  0  0  0  0  0  0
  136.5450   69.7310  224.0160 C   0  0  2  0  0  0  0  0  0  0  0  0
  135.9310   68.9770  224.9810 O   0  0  0  0  0  0  0  0  0  0  0  0
  138.0530   69.8320  224.1930 C   0  0  1  0  0  0  0  0  0  0  0  0
  138.7670   68.5460  224.1740 C   0  0  0  0  0  0  0  0  0  0  0  0
  138.7800   68.0680  225.5000 O   0  0  0  0  0  0  0  0  0  0  0  0
  140.0710   68.0390  226.0140 C   0  0  0  0  0  0  0  0  0  0  0  0
  140.3430   69.4120  226.5140 C   0  0  0  0  0  0  0  0  0  0  0  0
  139.8310   69.7540  227.7530 C   0  0  0  0  0  0  0  0  0  0  0  0
  140.0290   70.9940  228.3150 C   0  0  0  0  0  0  0  0  0  0  0  0
  140.7660   71.9080  227.5970 C   0  0  0  0  0  0  0  0  0  0  0  0
  141.2970   71.6020  226.3490 C   0  0  0  0  0  0  0  0  0  0  0  0
  141.0930   70.3410  225.7850 C   0  0  0  0  0  0  0  0  0  0  0  0
  140.2000   75.6150  221.9820 C   0  0  0  0  0  0  0  0  0  0  0  0
  141.0280   76.6990  222.1470 C   0  0  0  0  0  0  0  0  0  0  0  0
  140.5360   77.9570  222.5150 C   0  0  0  0  0  0  0  0  0  0  0  0
  139.1610   78.0900  222.7130 C   0  0  0  0  0  0  0  0  0  0  0  0
  138.5610   79.2660  223.0800 C   0  0  0  0  0  0  0  0  0  0  0  0
  137.2000   79.3320  223.2690 C   0  0  0  0  0  0  0  0  0  0  0  0
  136.3850   80.8160  223.7500 Cl  0  0  0  0  0  0  0  0  0  0  0  0
  136.4140   78.2180  223.0910 C   0  0  0  0  0  0  0  0  0  0  0  0
  137.0050   77.0190  222.7170 C   0  0  0  0  0  0  0  0  0  0  0  0
  138.3940   76.9710  222.5300 C   0  0  0  0  0  0  0  0  0  0  0  0
  138.8870   75.7770  222.1790 N   0  0  0  0  0  0  0  0  0  0  0  0
  139.4910   73.3460  223.0530 H   0  0  0  0  0  0  0  0  0  0  0  0
  140.8189   71.6729  221.0299 H   0  0  0  0  0  0  0  0  0  0  0  0
  141.4046   71.6207  222.7987 H   0  0  0  0  0  0  0  0  0  0  0  0
  137.5924   72.7453  223.2964 H   0  0  0  0  0  0  0  0  0  0  0  0
  136.7812   71.7181  222.0992 H   0  0  0  0  0  0  0  0  0  0  0  0
  136.5391   71.6166  225.1885 H   0  0  0  0  0  0  0  0  0  0  0  0
  135.2255   71.5801  224.0989 H   0  0  0  0  0  0  0  0  0  0  0  0
  136.1848   69.2442  223.0977 H   0  0  0  0  0  0  0  0  0  0  0  0
  136.6620   68.4840  225.4750 H   0  0  0  0  0  0  0  0  0  0  0  0
  138.3799   70.1649  225.1892 H   0  0  0  0  0  0  0  0  0  0  0  0
  138.2450   67.8326  223.5194 H   0  0  0  0  0  0  0  0  0  0  0  0
  139.7899   68.6680  223.7883 H   0  0  0  0  0  0  0  0  0  0  0  0
  140.1387   67.3121  226.8368 H   0  0  0  0  0  0  0  0  0  0  0  0
  140.8023   67.7357  225.2503 H   0  0  0  0  0  0  0  0  0  0  0  0
  139.2445   69.0076  228.3087 H   0  0  0  0  0  0  0  0  0  0  0  0
  139.6135   71.2457  229.3019 H   0  0  0  0  0  0  0  0  0  0  0  0
  140.9397   72.9076  228.0220 H   0  0  0  0  0  0  0  0  0  0  0  0
  141.8810   72.3574  225.8029 H   0  0  0  0  0  0  0  0  0  0  0  0
  141.5088   70.0863  224.7990 H   0  0  0  0  0  0  0  0  0  0  0  0
  142.1089   76.5748  221.9853 H   0  0  0  0  0  0  0  0  0  0  0  0
  141.2127   78.8146  222.6441 H   0  0  0  0  0  0  0  0  0  0  0  0
  139.1745   80.1674  223.2251 H   0  0  0  0  0  0  0  0  0  0  0  0
  135.3262   78.2764  223.2437 H   0  0  0  0  0  0  0  0  0  0  0  0
  136.3916   76.1179  222.5692 H   0  0  0  0  0  0  0  0  0  0  0  0
  1  2  2  0
  2  3  1  0
  3  4  1  0
  4  5  1  0
  5  6  2  0
  5  7  1  0
  7  8  1  0
  8  9  1  0
  9 10  1  0
 10 11  1  0
 10 12  1  0
 12 13  1  0
 13 14  1  0
 14 15  1  0
 15 16  1  0
 16 17  2  0
 17 18  1  0
 18 19  2  0
 19 20  1  0
 20 21  2  0
  2 22  1  0
 22 23  2  0
 23 24  1  0
 24 25  2  0
 25 26  1  0
 26 27  2  0
 27 28  1  0
 27 29  1  0
 29 30  2  0
 30 31  1  0
 31 32  2  0
 12  7  1  0
 21 16  1  0
 32 22  1  0
 31 25  1  0
  3 33  1  0
  4 34  1  0
  4 35  1  0
  8 36  1  0
  8 37  1  0
  9 38  1  0
  9 39  1  0
 10 40  1  6
 11 41  1  0
 12 42  1  1
 13 43  1  0
 13 44  1  0
 15 45  1  0
 15 46  1  0
 17 47  1  0
 18 48  1  0
 19 49  1  0
 20 50  1  0
 21 51  1  0
 23 52  1  0
 24 53  1  0
 26 54  1  0
 29 55  1  0
 30 56  1  0
M  END
>  <smiles>  (42) 
O=C(NCC(=O)N1CC[C@H](O)[C@H]1COCc1ccccc1)c1ccc2cc(Cl)ccc2n1

>  <score_type>  (42) 
oracle

>  <origin>  (42) 
autodockgpu

>  <m_score__min__energy>  (42) 
-8.8699999999999992

>  <m_primary>  (42) 
energy

>  <rmsd>  (42) 
8.415756888840894

>  <m_score__min__rmsd>  (42) 
8.415756888840894

>  <meeko>  (42) 
{"free_energy": -7.98, "intermolecular_energy": -10.66, "internal_energy": -2.54, "cluster_size": 6, "cluster_id": 3, "rank_in_cluster": 2}

>  <energy>  (42) 
-7.46

>  <cluster_rmsd>  (42) 
0.93

>  <cluster>  (42) 
7

$$$$

     RDKit          3D

 56 59  0  0  0  0  0  0  0  0999 V2000
  136.5190   75.1870  221.1850 O   0  0  0  0  0  0  0  0  0  0  0  0
  137.6000   75.2640  221.7960 C   0  0  0  0  0  0  0  0  0  0  0  0
  138.3080   74.0860  222.1040 N   0  0  0  0  0  0  0  0  0  0  0  0
  137.9530   72.7540  221.8110 C   0  0  0  0  0  0  0  0  0  0  0  0
  138.9750   71.7300  221.9390 C   0  0  0  0  0  0  0  0  0  0  0  0
  140.0780   72.2030  222.4660 O   0  0  0  0  0  0  0  0  0  0  0  0
  139.0090   70.3660  221.6250 N   0  0  0  0  0  0  0  0  0  0  0  0
  139.8890   69.5880  220.7620 C   0  0  0  0  0  0  0  0  0  0  0  0
  139.3370   68.1390  220.7710 C   0  0  0  0  0  0  0  0  0  0  0  0
  138.8710   68.1510  222.2500 C   0  0  2  0  0  0  0  0  0  0  0  0
  138.1570   67.0300  222.5790 O   0  0  0  0  0  0  0  0  0  0  0  0
  138.0150   69.4030  222.1260 C   0  0  1  0  0  0  0  0  0  0  0  0
  137.2800   69.7730  223.3460 C   0  0  0  0  0  0  0  0  0  0  0  0
  137.9710   69.1930  224.4300 O   0  0  0  0  0  0  0  0  0  0  0  0
  138.7100   70.1420  225.1240 C   0  0  0  0  0  0  0  0  0  0  0  0
  139.5320   69.3860  226.1040 C   0  0  0  0  0  0  0  0  0  0  0  0
  139.8820   70.0320  227.2770 C   0  0  0  0  0  0  0  0  0  0  0  0
  140.6340   69.4230  228.2560 C   0  0  0  0  0  0  0  0  0  0  0  0
  141.0400   68.1270  228.0330 C   0  0  0  0  0  0  0  0  0  0  0  0
  140.7090   67.4450  226.8680 C   0  0  0  0  0  0  0  0  0  0  0  0
  139.9440   68.0680  225.8780 C   0  0  0  0  0  0  0  0  0  0  0  0
  138.1520   76.5720  222.1970 C   0  0  0  0  0  0  0  0  0  0  0  0
  137.3660   77.6890  222.3510 C   0  0  0  0  0  0  0  0  0  0  0  0
  137.9060   78.9290  222.7110 C   0  0  0  0  0  0  0  0  0  0  0  0
  139.2840   79.0090  222.9160 C   0  0  0  0  0  0  0  0  0  0  0  0
  139.9310   80.1660  223.2640 C   0  0  0  0  0  0  0  0  0  0  0  0
  141.2950   80.1820  223.4430 C   0  0  0  0  0  0  0  0  0  0  0  0
  142.1710   81.6450  223.8810 Cl  0  0  0  0  0  0  0  0  0  0  0  0
  142.0370   79.0370  223.2770 C   0  0  0  0  0  0  0  0  0  0  0  0
  141.3980   77.8560  222.9260 C   0  0  0  0  0  0  0  0  0  0  0  0
  140.0070   77.8580  222.7470 C   0  0  0  0  0  0  0  0  0  0  0  0
  139.4690   76.6820  222.4020 N   0  0  0  0  0  0  0  0  0  0  0  0
  139.2290   74.2380  222.6320 H   0  0  0  0  0  0  0  0  0  0  0  0
  137.1291   72.4794  222.4861 H   0  0  0  0  0  0  0  0  0  0  0  0
  137.7095   72.7652  220.7384 H   0  0  0  0  0  0  0  0  0  0  0  0
  139.8765   69.9941  219.7398 H   0  0  0  0  0  0  0  0  0  0  0  0
  140.9296   69.6218  221.1171 H   0  0  0  0  0  0  0  0  0  0  0  0
  138.5057   67.9967  220.0648 H   0  0  0  0  0  0  0  0  0  0  0  0
  140.0274   67.3376  220.4693 H   0  0  0  0  0  0  0  0  0  0  0  0
  139.6432   68.1547  223.0334 H   0  0  0  0  0  0  0  0  0  0  0  0
  137.6700   67.2380  223.4400 H   0  0  0  0  0  0  0  0  0  0  0  0
  137.1478   69.3056  221.4564 H   0  0  0  0  0  0  0  0  0  0  0  0
  137.2542   70.8673  223.4553 H   0  0  0  0  0  0  0  0  0  0  0  0
  136.2405   69.4157  223.3041 H   0  0  0  0  0  0  0  0  0  0  0  0
  139.3578   70.7017  224.4333 H   0  0  0  0  0  0  0  0  0  0  0  0
  138.0578   70.8728  225.6246 H   0  0  0  0  0  0  0  0  0  0  0  0
  139.5475   71.0683  227.4323 H   0  0  0  0  0  0  0  0  0  0  0  0
  140.9006   69.9527  229.1825 H   0  0  0  0  0  0  0  0  0  0  0  0
  141.6433   67.6166  228.7982 H   0  0  0  0  0  0  0  0  0  0  0  0
  141.0510   66.4094  226.7244 H   0  0  0  0  0  0  0  0  0  0  0  0
  139.6747   67.5396  224.9516 H   0  0  0  0  0  0  0  0  0  0  0  0
  136.2815   77.6060  222.1866 H   0  0  0  0  0  0  0  0  0  0  0  0
  137.2634   79.8140  222.8288 H   0  0  0  0  0  0  0  0  0  0  0  0
  139.3534   81.0920  223.4017 H   0  0  0  0  0  0  0  0  0  0  0  0
  143.1274   79.0565  223.4210 H   0  0  0  0  0  0  0  0  0  0  0  0
  141.9755   76.9297  222.7899 H   0  0  0  0  0  0  0  0  0  0  0  0
  1  2  2  0
  2  3  1  0
  3  4  1  0
  4  5  1  0
  5  6  2  0
  5  7  1  0
  7  8  1  0
  8  9  1  0
  9 10  1  0
 10 11  1  0
 10 12  1  0
 12 13  1  0
 13 14  1  0
 14 15  1  0
 15 16  1  0
 16 17  2  0
 17 18  1  0
 18 19  2  0
 19 20  1  0
 20 21  2  0
  2 22  1  0
 22 23  2  0
 23 24  1  0
 24 25  2  0
 25 26  1  0
 26 27  2  0
 27 28  1  0
 27 29  1  0
 29 30  2  0
 30 31  1  0
 31 32  2  0
 12  7  1  0
 21 16  1  0
 32 22  1  0
 31 25  1  0
  3 33  1  0
  4 34  1  0
  4 35  1  0
  8 36  1  0
  8 37  1  0
  9 38  1  0
  9 39  1  0
 10 40  1  1
 11 41  1  0
 12 42  1  6
 13 43  1  0
 13 44  1  0
 15 45  1  0
 15 46  1  0
 17 47  1  0
 18 48  1  0
 19 49  1  0
 20 50  1  0
 21 51  1  0
 23 52  1  0
 24 53  1  0
 26 54  1  0
 29 55  1  0
 30 56  1  0
M  END
>  <smiles>  (43) 
O=C(NCC(=O)N1CC[C@H](O)[C@H]1COCc1ccccc1)c1ccc2cc(Cl)ccc2n1

>  <score_type>  (43) 
oracle

>  <origin>  (43) 
autodockgpu

>  <m_score__min__energy>  (43) 
-8.8699999999999992

>  <m_primary>  (43) 
energy

>  <rmsd>  (43) 
8.220667347208964

>  <m_score__min__rmsd>  (43) 
8.220667347208964

>  <meeko>  (43) 
{"free_energy": -7.08, "intermolecular_energy": -9.77, "internal_energy": -2.94, "cluster_size": 2, "cluster_id": 6, "rank_in_cluster": 2}

>  <energy>  (43) 
-7.31

>  <cluster_rmsd>  (43) 
1.33

>  <cluster>  (43) 
7

$$$$

     RDKit          3D

 56 59  0  0  0  0  0  0  0  0999 V2000
  140.1410   74.0880  222.0060 O   0  0  0  0  0  0  0  0  0  0  0  0
  140.2980   72.8810  221.7470 C   0  0  0  0  0  0  0  0  0  0  0  0
  140.5820   72.4860  220.4250 N   0  0  0  0  0  0  0  0  0  0  0  0
  140.7180   73.2990  219.2830 C   0  0  0  0  0  0  0  0  0  0  0  0
  142.0580   73.6250  218.8300 C   0  0  0  0  0  0  0  0  0  0  0  0
  142.0920   73.8800  217.5450 O   0  0  0  0  0  0  0  0  0  0  0  0
  143.2920   73.7280  219.4840 N   0  0  0  0  0  0  0  0  0  0  0  0
  143.6820   74.3730  220.7310 C   0  0  0  0  0  0  0  0  0  0  0  0
  145.2190   74.2050  220.8460 C   0  0  0  0  0  0  0  0  0  0  0  0
  145.2790   72.7990  220.1950 C   0  0  2  0  0  0  0  0  0  0  0  0
  146.5650   72.3820  219.9760 O   0  0  0  0  0  0  0  0  0  0  0  0
  144.5440   73.1930  218.9220 C   0  0  1  0  0  0  0  0  0  0  0  0
  144.4240   72.1230  217.9200 C   0  0  0  0  0  0  0  0  0  0  0  0
  145.5300   71.2680  218.1030 O   0  0  0  0  0  0  0  0  0  0  0  0
  145.5190   70.2250  217.1850 C   0  0  0  0  0  0  0  0  0  0  0  0
  145.6860   68.9790  217.9770 C   0  0  0  0  0  0  0  0  0  0  0  0
  145.4080   67.7790  217.3470 C   0  0  0  0  0  0  0  0  0  0  0  0
  145.5370   66.5660  217.9840 C   0  0  0  0  0  0  0  0  0  0  0  0
  145.9570   66.5760  219.2940 C   0  0  0  0  0  0  0  0  0  0  0  0
  146.2450   67.7610  219.9620 C   0  0  0  0  0  0  0  0  0  0  0  0
  146.1140   68.9890  219.3090 C   0  0  0  0  0  0  0  0  0  0  0  0
  140.1950   71.8600  222.8070 C   0  0  0  0  0  0  0  0  0  0  0  0
  139.6080   70.6360  222.5990 C   0  0  0  0  0  0  0  0  0  0  0  0
  139.4980   69.6840  223.6200 C   0  0  0  0  0  0  0  0  0  0  0  0
  140.0080   70.0110  224.8770 C   0  0  0  0  0  0  0  0  0  0  0  0
  139.9550   69.1690  225.9570 C   0  0  0  0  0  0  0  0  0  0  0  0
  140.4680   69.5530  227.1740 C   0  0  0  0  0  0  0  0  0  0  0  0
  140.4140   68.5100  228.5910 Cl  0  0  0  0  0  0  0  0  0  0  0  0
  141.0470   70.7900  227.3310 C   0  0  0  0  0  0  0  0  0  0  0  0
  141.1110   71.6550  226.2470 C   0  0  0  0  0  0  0  0  0  0  0  0
  140.5820   71.2470  225.0150 C   0  0  0  0  0  0  0  0  0  0  0  0
  140.6760   72.1410  224.0240 N   0  0  0  0  0  0  0  0  0  0  0  0
  140.7020   71.4290  220.2860 H   0  0  0  0  0  0  0  0  0  0  0  0
  140.2092   72.7851  218.4541 H   0  0  0  0  0  0  0  0  0  0  0  0
  140.2885   74.2661  219.5836 H   0  0  0  0  0  0  0  0  0  0  0  0
  143.4163   75.4402  220.7071 H   0  0  0  0  0  0  0  0  0  0  0  0
  143.1653   73.9238  221.5920 H   0  0  0  0  0  0  0  0  0  0  0  0
  145.7732   74.9626  220.2725 H   0  0  0  0  0  0  0  0  0  0  0  0
  145.6616   74.3132  221.8472 H   0  0  0  0  0  0  0  0  0  0  0  0
  144.8681   71.9511  220.7627 H   0  0  0  0  0  0  0  0  0  0  0  0
  146.5570   71.3730  220.0330 H   0  0  0  0  0  0  0  0  0  0  0  0
  145.0707   73.9247  218.2918 H   0  0  0  0  0  0  0  0  0  0  0  0
  143.4867   71.5671  218.0699 H   0  0  0  0  0  0  0  0  0  0  0  0
  144.4090   72.5364  216.9008 H   0  0  0  0  0  0  0  0  0  0  0  0
  144.5638   70.2060  216.6399 H   0  0  0  0  0  0  0  0  0  0  0  0
  146.3190   70.3376  216.4384 H   0  0  0  0  0  0  0  0  0  0  0  0
  145.0719   67.7951  216.2997 H   0  0  0  0  0  0  0  0  0  0  0  0
  145.3125   65.6227  217.4646 H   0  0  0  0  0  0  0  0  0  0  0  0
  146.0680   65.6205  219.8276 H   0  0  0  0  0  0  0  0  0  0  0  0
  146.5777   67.7314  221.0101 H   0  0  0  0  0  0  0  0  0  0  0  0
  146.3401   69.9335  219.8255 H   0  0  0  0  0  0  0  0  0  0  0  0
  139.2126   70.3964  221.6009 H   0  0  0  0  0  0  0  0  0  0  0  0
  139.0241   68.7084  223.4368 H   0  0  0  0  0  0  0  0  0  0  0  0
  139.4970   68.1747  225.8493 H   0  0  0  0  0  0  0  0  0  0  0  0
  141.4558   71.0916  228.3066 H   0  0  0  0  0  0  0  0  0  0  0  0
  141.5712   72.6484  226.3538 H   0  0  0  0  0  0  0  0  0  0  0  0
  1  2  2  0
  2  3  1  0
  3  4  1  0
  4  5  1  0
  5  6  2  0
  5  7  1  0
  7  8  1  0
  8  9  1  0
  9 10  1  0
 10 11  1  0
 10 12  1  0
 12 13  1  0
 13 14  1  0
 14 15  1  0
 15 16  1  0
 16 17  2  0
 17 18  1  0
 18 19  2  0
 19 20  1  0
 20 21  2  0
  2 22  1  0
 22 23  2  0
 23 24  1  0
 24 25  2  0
 25 26  1  0
 26 27  2  0
 27 28  1  0
 27 29  1  0
 29 30  2  0
 30 31  1  0
 31 32  2  0
 12  7  1  0
 21 16  1  0
 32 22  1  0
 31 25  1  0
  3 33  1  0
  4 34  1  0
  4 35  1  0
  8 36  1  0
  8 37  1  0
  9 38  1  0
  9 39  1  0
 10 40  1  1
 11 41  1  0
 12 42  1  6
 13 43  1  0
 13 44  1  0
 15 45  1  0
 15 46  1  0
 17 47  1  0
 18 48  1  0
 19 49  1  0
 20 50  1  0
 21 51  1  0
 23 52  1  0
 24 53  1  0
 26 54  1  0
 29 55  1  0
 30 56  1  0
M  END
>  <smiles>  (44) 
O=C(NCC(=O)N1CC[C@H](O)[C@H]1COCc1ccccc1)c1ccc2cc(Cl)ccc2n1

>  <score_type>  (44) 
oracle

>  <origin>  (44) 
autodockgpu

>  <m_score__min__energy>  (44) 
-8.8699999999999992

>  <m_primary>  (44) 
energy

>  <rmsd>  (44) 
4.03006836851706

>  <m_score__min__rmsd>  (44) 
4.03006836851706

>  <meeko>  (44) 
{"free_energy": -8.25, "intermolecular_energy": -10.94, "internal_energy": -1.81, "cluster_size": 1, "cluster_id": 4, "rank_in_cluster": 1}

>  <energy>  (44) 
-7.31

>  <cluster_rmsd>  (44) 
1.11

>  <cluster>  (44) 
7

$$$$

     RDKit          3D

 56 59  0  0  0  0  0  0  0  0999 V2000
  141.0340   73.9240  221.8020 O   0  0  0  0  0  0  0  0  0  0  0  0
  140.2020   73.0030  221.7090 C   0  0  0  0  0  0  0  0  0  0  0  0
  139.4250   72.8840  220.5410 N   0  0  0  0  0  0  0  0  0  0  0  0
  139.4440   73.7020  219.3940 C   0  0  0  0  0  0  0  0  0  0  0  0
  139.3550   75.1400  219.5770 C   0  0  0  0  0  0  0  0  0  0  0  0
  138.9560   75.7480  218.4860 O   0  0  0  0  0  0  0  0  0  0  0  0
  139.5960   75.9840  220.6670 N   0  0  0  0  0  0  0  0  0  0  0  0
  139.0560   76.0040  222.0210 C   0  0  0  0  0  0  0  0  0  0  0  0
  139.6590   77.2530  222.7120 C   0  0  0  0  0  0  0  0  0  0  0  0
  141.0400   77.1780  222.0100 C   0  0  2  0  0  0  0  0  0  0  0  0
  141.8180   78.2740  222.2750 O   0  0  0  0  0  0  0  0  0  0  0  0
  140.4860   77.1540  220.5940 C   0  0  1  0  0  0  0  0  0  0  0  0
  141.5030   77.1550  219.5310 C   0  0  0  0  0  0  0  0  0  0  0  0
  142.7190   76.7650  220.1300 O   0  0  0  0  0  0  0  0  0  0  0  0
  143.5530   76.1340  219.2160 C   0  0  0  0  0  0  0  0  0  0  0  0
  143.7790   74.7640  219.7440 C   0  0  0  0  0  0  0  0  0  0  0  0
  144.9160   74.5530  220.5050 C   0  0  0  0  0  0  0  0  0  0  0  0
  145.2200   73.3260  221.0500 C   0  0  0  0  0  0  0  0  0  0  0  0
  144.3460   72.2900  220.8130 C   0  0  0  0  0  0  0  0  0  0  0  0
  143.1940   72.4620  220.0540 C   0  0  0  0  0  0  0  0  0  0  0  0
  142.8910   73.7110  219.5040 C   0  0  0  0  0  0  0  0  0  0  0  0
  140.0240   72.0320  222.8060 C   0  0  0  0  0  0  0  0  0  0  0  0
  139.2230   70.9220  222.6870 C   0  0  0  0  0  0  0  0  0  0  0  0
  139.0460   70.0210  223.7430 C   0  0  0  0  0  0  0  0  0  0  0  0
  139.7130   70.2770  224.9410 C   0  0  0  0  0  0  0  0  0  0  0  0
  139.6150   69.4750  226.0480 C   0  0  0  0  0  0  0  0  0  0  0  0
  140.2920   69.7860  227.2050 C   0  0  0  0  0  0  0  0  0  0  0  0
  140.1890   68.7910  228.6540 Cl  0  0  0  0  0  0  0  0  0  0  0  0
  141.0810   70.9090  227.2730 C   0  0  0  0  0  0  0  0  0  0  0  0
  141.1930   71.7320  226.1610 C   0  0  0  0  0  0  0  0  0  0  0  0
  140.4960   71.3990  224.9910 C   0  0  0  0  0  0  0  0  0  0  0  0
  140.6500   72.2480  223.9680 N   0  0  0  0  0  0  0  0  0  0  0  0
  138.7320   72.0650  220.5410 H   0  0  0  0  0  0  0  0  0  0  0  0
  140.3856   73.4981  218.8631 H   0  0  0  0  0  0  0  0  0  0  0  0
  138.5226   73.4376  218.8544 H   0  0  0  0  0  0  0  0  0  0  0  0
  137.9588   76.0772  221.9923 H   0  0  0  0  0  0  0  0  0  0  0  0
  139.3110   75.0834  222.5665 H   0  0  0  0  0  0  0  0  0  0  0  0
  139.1109   78.1764  222.4735 H   0  0  0  0  0  0  0  0  0  0  0  0
  139.6560   77.2677  223.8119 H   0  0  0  0  0  0  0  0  0  0  0  0
  141.7167   76.3576  222.2909 H   0  0  0  0  0  0  0  0  0  0  0  0
  142.7080   78.1150  221.8220 H   0  0  0  0  0  0  0  0  0  0  0  0
  139.9560   78.0689  220.2905 H   0  0  0  0  0  0  0  0  0  0  0  0
  141.2249   76.4428  218.7402 H   0  0  0  0  0  0  0  0  0  0  0  0
  141.5913   78.1499  219.0702 H   0  0  0  0  0  0  0  0  0  0  0  0
  143.0716   76.0880  218.2280 H   0  0  0  0  0  0  0  0  0  0  0  0
  144.5004   76.6791  219.0927 H   0  0  0  0  0  0  0  0  0  0  0  0
  145.6009   75.3957  220.6804 H   0  0  0  0  0  0  0  0  0  0  0  0
  146.1283   73.1791  221.6528 H   0  0  0  0  0  0  0  0  0  0  0  0
  144.5648   71.2983  221.2358 H   0  0  0  0  0  0  0  0  0  0  0  0
  142.5176   71.6111  219.8854 H   0  0  0  0  0  0  0  0  0  0  0  0
  141.9829   73.8606  218.9016 H   0  0  0  0  0  0  0  0  0  0  0  0
  138.7059   70.7362  221.7341 H   0  0  0  0  0  0  0  0  0  0  0  0
  138.4003   69.1375  223.6317 H   0  0  0  0  0  0  0  0  0  0  0  0
  138.9878   68.5721  226.0112 H   0  0  0  0  0  0  0  0  0  0  0  0
  141.6191   71.1536  228.2007 H   0  0  0  0  0  0  0  0  0  0  0  0
  141.8209   72.6345  226.1972 H   0  0  0  0  0  0  0  0  0  0  0  0
  1  2  2  0
  2  3  1  0
  3  4  1  0
  4  5  1  0
  5  6  2  0
  5  7  1  0
  7  8  1  0
  8  9  1  0
  9 10  1  0
 10 11  1  0
 10 12  1  0
 12 13  1  0
 13 14  1  0
 14 15  1  0
 15 16  1  0
 16 17  2  0
 17 18  1  0
 18 19  2  0
 19 20  1  0
 20 21  2  0
  2 22  1  0
 22 23  2  0
 23 24  1  0
 24 25  2  0
 25 26  1  0
 26 27  2  0
 27 28  1  0
 27 29  1  0
 29 30  2  0
 30 31  1  0
 31 32  2  0
 12  7  1  0
 21 16  1  0
 32 22  1  0
 31 25  1  0
  3 33  1  0
  4 34  1  0
  4 35  1  0
  8 36  1  0
  8 37  1  0
  9 38  1  0
  9 39  1  0
 10 40  1  1
 11 41  1  0
 12 42  1  6
 13 43  1  0
 13 44  1  0
 15 45  1  0
 15 46  1  0
 17 47  1  0
 18 48  1  0
 19 49  1  0
 20 50  1  0
 21 51  1  0
 23 52  1  0
 24 53  1  0
 26 54  1  0
 29 55  1  0
 30 56  1  0
M  END
>  <smiles>  (45) 
O=C(NCC(=O)N1CC[C@H](O)[C@H]1COCc1ccccc1)c1ccc2cc(Cl)ccc2n1

>  <score_type>  (45) 
oracle

>  <origin>  (45) 
autodockgpu

>  <m_score__min__energy>  (45) 
-8.8699999999999992

>  <m_primary>  (45) 
energy

>  <rmsd>  (45) 
3.043120671417412

>  <m_score__min__rmsd>  (45) 
3.043120671417412

>  <meeko>  (45) 
{"free_energy": -7.45, "intermolecular_energy": -10.13, "internal_energy": -3.01, "cluster_size": 7, "cluster_id": 5, "rank_in_cluster": 5}

>  <energy>  (45) 
-7.23

>  <cluster_rmsd>  (45) 
1.52

>  <cluster>  (45) 
7

$$$$

     RDKit          3D

 56 59  0  0  0  0  0  0  0  0999 V2000
  136.9650   74.1920  221.6840 O   0  0  0  0  0  0  0  0  0  0  0  0
  138.1470   74.5210  221.8930 C   0  0  0  0  0  0  0  0  0  0  0  0
  139.1460   73.5290  221.9400 N   0  0  0  0  0  0  0  0  0  0  0  0
  139.0000   72.1370  221.7820 C   0  0  0  0  0  0  0  0  0  0  0  0
  138.7180   71.3400  222.9610 C   0  0  0  0  0  0  0  0  0  0  0  0
  139.8060   70.8110  223.4660 O   0  0  0  0  0  0  0  0  0  0  0  0
  137.5400   71.0390  223.6560 N   0  0  0  0  0  0  0  0  0  0  0  0
  136.2610   71.7310  223.7490 C   0  0  0  0  0  0  0  0  0  0  0  0
  135.4030   70.9280  224.7590 C   0  0  0  0  0  0  0  0  0  0  0  0
  135.9440   69.5310  224.3580 C   0  0  2  0  0  0  0  0  0  0  0  0
  135.5000   68.5410  225.1950 O   0  0  0  0  0  0  0  0  0  0  0  0
  137.4120   69.8780  224.5530 C   0  0  1  0  0  0  0  0  0  0  0  0
  138.3460   68.7620  224.3390 C   0  0  0  0  0  0  0  0  0  0  0  0
  138.5010   68.1160  225.5830 O   0  0  0  0  0  0  0  0  0  0  0  0
  139.8410   68.0150  225.9360 C   0  0  0  0  0  0  0  0  0  0  0  0
  140.2210   69.3420  226.4870 C   0  0  0  0  0  0  0  0  0  0  0  0
  139.6520   69.7200  227.6900 C   0  0  0  0  0  0  0  0  0  0  0  0
  139.9390   70.9230  228.2950 C   0  0  0  0  0  0  0  0  0  0  0  0
  140.8260   71.7610  227.6560 C   0  0  0  0  0  0  0  0  0  0  0  0
  141.4170   71.4170  226.4450 C   0  0  0  0  0  0  0  0  0  0  0  0
  141.1220   70.1930  225.8380 C   0  0  0  0  0  0  0  0  0  0  0  0
  138.5150   75.9370  222.0880 C   0  0  0  0  0  0  0  0  0  0  0  0
  137.6420   76.9680  221.8410 C   0  0  0  0  0  0  0  0  0  0  0  0
  138.0110   78.3070  222.0100 C   0  0  0  0  0  0  0  0  0  0  0  0
  139.3100   78.5790  222.4420 C   0  0  0  0  0  0  0  0  0  0  0  0
  139.7920   79.8470  222.6370 C   0  0  0  0  0  0  0  0  0  0  0  0
  141.0870   80.0500  223.0570 C   0  0  0  0  0  0  0  0  0  0  0  0
  141.7530   81.6590  223.3110 Cl  0  0  0  0  0  0  0  0  0  0  0  0
  141.9220   78.9840  223.2900 C   0  0  0  0  0  0  0  0  0  0  0  0
  141.4500   77.6920  223.0990 C   0  0  0  0  0  0  0  0  0  0  0  0
  140.1280   77.5050  222.6700 C   0  0  0  0  0  0  0  0  0  0  0  0
  139.7530   76.2310  222.5020 N   0  0  0  0  0  0  0  0  0  0  0  0
  140.1370   73.8950  222.1260 H   0  0  0  0  0  0  0  0  0  0  0  0
  138.1751   71.9738  221.0728 H   0  0  0  0  0  0  0  0  0  0  0  0
  139.9916   71.7943  221.4516 H   0  0  0  0  0  0  0  0  0  0  0  0
  136.4100   72.7596  224.1093 H   0  0  0  0  0  0  0  0  0  0  0  0
  135.7684   71.7932  222.7674 H   0  0  0  0  0  0  0  0  0  0  0  0
  135.6258   71.1857  225.8049 H   0  0  0  0  0  0  0  0  0  0  0  0
  134.3135   71.0742  224.7191 H   0  0  0  0  0  0  0  0  0  0  0  0
  135.6559   69.1304  223.3749 H   0  0  0  0  0  0  0  0  0  0  0  0
  136.3160   68.1660  225.6590 H   0  0  0  0  0  0  0  0  0  0  0  0
  137.6976   70.1111  225.5894 H   0  0  0  0  0  0  0  0  0  0  0  0
  137.9352   68.0614  223.5971 H   0  0  0  0  0  0  0  0  0  0  0  0
  139.3128   69.1238  223.9590 H   0  0  0  0  0  0  0  0  0  0  0  0
  139.9779   67.2321  226.6964 H   0  0  0  0  0  0  0  0  0  0  0  0
  140.4657   67.7437  225.0722 H   0  0  0  0  0  0  0  0  0  0  0  0
  138.9450   69.0349  228.1807 H   0  0  0  0  0  0  0  0  0  0  0  0
  139.4772   71.2044  229.2529 H   0  0  0  0  0  0  0  0  0  0  0  0
  141.0737   72.7289  228.1162 H   0  0  0  0  0  0  0  0  0  0  0  0
  142.1202   72.1117  225.9624 H   0  0  0  0  0  0  0  0  0  0  0  0
  141.5833   69.9081  224.8809 H   0  0  0  0  0  0  0  0  0  0  0  0
  136.6226   76.7342  221.5003 H   0  0  0  0  0  0  0  0  0  0  0  0
  137.2988   79.1208  221.8085 H   0  0  0  0  0  0  0  0  0  0  0  0
  139.1369   80.7119  222.4559 H   0  0  0  0  0  0  0  0  0  0  0  0
  142.9560   79.1526  223.6251 H   0  0  0  0  0  0  0  0  0  0  0  0
  142.1043   76.8269  223.2818 H   0  0  0  0  0  0  0  0  0  0  0  0
  1  2  2  0
  2  3  1  0
  3  4  1  0
  4  5  1  0
  5  6  2  0
  5  7  1  0
  7  8  1  0
  8  9  1  0
  9 10  1  0
 10 11  1  0
 10 12  1  0
 12 13  1  0
 13 14  1  0
 14 15  1  0
 15 16  1  0
 16 17  2  0
 17 18  1  0
 18 19  2  0
 19 20  1  0
 20 21  2  0
  2 22  1  0
 22 23  2  0
 23 24  1  0
 24 25  2  0
 25 26  1  0
 26 27  2  0
 27 28  1  0
 27 29  1  0
 29 30  2  0
 30 31  1  0
 31 32  2  0
 12  7  1  0
 21 16  1  0
 32 22  1  0
 31 25  1  0
  3 33  1  0
  4 34  1  0
  4 35  1  0
  8 36  1  0
  8 37  1  0
  9 38  1  0
  9 39  1  0
 10 40  1  6
 11 41  1  0
 12 42  1  1
 13 43  1  0
 13 44  1  0
 15 45  1  0
 15 46  1  0
 17 47  1  0
 18 48  1  0
 19 49  1  0
 20 50  1  0
 21 51  1  0
 23 52  1  0
 24 53  1  0
 26 54  1  0
 29 55  1  0
 30 56  1  0
M  END
>  <smiles>  (46) 
O=C(NCC(=O)N1CC[C@H](O)[C@H]1COCc1ccccc1)c1ccc2cc(Cl)ccc2n1

>  <score_type>  (46) 
oracle

>  <origin>  (46) 
autodockgpu

>  <m_score__min__energy>  (46) 
-8.8699999999999992

>  <m_primary>  (46) 
energy

>  <rmsd>  (46) 
8.586021598478155

>  <m_score__min__rmsd>  (46) 
8.586021598478155

>  <meeko>  (46) 
{"free_energy": -7.93, "intermolecular_energy": -10.62, "internal_energy": -2.61, "cluster_size": 6, "cluster_id": 3, "rank_in_cluster": 3}

>  <energy>  (46) 
-7.24

>  <cluster_rmsd>  (46) 
0.0

>  <cluster>  (46) 
8

$$$$

     RDKit          3D

 56 59  0  0  0  0  0  0  0  0999 V2000
  140.7550   72.8960  220.7010 O   0  0  0  0  0  0  0  0  0  0  0  0
  140.2990   73.1410  221.8330 C   0  0  0  0  0  0  0  0  0  0  0  0
  139.9060   74.4550  222.1530 N   0  0  0  0  0  0  0  0  0  0  0  0
  139.9570   75.6030  221.3390 C   0  0  0  0  0  0  0  0  0  0  0  0
  139.5760   76.8750  221.9260 C   0  0  0  0  0  0  0  0  0  0  0  0
  138.3040   76.9060  222.2420 O   0  0  0  0  0  0  0  0  0  0  0  0
  140.2850   78.0460  222.2220 N   0  0  0  0  0  0  0  0  0  0  0  0
  140.7150   78.6290  223.4870 C   0  0  0  0  0  0  0  0  0  0  0  0
  141.3760   79.9870  223.1370 C   0  0  0  0  0  0  0  0  0  0  0  0
  142.0020   79.5240  221.7960 C   0  0  2  0  0  0  0  0  0  0  0  0
  142.5590   80.5610  221.0960 O   0  0  0  0  0  0  0  0  0  0  0  0
  140.7020   79.0120  221.1930 C   0  0  1  0  0  0  0  0  0  0  0  0
  140.8130   78.5150  219.8130 C   0  0  0  0  0  0  0  0  0  0  0  0
  142.1880   78.4810  219.5020 O   0  0  0  0  0  0  0  0  0  0  0  0
  142.4210   77.7830  218.3230 C   0  0  0  0  0  0  0  0  0  0  0  0
  142.7560   76.3930  218.7290 C   0  0  0  0  0  0  0  0  0  0  0  0
  143.6870   76.2290  219.7400 C   0  0  0  0  0  0  0  0  0  0  0  0
  144.0650   74.9880  220.1990 C   0  0  0  0  0  0  0  0  0  0  0  0
  143.4810   73.8880  219.6130 C   0  0  0  0  0  0  0  0  0  0  0  0
  142.5420   74.0110  218.5950 C   0  0  0  0  0  0  0  0  0  0  0  0
  142.1620   75.2750  218.1350 C   0  0  0  0  0  0  0  0  0  0  0  0
  140.1620   72.0720  222.8410 C   0  0  0  0  0  0  0  0  0  0  0  0
  139.4890   70.9010  222.5890 C   0  0  0  0  0  0  0  0  0  0  0  0
  139.3490   69.9040  223.5610 C   0  0  0  0  0  0  0  0  0  0  0  0
  139.9180   70.1280  224.8160 C   0  0  0  0  0  0  0  0  0  0  0  0
  139.8420   69.2340  225.8510 C   0  0  0  0  0  0  0  0  0  0  0  0
  140.4170   69.5170  227.0690 C   0  0  0  0  0  0  0  0  0  0  0  0
  140.3380   68.4040  228.4300 Cl  0  0  0  0  0  0  0  0  0  0  0  0
  141.0800   70.7040  227.2700 C   0  0  0  0  0  0  0  0  0  0  0  0
  141.1670   71.6210  226.2320 C   0  0  0  0  0  0  0  0  0  0  0  0
  140.5750   71.3160  224.9990 C   0  0  0  0  0  0  0  0  0  0  0  0
  140.6970   72.2550  224.0530 N   0  0  0  0  0  0  0  0  0  0  0  0
  139.5250   74.5810  223.1480 H   0  0  0  0  0  0  0  0  0  0  0  0
  140.9927   75.7049  220.9826 H   0  0  0  0  0  0  0  0  0  0  0  0
  139.1990   75.4219  220.5627 H   0  0  0  0  0  0  0  0  0  0  0  0
  139.8498   78.7855  224.1480 H   0  0  0  0  0  0  0  0  0  0  0  0
  141.4169   77.9666  224.0148 H   0  0  0  0  0  0  0  0  0  0  0  0
  140.6417   80.7955  223.0061 H   0  0  0  0  0  0  0  0  0  0  0  0
  142.0567   80.4204  223.8845 H   0  0  0  0  0  0  0  0  0  0  0  0
  142.8416   78.8145  221.8380 H   0  0  0  0  0  0  0  0  0  0  0  0
  142.9960   80.1580  220.2780 H   0  0  0  0  0  0  0  0  0  0  0  0
  139.9420   79.7854  221.0081 H   0  0  0  0  0  0  0  0  0  0  0  0
  140.3827   77.5054  219.7383 H   0  0  0  0  0  0  0  0  0  0  0  0
  140.2660   79.1648  219.1141 H   0  0  0  0  0  0  0  0  0  0  0  0
  141.5211   77.7900  217.6905 H   0  0  0  0  0  0  0  0  0  0  0  0
  143.2339   78.2390  217.7388 H   0  0  0  0  0  0  0  0  0  0  0  0
  144.1410   77.1228  220.1928 H   0  0  0  0  0  0  0  0  0  0  0  0
  144.8064   74.8791  221.0043 H   0  0  0  0  0  0  0  0  0  0  0  0
  143.7651   72.8835  219.9598 H   0  0  0  0  0  0  0  0  0  0  0  0
  142.0961   73.1094  218.1496 H   0  0  0  0  0  0  0  0  0  0  0  0
  141.4193   75.3868  217.3313 H   0  0  0  0  0  0  0  0  0  0  0  0
  139.0473   70.7425  221.5941 H   0  0  0  0  0  0  0  0  0  0  0  0
  138.8070   68.9720  223.3428 H   0  0  0  0  0  0  0  0  0  0  0  0
  139.3154   68.2790  225.7071 H   0  0  0  0  0  0  0  0  0  0  0  0
  141.5378   70.9253  228.2454 H   0  0  0  0  0  0  0  0  0  0  0  0
  141.6943   72.5757  226.3753 H   0  0  0  0  0  0  0  0  0  0  0  0
  1  2  2  0
  2  3  1  0
  3  4  1  0
  4  5  1  0
  5  6  2  0
  5  7  1  0
  7  8  1  0
  8  9  1  0
  9 10  1  0
 10 11  1  0
 10 12  1  0
 12 13  1  0
 13 14  1  0
 14 15  1  0
 15 16  1  0
 16 17  2  0
 17 18  1  0
 18 19  2  0
 19 20  1  0
 20 21  2  0
  2 22  1  0
 22 23  2  0
 23 24  1  0
 24 25  2  0
 25 26  1  0
 26 27  2  0
 27 28  1  0
 27 29  1  0
 29 30  2  0
 30 31  1  0
 31 32  2  0
 12  7  1  0
 21 16  1  0
 32 22  1  0
 31 25  1  0
  3 33  1  0
  4 34  1  0
  4 35  1  0
  8 36  1  0
  8 37  1  0
  9 38  1  0
  9 39  1  0
 10 40  1  1
 11 41  1  0
 12 42  1  6
 13 43  1  0
 13 44  1  0
 15 45  1  0
 15 46  1  0
 17 47  1  0
 18 48  1  0
 19 49  1  0
 20 50  1  0
 21 51  1  0
 23 52  1  0
 24 53  1  0
 26 54  1  0
 29 55  1  0
 30 56  1  0
M  END
>  <smiles>  (47) 
O=C(NCC(=O)N1CC[C@H](O)[C@H]1COCc1ccccc1)c1ccc2cc(Cl)ccc2n1

>  <score_type>  (47) 
oracle

>  <origin>  (47) 
autodockgpu

>  <m_score__min__energy>  (47) 
-8.8699999999999992

>  <m_primary>  (47) 
energy

>  <rmsd>  (47) 
3.7527390869495

>  <m_score__min__rmsd>  (47) 
3.7527390869495

>  <meeko>  (47) 
{"free_energy": -7.57, "intermolecular_energy": -10.25, "internal_energy": -2.78, "cluster_size": 7, "cluster_id": 5, "rank_in_cluster": 4}

>  <energy>  (47) 
-7.12

>  <cluster_rmsd>  (47) 
0.0

>  <cluster>  (47) 
9

$$$$

     RDKit          3D

 56 59  0  0  0  0  0  0  0  0999 V2000
  139.0930   71.7540  220.7780 O   0  0  0  0  0  0  0  0  0  0  0  0
  139.3120   72.1370  221.9420 C   0  0  0  0  0  0  0  0  0  0  0  0
  139.3920   73.5160  222.2150 N   0  0  0  0  0  0  0  0  0  0  0  0
  139.2560   74.5920  221.3150 C   0  0  0  0  0  0  0  0  0  0  0  0
  140.4630   75.2610  220.8620 C   0  0  0  0  0  0  0  0  0  0  0  0
  141.0770   75.8770  221.8420 O   0  0  0  0  0  0  0  0  0  0  0  0
  141.0890   75.3670  219.6150 N   0  0  0  0  0  0  0  0  0  0  0  0
  140.9480   74.5960  218.3860 C   0  0  0  0  0  0  0  0  0  0  0  0
  141.9970   75.1600  217.3950 C   0  0  0  0  0  0  0  0  0  0  0  0
  141.8880   76.6350  217.8620 C   0  0  2  0  0  0  0  0  0  0  0  0
  142.8350   77.4360  217.2830 O   0  0  0  0  0  0  0  0  0  0  0  0
  142.1530   76.3450  219.3320 C   0  0  1  0  0  0  0  0  0  0  0  0
  142.2150   77.5340  220.1960 C   0  0  0  0  0  0  0  0  0  0  0  0
  141.5530   78.5720  219.5090 O   0  0  0  0  0  0  0  0  0  0  0  0
  140.5570   79.1410  220.2930 C   0  0  0  0  0  0  0  0  0  0  0  0
  141.2030   79.4920  221.5850 C   0  0  0  0  0  0  0  0  0  0  0  0
  140.8020   78.7930  222.7100 C   0  0  0  0  0  0  0  0  0  0  0  0
  141.3390   79.0300  223.9550 C   0  0  0  0  0  0  0  0  0  0  0  0
  142.3060   80.0050  224.0560 C   0  0  0  0  0  0  0  0  0  0  0  0
  142.7350   80.7290  222.9490 C   0  0  0  0  0  0  0  0  0  0  0  0
  142.1860   80.4820  221.6880 C   0  0  0  0  0  0  0  0  0  0  0  0
  139.4860   71.1650  223.0380 C   0  0  0  0  0  0  0  0  0  0  0  0
  139.0480   69.8660  222.9500 C   0  0  0  0  0  0  0  0  0  0  0  0
  139.2010   68.9610  224.0070 C   0  0  0  0  0  0  0  0  0  0  0  0
  139.8190   69.4130  225.1730 C   0  0  0  0  0  0  0  0  0  0  0  0
  140.0200   68.6260  226.2770 C   0  0  0  0  0  0  0  0  0  0  0  0
  140.6280   69.1340  227.4010 C   0  0  0  0  0  0  0  0  0  0  0  0
  140.8990   68.1650  228.8460 Cl  0  0  0  0  0  0  0  0  0  0  0  0
  141.0490   70.4420  227.4390 C   0  0  0  0  0  0  0  0  0  0  0  0
  140.8550   71.2530  226.3300 C   0  0  0  0  0  0  0  0  0  0  0  0
  140.2330   70.7180  225.1930 C   0  0  0  0  0  0  0  0  0  0  0  0
  140.0760   71.5670  224.1700 N   0  0  0  0  0  0  0  0  0  0  0  0
  139.5840   73.7630  223.2410 H   0  0  0  0  0  0  0  0  0  0  0  0
  138.7405   74.2081  220.4223 H   0  0  0  0  0  0  0  0  0  0  0  0
  138.7150   75.3605  221.8866 H   0  0  0  0  0  0  0  0  0  0  0  0
  141.1420   73.5308  218.5804 H   0  0  0  0  0  0  0  0  0  0  0  0
  139.9295   74.6768  217.9784 H   0  0  0  0  0  0  0  0  0  0  0  0
  143.0003   74.7377  217.5529 H   0  0  0  0  0  0  0  0  0  0  0  0
  141.8344   74.9597  216.3257 H   0  0  0  0  0  0  0  0  0  0  0  0
  140.9649   77.1836  217.6234 H   0  0  0  0  0  0  0  0  0  0  0  0
  142.7830   78.3320  217.7490 H   0  0  0  0  0  0  0  0  0  0  0  0
  143.1567   75.9518  219.5512 H   0  0  0  0  0  0  0  0  0  0  0  0
  141.7123   77.3329  221.1535 H   0  0  0  0  0  0  0  0  0  0  0  0
  143.2574   77.8082  220.4157 H   0  0  0  0  0  0  0  0  0  0  0  0
  140.1576   80.0437  219.8077 H   0  0  0  0  0  0  0  0  0  0  0  0
  139.7144   78.4491  220.4387 H   0  0  0  0  0  0  0  0  0  0  0  0
  140.0262   78.0202  222.6055 H   0  0  0  0  0  0  0  0  0  0  0  0
  141.0079   78.4616  224.8366 H   0  0  0  0  0  0  0  0  0  0  0  0
  142.7513   80.2170  225.0392 H   0  0  0  0  0  0  0  0  0  0  0  0
  143.5106   81.5001  223.0666 H   0  0  0  0  0  0  0  0  0  0  0  0
  142.5162   81.0480  220.8045 H   0  0  0  0  0  0  0  0  0  0  0  0
  138.5632   69.5273  222.0225 H   0  0  0  0  0  0  0  0  0  0  0  0
  138.8444   67.9240  223.9206 H   0  0  0  0  0  0  0  0  0  0  0  0
  139.6913   67.5763  226.2638 H   0  0  0  0  0  0  0  0  0  0  0  0
  141.5355   70.8423  228.3407 H   0  0  0  0  0  0  0  0  0  0  0  0
  141.1850   72.3023  226.3427 H   0  0  0  0  0  0  0  0  0  0  0  0
  1  2  2  0
  2  3  1  0
  3  4  1  0
  4  5  1  0
  5  6  2  0
  5  7  1  0
  7  8  1  0
  8  9  1  0
  9 10  1  0
 10 11  1  0
 10 12  1  0
 12 13  1  0
 13 14  1  0
 14 15  1  0
 15 16  1  0
 16 17  2  0
 17 18  1  0
 18 19  2  0
 19 20  1  0
 20 21  2  0
  2 22  1  0
 22 23  2  0
 23 24  1  0
 24 25  2  0
 25 26  1  0
 26 27  2  0
 27 28  1  0
 27 29  1  0
 29 30  2  0
 30 31  1  0
 31 32  2  0
 12  7  1  0
 21 16  1  0
 32 22  1  0
 31 25  1  0
  3 33  1  0
  4 34  1  0
  4 35  1  0
  8 36  1  0
  8 37  1  0
  9 38  1  0
  9 39  1  0
 10 40  1  1
 11 41  1  0
 12 42  1  6
 13 43  1  0
 13 44  1  0
 15 45  1  0
 15 46  1  0
 17 47  1  0
 18 48  1  0
 19 49  1  0
 20 50  1  0
 21 51  1  0
 23 52  1  0
 24 53  1  0
 26 54  1  0
 29 55  1  0
 30 56  1  0
M  END
>  <smiles>  (48) 
O=C(NCC(=O)N1CC[C@H](O)[C@H]1COCc1ccccc1)c1ccc2cc(Cl)ccc2n1

>  <score_type>  (48) 
oracle

>  <origin>  (48) 
autodockgpu

>  <m_score__min__energy>  (48) 
-8.8699999999999992

>  <m_primary>  (48) 
energy

>  <rmsd>  (48) 
1.6018375716628215

>  <m_score__min__rmsd>  (48) 
1.6018375716628215

>  <meeko>  (48) 
{"free_energy": -7.63, "intermolecular_energy": -10.32, "internal_energy": -2.33, "cluster_size": 16, "cluster_id": 2, "rank_in_cluster": 14}

>  <energy>  (48) 
-6.95

>  <cluster_rmsd>  (48) 
0.3

>  <cluster>  (48) 
9

$$$$

     RDKit          3D

 56 59  0  0  0  0  0  0  0  0999 V2000
  138.7950   71.8000  220.7930 O   0  0  0  0  0  0  0  0  0  0  0  0
  139.0410   72.1750  221.9540 C   0  0  0  0  0  0  0  0  0  0  0  0
  139.0550   73.5520  222.2510 N   0  0  0  0  0  0  0  0  0  0  0  0
  138.8240   74.6340  221.3790 C   0  0  0  0  0  0  0  0  0  0  0  0
  139.5570   74.6730  220.1270 C   0  0  0  0  0  0  0  0  0  0  0  0
  138.7560   74.7820  219.0950 O   0  0  0  0  0  0  0  0  0  0  0  0
  140.9200   74.6270  219.8120 N   0  0  0  0  0  0  0  0  0  0  0  0
  141.6790   73.7910  218.8900 C   0  0  0  0  0  0  0  0  0  0  0  0
  143.1680   74.1740  219.0790 C   0  0  0  0  0  0  0  0  0  0  0  0
  142.9170   75.6800  219.3460 C   0  0  2  0  0  0  0  0  0  0  0  0
  144.0560   76.3380  219.7290 O   0  0  0  0  0  0  0  0  0  0  0  0
  141.9260   75.4680  220.4810 C   0  0  1  0  0  0  0  0  0  0  0  0
  141.4470   76.7020  221.1230 C   0  0  0  0  0  0  0  0  0  0  0  0
  142.2160   77.7610  220.5970 O   0  0  0  0  0  0  0  0  0  0  0  0
  141.4560   78.9150  220.4570 C   0  0  0  0  0  0  0  0  0  0  0  0
  141.7620   79.7540  221.6450 C   0  0  0  0  0  0  0  0  0  0  0  0
  141.2490   81.0390  221.6690 C   0  0  0  0  0  0  0  0  0  0  0  0
  141.4640   81.8980  222.7220 C   0  0  0  0  0  0  0  0  0  0  0  0
  142.2220   81.4380  223.7750 C   0  0  0  0  0  0  0  0  0  0  0  0
  142.7560   80.1540  223.7870 C   0  0  0  0  0  0  0  0  0  0  0  0
  142.5320   79.2860  222.7150 C   0  0  0  0  0  0  0  0  0  0  0  0
  139.3140   71.1960  223.0230 C   0  0  0  0  0  0  0  0  0  0  0  0
  138.9710   69.8700  222.9160 C   0  0  0  0  0  0  0  0  0  0  0  0
  139.2160   68.9560  223.9470 C   0  0  0  0  0  0  0  0  0  0  0  0
  139.8290   69.4280  225.1080 C   0  0  0  0  0  0  0  0  0  0  0  0
  140.1150   68.6340  226.1880 C   0  0  0  0  0  0  0  0  0  0  0  0
  140.7130   69.1610  227.3100 C   0  0  0  0  0  0  0  0  0  0  0  0
  141.0900   68.1840  228.7240 Cl  0  0  0  0  0  0  0  0  0  0  0  0
  141.0370   70.4960  227.3680 C   0  0  0  0  0  0  0  0  0  0  0  0
  140.7560   71.3140  226.2830 C   0  0  0  0  0  0  0  0  0  0  0  0
  140.1450   70.7590  225.1490 C   0  0  0  0  0  0  0  0  0  0  0  0
  139.9010   71.6160  224.1500 N   0  0  0  0  0  0  0  0  0  0  0  0
  139.2770   73.7910  223.2730 H   0  0  0  0  0  0  0  0  0  0  0  0
  137.7526   74.6294  221.1299 H   0  0  0  0  0  0  0  0  0  0  0  0
  139.1838   75.5132  221.9335 H   0  0  0  0  0  0  0  0  0  0  0  0
  141.5265   72.7277  219.1267 H   0  0  0  0  0  0  0  0  0  0  0  0
  141.3553   73.9475  217.8504 H   0  0  0  0  0  0  0  0  0  0  0  0
  143.6327   73.6626  219.9349 H   0  0  0  0  0  0  0  0  0  0  0  0
  143.8589   73.9181  218.2622 H   0  0  0  0  0  0  0  0  0  0  0  0
  142.5795   76.3023  218.5041 H   0  0  0  0  0  0  0  0  0  0  0  0
  143.7600   77.1890  220.1870 H   0  0  0  0  0  0  0  0  0  0  0  0
  142.3461   74.9902  221.3783 H   0  0  0  0  0  0  0  0  0  0  0  0
  140.3821   76.8582  220.8957 H   0  0  0  0  0  0  0  0  0  0  0  0
  141.5517   76.6439  222.2165 H   0  0  0  0  0  0  0  0  0  0  0  0
  141.7323   79.4449  219.5335 H   0  0  0  0  0  0  0  0  0  0  0  0
  140.3823   78.6848  220.3922 H   0  0  0  0  0  0  0  0  0  0  0  0
  140.6478   81.3861  220.8157 H   0  0  0  0  0  0  0  0  0  0  0  0
  141.0455   82.9153  222.7224 H   0  0  0  0  0  0  0  0  0  0  0  0
  142.4104   82.1040  224.6300 H   0  0  0  0  0  0  0  0  0  0  0  0
  143.3579   79.8198  224.6449 H   0  0  0  0  0  0  0  0  0  0  0  0
  142.9478   78.2676  222.7126 H   0  0  0  0  0  0  0  0  0  0  0  0
  138.4894   69.5162  221.9925 H   0  0  0  0  0  0  0  0  0  0  0  0
  138.9339   67.8977  223.8451 H   0  0  0  0  0  0  0  0  0  0  0  0
  139.8638   67.5635  226.1577 H   0  0  0  0  0  0  0  0  0  0  0  0
  141.5150   70.9121  228.2671 H   0  0  0  0  0  0  0  0  0  0  0  0
  141.0092   72.3841  226.3118 H   0  0  0  0  0  0  0  0  0  0  0  0
  1  2  2  0
  2  3  1  0
  3  4  1  0
  4  5  1  0
  5  6  2  0
  5  7  1  0
  7  8  1  0
  8  9  1  0
  9 10  1  0
 10 11  1  0
 10 12  1  0
 12 13  1  0
 13 14  1  0
 14 15  1  0
 15 16  1  0
 16 17  2  0
 17 18  1  0
 18 19  2  0
 19 20  1  0
 20 21  2  0
  2 22  1  0
 22 23  2  0
 23 24  1  0
 24 25  2  0
 25 26  1  0
 26 27  2  0
 27 28  1  0
 27 29  1  0
 29 30  2  0
 30 31  1  0
 31 32  2  0
 12  7  1  0
 21 16  1  0
 32 22  1  0
 31 25  1  0
  3 33  1  0
  4 34  1  0
  4 35  1  0
  8 36  1  0
  8 37  1  0
  9 38  1  0
  9 39  1  0
 10 40  1  6
 11 41  1  0
 12 42  1  1
 13 43  1  0
 13 44  1  0
 15 45  1  0
 15 46  1  0
 17 47  1  0
 18 48  1  0
 19 49  1  0
 20 50  1  0
 21 51  1  0
 23 52  1  0
 24 53  1  0
 26 54  1  0
 29 55  1  0
 30 56  1  0
M  END
>  <smiles>  (49) 
O=C(NCC(=O)N1CC[C@H](O)[C@H]1COCc1ccccc1)c1ccc2cc(Cl)ccc2n1

>  <score_type>  (49) 
oracle

>  <origin>  (49) 
autodockgpu

>  <m_score__min__energy>  (49) 
-8.8699999999999992

>  <m_primary>  (49) 
energy

>  <rmsd>  (49) 
2.2852765704382065

>  <m_score__min__rmsd>  (49) 
2.2852765704382065

>  <meeko>  (49) 
{"free_energy": -8.27, "intermolecular_energy": -10.95, "internal_energy": -2.29, "cluster_size": 16, "cluster_id": 2, "rank_in_cluster": 5}

>  <energy>  (49) 
-6.8

>  <cluster_rmsd>  (49) 
1.42

>  <cluster>  (49) 
9

$$$$

     RDKit          3D

 56 59  0  0  0  0  0  0  0  0999 V2000
  134.0460   69.2400  226.4720 O   0  0  0  0  0  0  0  0  0  0  0  0
  134.4090   70.3590  226.0640 C   0  0  0  0  0  0  0  0  0  0  0  0
  135.5070   70.4560  225.1880 N   0  0  0  0  0  0  0  0  0  0  0  0
  136.3080   69.4160  224.6760 C   0  0  0  0  0  0  0  0  0  0  0  0
  136.7010   69.4790  223.2800 C   0  0  0  0  0  0  0  0  0  0  0  0
  136.0430   68.6140  222.5470 O   0  0  0  0  0  0  0  0  0  0  0  0
  137.6170   70.2700  222.5770 N   0  0  0  0  0  0  0  0  0  0  0  0
  137.6730   70.6880  221.1810 C   0  0  0  0  0  0  0  0  0  0  0  0
  138.9950   71.4790  221.0150 C   0  0  0  0  0  0  0  0  0  0  0  0
  138.9770   72.1260  222.4240 C   0  0  2  0  0  0  0  0  0  0  0  0
  140.1350   72.8030  222.7010 O   0  0  0  0  0  0  0  0  0  0  0  0
  138.8400   70.8180  223.1880 C   0  0  1  0  0  0  0  0  0  0  0  0
  138.8530   70.9510  224.6530 C   0  0  0  0  0  0  0  0  0  0  0  0
  139.9190   71.8170  224.9730 O   0  0  0  0  0  0  0  0  0  0  0  0
  141.0870   71.1090  225.2220 C   0  0  0  0  0  0  0  0  0  0  0  0
  140.7600   70.1460  226.3060 C   0  0  0  0  0  0  0  0  0  0  0  0
  141.0170   68.8070  226.0700 C   0  0  0  0  0  0  0  0  0  0  0  0
  140.7610   67.8320  227.0070 C   0  0  0  0  0  0  0  0  0  0  0  0
  140.2280   68.2310  228.2120 C   0  0  0  0  0  0  0  0  0  0  0  0
  139.9550   69.5660  228.4860 C   0  0  0  0  0  0  0  0  0  0  0  0
  140.2200   70.5510  227.5310 C   0  0  0  0  0  0  0  0  0  0  0  0
  133.7000   71.5830  226.4840 C   0  0  0  0  0  0  0  0  0  0  0  0
  132.5260   71.5500  227.1960 C   0  0  0  0  0  0  0  0  0  0  0  0
  131.8530   72.7190  227.5690 C   0  0  0  0  0  0  0  0  0  0  0  0
  132.4110   73.9430  227.1960 C   0  0  0  0  0  0  0  0  0  0  0  0
  131.8440   75.1540  227.4960 C   0  0  0  0  0  0  0  0  0  0  0  0
  132.4390   76.3270  227.0920 C   0  0  0  0  0  0  0  0  0  0  0  0
  131.7440   77.9060  227.4440 Cl  0  0  0  0  0  0  0  0  0  0  0  0
  133.6150   76.3070  226.3810 C   0  0  0  0  0  0  0  0  0  0  0  0
  134.2030   75.0890  226.0700 C   0  0  0  0  0  0  0  0  0  0  0  0
  133.5820   73.9040  226.4890 C   0  0  0  0  0  0  0  0  0  0  0  0
  134.2090   72.7730  226.1430 N   0  0  0  0  0  0  0  0  0  0  0  0
  135.7560   71.4540  224.8850 H   0  0  0  0  0  0  0  0  0  0  0  0
  137.2308   69.3899  225.2741 H   0  0  0  0  0  0  0  0  0  0  0  0
  135.6698   68.5224  224.7403 H   0  0  0  0  0  0  0  0  0  0  0  0
  137.6700   69.8088  220.5200 H   0  0  0  0  0  0  0  0  0  0  0  0
  136.8024   71.3050  220.9138 H   0  0  0  0  0  0  0  0  0  0  0  0
  139.8650   70.8241  220.8595 H   0  0  0  0  0  0  0  0  0  0  0  0
  139.0678   72.1580  220.1526 H   0  0  0  0  0  0  0  0  0  0  0  0
  138.2203   72.8985  222.6254 H   0  0  0  0  0  0  0  0  0  0  0  0
  139.9430   73.3930  223.4980 H   0  0  0  0  0  0  0  0  0  0  0  0
  139.6998   70.1382  223.0955 H   0  0  0  0  0  0  0  0  0  0  0  0
  137.9010   71.3764  225.0033 H   0  0  0  0  0  0  0  0  0  0  0  0
  138.9803   69.9717  225.1376 H   0  0  0  0  0  0  0  0  0  0  0  0
  141.4082   70.5716  224.3176 H   0  0  0  0  0  0  0  0  0  0  0  0
  141.9095   71.7788  225.5131 H   0  0  0  0  0  0  0  0  0  0  0  0
  141.4410   68.5113  225.0990 H   0  0  0  0  0  0  0  0  0  0  0  0
  140.9744   66.7728  226.8007 H   0  0  0  0  0  0  0  0  0  0  0  0
  140.0123   67.4725  228.9789 H   0  0  0  0  0  0  0  0  0  0  0  0
  139.5281   69.8486  229.4596 H   0  0  0  0  0  0  0  0  0  0  0  0
  140.0106   71.6112  227.7361 H   0  0  0  0  0  0  0  0  0  0  0  0
  132.1022   70.5759  227.4815 H   0  0  0  0  0  0  0  0  0  0  0  0
  130.9131   72.6747  228.1387 H   0  0  0  0  0  0  0  0  0  0  0  0
  130.9036   75.1886  228.0656 H   0  0  0  0  0  0  0  0  0  0  0  0
  134.0861   77.2482  226.0612 H   0  0  0  0  0  0  0  0  0  0  0  0
  135.1443   75.0538  225.5020 H   0  0  0  0  0  0  0  0  0  0  0  0
  1  2  2  0
  2  3  1  0
  3  4  1  0
  4  5  1  0
  5  6  2  0
  5  7  1  0
  7  8  1  0
  8  9  1  0
  9 10  1  0
 10 11  1  0
 10 12  1  0
 12 13  1  0
 13 14  1  0
 14 15  1  0
 15 16  1  0
 16 17  2  0
 17 18  1  0
 18 19  2  0
 19 20  1  0
 20 21  2  0
  2 22  1  0
 22 23  2  0
 23 24  1  0
 24 25  2  0
 25 26  1  0
 26 27  2  0
 27 28  1  0
 27 29  1  0
 29 30  2  0
 30 31  1  0
 31 32  2  0
 12  7  1  0
 21 16  1  0
 32 22  1  0
 31 25  1  0
  3 33  1  0
  4 34  1  0
  4 35  1  0
  8 36  1  0
  8 37  1  0
  9 38  1  0
  9 39  1  0
 10 40  1  6
 11 41  1  0
 12 42  1  1
 13 43  1  0
 13 44  1  0
 15 45  1  0
 15 46  1  0
 17 47  1  0
 18 48  1  0
 19 49  1  0
 20 50  1  0
 21 51  1  0
 23 52  1  0
 24 53  1  0
 26 54  1  0
 29 55  1  0
 30 56  1  0
M  END
>  <smiles>  (50) 
O=C(NCC(=O)N1CC[C@H](O)[C@H]1COCc1ccccc1)c1ccc2cc(Cl)ccc2n1

>  <score_type>  (50) 
oracle

>  <origin>  (50) 
autodockgpu

>  <m_score__min__energy>  (50) 
-8.8699999999999992

>  <m_primary>  (50) 
energy

>  <rmsd>  (50) 
7.758774505683281

>  <m_score__min__rmsd>  (50) 
7.758774505683281

>  <meeko>  (50) 
{"free_energy": -8.25, "intermolecular_energy": -10.94, "internal_energy": -2.19, "cluster_size": 8, "cluster_id": 1, "rank_in_cluster": 6}

>  <energy>  (50) 
-5.74

>  <cluster_rmsd>  (50) 
0.0

>  <cluster>  (50) 
10

$$$$
