
     RDKit          3D

 56 59  0  0  0  0  0  0  0  0999 V2000
  137.8090   71.5360  222.7740 O   0  0  0  0  0  0  0  0  0  0  0  0
  139.0070   71.2590  223.0330 C   0  0  0  0  0  0  0  0  0  0  0  0
  140.1070   71.7810  222.3000 N   0  0  0  0  0  0  0  0  0  0  0  0
  139.8770   72.6870  221.1860 C   0  0  0  0  0  0  0  0  0  0  0  0
  140.8400   73.8130  221.2580 C   0  0  0  0  0  0  0  0  0  0  0  0
  140.5180   74.7900  221.9820 O   0  0  0  0  0  0  0  0  0  0  0  0
  142.0560   73.7430  220.5260 N   0  0  0  0  0  0  0  0  0  0  0  0
  142.3010   72.9000  219.3450 C   0  0  0  0  0  0  0  0  0  0  0  0
  143.6210   72.2780  219.7510 C   0  0  0  0  0  0  0  0  0  0  0  0
  144.3720   73.5120  220.1990 C   0  0  2  0  0  0  0  0  0  0  0  0
  145.3490   73.2310  221.1400 O   0  0  0  0  0  0  0  0  0  0  0  0
  143.2960   74.4580  220.7600 C   0  0  1  0  0  0  0  0  0  0  0  0
  143.2730   75.7170  219.8850 C   0  0  0  0  0  0  0  0  0  0  0  0
  142.0740   76.3710  219.8980 O   0  0  0  0  0  0  0  0  0  0  0  0
  142.0980   77.7360  219.8600 C   0  0  0  0  0  0  0  0  0  0  0  0
  141.8550   78.4310  221.1210 C   0  0  0  0  0  0  0  0  0  0  0  0
  141.3270   77.8750  222.2620 C   0  0  0  0  0  0  0  0  0  0  0  0
  141.1200   78.5920  223.4220 C   0  0  0  0  0  0  0  0  0  0  0  0
  141.4450   79.9310  223.4800 C   0  0  0  0  0  0  0  0  0  0  0  0
  141.9750   80.5200  222.3540 C   0  0  0  0  0  0  0  0  0  0  0  0
  142.1770   79.7910  221.2030 C   0  0  0  0  0  0  0  0  0  0  0  0
  139.3210   70.3480  224.1480 C   0  0  0  0  0  0  0  0  0  0  0  0
  138.9000   69.0250  224.1290 C   0  0  0  0  0  0  0  0  0  0  0  0
  139.2100   68.1810  225.1980 C   0  0  0  0  0  0  0  0  0  0  0  0
  139.9380   68.6370  226.2890 C   0  0  0  0  0  0  0  0  0  0  0  0
  140.2600   67.8350  227.3560 C   0  0  0  0  0  0  0  0  0  0  0  0
  140.9870   68.3730  228.4000 C   0  0  0  0  0  0  0  0  0  0  0  0
  141.3220   67.6050  229.4710 F   0  0  0  0  0  0  0  0  0  0  0  0
  141.3890   69.6860  228.3890 C   0  0  0  0  0  0  0  0  0  0  0  0
  141.0580   70.4920  227.3050 C   0  0  0  0  0  0  0  0  0  0  0  0
  140.3360   69.9670  226.2610 C   0  0  0  0  0  0  0  0  0  0  0  0
  140.0190   70.7370  225.2230 N   0  0  0  0  0  0  0  0  0  0  0  0
  141.0960   71.5190  222.5560 H   0  0  0  0  0  0  0  0  0  0  0  0
  140.0157   72.1458  220.2385 H   0  0  0  0  0  0  0  0  0  0  0  0
  138.8503   73.0785  221.2375 H   0  0  0  0  0  0  0  0  0  0  0  0
  141.5145   72.1427  219.2112 H   0  0  0  0  0  0  0  0  0  0  0  0
  142.3111   73.4335  218.3831 H   0  0  0  0  0  0  0  0  0  0  0  0
  143.4960   71.5567  220.5720 H   0  0  0  0  0  0  0  0  0  0  0  0
  144.1190   71.6961  218.9615 H   0  0  0  0  0  0  0  0  0  0  0  0
  144.9219   73.9648  219.3608 H   0  0  0  0  0  0  0  0  0  0  0  0
  145.4380   72.2680  221.3000 H   0  0  0  0  0  0  0  0  0  0  0  0
  143.4598   74.7332  221.8124 H   0  0  0  0  0  0  0  0  0  0  0  0
  144.0491   76.4068  220.2480 H   0  0  0  0  0  0  0  0  0  0  0  0
  143.4520   75.3928  218.8492 H   0  0  0  0  0  0  0  0  0  0  0  0
  143.0901   78.0420  219.4964 H   0  0  0  0  0  0  0  0  0  0  0  0
  141.2610   78.0220  219.2061 H   0  0  0  0  0  0  0  0  0  0  0  0
  141.0570   76.8087  222.2493 H   0  0  0  0  0  0  0  0  0  0  0  0
  140.6937   78.0934  224.3050 H   0  0  0  0  0  0  0  0  0  0  0  0
  141.2853   80.5122  224.4001 H   0  0  0  0  0  0  0  0  0  0  0  0
  142.2407   81.5872  222.3739 H   0  0  0  0  0  0  0  0  0  0  0  0
  142.6041   80.2923  220.3219 H   0  0  0  0  0  0  0  0  0  0  0  0
  138.3235   68.6423  223.2739 H   0  0  0  0  0  0  0  0  0  0  0  0
  138.8709   67.1348  225.1751 H   0  0  0  0  0  0  0  0  0  0  0  0
  139.9442   66.7815  227.3790 H   0  0  0  0  0  0  0  0  0  0  0  0
  141.9675   70.0965  229.2298 H   0  0  0  0  0  0  0  0  0  0  0  0
  141.3731   71.5457  227.2837 H   0  0  0  0  0  0  0  0  0  0  0  0
  1  2  2  0
  2  3  1  0
  3  4  1  0
  4  5  1  0
  5  6  2  0
  5  7  1  0
  7  8  1  0
  8  9  1  0
  9 10  1  0
 10 11  1  0
 10 12  1  0
 12 13  1  0
 13 14  1  0
 14 15  1  0
 15 16  1  0
 16 17  2  0
 17 18  1  0
 18 19  2  0
 19 20  1  0
 20 21  2  0
  2 22  1  0
 22 23  2  0
 23 24  1  0
 24 25  2  0
 25 26  1  0
 26 27  2  0
 27 28  1  0
 27 29  1  0
 29 30  2  0
 30 31  1  0
 31 32  2  0
 12  7  1  0
 21 16  1  0
 32 22  1  0
 31 25  1  0
  3 33  1  0
  4 34  1  0
  4 35  1  0
  8 36  1  0
  8 37  1  0
  9 38  1  0
  9 39  1  0
 10 40  1  6
 11 41  1  0
 12 42  1  1
 13 43  1  0
 13 44  1  0
 15 45  1  0
 15 46  1  0
 17 47  1  0
 18 48  1  0
 19 49  1  0
 20 50  1  0
 21 51  1  0
 23 52  1  0
 24 53  1  0
 26 54  1  0
 29 55  1  0
 30 56  1  0
M  END
>  <smiles>  (1) 
O=C(NCC(=O)N1CC[C@H](O)[C@H]1COCc1ccccc1)c1ccc2cc(F)ccc2n1

>  <score_type>  (1) 
oracle

>  <origin>  (1) 
autodockgpu

>  <m_score__min__energy>  (1) 
-8.9700000000000006

>  <m_primary>  (1) 
energy

>  <rmsd>  (1) 
3.049292391215601

>  <m_score__min__rmsd>  (1) 
3.049292391215601

>  <meeko>  (1) 
{"free_energy": -8.35, "intermolecular_energy": -11.03, "internal_energy": -1.49, "cluster_size": 27, "cluster_id": 1, "rank_in_cluster": 13}

>  <energy>  (1) 
-8.97

>  <cluster_rmsd>  (1) 
0.0

>  <cluster>  (1) 
1

$$$$

     RDKit          3D

 56 59  0  0  0  0  0  0  0  0999 V2000
  137.2260   70.0900  221.8930 O   0  0  0  0  0  0  0  0  0  0  0  0
  137.4790   70.8140  222.8890 C   0  0  0  0  0  0  0  0  0  0  0  0
  137.0520   72.1660  223.0030 N   0  0  0  0  0  0  0  0  0  0  0  0
  136.2820   72.7800  221.9330 C   0  0  0  0  0  0  0  0  0  0  0  0
  137.1930   73.5450  221.0460 C   0  0  0  0  0  0  0  0  0  0  0  0
  136.6670   74.4140  220.3040 O   0  0  0  0  0  0  0  0  0  0  0  0
  138.5880   73.2720  221.0720 N   0  0  0  0  0  0  0  0  0  0  0  0
  139.3170   72.4300  220.1110 C   0  0  0  0  0  0  0  0  0  0  0  0
  140.0990   71.5660  221.0780 C   0  0  0  0  0  0  0  0  0  0  0  0
  140.6470   72.6290  222.0040 C   0  0  2  0  0  0  0  0  0  0  0  0
  140.9010   72.1480  223.2790 O   0  0  0  0  0  0  0  0  0  0  0  0
  139.5840   73.7410  222.0170 C   0  0  1  0  0  0  0  0  0  0  0  0
  140.2190   75.0060  221.4260 C   0  0  0  0  0  0  0  0  0  0  0  0
  141.5790   75.0420  221.5410 O   0  0  0  0  0  0  0  0  0  0  0  0
  142.3100   75.0740  220.3880 C   0  0  0  0  0  0  0  0  0  0  0  0
  143.4730   74.1930  220.3240 C   0  0  0  0  0  0  0  0  0  0  0  0
  144.7820   74.5660  220.5210 C   0  0  0  0  0  0  0  0  0  0  0  0
  145.8370   73.6810  220.4440 C   0  0  0  0  0  0  0  0  0  0  0  0
  145.6090   72.3510  220.1580 C   0  0  0  0  0  0  0  0  0  0  0  0
  144.3100   71.9440  219.9540 C   0  0  0  0  0  0  0  0  0  0  0  0
  143.2670   72.8390  220.0350 C   0  0  0  0  0  0  0  0  0  0  0  0
  138.2550   70.2630  224.0150 C   0  0  0  0  0  0  0  0  0  0  0  0
  138.3020   68.8960  224.2470 C   0  0  0  0  0  0  0  0  0  0  0  0
  139.0440   68.3970  225.3200 C   0  0  0  0  0  0  0  0  0  0  0  0
  139.7440   69.2450  226.1680 C   0  0  0  0  0  0  0  0  0  0  0  0
  140.4830   68.7890  227.2310 C   0  0  0  0  0  0  0  0  0  0  0  0
  141.1480   69.7050  228.0230 C   0  0  0  0  0  0  0  0  0  0  0  0
  141.8890   69.2860  229.0850 F   0  0  0  0  0  0  0  0  0  0  0  0
  141.0810   71.0520  227.7670 C   0  0  0  0  0  0  0  0  0  0  0  0
  140.3310   71.5060  226.6880 C   0  0  0  0  0  0  0  0  0  0  0  0
  139.6660   70.6040  225.8940 C   0  0  0  0  0  0  0  0  0  0  0  0
  138.9470   71.0370  224.8610 N   0  0  0  0  0  0  0  0  0  0  0  0
  137.2890   72.7330  223.8600 H   0  0  0  0  0  0  0  0  0  0  0  0
  135.7744   71.9971  221.3503 H   0  0  0  0  0  0  0  0  0  0  0  0
  135.5321   73.4599  222.3636 H   0  0  0  0  0  0  0  0  0  0  0  0
  138.6344   71.8337  219.4877 H   0  0  0  0  0  0  0  0  0  0  0  0
  139.9249   72.9777  219.3758 H   0  0  0  0  0  0  0  0  0  0  0  0
  139.4470   70.8583  221.6109 H   0  0  0  0  0  0  0  0  0  0  0  0
  140.8603   70.9238  220.6111 H   0  0  0  0  0  0  0  0  0  0  0  0
  141.6219   72.9954  221.6499 H   0  0  0  0  0  0  0  0  0  0  0  0
  140.2120   72.4220  223.9190 H   0  0  0  0  0  0  0  0  0  0  0  0
  139.1828   73.9532  223.0190 H   0  0  0  0  0  0  0  0  0  0  0  0
  139.9591   75.0589  220.3584 H   0  0  0  0  0  0  0  0  0  0  0  0
  139.8252   75.8602  221.9963 H   0  0  0  0  0  0  0  0  0  0  0  0
  141.6390   74.8008  219.5603 H   0  0  0  0  0  0  0  0  0  0  0  0
  142.7169   76.0944  220.3320 H   0  0  0  0  0  0  0  0  0  0  0  0
  144.9977   75.6199  220.7508 H   0  0  0  0  0  0  0  0  0  0  0  0
  146.8642   74.0371  220.6113 H   0  0  0  0  0  0  0  0  0  0  0  0
  146.4421   71.6355  220.0947 H   0  0  0  0  0  0  0  0  0  0  0  0
  144.1023   70.8888  219.7230 H   0  0  0  0  0  0  0  0  0  0  0  0
  142.2411   72.4793  219.8676 H   0  0  0  0  0  0  0  0  0  0  0  0
  137.7557   68.2062  223.5869 H   0  0  0  0  0  0  0  0  0  0  0  0
  139.0744   67.3117  225.4966 H   0  0  0  0  0  0  0  0  0  0  0  0
  140.5447   67.7125  227.4486 H   0  0  0  0  0  0  0  0  0  0  0  0
  141.6162   71.7661  228.4101 H   0  0  0  0  0  0  0  0  0  0  0  0
  140.2705   72.5827  226.4712 H   0  0  0  0  0  0  0  0  0  0  0  0
  1  2  2  0
  2  3  1  0
  3  4  1  0
  4  5  1  0
  5  6  2  0
  5  7  1  0
  7  8  1  0
  8  9  1  0
  9 10  1  0
 10 11  1  0
 10 12  1  0
 12 13  1  0
 13 14  1  0
 14 15  1  0
 15 16  1  0
 16 17  2  0
 17 18  1  0
 18 19  2  0
 19 20  1  0
 20 21  2  0
  2 22  1  0
 22 23  2  0
 23 24  1  0
 24 25  2  0
 25 26  1  0
 26 27  2  0
 27 28  1  0
 27 29  1  0
 29 30  2  0
 30 31  1  0
 31 32  2  0
 12  7  1  0
 21 16  1  0
 32 22  1  0
 31 25  1  0
  3 33  1  0
  4 34  1  0
  4 35  1  0
  8 36  1  0
  8 37  1  0
  9 38  1  0
  9 39  1  0
 10 40  1  6
 11 41  1  0
 12 42  1  1
 13 43  1  0
 13 44  1  0
 15 45  1  0
 15 46  1  0
 17 47  1  0
 18 48  1  0
 19 49  1  0
 20 50  1  0
 21 51  1  0
 23 52  1  0
 24 53  1  0
 26 54  1  0
 29 55  1  0
 30 56  1  0
M  END
>  <smiles>  (2) 
O=C(NCC(=O)N1CC[C@H](O)[C@H]1COCc1ccccc1)c1ccc2cc(F)ccc2n1

>  <score_type>  (2) 
oracle

>  <origin>  (2) 
autodockgpu

>  <m_score__min__energy>  (2) 
-8.9700000000000006

>  <m_primary>  (2) 
energy

>  <rmsd>  (2) 
3.4000671303977623

>  <m_score__min__rmsd>  (2) 
3.4000671303977623

>  <meeko>  (2) 
{"free_energy": -6.79, "intermolecular_energy": -9.47, "internal_energy": -3.15, "cluster_size": 1, "cluster_id": 7, "rank_in_cluster": 1}

>  <energy>  (2) 
-8.93

>  <cluster_rmsd>  (2) 
1.22

>  <cluster>  (2) 
1

$$$$

     RDKit          3D

 56 59  0  0  0  0  0  0  0  0999 V2000
  141.8800   72.8490  221.1560 O   0  0  0  0  0  0  0  0  0  0  0  0
  141.0600   73.6720  221.6350 C   0  0  0  0  0  0  0  0  0  0  0  0
  139.9200   73.2890  222.3940 N   0  0  0  0  0  0  0  0  0  0  0  0
  139.6540   71.8830  222.6510 C   0  0  0  0  0  0  0  0  0  0  0  0
  138.1880   71.6520  222.6560 C   0  0  0  0  0  0  0  0  0  0  0  0
  137.4520   72.6700  222.6990 O   0  0  0  0  0  0  0  0  0  0  0  0
  137.6900   70.3210  222.6120 N   0  0  0  0  0  0  0  0  0  0  0  0
  137.3960   69.5530  221.3910 C   0  0  0  0  0  0  0  0  0  0  0  0
  136.0140   69.0430  221.7440 C   0  0  0  0  0  0  0  0  0  0  0  0
  136.2690   68.5270  223.1430 C   0  0  2  0  0  0  0  0  0  0  0  0
  135.1290   68.5370  223.9310 O   0  0  0  0  0  0  0  0  0  0  0  0
  137.3660   69.4390  223.7170 C   0  0  1  0  0  0  0  0  0  0  0  0
  138.6020   68.5730  223.9920 C   0  0  0  0  0  0  0  0  0  0  0  0
  138.7940   68.2970  225.3150 O   0  0  0  0  0  0  0  0  0  0  0  0
  140.0600   68.4320  225.8110 C   0  0  0  0  0  0  0  0  0  0  0  0
  140.3780   69.6990  226.4630 C   0  0  0  0  0  0  0  0  0  0  0  0
  140.0210   70.0640  227.7390 C   0  0  0  0  0  0  0  0  0  0  0  0
  140.3530   71.2820  228.2940 C   0  0  0  0  0  0  0  0  0  0  0  0
  141.0760   72.2040  227.5670 C   0  0  0  0  0  0  0  0  0  0  0  0
  141.4500   71.8710  226.2840 C   0  0  0  0  0  0  0  0  0  0  0  0
  141.1110   70.6510  225.7440 C   0  0  0  0  0  0  0  0  0  0  0  0
  141.2620   75.1160  221.4180 C   0  0  0  0  0  0  0  0  0  0  0  0
  141.9290   75.5810  220.2930 C   0  0  0  0  0  0  0  0  0  0  0  0
  142.1090   76.9540  220.1090 C   0  0  0  0  0  0  0  0  0  0  0  0
  141.6290   77.8740  221.0320 C   0  0  0  0  0  0  0  0  0  0  0  0
  141.7880   79.2290  220.8820 C   0  0  0  0  0  0  0  0  0  0  0  0
  141.2790   80.0720  221.8520 C   0  0  0  0  0  0  0  0  0  0  0  0
  141.4190   81.4200  221.7330 F   0  0  0  0  0  0  0  0  0  0  0  0
  140.6240   79.5800  222.9530 C   0  0  0  0  0  0  0  0  0  0  0  0
  140.4670   78.2060  223.0980 C   0  0  0  0  0  0  0  0  0  0  0  0
  140.9690   77.3590  222.1400 C   0  0  0  0  0  0  0  0  0  0  0  0
  140.8200   76.0430  222.2770 N   0  0  0  0  0  0  0  0  0  0  0  0
  139.2600   74.0180  222.7760 H   0  0  0  0  0  0  0  0  0  0  0  0
  140.1193   71.2715  221.8638 H   0  0  0  0  0  0  0  0  0  0  0  0
  140.0738   71.6021  223.6282 H   0  0  0  0  0  0  0  0  0  0  0  0
  137.3811   70.1935  220.4968 H   0  0  0  0  0  0  0  0  0  0  0  0
  138.1318   68.7754  221.1381 H   0  0  0  0  0  0  0  0  0  0  0  0
  135.2675   69.8509  221.7374 H   0  0  0  0  0  0  0  0  0  0  0  0
  135.6041   68.2990  221.0451 H   0  0  0  0  0  0  0  0  0  0  0  0
  136.5802   67.4721  223.1239 H   0  0  0  0  0  0  0  0  0  0  0  0
  134.9680   69.4160  224.3330 H   0  0  0  0  0  0  0  0  0  0  0  0
  137.0632   69.9661  224.6338 H   0  0  0  0  0  0  0  0  0  0  0  0
  138.4870   67.6218  223.4517 H   0  0  0  0  0  0  0  0  0  0  0  0
  139.4780   69.1449  223.6520 H   0  0  0  0  0  0  0  0  0  0  0  0
  140.2166   67.6299  226.5473 H   0  0  0  0  0  0  0  0  0  0  0  0
  140.7206   68.3855  224.9327 H   0  0  0  0  0  0  0  0  0  0  0  0
  139.4434   69.3513  228.3460 H   0  0  0  0  0  0  0  0  0  0  0  0
  140.0396   71.5191  229.3214 H   0  0  0  0  0  0  0  0  0  0  0  0
  141.3466   73.1784  227.9997 H   0  0  0  0  0  0  0  0  0  0  0  0
  142.0271   72.5892  225.6830 H   0  0  0  0  0  0  0  0  0  0  0  0
  141.4255   70.4169  224.7163 H   0  0  0  0  0  0  0  0  0  0  0  0
  142.3151   74.8698  219.5479 H   0  0  0  0  0  0  0  0  0  0  0  0
  142.6411   77.3134  219.2159 H   0  0  0  0  0  0  0  0  0  0  0  0
  142.3115   79.6371  220.0049 H   0  0  0  0  0  0  0  0  0  0  0  0
  140.2264   80.2670  223.7146 H   0  0  0  0  0  0  0  0  0  0  0  0
  139.9433   77.7992  223.9757 H   0  0  0  0  0  0  0  0  0  0  0  0
  1  2  2  0
  2  3  1  0
  3  4  1  0
  4  5  1  0
  5  6  2  0
  5  7  1  0
  7  8  1  0
  8  9  1  0
  9 10  1  0
 10 11  1  0
 10 12  1  0
 12 13  1  0
 13 14  1  0
 14 15  1  0
 15 16  1  0
 16 17  2  0
 17 18  1  0
 18 19  2  0
 19 20  1  0
 20 21  2  0
  2 22  1  0
 22 23  2  0
 23 24  1  0
 24 25  2  0
 25 26  1  0
 26 27  2  0
 27 28  1  0
 27 29  1  0
 29 30  2  0
 30 31  1  0
 31 32  2  0
 12  7  1  0
 21 16  1  0
 32 22  1  0
 31 25  1  0
  3 33  1  0
  4 34  1  0
  4 35  1  0
  8 36  1  0
  8 37  1  0
  9 38  1  0
  9 39  1  0
 10 40  1  6
 11 41  1  0
 12 42  1  1
 13 43  1  0
 13 44  1  0
 15 45  1  0
 15 46  1  0
 17 47  1  0
 18 48  1  0
 19 49  1  0
 20 50  1  0
 21 51  1  0
 23 52  1  0
 24 53  1  0
 26 54  1  0
 29 55  1  0
 30 56  1  0
M  END
>  <smiles>  (3) 
O=C(NCC(=O)N1CC[C@H](O)[C@H]1COCc1ccccc1)c1ccc2cc(F)ccc2n1

>  <score_type>  (3) 
oracle

>  <origin>  (3) 
autodockgpu

>  <m_score__min__energy>  (3) 
-8.9700000000000006

>  <m_primary>  (3) 
energy

>  <rmsd>  (3) 
8.683104416201044

>  <m_score__min__rmsd>  (3) 
8.683104416201044

>  <meeko>  (3) 
{"free_energy": -8.25, "intermolecular_energy": -10.93, "internal_energy": -2.24, "cluster_size": 7, "cluster_id": 2, "rank_in_cluster": 3}

>  <energy>  (3) 
-8.82

>  <cluster_rmsd>  (3) 
0.68

>  <cluster>  (3) 
1

$$$$

     RDKit          3D

 56 59  0  0  0  0  0  0  0  0999 V2000
  140.3620   71.3890  220.9680 O   0  0  0  0  0  0  0  0  0  0  0  0
  140.0630   71.9380  222.0590 C   0  0  0  0  0  0  0  0  0  0  0  0
  139.8150   73.3320  222.1910 N   0  0  0  0  0  0  0  0  0  0  0  0
  139.9010   74.2010  221.0290 C   0  0  0  0  0  0  0  0  0  0  0  0
  140.0260   75.6110  221.4750 C   0  0  0  0  0  0  0  0  0  0  0  0
  139.9620   75.8230  222.7130 O   0  0  0  0  0  0  0  0  0  0  0  0
  140.2100   76.6370  220.5090 N   0  0  0  0  0  0  0  0  0  0  0  0
  140.4090   76.4330  219.0650 C   0  0  0  0  0  0  0  0  0  0  0  0
  141.6090   77.3310  218.8480 C   0  0  0  0  0  0  0  0  0  0  0  0
  141.1440   78.5780  219.5680 C   0  0  2  0  0  0  0  0  0  0  0  0
  142.1960   79.3430  220.0440 O   0  0  0  0  0  0  0  0  0  0  0  0
  140.2440   78.0730  220.7090 C   0  0  1  0  0  0  0  0  0  0  0  0
  138.8270   78.6060  220.4630 C   0  0  0  0  0  0  0  0  0  0  0  0
  138.5000   79.6740  221.2480 O   0  0  0  0  0  0  0  0  0  0  0  0
  138.7810   79.5880  222.5820 C   0  0  0  0  0  0  0  0  0  0  0  0
  140.1180   80.0030  222.9980 C   0  0  0  0  0  0  0  0  0  0  0  0
  140.6690   81.2500  222.8220 C   0  0  0  0  0  0  0  0  0  0  0  0
  141.9430   81.5760  223.2380 C   0  0  0  0  0  0  0  0  0  0  0  0
  142.7320   80.6340  223.8640 C   0  0  0  0  0  0  0  0  0  0  0  0
  142.2110   79.3740  224.0570 C   0  0  0  0  0  0  0  0  0  0  0  0
  140.9370   79.0640  223.6360 C   0  0  0  0  0  0  0  0  0  0  0  0
  139.9560   71.1230  223.2820 C   0  0  0  0  0  0  0  0  0  0  0  0
  139.4020   69.8510  223.2450 C   0  0  0  0  0  0  0  0  0  0  0  0
  139.3120   69.0970  224.4180 C   0  0  0  0  0  0  0  0  0  0  0  0
  139.7680   69.5950  225.6310 C   0  0  0  0  0  0  0  0  0  0  0  0
  139.6940   68.8810  226.8020 C   0  0  0  0  0  0  0  0  0  0  0  0
  140.1730   69.4560  227.9640 C   0  0  0  0  0  0  0  0  0  0  0  0
  140.1150   68.7750  229.1410 F   0  0  0  0  0  0  0  0  0  0  0  0
  140.7150   70.7170  227.9670 C   0  0  0  0  0  0  0  0  0  0  0  0
  140.7860   71.4320  226.7770 C   0  0  0  0  0  0  0  0  0  0  0  0
  140.3130   70.8710  225.6160 C   0  0  0  0  0  0  0  0  0  0  0  0
  140.3800   71.5550  224.4760 N   0  0  0  0  0  0  0  0  0  0  0  0
  139.5670   73.7460  223.1280 H   0  0  0  0  0  0  0  0  0  0  0  0
  140.7817   73.9263  220.4299 H   0  0  0  0  0  0  0  0  0  0  0  0
  138.9930   74.0883  220.4184 H   0  0  0  0  0  0  0  0  0  0  0  0
  140.6338   75.3830  218.8262 H   0  0  0  0  0  0  0  0  0  0  0  0
  139.5355   76.6590  218.4357 H   0  0  0  0  0  0  0  0  0  0  0  0
  142.5186   76.9127  219.3037 H   0  0  0  0  0  0  0  0  0  0  0  0
  141.8871   77.4830  217.7946 H   0  0  0  0  0  0  0  0  0  0  0  0
  140.6041   79.2504  218.8850 H   0  0  0  0  0  0  0  0  0  0  0  0
  142.7390   78.8550  220.6980 H   0  0  0  0  0  0  0  0  0  0  0  0
  140.5920   78.3750  221.7079 H   0  0  0  0  0  0  0  0  0  0  0  0
  138.7489   78.9122  219.4094 H   0  0  0  0  0  0  0  0  0  0  0  0
  138.1290   77.7944  220.7162 H   0  0  0  0  0  0  0  0  0  0  0  0
  138.0549   80.2176  223.1170 H   0  0  0  0  0  0  0  0  0  0  0  0
  138.7231   78.5159  222.8214 H   0  0  0  0  0  0  0  0  0  0  0  0
  140.0654   82.0244  222.3260 H   0  0  0  0  0  0  0  0  0  0  0  0
  142.3312   82.5914  223.0698 H   0  0  0  0  0  0  0  0  0  0  0  0
  143.7496   80.8823  224.1999 H   0  0  0  0  0  0  0  0  0  0  0  0
  142.8205   78.6050  224.5540 H   0  0  0  0  0  0  0  0  0  0  0  0
  140.5513   78.0480  223.8062 H   0  0  0  0  0  0  0  0  0  0  0  0
  139.0345   69.4373  222.2943 H   0  0  0  0  0  0  0  0  0  0  0  0
  138.8715   68.0898  224.3796 H   0  0  0  0  0  0  0  0  0  0  0  0
  139.2613   67.8698  226.8148 H   0  0  0  0  0  0  0  0  0  0  0  0
  141.0898   71.1578  228.9025 H   0  0  0  0  0  0  0  0  0  0  0  0
  141.2193   72.4430  226.7652 H   0  0  0  0  0  0  0  0  0  0  0  0
  1  2  2  0
  2  3  1  0
  3  4  1  0
  4  5  1  0
  5  6  2  0
  5  7  1  0
  7  8  1  0
  8  9  1  0
  9 10  1  0
 10 11  1  0
 10 12  1  0
 12 13  1  0
 13 14  1  0
 14 15  1  0
 15 16  1  0
 16 17  2  0
 17 18  1  0
 18 19  2  0
 19 20  1  0
 20 21  2  0
  2 22  1  0
 22 23  2  0
 23 24  1  0
 24 25  2  0
 25 26  1  0
 26 27  2  0
 27 28  1  0
 27 29  1  0
 29 30  2  0
 30 31  1  0
 31 32  2  0
 12  7  1  0
 21 16  1  0
 32 22  1  0
 31 25  1  0
  3 33  1  0
  4 34  1  0
  4 35  1  0
  8 36  1  0
  8 37  1  0
  9 38  1  0
  9 39  1  0
 10 40  1  6
 11 41  1  0
 12 42  1  1
 13 43  1  0
 13 44  1  0
 15 45  1  0
 15 46  1  0
 17 47  1  0
 18 48  1  0
 19 49  1  0
 20 50  1  0
 21 51  1  0
 23 52  1  0
 24 53  1  0
 26 54  1  0
 29 55  1  0
 30 56  1  0
M  END
>  <smiles>  (4) 
O=C(NCC(=O)N1CC[C@H](O)[C@H]1COCc1ccccc1)c1ccc2cc(F)ccc2n1

>  <score_type>  (4) 
oracle

>  <origin>  (4) 
autodockgpu

>  <m_score__min__energy>  (4) 
-8.9700000000000006

>  <m_primary>  (4) 
energy

>  <rmsd>  (4) 
2.262402614664983

>  <m_score__min__rmsd>  (4) 
2.262402614664983

>  <meeko>  (4) 
{"free_energy": -8.09, "intermolecular_energy": -10.78, "internal_energy": -2.35, "cluster_size": 27, "cluster_id": 1, "rank_in_cluster": 20}

>  <energy>  (4) 
-8.82

>  <cluster_rmsd>  (4) 
0.46

>  <cluster>  (4) 
1

$$$$

     RDKit          3D

 56 59  0  0  0  0  0  0  0  0999 V2000
  142.0760   72.6780  220.8130 O   0  0  0  0  0  0  0  0  0  0  0  0
  141.2970   73.4490  221.4290 C   0  0  0  0  0  0  0  0  0  0  0  0
  140.2870   72.9940  222.3200 N   0  0  0  0  0  0  0  0  0  0  0  0
  140.1120   71.5700  222.5580 C   0  0  0  0  0  0  0  0  0  0  0  0
  138.6720   71.2770  222.7610 C   0  0  0  0  0  0  0  0  0  0  0  0
  137.9370   72.2400  223.0980 O   0  0  0  0  0  0  0  0  0  0  0  0
  138.1940   69.9520  222.5690 N   0  0  0  0  0  0  0  0  0  0  0  0
  138.1340   69.2370  221.2840 C   0  0  0  0  0  0  0  0  0  0  0  0
  136.7120   68.7200  221.3520 C   0  0  0  0  0  0  0  0  0  0  0  0
  136.7030   68.1450  222.7510 C   0  0  2  0  0  0  0  0  0  0  0  0
  135.4360   68.1290  223.3130 O   0  0  0  0  0  0  0  0  0  0  0  0
  137.6720   69.0260  223.5570 C   0  0  1  0  0  0  0  0  0  0  0  0
  138.8370   68.1430  224.0200 C   0  0  0  0  0  0  0  0  0  0  0  0
  138.8340   67.8930  225.3630 O   0  0  0  0  0  0  0  0  0  0  0  0
  140.0150   68.0330  226.0340 C   0  0  0  0  0  0  0  0  0  0  0  0
  140.3370   69.3710  226.5240 C   0  0  0  0  0  0  0  0  0  0  0  0
  140.0510   69.8640  227.7750 C   0  0  0  0  0  0  0  0  0  0  0  0
  140.3810   71.1420  228.1740 C   0  0  0  0  0  0  0  0  0  0  0  0
  141.0290   71.9960  227.3050 C   0  0  0  0  0  0  0  0  0  0  0  0
  141.3300   71.5340  226.0440 C   0  0  0  0  0  0  0  0  0  0  0  0
  140.9940   70.2540  225.6600 C   0  0  0  0  0  0  0  0  0  0  0  0
  141.4120   74.9060  221.2400 C   0  0  0  0  0  0  0  0  0  0  0  0
  142.1930   75.4340  220.2210 C   0  0  0  0  0  0  0  0  0  0  0  0
  142.2870   76.8180  220.0620 C   0  0  0  0  0  0  0  0  0  0  0  0
  141.6090   77.6880  220.9070 C   0  0  0  0  0  0  0  0  0  0  0  0
  141.6790   79.0530  220.7780 C   0  0  0  0  0  0  0  0  0  0  0  0
  140.9720   79.8440  221.6640 C   0  0  0  0  0  0  0  0  0  0  0  0
  141.0200   81.1990  221.5640 F   0  0  0  0  0  0  0  0  0  0  0  0
  140.2080   79.2900  222.6620 C   0  0  0  0  0  0  0  0  0  0  0  0
  140.1430   77.9070  222.7850 C   0  0  0  0  0  0  0  0  0  0  0  0
  140.8420   77.1120  221.9100 C   0  0  0  0  0  0  0  0  0  0  0  0
  140.7810   75.7870  222.0260 N   0  0  0  0  0  0  0  0  0  0  0  0
  139.6580   73.6810  222.8150 H   0  0  0  0  0  0  0  0  0  0  0  0
  140.4826   71.0047  221.6902 H   0  0  0  0  0  0  0  0  0  0  0  0
  140.6766   71.2756  223.4550 H   0  0  0  0  0  0  0  0  0  0  0  0
  138.2841   69.9141  220.4302 H   0  0  0  0  0  0  0  0  0  0  0  0
  138.9060   68.4667  221.1402 H   0  0  0  0  0  0  0  0  0  0  0  0
  135.9777   69.5314  221.2403 H   0  0  0  0  0  0  0  0  0  0  0  0
  136.4415   68.0077  220.5586 H   0  0  0  0  0  0  0  0  0  0  0  0
  137.0145   67.0900  222.7458 H   0  0  0  0  0  0  0  0  0  0  0  0
  135.1330   69.0270  223.5620 H   0  0  0  0  0  0  0  0  0  0  0  0
  137.2027   69.5158  224.4230 H   0  0  0  0  0  0  0  0  0  0  0  0
  138.7782   67.1823  223.4874 H   0  0  0  0  0  0  0  0  0  0  0  0
  139.7648   68.6897  223.7959 H   0  0  0  0  0  0  0  0  0  0  0  0
  139.9871   67.3580  226.9021 H   0  0  0  0  0  0  0  0  0  0  0  0
  140.7962   67.8000  225.2955 H   0  0  0  0  0  0  0  0  0  0  0  0
  139.5346   69.2081  228.4914 H   0  0  0  0  0  0  0  0  0  0  0  0
  140.1268   71.4820  229.1888 H   0  0  0  0  0  0  0  0  0  0  0  0
  141.2975   73.0177  227.6117 H   0  0  0  0  0  0  0  0  0  0  0  0
  141.8460   72.1958  225.3328 H   0  0  0  0  0  0  0  0  0  0  0  0
  141.2497   69.9166  224.6447 H   0  0  0  0  0  0  0  0  0  0  0  0
  142.7369   74.7631  219.5398 H   0  0  0  0  0  0  0  0  0  0  0  0
  142.9095   77.2272  219.2526 H   0  0  0  0  0  0  0  0  0  0  0  0
  142.2873   79.5094  219.9832 H   0  0  0  0  0  0  0  0  0  0  0  0
  139.6522   79.9354  223.3581 H   0  0  0  0  0  0  0  0  0  0  0  0
  139.5343   77.4512  223.5798 H   0  0  0  0  0  0  0  0  0  0  0  0
  1  2  2  0
  2  3  1  0
  3  4  1  0
  4  5  1  0
  5  6  2  0
  5  7  1  0
  7  8  1  0
  8  9  1  0
  9 10  1  0
 10 11  1  0
 10 12  1  0
 12 13  1  0
 13 14  1  0
 14 15  1  0
 15 16  1  0
 16 17  2  0
 17 18  1  0
 18 19  2  0
 19 20  1  0
 20 21  2  0
  2 22  1  0
 22 23  2  0
 23 24  1  0
 24 25  2  0
 25 26  1  0
 26 27  2  0
 27 28  1  0
 27 29  1  0
 29 30  2  0
 30 31  1  0
 31 32  2  0
 12  7  1  0
 21 16  1  0
 32 22  1  0
 31 25  1  0
  3 33  1  0
  4 34  1  0
  4 35  1  0
  8 36  1  0
  8 37  1  0
  9 38  1  0
  9 39  1  0
 10 40  1  6
 11 41  1  0
 12 42  1  1
 13 43  1  0
 13 44  1  0
 15 45  1  0
 15 46  1  0
 17 47  1  0
 18 48  1  0
 19 49  1  0
 20 50  1  0
 21 51  1  0
 23 52  1  0
 24 53  1  0
 26 54  1  0
 29 55  1  0
 30 56  1  0
M  END
>  <smiles>  (5) 
O=C(NCC(=O)N1CC[C@H](O)[C@H]1COCc1ccccc1)c1ccc2cc(F)ccc2n1

>  <score_type>  (5) 
oracle

>  <origin>  (5) 
autodockgpu

>  <m_score__min__energy>  (5) 
-8.9700000000000006

>  <m_primary>  (5) 
energy

>  <rmsd>  (5) 
8.671148977215266

>  <m_score__min__rmsd>  (5) 
8.671148977215266

>  <meeko>  (5) 
{"free_energy": -7.91, "intermolecular_energy": -10.59, "internal_energy": -2.4, "cluster_size": 7, "cluster_id": 2, "rank_in_cluster": 7}

>  <energy>  (5) 
-8.81

>  <cluster_rmsd>  (5) 
0.63

>  <cluster>  (5) 
1

$$$$

     RDKit          3D

 56 59  0  0  0  0  0  0  0  0999 V2000
  138.9650   74.6550  221.8050 O   0  0  0  0  0  0  0  0  0  0  0  0
  140.1050   75.1810  221.8640 C   0  0  0  0  0  0  0  0  0  0  0  0
  141.3060   74.4840  221.5570 N   0  0  0  0  0  0  0  0  0  0  0  0
  141.2560   73.0890  221.1510 C   0  0  0  0  0  0  0  0  0  0  0  0
  141.6560   72.9750  219.7270 C   0  0  0  0  0  0  0  0  0  0  0  0
  140.7740   72.5900  218.9170 O   0  0  0  0  0  0  0  0  0  0  0  0
  142.9870   73.2980  219.3460 N   0  0  0  0  0  0  0  0  0  0  0  0
  143.5400   73.2000  217.9860 C   0  0  0  0  0  0  0  0  0  0  0  0
  144.8240   72.4560  218.2910 C   0  0  0  0  0  0  0  0  0  0  0  0
  145.3340   73.2700  219.4590 C   0  0  2  0  0  0  0  0  0  0  0  0
  146.1450   72.5350  220.3090 O   0  0  0  0  0  0  0  0  0  0  0  0
  144.0740   73.7820  220.1770 C   0  0  1  0  0  0  0  0  0  0  0  0
  144.0710   75.3130  220.0910 C   0  0  0  0  0  0  0  0  0  0  0  0
  142.8510   75.8420  219.7820 O   0  0  0  0  0  0  0  0  0  0  0  0
  142.7520   76.5720  218.6310 C   0  0  0  0  0  0  0  0  0  0  0  0
  142.2290   77.9290  218.7590 C   0  0  0  0  0  0  0  0  0  0  0  0
  141.0920   78.2980  219.4390 C   0  0  0  0  0  0  0  0  0  0  0  0
  140.6520   79.6020  219.5180 C   0  0  0  0  0  0  0  0  0  0  0  0
  141.3570   80.6130  218.8990 C   0  0  0  0  0  0  0  0  0  0  0  0
  142.5010   80.2790  218.2090 C   0  0  0  0  0  0  0  0  0  0  0  0
  142.9280   78.9720  218.1390 C   0  0  0  0  0  0  0  0  0  0  0  0
  140.2380   76.5930  222.2670 C   0  0  0  0  0  0  0  0  0  0  0  0
  139.1250   77.3410  222.6230 C   0  0  0  0  0  0  0  0  0  0  0  0
  139.2760   78.6770  223.0030 C   0  0  0  0  0  0  0  0  0  0  0  0
  140.5260   79.2800  223.0330 C   0  0  0  0  0  0  0  0  0  0  0  0
  140.7100   80.5900  223.4000 C   0  0  0  0  0  0  0  0  0  0  0  0
  141.9910   81.1080  223.4020 C   0  0  0  0  0  0  0  0  0  0  0  0
  142.2080   82.4030  223.7610 F   0  0  0  0  0  0  0  0  0  0  0  0
  143.0720   80.3420  223.0440 C   0  0  0  0  0  0  0  0  0  0  0  0
  142.8770   79.0160  222.6730 C   0  0  0  0  0  0  0  0  0  0  0  0
  141.6080   78.4910  222.6690 C   0  0  0  0  0  0  0  0  0  0  0  0
  141.4200   77.2210  222.3140 N   0  0  0  0  0  0  0  0  0  0  0  0
  142.2400   74.9700  221.6210 H   0  0  0  0  0  0  0  0  0  0  0  0
  141.9456   72.5006  221.7740 H   0  0  0  0  0  0  0  0  0  0  0  0
  140.2323   72.7065  221.2766 H   0  0  0  0  0  0  0  0  0  0  0  0
  142.8826   72.6264  217.3161 H   0  0  0  0  0  0  0  0  0  0  0  0
  143.6676   74.1589  217.4623 H   0  0  0  0  0  0  0  0  0  0  0  0
  144.6316   71.4111  218.5758 H   0  0  0  0  0  0  0  0  0  0  0  0
  145.5225   72.3751  217.4451 H   0  0  0  0  0  0  0  0  0  0  0  0
  145.9746   74.0949  219.1138 H   0  0  0  0  0  0  0  0  0  0  0  0
  145.6330   71.8900  220.8400 H   0  0  0  0  0  0  0  0  0  0  0  0
  144.0084   73.4635  221.2278 H   0  0  0  0  0  0  0  0  0  0  0  0
  144.3882   75.7163  221.0640 H   0  0  0  0  0  0  0  0  0  0  0  0
  144.7577   75.5911  219.2779 H   0  0  0  0  0  0  0  0  0  0  0  0
  143.7587   76.6425  218.1932 H   0  0  0  0  0  0  0  0  0  0  0  0
  142.0182   76.0364  218.0108 H   0  0  0  0  0  0  0  0  0  0  0  0
  140.5060   77.5157  219.9436 H   0  0  0  0  0  0  0  0  0  0  0  0
  139.7345   79.8373  220.0773 H   0  0  0  0  0  0  0  0  0  0  0  0
  141.0150   81.6570  218.9549 H   0  0  0  0  0  0  0  0  0  0  0  0
  143.0815   81.0671  217.7070 H   0  0  0  0  0  0  0  0  0  0  0  0
  143.8460   78.7400  217.5791 H   0  0  0  0  0  0  0  0  0  0  0  0
  138.1251   76.8828  222.6061 H   0  0  0  0  0  0  0  0  0  0  0  0
  138.3877   79.2620  223.2837 H   0  0  0  0  0  0  0  0  0  0  0  0
  139.8526   81.2163  223.6874 H   0  0  0  0  0  0  0  0  0  0  0  0
  144.0840   80.7732  223.0505 H   0  0  0  0  0  0  0  0  0  0  0  0
  143.7348   78.3909  222.3842 H   0  0  0  0  0  0  0  0  0  0  0  0
  1  2  2  0
  2  3  1  0
  3  4  1  0
  4  5  1  0
  5  6  2  0
  5  7  1  0
  7  8  1  0
  8  9  1  0
  9 10  1  0
 10 11  1  0
 10 12  1  0
 12 13  1  0
 13 14  1  0
 14 15  1  0
 15 16  1  0
 16 17  2  0
 17 18  1  0
 18 19  2  0
 19 20  1  0
 20 21  2  0
  2 22  1  0
 22 23  2  0
 23 24  1  0
 24 25  2  0
 25 26  1  0
 26 27  2  0
 27 28  1  0
 27 29  1  0
 29 30  2  0
 30 31  1  0
 31 32  2  0
 12  7  1  0
 21 16  1  0
 32 22  1  0
 31 25  1  0
  3 33  1  0
  4 34  1  0
  4 35  1  0
  8 36  1  0
  8 37  1  0
  9 38  1  0
  9 39  1  0
 10 40  1  6
 11 41  1  0
 12 42  1  1
 13 43  1  0
 13 44  1  0
 15 45  1  0
 15 46  1  0
 17 47  1  0
 18 48  1  0
 19 49  1  0
 20 50  1  0
 21 51  1  0
 23 52  1  0
 24 53  1  0
 26 54  1  0
 29 55  1  0
 30 56  1  0
M  END
>  <smiles>  (6) 
O=C(NCC(=O)N1CC[C@H](O)[C@H]1COCc1ccccc1)c1ccc2cc(F)ccc2n1

>  <score_type>  (6) 
oracle

>  <origin>  (6) 
autodockgpu

>  <m_score__min__energy>  (6) 
-8.9700000000000006

>  <m_primary>  (6) 
energy

>  <rmsd>  (6) 
7.667210183265513

>  <m_score__min__rmsd>  (6) 
7.667210183265513

>  <meeko>  (6) 
{"free_energy": -6.14, "intermolecular_energy": -8.82, "internal_energy": -3.87, "cluster_size": 5, "cluster_id": 5, "rank_in_cluster": 4}

>  <energy>  (6) 
-8.78

>  <cluster_rmsd>  (6) 
0.53

>  <cluster>  (6) 
1

$$$$

     RDKit          3D

 56 59  0  0  0  0  0  0  0  0999 V2000
  141.1340   72.3450  221.7390 O   0  0  0  0  0  0  0  0  0  0  0  0
  140.1360   72.3300  222.5020 C   0  0  0  0  0  0  0  0  0  0  0  0
  139.0150   73.1890  222.3430 N   0  0  0  0  0  0  0  0  0  0  0  0
  138.9830   74.1500  221.2520 C   0  0  0  0  0  0  0  0  0  0  0  0
  140.0380   75.1720  221.4640 C   0  0  0  0  0  0  0  0  0  0  0  0
  140.0570   75.7460  222.5830 O   0  0  0  0  0  0  0  0  0  0  0  0
  140.9600   75.4520  220.4190 N   0  0  0  0  0  0  0  0  0  0  0  0
  141.2760   74.5630  219.2900 C   0  0  0  0  0  0  0  0  0  0  0  0
  142.7890   74.6160  219.3460 C   0  0  0  0  0  0  0  0  0  0  0  0
  143.0010   76.1090  219.4570 C   0  0  2  0  0  0  0  0  0  0  0  0
  144.1870   76.4330  220.0950 O   0  0  0  0  0  0  0  0  0  0  0  0
  141.7780   76.6350  220.2270 C   0  0  1  0  0  0  0  0  0  0  0  0
  141.0070   77.5800  219.2980 C   0  0  0  0  0  0  0  0  0  0  0  0
  139.9440   78.1920  219.8990 O   0  0  0  0  0  0  0  0  0  0  0  0
  140.1350   79.4540  220.3870 C   0  0  0  0  0  0  0  0  0  0  0  0
  140.9380   79.5710  221.6020 C   0  0  0  0  0  0  0  0  0  0  0  0
  140.8510   78.7620  222.7100 C   0  0  0  0  0  0  0  0  0  0  0  0
  141.6410   78.9310  223.8280 C   0  0  0  0  0  0  0  0  0  0  0  0
  142.5720   79.9470  223.8750 C   0  0  0  0  0  0  0  0  0  0  0  0
  142.6840   80.7760  222.7820 C   0  0  0  0  0  0  0  0  0  0  0  0
  141.8890   80.5950  221.6720 C   0  0  0  0  0  0  0  0  0  0  0  0
  140.0940   71.3830  223.6310 C   0  0  0  0  0  0  0  0  0  0  0  0
  139.5510   70.1150  223.4780 C   0  0  0  0  0  0  0  0  0  0  0  0
  139.5220   69.2340  224.5630 C   0  0  0  0  0  0  0  0  0  0  0  0
  140.0310   69.6010  225.8020 C   0  0  0  0  0  0  0  0  0  0  0  0
  140.0190   68.7610  226.8880 C   0  0  0  0  0  0  0  0  0  0  0  0
  140.5480   69.2100  228.0840 C   0  0  0  0  0  0  0  0  0  0  0  0
  140.5510   68.4020  229.1780 F   0  0  0  0  0  0  0  0  0  0  0  0
  141.0780   70.4700  228.2020 C   0  0  0  0  0  0  0  0  0  0  0  0
  141.0860   71.3140  227.0970 C   0  0  0  0  0  0  0  0  0  0  0  0
  140.5640   70.8790  225.9040 C   0  0  0  0  0  0  0  0  0  0  0  0
  140.5710   71.6860  224.8450 N   0  0  0  0  0  0  0  0  0  0  0  0
  138.2000   73.1380  223.0100 H   0  0  0  0  0  0  0  0  0  0  0  0
  139.1621   73.6299  220.2994 H   0  0  0  0  0  0  0  0  0  0  0  0
  137.9983   74.6393  221.2222 H   0  0  0  0  0  0  0  0  0  0  0  0
  140.8948   73.5438  219.4511 H   0  0  0  0  0  0  0  0  0  0  0  0
  140.8326   74.8543  218.3264 H   0  0  0  0  0  0  0  0  0  0  0  0
  143.1831   74.0823  220.2234 H   0  0  0  0  0  0  0  0  0  0  0  0
  143.2990   74.1397  218.4957 H   0  0  0  0  0  0  0  0  0  0  0  0
  143.0897   76.5700  218.4622 H   0  0  0  0  0  0  0  0  0  0  0  0
  144.1340   77.2980  220.5530 H   0  0  0  0  0  0  0  0  0  0  0  0
  142.0383   77.1538  221.1614 H   0  0  0  0  0  0  0  0  0  0  0  0
  141.6988   78.3569  218.9405 H   0  0  0  0  0  0  0  0  0  0  0  0
  140.6046   76.9678  218.4775 H   0  0  0  0  0  0  0  0  0  0  0  0
  140.6300   80.0441  219.6017 H   0  0  0  0  0  0  0  0  0  0  0  0
  139.1329   79.8118  220.6660 H   0  0  0  0  0  0  0  0  0  0  0  0
  140.1176   77.9422  222.7048 H   0  0  0  0  0  0  0  0  0  0  0  0
  141.5278   78.2521  224.6861 H   0  0  0  0  0  0  0  0  0  0  0  0
  143.2075   80.0910  224.7613 H   0  0  0  0  0  0  0  0  0  0  0  0
  143.4187   81.5945  222.7952 H   0  0  0  0  0  0  0  0  0  0  0  0
  142.0051   81.2753  220.8154 H   0  0  0  0  0  0  0  0  0  0  0  0
  139.1441   69.8037  222.5046 H   0  0  0  0  0  0  0  0  0  0  0  0
  139.0880   68.2316  224.4330 H   0  0  0  0  0  0  0  0  0  0  0  0
  139.5960   67.7487  226.8080 H   0  0  0  0  0  0  0  0  0  0  0  0
  141.4930   70.8096  229.1624 H   0  0  0  0  0  0  0  0  0  0  0  0
  141.5089   72.3262  227.1783 H   0  0  0  0  0  0  0  0  0  0  0  0
  1  2  2  0
  2  3  1  0
  3  4  1  0
  4  5  1  0
  5  6  2  0
  5  7  1  0
  7  8  1  0
  8  9  1  0
  9 10  1  0
 10 11  1  0
 10 12  1  0
 12 13  1  0
 13 14  1  0
 14 15  1  0
 15 16  1  0
 16 17  2  0
 17 18  1  0
 18 19  2  0
 19 20  1  0
 20 21  2  0
  2 22  1  0
 22 23  2  0
 23 24  1  0
 24 25  2  0
 25 26  1  0
 26 27  2  0
 27 28  1  0
 27 29  1  0
 29 30  2  0
 30 31  1  0
 31 32  2  0
 12  7  1  0
 21 16  1  0
 32 22  1  0
 31 25  1  0
  3 33  1  0
  4 34  1  0
  4 35  1  0
  8 36  1  0
  8 37  1  0
  9 38  1  0
  9 39  1  0
 10 40  1  6
 11 41  1  0
 12 42  1  1
 13 43  1  0
 13 44  1  0
 15 45  1  0
 15 46  1  0
 17 47  1  0
 18 48  1  0
 19 49  1  0
 20 50  1  0
 21 51  1  0
 23 52  1  0
 24 53  1  0
 26 54  1  0
 29 55  1  0
 30 56  1  0
M  END
>  <smiles>  (7) 
O=C(NCC(=O)N1CC[C@H](O)[C@H]1COCc1ccccc1)c1ccc2cc(F)ccc2n1

>  <score_type>  (7) 
oracle

>  <origin>  (7) 
autodockgpu

>  <m_score__min__energy>  (7) 
-8.9700000000000006

>  <m_primary>  (7) 
energy

>  <rmsd>  (7) 
2.0122133074888877

>  <m_score__min__rmsd>  (7) 
2.0122133074888877

>  <meeko>  (7) 
{"free_energy": -8.78, "intermolecular_energy": -11.47, "internal_energy": -1.87, "cluster_size": 27, "cluster_id": 1, "rank_in_cluster": 6}

>  <energy>  (7) 
-8.73

>  <cluster_rmsd>  (7) 
1.1

>  <cluster>  (7) 
1

$$$$

     RDKit          3D

 56 59  0  0  0  0  0  0  0  0999 V2000
  141.4190   72.1440  221.4000 O   0  0  0  0  0  0  0  0  0  0  0  0
  140.6310   72.5200  222.3030 C   0  0  0  0  0  0  0  0  0  0  0  0
  139.9970   73.7920  222.3090 N   0  0  0  0  0  0  0  0  0  0  0  0
  140.2490   74.7370  221.2330 C   0  0  0  0  0  0  0  0  0  0  0  0
  140.0860   76.1210  221.7440 C   0  0  0  0  0  0  0  0  0  0  0  0
  139.2470   76.2930  222.6640 O   0  0  0  0  0  0  0  0  0  0  0  0
  140.8680   77.1690  221.1840 N   0  0  0  0  0  0  0  0  0  0  0  0
  141.4810   78.2780  221.9330 C   0  0  0  0  0  0  0  0  0  0  0  0
  141.0350   79.4390  221.0700 C   0  0  0  0  0  0  0  0  0  0  0  0
  141.4020   78.9110  219.7000 C   0  0  2  0  0  0  0  0  0  0  0  0
  140.6190   79.4520  218.6930 O   0  0  0  0  0  0  0  0  0  0  0  0
  141.2310   77.3850  219.7970 C   0  0  1  0  0  0  0  0  0  0  0  0
  142.6060   76.7430  219.5770 C   0  0  0  0  0  0  0  0  0  0  0  0
  142.6030   75.7500  218.6380 O   0  0  0  0  0  0  0  0  0  0  0  0
  142.5560   74.4600  219.0840 C   0  0  0  0  0  0  0  0  0  0  0  0
  143.7880   73.9160  219.6480 C   0  0  0  0  0  0  0  0  0  0  0  0
  144.6690   74.5860  220.4630 C   0  0  0  0  0  0  0  0  0  0  0  0
  145.8200   74.0120  220.9610 C   0  0  0  0  0  0  0  0  0  0  0  0
  146.1370   72.7060  220.6480 C   0  0  0  0  0  0  0  0  0  0  0  0
  145.2760   72.0060  219.8340 C   0  0  0  0  0  0  0  0  0  0  0  0
  144.1300   72.5930  219.3450 C   0  0  0  0  0  0  0  0  0  0  0  0
  140.3260   71.6180  223.4280 C   0  0  0  0  0  0  0  0  0  0  0  0
  139.6270   70.4350  223.2250 C   0  0  0  0  0  0  0  0  0  0  0  0
  139.3500   69.5960  224.3070 C   0  0  0  0  0  0  0  0  0  0  0  0
  139.7610   69.9200  225.5940 C   0  0  0  0  0  0  0  0  0  0  0  0
  139.5050   69.1190  226.6790 C   0  0  0  0  0  0  0  0  0  0  0  0
  139.9520   69.5190  227.9240 C   0  0  0  0  0  0  0  0  0  0  0  0
  139.7150   68.7480  229.0190 F   0  0  0  0  0  0  0  0  0  0  0  0
  140.6400   70.6950  228.0910 C   0  0  0  0  0  0  0  0  0  0  0  0
  140.8950   71.5000  226.9870 C   0  0  0  0  0  0  0  0  0  0  0  0
  140.4560   71.1120  225.7450 C   0  0  0  0  0  0  0  0  0  0  0  0
  140.6990   71.8820  224.6870 N   0  0  0  0  0  0  0  0  0  0  0  0
  139.3420   74.0620  223.0900 H   0  0  0  0  0  0  0  0  0  0  0  0
  141.2747   74.6023  220.8590 H   0  0  0  0  0  0  0  0  0  0  0  0
  139.5352   74.5610  220.4148 H   0  0  0  0  0  0  0  0  0  0  0  0
  141.0840   78.3510  222.9562 H   0  0  0  0  0  0  0  0  0  0  0  0
  142.5676   78.1970  222.0837 H   0  0  0  0  0  0  0  0  0  0  0  0
  139.9540   79.6218  221.1600 H   0  0  0  0  0  0  0  0  0  0  0  0
  141.4892   80.4070  221.3283 H   0  0  0  0  0  0  0  0  0  0  0  0
  142.4302   79.1935  219.4297 H   0  0  0  0  0  0  0  0  0  0  0  0
  140.8610   80.3810  218.4980 H   0  0  0  0  0  0  0  0  0  0  0  0
  140.5048   76.9784  219.0778 H   0  0  0  0  0  0  0  0  0  0  0  0
  143.3073   77.5259  219.2527 H   0  0  0  0  0  0  0  0  0  0  0  0
  142.9034   76.2834  220.5311 H   0  0  0  0  0  0  0  0  0  0  0  0
  141.7802   74.4043  219.8619 H   0  0  0  0  0  0  0  0  0  0  0  0
  142.3543   73.8521  218.1897 H   0  0  0  0  0  0  0  0  0  0  0  0
  144.4455   75.6293  220.7307 H   0  0  0  0  0  0  0  0  0  0  0  0
  146.4878   74.5975  221.6101 H   0  0  0  0  0  0  0  0  0  0  0  0
  147.0525   72.2374  221.0383 H   0  0  0  0  0  0  0  0  0  0  0  0
  145.5063   70.9632  219.5703 H   0  0  0  0  0  0  0  0  0  0  0  0
  143.4637   72.0046  218.6971 H   0  0  0  0  0  0  0  0  0  0  0  0
  139.2922   70.1593  222.2141 H   0  0  0  0  0  0  0  0  0  0  0  0
  138.7960   68.6611  224.1368 H   0  0  0  0  0  0  0  0  0  0  0  0
  138.9534   68.1748  226.5595 H   0  0  0  0  0  0  0  0  0  0  0  0
  140.9866   70.9978  229.0901 H   0  0  0  0  0  0  0  0  0  0  0  0
  141.4463   72.4442  227.1077 H   0  0  0  0  0  0  0  0  0  0  0  0
  1  2  2  0
  2  3  1  0
  3  4  1  0
  4  5  1  0
  5  6  2  0
  5  7  1  0
  7  8  1  0
  8  9  1  0
  9 10  1  0
 10 11  1  0
 10 12  1  0
 12 13  1  0
 13 14  1  0
 14 15  1  0
 15 16  1  0
 16 17  2  0
 17 18  1  0
 18 19  2  0
 19 20  1  0
 20 21  2  0
  2 22  1  0
 22 23  2  0
 23 24  1  0
 24 25  2  0
 25 26  1  0
 26 27  2  0
 27 28  1  0
 27 29  1  0
 29 30  2  0
 30 31  1  0
 31 32  2  0
 12  7  1  0
 21 16  1  0
 32 22  1  0
 31 25  1  0
  3 33  1  0
  4 34  1  0
  4 35  1  0
  8 36  1  0
  8 37  1  0
  9 38  1  0
  9 39  1  0
 10 40  1  6
 11 41  1  0
 12 42  1  6
 13 43  1  0
 13 44  1  0
 15 45  1  0
 15 46  1  0
 17 47  1  0
 18 48  1  0
 19 49  1  0
 20 50  1  0
 21 51  1  0
 23 52  1  0
 24 53  1  0
 26 54  1  0
 29 55  1  0
 30 56  1  0
M  END
>  <smiles>  (8) 
O=C(NCC(=O)N1CC[C@H](O)[C@H]1COCc1ccccc1)c1ccc2cc(F)ccc2n1

>  <score_type>  (8) 
oracle

>  <origin>  (8) 
autodockgpu

>  <m_score__min__energy>  (8) 
-8.9700000000000006

>  <m_primary>  (8) 
energy

>  <rmsd>  (8) 
2.953976803316587

>  <m_score__min__rmsd>  (8) 
2.953976803316587

>  <meeko>  (8) 
{"free_energy": -7.9, "intermolecular_energy": -10.59, "internal_energy": -2.16, "cluster_size": 2, "cluster_id": 4, "rank_in_cluster": 1}

>  <energy>  (8) 
-8.71

>  <cluster_rmsd>  (8) 
1.47

>  <cluster>  (8) 
1

$$$$

     RDKit          3D

 56 59  0  0  0  0  0  0  0  0999 V2000
  133.5500   70.4320  226.6000 O   0  0  0  0  0  0  0  0  0  0  0  0
  133.8210   71.5420  226.0770 C   0  0  0  0  0  0  0  0  0  0  0  0
  134.7490   71.7000  225.0110 N   0  0  0  0  0  0  0  0  0  0  0  0
  135.4410   70.5410  224.4700 C   0  0  0  0  0  0  0  0  0  0  0  0
  136.7030   70.9780  223.8240 C   0  0  0  0  0  0  0  0  0  0  0  0
  136.7760   72.1840  223.4750 O   0  0  0  0  0  0  0  0  0  0  0  0
  137.7520   70.0380  223.6310 N   0  0  0  0  0  0  0  0  0  0  0  0
  139.0750   70.3310  223.0560 C   0  0  0  0  0  0  0  0  0  0  0  0
  139.1660   69.2010  222.0520 C   0  0  0  0  0  0  0  0  0  0  0  0
  138.7560   68.0350  222.9230 C   0  0  2  0  0  0  0  0  0  0  0  0
  138.1890   66.9990  222.1970 O   0  0  0  0  0  0  0  0  0  0  0  0
  137.7670   68.6220  223.9440 C   0  0  1  0  0  0  0  0  0  0  0  0
  138.3830   68.4660  225.3400 C   0  0  0  0  0  0  0  0  0  0  0  0
  139.4810   67.6540  225.3670 O   0  0  0  0  0  0  0  0  0  0  0  0
  140.4430   67.9230  226.2980 C   0  0  0  0  0  0  0  0  0  0  0  0
  140.6530   69.3280  226.6360 C   0  0  0  0  0  0  0  0  0  0  0  0
  141.2270   70.2780  225.8250 C   0  0  0  0  0  0  0  0  0  0  0  0
  141.3980   71.5920  226.2090 C   0  0  0  0  0  0  0  0  0  0  0  0
  140.9860   72.0110  227.4570 C   0  0  0  0  0  0  0  0  0  0  0  0
  140.4070   71.0850  228.2950 C   0  0  0  0  0  0  0  0  0  0  0  0
  140.2430   69.7760  227.8970 C   0  0  0  0  0  0  0  0  0  0  0  0
  133.1600   72.7630  226.5710 C   0  0  0  0  0  0  0  0  0  0  0  0
  131.9180   72.7020  227.1880 C   0  0  0  0  0  0  0  0  0  0  0  0
  131.3120   73.8740  227.6490 C   0  0  0  0  0  0  0  0  0  0  0  0
  131.9280   75.1100  227.5030 C   0  0  0  0  0  0  0  0  0  0  0  0
  131.3600   76.2790  227.9440 C   0  0  0  0  0  0  0  0  0  0  0  0
  132.0450   77.4650  227.7570 C   0  0  0  0  0  0  0  0  0  0  0  0
  131.5100   78.6410  228.1820 F   0  0  0  0  0  0  0  0  0  0  0  0
  133.2730   77.4920  227.1420 C   0  0  0  0  0  0  0  0  0  0  0  0
  133.8400   76.3020  226.6990 C   0  0  0  0  0  0  0  0  0  0  0  0
  133.1680   75.1180  226.8800 C   0  0  0  0  0  0  0  0  0  0  0  0
  133.7110   73.9790  226.4560 N   0  0  0  0  0  0  0  0  0  0  0  0
  134.9430   72.6530  224.6050 H   0  0  0  0  0  0  0  0  0  0  0  0
  135.6698   69.8372  225.2838 H   0  0  0  0  0  0  0  0  0  0  0  0
  134.8003   70.0444  223.7264 H   0  0  0  0  0  0  0  0  0  0  0  0
  139.1015   71.3166  222.5682 H   0  0  0  0  0  0  0  0  0  0  0  0
  139.9005   70.3809  223.7813 H   0  0  0  0  0  0  0  0  0  0  0  0
  138.4712   69.3458  221.2116 H   0  0  0  0  0  0  0  0  0  0  0  0
  140.1476   69.0922  221.5677 H   0  0  0  0  0  0  0  0  0  0  0  0
  139.6308   67.5807  223.4112 H   0  0  0  0  0  0  0  0  0  0  0  0
  137.2140   66.9800  222.2840 H   0  0  0  0  0  0  0  0  0  0  0  0
  136.7744   68.1489  223.9148 H   0  0  0  0  0  0  0  0  0  0  0  0
  138.6781   69.4616  225.7028 H   0  0  0  0  0  0  0  0  0  0  0  0
  137.6197   67.9966  225.9781 H   0  0  0  0  0  0  0  0  0  0  0  0
  140.1687   67.3949  227.2231 H   0  0  0  0  0  0  0  0  0  0  0  0
  141.3875   67.5906  225.8425 H   0  0  0  0  0  0  0  0  0  0  0  0
  141.5659   69.9764  224.8229 H   0  0  0  0  0  0  0  0  0  0  0  0
  141.8648   72.3085  225.5171 H   0  0  0  0  0  0  0  0  0  0  0  0
  141.1165   73.0563  227.7738 H   0  0  0  0  0  0  0  0  0  0  0  0
  140.0708   71.3941  229.2957 H   0  0  0  0  0  0  0  0  0  0  0  0
  139.7759   69.0618  228.5911 H   0  0  0  0  0  0  0  0  0  0  0  0
  131.4119   71.7335  227.3138 H   0  0  0  0  0  0  0  0  0  0  0  0
  130.3279   73.8162  228.1370 H   0  0  0  0  0  0  0  0  0  0  0  0
  130.3770   76.2723  228.4376 H   0  0  0  0  0  0  0  0  0  0  0  0
  133.8027   78.4457  227.0013 H   0  0  0  0  0  0  0  0  0  0  0  0
  134.8230   76.3090  226.2055 H   0  0  0  0  0  0  0  0  0  0  0  0
  1  2  2  0
  2  3  1  0
  3  4  1  0
  4  5  1  0
  5  6  2  0
  5  7  1  0
  7  8  1  0
  8  9  1  0
  9 10  1  0
 10 11  1  0
 10 12  1  0
 12 13  1  0
 13 14  1  0
 14 15  1  0
 15 16  1  0
 16 17  2  0
 17 18  1  0
 18 19  2  0
 19 20  1  0
 20 21  2  0
  2 22  1  0
 22 23  2  0
 23 24  1  0
 24 25  2  0
 25 26  1  0
 26 27  2  0
 27 28  1  0
 27 29  1  0
 29 30  2  0
 30 31  1  0
 31 32  2  0
 12  7  1  0
 21 16  1  0
 32 22  1  0
 31 25  1  0
  3 33  1  0
  4 34  1  0
  4 35  1  0
  8 36  1  0
  8 37  1  0
  9 38  1  0
  9 39  1  0
 10 40  1  1
 11 41  1  0
 12 42  1  1
 13 43  1  0
 13 44  1  0
 15 45  1  0
 15 46  1  0
 17 47  1  0
 18 48  1  0
 19 49  1  0
 20 50  1  0
 21 51  1  0
 23 52  1  0
 24 53  1  0
 26 54  1  0
 29 55  1  0
 30 56  1  0
M  END
>  <smiles>  (9) 
O=C(NCC(=O)N1CC[C@H](O)[C@H]1COCc1ccccc1)c1ccc2cc(F)ccc2n1

>  <score_type>  (9) 
oracle

>  <origin>  (9) 
autodockgpu

>  <m_score__min__energy>  (9) 
-8.9700000000000006

>  <m_primary>  (9) 
energy

>  <rmsd>  (9) 
9.083704096138018

>  <m_score__min__rmsd>  (9) 
9.083704096138018

>  <meeko>  (9) 
{"free_energy": -8.31, "intermolecular_energy": -10.99, "internal_energy": -2.39, "cluster_size": 5, "cluster_id": 3, "rank_in_cluster": 1}

>  <energy>  (9) 
-8.65

>  <cluster_rmsd>  (9) 
0.76

>  <cluster>  (9) 
1

$$$$

     RDKit          3D

 56 59  0  0  0  0  0  0  0  0999 V2000
  141.1240   72.4180  221.7240 O   0  0  0  0  0  0  0  0  0  0  0  0
  140.1240   72.3970  222.4850 C   0  0  0  0  0  0  0  0  0  0  0  0
  139.0050   73.2610  222.3320 N   0  0  0  0  0  0  0  0  0  0  0  0
  138.9770   74.2330  221.2510 C   0  0  0  0  0  0  0  0  0  0  0  0
  140.0010   75.2770  221.5000 C   0  0  0  0  0  0  0  0  0  0  0  0
  140.0230   75.7900  222.6490 O   0  0  0  0  0  0  0  0  0  0  0  0
  140.8940   75.6460  220.4570 N   0  0  0  0  0  0  0  0  0  0  0  0
  141.0640   74.9350  219.1800 C   0  0  0  0  0  0  0  0  0  0  0  0
  142.5750   74.8430  219.1440 C   0  0  0  0  0  0  0  0  0  0  0  0
  142.9380   76.2710  219.4820 C   0  0  2  0  0  0  0  0  0  0  0  0
  144.1810   76.3770  220.0860 O   0  0  0  0  0  0  0  0  0  0  0  0
  141.8130   76.7670  220.4060 C   0  0  1  0  0  0  0  0  0  0  0  0
  141.0930   77.9200  219.6960 C   0  0  0  0  0  0  0  0  0  0  0  0
  139.8490   78.1800  220.1960 O   0  0  0  0  0  0  0  0  0  0  0  0
  139.6900   79.3230  220.9270 C   0  0  0  0  0  0  0  0  0  0  0  0
  140.7280   79.6240  221.9090 C   0  0  0  0  0  0  0  0  0  0  0  0
  141.6340   80.6560  221.8370 C   0  0  0  0  0  0  0  0  0  0  0  0
  142.5940   80.8840  222.8010 C   0  0  0  0  0  0  0  0  0  0  0  0
  142.6820   80.0580  223.9030 C   0  0  0  0  0  0  0  0  0  0  0  0
  141.7910   79.0140  224.0050 C   0  0  0  0  0  0  0  0  0  0  0  0
  140.8370   78.8000  223.0350 C   0  0  0  0  0  0  0  0  0  0  0  0
  140.0780   71.4390  223.6050 C   0  0  0  0  0  0  0  0  0  0  0  0
  139.5240   70.1770  223.4410 C   0  0  0  0  0  0  0  0  0  0  0  0
  139.4910   69.2860  224.5160 C   0  0  0  0  0  0  0  0  0  0  0  0
  140.0060   69.6370  225.7580 C   0  0  0  0  0  0  0  0  0  0  0  0
  139.9900   68.7860  226.8360 C   0  0  0  0  0  0  0  0  0  0  0  0
  140.5250   69.2190  228.0340 C   0  0  0  0  0  0  0  0  0  0  0  0
  140.5250   68.4000  229.1210 F   0  0  0  0  0  0  0  0  0  0  0  0
  141.0650   70.4740  228.1640 C   0  0  0  0  0  0  0  0  0  0  0  0
  141.0770   71.3290  227.0680 C   0  0  0  0  0  0  0  0  0  0  0  0
  140.5490   70.9090  225.8710 C   0  0  0  0  0  0  0  0  0  0  0  0
  140.5590   71.7270  224.8200 N   0  0  0  0  0  0  0  0  0  0  0  0
  138.1890   73.2050  222.9970 H   0  0  0  0  0  0  0  0  0  0  0  0
  139.1921   73.7280  220.2978 H   0  0  0  0  0  0  0  0  0  0  0  0
  137.9818   74.6990  221.2018 H   0  0  0  0  0  0  0  0  0  0  0  0
  140.5927   73.9412  219.1978 H   0  0  0  0  0  0  0  0  0  0  0  0
  140.6038   75.4226  218.3079 H   0  0  0  0  0  0  0  0  0  0  0  0
  142.9582   74.1365  219.8951 H   0  0  0  0  0  0  0  0  0  0  0  0
  142.9923   74.4728  218.1959 H   0  0  0  0  0  0  0  0  0  0  0  0
  143.0218   76.8823  218.5713 H   0  0  0  0  0  0  0  0  0  0  0  0
  144.2280   77.1400  220.7000 H   0  0  0  0  0  0  0  0  0  0  0  0
  142.1696   77.0966  221.3930 H   0  0  0  0  0  0  0  0  0  0  0  0
  141.7055   78.8279  219.7987 H   0  0  0  0  0  0  0  0  0  0  0  0
  140.9616   77.6196  218.6460 H   0  0  0  0  0  0  0  0  0  0  0  0
  139.6441   80.1659  220.2217 H   0  0  0  0  0  0  0  0  0  0  0  0
  138.7737   79.1648  221.5147 H   0  0  0  0  0  0  0  0  0  0  0  0
  141.5912   81.3315  220.9699 H   0  0  0  0  0  0  0  0  0  0  0  0
  143.2918   81.7272  222.6909 H   0  0  0  0  0  0  0  0  0  0  0  0
  143.4432   80.2293  224.6784 H   0  0  0  0  0  0  0  0  0  0  0  0
  141.8415   78.3410  224.8736 H   0  0  0  0  0  0  0  0  0  0  0  0
  140.1401   77.9565  223.1486 H   0  0  0  0  0  0  0  0  0  0  0  0
  139.1115   69.8790  222.4658 H   0  0  0  0  0  0  0  0  0  0  0  0
  139.0493   68.2882  224.3770 H   0  0  0  0  0  0  0  0  0  0  0  0
  139.5590   67.7779  226.7471 H   0  0  0  0  0  0  0  0  0  0  0  0
  141.4846   70.8004  229.1270 H   0  0  0  0  0  0  0  0  0  0  0  0
  141.5073   72.3373  227.1586 H   0  0  0  0  0  0  0  0  0  0  0  0
  1  2  2  0
  2  3  1  0
  3  4  1  0
  4  5  1  0
  5  6  2  0
  5  7  1  0
  7  8  1  0
  8  9  1  0
  9 10  1  0
 10 11  1  0
 10 12  1  0
 12 13  1  0
 13 14  1  0
 14 15  1  0
 15 16  1  0
 16 17  2  0
 17 18  1  0
 18 19  2  0
 19 20  1  0
 20 21  2  0
  2 22  1  0
 22 23  2  0
 23 24  1  0
 24 25  2  0
 25 26  1  0
 26 27  2  0
 27 28  1  0
 27 29  1  0
 29 30  2  0
 30 31  1  0
 31 32  2  0
 12  7  1  0
 21 16  1  0
 32 22  1  0
 31 25  1  0
  3 33  1  0
  4 34  1  0
  4 35  1  0
  8 36  1  0
  8 37  1  0
  9 38  1  0
  9 39  1  0
 10 40  1  6
 11 41  1  0
 12 42  1  1
 13 43  1  0
 13 44  1  0
 15 45  1  0
 15 46  1  0
 17 47  1  0
 18 48  1  0
 19 49  1  0
 20 50  1  0
 21 51  1  0
 23 52  1  0
 24 53  1  0
 26 54  1  0
 29 55  1  0
 30 56  1  0
M  END
>  <smiles>  (10) 
O=C(NCC(=O)N1CC[C@H](O)[C@H]1COCc1ccccc1)c1ccc2cc(F)ccc2n1

>  <score_type>  (10) 
oracle

>  <origin>  (10) 
autodockgpu

>  <m_score__min__energy>  (10) 
-8.9700000000000006

>  <m_primary>  (10) 
energy

>  <rmsd>  (10) 
1.9940831295871486

>  <m_score__min__rmsd>  (10) 
1.9940831295871486

>  <meeko>  (10) 
{"free_energy": -8.82, "intermolecular_energy": -11.51, "internal_energy": -1.9, "cluster_size": 27, "cluster_id": 1, "rank_in_cluster": 3}

>  <energy>  (10) 
-8.61

>  <cluster_rmsd>  (10) 
0.87

>  <cluster>  (10) 
1

$$$$

     RDKit          3D

 56 59  0  0  0  0  0  0  0  0999 V2000
  137.1350   75.7100  221.0630 O   0  0  0  0  0  0  0  0  0  0  0  0
  138.1200   75.7610  221.8410 C   0  0  0  0  0  0  0  0  0  0  0  0
  138.7830   74.6080  222.3420 N   0  0  0  0  0  0  0  0  0  0  0  0
  138.3280   73.2810  221.9580 C   0  0  0  0  0  0  0  0  0  0  0  0
  139.2690   72.2640  222.4890 C   0  0  0  0  0  0  0  0  0  0  0  0
  140.4170   72.6640  222.8100 O   0  0  0  0  0  0  0  0  0  0  0  0
  138.8430   70.9130  222.6100 N   0  0  0  0  0  0  0  0  0  0  0  0
  139.5580   69.7360  222.0910 C   0  0  0  0  0  0  0  0  0  0  0  0
  138.4110   69.0350  221.3940 C   0  0  0  0  0  0  0  0  0  0  0  0
  137.3610   69.0940  222.4800 C   0  0  2  0  0  0  0  0  0  0  0  0
  136.0700   69.0720  221.9760 O   0  0  0  0  0  0  0  0  0  0  0  0
  137.6490   70.3950  223.2500 C   0  0  1  0  0  0  0  0  0  0  0  0
  138.0250   70.0170  224.6880 C   0  0  0  0  0  0  0  0  0  0  0  0
  138.5240   68.7520  224.8090 O   0  0  0  0  0  0  0  0  0  0  0  0
  139.7270   68.6060  225.4410 C   0  0  0  0  0  0  0  0  0  0  0  0
  140.2170   69.7580  226.1920 C   0  0  0  0  0  0  0  0  0  0  0  0
  141.0120   70.7660  225.7000 C   0  0  0  0  0  0  0  0  0  0  0  0
  141.4420   71.8280  226.4680 C   0  0  0  0  0  0  0  0  0  0  0  0
  141.0800   71.9190  227.7950 C   0  0  0  0  0  0  0  0  0  0  0  0
  140.2840   70.9250  228.3210 C   0  0  0  0  0  0  0  0  0  0  0  0
  139.8620   69.8710  227.5420 C   0  0  0  0  0  0  0  0  0  0  0  0
  138.6400   77.0700  222.2760 C   0  0  0  0  0  0  0  0  0  0  0  0
  137.7890   78.1520  222.4560 C   0  0  0  0  0  0  0  0  0  0  0  0
  138.3050   79.3830  222.8690 C   0  0  0  0  0  0  0  0  0  0  0  0
  139.6630   79.5510  223.1070 C   0  0  0  0  0  0  0  0  0  0  0  0
  140.2030   80.7460  223.5130 C   0  0  0  0  0  0  0  0  0  0  0  0
  141.5660   80.8230  223.7270 C   0  0  0  0  0  0  0  0  0  0  0  0
  142.1330   81.9930  224.1290 F   0  0  0  0  0  0  0  0  0  0  0  0
  142.3810   79.7350  223.5390 C   0  0  0  0  0  0  0  0  0  0  0  0
  141.8260   78.5290  223.1280 C   0  0  0  0  0  0  0  0  0  0  0  0
  140.4720   78.4410  222.9130 C   0  0  0  0  0  0  0  0  0  0  0  0
  139.9390   77.2860  222.5190 N   0  0  0  0  0  0  0  0  0  0  0  0
  139.6070   74.7020  222.9940 H   0  0  0  0  0  0  0  0  0  0  0  0
  137.3242   73.1034  222.3714 H   0  0  0  0  0  0  0  0  0  0  0  0
  138.2901   73.2089  220.8610 H   0  0  0  0  0  0  0  0  0  0  0  0
  140.3554   70.0174  221.3875 H   0  0  0  0  0  0  0  0  0  0  0  0
  140.0833   69.1355  222.8482 H   0  0  0  0  0  0  0  0  0  0  0  0
  138.0927   69.5749  220.4900 H   0  0  0  0  0  0  0  0  0  0  0  0
  138.6418   68.0229  221.0302 H   0  0  0  0  0  0  0  0  0  0  0  0
  137.4166   68.2092  223.1311 H   0  0  0  0  0  0  0  0  0  0  0  0
  135.8770   69.8580  221.4240 H   0  0  0  0  0  0  0  0  0  0  0  0
  136.8041   71.0994  223.2538 H   0  0  0  0  0  0  0  0  0  0  0  0
  138.7856   70.7264  225.0463 H   0  0  0  0  0  0  0  0  0  0  0  0
  137.1011   70.0571  225.2836 H   0  0  0  0  0  0  0  0  0  0  0  0
  139.6344   67.7648  226.1437 H   0  0  0  0  0  0  0  0  0  0  0  0
  140.4602   68.4530  224.6353 H   0  0  0  0  0  0  0  0  0  0  0  0
  141.3195   70.7236  224.6447 H   0  0  0  0  0  0  0  0  0  0  0  0
  142.0769   72.6062  226.0193 H   0  0  0  0  0  0  0  0  0  0  0  0
  141.4172   72.7616  228.4166 H   0  0  0  0  0  0  0  0  0  0  0  0
  139.9816   70.9741  229.3775 H   0  0  0  0  0  0  0  0  0  0  0  0
  139.2270   69.0945  227.9935 H   0  0  0  0  0  0  0  0  0  0  0  0
  136.7100   78.0403  222.2737 H   0  0  0  0  0  0  0  0  0  0  0  0
  137.6231   80.2348  223.0082 H   0  0  0  0  0  0  0  0  0  0  0  0
  139.5620   81.6268  223.6653 H   0  0  0  0  0  0  0  0  0  0  0  0
  143.4642   79.8168  223.7121 H   0  0  0  0  0  0  0  0  0  0  0  0
  142.4680   77.6489  222.9755 H   0  0  0  0  0  0  0  0  0  0  0  0
  1  2  2  0
  2  3  1  0
  3  4  1  0
  4  5  1  0
  5  6  2  0
  5  7  1  0
  7  8  1  0
  8  9  1  0
  9 10  1  0
 10 11  1  0
 10 12  1  0
 12 13  1  0
 13 14  1  0
 14 15  1  0
 15 16  1  0
 16 17  2  0
 17 18  1  0
 18 19  2  0
 19 20  1  0
 20 21  2  0
  2 22  1  0
 22 23  2  0
 23 24  1  0
 24 25  2  0
 25 26  1  0
 26 27  2  0
 27 28  1  0
 27 29  1  0
 29 30  2  0
 30 31  1  0
 31 32  2  0
 12  7  1  0
 21 16  1  0
 32 22  1  0
 31 25  1  0
  3 33  1  0
  4 34  1  0
  4 35  1  0
  8 36  1  0
  8 37  1  0
  9 38  1  0
  9 39  1  0
 10 40  1  1
 11 41  1  0
 12 42  1  1
 13 43  1  0
 13 44  1  0
 15 45  1  0
 15 46  1  0
 17 47  1  0
 18 48  1  0
 19 49  1  0
 20 50  1  0
 21 51  1  0
 23 52  1  0
 24 53  1  0
 26 54  1  0
 29 55  1  0
 30 56  1  0
M  END
>  <smiles>  (11) 
O=C(NCC(=O)N1CC[C@H](O)[C@H]1COCc1ccccc1)c1ccc2cc(F)ccc2n1

>  <score_type>  (11) 
oracle

>  <origin>  (11) 
autodockgpu

>  <m_score__min__energy>  (11) 
-8.9700000000000006

>  <m_primary>  (11) 
energy

>  <rmsd>  (11) 
8.566615743831443

>  <m_score__min__rmsd>  (11) 
8.566615743831443

>  <meeko>  (11) 
{"free_energy": -8.03, "intermolecular_energy": -10.72, "internal_energy": -2.35, "cluster_size": 7, "cluster_id": 2, "rank_in_cluster": 5}

>  <energy>  (11) 
-8.53

>  <cluster_rmsd>  (11) 
1.22

>  <cluster>  (11) 
1

$$$$

     RDKit          3D

 56 59  0  0  0  0  0  0  0  0999 V2000
  143.2410   75.2120  218.3370 O   0  0  0  0  0  0  0  0  0  0  0  0
  142.9600   75.6400  219.4860 C   0  0  0  0  0  0  0  0  0  0  0  0
  143.0000   74.8310  220.6540 N   0  0  0  0  0  0  0  0  0  0  0  0
  143.3800   73.4310  220.5580 C   0  0  0  0  0  0  0  0  0  0  0  0
  142.1590   72.5880  220.5450 C   0  0  0  0  0  0  0  0  0  0  0  0
  142.3200   71.3560  220.3480 O   0  0  0  0  0  0  0  0  0  0  0  0
  140.8890   73.1930  220.7530 N   0  0  0  0  0  0  0  0  0  0  0  0
  140.0180   73.7450  219.7030 C   0  0  0  0  0  0  0  0  0  0  0  0
  139.6940   75.0860  220.3270 C   0  0  0  0  0  0  0  0  0  0  0  0
  139.3210   74.6480  221.7260 C   0  0  2  0  0  0  0  0  0  0  0  0
  139.5390   75.6380  222.6710 O   0  0  0  0  0  0  0  0  0  0  0  0
  140.1790   73.4010  222.0000 C   0  0  1  0  0  0  0  0  0  0  0  0
  139.2310   72.2100  222.1930 C   0  0  0  0  0  0  0  0  0  0  0  0
  139.7390   71.2300  222.9980 O   0  0  0  0  0  0  0  0  0  0  0  0
  140.7010   71.5890  223.8990 C   0  0  0  0  0  0  0  0  0  0  0  0
  140.5210   71.1220  225.2710 C   0  0  0  0  0  0  0  0  0  0  0  0
  139.8610   69.9790  225.6560 C   0  0  0  0  0  0  0  0  0  0  0  0
  139.7250   69.5960  226.9740 C   0  0  0  0  0  0  0  0  0  0  0  0
  140.2630   70.3690  227.9820 C   0  0  0  0  0  0  0  0  0  0  0  0
  140.9310   71.5210  227.6310 C   0  0  0  0  0  0  0  0  0  0  0  0
  141.0590   71.8900  226.3100 C   0  0  0  0  0  0  0  0  0  0  0  0
  142.5660   77.0490  219.6640 C   0  0  0  0  0  0  0  0  0  0  0  0
  142.5720   77.9320  218.5930 C   0  0  0  0  0  0  0  0  0  0  0  0
  142.1940   79.2630  218.7870 C   0  0  0  0  0  0  0  0  0  0  0  0
  141.8070   79.7280  220.0370 C   0  0  0  0  0  0  0  0  0  0  0  0
  141.4300   81.0290  220.2620 C   0  0  0  0  0  0  0  0  0  0  0  0
  141.0600   81.4040  221.5390 C   0  0  0  0  0  0  0  0  0  0  0  0
  140.6810   82.6860  221.7960 F   0  0  0  0  0  0  0  0  0  0  0  0
  141.0650   80.5060  222.5780 C   0  0  0  0  0  0  0  0  0  0  0  0
  141.4480   79.1910  222.3410 C   0  0  0  0  0  0  0  0  0  0  0  0
  141.8170   78.8070  221.0750 C   0  0  0  0  0  0  0  0  0  0  0  0
  142.1850   77.5470  220.8470 N   0  0  0  0  0  0  0  0  0  0  0  0
  142.7560   75.2360  221.5960 H   0  0  0  0  0  0  0  0  0  0  0  0
  143.9483   73.2679  219.6304 H   0  0  0  0  0  0  0  0  0  0  0  0
  144.0041   73.1599  221.4223 H   0  0  0  0  0  0  0  0  0  0  0  0
  140.5485   73.8552  218.7457 H   0  0  0  0  0  0  0  0  0  0  0  0
  139.1463   73.1260  219.4443 H   0  0  0  0  0  0  0  0  0  0  0  0
  140.5666   75.7558  220.3290 H   0  0  0  0  0  0  0  0  0  0  0  0
  138.9185   75.6634  219.8024 H   0  0  0  0  0  0  0  0  0  0  0  0
  138.2449   74.4318  221.7986 H   0  0  0  0  0  0  0  0  0  0  0  0
  139.1810   75.3920  223.5500 H   0  0  0  0  0  0  0  0  0  0  0  0
  140.8370   73.5056  222.8753 H   0  0  0  0  0  0  0  0  0  0  0  0
  138.2967   72.5786  222.6416 H   0  0  0  0  0  0  0  0  0  0  0  0
  139.0713   71.7615  221.2013 H   0  0  0  0  0  0  0  0  0  0  0  0
  141.6616   71.1948  223.5359 H   0  0  0  0  0  0  0  0  0  0  0  0
  140.6476   72.6861  223.9575 H   0  0  0  0  0  0  0  0  0  0  0  0
  139.4208   69.3400  224.8763 H   0  0  0  0  0  0  0  0  0  0  0  0
  139.1853   68.6703  227.2224 H   0  0  0  0  0  0  0  0  0  0  0  0
  140.1613   70.0735  229.0367 H   0  0  0  0  0  0  0  0  0  0  0  0
  141.3683   72.1552  228.4162 H   0  0  0  0  0  0  0  0  0  0  0  0
  141.6001   72.8157  226.0645 H   0  0  0  0  0  0  0  0  0  0  0  0
  142.8737   77.5846  217.5938 H   0  0  0  0  0  0  0  0  0  0  0  0
  142.2031   79.9561  217.9329 H   0  0  0  0  0  0  0  0  0  0  0  0
  141.4227   81.7598  219.4398 H   0  0  0  0  0  0  0  0  0  0  0  0
  140.7687   80.8244  223.5884 H   0  0  0  0  0  0  0  0  0  0  0  0
  141.4555   78.4610  223.1639 H   0  0  0  0  0  0  0  0  0  0  0  0
  1  2  2  0
  2  3  1  0
  3  4  1  0
  4  5  1  0
  5  6  2  0
  5  7  1  0
  7  8  1  0
  8  9  1  0
  9 10  1  0
 10 11  1  0
 10 12  1  0
 12 13  1  0
 13 14  1  0
 14 15  1  0
 15 16  1  0
 16 17  2  0
 17 18  1  0
 18 19  2  0
 19 20  1  0
 20 21  2  0
  2 22  1  0
 22 23  2  0
 23 24  1  0
 24 25  2  0
 25 26  1  0
 26 27  2  0
 27 28  1  0
 27 29  1  0
 29 30  2  0
 30 31  1  0
 31 32  2  0
 12  7  1  0
 21 16  1  0
 32 22  1  0
 31 25  1  0
  3 33  1  0
  4 34  1  0
  4 35  1  0
  8 36  1  0
  8 37  1  0
  9 38  1  0
  9 39  1  0
 10 40  1  6
 11 41  1  0
 12 42  1  1
 13 43  1  0
 13 44  1  0
 15 45  1  0
 15 46  1  0
 17 47  1  0
 18 48  1  0
 19 49  1  0
 20 50  1  0
 21 51  1  0
 23 52  1  0
 24 53  1  0
 26 54  1  0
 29 55  1  0
 30 56  1  0
M  END
>  <smiles>  (12) 
O=C(NCC(=O)N1CC[C@H](O)[C@H]1COCc1ccccc1)c1ccc2cc(F)ccc2n1

>  <score_type>  (12) 
oracle

>  <origin>  (12) 
autodockgpu

>  <m_score__min__energy>  (12) 
-8.9700000000000006

>  <m_primary>  (12) 
energy

>  <rmsd>  (12) 
8.561235531616585

>  <m_score__min__rmsd>  (12) 
8.561235531616585

>  <meeko>  (12) 
{"free_energy": -7.72, "intermolecular_energy": -10.41, "internal_energy": -2.3, "cluster_size": 5, "cluster_id": 5, "rank_in_cluster": 1}

>  <energy>  (12) 
-8.41

>  <cluster_rmsd>  (12) 
1.3

>  <cluster>  (12) 
1

$$$$

     RDKit          3D

 56 59  0  0  0  0  0  0  0  0999 V2000
  141.3250   71.9420  221.2930 O   0  0  0  0  0  0  0  0  0  0  0  0
  140.5390   72.3480  222.1860 C   0  0  0  0  0  0  0  0  0  0  0  0
  139.8640   73.5980  222.1260 N   0  0  0  0  0  0  0  0  0  0  0  0
  140.0680   74.4830  220.9900 C   0  0  0  0  0  0  0  0  0  0  0  0
  140.1800   75.8830  221.4680 C   0  0  0  0  0  0  0  0  0  0  0  0
  140.1340   76.0640  222.7120 O   0  0  0  0  0  0  0  0  0  0  0  0
  140.3310   76.9350  220.5240 N   0  0  0  0  0  0  0  0  0  0  0  0
  140.5630   76.7680  219.0800 C   0  0  0  0  0  0  0  0  0  0  0  0
  141.7230   77.7250  218.9010 C   0  0  0  0  0  0  0  0  0  0  0  0
  141.1870   78.9350  219.6350 C   0  0  2  0  0  0  0  0  0  0  0  0
  142.1930   79.7400  220.1440 O   0  0  0  0  0  0  0  0  0  0  0  0
  140.2930   78.3670  220.7510 C   0  0  1  0  0  0  0  0  0  0  0  0
  138.8570   78.8360  220.4890 C   0  0  0  0  0  0  0  0  0  0  0  0
  138.3840   79.7050  221.4320 O   0  0  0  0  0  0  0  0  0  0  0  0
  138.7260   79.4710  222.7340 C   0  0  0  0  0  0  0  0  0  0  0  0
  140.0620   79.8950  223.1460 C   0  0  0  0  0  0  0  0  0  0  0  0
  140.9620   79.1440  223.8650 C   0  0  0  0  0  0  0  0  0  0  0  0
  142.2110   79.6070  224.2250 C   0  0  0  0  0  0  0  0  0  0  0  0
  142.6110   80.8780  223.8670 C   0  0  0  0  0  0  0  0  0  0  0  0
  141.7330   81.6570  223.1470 C   0  0  0  0  0  0  0  0  0  0  0  0
  140.4900   81.1800  222.7940 C   0  0  0  0  0  0  0  0  0  0  0  0
  140.2810   71.5080  223.3690 C   0  0  0  0  0  0  0  0  0  0  0  0
  139.5630   70.3250  223.2620 C   0  0  0  0  0  0  0  0  0  0  0  0
  139.3320   69.5450  224.3970 C   0  0  0  0  0  0  0  0  0  0  0  0
  139.8090   69.9290  225.6440 C   0  0  0  0  0  0  0  0  0  0  0  0
  139.6000   69.1870  226.7800 C   0  0  0  0  0  0  0  0  0  0  0  0
  140.1110   69.6450  227.9790 C   0  0  0  0  0  0  0  0  0  0  0  0
  139.9210   68.9330  229.1230 F   0  0  0  0  0  0  0  0  0  0  0  0
  140.8180   70.8190  228.0530 C   0  0  0  0  0  0  0  0  0  0  0  0
  141.0250   71.5650  226.8970 C   0  0  0  0  0  0  0  0  0  0  0  0
  140.5210   71.1190  225.7000 C   0  0  0  0  0  0  0  0  0  0  0  0
  140.7190   71.8320  224.5930 N   0  0  0  0  0  0  0  0  0  0  0  0
  139.2140   73.8950  222.9010 H   0  0  0  0  0  0  0  0  0  0  0  0
  140.9925   74.1995  220.4656 H   0  0  0  0  0  0  0  0  0  0  0  0
  139.2149   74.3979  220.3009 H   0  0  0  0  0  0  0  0  0  0  0  0
  140.8407   75.7344  218.8258 H   0  0  0  0  0  0  0  0  0  0  0  0
  139.6905   76.9649  218.4397 H   0  0  0  0  0  0  0  0  0  0  0  0
  142.6433   77.3412  219.3655 H   0  0  0  0  0  0  0  0  0  0  0  0
  142.0120   77.9097  217.8558 H   0  0  0  0  0  0  0  0  0  0  0  0
  140.6276   79.5934  218.9541 H   0  0  0  0  0  0  0  0  0  0  0  0
  142.7110   79.2850  220.8410 H   0  0  0  0  0  0  0  0  0  0  0  0
  140.6090   78.6666  221.7611 H   0  0  0  0  0  0  0  0  0  0  0  0
  138.8278   79.3361  219.5097 H   0  0  0  0  0  0  0  0  0  0  0  0
  138.2152   77.9433  220.5225 H   0  0  0  0  0  0  0  0  0  0  0  0
  137.9983   79.9965  223.3698 H   0  0  0  0  0  0  0  0  0  0  0  0
  138.7230   78.3763  222.8423 H   0  0  0  0  0  0  0  0  0  0  0  0
  140.6728   78.1267  224.1673 H   0  0  0  0  0  0  0  0  0  0  0  0
  142.8904   78.9603  224.7996 H   0  0  0  0  0  0  0  0  0  0  0  0
  143.6038   81.2585  224.1490 H   0  0  0  0  0  0  0  0  0  0  0  0
  142.0283   82.6741  222.8497 H   0  0  0  0  0  0  0  0  0  0  0  0
  139.8135   81.8286  222.2181 H   0  0  0  0  0  0  0  0  0  0  0  0
  139.1763   70.0022  222.2841 H   0  0  0  0  0  0  0  0  0  0  0  0
  138.7618   68.6092  224.3019 H   0  0  0  0  0  0  0  0  0  0  0  0
  139.0354   68.2440  226.7363 H   0  0  0  0  0  0  0  0  0  0  0  0
  141.2172   71.1669  229.0172 H   0  0  0  0  0  0  0  0  0  0  0  0
  141.5898   72.5078  226.9417 H   0  0  0  0  0  0  0  0  0  0  0  0
  1  2  2  0
  2  3  1  0
  3  4  1  0
  4  5  1  0
  5  6  2  0
  5  7  1  0
  7  8  1  0
  8  9  1  0
  9 10  1  0
 10 11  1  0
 10 12  1  0
 12 13  1  0
 13 14  1  0
 14 15  1  0
 15 16  1  0
 16 17  2  0
 17 18  1  0
 18 19  2  0
 19 20  1  0
 20 21  2  0
  2 22  1  0
 22 23  2  0
 23 24  1  0
 24 25  2  0
 25 26  1  0
 26 27  2  0
 27 28  1  0
 27 29  1  0
 29 30  2  0
 30 31  1  0
 31 32  2  0
 12  7  1  0
 21 16  1  0
 32 22  1  0
 31 25  1  0
  3 33  1  0
  4 34  1  0
  4 35  1  0
  8 36  1  0
  8 37  1  0
  9 38  1  0
  9 39  1  0
 10 40  1  6
 11 41  1  0
 12 42  1  1
 13 43  1  0
 13 44  1  0
 15 45  1  0
 15 46  1  0
 17 47  1  0
 18 48  1  0
 19 49  1  0
 20 50  1  0
 21 51  1  0
 23 52  1  0
 24 53  1  0
 26 54  1  0
 29 55  1  0
 30 56  1  0
M  END
>  <smiles>  (13) 
O=C(NCC(=O)N1CC[C@H](O)[C@H]1COCc1ccccc1)c1ccc2cc(F)ccc2n1

>  <score_type>  (13) 
oracle

>  <origin>  (13) 
autodockgpu

>  <m_score__min__energy>  (13) 
-8.9700000000000006

>  <m_primary>  (13) 
energy

>  <rmsd>  (13) 
2.49938327756189

>  <m_score__min__rmsd>  (13) 
2.49938327756189

>  <meeko>  (13) 
{"free_energy": -8.29, "intermolecular_energy": -10.97, "internal_energy": -1.97, "cluster_size": 27, "cluster_id": 1, "rank_in_cluster": 16}

>  <energy>  (13) 
-8.35

>  <cluster_rmsd>  (13) 
1.83

>  <cluster>  (13) 
1

$$$$

     RDKit          3D

 56 59  0  0  0  0  0  0  0  0999 V2000
  141.2230   72.6640  221.7630 O   0  0  0  0  0  0  0  0  0  0  0  0
  140.1910   72.6100  222.4790 C   0  0  0  0  0  0  0  0  0  0  0  0
  139.0640   73.4570  222.2950 N   0  0  0  0  0  0  0  0  0  0  0  0
  139.0650   74.4510  221.2350 C   0  0  0  0  0  0  0  0  0  0  0  0
  140.1820   75.4040  221.4530 C   0  0  0  0  0  0  0  0  0  0  0  0
  140.2360   75.9700  222.5750 O   0  0  0  0  0  0  0  0  0  0  0  0
  141.1220   75.6310  220.4100 N   0  0  0  0  0  0  0  0  0  0  0  0
  141.3540   74.7500  219.2550 C   0  0  0  0  0  0  0  0  0  0  0  0
  142.8650   74.6680  219.3030 C   0  0  0  0  0  0  0  0  0  0  0  0
  143.2080   76.1330  219.4540 C   0  0  2  0  0  0  0  0  0  0  0  0
  144.4210   76.3340  220.0930 O   0  0  0  0  0  0  0  0  0  0  0  0
  142.0390   76.7420  220.2460 C   0  0  1  0  0  0  0  0  0  0  0  0
  141.3510   77.7780  219.3480 C   0  0  0  0  0  0  0  0  0  0  0  0
  140.0960   78.1190  219.7670 O   0  0  0  0  0  0  0  0  0  0  0  0
  139.9540   79.3020  220.4350 C   0  0  0  0  0  0  0  0  0  0  0  0
  140.8650   79.5380  221.5520 C   0  0  0  0  0  0  0  0  0  0  0  0
  141.9840   80.3360  221.5280 C   0  0  0  0  0  0  0  0  0  0  0  0
  142.8050   80.5140  222.6220 C   0  0  0  0  0  0  0  0  0  0  0  0
  142.5230   79.8800  223.8130 C   0  0  0  0  0  0  0  0  0  0  0  0
  141.4090   79.0730  223.8720 C   0  0  0  0  0  0  0  0  0  0  0  0
  140.5990   78.9050  222.7710 C   0  0  0  0  0  0  0  0  0  0  0  0
  140.1150   71.6270  223.5750 C   0  0  0  0  0  0  0  0  0  0  0  0
  139.5580   70.3720  223.3700 C   0  0  0  0  0  0  0  0  0  0  0  0
  139.4960   69.4570  224.4240 C   0  0  0  0  0  0  0  0  0  0  0  0
  139.9850   69.7770  225.6850 C   0  0  0  0  0  0  0  0  0  0  0  0
  139.9400   68.9020  226.7420 C   0  0  0  0  0  0  0  0  0  0  0  0
  140.4500   69.3040  227.9620 C   0  0  0  0  0  0  0  0  0  0  0  0
  140.4210   68.4610  229.0300 F   0  0  0  0  0  0  0  0  0  0  0  0
  140.9940   70.5530  228.1320 C   0  0  0  0  0  0  0  0  0  0  0  0
  141.0350   71.4320  227.0560 C   0  0  0  0  0  0  0  0  0  0  0  0
  140.5320   71.0430  225.8390 C   0  0  0  0  0  0  0  0  0  0  0  0
  140.5710   71.8840  224.8080 N   0  0  0  0  0  0  0  0  0  0  0  0
  138.2210   73.3720  222.9230 H   0  0  0  0  0  0  0  0  0  0  0  0
  139.1934   73.9512  220.2635 H   0  0  0  0  0  0  0  0  0  0  0  0
  138.1100   74.9968  221.2425 H   0  0  0  0  0  0  0  0  0  0  0  0
  140.8850   73.7642  219.3901 H   0  0  0  0  0  0  0  0  0  0  0  0
  140.9344   75.1062  218.3026 H   0  0  0  0  0  0  0  0  0  0  0  0
  143.2138   74.0772  220.1628 H   0  0  0  0  0  0  0  0  0  0  0  0
  143.3279   74.1727  218.4367 H   0  0  0  0  0  0  0  0  0  0  0  0
  143.3331   76.6124  218.4719 H   0  0  0  0  0  0  0  0  0  0  0  0
  144.4310   77.1660  220.6100 H   0  0  0  0  0  0  0  0  0  0  0  0
  142.3467   77.2091  221.1932 H   0  0  0  0  0  0  0  0  0  0  0  0
  141.9700   78.6871  219.3289 H   0  0  0  0  0  0  0  0  0  0  0  0
  141.2455   77.3220  218.3525 H   0  0  0  0  0  0  0  0  0  0  0  0
  140.1001   80.1148  219.7083 H   0  0  0  0  0  0  0  0  0  0  0  0
  138.9505   79.2619  220.8839 H   0  0  0  0  0  0  0  0  0  0  0  0
  142.2365   80.8570  220.5927 H   0  0  0  0  0  0  0  0  0  0  0  0
  143.6885   81.1646  222.5437 H   0  0  0  0  0  0  0  0  0  0  0  0
  143.1702   80.0151  224.6922 H   0  0  0  0  0  0  0  0  0  0  0  0
  141.1627   78.5556  224.8110 H   0  0  0  0  0  0  0  0  0  0  0  0
  139.7164   78.2536  222.8524 H   0  0  0  0  0  0  0  0  0  0  0  0
  139.1661   70.0984  222.3793 H   0  0  0  0  0  0  0  0  0  0  0  0
  139.0521   68.4652  224.2527 H   0  0  0  0  0  0  0  0  0  0  0  0
  139.5057   67.8987  226.6200 H   0  0  0  0  0  0  0  0  0  0  0  0
  141.3939   70.8555  229.1111 H   0  0  0  0  0  0  0  0  0  0  0  0
  141.4687   72.4354  227.1790 H   0  0  0  0  0  0  0  0  0  0  0  0
  1  2  2  0
  2  3  1  0
  3  4  1  0
  4  5  1  0
  5  6  2  0
  5  7  1  0
  7  8  1  0
  8  9  1  0
  9 10  1  0
 10 11  1  0
 10 12  1  0
 12 13  1  0
 13 14  1  0
 14 15  1  0
 15 16  1  0
 16 17  2  0
 17 18  1  0
 18 19  2  0
 19 20  1  0
 20 21  2  0
  2 22  1  0
 22 23  2  0
 23 24  1  0
 24 25  2  0
 25 26  1  0
 26 27  2  0
 27 28  1  0
 27 29  1  0
 29 30  2  0
 30 31  1  0
 31 32  2  0
 12  7  1  0
 21 16  1  0
 32 22  1  0
 31 25  1  0
  3 33  1  0
  4 34  1  0
  4 35  1  0
  8 36  1  0
  8 37  1  0
  9 38  1  0
  9 39  1  0
 10 40  1  6
 11 41  1  0
 12 42  1  1
 13 43  1  0
 13 44  1  0
 15 45  1  0
 15 46  1  0
 17 47  1  0
 18 48  1  0
 19 49  1  0
 20 50  1  0
 21 51  1  0
 23 52  1  0
 24 53  1  0
 26 54  1  0
 29 55  1  0
 30 56  1  0
M  END
>  <smiles>  (14) 
O=C(NCC(=O)N1CC[C@H](O)[C@H]1COCc1ccccc1)c1ccc2cc(F)ccc2n1

>  <score_type>  (14) 
oracle

>  <origin>  (14) 
autodockgpu

>  <m_score__min__energy>  (14) 
-8.9700000000000006

>  <m_primary>  (14) 
energy

>  <rmsd>  (14) 
2.1010257461264756

>  <m_score__min__rmsd>  (14) 
2.1010257461264756

>  <meeko>  (14) 
{"free_energy": -8.81, "intermolecular_energy": -11.49, "internal_energy": -1.94, "cluster_size": 27, "cluster_id": 1, "rank_in_cluster": 5}

>  <energy>  (14) 
-8.33

>  <cluster_rmsd>  (14) 
1.29

>  <cluster>  (14) 
1

$$$$

     RDKit          3D

 56 59  0  0  0  0  0  0  0  0999 V2000
  137.8240   70.5120  221.8640 O   0  0  0  0  0  0  0  0  0  0  0  0
  138.5430   71.0380  222.7510 C   0  0  0  0  0  0  0  0  0  0  0  0
  138.9760   72.3920  222.7070 N   0  0  0  0  0  0  0  0  0  0  0  0
  138.5870   73.2450  221.5960 C   0  0  0  0  0  0  0  0  0  0  0  0
  139.3700   74.5050  221.6440 C   0  0  0  0  0  0  0  0  0  0  0  0
  140.4310   74.4900  222.3190 O   0  0  0  0  0  0  0  0  0  0  0  0
  138.9000   75.6480  220.9420 N   0  0  0  0  0  0  0  0  0  0  0  0
  138.3280   76.8580  221.5540 C   0  0  0  0  0  0  0  0  0  0  0  0
  137.0850   77.0050  220.7010 C   0  0  0  0  0  0  0  0  0  0  0  0
  137.6860   76.8410  219.3220 C   0  0  2  0  0  0  0  0  0  0  0  0
  136.7750   76.3530  218.3980 O   0  0  0  0  0  0  0  0  0  0  0  0
  138.8740   75.8840  219.5110 C   0  0  1  0  0  0  0  0  0  0  0  0
  140.1550   76.6450  219.1470 C   0  0  0  0  0  0  0  0  0  0  0  0
  140.8550   77.0880  220.2330 O   0  0  0  0  0  0  0  0  0  0  0  0
  141.1860   78.4130  220.2730 C   0  0  0  0  0  0  0  0  0  0  0  0
  141.5760   78.9520  221.5730 C   0  0  0  0  0  0  0  0  0  0  0  0
  141.4030   78.3350  222.7890 C   0  0  0  0  0  0  0  0  0  0  0  0
  141.7930   78.9040  223.9840 C   0  0  0  0  0  0  0  0  0  0  0  0
  142.3870   80.1480  224.0010 C   0  0  0  0  0  0  0  0  0  0  0  0
  142.5750   80.7940  222.8000 C   0  0  0  0  0  0  0  0  0  0  0  0
  142.1810   80.2140  221.6150 C   0  0  0  0  0  0  0  0  0  0  0  0
  138.9780   70.2370  223.9090 C   0  0  0  0  0  0  0  0  0  0  0  0
  138.7690   68.8650  223.9460 C   0  0  0  0  0  0  0  0  0  0  0  0
  139.1900   68.1260  225.0540 C   0  0  0  0  0  0  0  0  0  0  0  0
  139.8200   68.7380  226.1300 C   0  0  0  0  0  0  0  0  0  0  0  0
  140.2470   68.0430  227.2350 C   0  0  0  0  0  0  0  0  0  0  0  0
  140.8650   68.7330  228.2600 C   0  0  0  0  0  0  0  0  0  0  0  0
  141.2980   68.0740  229.3680 F   0  0  0  0  0  0  0  0  0  0  0  0
  141.0560   70.0910  228.1930 C   0  0  0  0  0  0  0  0  0  0  0  0
  140.6220   70.7870  227.0710 C   0  0  0  0  0  0  0  0  0  0  0  0
  140.0060   70.1110  226.0460 C   0  0  0  0  0  0  0  0  0  0  0  0
  139.5900   70.7760  224.9710 N   0  0  0  0  0  0  0  0  0  0  0  0
  139.5790   72.7880  223.4760 H   0  0  0  0  0  0  0  0  0  0  0  0
  138.7859   72.7253  220.6471 H   0  0  0  0  0  0  0  0  0  0  0  0
  137.5140   73.4763  221.6685 H   0  0  0  0  0  0  0  0  0  0  0  0
  138.0819   76.7042  222.6150 H   0  0  0  0  0  0  0  0  0  0  0  0
  138.9925   77.7345  221.5686 H   0  0  0  0  0  0  0  0  0  0  0  0
  136.3459   76.2201  220.9193 H   0  0  0  0  0  0  0  0  0  0  0  0
  136.5287   77.9416  220.8536 H   0  0  0  0  0  0  0  0  0  0  0  0
  138.0012   77.8111  218.9102 H   0  0  0  0  0  0  0  0  0  0  0  0
  136.8330   75.3790  218.3050 H   0  0  0  0  0  0  0  0  0  0  0  0
  138.7969   74.9661  218.9097 H   0  0  0  0  0  0  0  0  0  0  0  0
  140.8042   75.9746  218.5646 H   0  0  0  0  0  0  0  0  0  0  0  0
  139.8507   77.5338  218.5748 H   0  0  0  0  0  0  0  0  0  0  0  0
  142.0277   78.5674  219.5819 H   0  0  0  0  0  0  0  0  0  0  0  0
  140.2649   78.9497  220.0017 H   0  0  0  0  0  0  0  0  0  0  0  0
  140.9317   77.3413  222.8105 H   0  0  0  0  0  0  0  0  0  0  0  0
  141.6292   78.3626  224.9274 H   0  0  0  0  0  0  0  0  0  0  0  0
  142.7019   80.6114  224.9477 H   0  0  0  0  0  0  0  0  0  0  0  0
  143.0467   81.7876  222.7868 H   0  0  0  0  0  0  0  0  0  0  0  0
  142.3464   80.7582  220.6735 H   0  0  0  0  0  0  0  0  0  0  0  0
  138.2725   68.3606  223.1039 H   0  0  0  0  0  0  0  0  0  0  0  0
  139.0195   67.0395  225.0748 H   0  0  0  0  0  0  0  0  0  0  0  0
  140.0994   66.9551  227.3028 H   0  0  0  0  0  0  0  0  0  0  0  0
  141.5482   70.6235  229.0201 H   0  0  0  0  0  0  0  0  0  0  0  0
  140.7712   71.8748  227.0040 H   0  0  0  0  0  0  0  0  0  0  0  0
  1  2  2  0
  2  3  1  0
  3  4  1  0
  4  5  1  0
  5  6  2  0
  5  7  1  0
  7  8  1  0
  8  9  1  0
  9 10  1  0
 10 11  1  0
 10 12  1  0
 12 13  1  0
 13 14  1  0
 14 15  1  0
 15 16  1  0
 16 17  2  0
 17 18  1  0
 18 19  2  0
 19 20  1  0
 20 21  2  0
  2 22  1  0
 22 23  2  0
 23 24  1  0
 24 25  2  0
 25 26  1  0
 26 27  2  0
 27 28  1  0
 27 29  1  0
 29 30  2  0
 30 31  1  0
 31 32  2  0
 12  7  1  0
 21 16  1  0
 32 22  1  0
 31 25  1  0
  3 33  1  0
  4 34  1  0
  4 35  1  0
  8 36  1  0
  8 37  1  0
  9 38  1  0
  9 39  1  0
 10 40  1  6
 11 41  1  0
 12 42  1  6
 13 43  1  0
 13 44  1  0
 15 45  1  0
 15 46  1  0
 17 47  1  0
 18 48  1  0
 19 49  1  0
 20 50  1  0
 21 51  1  0
 23 52  1  0
 24 53  1  0
 26 54  1  0
 29 55  1  0
 30 56  1  0
M  END
>  <smiles>  (15) 
O=C(NCC(=O)N1CC[C@H](O)[C@H]1COCc1ccccc1)c1ccc2cc(F)ccc2n1

>  <score_type>  (15) 
oracle

>  <origin>  (15) 
autodockgpu

>  <m_score__min__energy>  (15) 
-8.9700000000000006

>  <m_primary>  (15) 
energy

>  <rmsd>  (15) 
2.4660980025896824

>  <m_score__min__rmsd>  (15) 
2.4660980025896824

>  <meeko>  (15) 
{"free_energy": -7.49, "intermolecular_energy": -10.17, "internal_energy": -2.3, "cluster_size": 27, "cluster_id": 1, "rank_in_cluster": 25}

>  <energy>  (15) 
-8.3

>  <cluster_rmsd>  (15) 
1.55

>  <cluster>  (15) 
1

$$$$

     RDKit          3D

 56 59  0  0  0  0  0  0  0  0999 V2000
  139.2530   70.9960  221.1380 O   0  0  0  0  0  0  0  0  0  0  0  0
  139.3540   71.5200  222.2760 C   0  0  0  0  0  0  0  0  0  0  0  0
  139.3560   72.9250  222.4950 N   0  0  0  0  0  0  0  0  0  0  0  0
  139.2370   73.8380  221.3690 C   0  0  0  0  0  0  0  0  0  0  0  0
  140.3790   74.7850  221.3800 C   0  0  0  0  0  0  0  0  0  0  0  0
  141.4270   74.4070  221.9630 O   0  0  0  0  0  0  0  0  0  0  0  0
  140.2440   76.0500  220.7450 N   0  0  0  0  0  0  0  0  0  0  0  0
  140.0340   76.2710  219.3050 C   0  0  0  0  0  0  0  0  0  0  0  0
  141.0900   77.3280  219.0580 C   0  0  0  0  0  0  0  0  0  0  0  0
  140.8010   78.2690  220.2070 C   0  0  2  0  0  0  0  0  0  0  0  0
  141.9160   78.9930  220.5970 O   0  0  0  0  0  0  0  0  0  0  0  0
  140.2800   77.3710  221.3420 C   0  0  1  0  0  0  0  0  0  0  0  0
  138.8330   77.7810  221.6410 C   0  0  0  0  0  0  0  0  0  0  0  0
  138.5920   78.0170  222.9640 O   0  0  0  0  0  0  0  0  0  0  0  0
  138.7760   79.2910  223.4210 C   0  0  0  0  0  0  0  0  0  0  0  0
  140.1480   79.7940  223.4260 C   0  0  0  0  0  0  0  0  0  0  0  0
  141.2580   79.1120  223.8640 C   0  0  0  0  0  0  0  0  0  0  0  0
  142.5280   79.6480  223.8430 C   0  0  0  0  0  0  0  0  0  0  0  0
  142.7350   80.9270  223.3680 C   0  0  0  0  0  0  0  0  0  0  0  0
  141.6450   81.6380  222.9220 C   0  0  0  0  0  0  0  0  0  0  0  0
  140.3820   81.0890  222.9490 C   0  0  0  0  0  0  0  0  0  0  0  0
  139.4790   70.6600  223.4670 C   0  0  0  0  0  0  0  0  0  0  0  0
  139.0570   69.3380  223.4400 C   0  0  0  0  0  0  0  0  0  0  0  0
  139.1850   68.5420  224.5810 C   0  0  0  0  0  0  0  0  0  0  0  0
  139.7320   69.0480  225.7530 C   0  0  0  0  0  0  0  0  0  0  0  0
  139.8730   68.2940  226.8920 C   0  0  0  0  0  0  0  0  0  0  0  0
  140.4280   68.8790  228.0140 C   0  0  0  0  0  0  0  0  0  0  0  0
  140.5810   68.1590  229.1590 F   0  0  0  0  0  0  0  0  0  0  0  0
  140.8360   70.1890  228.0090 C   0  0  0  0  0  0  0  0  0  0  0  0
  140.6890   70.9450  226.8520 C   0  0  0  0  0  0  0  0  0  0  0  0
  140.1390   70.3740  225.7300 C   0  0  0  0  0  0  0  0  0  0  0  0
  139.9990   71.0970  224.6210 N   0  0  0  0  0  0  0  0  0  0  0  0
  139.4440   73.3160  223.4700 H   0  0  0  0  0  0  0  0  0  0  0  0
  139.2440   73.2654  220.4298 H   0  0  0  0  0  0  0  0  0  0  0  0
  138.2939   74.3986  221.4484 H   0  0  0  0  0  0  0  0  0  0  0  0
  140.2207   75.3594  218.7184 H   0  0  0  0  0  0  0  0  0  0  0  0
  139.0106   76.5557  219.0193 H   0  0  0  0  0  0  0  0  0  0  0  0
  142.1060   76.9108  219.1188 H   0  0  0  0  0  0  0  0  0  0  0  0
  141.0540   77.7921  218.0613 H   0  0  0  0  0  0  0  0  0  0  0  0
  140.0656   79.0336  219.9161 H   0  0  0  0  0  0  0  0  0  0  0  0
  142.6720   78.4120  220.8220 H   0  0  0  0  0  0  0  0  0  0  0  0
  140.8849   77.4285  222.2589 H   0  0  0  0  0  0  0  0  0  0  0  0
  138.6086   78.6989  221.0779 H   0  0  0  0  0  0  0  0  0  0  0  0
  138.1918   76.9385  221.3426 H   0  0  0  0  0  0  0  0  0  0  0  0
  138.1771   79.9621  222.7878 H   0  0  0  0  0  0  0  0  0  0  0  0
  138.4732   79.2658  224.4782 H   0  0  0  0  0  0  0  0  0  0  0  0
  141.1268   78.0902  224.2495 H   0  0  0  0  0  0  0  0  0  0  0  0
  143.3795   79.0539  224.2063 H   0  0  0  0  0  0  0  0  0  0  0  0
  143.7435   81.3658  223.3466 H   0  0  0  0  0  0  0  0  0  0  0  0
  141.7840   82.6595  222.5383 H   0  0  0  0  0  0  0  0  0  0  0  0
  139.5325   81.6856  222.5851 H   0  0  0  0  0  0  0  0  0  0  0  0
  138.6223   68.9175  222.5212 H   0  0  0  0  0  0  0  0  0  0  0  0
  138.8465   67.4958  224.5505 H   0  0  0  0  0  0  0  0  0  0  0  0
  139.5498   67.2427  226.9108 H   0  0  0  0  0  0  0  0  0  0  0  0
  141.2755   70.6369  228.9125 H   0  0  0  0  0  0  0  0  0  0  0  0
  141.0118   71.9964  226.8348 H   0  0  0  0  0  0  0  0  0  0  0  0
  1  2  2  0
  2  3  1  0
  3  4  1  0
  4  5  1  0
  5  6  2  0
  5  7  1  0
  7  8  1  0
  8  9  1  0
  9 10  1  0
 10 11  1  0
 10 12  1  0
 12 13  1  0
 13 14  1  0
 14 15  1  0
 15 16  1  0
 16 17  2  0
 17 18  1  0
 18 19  2  0
 19 20  1  0
 20 21  2  0
  2 22  1  0
 22 23  2  0
 23 24  1  0
 24 25  2  0
 25 26  1  0
 26 27  2  0
 27 28  1  0
 27 29  1  0
 29 30  2  0
 30 31  1  0
 31 32  2  0
 12  7  1  0
 21 16  1  0
 32 22  1  0
 31 25  1  0
  3 33  1  0
  4 34  1  0
  4 35  1  0
  8 36  1  0
  8 37  1  0
  9 38  1  0
  9 39  1  0
 10 40  1  6
 11 41  1  0
 12 42  1  1
 13 43  1  0
 13 44  1  0
 15 45  1  0
 15 46  1  0
 17 47  1  0
 18 48  1  0
 19 49  1  0
 20 50  1  0
 21 51  1  0
 23 52  1  0
 24 53  1  0
 26 54  1  0
 29 55  1  0
 30 56  1  0
M  END
>  <smiles>  (16) 
O=C(NCC(=O)N1CC[C@H](O)[C@H]1COCc1ccccc1)c1ccc2cc(F)ccc2n1

>  <score_type>  (16) 
oracle

>  <origin>  (16) 
autodockgpu

>  <m_score__min__energy>  (16) 
-8.9700000000000006

>  <m_primary>  (16) 
energy

>  <rmsd>  (16) 
2.2009104284263517

>  <m_score__min__rmsd>  (16) 
2.2009104284263517

>  <meeko>  (16) 
{"free_energy": -8.3, "intermolecular_energy": -10.98, "internal_energy": -1.95, "cluster_size": 27, "cluster_id": 1, "rank_in_cluster": 15}

>  <energy>  (16) 
-8.29

>  <cluster_rmsd>  (16) 
1.48

>  <cluster>  (16) 
1

$$$$

     RDKit          3D

 56 59  0  0  0  0  0  0  0  0999 V2000
  137.7690   71.8130  222.6770 O   0  0  0  0  0  0  0  0  0  0  0  0
  138.9450   71.4060  222.8570 C   0  0  0  0  0  0  0  0  0  0  0  0
  140.0370   71.7720  222.0240 N   0  0  0  0  0  0  0  0  0  0  0  0
  139.8240   72.6610  220.8930 C   0  0  0  0  0  0  0  0  0  0  0  0
  140.4860   73.9630  221.1570 C   0  0  0  0  0  0  0  0  0  0  0  0
  140.3460   74.4480  222.3090 O   0  0  0  0  0  0  0  0  0  0  0  0
  141.2330   74.5910  220.1230 N   0  0  0  0  0  0  0  0  0  0  0  0
  141.6990   73.9460  218.8850 C   0  0  0  0  0  0  0  0  0  0  0  0
  143.1440   74.3980  218.8970 C   0  0  0  0  0  0  0  0  0  0  0  0
  142.9600   75.8730  219.1780 C   0  0  2  0  0  0  0  0  0  0  0  0
  144.0570   76.4360  219.8110 O   0  0  0  0  0  0  0  0  0  0  0  0
  141.6940   75.9640  220.0470 C   0  0  1  0  0  0  0  0  0  0  0  0
  140.6420   76.7590  219.2640 C   0  0  0  0  0  0  0  0  0  0  0  0
  140.4340   78.0190  219.7500 O   0  0  0  0  0  0  0  0  0  0  0  0
  141.5350   78.7680  220.0540 C   0  0  0  0  0  0  0  0  0  0  0  0
  141.7420   79.0860  221.4640 C   0  0  0  0  0  0  0  0  0  0  0  0
  141.4410   78.2710  222.5300 C   0  0  0  0  0  0  0  0  0  0  0  0
  141.6610   78.6350  223.8420 C   0  0  0  0  0  0  0  0  0  0  0  0
  142.2070   79.8660  224.1390 C   0  0  0  0  0  0  0  0  0  0  0  0
  142.5200   80.7080  223.0960 C   0  0  0  0  0  0  0  0  0  0  0  0
  142.2950   80.3300  221.7910 C   0  0  0  0  0  0  0  0  0  0  0  0
  139.2390   70.5020  223.9830 C   0  0  0  0  0  0  0  0  0  0  0  0
  138.8920   69.1590  223.9300 C   0  0  0  0  0  0  0  0  0  0  0  0
  139.1820   68.3220  225.0090 C   0  0  0  0  0  0  0  0  0  0  0  0
  139.8170   68.8050  226.1460 C   0  0  0  0  0  0  0  0  0  0  0  0
  140.1160   68.0100  227.2250 C   0  0  0  0  0  0  0  0  0  0  0  0
  140.7500   68.5760  228.3150 C   0  0  0  0  0  0  0  0  0  0  0  0
  141.0600   67.8160  229.4000 F   0  0  0  0  0  0  0  0  0  0  0  0
  141.0800   69.9080  228.3370 C   0  0  0  0  0  0  0  0  0  0  0  0
  140.7730   70.7060  227.2410 C   0  0  0  0  0  0  0  0  0  0  0  0
  140.1440   70.1540  226.1520 C   0  0  0  0  0  0  0  0  0  0  0  0
  139.8490   70.9170  225.1010 N   0  0  0  0  0  0  0  0  0  0  0  0
  141.0060   71.4040  222.2160 H   0  0  0  0  0  0  0  0  0  0  0  0
  140.2516   72.2093  219.9857 H   0  0  0  0  0  0  0  0  0  0  0  0
  138.7451   72.8202  220.7492 H   0  0  0  0  0  0  0  0  0  0  0  0
  141.6112   72.8506  218.9347 H   0  0  0  0  0  0  0  0  0  0  0  0
  141.1336   74.2084  217.9786 H   0  0  0  0  0  0  0  0  0  0  0  0
  143.7200   73.9006  219.6912 H   0  0  0  0  0  0  0  0  0  0  0  0
  143.7069   74.1694  217.9800 H   0  0  0  0  0  0  0  0  0  0  0  0
  142.8592   76.4433  218.2428 H   0  0  0  0  0  0  0  0  0  0  0  0
  143.8020   77.1750  220.4010 H   0  0  0  0  0  0  0  0  0  0  0  0
  141.8673   76.4312  221.0276 H   0  0  0  0  0  0  0  0  0  0  0  0
  140.9746   76.8402  218.2187 H   0  0  0  0  0  0  0  0  0  0  0  0
  139.6904   76.2156  219.3597 H   0  0  0  0  0  0  0  0  0  0  0  0
  142.4202   78.2174  219.7029 H   0  0  0  0  0  0  0  0  0  0  0  0
  141.3713   79.7370  219.5598 H   0  0  0  0  0  0  0  0  0  0  0  0
  141.0042   77.2821  222.3267 H   0  0  0  0  0  0  0  0  0  0  0  0
  141.4000   77.9409  224.6544 H   0  0  0  0  0  0  0  0  0  0  0  0
  142.3876   80.1670  225.1815 H   0  0  0  0  0  0  0  0  0  0  0  0
  142.9555   81.6957  223.3076 H   0  0  0  0  0  0  0  0  0  0  0  0
  142.5577   81.0265  220.9811 H   0  0  0  0  0  0  0  0  0  0  0  0
  138.3892   68.7548  223.0390 H   0  0  0  0  0  0  0  0  0  0  0  0
  138.9022   67.2594  224.9578 H   0  0  0  0  0  0  0  0  0  0  0  0
  139.8555   66.9413  227.2219 H   0  0  0  0  0  0  0  0  0  0  0  0
  141.5831   70.3404  229.2144 H   0  0  0  0  0  0  0  0  0  0  0  0
  141.0327   71.7749  227.2459 H   0  0  0  0  0  0  0  0  0  0  0  0
  1  2  2  0
  2  3  1  0
  3  4  1  0
  4  5  1  0
  5  6  2  0
  5  7  1  0
  7  8  1  0
  8  9  1  0
  9 10  1  0
 10 11  1  0
 10 12  1  0
 12 13  1  0
 13 14  1  0
 14 15  1  0
 15 16  1  0
 16 17  2  0
 17 18  1  0
 18 19  2  0
 19 20  1  0
 20 21  2  0
  2 22  1  0
 22 23  2  0
 23 24  1  0
 24 25  2  0
 25 26  1  0
 26 27  2  0
 27 28  1  0
 27 29  1  0
 29 30  2  0
 30 31  1  0
 31 32  2  0
 12  7  1  0
 21 16  1  0
 32 22  1  0
 31 25  1  0
  3 33  1  0
  4 34  1  0
  4 35  1  0
  8 36  1  0
  8 37  1  0
  9 38  1  0
  9 39  1  0
 10 40  1  6
 11 41  1  0
 12 42  1  1
 13 43  1  0
 13 44  1  0
 15 45  1  0
 15 46  1  0
 17 47  1  0
 18 48  1  0
 19 49  1  0
 20 50  1  0
 21 51  1  0
 23 52  1  0
 24 53  1  0
 26 54  1  0
 29 55  1  0
 30 56  1  0
M  END
>  <smiles>  (17) 
O=C(NCC(=O)N1CC[C@H](O)[C@H]1COCc1ccccc1)c1ccc2cc(F)ccc2n1

>  <score_type>  (17) 
oracle

>  <origin>  (17) 
autodockgpu

>  <m_score__min__energy>  (17) 
-8.9700000000000006

>  <m_primary>  (17) 
energy

>  <rmsd>  (17) 
2.15251379968252

>  <m_score__min__rmsd>  (17) 
2.15251379968252

>  <meeko>  (17) 
{"free_energy": -8.53, "intermolecular_energy": -11.21, "internal_energy": -1.49, "cluster_size": 27, "cluster_id": 1, "rank_in_cluster": 11}

>  <energy>  (17) 
-8.26

>  <cluster_rmsd>  (17) 
1.2

>  <cluster>  (17) 
1

$$$$

     RDKit          3D

 56 59  0  0  0  0  0  0  0  0999 V2000
  139.5430   70.6620  221.2880 O   0  0  0  0  0  0  0  0  0  0  0  0
  139.6330   71.2320  222.4040 C   0  0  0  0  0  0  0  0  0  0  0  0
  139.6810   72.6440  222.5610 N   0  0  0  0  0  0  0  0  0  0  0  0
  139.6270   73.5090  221.3940 C   0  0  0  0  0  0  0  0  0  0  0  0
  140.7510   74.4770  221.4440 C   0  0  0  0  0  0  0  0  0  0  0  0
  140.7020   75.3590  222.3380 O   0  0  0  0  0  0  0  0  0  0  0  0
  141.8110   74.3670  220.5030 N   0  0  0  0  0  0  0  0  0  0  0  0
  141.9670   73.2980  219.5040 C   0  0  0  0  0  0  0  0  0  0  0  0
  143.4190   72.9410  219.7440 C   0  0  0  0  0  0  0  0  0  0  0  0
  144.0370   74.3210  219.7500 C   0  0  2  0  0  0  0  0  0  0  0  0
  145.2000   74.3820  220.5020 O   0  0  0  0  0  0  0  0  0  0  0  0
  142.9470   75.2490  220.3120 C   0  0  1  0  0  0  0  0  0  0  0  0
  142.5700   76.2530  219.2150 C   0  0  0  0  0  0  0  0  0  0  0  0
  142.3590   77.5190  219.6800 O   0  0  0  0  0  0  0  0  0  0  0  0
  141.3930   77.6890  220.6310 C   0  0  0  0  0  0  0  0  0  0  0  0
  141.6830   78.6460  221.6960 C   0  0  0  0  0  0  0  0  0  0  0  0
  142.1640   79.9230  221.5270 C   0  0  0  0  0  0  0  0  0  0  0  0
  142.4190   80.7760  222.5800 C   0  0  0  0  0  0  0  0  0  0  0  0
  142.1940   80.3660  223.8780 C   0  0  0  0  0  0  0  0  0  0  0  0
  141.7130   79.0930  224.0830 C   0  0  0  0  0  0  0  0  0  0  0  0
  141.4630   78.2520  223.0210 C   0  0  0  0  0  0  0  0  0  0  0  0
  139.6920   70.4220  223.6350 C   0  0  0  0  0  0  0  0  0  0  0  0
  139.1920   69.1280  223.6610 C   0  0  0  0  0  0  0  0  0  0  0  0
  139.2600   68.3800  224.8390 C   0  0  0  0  0  0  0  0  0  0  0  0
  139.8220   68.9060  225.9950 C   0  0  0  0  0  0  0  0  0  0  0  0
  139.9040   68.1990  227.1700 C   0  0  0  0  0  0  0  0  0  0  0  0
  140.4800   68.8010  228.2720 C   0  0  0  0  0  0  0  0  0  0  0  0
  140.5760   68.1280  229.4500 F   0  0  0  0  0  0  0  0  0  0  0  0
  140.9650   70.0840  228.2130 C   0  0  0  0  0  0  0  0  0  0  0  0
  140.8770   70.7930  227.0200 C   0  0  0  0  0  0  0  0  0  0  0  0
  140.3070   70.2030  225.9180 C   0  0  0  0  0  0  0  0  0  0  0  0
  140.2230   70.8810  224.7750 N   0  0  0  0  0  0  0  0  0  0  0  0
  139.7560   73.0760  223.5200 H   0  0  0  0  0  0  0  0  0  0  0  0
  139.7080   72.8997  220.4818 H   0  0  0  0  0  0  0  0  0  0  0  0
  138.6723   74.0554  221.3861 H   0  0  0  0  0  0  0  0  0  0  0  0
  141.2972   72.4486  219.7040 H   0  0  0  0  0  0  0  0  0  0  0  0
  141.7197   73.5832  218.4708 H   0  0  0  0  0  0  0  0  0  0  0  0
  143.5585   72.4281  220.7070 H   0  0  0  0  0  0  0  0  0  0  0  0
  143.8505   72.2456  219.0090 H   0  0  0  0  0  0  0  0  0  0  0  0
  144.3489   74.6180  218.7378 H   0  0  0  0  0  0  0  0  0  0  0  0
  145.9290   74.8200  220.0150 H   0  0  0  0  0  0  0  0  0  0  0  0
  143.2542   75.7837  221.2229 H   0  0  0  0  0  0  0  0  0  0  0  0
  143.3860   76.2850  218.4780 H   0  0  0  0  0  0  0  0  0  0  0  0
  141.6219   75.9091  218.7760 H   0  0  0  0  0  0  0  0  0  0  0  0
  140.4782   78.0250  220.1208 H   0  0  0  0  0  0  0  0  0  0  0  0
  141.3068   76.7142  221.1334 H   0  0  0  0  0  0  0  0  0  0  0  0
  142.3542   80.2807  220.5043 H   0  0  0  0  0  0  0  0  0  0  0  0
  142.8035   81.7878  222.3843 H   0  0  0  0  0  0  0  0  0  0  0  0
  142.3936   81.0381  224.7256 H   0  0  0  0  0  0  0  0  0  0  0  0
  141.5256   78.7423  225.1086 H   0  0  0  0  0  0  0  0  0  0  0  0
  141.0790   77.2406  223.2202 H   0  0  0  0  0  0  0  0  0  0  0  0
  138.7431   68.6921  222.7563 H   0  0  0  0  0  0  0  0  0  0  0  0
  138.8608   67.3550  224.8512 H   0  0  0  0  0  0  0  0  0  0  0  0
  139.5176   67.1710  227.2323 H   0  0  0  0  0  0  0  0  0  0  0  0
  141.4191   70.5470  229.1015 H   0  0  0  0  0  0  0  0  0  0  0  0
  141.2620   71.8216  226.9589 H   0  0  0  0  0  0  0  0  0  0  0  0
  1  2  2  0
  2  3  1  0
  3  4  1  0
  4  5  1  0
  5  6  2  0
  5  7  1  0
  7  8  1  0
  8  9  1  0
  9 10  1  0
 10 11  1  0
 10 12  1  0
 12 13  1  0
 13 14  1  0
 14 15  1  0
 15 16  1  0
 16 17  2  0
 17 18  1  0
 18 19  2  0
 19 20  1  0
 20 21  2  0
  2 22  1  0
 22 23  2  0
 23 24  1  0
 24 25  2  0
 25 26  1  0
 26 27  2  0
 27 28  1  0
 27 29  1  0
 29 30  2  0
 30 31  1  0
 31 32  2  0
 12  7  1  0
 21 16  1  0
 32 22  1  0
 31 25  1  0
  3 33  1  0
  4 34  1  0
  4 35  1  0
  8 36  1  0
  8 37  1  0
  9 38  1  0
  9 39  1  0
 10 40  1  6
 11 41  1  0
 12 42  1  1
 13 43  1  0
 13 44  1  0
 15 45  1  0
 15 46  1  0
 17 47  1  0
 18 48  1  0
 19 49  1  0
 20 50  1  0
 21 51  1  0
 23 52  1  0
 24 53  1  0
 26 54  1  0
 29 55  1  0
 30 56  1  0
M  END
>  <smiles>  (18) 
O=C(NCC(=O)N1CC[C@H](O)[C@H]1COCc1ccccc1)c1ccc2cc(F)ccc2n1

>  <score_type>  (18) 
oracle

>  <origin>  (18) 
autodockgpu

>  <m_score__min__energy>  (18) 
-8.9700000000000006

>  <m_primary>  (18) 
energy

>  <rmsd>  (18) 
2.4926813934855474

>  <m_score__min__rmsd>  (18) 
2.4926813934855474

>  <meeko>  (18) 
{"free_energy": -8.93, "intermolecular_energy": -11.62, "internal_energy": -1.86, "cluster_size": 27, "cluster_id": 1, "rank_in_cluster": 2}

>  <energy>  (18) 
-8.2

>  <cluster_rmsd>  (18) 
0.92

>  <cluster>  (18) 
1

$$$$

     RDKit          3D

 56 59  0  0  0  0  0  0  0  0999 V2000
  136.9710   76.1830  221.3210 O   0  0  0  0  0  0  0  0  0  0  0  0
  138.0370   76.1580  221.9870 C   0  0  0  0  0  0  0  0  0  0  0  0
  138.7060   74.9560  222.3500 N   0  0  0  0  0  0  0  0  0  0  0  0
  138.1610   73.6690  221.9480 C   0  0  0  0  0  0  0  0  0  0  0  0
  139.1930   72.6190  222.1290 C   0  0  0  0  0  0  0  0  0  0  0  0
  140.3340   72.9990  222.4970 O   0  0  0  0  0  0  0  0  0  0  0  0
  138.8580   71.2590  221.8850 N   0  0  0  0  0  0  0  0  0  0  0  0
  139.7970   70.2010  221.4780 C   0  0  0  0  0  0  0  0  0  0  0  0
  139.0170   69.6060  220.3240 C   0  0  0  0  0  0  0  0  0  0  0  0
  137.6560   69.4610  220.9670 C   0  0  2  0  0  0  0  0  0  0  0  0
  136.6230   69.4990  220.0440 O   0  0  0  0  0  0  0  0  0  0  0  0
  137.5600   70.6170  221.9770 C   0  0  1  0  0  0  0  0  0  0  0  0
  137.4470   70.0080  223.3800 C   0  0  0  0  0  0  0  0  0  0  0  0
  138.2250   70.6330  224.3130 O   0  0  0  0  0  0  0  0  0  0  0  0
  139.3340   69.9710  224.7560 C   0  0  0  0  0  0  0  0  0  0  0  0
  139.9570   70.4770  225.9760 C   0  0  0  0  0  0  0  0  0  0  0  0
  139.8800   69.9010  227.2220 C   0  0  0  0  0  0  0  0  0  0  0  0
  140.4920   70.4340  228.3370 C   0  0  0  0  0  0  0  0  0  0  0  0
  141.2230   71.6000  228.2380 C   0  0  0  0  0  0  0  0  0  0  0  0
  141.3200   72.2030  227.0050 C   0  0  0  0  0  0  0  0  0  0  0  0
  140.7040   71.6580  225.9000 C   0  0  0  0  0  0  0  0  0  0  0  0
  138.6510   77.4220  222.4320 C   0  0  0  0  0  0  0  0  0  0  0  0
  137.8730   78.5450  222.6760 C   0  0  0  0  0  0  0  0  0  0  0  0
  138.4770   79.7320  223.0970 C   0  0  0  0  0  0  0  0  0  0  0  0
  139.8510   79.8160  223.2780 C   0  0  0  0  0  0  0  0  0  0  0  0
  140.4780   80.9670  223.6900 C   0  0  0  0  0  0  0  0  0  0  0  0
  141.8510   80.9600  223.8450 C   0  0  0  0  0  0  0  0  0  0  0  0
  142.5010   82.0830  224.2510 F   0  0  0  0  0  0  0  0  0  0  0  0
  142.5920   79.8320  223.5940 C   0  0  0  0  0  0  0  0  0  0  0  0
  141.9500   78.6710  223.1770 C   0  0  0  0  0  0  0  0  0  0  0  0
  140.5850   78.6670  223.0210 C   0  0  0  0  0  0  0  0  0  0  0  0
  139.9690   77.5560  222.6220 N   0  0  0  0  0  0  0  0  0  0  0  0
  139.5980   74.9870  222.9100 H   0  0  0  0  0  0  0  0  0  0  0  0
  137.2837   73.4321  222.5679 H   0  0  0  0  0  0  0  0  0  0  0  0
  137.8610   73.7110  220.8905 H   0  0  0  0  0  0  0  0  0  0  0  0
  140.7631   70.6131  221.1513 H   0  0  0  0  0  0  0  0  0  0  0  0
  140.0752   69.4911  222.2709 H   0  0  0  0  0  0  0  0  0  0  0  0
  138.9885   70.2846  219.4587 H   0  0  0  0  0  0  0  0  0  0  0  0
  139.4359   68.6744  219.9157 H   0  0  0  0  0  0  0  0  0  0  0  0
  137.5527   68.4802  221.4542 H   0  0  0  0  0  0  0  0  0  0  0  0
  136.5590   70.3710  219.6000 H   0  0  0  0  0  0  0  0  0  0  0  0
  136.7133   71.2940  221.7903 H   0  0  0  0  0  0  0  0  0  0  0  0
  136.3975   70.0722  223.7032 H   0  0  0  0  0  0  0  0  0  0  0  0
  137.8009   68.9689  223.3095 H   0  0  0  0  0  0  0  0  0  0  0  0
  139.0471   68.9247  224.9376 H   0  0  0  0  0  0  0  0  0  0  0  0
  140.0880   70.1108  223.9674 H   0  0  0  0  0  0  0  0  0  0  0  0
  139.3031   68.9713  227.3349 H   0  0  0  0  0  0  0  0  0  0  0  0
  140.3970   69.9277  229.3089 H   0  0  0  0  0  0  0  0  0  0  0  0
  141.7147   72.0355  229.1204 H   0  0  0  0  0  0  0  0  0  0  0  0
  141.8976   73.1333  226.9002 H   0  0  0  0  0  0  0  0  0  0  0  0
  140.8021   72.1660  224.9293 H   0  0  0  0  0  0  0  0  0  0  0  0
  136.7826   78.5004  222.5381 H   0  0  0  0  0  0  0  0  0  0  0  0
  137.8523   80.6169  223.2888 H   0  0  0  0  0  0  0  0  0  0  0  0
  139.8968   81.8786  223.8930 H   0  0  0  0  0  0  0  0  0  0  0  0
  143.6845   79.8463  223.7216 H   0  0  0  0  0  0  0  0  0  0  0  0
  142.5322   77.7603  222.9731 H   0  0  0  0  0  0  0  0  0  0  0  0
  1  2  2  0
  2  3  1  0
  3  4  1  0
  4  5  1  0
  5  6  2  0
  5  7  1  0
  7  8  1  0
  8  9  1  0
  9 10  1  0
 10 11  1  0
 10 12  1  0
 12 13  1  0
 13 14  1  0
 14 15  1  0
 15 16  1  0
 16 17  2  0
 17 18  1  0
 18 19  2  0
 19 20  1  0
 20 21  2  0
  2 22  1  0
 22 23  2  0
 23 24  1  0
 24 25  2  0
 25 26  1  0
 26 27  2  0
 27 28  1  0
 27 29  1  0
 29 30  2  0
 30 31  1  0
 31 32  2  0
 12  7  1  0
 21 16  1  0
 32 22  1  0
 31 25  1  0
  3 33  1  0
  4 34  1  0
  4 35  1  0
  8 36  1  0
  8 37  1  0
  9 38  1  0
  9 39  1  0
 10 40  1  1
 11 41  1  0
 12 42  1  6
 13 43  1  0
 13 44  1  0
 15 45  1  0
 15 46  1  0
 17 47  1  0
 18 48  1  0
 19 49  1  0
 20 50  1  0
 21 51  1  0
 23 52  1  0
 24 53  1  0
 26 54  1  0
 29 55  1  0
 30 56  1  0
M  END
>  <smiles>  (19) 
O=C(NCC(=O)N1CC[C@H](O)[C@H]1COCc1ccccc1)c1ccc2cc(F)ccc2n1

>  <score_type>  (19) 
oracle

>  <origin>  (19) 
autodockgpu

>  <m_score__min__energy>  (19) 
-8.9700000000000006

>  <m_primary>  (19) 
energy

>  <rmsd>  (19) 
8.406571853945792

>  <m_score__min__rmsd>  (19) 
8.406571853945792

>  <meeko>  (19) 
{"free_energy": -7.51, "intermolecular_energy": -10.2, "internal_energy": -2.32, "cluster_size": 1, "cluster_id": 6, "rank_in_cluster": 1}

>  <energy>  (19) 
-8.12

>  <cluster_rmsd>  (19) 
1.34

>  <cluster>  (19) 
1

$$$$

     RDKit          3D

 56 59  0  0  0  0  0  0  0  0999 V2000
  134.0480   69.9670  226.3390 O   0  0  0  0  0  0  0  0  0  0  0  0
  134.2990   71.1300  225.9330 C   0  0  0  0  0  0  0  0  0  0  0  0
  135.3140   71.4250  224.9820 N   0  0  0  0  0  0  0  0  0  0  0  0
  136.1260   70.3550  224.4270 C   0  0  0  0  0  0  0  0  0  0  0  0
  137.1150   70.9260  223.4800 C   0  0  0  0  0  0  0  0  0  0  0  0
  136.9360   72.1180  223.1220 O   0  0  0  0  0  0  0  0  0  0  0  0
  138.1970   70.1220  223.0280 N   0  0  0  0  0  0  0  0  0  0  0  0
  139.5260   70.6130  222.6300 C   0  0  0  0  0  0  0  0  0  0  0  0
  139.6800   69.8790  221.3140 C   0  0  0  0  0  0  0  0  0  0  0  0
  139.2800   68.4830  221.7380 C   0  0  2  0  0  0  0  0  0  0  0  0
  138.7650   67.7350  220.6910 O   0  0  0  0  0  0  0  0  0  0  0  0
  138.2440   68.6820  222.8580 C   0  0  1  0  0  0  0  0  0  0  0  0
  138.8240   68.0860  224.1470 C   0  0  0  0  0  0  0  0  0  0  0  0
  138.3500   68.6750  225.2840 O   0  0  0  0  0  0  0  0  0  0  0  0
  139.1330   68.6130  226.4010 C   0  0  0  0  0  0  0  0  0  0  0  0
  139.8430   69.8340  226.7740 C   0  0  0  0  0  0  0  0  0  0  0  0
  139.9630   70.3440  228.0450 C   0  0  0  0  0  0  0  0  0  0  0  0
  140.6480   71.5070  228.3270 C   0  0  0  0  0  0  0  0  0  0  0  0
  141.2530   72.2210  227.3150 C   0  0  0  0  0  0  0  0  0  0  0  0
  141.1520   71.7390  226.0290 C   0  0  0  0  0  0  0  0  0  0  0  0
  140.4650   70.5750  225.7620 C   0  0  0  0  0  0  0  0  0  0  0  0
  133.5180   72.2690  226.4490 C   0  0  0  0  0  0  0  0  0  0  0  0
  132.3170   72.0660  227.1160 C   0  0  0  0  0  0  0  0  0  0  0  0
  131.5950   73.1610  227.5970 C   0  0  0  0  0  0  0  0  0  0  0  0
  132.0540   74.4600  227.4220 C   0  0  0  0  0  0  0  0  0  0  0  0
  131.3700   75.5580  227.8810 C   0  0  0  0  0  0  0  0  0  0  0  0
  131.9020   76.8150  227.6630 C   0  0  0  0  0  0  0  0  0  0  0  0
  131.2480   77.9230  228.1050 F   0  0  0  0  0  0  0  0  0  0  0  0
  133.0920   76.9810  226.9990 C   0  0  0  0  0  0  0  0  0  0  0  0
  133.7780   75.8640  226.5380 C   0  0  0  0  0  0  0  0  0  0  0  0
  133.2590   74.6100  226.7500 C   0  0  0  0  0  0  0  0  0  0  0  0
  133.9160   73.5390  226.3080 N   0  0  0  0  0  0  0  0  0  0  0  0
  135.4860   72.4180  224.6720 H   0  0  0  0  0  0  0  0  0  0  0  0
  136.6543   69.8358  225.2403 H   0  0  0  0  0  0  0  0  0  0  0  0
  135.4792   69.6411  223.8960 H   0  0  0  0  0  0  0  0  0  0  0  0
  139.5366   71.7046  222.4947 H   0  0  0  0  0  0  0  0  0  0  0  0
  140.3286   70.4365  223.3612 H   0  0  0  0  0  0  0  0  0  0  0  0
  139.0056   70.2795  220.5427 H   0  0  0  0  0  0  0  0  0  0  0  0
  140.6779   69.9545  220.8574 H   0  0  0  0  0  0  0  0  0  0  0  0
  140.1533   67.9096  222.0824 H   0  0  0  0  0  0  0  0  0  0  0  0
  139.4260   67.1090  220.3270 H   0  0  0  0  0  0  0  0  0  0  0  0
  137.2670   68.2269  222.6379 H   0  0  0  0  0  0  0  0  0  0  0  0
  138.5722   67.0157  224.1791 H   0  0  0  0  0  0  0  0  0  0  0  0
  139.9098   68.2602  224.1225 H   0  0  0  0  0  0  0  0  0  0  0  0
  138.4868   68.3321  227.2457 H   0  0  0  0  0  0  0  0  0  0  0  0
  139.9202   67.8829  226.1616 H   0  0  0  0  0  0  0  0  0  0  0  0
  139.4906   69.7990  228.8756 H   0  0  0  0  0  0  0  0  0  0  0  0
  140.7119   71.8667  229.3645 H   0  0  0  0  0  0  0  0  0  0  0  0
  141.8014   73.1503  227.5288 H   0  0  0  0  0  0  0  0  0  0  0  0
  141.6262   72.2907  225.2039 H   0  0  0  0  0  0  0  0  0  0  0  0
  140.4034   70.2175  224.7235 H   0  0  0  0  0  0  0  0  0  0  0  0
  131.9350   71.0453  227.2653 H   0  0  0  0  0  0  0  0  0  0  0  0
  130.6448   72.9911  228.1244 H   0  0  0  0  0  0  0  0  0  0  0  0
  130.4147   75.4396  228.4133 H   0  0  0  0  0  0  0  0  0  0  0  0
  133.4989   77.9895  226.8333 H   0  0  0  0  0  0  0  0  0  0  0  0
  134.7330   75.9835  226.0053 H   0  0  0  0  0  0  0  0  0  0  0  0
  1  2  2  0
  2  3  1  0
  3  4  1  0
  4  5  1  0
  5  6  2  0
  5  7  1  0
  7  8  1  0
  8  9  1  0
  9 10  1  0
 10 11  1  0
 10 12  1  0
 12 13  1  0
 13 14  1  0
 14 15  1  0
 15 16  1  0
 16 17  2  0
 17 18  1  0
 18 19  2  0
 19 20  1  0
 20 21  2  0
  2 22  1  0
 22 23  2  0
 23 24  1  0
 24 25  2  0
 25 26  1  0
 26 27  2  0
 27 28  1  0
 27 29  1  0
 29 30  2  0
 30 31  1  0
 31 32  2  0
 12  7  1  0
 21 16  1  0
 32 22  1  0
 31 25  1  0
  3 33  1  0
  4 34  1  0
  4 35  1  0
  8 36  1  0
  8 37  1  0
  9 38  1  0
  9 39  1  0
 10 40  1  1
 11 41  1  0
 12 42  1  6
 13 43  1  0
 13 44  1  0
 15 45  1  0
 15 46  1  0
 17 47  1  0
 18 48  1  0
 19 49  1  0
 20 50  1  0
 21 51  1  0
 23 52  1  0
 24 53  1  0
 26 54  1  0
 29 55  1  0
 30 56  1  0
M  END
>  <smiles>  (20) 
O=C(NCC(=O)N1CC[C@H](O)[C@H]1COCc1ccccc1)c1ccc2cc(F)ccc2n1

>  <score_type>  (20) 
oracle

>  <origin>  (20) 
autodockgpu

>  <m_score__min__energy>  (20) 
-8.9700000000000006

>  <m_primary>  (20) 
energy

>  <rmsd>  (20) 
8.562531095075876

>  <m_score__min__rmsd>  (20) 
8.562531095075876

>  <meeko>  (20) 
{"free_energy": -7.48, "intermolecular_energy": -10.16, "internal_energy": -2.56, "cluster_size": 5, "cluster_id": 3, "rank_in_cluster": 5}

>  <energy>  (20) 
-8.09

>  <cluster_rmsd>  (20) 
1.43

>  <cluster>  (20) 
1

$$$$

     RDKit          3D

 56 59  0  0  0  0  0  0  0  0999 V2000
  137.2930   75.3490  220.8650 O   0  0  0  0  0  0  0  0  0  0  0  0
  138.1960   75.4510  221.7330 C   0  0  0  0  0  0  0  0  0  0  0  0
  138.8230   74.3310  222.3460 N   0  0  0  0  0  0  0  0  0  0  0  0
  138.4280   72.9820  221.9750 C   0  0  0  0  0  0  0  0  0  0  0  0
  139.2850   72.0030  222.6890 C   0  0  0  0  0  0  0  0  0  0  0  0
  140.3750   72.4310  223.1470 O   0  0  0  0  0  0  0  0  0  0  0  0
  138.8490   70.6570  222.8220 N   0  0  0  0  0  0  0  0  0  0  0  0
  139.5380   69.4730  222.2870 C   0  0  0  0  0  0  0  0  0  0  0  0
  138.3670   68.7820  221.6190 C   0  0  0  0  0  0  0  0  0  0  0  0
  137.3450   68.8540  222.7310 C   0  0  2  0  0  0  0  0  0  0  0  0
  136.0420   68.8440  222.2590 O   0  0  0  0  0  0  0  0  0  0  0  0
  137.6650   70.1520  223.4920 C   0  0  1  0  0  0  0  0  0  0  0  0
  138.0720   69.7720  224.9210 C   0  0  0  0  0  0  0  0  0  0  0  0
  138.7840   68.6080  224.9960 O   0  0  0  0  0  0  0  0  0  0  0  0
  139.7450   68.5180  225.9630 C   0  0  0  0  0  0  0  0  0  0  0  0
  140.1830   69.7710  226.5710 C   0  0  0  0  0  0  0  0  0  0  0  0
  139.9030   70.1900  227.8510 C   0  0  0  0  0  0  0  0  0  0  0  0
  140.3470   71.3910  228.3640 C   0  0  0  0  0  0  0  0  0  0  0  0
  141.1100   72.2390  227.5880 C   0  0  0  0  0  0  0  0  0  0  0  0
  141.4080   71.8510  226.3010 C   0  0  0  0  0  0  0  0  0  0  0  0
  140.9580   70.6480  225.8030 C   0  0  0  0  0  0  0  0  0  0  0  0
  138.6500   76.7860  222.1610 C   0  0  0  0  0  0  0  0  0  0  0  0
  137.7520   77.8350  222.2990 C   0  0  0  0  0  0  0  0  0  0  0  0
  138.2070   79.0920  222.7060 C   0  0  0  0  0  0  0  0  0  0  0  0
  139.5500   79.3180  222.9800 C   0  0  0  0  0  0  0  0  0  0  0  0
  140.0300   80.5400  223.3810 C   0  0  0  0  0  0  0  0  0  0  0  0
  141.3830   80.6750  223.6320 C   0  0  0  0  0  0  0  0  0  0  0  0
  141.8910   81.8720  224.0320 F   0  0  0  0  0  0  0  0  0  0  0  0
  142.2450   79.6170  223.4860 C   0  0  0  0  0  0  0  0  0  0  0  0
  141.7500   78.3840  223.0790 C   0  0  0  0  0  0  0  0  0  0  0  0
  140.4080   78.2380  222.8270 C   0  0  0  0  0  0  0  0  0  0  0  0
  139.9320   77.0570  222.4370 N   0  0  0  0  0  0  0  0  0  0  0  0
  139.5770   74.4680  223.0700 H   0  0  0  0  0  0  0  0  0  0  0  0
  137.3759   72.8187  222.2513 H   0  0  0  0  0  0  0  0  0  0  0  0
  138.5460   72.8503  220.8893 H   0  0  0  0  0  0  0  0  0  0  0  0
  140.3205   69.7457  221.5636 H   0  0  0  0  0  0  0  0  0  0  0  0
  140.0754   68.8679  223.0320 H   0  0  0  0  0  0  0  0  0  0  0  0
  138.0320   69.3234  220.7220 H   0  0  0  0  0  0  0  0  0  0  0  0
  138.5784   67.7671  221.2512 H   0  0  0  0  0  0  0  0  0  0  0  0
  137.4080   67.9699  223.3824 H   0  0  0  0  0  0  0  0  0  0  0  0
  135.8120   69.6780  221.7980 H   0  0  0  0  0  0  0  0  0  0  0  0
  136.8277   70.8650  223.5156 H   0  0  0  0  0  0  0  0  0  0  0  0
  138.6883   70.5839  225.3345 H   0  0  0  0  0  0  0  0  0  0  0  0
  137.1436   69.6195  225.4910 H   0  0  0  0  0  0  0  0  0  0  0  0
  139.3509   67.8778  226.7660 H   0  0  0  0  0  0  0  0  0  0  0  0
  140.6333   68.1190  225.4514 H   0  0  0  0  0  0  0  0  0  0  0  0
  139.2966   69.5367  228.4956 H   0  0  0  0  0  0  0  0  0  0  0  0
  140.0917   71.6738  229.3959 H   0  0  0  0  0  0  0  0  0  0  0  0
  141.4704   73.1988  227.9866 H   0  0  0  0  0  0  0  0  0  0  0  0
  142.0135   72.5104  225.6619 H   0  0  0  0  0  0  0  0  0  0  0  0
  141.2154   70.3681  224.7708 H   0  0  0  0  0  0  0  0  0  0  0  0
  136.6839   77.6773  222.0884 H   0  0  0  0  0  0  0  0  0  0  0  0
  137.4883   79.9180  222.8114 H   0  0  0  0  0  0  0  0  0  0  0  0
  139.3503   81.3966  223.5005 H   0  0  0  0  0  0  0  0  0  0  0  0
  143.3185   79.7440  223.6894 H   0  0  0  0  0  0  0  0  0  0  0  0
  142.4306   77.5282  222.9591 H   0  0  0  0  0  0  0  0  0  0  0  0
  1  2  2  0
  2  3  1  0
  3  4  1  0
  4  5  1  0
  5  6  2  0
  5  7  1  0
  7  8  1  0
  8  9  1  0
  9 10  1  0
 10 11  1  0
 10 12  1  0
 12 13  1  0
 13 14  1  0
 14 15  1  0
 15 16  1  0
 16 17  2  0
 17 18  1  0
 18 19  2  0
 19 20  1  0
 20 21  2  0
  2 22  1  0
 22 23  2  0
 23 24  1  0
 24 25  2  0
 25 26  1  0
 26 27  2  0
 27 28  1  0
 27 29  1  0
 29 30  2  0
 30 31  1  0
 31 32  2  0
 12  7  1  0
 21 16  1  0
 32 22  1  0
 31 25  1  0
  3 33  1  0
  4 34  1  0
  4 35  1  0
  8 36  1  0
  8 37  1  0
  9 38  1  0
  9 39  1  0
 10 40  1  1
 11 41  1  0
 12 42  1  1
 13 43  1  0
 13 44  1  0
 15 45  1  0
 15 46  1  0
 17 47  1  0
 18 48  1  0
 19 49  1  0
 20 50  1  0
 21 51  1  0
 23 52  1  0
 24 53  1  0
 26 54  1  0
 29 55  1  0
 30 56  1  0
M  END
>  <smiles>  (21) 
O=C(NCC(=O)N1CC[C@H](O)[C@H]1COCc1ccccc1)c1ccc2cc(F)ccc2n1

>  <score_type>  (21) 
oracle

>  <origin>  (21) 
autodockgpu

>  <m_score__min__energy>  (21) 
-8.9700000000000006

>  <m_primary>  (21) 
energy

>  <rmsd>  (21) 
8.587481783030697

>  <m_score__min__rmsd>  (21) 
8.587481783030697

>  <meeko>  (21) 
{"free_energy": -8.11, "intermolecular_energy": -10.8, "internal_energy": -2.34, "cluster_size": 7, "cluster_id": 2, "rank_in_cluster": 4}

>  <energy>  (21) 
-7.96

>  <cluster_rmsd>  (21) 
1.83

>  <cluster>  (21) 
1

$$$$

     RDKit          3D

 56 59  0  0  0  0  0  0  0  0999 V2000
  141.8150   72.9590  221.0880 O   0  0  0  0  0  0  0  0  0  0  0  0
  141.0100   73.7850  221.5880 C   0  0  0  0  0  0  0  0  0  0  0  0
  139.8680   73.4050  222.3440 N   0  0  0  0  0  0  0  0  0  0  0  0
  139.5800   71.9990  222.5750 C   0  0  0  0  0  0  0  0  0  0  0  0
  138.1140   71.8090  222.7050 C   0  0  0  0  0  0  0  0  0  0  0  0
  137.4060   72.8480  222.7180 O   0  0  0  0  0  0  0  0  0  0  0  0
  137.5850   70.4940  222.8070 N   0  0  0  0  0  0  0  0  0  0  0  0
  137.0820   69.6810  221.6880 C   0  0  0  0  0  0  0  0  0  0  0  0
  135.7630   69.2300  222.2800 C   0  0  0  0  0  0  0  0  0  0  0  0
  136.2260   68.7700  223.6450 C   0  0  2  0  0  0  0  0  0  0  0  0
  135.2270   68.8510  224.6020 O   0  0  0  0  0  0  0  0  0  0  0  0
  137.4220   69.6730  223.9910 C   0  0  1  0  0  0  0  0  0  0  0  0
  138.6650   68.7840  224.1090 C   0  0  0  0  0  0  0  0  0  0  0  0
  138.8140   68.2110  225.3410 O   0  0  0  0  0  0  0  0  0  0  0  0
  140.0340   68.3240  225.9450 C   0  0  0  0  0  0  0  0  0  0  0  0
  140.3560   69.6210  226.5350 C   0  0  0  0  0  0  0  0  0  0  0  0
  140.0130   70.0420  227.7980 C   0  0  0  0  0  0  0  0  0  0  0  0
  140.3480   71.2850  228.2940 C   0  0  0  0  0  0  0  0  0  0  0  0
  141.0600   72.1750  227.5170 C   0  0  0  0  0  0  0  0  0  0  0  0
  141.4190   71.7850  226.2460 C   0  0  0  0  0  0  0  0  0  0  0  0
  141.0780   70.5400  225.7650 C   0  0  0  0  0  0  0  0  0  0  0  0
  141.2340   75.2290  221.3980 C   0  0  0  0  0  0  0  0  0  0  0  0
  141.8620   75.7100  220.2570 C   0  0  0  0  0  0  0  0  0  0  0  0
  142.0630   77.0830  220.0990 C   0  0  0  0  0  0  0  0  0  0  0  0
  141.6440   77.9880  221.0650 C   0  0  0  0  0  0  0  0  0  0  0  0
  141.8250   79.3440  220.9420 C   0  0  0  0  0  0  0  0  0  0  0  0
  141.3750   80.1710  221.9530 C   0  0  0  0  0  0  0  0  0  0  0  0
  141.5400   81.5190  221.8620 F   0  0  0  0  0  0  0  0  0  0  0  0
  140.7570   79.6650  223.0690 C   0  0  0  0  0  0  0  0  0  0  0  0
  140.5780   78.2910  223.1860 C   0  0  0  0  0  0  0  0  0  0  0  0
  141.0200   77.4590  222.1870 C   0  0  0  0  0  0  0  0  0  0  0  0
  140.8490   76.1430  222.2970 N   0  0  0  0  0  0  0  0  0  0  0  0
  139.2210   74.1360  222.7440 H   0  0  0  0  0  0  0  0  0  0  0  0
  139.9531   71.4044  221.7281 H   0  0  0  0  0  0  0  0  0  0  0  0
  140.0757   71.6705  223.5004 H   0  0  0  0  0  0  0  0  0  0  0  0
  136.9392   70.2805  220.7769 H   0  0  0  0  0  0  0  0  0  0  0  0
  137.7499   68.8705  221.3608 H   0  0  0  0  0  0  0  0  0  0  0  0
  135.0438   70.0592  222.3517 H   0  0  0  0  0  0  0  0  0  0  0  0
  135.2298   68.4681  221.6925 H   0  0  0  0  0  0  0  0  0  0  0  0
  136.5053   67.7061  223.6300 H   0  0  0  0  0  0  0  0  0  0  0  0
  134.3710   68.5070  224.2700 H   0  0  0  0  0  0  0  0  0  0  0  0
  137.2820   70.2499  224.9170 H   0  0  0  0  0  0  0  0  0  0  0  0
  138.5914   67.9823  223.3594 H   0  0  0  0  0  0  0  0  0  0  0  0
  139.5400   69.4304  223.9464 H   0  0  0  0  0  0  0  0  0  0  0  0
  140.0799   67.5724  226.7468 H   0  0  0  0  0  0  0  0  0  0  0  0
  140.7697   68.1819  225.1397 H   0  0  0  0  0  0  0  0  0  0  0  0
  139.4449   69.3557  228.4432 H   0  0  0  0  0  0  0  0  0  0  0  0
  140.0461   71.5675  229.3133 H   0  0  0  0  0  0  0  0  0  0  0  0
  141.3334   73.1685  227.9019 H   0  0  0  0  0  0  0  0  0  0  0  0
  141.9859   72.4772  225.6060 H   0  0  0  0  0  0  0  0  0  0  0  0
  141.3821   70.2599  224.7457 H   0  0  0  0  0  0  0  0  0  0  0  0
  142.2008   75.0106  219.4785 H   0  0  0  0  0  0  0  0  0  0  0  0
  142.5627   77.4544  219.1922 H   0  0  0  0  0  0  0  0  0  0  0  0
  142.3197   79.7642  220.0539 H   0  0  0  0  0  0  0  0  0  0  0  0
  140.4065   80.3401  223.8636 H   0  0  0  0  0  0  0  0  0  0  0  0
  140.0843   77.8722  224.0753 H   0  0  0  0  0  0  0  0  0  0  0  0
  1  2  2  0
  2  3  1  0
  3  4  1  0
  4  5  1  0
  5  6  2  0
  5  7  1  0
  7  8  1  0
  8  9  1  0
  9 10  1  0
 10 11  1  0
 10 12  1  0
 12 13  1  0
 13 14  1  0
 14 15  1  0
 15 16  1  0
 16 17  2  0
 17 18  1  0
 18 19  2  0
 19 20  1  0
 20 21  2  0
  2 22  1  0
 22 23  2  0
 23 24  1  0
 24 25  2  0
 25 26  1  0
 26 27  2  0
 27 28  1  0
 27 29  1  0
 29 30  2  0
 30 31  1  0
 31 32  2  0
 12  7  1  0
 21 16  1  0
 32 22  1  0
 31 25  1  0
  3 33  1  0
  4 34  1  0
  4 35  1  0
  8 36  1  0
  8 37  1  0
  9 38  1  0
  9 39  1  0
 10 40  1  6
 11 41  1  0
 12 42  1  1
 13 43  1  0
 13 44  1  0
 15 45  1  0
 15 46  1  0
 17 47  1  0
 18 48  1  0
 19 49  1  0
 20 50  1  0
 21 51  1  0
 23 52  1  0
 24 53  1  0
 26 54  1  0
 29 55  1  0
 30 56  1  0
M  END
>  <smiles>  (22) 
O=C(NCC(=O)N1CC[C@H](O)[C@H]1COCc1ccccc1)c1ccc2cc(F)ccc2n1

>  <score_type>  (22) 
oracle

>  <origin>  (22) 
autodockgpu

>  <m_score__min__energy>  (22) 
-8.9700000000000006

>  <m_primary>  (22) 
energy

>  <rmsd>  (22) 
8.74703084429901

>  <m_score__min__rmsd>  (22) 
8.74703084429901

>  <meeko>  (22) 
{"free_energy": -8.32, "intermolecular_energy": -11.0, "internal_energy": -2.23, "cluster_size": 7, "cluster_id": 2, "rank_in_cluster": 1}

>  <energy>  (22) 
-7.93

>  <cluster_rmsd>  (22) 
1.62

>  <cluster>  (22) 
1

$$$$

     RDKit          3D

 56 59  0  0  0  0  0  0  0  0999 V2000
  139.2750   70.7420  221.1190 O   0  0  0  0  0  0  0  0  0  0  0  0
  139.3980   71.3290  222.2240 C   0  0  0  0  0  0  0  0  0  0  0  0
  139.4290   72.7440  222.3600 N   0  0  0  0  0  0  0  0  0  0  0  0
  139.3170   73.5920  221.1840 C   0  0  0  0  0  0  0  0  0  0  0  0
  140.1970   74.7760  221.3440 C   0  0  0  0  0  0  0  0  0  0  0  0
  140.0570   75.4510  222.3960 O   0  0  0  0  0  0  0  0  0  0  0  0
  141.1400   75.0890  220.3270 N   0  0  0  0  0  0  0  0  0  0  0  0
  141.6080   74.1720  219.2760 C   0  0  0  0  0  0  0  0  0  0  0  0
  143.1010   74.3920  219.3990 C   0  0  0  0  0  0  0  0  0  0  0  0
  143.1480   75.9040  219.4180 C   0  0  2  0  0  0  0  0  0  0  0  0
  144.2570   76.3950  220.0880 O   0  0  0  0  0  0  0  0  0  0  0  0
  141.8360   76.3400  220.0940 C   0  0  1  0  0  0  0  0  0  0  0  0
  141.0200   77.1360  219.0680 C   0  0  0  0  0  0  0  0  0  0  0  0
  140.6060   78.3550  219.5240 O   0  0  0  0  0  0  0  0  0  0  0  0
  140.1240   78.4200  220.8010 C   0  0  0  0  0  0  0  0  0  0  0  0
  140.9850   79.0560  221.7950 C   0  0  0  0  0  0  0  0  0  0  0  0
  141.8130   80.1320  221.5780 C   0  0  0  0  0  0  0  0  0  0  0  0
  142.6040   80.6830  222.5640 C   0  0  0  0  0  0  0  0  0  0  0  0
  142.5930   80.1590  223.8400 C   0  0  0  0  0  0  0  0  0  0  0  0
  141.7750   79.0800  224.0910 C   0  0  0  0  0  0  0  0  0  0  0  0
  140.9900   78.5410  223.0960 C   0  0  0  0  0  0  0  0  0  0  0  0
  139.5170   70.5380  223.4620 C   0  0  0  0  0  0  0  0  0  0  0  0
  139.0880   69.2190  223.5090 C   0  0  0  0  0  0  0  0  0  0  0  0
  139.2110   68.4880  224.6940 C   0  0  0  0  0  0  0  0  0  0  0  0
  139.7600   69.0560  225.8360 C   0  0  0  0  0  0  0  0  0  0  0  0
  139.8960   68.3680  227.0170 C   0  0  0  0  0  0  0  0  0  0  0  0
  140.4540   69.0130  228.1040 C   0  0  0  0  0  0  0  0  0  0  0  0
  140.6020   68.3590  229.2880 F   0  0  0  0  0  0  0  0  0  0  0  0
  140.8680   70.3190  228.0250 C   0  0  0  0  0  0  0  0  0  0  0  0
  140.7270   71.0090  226.8260 C   0  0  0  0  0  0  0  0  0  0  0  0
  140.1740   70.3770  225.7390 C   0  0  0  0  0  0  0  0  0  0  0  0
  140.0380   71.0370  224.5900 N   0  0  0  0  0  0  0  0  0  0  0  0
  139.5340   73.1900  223.3100 H   0  0  0  0  0  0  0  0  0  0  0  0
  139.6231   73.0251  220.2924 H   0  0  0  0  0  0  0  0  0  0  0  0
  138.2743   73.9225  221.0675 H   0  0  0  0  0  0  0  0  0  0  0  0
  141.3281   73.1293  219.4868 H   0  0  0  0  0  0  0  0  0  0  0  0
  141.1888   74.3538  218.2754 H   0  0  0  0  0  0  0  0  0  0  0  0
  143.5013   73.9602  220.3282 H   0  0  0  0  0  0  0  0  0  0  0  0
  143.7035   73.9215  218.6080 H   0  0  0  0  0  0  0  0  0  0  0  0
  143.2411   76.3088  218.3994 H   0  0  0  0  0  0  0  0  0  0  0  0
  144.0890   77.2770  220.4810 H   0  0  0  0  0  0  0  0  0  0  0  0
  141.9888   76.9410  221.0025 H   0  0  0  0  0  0  0  0  0  0  0  0
  141.6425   77.2923  218.1747 H   0  0  0  0  0  0  0  0  0  0  0  0
  140.1153   76.5492  218.8509 H   0  0  0  0  0  0  0  0  0  0  0  0
  139.1778   78.9802  220.7721 H   0  0  0  0  0  0  0  0  0  0  0  0
  140.0284   77.3740  221.1278 H   0  0  0  0  0  0  0  0  0  0  0  0
  141.8460   80.5738  220.5712 H   0  0  0  0  0  0  0  0  0  0  0  0
  143.2470   81.5448  222.3319 H   0  0  0  0  0  0  0  0  0  0  0  0
  143.2197   80.5907  224.6343 H   0  0  0  0  0  0  0  0  0  0  0  0
  141.7482   78.6427  225.1000 H   0  0  0  0  0  0  0  0  0  0  0  0
  140.3476   77.6796  223.3312 H   0  0  0  0  0  0  0  0  0  0  0  0
  138.6518   68.7495  222.6150 H   0  0  0  0  0  0  0  0  0  0  0  0
  138.8666   67.4437  224.7224 H   0  0  0  0  0  0  0  0  0  0  0  0
  139.5663   67.3215  227.0960 H   0  0  0  0  0  0  0  0  0  0  0  0
  141.3076   70.8157  228.9025 H   0  0  0  0  0  0  0  0  0  0  0  0
  141.0566   72.0556  226.7484 H   0  0  0  0  0  0  0  0  0  0  0  0
  1  2  2  0
  2  3  1  0
  3  4  1  0
  4  5  1  0
  5  6  2  0
  5  7  1  0
  7  8  1  0
  8  9  1  0
  9 10  1  0
 10 11  1  0
 10 12  1  0
 12 13  1  0
 13 14  1  0
 14 15  1  0
 15 16  1  0
 16 17  2  0
 17 18  1  0
 18 19  2  0
 19 20  1  0
 20 21  2  0
  2 22  1  0
 22 23  2  0
 23 24  1  0
 24 25  2  0
 25 26  1  0
 26 27  2  0
 27 28  1  0
 27 29  1  0
 29 30  2  0
 30 31  1  0
 31 32  2  0
 12  7  1  0
 21 16  1  0
 32 22  1  0
 31 25  1  0
  3 33  1  0
  4 34  1  0
  4 35  1  0
  8 36  1  0
  8 37  1  0
  9 38  1  0
  9 39  1  0
 10 40  1  6
 11 41  1  0
 12 42  1  1
 13 43  1  0
 13 44  1  0
 15 45  1  0
 15 46  1  0
 17 47  1  0
 18 48  1  0
 19 49  1  0
 20 50  1  0
 21 51  1  0
 23 52  1  0
 24 53  1  0
 26 54  1  0
 29 55  1  0
 30 56  1  0
M  END
>  <smiles>  (23) 
O=C(NCC(=O)N1CC[C@H](O)[C@H]1COCc1ccccc1)c1ccc2cc(F)ccc2n1

>  <score_type>  (23) 
oracle

>  <origin>  (23) 
autodockgpu

>  <m_score__min__energy>  (23) 
-8.9700000000000006

>  <m_primary>  (23) 
energy

>  <rmsd>  (23) 
1.9891145620678512

>  <m_score__min__rmsd>  (23) 
1.9891145620678512

>  <meeko>  (23) 
{"free_energy": -8.61, "intermolecular_energy": -11.29, "internal_energy": -2.14, "cluster_size": 27, "cluster_id": 1, "rank_in_cluster": 10}

>  <energy>  (23) 
-7.83

>  <cluster_rmsd>  (23) 
1.45

>  <cluster>  (23) 
1

$$$$

     RDKit          3D

 56 59  0  0  0  0  0  0  0  0999 V2000
  140.8950   72.0660  221.3260 O   0  0  0  0  0  0  0  0  0  0  0  0
  140.1060   72.3380  222.2660 C   0  0  0  0  0  0  0  0  0  0  0  0
  139.2620   73.4820  222.2730 N   0  0  0  0  0  0  0  0  0  0  0  0
  139.2820   74.4100  221.1540 C   0  0  0  0  0  0  0  0  0  0  0  0
  140.4710   75.2910  221.2650 C   0  0  0  0  0  0  0  0  0  0  0  0
  141.4260   74.8720  221.9680 O   0  0  0  0  0  0  0  0  0  0  0  0
  140.4800   76.5420  220.5890 N   0  0  0  0  0  0  0  0  0  0  0  0
  140.5560   76.7310  219.1320 C   0  0  0  0  0  0  0  0  0  0  0  0
  141.6560   77.7710  219.0720 C   0  0  0  0  0  0  0  0  0  0  0  0
  141.1640   78.7410  220.1230 C   0  0  2  0  0  0  0  0  0  0  0  0
  142.1940   79.4630  220.7060 O   0  0  0  0  0  0  0  0  0  0  0  0
  140.4200   77.8760  221.1550 C   0  0  1  0  0  0  0  0  0  0  0  0
  138.9490   78.3080  221.1580 C   0  0  0  0  0  0  0  0  0  0  0  0
  138.3860   78.3270  222.4020 O   0  0  0  0  0  0  0  0  0  0  0  0
  138.6020   79.4320  223.1760 C   0  0  0  0  0  0  0  0  0  0  0  0
  139.9830   79.8950  223.2870 C   0  0  0  0  0  0  0  0  0  0  0  0
  141.0210   79.2100  223.8720 C   0  0  0  0  0  0  0  0  0  0  0  0
  142.3050   79.7080  223.9460 C   0  0  0  0  0  0  0  0  0  0  0  0
  142.6010   80.9480  223.4190 C   0  0  0  0  0  0  0  0  0  0  0  0
  141.5840   81.6610  222.8260 C   0  0  0  0  0  0  0  0  0  0  0  0
  140.3070   81.1510  222.7600 C   0  0  0  0  0  0  0  0  0  0  0  0
  140.0280   71.4450  223.4350 C   0  0  0  0  0  0  0  0  0  0  0  0
  139.4140   70.2030  223.3450 C   0  0  0  0  0  0  0  0  0  0  0  0
  139.3530   69.3740  224.4680 C   0  0  0  0  0  0  0  0  0  0  0  0
  139.8980   69.7650  225.6830 C   0  0  0  0  0  0  0  0  0  0  0  0
  139.8550   68.9750  226.8060 C   0  0  0  0  0  0  0  0  0  0  0  0
  140.4240   69.4460  227.9740 C   0  0  0  0  0  0  0  0  0  0  0  0
  140.3980   68.6870  229.1030 F   0  0  0  0  0  0  0  0  0  0  0  0
  141.0240   70.6790  228.0300 C   0  0  0  0  0  0  0  0  0  0  0  0
  141.0630   71.4720  226.8900 C   0  0  0  0  0  0  0  0  0  0  0  0
  140.5010   71.0140  225.7230 C   0  0  0  0  0  0  0  0  0  0  0  0
  140.5380   71.7730  224.6290 N   0  0  0  0  0  0  0  0  0  0  0  0
  138.6160   73.6670  223.0850 H   0  0  0  0  0  0  0  0  0  0  0  0
  139.3298   73.8463  220.2106 H   0  0  0  0  0  0  0  0  0  0  0  0
  138.3684   75.0225  221.1685 H   0  0  0  0  0  0  0  0  0  0  0  0
  140.8390   75.8038  218.6121 H   0  0  0  0  0  0  0  0  0  0  0  0
  139.6117   77.0197  218.6474 H   0  0  0  0  0  0  0  0  0  0  0  0
  142.6348   77.3447  219.3372 H   0  0  0  0  0  0  0  0  0  0  0  0
  141.8207   78.2119  218.0778 H   0  0  0  0  0  0  0  0  0  0  0  0
  140.5094   79.5055  219.6791 H   0  0  0  0  0  0  0  0  0  0  0  0
  142.8890   78.8790  221.0740 H   0  0  0  0  0  0  0  0  0  0  0  0
  140.8366   77.9486  222.1705 H   0  0  0  0  0  0  0  0  0  0  0  0
  138.8831   79.3197  220.7313 H   0  0  0  0  0  0  0  0  0  0  0  0
  138.3943   77.5660  220.5649 H   0  0  0  0  0  0  0  0  0  0  0  0
  138.0071   80.2557  222.7546 H   0  0  0  0  0  0  0  0  0  0  0  0
  138.3146   79.1323  224.1946 H   0  0  0  0  0  0  0  0  0  0  0  0
  140.8181   78.2178  224.3014 H   0  0  0  0  0  0  0  0  0  0  0  0
  143.0961   79.1141  224.4271 H   0  0  0  0  0  0  0  0  0  0  0  0
  143.6214   81.3556  223.4713 H   0  0  0  0  0  0  0  0  0  0  0  0
  141.7946   82.6525  222.3987 H   0  0  0  0  0  0  0  0  0  0  0  0
  139.5180   81.7478  222.2791 H   0  0  0  0  0  0  0  0  0  0  0  0
  138.9765   69.8723  222.3915 H   0  0  0  0  0  0  0  0  0  0  0  0
  138.8634   68.3922  224.3876 H   0  0  0  0  0  0  0  0  0  0  0  0
  139.3762   67.9851  226.7761 H   0  0  0  0  0  0  0  0  0  0  0  0
  141.4703   71.0364  228.9697 H   0  0  0  0  0  0  0  0  0  0  0  0
  141.5416   72.4619  226.9216 H   0  0  0  0  0  0  0  0  0  0  0  0
  1  2  2  0
  2  3  1  0
  3  4  1  0
  4  5  1  0
  5  6  2  0
  5  7  1  0
  7  8  1  0
  8  9  1  0
  9 10  1  0
 10 11  1  0
 10 12  1  0
 12 13  1  0
 13 14  1  0
 14 15  1  0
 15 16  1  0
 16 17  2  0
 17 18  1  0
 18 19  2  0
 19 20  1  0
 20 21  2  0
  2 22  1  0
 22 23  2  0
 23 24  1  0
 24 25  2  0
 25 26  1  0
 26 27  2  0
 27 28  1  0
 27 29  1  0
 29 30  2  0
 30 31  1  0
 31 32  2  0
 12  7  1  0
 21 16  1  0
 32 22  1  0
 31 25  1  0
  3 33  1  0
  4 34  1  0
  4 35  1  0
  8 36  1  0
  8 37  1  0
  9 38  1  0
  9 39  1  0
 10 40  1  6
 11 41  1  0
 12 42  1  1
 13 43  1  0
 13 44  1  0
 15 45  1  0
 15 46  1  0
 17 47  1  0
 18 48  1  0
 19 49  1  0
 20 50  1  0
 21 51  1  0
 23 52  1  0
 24 53  1  0
 26 54  1  0
 29 55  1  0
 30 56  1  0
M  END
>  <smiles>  (24) 
O=C(NCC(=O)N1CC[C@H](O)[C@H]1COCc1ccccc1)c1ccc2cc(F)ccc2n1

>  <score_type>  (24) 
oracle

>  <origin>  (24) 
autodockgpu

>  <m_score__min__energy>  (24) 
-8.9700000000000006

>  <m_primary>  (24) 
energy

>  <rmsd>  (24) 
2.410283619634734

>  <m_score__min__rmsd>  (24) 
2.410283619634734

>  <meeko>  (24) 
{"free_energy": -8.71, "intermolecular_energy": -11.39, "internal_energy": -1.56, "cluster_size": 27, "cluster_id": 1, "rank_in_cluster": 8}

>  <energy>  (24) 
-7.67

>  <cluster_rmsd>  (24) 
1.25

>  <cluster>  (24) 
1

$$$$

     RDKit          3D

 56 59  0  0  0  0  0  0  0  0999 V2000
  138.4010   71.2030  221.3120 O   0  0  0  0  0  0  0  0  0  0  0  0
  139.0160   71.6830  222.2980 C   0  0  0  0  0  0  0  0  0  0  0  0
  139.4970   73.0200  222.3440 N   0  0  0  0  0  0  0  0  0  0  0  0
  139.2880   73.9100  221.2140 C   0  0  0  0  0  0  0  0  0  0  0  0
  140.3050   74.9910  221.2420 C   0  0  0  0  0  0  0  0  0  0  0  0
  140.8630   75.2180  222.3460 O   0  0  0  0  0  0  0  0  0  0  0  0
  140.5980   75.7070  220.0490 N   0  0  0  0  0  0  0  0  0  0  0  0
  140.6910   75.1280  218.7000 C   0  0  0  0  0  0  0  0  0  0  0  0
  142.0040   75.7380  218.2560 C   0  0  0  0  0  0  0  0  0  0  0  0
  141.7750   77.1810  218.6480 C   0  0  2  0  0  0  0  0  0  0  0  0
  142.9560   77.8570  218.9090 O   0  0  0  0  0  0  0  0  0  0  0  0
  140.8650   77.1230  219.8870 C   0  0  1  0  0  0  0  0  0  0  0  0
  139.5380   77.8030  219.5290 C   0  0  0  0  0  0  0  0  0  0  0  0
  138.9510   78.4470  220.5810 O   0  0  0  0  0  0  0  0  0  0  0  0
  139.4600   79.6630  220.9410 C   0  0  0  0  0  0  0  0  0  0  0  0
  140.5000   79.6610  221.9670 C   0  0  0  0  0  0  0  0  0  0  0  0
  140.7110   78.6750  222.9020 C   0  0  0  0  0  0  0  0  0  0  0  0
  141.7120   78.7380  223.8480 C   0  0  0  0  0  0  0  0  0  0  0  0
  142.5630   79.8230  223.8900 C   0  0  0  0  0  0  0  0  0  0  0  0
  142.3790   80.8280  222.9670 C   0  0  0  0  0  0  0  0  0  0  0  0
  141.3740   80.7510  222.0290 C   0  0  0  0  0  0  0  0  0  0  0  0
  139.2660   70.8430  223.4820 C   0  0  0  0  0  0  0  0  0  0  0  0
  138.9210   69.4980  223.4890 C   0  0  0  0  0  0  0  0  0  0  0  0
  139.1690   68.7220  224.6240 C   0  0  0  0  0  0  0  0  0  0  0  0
  139.7580   69.2680  225.7560 C   0  0  0  0  0  0  0  0  0  0  0  0
  140.0150   68.5340  226.8880 C   0  0  0  0  0  0  0  0  0  0  0  0
  140.6060   69.1610  227.9690 C   0  0  0  0  0  0  0  0  0  0  0  0
  140.8730   68.4620  229.1050 F   0  0  0  0  0  0  0  0  0  0  0  0
  140.9350   70.4930  227.9310 C   0  0  0  0  0  0  0  0  0  0  0  0
  140.6710   71.2290  226.7810 C   0  0  0  0  0  0  0  0  0  0  0  0
  140.0850   70.6160  225.7000 C   0  0  0  0  0  0  0  0  0  0  0  0
  139.8320   71.3200  224.5980 N   0  0  0  0  0  0  0  0  0  0  0  0
  140.0080   73.3770  223.1950 H   0  0  0  0  0  0  0  0  0  0  0  0
  139.3825   73.3416  220.2770 H   0  0  0  0  0  0  0  0  0  0  0  0
  138.2820   74.3508  221.2751 H   0  0  0  0  0  0  0  0  0  0  0  0
  140.7374   74.0293  218.7273 H   0  0  0  0  0  0  0  0  0  0  0  0
  139.8334   75.3331  218.0424 H   0  0  0  0  0  0  0  0  0  0  0  0
  142.8586   75.3007  218.7930 H   0  0  0  0  0  0  0  0  0  0  0  0
  142.2502   75.5815  217.1954 H   0  0  0  0  0  0  0  0  0  0  0  0
  141.3130   77.7455  217.8247 H   0  0  0  0  0  0  0  0  0  0  0  0
  143.3760   77.5540  219.7420 H   0  0  0  0  0  0  0  0  0  0  0  0
  141.3044   77.5983  220.7764 H   0  0  0  0  0  0  0  0  0  0  0  0
  139.7279   78.5385  218.7335 H   0  0  0  0  0  0  0  0  0  0  0  0
  138.8456   77.0100  219.2099 H   0  0  0  0  0  0  0  0  0  0  0  0
  139.8832   80.1277  220.0383 H   0  0  0  0  0  0  0  0  0  0  0  0
  138.6156   80.2096  221.3862 H   0  0  0  0  0  0  0  0  0  0  0  0
  140.0506   77.7953  222.8948 H   0  0  0  0  0  0  0  0  0  0  0  0
  141.8327   77.9193  224.5727 H   0  0  0  0  0  0  0  0  0  0  0  0
  143.3658   79.8835  224.6396 H   0  0  0  0  0  0  0  0  0  0  0  0
  143.0439   81.7042  222.9791 H   0  0  0  0  0  0  0  0  0  0  0  0
  141.2549   81.5718  221.3064 H   0  0  0  0  0  0  0  0  0  0  0  0
  138.4534   69.0444  222.6027 H   0  0  0  0  0  0  0  0  0  0  0  0
  138.8921   67.6574  224.6204 H   0  0  0  0  0  0  0  0  0  0  0  0
  139.7552   67.4661  226.9337 H   0  0  0  0  0  0  0  0  0  0  0  0
  141.4033   70.9740  228.8024 H   0  0  0  0  0  0  0  0  0  0  0  0
  140.9302   72.2971  226.7370 H   0  0  0  0  0  0  0  0  0  0  0  0
  1  2  2  0
  2  3  1  0
  3  4  1  0
  4  5  1  0
  5  6  2  0
  5  7  1  0
  7  8  1  0
  8  9  1  0
  9 10  1  0
 10 11  1  0
 10 12  1  0
 12 13  1  0
 13 14  1  0
 14 15  1  0
 15 16  1  0
 16 17  2  0
 17 18  1  0
 18 19  2  0
 19 20  1  0
 20 21  2  0
  2 22  1  0
 22 23  2  0
 23 24  1  0
 24 25  2  0
 25 26  1  0
 26 27  2  0
 27 28  1  0
 27 29  1  0
 29 30  2  0
 30 31  1  0
 31 32  2  0
 12  7  1  0
 21 16  1  0
 32 22  1  0
 31 25  1  0
  3 33  1  0
  4 34  1  0
  4 35  1  0
  8 36  1  0
  8 37  1  0
  9 38  1  0
  9 39  1  0
 10 40  1  6
 11 41  1  0
 12 42  1  1
 13 43  1  0
 13 44  1  0
 15 45  1  0
 15 46  1  0
 17 47  1  0
 18 48  1  0
 19 49  1  0
 20 50  1  0
 21 51  1  0
 23 52  1  0
 24 53  1  0
 26 54  1  0
 29 55  1  0
 30 56  1  0
M  END
>  <smiles>  (25) 
O=C(NCC(=O)N1CC[C@H](O)[C@H]1COCc1ccccc1)c1ccc2cc(F)ccc2n1

>  <score_type>  (25) 
oracle

>  <origin>  (25) 
autodockgpu

>  <m_score__min__energy>  (25) 
-8.9700000000000006

>  <m_primary>  (25) 
energy

>  <rmsd>  (25) 
1.6098219514985785

>  <m_score__min__rmsd>  (25) 
1.6098219514985785

>  <meeko>  (25) 
{"free_energy": -7.67, "intermolecular_energy": -10.36, "internal_energy": -2.47, "cluster_size": 27, "cluster_id": 1, "rank_in_cluster": 24}

>  <energy>  (25) 
-7.49

>  <cluster_rmsd>  (25) 
1.98

>  <cluster>  (25) 
1

$$$$

     RDKit          3D

 56 59  0  0  0  0  0  0  0  0999 V2000
  141.5140   72.7740  221.1570 O   0  0  0  0  0  0  0  0  0  0  0  0
  140.7380   73.6370  221.6400 C   0  0  0  0  0  0  0  0  0  0  0  0
  139.5690   73.3130  222.3800 N   0  0  0  0  0  0  0  0  0  0  0  0
  139.2160   71.9210  222.6130 C   0  0  0  0  0  0  0  0  0  0  0  0
  137.7470   71.8070  222.7860 C   0  0  0  0  0  0  0  0  0  0  0  0
  137.0790   72.8700  222.6990 O   0  0  0  0  0  0  0  0  0  0  0  0
  137.1680   70.5320  223.0360 N   0  0  0  0  0  0  0  0  0  0  0  0
  136.3840   69.7410  222.0740 C   0  0  0  0  0  0  0  0  0  0  0  0
  135.1990   69.3900  222.9480 C   0  0  0  0  0  0  0  0  0  0  0  0
  135.9150   68.9180  224.1940 C   0  0  2  0  0  0  0  0  0  0  0  0
  135.1540   69.0800  225.3410 O   0  0  0  0  0  0  0  0  0  0  0  0
  137.2130   69.7410  224.2500 C   0  0  1  0  0  0  0  0  0  0  0  0
  138.3930   68.7700  224.1240 C   0  0  0  0  0  0  0  0  0  0  0  0
  138.7750   68.2150  225.3120 O   0  0  0  0  0  0  0  0  0  0  0  0
  140.0700   68.3980  225.7060 C   0  0  0  0  0  0  0  0  0  0  0  0
  140.3840   69.6690  226.3550 C   0  0  0  0  0  0  0  0  0  0  0  0
  141.0990   70.7040  225.8000 C   0  0  0  0  0  0  0  0  0  0  0  0
  141.3620   71.8800  226.4710 C   0  0  0  0  0  0  0  0  0  0  0  0
  140.9050   72.0640  227.7590 C   0  0  0  0  0  0  0  0  0  0  0  0
  140.1860   71.0460  228.3440 C   0  0  0  0  0  0  0  0  0  0  0  0
  139.9300   69.8770  227.6620 C   0  0  0  0  0  0  0  0  0  0  0  0
  141.0280   75.0690  221.4470 C   0  0  0  0  0  0  0  0  0  0  0  0
  141.7720   75.5060  220.3590 C   0  0  0  0  0  0  0  0  0  0  0  0
  142.0350   76.8690  220.1970 C   0  0  0  0  0  0  0  0  0  0  0  0
  141.5630   77.8060  221.1070 C   0  0  0  0  0  0  0  0  0  0  0  0
  141.8020   79.1520  220.9790 C   0  0  0  0  0  0  0  0  0  0  0  0
  141.2940   80.0140  221.9320 C   0  0  0  0  0  0  0  0  0  0  0  0
  141.5130   81.3530  221.8330 F   0  0  0  0  0  0  0  0  0  0  0  0
  140.5620   79.5500  222.9960 C   0  0  0  0  0  0  0  0  0  0  0  0
  140.3240   78.1860  223.1190 C   0  0  0  0  0  0  0  0  0  0  0  0
  140.8240   77.3200  222.1770 C   0  0  0  0  0  0  0  0  0  0  0  0
  140.5980   76.0130  222.2930 N   0  0  0  0  0  0  0  0  0  0  0  0
  138.9490   74.0730  222.7660 H   0  0  0  0  0  0  0  0  0  0  0  0
  139.5324   71.3133  221.7524 H   0  0  0  0  0  0  0  0  0  0  0  0
  139.7217   71.5609  223.5211 H   0  0  0  0  0  0  0  0  0  0  0  0
  136.0863   70.3369  221.1986 H   0  0  0  0  0  0  0  0  0  0  0  0
  136.9117   68.8825  221.6330 H   0  0  0  0  0  0  0  0  0  0  0  0
  134.5671   70.2676  223.1491 H   0  0  0  0  0  0  0  0  0  0  0  0
  134.5039   68.6583  222.5104 H   0  0  0  0  0  0  0  0  0  0  0  0
  136.1150   67.8373  224.1489 H   0  0  0  0  0  0  0  0  0  0  0  0
  135.2080   68.3000  225.9310 H   0  0  0  0  0  0  0  0  0  0  0  0
  137.3142   70.3388  225.1678 H   0  0  0  0  0  0  0  0  0  0  0  0
  138.1044   67.9595  223.4386 H   0  0  0  0  0  0  0  0  0  0  0  0
  139.2491   69.3504  223.7496 H   0  0  0  0  0  0  0  0  0  0  0  0
  140.3210   67.5923  226.4115 H   0  0  0  0  0  0  0  0  0  0  0  0
  140.6587   68.3941  224.7768 H   0  0  0  0  0  0  0  0  0  0  0  0
  141.4786   70.5889  224.7740 H   0  0  0  0  0  0  0  0  0  0  0  0
  141.9392   72.6751  225.9763 H   0  0  0  0  0  0  0  0  0  0  0  0
  141.1091   72.9977  228.3036 H   0  0  0  0  0  0  0  0  0  0  0  0
  139.8106   71.1680  229.3707 H   0  0  0  0  0  0  0  0  0  0  0  0
  139.3520   69.0841  228.1592 H   0  0  0  0  0  0  0  0  0  0  0  0
  142.1538   74.7804  219.6257 H   0  0  0  0  0  0  0  0  0  0  0  0
  142.6266   77.2058  219.3330 H   0  0  0  0  0  0  0  0  0  0  0  0
  142.3881   79.5377  220.1319 H   0  0  0  0  0  0  0  0  0  0  0  0
  140.1668   80.2517  223.7453 H   0  0  0  0  0  0  0  0  0  0  0  0
  139.7379   77.8017  223.9668 H   0  0  0  0  0  0  0  0  0  0  0  0
  1  2  2  0
  2  3  1  0
  3  4  1  0
  4  5  1  0
  5  6  2  0
  5  7  1  0
  7  8  1  0
  8  9  1  0
  9 10  1  0
 10 11  1  0
 10 12  1  0
 12 13  1  0
 13 14  1  0
 14 15  1  0
 15 16  1  0
 16 17  2  0
 17 18  1  0
 18 19  2  0
 19 20  1  0
 20 21  2  0
  2 22  1  0
 22 23  2  0
 23 24  1  0
 24 25  2  0
 25 26  1  0
 26 27  2  0
 27 28  1  0
 27 29  1  0
 29 30  2  0
 30 31  1  0
 31 32  2  0
 12  7  1  0
 21 16  1  0
 32 22  1  0
 31 25  1  0
  3 33  1  0
  4 34  1  0
  4 35  1  0
  8 36  1  0
  8 37  1  0
  9 38  1  0
  9 39  1  0
 10 40  1  6
 11 41  1  0
 12 42  1  1
 13 43  1  0
 13 44  1  0
 15 45  1  0
 15 46  1  0
 17 47  1  0
 18 48  1  0
 19 49  1  0
 20 50  1  0
 21 51  1  0
 23 52  1  0
 24 53  1  0
 26 54  1  0
 29 55  1  0
 30 56  1  0
M  END
>  <smiles>  (26) 
O=C(NCC(=O)N1CC[C@H](O)[C@H]1COCc1ccccc1)c1ccc2cc(F)ccc2n1

>  <score_type>  (26) 
oracle

>  <origin>  (26) 
autodockgpu

>  <m_score__min__energy>  (26) 
-8.9700000000000006

>  <m_primary>  (26) 
energy

>  <rmsd>  (26) 
8.808412602406063

>  <m_score__min__rmsd>  (26) 
8.808412602406063

>  <meeko>  (26) 
{"free_energy": -7.95, "intermolecular_energy": -10.64, "internal_energy": -2.28, "cluster_size": 7, "cluster_id": 2, "rank_in_cluster": 6}

>  <energy>  (26) 
-7.4

>  <cluster_rmsd>  (26) 
1.91

>  <cluster>  (26) 
1

$$$$

     RDKit          3D

 56 59  0  0  0  0  0  0  0  0999 V2000
  139.0340   70.6160  221.1350 O   0  0  0  0  0  0  0  0  0  0  0  0
  139.2590   71.2100  222.2190 C   0  0  0  0  0  0  0  0  0  0  0  0
  139.3730   72.6230  222.3290 N   0  0  0  0  0  0  0  0  0  0  0  0
  139.2270   73.4600  221.1490 C   0  0  0  0  0  0  0  0  0  0  0  0
  140.1880   74.5880  221.2220 C   0  0  0  0  0  0  0  0  0  0  0  0
  140.3320   75.1410  222.3420 O   0  0  0  0  0  0  0  0  0  0  0  0
  140.8910   74.9860  220.0520 N   0  0  0  0  0  0  0  0  0  0  0  0
  140.5370   74.6210  218.6710 C   0  0  0  0  0  0  0  0  0  0  0  0
  141.8940   74.1670  218.1770 C   0  0  0  0  0  0  0  0  0  0  0  0
  142.7520   75.3170  218.6560 C   0  0  2  0  0  0  0  0  0  0  0  0
  144.0690   74.9450  218.8770 O   0  0  0  0  0  0  0  0  0  0  0  0
  142.0770   75.8130  219.9460 C   0  0  1  0  0  0  0  0  0  0  0  0
  141.6120   77.2560  219.7090 C   0  0  0  0  0  0  0  0  0  0  0  0
  140.7570   77.7200  220.6690 O   0  0  0  0  0  0  0  0  0  0  0  0
  141.2060   77.7380  221.9590 C   0  0  0  0  0  0  0  0  0  0  0  0
  141.5480   79.0440  222.5160 C   0  0  0  0  0  0  0  0  0  0  0  0
  142.1750   79.2720  223.7180 C   0  0  0  0  0  0  0  0  0  0  0  0
  142.4670   80.5360  224.1870 C   0  0  0  0  0  0  0  0  0  0  0  0
  142.1290   81.6480  223.4450 C   0  0  0  0  0  0  0  0  0  0  0  0
  141.4990   81.4560  222.2360 C   0  0  0  0  0  0  0  0  0  0  0  0
  141.2150   80.1880  221.7800 C   0  0  0  0  0  0  0  0  0  0  0  0
  139.4190   70.4300  223.4600 C   0  0  0  0  0  0  0  0  0  0  0  0
  139.0010   69.1090  223.5300 C   0  0  0  0  0  0  0  0  0  0  0  0
  139.1630   68.3890  224.7170 C   0  0  0  0  0  0  0  0  0  0  0  0
  139.7400   68.9710  225.8390 C   0  0  0  0  0  0  0  0  0  0  0  0
  139.9140   68.2940  227.0200 C   0  0  0  0  0  0  0  0  0  0  0  0
  140.4970   68.9520  228.0860 C   0  0  0  0  0  0  0  0  0  0  0  0
  140.6840   68.3090  229.2710 F   0  0  0  0  0  0  0  0  0  0  0  0
  140.9000   70.2600  227.9840 C   0  0  0  0  0  0  0  0  0  0  0  0
  140.7190   70.9390  226.7840 C   0  0  0  0  0  0  0  0  0  0  0  0
  140.1410   70.2940  225.7180 C   0  0  0  0  0  0  0  0  0  0  0  0
  139.9680   70.9430  224.5680 N   0  0  0  0  0  0  0  0  0  0  0  0
  139.5630   73.0750  223.2620 H   0  0  0  0  0  0  0  0  0  0  0  0
  139.4303   72.8626  220.2480 H   0  0  0  0  0  0  0  0  0  0  0  0
  138.2011   73.8542  221.1032 H   0  0  0  0  0  0  0  0  0  0  0  0
  139.7957   73.8090  218.6384 H   0  0  0  0  0  0  0  0  0  0  0  0
  140.0677   75.4218  218.0807 H   0  0  0  0  0  0  0  0  0  0  0  0
  142.1967   73.2142  218.6358 H   0  0  0  0  0  0  0  0  0  0  0  0
  141.9491   73.9693  217.0963 H   0  0  0  0  0  0  0  0  0  0  0  0
  142.8147   76.1072  217.8934 H   0  0  0  0  0  0  0  0  0  0  0  0
  144.6830   75.3760  218.2470 H   0  0  0  0  0  0  0  0  0  0  0  0
  142.7316   75.7675  220.8288 H   0  0  0  0  0  0  0  0  0  0  0  0
  142.4978   77.9078  219.6878 H   0  0  0  0  0  0  0  0  0  0  0  0
  141.0627   77.2655  218.7560 H   0  0  0  0  0  0  0  0  0  0  0  0
  140.4194   77.3013  222.5919 H   0  0  0  0  0  0  0  0  0  0  0  0
  142.1500   77.1736  221.9445 H   0  0  0  0  0  0  0  0  0  0  0  0
  142.4571   78.4059  224.3347 H   0  0  0  0  0  0  0  0  0  0  0  0
  142.9715   80.6573  225.1569 H   0  0  0  0  0  0  0  0  0  0  0  0
  142.3565   82.6608  223.8091 H   0  0  0  0  0  0  0  0  0  0  0  0
  141.2187   82.3273  221.6259 H   0  0  0  0  0  0  0  0  0  0  0  0
  140.7117   80.0702  220.8090 H   0  0  0  0  0  0  0  0  0  0  0  0
  138.5428   68.6290  222.6527 H   0  0  0  0  0  0  0  0  0  0  0  0
  138.8275   67.3424  224.7637 H   0  0  0  0  0  0  0  0  0  0  0  0
  139.5949   67.2457  227.1163 H   0  0  0  0  0  0  0  0  0  0  0  0
  141.3621   70.7668  228.8440 H   0  0  0  0  0  0  0  0  0  0  0  0
  141.0372   71.9877  226.6890 H   0  0  0  0  0  0  0  0  0  0  0  0
  1  2  2  0
  2  3  1  0
  3  4  1  0
  4  5  1  0
  5  6  2  0
  5  7  1  0
  7  8  1  0
  8  9  1  0
  9 10  1  0
 10 11  1  0
 10 12  1  0
 12 13  1  0
 13 14  1  0
 14 15  1  0
 15 16  1  0
 16 17  2  0
 17 18  1  0
 18 19  2  0
 19 20  1  0
 20 21  2  0
  2 22  1  0
 22 23  2  0
 23 24  1  0
 24 25  2  0
 25 26  1  0
 26 27  2  0
 27 28  1  0
 27 29  1  0
 29 30  2  0
 30 31  1  0
 31 32  2  0
 12  7  1  0
 21 16  1  0
 32 22  1  0
 31 25  1  0
  3 33  1  0
  4 34  1  0
  4 35  1  0
  8 36  1  0
  8 37  1  0
  9 38  1  0
  9 39  1  0
 10 40  1  6
 11 41  1  0
 12 42  1  1
 13 43  1  0
 13 44  1  0
 15 45  1  0
 15 46  1  0
 17 47  1  0
 18 48  1  0
 19 49  1  0
 20 50  1  0
 21 51  1  0
 23 52  1  0
 24 53  1  0
 26 54  1  0
 29 55  1  0
 30 56  1  0
M  END
>  <smiles>  (27) 
O=C(NCC(=O)N1CC[C@H](O)[C@H]1COCc1ccccc1)c1ccc2cc(F)ccc2n1

>  <score_type>  (27) 
oracle

>  <origin>  (27) 
autodockgpu

>  <m_score__min__energy>  (27) 
-8.9700000000000006

>  <m_primary>  (27) 
energy

>  <rmsd>  (27) 
1.5213206142533495

>  <m_score__min__rmsd>  (27) 
1.5213206142533495

>  <meeko>  (27) 
{"free_energy": -8.26, "intermolecular_energy": -10.95, "internal_energy": -1.9, "cluster_size": 27, "cluster_id": 1, "rank_in_cluster": 17}

>  <energy>  (27) 
-7.27

>  <cluster_rmsd>  (27) 
1.81

>  <cluster>  (27) 
1

$$$$

     RDKit          3D

 56 59  0  0  0  0  0  0  0  0999 V2000
  138.5360   75.1880  221.8550 O   0  0  0  0  0  0  0  0  0  0  0  0
  139.7180   75.6130  221.8700 C   0  0  0  0  0  0  0  0  0  0  0  0
  140.8290   74.8540  221.4110 N   0  0  0  0  0  0  0  0  0  0  0  0
  140.6290   73.5110  220.8900 C   0  0  0  0  0  0  0  0  0  0  0  0
  141.8500   72.7030  221.1280 C   0  0  0  0  0  0  0  0  0  0  0  0
  141.7550   71.7600  221.9540 O   0  0  0  0  0  0  0  0  0  0  0  0
  143.0470   73.0190  220.4280 N   0  0  0  0  0  0  0  0  0  0  0  0
  143.7140   72.1630  219.4340 C   0  0  0  0  0  0  0  0  0  0  0  0
  145.1330   72.2300  219.9590 C   0  0  0  0  0  0  0  0  0  0  0  0
  145.2730   73.7220  220.1630 C   0  0  2  0  0  0  0  0  0  0  0  0
  146.1970   74.0410  221.1460 O   0  0  0  0  0  0  0  0  0  0  0  0
  143.8620   74.2150  220.5260 C   0  0  1  0  0  0  0  0  0  0  0  0
  143.4010   75.1760  219.4230 C   0  0  0  0  0  0  0  0  0  0  0  0
  142.8120   76.3130  219.8990 O   0  0  0  0  0  0  0  0  0  0  0  0
  141.8270   76.8790  219.1400 C   0  0  0  0  0  0  0  0  0  0  0  0
  141.7740   78.3380  219.1180 C   0  0  0  0  0  0  0  0  0  0  0  0
  142.6770   79.1710  218.4990 C   0  0  0  0  0  0  0  0  0  0  0  0
  142.5690   80.5460  218.5190 C   0  0  0  0  0  0  0  0  0  0  0  0
  141.5200   81.1510  219.1790 C   0  0  0  0  0  0  0  0  0  0  0  0
  140.5980   80.3470  219.8100 C   0  0  0  0  0  0  0  0  0  0  0  0
  140.7190   78.9750  219.7810 C   0  0  0  0  0  0  0  0  0  0  0  0
  140.0020   76.9650  222.3840 C   0  0  0  0  0  0  0  0  0  0  0  0
  138.9740   77.8020  222.7960 C   0  0  0  0  0  0  0  0  0  0  0  0
  139.2670   79.0790  223.2800 C   0  0  0  0  0  0  0  0  0  0  0  0
  140.5760   79.5360  223.3600 C   0  0  0  0  0  0  0  0  0  0  0  0
  140.9000   80.7850  223.8300 C   0  0  0  0  0  0  0  0  0  0  0  0
  142.2300   81.1570  223.8740 C   0  0  0  0  0  0  0  0  0  0  0  0
  142.5840   82.3870  224.3340 F   0  0  0  0  0  0  0  0  0  0  0  0
  143.2240   80.3060  223.4590 C   0  0  0  0  0  0  0  0  0  0  0  0
  142.8870   79.0430  222.9840 C   0  0  0  0  0  0  0  0  0  0  0  0
  141.5680   78.6630  222.9360 C   0  0  0  0  0  0  0  0  0  0  0  0
  141.2450   77.4540  222.4820 N   0  0  0  0  0  0  0  0  0  0  0  0
  141.8040   75.2550  221.4440 H   0  0  0  0  0  0  0  0  0  0  0  0
  139.7741   73.0431  221.4001 H   0  0  0  0  0  0  0  0  0  0  0  0
  140.4273   73.5623  219.8099 H   0  0  0  0  0  0  0  0  0  0  0  0
  143.3199   71.1361  219.4463 H   0  0  0  0  0  0  0  0  0  0  0  0
  143.5869   72.4748  218.3868 H   0  0  0  0  0  0  0  0  0  0  0  0
  145.2444   71.6775  220.9036 H   0  0  0  0  0  0  0  0  0  0  0  0
  145.8905   71.7815  219.2995 H   0  0  0  0  0  0  0  0  0  0  0  0
  145.6577   74.2103  219.2555 H   0  0  0  0  0  0  0  0  0  0  0  0
  145.9080   73.7420  222.0330 H   0  0  0  0  0  0  0  0  0  0  0  0
  143.8093   74.7118  221.5060 H   0  0  0  0  0  0  0  0  0  0  0  0
  144.2774   75.4632  218.8234 H   0  0  0  0  0  0  0  0  0  0  0  0
  142.6431   74.6448  218.8285 H   0  0  0  0  0  0  0  0  0  0  0  0
  141.9645   76.5346  218.1044 H   0  0  0  0  0  0  0  0  0  0  0  0
  140.8831   76.5620  219.6075 H   0  0  0  0  0  0  0  0  0  0  0  0
  143.5248   78.7194  217.9630 H   0  0  0  0  0  0  0  0  0  0  0  0
  143.3224   81.1623  218.0066 H   0  0  0  0  0  0  0  0  0  0  0  0
  141.4228   82.2465  219.2006 H   0  0  0  0  0  0  0  0  0  0  0  0
  139.7533   80.8061  220.3445 H   0  0  0  0  0  0  0  0  0  0  0  0
  139.9637   78.3618  220.2944 H   0  0  0  0  0  0  0  0  0  0  0  0
  137.9300   77.4599  222.7414 H   0  0  0  0  0  0  0  0  0  0  0  0
  138.4456   79.7350  223.6039 H   0  0  0  0  0  0  0  0  0  0  0  0
  140.1141   81.4775  224.1657 H   0  0  0  0  0  0  0  0  0  0  0  0
  144.2773   80.6201  223.5018 H   0  0  0  0  0  0  0  0  0  0  0  0
  143.6736   78.3513  222.6481 H   0  0  0  0  0  0  0  0  0  0  0  0
  1  2  2  0
  2  3  1  0
  3  4  1  0
  4  5  1  0
  5  6  2  0
  5  7  1  0
  7  8  1  0
  8  9  1  0
  9 10  1  0
 10 11  1  0
 10 12  1  0
 12 13  1  0
 13 14  1  0
 14 15  1  0
 15 16  1  0
 16 17  2  0
 17 18  1  0
 18 19  2  0
 19 20  1  0
 20 21  2  0
  2 22  1  0
 22 23  2  0
 23 24  1  0
 24 25  2  0
 25 26  1  0
 26 27  2  0
 27 28  1  0
 27 29  1  0
 29 30  2  0
 30 31  1  0
 31 32  2  0
 12  7  1  0
 21 16  1  0
 32 22  1  0
 31 25  1  0
  3 33  1  0
  4 34  1  0
  4 35  1  0
  8 36  1  0
  8 37  1  0
  9 38  1  0
  9 39  1  0
 10 40  1  6
 11 41  1  0
 12 42  1  1
 13 43  1  0
 13 44  1  0
 15 45  1  0
 15 46  1  0
 17 47  1  0
 18 48  1  0
 19 49  1  0
 20 50  1  0
 21 51  1  0
 23 52  1  0
 24 53  1  0
 26 54  1  0
 29 55  1  0
 30 56  1  0
M  END
>  <smiles>  (28) 
O=C(NCC(=O)N1CC[C@H](O)[C@H]1COCc1ccccc1)c1ccc2cc(F)ccc2n1

>  <score_type>  (28) 
oracle

>  <origin>  (28) 
autodockgpu

>  <m_score__min__energy>  (28) 
-8.9700000000000006

>  <m_primary>  (28) 
energy

>  <rmsd>  (28) 
7.753894796416242

>  <m_score__min__rmsd>  (28) 
7.753894796416242

>  <meeko>  (28) 
{"free_energy": -6.17, "intermolecular_energy": -8.86, "internal_energy": -3.69, "cluster_size": 5, "cluster_id": 5, "rank_in_cluster": 3}

>  <energy>  (28) 
-8.32

>  <cluster_rmsd>  (28) 
0.0

>  <cluster>  (28) 
2

$$$$

     RDKit          3D

 56 59  0  0  0  0  0  0  0  0999 V2000
  141.1600   72.4460  221.8060 O   0  0  0  0  0  0  0  0  0  0  0  0
  140.1360   72.3780  222.5330 C   0  0  0  0  0  0  0  0  0  0  0  0
  138.9850   73.1910  222.3420 N   0  0  0  0  0  0  0  0  0  0  0  0
  138.9500   74.1630  221.2610 C   0  0  0  0  0  0  0  0  0  0  0  0
  140.0530   75.1400  221.4400 C   0  0  0  0  0  0  0  0  0  0  0  0
  140.0800   75.7740  222.5250 O   0  0  0  0  0  0  0  0  0  0  0  0
  141.0100   75.3120  220.4030 N   0  0  0  0  0  0  0  0  0  0  0  0
  141.4140   74.2870  219.4270 C   0  0  0  0  0  0  0  0  0  0  0  0
  142.9190   74.4190  219.5350 C   0  0  0  0  0  0  0  0  0  0  0  0
  143.0640   75.9220  219.4370 C   0  0  2  0  0  0  0  0  0  0  0  0
  144.2050   76.3900  220.0680 O   0  0  0  0  0  0  0  0  0  0  0  0
  141.7860   76.4930  220.0750 C   0  0  1  0  0  0  0  0  0  0  0  0
  141.0190   77.2590  218.9890 C   0  0  0  0  0  0  0  0  0  0  0  0
  140.7650   78.5610  219.3140 O   0  0  0  0  0  0  0  0  0  0  0  0
  141.8100   79.3150  219.7650 C   0  0  0  0  0  0  0  0  0  0  0  0
  141.8120   79.6490  221.1870 C   0  0  0  0  0  0  0  0  0  0  0  0
  141.8090   78.7510  222.2280 C   0  0  0  0  0  0  0  0  0  0  0  0
  141.8090   79.1360  223.5530 C   0  0  0  0  0  0  0  0  0  0  0  0
  141.8110   80.4730  223.8890 C   0  0  0  0  0  0  0  0  0  0  0  0
  141.8130   81.3990  222.8700 C   0  0  0  0  0  0  0  0  0  0  0  0
  141.8140   81.0000  221.5520 C   0  0  0  0  0  0  0  0  0  0  0  0
  140.0960   71.4170  223.6490 C   0  0  0  0  0  0  0  0  0  0  0  0
  139.5550   70.1500  223.4800 C   0  0  0  0  0  0  0  0  0  0  0  0
  139.5280   69.2560  224.5530 C   0  0  0  0  0  0  0  0  0  0  0  0
  140.0340   69.6080  225.7970 C   0  0  0  0  0  0  0  0  0  0  0  0
  140.0230   68.7550  226.8730 C   0  0  0  0  0  0  0  0  0  0  0  0
  140.5490   69.1890  228.0750 C   0  0  0  0  0  0  0  0  0  0  0  0
  140.5530   68.3680  229.1590 F   0  0  0  0  0  0  0  0  0  0  0  0
  141.0770   70.4490  228.2090 C   0  0  0  0  0  0  0  0  0  0  0  0
  141.0840   71.3070  227.1150 C   0  0  0  0  0  0  0  0  0  0  0  0
  140.5640   70.8850  225.9160 C   0  0  0  0  0  0  0  0  0  0  0  0
  140.5700   71.7060  224.8680 N   0  0  0  0  0  0  0  0  0  0  0  0
  138.1500   73.0970  222.9780 H   0  0  0  0  0  0  0  0  0  0  0  0
  139.0711   73.6453  220.2980 H   0  0  0  0  0  0  0  0  0  0  0  0
  137.9855   74.6917  221.2736 H   0  0  0  0  0  0  0  0  0  0  0  0
  141.0680   73.2842  219.7180 H   0  0  0  0  0  0  0  0  0  0  0  0
  141.0039   74.4168  218.4146 H   0  0  0  0  0  0  0  0  0  0  0  0
  143.2937   74.0354  220.4954 H   0  0  0  0  0  0  0  0  0  0  0  0
  143.4870   73.8508  218.7837 H   0  0  0  0  0  0  0  0  0  0  0  0
  143.1792   76.2402  218.3904 H   0  0  0  0  0  0  0  0  0  0  0  0
  144.0860   77.2980  220.4170 H   0  0  0  0  0  0  0  0  0  0  0  0
  141.9816   77.1509  220.9346 H   0  0  0  0  0  0  0  0  0  0  0  0
  141.6147   77.2412  218.0644 H   0  0  0  0  0  0  0  0  0  0  0  0
  140.0457   76.7607  218.8693 H   0  0  0  0  0  0  0  0  0  0  0  0
  142.7367   78.7623  219.5511 H   0  0  0  0  0  0  0  0  0  0  0  0
  141.7186   80.2783  219.2418 H   0  0  0  0  0  0  0  0  0  0  0  0
  141.8065   77.6762  221.9938 H   0  0  0  0  0  0  0  0  0  0  0  0
  141.8074   78.3725  224.3449 H   0  0  0  0  0  0  0  0  0  0  0  0
  141.8110   80.7912  224.9420 H   0  0  0  0  0  0  0  0  0  0  0  0
  141.8138   82.4720  223.1120 H   0  0  0  0  0  0  0  0  0  0  0  0
  141.8164   81.7660  220.7626 H   0  0  0  0  0  0  0  0  0  0  0  0
  139.1482   69.8504  222.5029 H   0  0  0  0  0  0  0  0  0  0  0  0
  139.0976   68.2539  224.4096 H   0  0  0  0  0  0  0  0  0  0  0  0
  139.6024   67.7429  226.7798 H   0  0  0  0  0  0  0  0  0  0  0  0
  141.4911   70.7771  229.1738 H   0  0  0  0  0  0  0  0  0  0  0  0
  141.5041   72.3192  227.2094 H   0  0  0  0  0  0  0  0  0  0  0  0
  1  2  2  0
  2  3  1  0
  3  4  1  0
  4  5  1  0
  5  6  2  0
  5  7  1  0
  7  8  1  0
  8  9  1  0
  9 10  1  0
 10 11  1  0
 10 12  1  0
 12 13  1  0
 13 14  1  0
 14 15  1  0
 15 16  1  0
 16 17  2  0
 17 18  1  0
 18 19  2  0
 19 20  1  0
 20 21  2  0
  2 22  1  0
 22 23  2  0
 23 24  1  0
 24 25  2  0
 25 26  1  0
 26 27  2  0
 27 28  1  0
 27 29  1  0
 29 30  2  0
 30 31  1  0
 31 32  2  0
 12  7  1  0
 21 16  1  0
 32 22  1  0
 31 25  1  0
  3 33  1  0
  4 34  1  0
  4 35  1  0
  8 36  1  0
  8 37  1  0
  9 38  1  0
  9 39  1  0
 10 40  1  6
 11 41  1  0
 12 42  1  1
 13 43  1  0
 13 44  1  0
 15 45  1  0
 15 46  1  0
 17 47  1  0
 18 48  1  0
 19 49  1  0
 20 50  1  0
 21 51  1  0
 23 52  1  0
 24 53  1  0
 26 54  1  0
 29 55  1  0
 30 56  1  0
M  END
>  <smiles>  (29) 
O=C(NCC(=O)N1CC[C@H](O)[C@H]1COCc1ccccc1)c1ccc2cc(F)ccc2n1

>  <score_type>  (29) 
oracle

>  <origin>  (29) 
autodockgpu

>  <m_score__min__energy>  (29) 
-8.9700000000000006

>  <m_primary>  (29) 
energy

>  <rmsd>  (29) 
2.0624065332380725

>  <m_score__min__rmsd>  (29) 
2.0624065332380725

>  <meeko>  (29) 
{"free_energy": -8.97, "intermolecular_energy": -11.65, "internal_energy": -1.68, "cluster_size": 27, "cluster_id": 1, "rank_in_cluster": 1}

>  <energy>  (29) 
-8.31

>  <cluster_rmsd>  (29) 
0.4

>  <cluster>  (29) 
2

$$$$

     RDKit          3D

 56 59  0  0  0  0  0  0  0  0999 V2000
  139.0480   70.9860  221.0160 O   0  0  0  0  0  0  0  0  0  0  0  0
  139.3280   71.5520  222.1020 C   0  0  0  0  0  0  0  0  0  0  0  0
  139.5270   72.9550  222.2260 N   0  0  0  0  0  0  0  0  0  0  0  0
  139.4090   73.8130  221.0580 C   0  0  0  0  0  0  0  0  0  0  0  0
  140.3110   74.9820  221.2120 C   0  0  0  0  0  0  0  0  0  0  0  0
  140.8850   75.1150  222.3220 O   0  0  0  0  0  0  0  0  0  0  0  0
  140.4840   75.8790  220.1230 N   0  0  0  0  0  0  0  0  0  0  0  0
  140.1600   75.5960  218.7150 C   0  0  0  0  0  0  0  0  0  0  0  0
  141.4450   76.0640  218.0640 C   0  0  0  0  0  0  0  0  0  0  0  0
  141.6150   77.4060  218.7400 C   0  0  2  0  0  0  0  0  0  0  0  0
  142.9400   77.8070  218.8060 O   0  0  0  0  0  0  0  0  0  0  0  0
  141.0030   77.2340  220.1410 C   0  0  1  0  0  0  0  0  0  0  0  0
  139.8030   78.1830  220.2510 C   0  0  0  0  0  0  0  0  0  0  0  0
  139.1660   78.1240  221.4580 O   0  0  0  0  0  0  0  0  0  0  0  0
  139.9380   77.9450  222.5700 C   0  0  0  0  0  0  0  0  0  0  0  0
  140.7810   79.0690  222.9710 C   0  0  0  0  0  0  0  0  0  0  0  0
  140.3430   80.2580  223.5050 C   0  0  0  0  0  0  0  0  0  0  0  0
  141.1950   81.2830  223.8600 C   0  0  0  0  0  0  0  0  0  0  0  0
  142.5560   81.1470  223.6870 C   0  0  0  0  0  0  0  0  0  0  0  0
  143.0290   79.9690  223.1540 C   0  0  0  0  0  0  0  0  0  0  0  0
  142.1650   78.9540  222.8040 C   0  0  0  0  0  0  0  0  0  0  0  0
  139.4650   70.7490  223.3300 C   0  0  0  0  0  0  0  0  0  0  0  0
  139.0440   69.4270  223.3680 C   0  0  0  0  0  0  0  0  0  0  0  0
  139.1850   68.6850  224.5440 C   0  0  0  0  0  0  0  0  0  0  0  0
  139.7420   69.2450  225.6860 C   0  0  0  0  0  0  0  0  0  0  0  0
  139.8940   68.5450  226.8580 C   0  0  0  0  0  0  0  0  0  0  0  0
  140.4590   69.1820  227.9460 C   0  0  0  0  0  0  0  0  0  0  0  0
  140.6240   68.5160  229.1220 F   0  0  0  0  0  0  0  0  0  0  0  0
  140.8650   70.4910  227.8760 C   0  0  0  0  0  0  0  0  0  0  0  0
  140.7070   71.1930  226.6860 C   0  0  0  0  0  0  0  0  0  0  0  0
  140.1470   70.5690  225.5980 C   0  0  0  0  0  0  0  0  0  0  0  0
  139.9950   71.2400  224.4580 N   0  0  0  0  0  0  0  0  0  0  0  0
  139.7610   73.3830  223.1600 H   0  0  0  0  0  0  0  0  0  0  0  0
  139.6911   73.2479  220.1574 H   0  0  0  0  0  0  0  0  0  0  0  0
  138.3700   74.1608  220.9609 H   0  0  0  0  0  0  0  0  0  0  0  0
  139.9793   74.5247  218.5428 H   0  0  0  0  0  0  0  0  0  0  0  0
  139.2436   76.0751  218.3400 H   0  0  0  0  0  0  0  0  0  0  0  0
  142.2836   75.3874  218.2852 H   0  0  0  0  0  0  0  0  0  0  0  0
  141.4181   76.1014  216.9650 H   0  0  0  0  0  0  0  0  0  0  0  0
  141.1155   78.2013  218.1673 H   0  0  0  0  0  0  0  0  0  0  0  0
  143.2730   77.8250  219.7270 H   0  0  0  0  0  0  0  0  0  0  0  0
  141.7144   77.4288  220.9570 H   0  0  0  0  0  0  0  0  0  0  0  0
  140.1587   79.2123  220.0958 H   0  0  0  0  0  0  0  0  0  0  0  0
  139.0751   77.8713  219.4874 H   0  0  0  0  0  0  0  0  0  0  0  0
  139.2652   77.7167  223.4097 H   0  0  0  0  0  0  0  0  0  0  0  0
  140.6377   77.1372  222.3094 H   0  0  0  0  0  0  0  0  0  0  0  0
  139.2625   80.3983  223.6562 H   0  0  0  0  0  0  0  0  0  0  0  0
  140.7869   82.2128  224.2829 H   0  0  0  0  0  0  0  0  0  0  0  0
  143.2450   81.9574  223.9671 H   0  0  0  0  0  0  0  0  0  0  0  0
  144.1108   79.8362  223.0056 H   0  0  0  0  0  0  0  0  0  0  0  0
  142.5760   78.0257  222.3807 H   0  0  0  0  0  0  0  0  0  0  0  0
  138.6002   68.9641  222.4742 H   0  0  0  0  0  0  0  0  0  0  0  0
  138.8485   67.6380  224.5653 H   0  0  0  0  0  0  0  0  0  0  0  0
  139.5715   67.4957  226.9291 H   0  0  0  0  0  0  0  0  0  0  0  0
  141.3117   70.9808  228.7538 H   0  0  0  0  0  0  0  0  0  0  0  0
  141.0288   72.2426  226.6164 H   0  0  0  0  0  0  0  0  0  0  0  0
  1  2  2  0
  2  3  1  0
  3  4  1  0
  4  5  1  0
  5  6  2  0
  5  7  1  0
  7  8  1  0
  8  9  1  0
  9 10  1  0
 10 11  1  0
 10 12  1  0
 12 13  1  0
 13 14  1  0
 14 15  1  0
 15 16  1  0
 16 17  2  0
 17 18  1  0
 18 19  2  0
 19 20  1  0
 20 21  2  0
  2 22  1  0
 22 23  2  0
 23 24  1  0
 24 25  2  0
 25 26  1  0
 26 27  2  0
 27 28  1  0
 27 29  1  0
 29 30  2  0
 30 31  1  0
 31 32  2  0
 12  7  1  0
 21 16  1  0
 32 22  1  0
 31 25  1  0
  3 33  1  0
  4 34  1  0
  4 35  1  0
  8 36  1  0
  8 37  1  0
  9 38  1  0
  9 39  1  0
 10 40  1  6
 11 41  1  0
 12 42  1  1
 13 43  1  0
 13 44  1  0
 15 45  1  0
 15 46  1  0
 17 47  1  0
 18 48  1  0
 19 49  1  0
 20 50  1  0
 21 51  1  0
 23 52  1  0
 24 53  1  0
 26 54  1  0
 29 55  1  0
 30 56  1  0
M  END
>  <smiles>  (30) 
O=C(NCC(=O)N1CC[C@H](O)[C@H]1COCc1ccccc1)c1ccc2cc(F)ccc2n1

>  <score_type>  (30) 
oracle

>  <origin>  (30) 
autodockgpu

>  <m_score__min__energy>  (30) 
-8.9700000000000006

>  <m_primary>  (30) 
energy

>  <rmsd>  (30) 
1.579969495756218

>  <m_score__min__rmsd>  (30) 
1.579969495756218

>  <meeko>  (30) 
{"free_energy": -8.12, "intermolecular_energy": -10.8, "internal_energy": -2.39, "cluster_size": 27, "cluster_id": 1, "rank_in_cluster": 19}

>  <energy>  (30) 
-8.25

>  <cluster_rmsd>  (30) 
0.32

>  <cluster>  (30) 
2

$$$$

     RDKit          3D

 56 59  0  0  0  0  0  0  0  0999 V2000
  141.7860   73.0040  221.0770 O   0  0  0  0  0  0  0  0  0  0  0  0
  140.9880   73.8310  221.5850 C   0  0  0  0  0  0  0  0  0  0  0  0
  139.8410   73.4540  222.3350 N   0  0  0  0  0  0  0  0  0  0  0  0
  139.5400   72.0470  222.5480 C   0  0  0  0  0  0  0  0  0  0  0  0
  138.0750   71.8760  222.7170 C   0  0  0  0  0  0  0  0  0  0  0  0
  137.3730   72.9190  222.6780 O   0  0  0  0  0  0  0  0  0  0  0  0
  137.5410   70.5730  222.9120 N   0  0  0  0  0  0  0  0  0  0  0  0
  136.9330   69.7290  221.8710 C   0  0  0  0  0  0  0  0  0  0  0  0
  135.6650   69.3200  222.5900 C   0  0  0  0  0  0  0  0  0  0  0  0
  136.2390   68.9010  223.9260 C   0  0  2  0  0  0  0  0  0  0  0  0
  135.3270   69.0310  224.9620 O   0  0  0  0  0  0  0  0  0  0  0  0
  137.4710   69.7980  224.1350 C   0  0  1  0  0  0  0  0  0  0  0  0
  138.7090   68.8940  224.1780 C   0  0  0  0  0  0  0  0  0  0  0  0
  138.8250   68.1790  225.3370 O   0  0  0  0  0  0  0  0  0  0  0  0
  140.0030   68.2760  226.0220 C   0  0  0  0  0  0  0  0  0  0  0  0
  140.3250   69.5830  226.5900 C   0  0  0  0  0  0  0  0  0  0  0  0
  139.9550   70.0370  227.8340 C   0  0  0  0  0  0  0  0  0  0  0  0
  140.2910   71.2880  228.3090 C   0  0  0  0  0  0  0  0  0  0  0  0
  141.0330   72.1510  227.5310 C   0  0  0  0  0  0  0  0  0  0  0  0
  141.4200   71.7270  226.2790 C   0  0  0  0  0  0  0  0  0  0  0  0
  141.0770   70.4760  225.8180 C   0  0  0  0  0  0  0  0  0  0  0  0
  141.2260   75.2760  221.4130 C   0  0  0  0  0  0  0  0  0  0  0  0
  141.9630   75.7540  220.3380 C   0  0  0  0  0  0  0  0  0  0  0  0
  142.1750   77.1270  220.1960 C   0  0  0  0  0  0  0  0  0  0  0  0
  141.6600   78.0350  221.1120 C   0  0  0  0  0  0  0  0  0  0  0  0
  141.8500   79.3900  221.0030 C   0  0  0  0  0  0  0  0  0  0  0  0
  141.3010   80.2200  221.9620 C   0  0  0  0  0  0  0  0  0  0  0  0
  141.4710   81.5670  221.8820 F   0  0  0  0  0  0  0  0  0  0  0  0
  140.5770   79.7150  223.0140 C   0  0  0  0  0  0  0  0  0  0  0  0
  140.3900   78.3410  223.1170 C   0  0  0  0  0  0  0  0  0  0  0  0
  140.9310   77.5080  222.1690 C   0  0  0  0  0  0  0  0  0  0  0  0
  140.7530   76.1920  222.2670 N   0  0  0  0  0  0  0  0  0  0  0  0
  139.2010   74.1860  222.7420 H   0  0  0  0  0  0  0  0  0  0  0  0
  139.8798   71.4635  221.6796 H   0  0  0  0  0  0  0  0  0  0  0  0
  140.0578   71.6933  223.4518 H   0  0  0  0  0  0  0  0  0  0  0  0
  136.7195   70.2981  220.9542 H   0  0  0  0  0  0  0  0  0  0  0  0
  137.5599   68.8971  221.5174 H   0  0  0  0  0  0  0  0  0  0  0  0
  134.9652   70.1624  222.6932 H   0  0  0  0  0  0  0  0  0  0  0  0
  135.0732   68.5465  222.0786 H   0  0  0  0  0  0  0  0  0  0  0  0
  136.5035   67.8333  223.9257 H   0  0  0  0  0  0  0  0  0  0  0  0
  135.5120   69.8170  225.5170 H   0  0  0  0  0  0  0  0  0  0  0  0
  137.4186   70.4099  225.0476 H   0  0  0  0  0  0  0  0  0  0  0  0
  138.6524   68.1868  223.3374 H   0  0  0  0  0  0  0  0  0  0  0  0
  139.5896   69.5501  224.1145 H   0  0  0  0  0  0  0  0  0  0  0  0
  139.9682   67.5522  226.8496 H   0  0  0  0  0  0  0  0  0  0  0  0
  140.7883   68.0830  225.2763 H   0  0  0  0  0  0  0  0  0  0  0  0
  139.3637   69.3719  228.4805 H   0  0  0  0  0  0  0  0  0  0  0  0
  139.9654   71.5982  229.3129 H   0  0  0  0  0  0  0  0  0  0  0  0
  141.3082   73.1501  227.8998 H   0  0  0  0  0  0  0  0  0  0  0  0
  142.0116   72.3975  225.6383 H   0  0  0  0  0  0  0  0  0  0  0  0
  141.4035   70.1692  224.8134 H   0  0  0  0  0  0  0  0  0  0  0  0
  142.3791   75.0528  219.5997 H   0  0  0  0  0  0  0  0  0  0  0  0
  142.7614   77.4965  219.3419 H   0  0  0  0  0  0  0  0  0  0  0  0
  142.4294   79.8081  220.1666 H   0  0  0  0  0  0  0  0  0  0  0  0
  140.1488   80.3914  223.7684 H   0  0  0  0  0  0  0  0  0  0  0  0
  139.8113   77.9233  223.9541 H   0  0  0  0  0  0  0  0  0  0  0  0
  1  2  2  0
  2  3  1  0
  3  4  1  0
  4  5  1  0
  5  6  2  0
  5  7  1  0
  7  8  1  0
  8  9  1  0
  9 10  1  0
 10 11  1  0
 10 12  1  0
 12 13  1  0
 13 14  1  0
 14 15  1  0
 15 16  1  0
 16 17  2  0
 17 18  1  0
 18 19  2  0
 19 20  1  0
 20 21  2  0
  2 22  1  0
 22 23  2  0
 23 24  1  0
 24 25  2  0
 25 26  1  0
 26 27  2  0
 27 28  1  0
 27 29  1  0
 29 30  2  0
 30 31  1  0
 31 32  2  0
 12  7  1  0
 21 16  1  0
 32 22  1  0
 31 25  1  0
  3 33  1  0
  4 34  1  0
  4 35  1  0
  8 36  1  0
  8 37  1  0
  9 38  1  0
  9 39  1  0
 10 40  1  6
 11 41  1  0
 12 42  1  1
 13 43  1  0
 13 44  1  0
 15 45  1  0
 15 46  1  0
 17 47  1  0
 18 48  1  0
 19 49  1  0
 20 50  1  0
 21 51  1  0
 23 52  1  0
 24 53  1  0
 26 54  1  0
 29 55  1  0
 30 56  1  0
M  END
>  <smiles>  (31) 
O=C(NCC(=O)N1CC[C@H](O)[C@H]1COCc1ccccc1)c1ccc2cc(F)ccc2n1

>  <score_type>  (31) 
oracle

>  <origin>  (31) 
autodockgpu

>  <m_score__min__energy>  (31) 
-8.9700000000000006

>  <m_primary>  (31) 
energy

>  <rmsd>  (31) 
8.762548048003618

>  <m_score__min__rmsd>  (31) 
8.762548048003618

>  <meeko>  (31) 
{"free_energy": -8.31, "intermolecular_energy": -11.0, "internal_energy": -2.26, "cluster_size": 7, "cluster_id": 2, "rank_in_cluster": 2}

>  <energy>  (31) 
-8.11

>  <cluster_rmsd>  (31) 
1.69

>  <cluster>  (31) 
2

$$$$

     RDKit          3D

 56 59  0  0  0  0  0  0  0  0999 V2000
  140.9490   72.0080  221.5260 O   0  0  0  0  0  0  0  0  0  0  0  0
  140.0300   72.1430  222.3720 C   0  0  0  0  0  0  0  0  0  0  0  0
  139.0180   73.1380  222.2780 N   0  0  0  0  0  0  0  0  0  0  0  0
  139.0100   74.0650  221.1580 C   0  0  0  0  0  0  0  0  0  0  0  0
  140.0090   75.1360  221.3980 C   0  0  0  0  0  0  0  0  0  0  0  0
  139.9910   75.6890  222.5270 O   0  0  0  0  0  0  0  0  0  0  0  0
  140.9240   75.4820  220.3660 N   0  0  0  0  0  0  0  0  0  0  0  0
  141.2000   74.6880  219.1580 C   0  0  0  0  0  0  0  0  0  0  0  0
  142.7140   74.6960  219.1940 C   0  0  0  0  0  0  0  0  0  0  0  0
  142.9680   76.1680  219.4310 C   0  0  2  0  0  0  0  0  0  0  0  0
  144.1720   76.4050  220.0750 O   0  0  0  0  0  0  0  0  0  0  0  0
  141.7710   76.6560  220.2640 C   0  0  1  0  0  0  0  0  0  0  0  0
  141.0120   77.6990  219.4340 C   0  0  0  0  0  0  0  0  0  0  0  0
  141.5430   78.9550  219.5150 O   0  0  0  0  0  0  0  0  0  0  0  0
  140.8780   79.8730  220.2770 C   0  0  0  0  0  0  0  0  0  0  0  0
  141.4510   80.1770  221.5860 C   0  0  0  0  0  0  0  0  0  0  0  0
  141.5100   81.4190  222.1740 C   0  0  0  0  0  0  0  0  0  0  0  0
  142.0690   81.6370  223.4160 C   0  0  0  0  0  0  0  0  0  0  0  0
  142.6050   80.5870  224.1320 C   0  0  0  0  0  0  0  0  0  0  0  0
  142.5630   79.3300  223.5710 C   0  0  0  0  0  0  0  0  0  0  0  0
  142.0010   79.1270  222.3300 C   0  0  0  0  0  0  0  0  0  0  0  0
  139.9700   71.2400  223.5360 C   0  0  0  0  0  0  0  0  0  0  0  0
  139.3520   70.0010  223.4460 C   0  0  0  0  0  0  0  0  0  0  0  0
  139.3080   69.1620  224.5620 C   0  0  0  0  0  0  0  0  0  0  0  0
  139.8740   69.5430  225.7720 C   0  0  0  0  0  0  0  0  0  0  0  0
  139.8490   68.7430  226.8880 C   0  0  0  0  0  0  0  0  0  0  0  0
  140.4380   69.2030  228.0510 C   0  0  0  0  0  0  0  0  0  0  0  0
  140.4290   68.4350  229.1740 F   0  0  0  0  0  0  0  0  0  0  0  0
  141.0410   70.4350  228.1070 C   0  0  0  0  0  0  0  0  0  0  0  0
  141.0620   71.2370  226.9720 C   0  0  0  0  0  0  0  0  0  0  0  0
  140.4800   70.7900  225.8110 C   0  0  0  0  0  0  0  0  0  0  0  0
  140.5000   71.5580  224.7240 N   0  0  0  0  0  0  0  0  0  0  0  0
  138.2670   73.2110  223.0140 H   0  0  0  0  0  0  0  0  0  0  0  0
  139.2646   73.5260  220.2335 H   0  0  0  0  0  0  0  0  0  0  0  0
  138.0096   74.5113  221.0573 H   0  0  0  0  0  0  0  0  0  0  0  0
  140.7931   73.6689  219.2350 H   0  0  0  0  0  0  0  0  0  0  0  0
  140.7517   75.0748  218.2310 H   0  0  0  0  0  0  0  0  0  0  0  0
  143.1053   74.0776  220.0152 H   0  0  0  0  0  0  0  0  0  0  0  0
  143.1992   74.2824  218.2976 H   0  0  0  0  0  0  0  0  0  0  0  0
  143.0549   76.7115  218.4786 H   0  0  0  0  0  0  0  0  0  0  0  0
  144.1170   77.1680  220.6880 H   0  0  0  0  0  0  0  0  0  0  0  0
  142.0589   77.0842  221.2355 H   0  0  0  0  0  0  0  0  0  0  0  0
  141.0267   77.3826  218.3806 H   0  0  0  0  0  0  0  0  0  0  0  0
  139.9913   77.7538  219.8406 H   0  0  0  0  0  0  0  0  0  0  0  0
  140.8349   80.8120  219.7057 H   0  0  0  0  0  0  0  0  0  0  0  0
  139.8987   79.4187  220.4883 H   0  0  0  0  0  0  0  0  0  0  0  0
  141.0921   82.2780  221.6286 H   0  0  0  0  0  0  0  0  0  0  0  0
  142.0874   82.6529  223.8374 H   0  0  0  0  0  0  0  0  0  0  0  0
  143.0534   80.7491  225.1233 H   0  0  0  0  0  0  0  0  0  0  0  0
  142.9842   78.4761  224.1218 H   0  0  0  0  0  0  0  0  0  0  0  0
  141.9840   78.1099  221.9115 H   0  0  0  0  0  0  0  0  0  0  0  0
  138.8974   69.6799  222.4972 H   0  0  0  0  0  0  0  0  0  0  0  0
  138.8160   68.1815  224.4811 H   0  0  0  0  0  0  0  0  0  0  0  0
  139.3689   67.7538  226.8570 H   0  0  0  0  0  0  0  0  0  0  0  0
  141.5035   70.7844  229.0419 H   0  0  0  0  0  0  0  0  0  0  0  0
  141.5428   72.2258  227.0034 H   0  0  0  0  0  0  0  0  0  0  0  0
  1  2  2  0
  2  3  1  0
  3  4  1  0
  4  5  1  0
  5  6  2  0
  5  7  1  0
  7  8  1  0
  8  9  1  0
  9 10  1  0
 10 11  1  0
 10 12  1  0
 12 13  1  0
 13 14  1  0
 14 15  1  0
 15 16  1  0
 16 17  2  0
 17 18  1  0
 18 19  2  0
 19 20  1  0
 20 21  2  0
  2 22  1  0
 22 23  2  0
 23 24  1  0
 24 25  2  0
 25 26  1  0
 26 27  2  0
 27 28  1  0
 27 29  1  0
 29 30  2  0
 30 31  1  0
 31 32  2  0
 12  7  1  0
 21 16  1  0
 32 22  1  0
 31 25  1  0
  3 33  1  0
  4 34  1  0
  4 35  1  0
  8 36  1  0
  8 37  1  0
  9 38  1  0
  9 39  1  0
 10 40  1  6
 11 41  1  0
 12 42  1  1
 13 43  1  0
 13 44  1  0
 15 45  1  0
 15 46  1  0
 17 47  1  0
 18 48  1  0
 19 49  1  0
 20 50  1  0
 21 51  1  0
 23 52  1  0
 24 53  1  0
 26 54  1  0
 29 55  1  0
 30 56  1  0
M  END
>  <smiles>  (32) 
O=C(NCC(=O)N1CC[C@H](O)[C@H]1COCc1ccccc1)c1ccc2cc(F)ccc2n1

>  <score_type>  (32) 
oracle

>  <origin>  (32) 
autodockgpu

>  <m_score__min__energy>  (32) 
-8.9700000000000006

>  <m_primary>  (32) 
energy

>  <rmsd>  (32) 
1.9658814365950474

>  <m_score__min__rmsd>  (32) 
1.9658814365950474

>  <meeko>  (32) 
{"free_energy": -8.82, "intermolecular_energy": -11.5, "internal_energy": -1.6, "cluster_size": 27, "cluster_id": 1, "rank_in_cluster": 4}

>  <energy>  (32) 
-8.03

>  <cluster_rmsd>  (32) 
1.77

>  <cluster>  (32) 
2

$$$$

     RDKit          3D

 56 59  0  0  0  0  0  0  0  0999 V2000
  139.6960   70.3980  221.1770 O   0  0  0  0  0  0  0  0  0  0  0  0
  139.6490   71.0110  222.2740 C   0  0  0  0  0  0  0  0  0  0  0  0
  139.5700   72.4260  222.3780 N   0  0  0  0  0  0  0  0  0  0  0  0
  139.5400   73.2450  221.1760 C   0  0  0  0  0  0  0  0  0  0  0  0
  139.8580   74.6510  221.5280 C   0  0  0  0  0  0  0  0  0  0  0  0
  139.5870   75.0190  222.7000 O   0  0  0  0  0  0  0  0  0  0  0  0
  140.4440   75.5010  220.5510 N   0  0  0  0  0  0  0  0  0  0  0  0
  140.1530   75.4820  219.1090 C   0  0  0  0  0  0  0  0  0  0  0  0
  141.5670   75.4760  218.5680 C   0  0  0  0  0  0  0  0  0  0  0  0
  142.1740   76.5900  219.3920 C   0  0  2  0  0  0  0  0  0  0  0  0
  143.5420   76.4480  219.5570 O   0  0  0  0  0  0  0  0  0  0  0  0
  141.4300   76.5490  220.7380 C   0  0  1  0  0  0  0  0  0  0  0  0
  140.6710   77.8710  220.8970 C   0  0  0  0  0  0  0  0  0  0  0  0
  139.6780   77.8230  221.8350 O   0  0  0  0  0  0  0  0  0  0  0  0
  139.3580   78.9870  222.4750 C   0  0  0  0  0  0  0  0  0  0  0  0
  140.4720   79.8100  222.9370 C   0  0  0  0  0  0  0  0  0  0  0  0
  140.6680   81.1400  222.6530 C   0  0  0  0  0  0  0  0  0  0  0  0
  141.7470   81.8600  223.1220 C   0  0  0  0  0  0  0  0  0  0  0  0
  142.6970   81.2510  223.9150 C   0  0  0  0  0  0  0  0  0  0  0  0
  142.5320   79.9180  224.2190 C   0  0  0  0  0  0  0  0  0  0  0  0
  141.4480   79.2130  223.7440 C   0  0  0  0  0  0  0  0  0  0  0  0
  139.6760   70.2500  223.5360 C   0  0  0  0  0  0  0  0  0  0  0  0
  139.1660   68.9610  223.6030 C   0  0  0  0  0  0  0  0  0  0  0  0
  139.2030   68.2600  224.8110 C   0  0  0  0  0  0  0  0  0  0  0  0
  139.7440   68.8280  225.9570 C   0  0  0  0  0  0  0  0  0  0  0  0
  139.7950   68.1670  227.1600 C   0  0  0  0  0  0  0  0  0  0  0  0
  140.3520   68.8100  228.2500 C   0  0  0  0  0  0  0  0  0  0  0  0
  140.4180   68.1830  229.4560 F   0  0  0  0  0  0  0  0  0  0  0  0
  140.8470   70.0860  228.1510 C   0  0  0  0  0  0  0  0  0  0  0  0
  140.7910   70.7470  226.9290 C   0  0  0  0  0  0  0  0  0  0  0  0
  140.2410   70.1180  225.8390 C   0  0  0  0  0  0  0  0  0  0  0  0
  140.1860   70.7510  224.6690 N   0  0  0  0  0  0  0  0  0  0  0  0
  139.5340   72.8940  223.3220 H   0  0  0  0  0  0  0  0  0  0  0  0
  140.2837   72.8695  220.4577 H   0  0  0  0  0  0  0  0  0  0  0  0
  138.5380   73.1974  220.7246 H   0  0  0  0  0  0  0  0  0  0  0  0
  139.5973   74.5795  218.8145 H   0  0  0  0  0  0  0  0  0  0  0  0
  139.5178   76.3047  218.7490 H   0  0  0  0  0  0  0  0  0  0  0  0
  142.0689   74.5143  218.7505 H   0  0  0  0  0  0  0  0  0  0  0  0
  141.6449   75.6125  217.4793 H   0  0  0  0  0  0  0  0  0  0  0  0
  142.0588   77.5609  218.8880 H   0  0  0  0  0  0  0  0  0  0  0  0
  143.9320   77.1950  220.0570 H   0  0  0  0  0  0  0  0  0  0  0  0
  142.0928   76.3889  221.6012 H   0  0  0  0  0  0  0  0  0  0  0  0
  141.3890   78.6510  221.1904 H   0  0  0  0  0  0  0  0  0  0  0  0
  140.1914   78.0856  219.9306 H   0  0  0  0  0  0  0  0  0  0  0  0
  138.7599   79.5954  221.7806 H   0  0  0  0  0  0  0  0  0  0  0  0
  138.8290   78.6780  223.3887 H   0  0  0  0  0  0  0  0  0  0  0  0
  139.9292   81.6551  222.0215 H   0  0  0  0  0  0  0  0  0  0  0  0
  141.8502   82.9240  222.8626 H   0  0  0  0  0  0  0  0  0  0  0  0
  143.5624   81.8144  224.2941 H   0  0  0  0  0  0  0  0  0  0  0  0
  143.2759   79.4093  224.8497 H   0  0  0  0  0  0  0  0  0  0  0  0
  141.3462   78.1496  224.0065 H   0  0  0  0  0  0  0  0  0  0  0  0
  138.7335   68.4922  222.7068 H   0  0  0  0  0  0  0  0  0  0  0  0
  138.7960   67.2390  224.8552 H   0  0  0  0  0  0  0  0  0  0  0  0
  139.3999   67.1448  227.2545 H   0  0  0  0  0  0  0  0  0  0  0  0
  141.2842   70.5815  229.0304 H   0  0  0  0  0  0  0  0  0  0  0  0
  141.1856   71.7695  226.8357 H   0  0  0  0  0  0  0  0  0  0  0  0
  1  2  2  0
  2  3  1  0
  3  4  1  0
  4  5  1  0
  5  6  2  0
  5  7  1  0
  7  8  1  0
  8  9  1  0
  9 10  1  0
 10 11  1  0
 10 12  1  0
 12 13  1  0
 13 14  1  0
 14 15  1  0
 15 16  1  0
 16 17  2  0
 17 18  1  0
 18 19  2  0
 19 20  1  0
 20 21  2  0
  2 22  1  0
 22 23  2  0
 23 24  1  0
 24 25  2  0
 25 26  1  0
 26 27  2  0
 27 28  1  0
 27 29  1  0
 29 30  2  0
 30 31  1  0
 31 32  2  0
 12  7  1  0
 21 16  1  0
 32 22  1  0
 31 25  1  0
  3 33  1  0
  4 34  1  0
  4 35  1  0
  8 36  1  0
  8 37  1  0
  9 38  1  0
  9 39  1  0
 10 40  1  6
 11 41  1  0
 12 42  1  1
 13 43  1  0
 13 44  1  0
 15 45  1  0
 15 46  1  0
 17 47  1  0
 18 48  1  0
 19 49  1  0
 20 50  1  0
 21 51  1  0
 23 52  1  0
 24 53  1  0
 26 54  1  0
 29 55  1  0
 30 56  1  0
M  END
>  <smiles>  (33) 
O=C(NCC(=O)N1CC[C@H](O)[C@H]1COCc1ccccc1)c1ccc2cc(F)ccc2n1

>  <score_type>  (33) 
oracle

>  <origin>  (33) 
autodockgpu

>  <m_score__min__energy>  (33) 
-8.9700000000000006

>  <m_primary>  (33) 
energy

>  <rmsd>  (33) 
1.7698731780194568

>  <m_score__min__rmsd>  (33) 
1.7698731780194568

>  <meeko>  (33) 
{"free_energy": -8.33, "intermolecular_energy": -11.01, "internal_energy": -2.08, "cluster_size": 27, "cluster_id": 1, "rank_in_cluster": 14}

>  <energy>  (33) 
-7.95

>  <cluster_rmsd>  (33) 
0.49

>  <cluster>  (33) 
2

$$$$

     RDKit          3D

 56 59  0  0  0  0  0  0  0  0999 V2000
  141.4170   72.2890  221.4320 O   0  0  0  0  0  0  0  0  0  0  0  0
  140.5910   72.6000  222.3270 C   0  0  0  0  0  0  0  0  0  0  0  0
  139.8870   73.8350  222.3490 N   0  0  0  0  0  0  0  0  0  0  0  0
  140.1060   74.8170  221.2990 C   0  0  0  0  0  0  0  0  0  0  0  0
  139.7300   76.1630  221.7970 C   0  0  0  0  0  0  0  0  0  0  0  0
  138.7460   76.2270  222.5770 O   0  0  0  0  0  0  0  0  0  0  0  0
  140.4800   77.2970  221.3810 N   0  0  0  0  0  0  0  0  0  0  0  0
  141.4470   78.0380  222.2070 C   0  0  0  0  0  0  0  0  0  0  0  0
  140.9680   79.4510  221.9460 C   0  0  0  0  0  0  0  0  0  0  0  0
  140.8470   79.4180  220.4390 C   0  0  2  0  0  0  0  0  0  0  0  0
  139.9100   80.3200  219.9600 O   0  0  0  0  0  0  0  0  0  0  0  0
  140.4690   77.9680  220.0950 C   0  0  1  0  0  0  0  0  0  0  0  0
  141.6060   77.3710  219.2560 C   0  0  0  0  0  0  0  0  0  0  0  0
  142.1690   76.2570  219.8110 O   0  0  0  0  0  0  0  0  0  0  0  0
  143.5260   76.1250  219.7230 C   0  0  0  0  0  0  0  0  0  0  0  0
  144.0750   74.8010  220.0020 C   0  0  0  0  0  0  0  0  0  0  0  0
  145.2030   74.5330  220.7420 C   0  0  0  0  0  0  0  0  0  0  0  0
  145.6690   73.2540  220.9660 C   0  0  0  0  0  0  0  0  0  0  0  0
  145.0020   72.1680  220.4400 C   0  0  0  0  0  0  0  0  0  0  0  0
  143.8690   72.4010  219.6940 C   0  0  0  0  0  0  0  0  0  0  0  0
  143.4140   73.6840  219.4790 C   0  0  0  0  0  0  0  0  0  0  0  0
  140.3150   71.6570  223.4260 C   0  0  0  0  0  0  0  0  0  0  0  0
  139.6240   70.4750  223.1950 C   0  0  0  0  0  0  0  0  0  0  0  0
  139.3750   69.5970  224.2520 C   0  0  0  0  0  0  0  0  0  0  0  0
  139.8070   69.8790  225.5410 C   0  0  0  0  0  0  0  0  0  0  0  0
  139.5790   69.0380  226.6020 C   0  0  0  0  0  0  0  0  0  0  0  0
  140.0460   69.4000  227.8520 C   0  0  0  0  0  0  0  0  0  0  0  0
  139.8370   68.5890  228.9240 F   0  0  0  0  0  0  0  0  0  0  0  0
  140.7270   70.5760  228.0470 C   0  0  0  0  0  0  0  0  0  0  0  0
  140.9530   71.4210  226.9670 C   0  0  0  0  0  0  0  0  0  0  0  0
  140.4940   71.0720  225.7210 C   0  0  0  0  0  0  0  0  0  0  0  0
  140.7100   71.8810  224.6860 N   0  0  0  0  0  0  0  0  0  0  0  0
  139.2030   74.0500  223.1220 H   0  0  0  0  0  0  0  0  0  0  0  0
  141.1676   74.8156  221.0109 H   0  0  0  0  0  0  0  0  0  0  0  0
  139.4892   74.5633  220.4242 H   0  0  0  0  0  0  0  0  0  0  0  0
  141.3696   77.7684  223.2706 H   0  0  0  0  0  0  0  0  0  0  0  0
  142.5049   77.8511  221.9704 H   0  0  0  0  0  0  0  0  0  0  0  0
  139.9993   79.6485  222.4283 H   0  0  0  0  0  0  0  0  0  0  0  0
  141.6247   80.2410  222.3391 H   0  0  0  0  0  0  0  0  0  0  0  0
  141.7900   79.7210  219.9605 H   0  0  0  0  0  0  0  0  0  0  0  0
  139.0060   80.1140  220.2770 H   0  0  0  0  0  0  0  0  0  0  0  0
  139.5149   77.8804  219.5546 H   0  0  0  0  0  0  0  0  0  0  0  0
  141.2046   77.1021  218.2678 H   0  0  0  0  0  0  0  0  0  0  0  0
  142.3956   78.1343  219.1936 H   0  0  0  0  0  0  0  0  0  0  0  0
  143.8221   76.3999  218.6999 H   0  0  0  0  0  0  0  0  0  0  0  0
  143.9319   76.7781  220.5096 H   0  0  0  0  0  0  0  0  0  0  0  0
  145.7592   75.3774  221.1752 H   0  0  0  0  0  0  0  0  0  0  0  0
  146.5772   73.0999  221.5672 H   0  0  0  0  0  0  0  0  0  0  0  0
  145.3652   71.1440  220.6117 H   0  0  0  0  0  0  0  0  0  0  0  0
  143.3190   71.5513  219.2634 H   0  0  0  0  0  0  0  0  0  0  0  0
  142.5046   73.8344  218.8787 H   0  0  0  0  0  0  0  0  0  0  0  0
  139.2734   70.2307  222.1814 H   0  0  0  0  0  0  0  0  0  0  0  0
  138.8258   68.6636  224.0596 H   0  0  0  0  0  0  0  0  0  0  0  0
  139.0344   68.0929  226.4601 H   0  0  0  0  0  0  0  0  0  0  0  0
  141.0906   70.8471  229.0492 H   0  0  0  0  0  0  0  0  0  0  0  0
  141.4976   72.3660  227.1099 H   0  0  0  0  0  0  0  0  0  0  0  0
  1  2  2  0
  2  3  1  0
  3  4  1  0
  4  5  1  0
  5  6  2  0
  5  7  1  0
  7  8  1  0
  8  9  1  0
  9 10  1  0
 10 11  1  0
 10 12  1  0
 12 13  1  0
 13 14  1  0
 14 15  1  0
 15 16  1  0
 16 17  2  0
 17 18  1  0
 18 19  2  0
 19 20  1  0
 20 21  2  0
  2 22  1  0
 22 23  2  0
 23 24  1  0
 24 25  2  0
 25 26  1  0
 26 27  2  0
 27 28  1  0
 27 29  1  0
 29 30  2  0
 30 31  1  0
 31 32  2  0
 12  7  1  0
 21 16  1  0
 32 22  1  0
 31 25  1  0
  3 33  1  0
  4 34  1  0
  4 35  1  0
  8 36  1  0
  8 37  1  0
  9 38  1  0
  9 39  1  0
 10 40  1  6
 11 41  1  0
 12 42  1  6
 13 43  1  0
 13 44  1  0
 15 45  1  0
 15 46  1  0
 17 47  1  0
 18 48  1  0
 19 49  1  0
 20 50  1  0
 21 51  1  0
 23 52  1  0
 24 53  1  0
 26 54  1  0
 29 55  1  0
 30 56  1  0
M  END
>  <smiles>  (34) 
O=C(NCC(=O)N1CC[C@H](O)[C@H]1COCc1ccccc1)c1ccc2cc(F)ccc2n1

>  <score_type>  (34) 
oracle

>  <origin>  (34) 
autodockgpu

>  <m_score__min__energy>  (34) 
-8.9700000000000006

>  <m_primary>  (34) 
energy

>  <rmsd>  (34) 
3.1594893028524784

>  <m_score__min__rmsd>  (34) 
3.1594893028524784

>  <meeko>  (34) 
{"free_energy": -7.74, "intermolecular_energy": -10.43, "internal_energy": -2.35, "cluster_size": 2, "cluster_id": 4, "rank_in_cluster": 2}

>  <energy>  (34) 
-7.91

>  <cluster_rmsd>  (34) 
0.69

>  <cluster>  (34) 
2

$$$$

     RDKit          3D

 56 59  0  0  0  0  0  0  0  0999 V2000
  139.1880   70.6030  221.2490 O   0  0  0  0  0  0  0  0  0  0  0  0
  139.3610   71.1910  222.3460 C   0  0  0  0  0  0  0  0  0  0  0  0
  139.4310   72.6060  222.4740 N   0  0  0  0  0  0  0  0  0  0  0  0
  139.3010   73.4510  221.2980 C   0  0  0  0  0  0  0  0  0  0  0  0
  140.0450   74.7170  221.5150 C   0  0  0  0  0  0  0  0  0  0  0  0
  139.9210   75.2620  222.6420 O   0  0  0  0  0  0  0  0  0  0  0  0
  140.8460   75.2460  220.4670 N   0  0  0  0  0  0  0  0  0  0  0  0
  141.0420   74.6350  219.1430 C   0  0  0  0  0  0  0  0  0  0  0  0
  142.5510   74.7190  219.0500 C   0  0  0  0  0  0  0  0  0  0  0  0
  142.7660   76.1570  219.4650 C   0  0  2  0  0  0  0  0  0  0  0  0
  144.0130   76.3680  220.0310 O   0  0  0  0  0  0  0  0  0  0  0  0
  141.6310   76.4650  220.4560 C   0  0  1  0  0  0  0  0  0  0  0  0
  140.7580   77.5680  219.8450 C   0  0  0  0  0  0  0  0  0  0  0  0
  139.9760   78.2160  220.7590 O   0  0  0  0  0  0  0  0  0  0  0  0
  140.3100   78.0920  222.0770 C   0  0  0  0  0  0  0  0  0  0  0  0
  141.1540   79.1420  222.6410 C   0  0  0  0  0  0  0  0  0  0  0  0
  142.5280   79.1840  222.6010 C   0  0  0  0  0  0  0  0  0  0  0  0
  143.2660   80.2080  223.1570 C   0  0  0  0  0  0  0  0  0  0  0  0
  142.6340   81.2560  223.7920 C   0  0  0  0  0  0  0  0  0  0  0  0
  141.2580   81.2450  223.8510 C   0  0  0  0  0  0  0  0  0  0  0  0
  140.5340   80.2160  223.2900 C   0  0  0  0  0  0  0  0  0  0  0  0
  139.5020   70.4030  223.5830 C   0  0  0  0  0  0  0  0  0  0  0  0
  139.0550   69.0900  223.6480 C   0  0  0  0  0  0  0  0  0  0  0  0
  139.1990   68.3630  224.8310 C   0  0  0  0  0  0  0  0  0  0  0  0
  139.7870   68.9260  225.9560 C   0  0  0  0  0  0  0  0  0  0  0  0
  139.9450   68.2400  227.1350 C   0  0  0  0  0  0  0  0  0  0  0  0
  140.5410   68.8800  228.2050 C   0  0  0  0  0  0  0  0  0  0  0  0
  140.7120   68.2280  229.3870 F   0  0  0  0  0  0  0  0  0  0  0  0
  140.9730   70.1800  228.1090 C   0  0  0  0  0  0  0  0  0  0  0  0
  140.8090   70.8670  226.9120 C   0  0  0  0  0  0  0  0  0  0  0  0
  140.2180   70.2410  225.8420 C   0  0  0  0  0  0  0  0  0  0  0  0
  140.0610   70.8980  224.6950 N   0  0  0  0  0  0  0  0  0  0  0  0
  139.5770   73.0530  223.4180 H   0  0  0  0  0  0  0  0  0  0  0  0
  139.7142   72.9280  220.4230 H   0  0  0  0  0  0  0  0  0  0  0  0
  138.2384   73.6751  221.1226 H   0  0  0  0  0  0  0  0  0  0  0  0
  140.6864   73.5945  219.1145 H   0  0  0  0  0  0  0  0  0  0  0  0
  140.4946   75.1167  218.3194 H   0  0  0  0  0  0  0  0  0  0  0  0
  143.0413   74.0179  219.7415 H   0  0  0  0  0  0  0  0  0  0  0  0
  142.9677   74.4557  218.0666 H   0  0  0  0  0  0  0  0  0  0  0  0
  142.7439   76.8273  218.5931 H   0  0  0  0  0  0  0  0  0  0  0  0
  144.0820   77.2520  220.4500 H   0  0  0  0  0  0  0  0  0  0  0  0
  141.9886   76.7738  221.4494 H   0  0  0  0  0  0  0  0  0  0  0  0
  141.4165   78.3068  219.3649 H   0  0  0  0  0  0  0  0  0  0  0  0
  140.0804   77.0826  219.1272 H   0  0  0  0  0  0  0  0  0  0  0  0
  139.3756   78.0679  222.6569 H   0  0  0  0  0  0  0  0  0  0  0  0
  140.9119   77.1733  222.1376 H   0  0  0  0  0  0  0  0  0  0  0  0
  143.0634   78.3626  222.1023 H   0  0  0  0  0  0  0  0  0  0  0  0
  144.3640   80.1885  223.0935 H   0  0  0  0  0  0  0  0  0  0  0  0
  143.2125   82.0779  224.2390 H   0  0  0  0  0  0  0  0  0  0  0  0
  140.7299   82.0691  224.3529 H   0  0  0  0  0  0  0  0  0  0  0  0
  139.4361   80.2391  223.3540 H   0  0  0  0  0  0  0  0  0  0  0  0
  138.5879   68.6232  222.7683 H   0  0  0  0  0  0  0  0  0  0  0  0
  138.8398   67.3241  224.8728 H   0  0  0  0  0  0  0  0  0  0  0  0
  139.6029   67.1985  227.2262 H   0  0  0  0  0  0  0  0  0  0  0  0
  141.4446   70.6732  228.9717 H   0  0  0  0  0  0  0  0  0  0  0  0
  141.1514   71.9085  226.8220 H   0  0  0  0  0  0  0  0  0  0  0  0
  1  2  2  0
  2  3  1  0
  3  4  1  0
  4  5  1  0
  5  6  2  0
  5  7  1  0
  7  8  1  0
  8  9  1  0
  9 10  1  0
 10 11  1  0
 10 12  1  0
 12 13  1  0
 13 14  1  0
 14 15  1  0
 15 16  1  0
 16 17  2  0
 17 18  1  0
 18 19  2  0
 19 20  1  0
 20 21  2  0
  2 22  1  0
 22 23  2  0
 23 24  1  0
 24 25  2  0
 25 26  1  0
 26 27  2  0
 27 28  1  0
 27 29  1  0
 29 30  2  0
 30 31  1  0
 31 32  2  0
 12  7  1  0
 21 16  1  0
 32 22  1  0
 31 25  1  0
  3 33  1  0
  4 34  1  0
  4 35  1  0
  8 36  1  0
  8 37  1  0
  9 38  1  0
  9 39  1  0
 10 40  1  6
 11 41  1  0
 12 42  1  1
 13 43  1  0
 13 44  1  0
 15 45  1  0
 15 46  1  0
 17 47  1  0
 18 48  1  0
 19 49  1  0
 20 50  1  0
 21 51  1  0
 23 52  1  0
 24 53  1  0
 26 54  1  0
 29 55  1  0
 30 56  1  0
M  END
>  <smiles>  (35) 
O=C(NCC(=O)N1CC[C@H](O)[C@H]1COCc1ccccc1)c1ccc2cc(F)ccc2n1

>  <score_type>  (35) 
oracle

>  <origin>  (35) 
autodockgpu

>  <m_score__min__energy>  (35) 
-8.9700000000000006

>  <m_primary>  (35) 
energy

>  <rmsd>  (35) 
1.8605734874170292

>  <m_score__min__rmsd>  (35) 
1.8605734874170292

>  <meeko>  (35) 
{"free_energy": -8.73, "intermolecular_energy": -11.41, "internal_energy": -2.1, "cluster_size": 27, "cluster_id": 1, "rank_in_cluster": 7}

>  <energy>  (35) 
-8.31

>  <cluster_rmsd>  (35) 
0.0

>  <cluster>  (35) 
3

$$$$

     RDKit          3D

 56 59  0  0  0  0  0  0  0  0999 V2000
  138.9250   74.9090  221.6660 O   0  0  0  0  0  0  0  0  0  0  0  0
  140.0780   75.3660  221.8720 C   0  0  0  0  0  0  0  0  0  0  0  0
  141.2660   74.6110  221.6740 N   0  0  0  0  0  0  0  0  0  0  0  0
  141.1870   73.2360  221.2100 C   0  0  0  0  0  0  0  0  0  0  0  0
  141.6000   73.1720  219.7860 C   0  0  0  0  0  0  0  0  0  0  0  0
  140.7020   72.9140  218.9440 O   0  0  0  0  0  0  0  0  0  0  0  0
  142.9600   73.3990  219.4400 N   0  0  0  0  0  0  0  0  0  0  0  0
  143.5880   73.0630  218.1530 C   0  0  0  0  0  0  0  0  0  0  0  0
  144.8290   72.3550  218.6580 C   0  0  0  0  0  0  0  0  0  0  0  0
  145.2950   73.3440  219.7030 C   0  0  2  0  0  0  0  0  0  0  0  0
  146.0320   72.7470  220.7120 O   0  0  0  0  0  0  0  0  0  0  0  0
  144.0100   73.9940  220.2450 C   0  0  1  0  0  0  0  0  0  0  0  0
  144.0590   75.4890  219.9040 C   0  0  0  0  0  0  0  0  0  0  0  0
  142.8810   76.1410  220.1330 O   0  0  0  0  0  0  0  0  0  0  0  0
  142.2280   76.6630  219.0530 C   0  0  0  0  0  0  0  0  0  0  0  0
  142.0750   78.1150  219.0170 C   0  0  0  0  0  0  0  0  0  0  0  0
  141.1480   78.8480  219.7190 C   0  0  0  0  0  0  0  0  0  0  0  0
  141.0570   80.2220  219.6370 C   0  0  0  0  0  0  0  0  0  0  0  0
  141.9180   80.9290  218.8230 C   0  0  0  0  0  0  0  0  0  0  0  0
  142.8590   80.2250  218.1060 C   0  0  0  0  0  0  0  0  0  0  0  0
  142.9380   78.8530  218.1980 C   0  0  0  0  0  0  0  0  0  0  0  0
  140.2400   76.7530  222.3450 C   0  0  0  0  0  0  0  0  0  0  0  0
  139.1370   77.5250  222.6810 C   0  0  0  0  0  0  0  0  0  0  0  0
  139.3160   78.8370  223.1270 C   0  0  0  0  0  0  0  0  0  0  0  0
  140.5840   79.3920  223.2430 C   0  0  0  0  0  0  0  0  0  0  0  0
  140.7950   80.6780  223.6770 C   0  0  0  0  0  0  0  0  0  0  0  0
  142.0920   81.1480  223.7620 C   0  0  0  0  0  0  0  0  0  0  0  0
  142.3350   82.4170  224.1880 F   0  0  0  0  0  0  0  0  0  0  0  0
  143.1620   80.3580  223.4210 C   0  0  0  0  0  0  0  0  0  0  0  0
  142.9390   79.0580  222.9820 C   0  0  0  0  0  0  0  0  0  0  0  0
  141.6540   78.5800  222.8950 C   0  0  0  0  0  0  0  0  0  0  0  0
  141.4390   77.3350  222.4750 N   0  0  0  0  0  0  0  0  0  0  0  0
  142.2120   75.0390  221.8610 H   0  0  0  0  0  0  0  0  0  0  0  0
  141.8555   72.6056  221.8147 H   0  0  0  0  0  0  0  0  0  0  0  0
  140.1533   72.8734  221.3095 H   0  0  0  0  0  0  0  0  0  0  0  0
  142.9538   72.3983  217.5480 H   0  0  0  0  0  0  0  0  0  0  0  0
  143.7750   73.9174  217.4859 H   0  0  0  0  0  0  0  0  0  0  0  0
  144.5884   71.3773  219.1010 H   0  0  0  0  0  0  0  0  0  0  0  0
  145.5727   72.1182  217.8828 H   0  0  0  0  0  0  0  0  0  0  0  0
  145.9794   74.0862  219.2663 H   0  0  0  0  0  0  0  0  0  0  0  0
  145.6320   71.9030  221.0090 H   0  0  0  0  0  0  0  0  0  0  0  0
  143.8726   73.8580  221.3279 H   0  0  0  0  0  0  0  0  0  0  0  0
  144.8419   75.9599  220.5166 H   0  0  0  0  0  0  0  0  0  0  0  0
  144.2670   75.5675  218.8267 H   0  0  0  0  0  0  0  0  0  0  0  0
  142.7830   76.3640  218.1516 H   0  0  0  0  0  0  0  0  0  0  0  0
  141.2039   76.2662  219.1152 H   0  0  0  0  0  0  0  0  0  0  0  0
  140.4462   78.3142  220.3766 H   0  0  0  0  0  0  0  0  0  0  0  0
  140.2948   80.7563  220.2231 H   0  0  0  0  0  0  0  0  0  0  0  0
  141.8543   82.0247  218.7490 H   0  0  0  0  0  0  0  0  0  0  0  0
  143.5575   80.7657  217.4505 H   0  0  0  0  0  0  0  0  0  0  0  0
  143.7014   78.3216  217.6108 H   0  0  0  0  0  0  0  0  0  0  0  0
  138.1239   77.1050  222.5964 H   0  0  0  0  0  0  0  0  0  0  0  0
  138.4360   79.4418  223.3913 H   0  0  0  0  0  0  0  0  0  0  0  0
  139.9469   81.3223  223.9520 H   0  0  0  0  0  0  0  0  0  0  0  0
  144.1870   80.7505  223.4946 H   0  0  0  0  0  0  0  0  0  0  0  0
  143.7876   78.4150  222.7055 H   0  0  0  0  0  0  0  0  0  0  0  0
  1  2  2  0
  2  3  1  0
  3  4  1  0
  4  5  1  0
  5  6  2  0
  5  7  1  0
  7  8  1  0
  8  9  1  0
  9 10  1  0
 10 11  1  0
 10 12  1  0
 12 13  1  0
 13 14  1  0
 14 15  1  0
 15 16  1  0
 16 17  2  0
 17 18  1  0
 18 19  2  0
 19 20  1  0
 20 21  2  0
  2 22  1  0
 22 23  2  0
 23 24  1  0
 24 25  2  0
 25 26  1  0
 26 27  2  0
 27 28  1  0
 27 29  1  0
 29 30  2  0
 30 31  1  0
 31 32  2  0
 12  7  1  0
 21 16  1  0
 32 22  1  0
 31 25  1  0
  3 33  1  0
  4 34  1  0
  4 35  1  0
  8 36  1  0
  8 37  1  0
  9 38  1  0
  9 39  1  0
 10 40  1  6
 11 41  1  0
 12 42  1  1
 13 43  1  0
 13 44  1  0
 15 45  1  0
 15 46  1  0
 17 47  1  0
 18 48  1  0
 19 49  1  0
 20 50  1  0
 21 51  1  0
 23 52  1  0
 24 53  1  0
 26 54  1  0
 29 55  1  0
 30 56  1  0
M  END
>  <smiles>  (36) 
O=C(NCC(=O)N1CC[C@H](O)[C@H]1COCc1ccccc1)c1ccc2cc(F)ccc2n1

>  <score_type>  (36) 
oracle

>  <origin>  (36) 
autodockgpu

>  <m_score__min__energy>  (36) 
-8.9700000000000006

>  <m_primary>  (36) 
energy

>  <rmsd>  (36) 
7.674185698545913

>  <m_score__min__rmsd>  (36) 
7.674185698545913

>  <meeko>  (36) 
{"free_energy": -6.23, "intermolecular_energy": -8.92, "internal_energy": -3.8, "cluster_size": 5, "cluster_id": 5, "rank_in_cluster": 2}

>  <energy>  (36) 
-8.31

>  <cluster_rmsd>  (36) 
1.27

>  <cluster>  (36) 
3

$$$$

     RDKit          3D

 56 59  0  0  0  0  0  0  0  0999 V2000
  138.8120   70.3120  221.2650 O   0  0  0  0  0  0  0  0  0  0  0  0
  139.4420   70.8280  222.2230 C   0  0  0  0  0  0  0  0  0  0  0  0
  140.0610   72.1060  222.1540 N   0  0  0  0  0  0  0  0  0  0  0  0
  139.9860   72.8880  220.9300 C   0  0  0  0  0  0  0  0  0  0  0  0
  140.3350   74.3000  221.2250 C   0  0  0  0  0  0  0  0  0  0  0  0
  139.9860   74.7510  222.3450 O   0  0  0  0  0  0  0  0  0  0  0  0
  141.0350   75.0650  220.2510 N   0  0  0  0  0  0  0  0  0  0  0  0
  141.2460   74.6820  218.8460 C   0  0  0  0  0  0  0  0  0  0  0  0
  142.7330   74.9490  218.7360 C   0  0  0  0  0  0  0  0  0  0  0  0
  142.8040   76.3260  219.3570 C   0  0  2  0  0  0  0  0  0  0  0  0
  144.0410   76.5930  219.9220 O   0  0  0  0  0  0  0  0  0  0  0  0
  141.6800   76.3540  220.4070 C   0  0  1  0  0  0  0  0  0  0  0  0
  140.6700   77.4280  219.9870 C   0  0  0  0  0  0  0  0  0  0  0  0
  139.9090   77.8990  221.0190 O   0  0  0  0  0  0  0  0  0  0  0  0
  140.4290   77.8070  222.2790 C   0  0  0  0  0  0  0  0  0  0  0  0
  141.1010   78.9950  222.7990 C   0  0  0  0  0  0  0  0  0  0  0  0
  140.4890   80.0820  223.3780 C   0  0  0  0  0  0  0  0  0  0  0  0
  141.1850   81.1760  223.8470 C   0  0  0  0  0  0  0  0  0  0  0  0
  142.5600   81.2200  223.7490 C   0  0  0  0  0  0  0  0  0  0  0  0
  143.2050   80.1480  223.1740 C   0  0  0  0  0  0  0  0  0  0  0  0
  142.4960   79.0620  222.7100 C   0  0  0  0  0  0  0  0  0  0  0  0
  139.5620   70.0970  223.4970 C   0  0  0  0  0  0  0  0  0  0  0  0
  139.0970   68.7950  223.6180 C   0  0  0  0  0  0  0  0  0  0  0  0
  139.2220   68.1220  224.8360 C   0  0  0  0  0  0  0  0  0  0  0  0
  139.8070   68.7310  225.9390 C   0  0  0  0  0  0  0  0  0  0  0  0
  139.9460   68.0990  227.1500 C   0  0  0  0  0  0  0  0  0  0  0  0
  140.5410   68.7810  228.1940 C   0  0  0  0  0  0  0  0  0  0  0  0
  140.6930   68.1830  229.4070 F   0  0  0  0  0  0  0  0  0  0  0  0
  140.9900   70.0690  228.0410 C   0  0  0  0  0  0  0  0  0  0  0  0
  140.8460   70.7020  226.8120 C   0  0  0  0  0  0  0  0  0  0  0  0
  140.2560   70.0330  225.7670 C   0  0  0  0  0  0  0  0  0  0  0  0
  140.1170   70.6370  224.5890 N   0  0  0  0  0  0  0  0  0  0  0  0
  140.5780   72.4980  222.9850 H   0  0  0  0  0  0  0  0  0  0  0  0
  140.6926   72.4820  220.1912 H   0  0  0  0  0  0  0  0  0  0  0  0
  138.9646   72.8390  220.5246 H   0  0  0  0  0  0  0  0  0  0  0  0
  141.0047   73.6236  218.6683 H   0  0  0  0  0  0  0  0  0  0  0  0
  140.6189   75.2146  218.1158 H   0  0  0  0  0  0  0  0  0  0  0  0
  143.3220   74.2146  219.3049 H   0  0  0  0  0  0  0  0  0  0  0  0
  143.1399   74.8810  217.7163 H   0  0  0  0  0  0  0  0  0  0  0  0
  142.6752   77.1097  218.5959 H   0  0  0  0  0  0  0  0  0  0  0  0
  143.9660   77.1510  220.7240 H   0  0  0  0  0  0  0  0  0  0  0  0
  142.0380   76.5523  221.4280 H   0  0  0  0  0  0  0  0  0  0  0  0
  141.2227   78.2724  219.5493 H   0  0  0  0  0  0  0  0  0  0  0  0
  139.9822   76.9591  219.2679 H   0  0  0  0  0  0  0  0  0  0  0  0
  139.6030   77.5646  222.9638 H   0  0  0  0  0  0  0  0  0  0  0  0
  141.2119   77.0371  222.2134 H   0  0  0  0  0  0  0  0  0  0  0  0
  139.3930   80.0785  223.4713 H   0  0  0  0  0  0  0  0  0  0  0  0
  140.6412   82.0174  224.3013 H   0  0  0  0  0  0  0  0  0  0  0  0
  143.1257   82.0874  224.1199 H   0  0  0  0  0  0  0  0  0  0  0  0
  144.3013   80.1590  223.0839 H   0  0  0  0  0  0  0  0  0  0  0  0
  143.0426   78.2223  222.2560 H   0  0  0  0  0  0  0  0  0  0  0  0
  138.6310   68.2939  222.7567 H   0  0  0  0  0  0  0  0  0  0  0  0
  138.8502   67.0904  224.9232 H   0  0  0  0  0  0  0  0  0  0  0  0
  139.5897   67.0673  227.2867 H   0  0  0  0  0  0  0  0  0  0  0  0
  141.4601   70.5961  228.8843 H   0  0  0  0  0  0  0  0  0  0  0  0
  141.2027   71.7337  226.6766 H   0  0  0  0  0  0  0  0  0  0  0  0
  1  2  2  0
  2  3  1  0
  3  4  1  0
  4  5  1  0
  5  6  2  0
  5  7  1  0
  7  8  1  0
  8  9  1  0
  9 10  1  0
 10 11  1  0
 10 12  1  0
 12 13  1  0
 13 14  1  0
 14 15  1  0
 15 16  1  0
 16 17  2  0
 17 18  1  0
 18 19  2  0
 19 20  1  0
 20 21  2  0
  2 22  1  0
 22 23  2  0
 23 24  1  0
 24 25  2  0
 25 26  1  0
 26 27  2  0
 27 28  1  0
 27 29  1  0
 29 30  2  0
 30 31  1  0
 31 32  2  0
 12  7  1  0
 21 16  1  0
 32 22  1  0
 31 25  1  0
  3 33  1  0
  4 34  1  0
  4 35  1  0
  8 36  1  0
  8 37  1  0
  9 38  1  0
  9 39  1  0
 10 40  1  6
 11 41  1  0
 12 42  1  1
 13 43  1  0
 13 44  1  0
 15 45  1  0
 15 46  1  0
 17 47  1  0
 18 48  1  0
 19 49  1  0
 20 50  1  0
 21 51  1  0
 23 52  1  0
 24 53  1  0
 26 54  1  0
 29 55  1  0
 30 56  1  0
M  END
>  <smiles>  (37) 
O=C(NCC(=O)N1CC[C@H](O)[C@H]1COCc1ccccc1)c1ccc2cc(F)ccc2n1

>  <score_type>  (37) 
oracle

>  <origin>  (37) 
autodockgpu

>  <m_score__min__energy>  (37) 
-8.9700000000000006

>  <m_primary>  (37) 
energy

>  <rmsd>  (37) 
1.9900438332291337

>  <m_score__min__rmsd>  (37) 
1.9900438332291337

>  <meeko>  (37) 
{"free_energy": -8.41, "intermolecular_energy": -11.1, "internal_energy": -2.06, "cluster_size": 27, "cluster_id": 1, "rank_in_cluster": 12}

>  <energy>  (37) 
-8.19

>  <cluster_rmsd>  (37) 
0.8

>  <cluster>  (37) 
3

$$$$

     RDKit          3D

 56 59  0  0  0  0  0  0  0  0999 V2000
  135.9770   71.3420  222.7490 O   0  0  0  0  0  0  0  0  0  0  0  0
  136.4050   72.4730  223.0920 C   0  0  0  0  0  0  0  0  0  0  0  0
  137.6340   73.0170  222.6290 N   0  0  0  0  0  0  0  0  0  0  0  0
  138.4680   72.2580  221.7110 C   0  0  0  0  0  0  0  0  0  0  0  0
  139.1610   71.1760  222.4530 C   0  0  0  0  0  0  0  0  0  0  0  0
  140.2640   71.4660  222.9830 O   0  0  0  0  0  0  0  0  0  0  0  0
  138.5630   69.8890  222.5330 N   0  0  0  0  0  0  0  0  0  0  0  0
  138.4200   68.9370  221.4200 C   0  0  0  0  0  0  0  0  0  0  0  0
  136.9590   68.5760  221.5870 C   0  0  0  0  0  0  0  0  0  0  0  0
  136.9190   68.3000  223.0730 C   0  0  2  0  0  0  0  0  0  0  0  0
  135.6640   68.5130  223.6220 O   0  0  0  0  0  0  0  0  0  0  0  0
  137.9750   69.2350  223.6870 C   0  0  1  0  0  0  0  0  0  0  0  0
  139.0630   68.3620  224.3240 C   0  0  0  0  0  0  0  0  0  0  0  0
  138.8260   68.0620  225.6360 O   0  0  0  0  0  0  0  0  0  0  0  0
  139.8580   68.2200  226.5160 C   0  0  0  0  0  0  0  0  0  0  0  0
  140.2990   69.5890  226.7710 C   0  0  0  0  0  0  0  0  0  0  0  0
  141.0080   70.3850  225.9020 C   0  0  0  0  0  0  0  0  0  0  0  0
  141.3960   71.6730  226.2080 C   0  0  0  0  0  0  0  0  0  0  0  0
  141.0780   72.2230  227.4320 C   0  0  0  0  0  0  0  0  0  0  0  0
  140.3690   71.4520  228.3260 C   0  0  0  0  0  0  0  0  0  0  0  0
  139.9880   70.1680  228.0060 C   0  0  0  0  0  0  0  0  0  0  0  0
  135.6160   73.3020  224.0200 C   0  0  0  0  0  0  0  0  0  0  0  0
  135.7870   74.6790  224.0670 C   0  0  0  0  0  0  0  0  0  0  0  0
  135.0270   75.4440  224.9550 C   0  0  0  0  0  0  0  0  0  0  0  0
  134.0950   74.8550  225.7990 C   0  0  0  0  0  0  0  0  0  0  0  0
  133.3320   75.5770  226.6840 C   0  0  0  0  0  0  0  0  0  0  0  0
  132.4280   74.9070  227.4860 C   0  0  0  0  0  0  0  0  0  0  0  0
  131.6580   75.5930  228.3730 F   0  0  0  0  0  0  0  0  0  0  0  0
  132.2830   73.5440  227.4150 C   0  0  0  0  0  0  0  0  0  0  0  0
  133.0590   72.8210  226.5170 C   0  0  0  0  0  0  0  0  0  0  0  0
  133.9610   73.4760  225.7140 C   0  0  0  0  0  0  0  0  0  0  0  0
  134.7050   72.7850  224.8530 N   0  0  0  0  0  0  0  0  0  0  0  0
  137.9510   73.9720  222.9450 H   0  0  0  0  0  0  0  0  0  0  0  0
  137.8395   71.8179  220.9228 H   0  0  0  0  0  0  0  0  0  0  0  0
  139.2135   72.9259  221.2548 H   0  0  0  0  0  0  0  0  0  0  0  0
  138.6172   69.4105  220.4469 H   0  0  0  0  0  0  0  0  0  0  0  0
  139.1177   68.0868  221.4382 H   0  0  0  0  0  0  0  0  0  0  0  0
  136.2989   69.4111  221.3100 H   0  0  0  0  0  0  0  0  0  0  0  0
  136.6141   67.7450  220.9542 H   0  0  0  0  0  0  0  0  0  0  0  0
  137.1346   67.2420  223.2833 H   0  0  0  0  0  0  0  0  0  0  0  0
  135.3130   69.4010  223.4020 H   0  0  0  0  0  0  0  0  0  0  0  0
  137.5647   69.9310  224.4335 H   0  0  0  0  0  0  0  0  0  0  0  0
  139.1288   67.4208  223.7586 H   0  0  0  0  0  0  0  0  0  0  0  0
  139.9997   68.9377  224.2891 H   0  0  0  0  0  0  0  0  0  0  0  0
  139.5457   67.7859  227.4773 H   0  0  0  0  0  0  0  0  0  0  0  0
  140.7184   67.7222  226.0449 H   0  0  0  0  0  0  0  0  0  0  0  0
  141.2782   69.9757  224.9174 H   0  0  0  0  0  0  0  0  0  0  0  0
  141.9615   72.2639  225.4724 H   0  0  0  0  0  0  0  0  0  0  0  0
  141.3822   73.2489  227.6871 H   0  0  0  0  0  0  0  0  0  0  0  0
  140.1034   71.8675  229.3093 H   0  0  0  0  0  0  0  0  0  0  0  0
  139.4222   69.5799  228.7436 H   0  0  0  0  0  0  0  0  0  0  0  0
  136.5192   75.1665  223.4065 H   0  0  0  0  0  0  0  0  0  0  0  0
  135.1697   76.5343  224.9862 H   0  0  0  0  0  0  0  0  0  0  0  0
  133.4388   76.6696  226.7531 H   0  0  0  0  0  0  0  0  0  0  0  0
  131.5590   73.0285  228.0631 H   0  0  0  0  0  0  0  0  0  0  0  0
  132.9514   71.7284  226.4494 H   0  0  0  0  0  0  0  0  0  0  0  0
  1  2  2  0
  2  3  1  0
  3  4  1  0
  4  5  1  0
  5  6  2  0
  5  7  1  0
  7  8  1  0
  8  9  1  0
  9 10  1  0
 10 11  1  0
 10 12  1  0
 12 13  1  0
 13 14  1  0
 14 15  1  0
 15 16  1  0
 16 17  2  0
 17 18  1  0
 18 19  2  0
 19 20  1  0
 20 21  2  0
  2 22  1  0
 22 23  2  0
 23 24  1  0
 24 25  2  0
 25 26  1  0
 26 27  2  0
 27 28  1  0
 27 29  1  0
 29 30  2  0
 30 31  1  0
 31 32  2  0
 12  7  1  0
 21 16  1  0
 32 22  1  0
 31 25  1  0
  3 33  1  0
  4 34  1  0
  4 35  1  0
  8 36  1  0
  8 37  1  0
  9 38  1  0
  9 39  1  0
 10 40  1  6
 11 41  1  0
 12 42  1  1
 13 43  1  0
 13 44  1  0
 15 45  1  0
 15 46  1  0
 17 47  1  0
 18 48  1  0
 19 49  1  0
 20 50  1  0
 21 51  1  0
 23 52  1  0
 24 53  1  0
 26 54  1  0
 29 55  1  0
 30 56  1  0
M  END
>  <smiles>  (38) 
O=C(NCC(=O)N1CC[C@H](O)[C@H]1COCc1ccccc1)c1ccc2cc(F)ccc2n1

>  <score_type>  (38) 
oracle

>  <origin>  (38) 
autodockgpu

>  <m_score__min__energy>  (38) 
-8.9700000000000006

>  <m_primary>  (38) 
energy

>  <rmsd>  (38) 
7.939486106715027

>  <m_score__min__rmsd>  (38) 
7.939486106715027

>  <meeko>  (38) 
{"free_energy": -7.76, "intermolecular_energy": -10.45, "internal_energy": -2.54, "cluster_size": 5, "cluster_id": 3, "rank_in_cluster": 4}

>  <energy>  (38) 
-7.76

>  <cluster_rmsd>  (38) 
1.99

>  <cluster>  (38) 
3

$$$$

     RDKit          3D

 56 59  0  0  0  0  0  0  0  0999 V2000
  138.3770   75.1780  222.3270 O   0  0  0  0  0  0  0  0  0  0  0  0
  139.5090   75.6630  222.0720 C   0  0  0  0  0  0  0  0  0  0  0  0
  140.5160   74.9640  221.3520 N   0  0  0  0  0  0  0  0  0  0  0  0
  140.2640   73.6160  220.8680 C   0  0  0  0  0  0  0  0  0  0  0  0
  141.5070   72.8130  220.9750 C   0  0  0  0  0  0  0  0  0  0  0  0
  141.4740   71.8120  221.7350 O   0  0  0  0  0  0  0  0  0  0  0  0
  142.6560   73.1990  220.2300 N   0  0  0  0  0  0  0  0  0  0  0  0
  143.3200   72.3910  219.1950 C   0  0  0  0  0  0  0  0  0  0  0  0
  144.7550   72.5200  219.6600 C   0  0  0  0  0  0  0  0  0  0  0  0
  144.8320   74.0150  219.8820 C   0  0  2  0  0  0  0  0  0  0  0  0
  145.7800   74.3660  220.8300 O   0  0  0  0  0  0  0  0  0  0  0  0
  143.4150   74.4320  220.3130 C   0  0  1  0  0  0  0  0  0  0  0  0
  142.8610   75.3850  219.2470 C   0  0  0  0  0  0  0  0  0  0  0  0
  142.2130   76.4700  219.7660 O   0  0  0  0  0  0  0  0  0  0  0  0
  142.5390   77.6990  219.2650 C   0  0  0  0  0  0  0  0  0  0  0  0
  141.6250   78.7950  219.5730 C   0  0  0  0  0  0  0  0  0  0  0  0
  140.2540   78.7120  219.6340 C   0  0  0  0  0  0  0  0  0  0  0  0
  139.4470   79.7910  219.9290 C   0  0  0  0  0  0  0  0  0  0  0  0
  140.0030   81.0280  220.1800 C   0  0  0  0  0  0  0  0  0  0  0  0
  141.3740   81.1460  220.1270 C   0  0  0  0  0  0  0  0  0  0  0  0
  142.1670   80.0600  219.8320 C   0  0  0  0  0  0  0  0  0  0  0  0
  139.8390   77.0240  222.5300 C   0  0  0  0  0  0  0  0  0  0  0  0
  138.8410   77.9150  222.8990 C   0  0  0  0  0  0  0  0  0  0  0  0
  139.1790   79.2000  223.3300 C   0  0  0  0  0  0  0  0  0  0  0  0
  140.5040   79.6110  223.3990 C   0  0  0  0  0  0  0  0  0  0  0  0
  140.8710   80.8660  223.8180 C   0  0  0  0  0  0  0  0  0  0  0  0
  142.2140   81.1900  223.8560 C   0  0  0  0  0  0  0  0  0  0  0  0
  142.6100   82.4260  224.2660 F   0  0  0  0  0  0  0  0  0  0  0  0
  143.1770   80.2860  223.4840 C   0  0  0  0  0  0  0  0  0  0  0  0
  142.7970   79.0180  223.0610 C   0  0  0  0  0  0  0  0  0  0  0  0
  141.4650   78.6850  223.0200 C   0  0  0  0  0  0  0  0  0  0  0  0
  141.0990   77.4700  222.6160 N   0  0  0  0  0  0  0  0  0  0  0  0
  141.4510   75.4140  221.1630 H   0  0  0  0  0  0  0  0  0  0  0  0
  139.4731   73.1504  221.4743 H   0  0  0  0  0  0  0  0  0  0  0  0
  139.9429   73.6573  219.8167 H   0  0  0  0  0  0  0  0  0  0  0  0
  142.9770   71.3459  219.2074 H   0  0  0  0  0  0  0  0  0  0  0  0
  143.1328   72.7110  218.1594 H   0  0  0  0  0  0  0  0  0  0  0  0
  144.9336   71.9604  220.5900 H   0  0  0  0  0  0  0  0  0  0  0  0
  145.5039   72.1183  218.9616 H   0  0  0  0  0  0  0  0  0  0  0  0
  145.1540   74.5339  218.9671 H   0  0  0  0  0  0  0  0  0  0  0  0
  146.5190   74.8770  220.4390 H   0  0  0  0  0  0  0  0  0  0  0  0
  143.3802   74.9110  221.3026 H   0  0  0  0  0  0  0  0  0  0  0  0
  143.6992   75.7426  218.6310 H   0  0  0  0  0  0  0  0  0  0  0  0
  142.1224   74.8185  218.6608 H   0  0  0  0  0  0  0  0  0  0  0  0
  143.5290   77.9689  219.6614 H   0  0  0  0  0  0  0  0  0  0  0  0
  142.4978   77.5862  218.1716 H   0  0  0  0  0  0  0  0  0  0  0  0
  139.7784   77.7396  219.4384 H   0  0  0  0  0  0  0  0  0  0  0  0
  138.3549   79.6644  219.9642 H   0  0  0  0  0  0  0  0  0  0  0  0
  139.3693   81.8956  220.4158 H   0  0  0  0  0  0  0  0  0  0  0  0
  141.8422   82.1219  220.3232 H   0  0  0  0  0  0  0  0  0  0  0  0
  143.2588   80.1898  219.7988 H   0  0  0  0  0  0  0  0  0  0  0  0
  137.7853   77.6097  222.8521 H   0  0  0  0  0  0  0  0  0  0  0  0
  138.3811   79.8994  223.6201 H   0  0  0  0  0  0  0  0  0  0  0  0
  140.1094   81.6007  224.1182 H   0  0  0  0  0  0  0  0  0  0  0  0
  144.2410   80.5628  223.5203 H   0  0  0  0  0  0  0  0  0  0  0  0
  143.5594   78.2843  222.7604 H   0  0  0  0  0  0  0  0  0  0  0  0
  1  2  2  0
  2  3  1  0
  3  4  1  0
  4  5  1  0
  5  6  2  0
  5  7  1  0
  7  8  1  0
  8  9  1  0
  9 10  1  0
 10 11  1  0
 10 12  1  0
 12 13  1  0
 13 14  1  0
 14 15  1  0
 15 16  1  0
 16 17  2  0
 17 18  1  0
 18 19  2  0
 19 20  1  0
 20 21  2  0
  2 22  1  0
 22 23  2  0
 23 24  1  0
 24 25  2  0
 25 26  1  0
 26 27  2  0
 27 28  1  0
 27 29  1  0
 29 30  2  0
 30 31  1  0
 31 32  2  0
 12  7  1  0
 21 16  1  0
 32 22  1  0
 31 25  1  0
  3 33  1  0
  4 34  1  0
  4 35  1  0
  8 36  1  0
  8 37  1  0
  9 38  1  0
  9 39  1  0
 10 40  1  6
 11 41  1  0
 12 42  1  1
 13 43  1  0
 13 44  1  0
 15 45  1  0
 15 46  1  0
 17 47  1  0
 18 48  1  0
 19 49  1  0
 20 50  1  0
 21 51  1  0
 23 52  1  0
 24 53  1  0
 26 54  1  0
 29 55  1  0
 30 56  1  0
M  END
>  <smiles>  (39) 
O=C(NCC(=O)N1CC[C@H](O)[C@H]1COCc1ccccc1)c1ccc2cc(F)ccc2n1

>  <score_type>  (39) 
oracle

>  <origin>  (39) 
autodockgpu

>  <m_score__min__energy>  (39) 
-8.9700000000000006

>  <m_primary>  (39) 
energy

>  <rmsd>  (39) 
7.6325406798273185

>  <m_score__min__rmsd>  (39) 
7.6325406798273185

>  <meeko>  (39) 
{"free_energy": -5.95, "intermolecular_energy": -8.63, "internal_energy": -3.97, "cluster_size": 5, "cluster_id": 5, "rank_in_cluster": 5}

>  <energy>  (39) 
-7.48

>  <cluster_rmsd>  (39) 
0.95

>  <cluster>  (39) 
3

$$$$

     RDKit          3D

 56 59  0  0  0  0  0  0  0  0999 V2000
  139.2000   70.8070  221.0740 O   0  0  0  0  0  0  0  0  0  0  0  0
  139.3580   71.3910  222.1750 C   0  0  0  0  0  0  0  0  0  0  0  0
  139.4120   72.8060  222.3100 N   0  0  0  0  0  0  0  0  0  0  0  0
  139.2830   73.6550  221.1370 C   0  0  0  0  0  0  0  0  0  0  0  0
  139.9670   74.9480  221.3870 C   0  0  0  0  0  0  0  0  0  0  0  0
  139.9700   75.3710  222.5720 O   0  0  0  0  0  0  0  0  0  0  0  0
  140.5760   75.6390  220.3040 N   0  0  0  0  0  0  0  0  0  0  0  0
  140.4790   75.2660  218.8830 C   0  0  0  0  0  0  0  0  0  0  0  0
  141.9430   75.3380  218.5050 C   0  0  0  0  0  0  0  0  0  0  0  0
  142.3090   76.6780  219.1040 C   0  0  2  0  0  0  0  0  0  0  0  0
  143.6510   76.7660  219.4360 O   0  0  0  0  0  0  0  0  0  0  0  0
  141.4060   76.8280  220.3400 C   0  0  1  0  0  0  0  0  0  0  0  0
  140.4890   78.0350  220.1100 C   0  0  0  0  0  0  0  0  0  0  0  0
  141.0130   78.9680  219.2610 O   0  0  0  0  0  0  0  0  0  0  0  0
  142.0220   79.7570  219.7360 C   0  0  0  0  0  0  0  0  0  0  0  0
  141.9650   80.1130  221.1520 C   0  0  0  0  0  0  0  0  0  0  0  0
  142.5510   79.4190  222.1840 C   0  0  0  0  0  0  0  0  0  0  0  0
  142.4560   79.8090  223.5030 C   0  0  0  0  0  0  0  0  0  0  0  0
  141.7480   80.9430  223.8440 C   0  0  0  0  0  0  0  0  0  0  0  0
  141.1470   81.6610  222.8340 C   0  0  0  0  0  0  0  0  0  0  0  0
  141.2520   81.2590  221.5210 C   0  0  0  0  0  0  0  0  0  0  0  0
  139.4960   70.5980  223.4100 C   0  0  0  0  0  0  0  0  0  0  0  0
  139.0780   69.2760  223.4590 C   0  0  0  0  0  0  0  0  0  0  0  0
  139.2190   68.5440  224.6410 C   0  0  0  0  0  0  0  0  0  0  0  0
  139.7750   69.1140  225.7780 C   0  0  0  0  0  0  0  0  0  0  0  0
  139.9290   68.4240  226.9560 C   0  0  0  0  0  0  0  0  0  0  0  0
  140.4930   69.0710  228.0390 C   0  0  0  0  0  0  0  0  0  0  0  0
  140.6590   68.4150  229.2190 F   0  0  0  0  0  0  0  0  0  0  0  0
  140.8970   70.3800  227.9580 C   0  0  0  0  0  0  0  0  0  0  0  0
  140.7370   71.0720  226.7620 C   0  0  0  0  0  0  0  0  0  0  0  0
  140.1790   70.4380  225.6790 C   0  0  0  0  0  0  0  0  0  0  0  0
  140.0250   71.0990  224.5340 N   0  0  0  0  0  0  0  0  0  0  0  0
  139.5460   73.2500  223.2570 H   0  0  0  0  0  0  0  0  0  0  0  0
  139.7441   73.1573  220.2712 H   0  0  0  0  0  0  0  0  0  0  0  0
  138.2180   73.8366  220.9301 H   0  0  0  0  0  0  0  0  0  0  0  0
  140.0707   74.2531  218.7516 H   0  0  0  0  0  0  0  0  0  0  0  0
  139.8081   75.8944  218.2788 H   0  0  0  0  0  0  0  0  0  0  0  0
  142.5211   74.5184  218.9567 H   0  0  0  0  0  0  0  0  0  0  0  0
  142.1465   75.2431  217.4282 H   0  0  0  0  0  0  0  0  0  0  0  0
  142.1525   77.4901  218.3787 H   0  0  0  0  0  0  0  0  0  0  0  0
  143.8140   77.4340  220.1350 H   0  0  0  0  0  0  0  0  0  0  0  0
  141.9656   76.9527  221.2788 H   0  0  0  0  0  0  0  0  0  0  0  0
  139.5398   77.6745  219.6869 H   0  0  0  0  0  0  0  0  0  0  0  0
  140.3538   78.5267  221.0846 H   0  0  0  0  0  0  0  0  0  0  0  0
  142.9698   79.2260  219.5636 H   0  0  0  0  0  0  0  0  0  0  0  0
  141.9241   80.7093  219.1942 H   0  0  0  0  0  0  0  0  0  0  0  0
  143.1226   78.5097  221.9462 H   0  0  0  0  0  0  0  0  0  0  0  0
  142.9468   79.2135  224.2869 H   0  0  0  0  0  0  0  0  0  0  0  0
  141.6659   81.2645  224.8927 H   0  0  0  0  0  0  0  0  0  0  0  0
  140.5752   82.5681  223.0795 H   0  0  0  0  0  0  0  0  0  0  0  0
  140.7607   81.8566  220.7390 H   0  0  0  0  0  0  0  0  0  0  0  0
  138.6362   68.8047  222.5687 H   0  0  0  0  0  0  0  0  0  0  0  0
  138.8832   67.4969  224.6710 H   0  0  0  0  0  0  0  0  0  0  0  0
  139.6089   67.3746  227.0357 H   0  0  0  0  0  0  0  0  0  0  0  0
  141.3436   70.8778  228.8314 H   0  0  0  0  0  0  0  0  0  0  0  0
  141.0558   72.1219  226.6840 H   0  0  0  0  0  0  0  0  0  0  0  0
  1  2  2  0
  2  3  1  0
  3  4  1  0
  4  5  1  0
  5  6  2  0
  5  7  1  0
  7  8  1  0
  8  9  1  0
  9 10  1  0
 10 11  1  0
 10 12  1  0
 12 13  1  0
 13 14  1  0
 14 15  1  0
 15 16  1  0
 16 17  2  0
 17 18  1  0
 18 19  2  0
 19 20  1  0
 20 21  2  0
  2 22  1  0
 22 23  2  0
 23 24  1  0
 24 25  2  0
 25 26  1  0
 26 27  2  0
 27 28  1  0
 27 29  1  0
 29 30  2  0
 30 31  1  0
 31 32  2  0
 12  7  1  0
 21 16  1  0
 32 22  1  0
 31 25  1  0
  3 33  1  0
  4 34  1  0
  4 35  1  0
  8 36  1  0
  8 37  1  0
  9 38  1  0
  9 39  1  0
 10 40  1  6
 11 41  1  0
 12 42  1  1
 13 43  1  0
 13 44  1  0
 15 45  1  0
 15 46  1  0
 17 47  1  0
 18 48  1  0
 19 49  1  0
 20 50  1  0
 21 51  1  0
 23 52  1  0
 24 53  1  0
 26 54  1  0
 29 55  1  0
 30 56  1  0
M  END
>  <smiles>  (40) 
O=C(NCC(=O)N1CC[C@H](O)[C@H]1COCc1ccccc1)c1ccc2cc(F)ccc2n1

>  <score_type>  (40) 
oracle

>  <origin>  (40) 
autodockgpu

>  <m_score__min__energy>  (40) 
-8.9700000000000006

>  <m_primary>  (40) 
energy

>  <rmsd>  (40) 
1.6789628418238793

>  <m_score__min__rmsd>  (40) 
1.6789628418238793

>  <meeko>  (40) 
{"free_energy": -8.2, "intermolecular_energy": -10.89, "internal_energy": -2.12, "cluster_size": 27, "cluster_id": 1, "rank_in_cluster": 18}

>  <energy>  (40) 
-7.9

>  <cluster_rmsd>  (40) 
0.0

>  <cluster>  (40) 
4

$$$$

     RDKit          3D

 56 59  0  0  0  0  0  0  0  0999 V2000
  139.2910   70.9910  221.0300 O   0  0  0  0  0  0  0  0  0  0  0  0
  139.4040   71.5530  222.1480 C   0  0  0  0  0  0  0  0  0  0  0  0
  139.4120   72.9650  222.3190 N   0  0  0  0  0  0  0  0  0  0  0  0
  139.2860   73.8390  221.1640 C   0  0  0  0  0  0  0  0  0  0  0  0
  140.2050   74.9940  221.3160 C   0  0  0  0  0  0  0  0  0  0  0  0
  140.0800   75.6860  222.3580 O   0  0  0  0  0  0  0  0  0  0  0  0
  141.1650   75.2620  220.3020 N   0  0  0  0  0  0  0  0  0  0  0  0
  141.5030   74.3710  219.1810 C   0  0  0  0  0  0  0  0  0  0  0  0
  143.0140   74.3990  219.2860 C   0  0  0  0  0  0  0  0  0  0  0  0
  143.2460   75.8880  219.4090 C   0  0  2  0  0  0  0  0  0  0  0  0
  144.4160   76.1920  220.0860 O   0  0  0  0  0  0  0  0  0  0  0  0
  142.0070   76.4320  220.1410 C   0  0  1  0  0  0  0  0  0  0  0  0
  141.2820   77.3920  219.1900 C   0  0  0  0  0  0  0  0  0  0  0  0
  141.8410   78.6370  219.1380 O   0  0  0  0  0  0  0  0  0  0  0  0
  141.2670   79.6190  219.8950 C   0  0  0  0  0  0  0  0  0  0  0  0
  141.6300   79.6510  221.3100 C   0  0  0  0  0  0  0  0  0  0  0  0
  142.5360   80.5050  221.8930 C   0  0  0  0  0  0  0  0  0  0  0  0
  142.8350   80.4810  223.2390 C   0  0  0  0  0  0  0  0  0  0  0  0
  142.2160   79.5730  224.0720 C   0  0  0  0  0  0  0  0  0  0  0  0
  141.3030   78.7020  223.5210 C   0  0  0  0  0  0  0  0  0  0  0  0
  141.0150   78.7390  222.1750 C   0  0  0  0  0  0  0  0  0  0  0  0
  139.5370   70.7340  223.3660 C   0  0  0  0  0  0  0  0  0  0  0  0
  139.0860   69.4220  223.3960 C   0  0  0  0  0  0  0  0  0  0  0  0
  139.2230   68.6650  224.5620 C   0  0  0  0  0  0  0  0  0  0  0  0
  139.8070   69.1990  225.7040 C   0  0  0  0  0  0  0  0  0  0  0  0
  139.9570   68.4840  226.8660 C   0  0  0  0  0  0  0  0  0  0  0  0
  140.5500   69.0960  227.9540 C   0  0  0  0  0  0  0  0  0  0  0  0
  140.7130   68.4150  229.1200 F   0  0  0  0  0  0  0  0  0  0  0  0
  140.9850   70.3970  227.8920 C   0  0  0  0  0  0  0  0  0  0  0  0
  140.8290   71.1140  226.7110 C   0  0  0  0  0  0  0  0  0  0  0  0
  140.2420   70.5150  225.6240 C   0  0  0  0  0  0  0  0  0  0  0  0
  140.0920   71.2000  224.4920 N   0  0  0  0  0  0  0  0  0  0  0  0
  139.5100   73.3890  223.2790 H   0  0  0  0  0  0  0  0  0  0  0  0
  139.5455   73.2814  220.2520 H   0  0  0  0  0  0  0  0  0  0  0  0
  138.2501   74.2016  221.0895 H   0  0  0  0  0  0  0  0  0  0  0  0
  141.1003   73.3577  219.3264 H   0  0  0  0  0  0  0  0  0  0  0  0
  141.0959   74.6721  218.2045 H   0  0  0  0  0  0  0  0  0  0  0  0
  143.3709   73.8564  220.1738 H   0  0  0  0  0  0  0  0  0  0  0  0
  143.5436   73.9169  218.4511 H   0  0  0  0  0  0  0  0  0  0  0  0
  143.3742   76.3497  218.4189 H   0  0  0  0  0  0  0  0  0  0  0  0
  144.4380   77.1260  220.3810 H   0  0  0  0  0  0  0  0  0  0  0  0
  142.2447   76.9441  221.0851 H   0  0  0  0  0  0  0  0  0  0  0  0
  141.3011   76.9598  218.1786 H   0  0  0  0  0  0  0  0  0  0  0  0
  140.2584   77.5141  219.5739 H   0  0  0  0  0  0  0  0  0  0  0  0
  141.5499   80.5871  219.4560 H   0  0  0  0  0  0  0  0  0  0  0  0
  140.1881   79.4054  219.8772 H   0  0  0  0  0  0  0  0  0  0  0  0
  143.0464   81.2422  221.2558 H   0  0  0  0  0  0  0  0  0  0  0  0
  143.5701   81.1888  223.6497 H   0  0  0  0  0  0  0  0  0  0  0  0
  142.4454   79.5453  225.1475 H   0  0  0  0  0  0  0  0  0  0  0  0
  140.7971   77.9671  224.1644 H   0  0  0  0  0  0  0  0  0  0  0  0
  140.2792   78.0302  221.7673 H   0  0  0  0  0  0  0  0  0  0  0  0
  138.6213   68.9787  222.5029 H   0  0  0  0  0  0  0  0  0  0  0  0
  138.8616   67.6262  224.5763 H   0  0  0  0  0  0  0  0  0  0  0  0
  139.6111   67.4418  226.9302 H   0  0  0  0  0  0  0  0  0  0  0  0
  141.4529   70.8679  228.7691 H   0  0  0  0  0  0  0  0  0  0  0  0
  141.1743   72.1565  226.6479 H   0  0  0  0  0  0  0  0  0  0  0  0
  1  2  2  0
  2  3  1  0
  3  4  1  0
  4  5  1  0
  5  6  2  0
  5  7  1  0
  7  8  1  0
  8  9  1  0
  9 10  1  0
 10 11  1  0
 10 12  1  0
 12 13  1  0
 13 14  1  0
 14 15  1  0
 15 16  1  0
 16 17  2  0
 17 18  1  0
 18 19  2  0
 19 20  1  0
 20 21  2  0
  2 22  1  0
 22 23  2  0
 23 24  1  0
 24 25  2  0
 25 26  1  0
 26 27  2  0
 27 28  1  0
 27 29  1  0
 29 30  2  0
 30 31  1  0
 31 32  2  0
 12  7  1  0
 21 16  1  0
 32 22  1  0
 31 25  1  0
  3 33  1  0
  4 34  1  0
  4 35  1  0
  8 36  1  0
  8 37  1  0
  9 38  1  0
  9 39  1  0
 10 40  1  6
 11 41  1  0
 12 42  1  1
 13 43  1  0
 13 44  1  0
 15 45  1  0
 15 46  1  0
 17 47  1  0
 18 48  1  0
 19 49  1  0
 20 50  1  0
 21 51  1  0
 23 52  1  0
 24 53  1  0
 26 54  1  0
 29 55  1  0
 30 56  1  0
M  END
>  <smiles>  (41) 
O=C(NCC(=O)N1CC[C@H](O)[C@H]1COCc1ccccc1)c1ccc2cc(F)ccc2n1

>  <score_type>  (41) 
oracle

>  <origin>  (41) 
autodockgpu

>  <m_score__min__energy>  (41) 
-8.9700000000000006

>  <m_primary>  (41) 
energy

>  <rmsd>  (41) 
1.961520984886208

>  <m_score__min__rmsd>  (41) 
1.961520984886208

>  <meeko>  (41) 
{"free_energy": -8.65, "intermolecular_energy": -11.33, "internal_energy": -2.02, "cluster_size": 27, "cluster_id": 1, "rank_in_cluster": 9}

>  <energy>  (41) 
-7.74

>  <cluster_rmsd>  (41) 
0.74

>  <cluster>  (41) 
4

$$$$

     RDKit          3D

 56 59  0  0  0  0  0  0  0  0999 V2000
  133.5790   70.1970  226.8150 O   0  0  0  0  0  0  0  0  0  0  0  0
  133.8070   71.2770  226.2140 C   0  0  0  0  0  0  0  0  0  0  0  0
  134.6800   71.3830  225.0960 N   0  0  0  0  0  0  0  0  0  0  0  0
  135.3640   70.2030  224.5920 C   0  0  0  0  0  0  0  0  0  0  0  0
  136.2990   70.6000  223.5100 C   0  0  0  0  0  0  0  0  0  0  0  0
  136.0020   71.6290  222.8510 O   0  0  0  0  0  0  0  0  0  0  0  0
  137.4630   69.8190  223.2690 N   0  0  0  0  0  0  0  0  0  0  0  0
  137.7360   69.0350  222.0550 C   0  0  0  0  0  0  0  0  0  0  0  0
  138.1500   67.7250  222.6910 C   0  0  0  0  0  0  0  0  0  0  0  0
  139.1300   68.2290  223.7280 C   0  0  2  0  0  0  0  0  0  0  0  0
  139.2340   67.3820  224.8200 O   0  0  0  0  0  0  0  0  0  0  0  0
  138.6110   69.6190  224.1320 C   0  0  1  0  0  0  0  0  0  0  0  0
  139.6720   70.6520  223.7320 C   0  0  0  0  0  0  0  0  0  0  0  0
  139.9720   71.5410  224.7250 O   0  0  0  0  0  0  0  0  0  0  0  0
  141.0110   71.2320  225.5560 C   0  0  0  0  0  0  0  0  0  0  0  0
  140.7890   70.1430  226.5050 C   0  0  0  0  0  0  0  0  0  0  0  0
  141.3110   68.8740  226.4170 C   0  0  0  0  0  0  0  0  0  0  0  0
  141.0580   67.8900  227.3490 C   0  0  0  0  0  0  0  0  0  0  0  0
  140.2490   68.1530  228.4350 C   0  0  0  0  0  0  0  0  0  0  0  0
  139.7100   69.4140  228.5540 C   0  0  0  0  0  0  0  0  0  0  0  0
  139.9720   70.3860  227.6150 C   0  0  0  0  0  0  0  0  0  0  0  0
  133.1500   72.5170  226.6660 C   0  0  0  0  0  0  0  0  0  0  0  0
  131.9330   72.4770  227.3320 C   0  0  0  0  0  0  0  0  0  0  0  0
  131.3300   73.6650  227.7510 C   0  0  0  0  0  0  0  0  0  0  0  0
  131.9260   74.8970  227.5160 C   0  0  0  0  0  0  0  0  0  0  0  0
  131.3610   76.0840  227.9140 C   0  0  0  0  0  0  0  0  0  0  0  0
  132.0250   77.2640  227.6380 C   0  0  0  0  0  0  0  0  0  0  0  0
  131.4920   78.4570  228.0190 F   0  0  0  0  0  0  0  0  0  0  0  0
  133.2280   77.2690  226.9770 C   0  0  0  0  0  0  0  0  0  0  0  0
  133.7930   76.0640  226.5780 C   0  0  0  0  0  0  0  0  0  0  0  0
  133.1420   74.8850  226.8480 C   0  0  0  0  0  0  0  0  0  0  0  0
  133.6820   73.7290  226.4650 N   0  0  0  0  0  0  0  0  0  0  0  0
  134.8380   72.3120  224.6250 H   0  0  0  0  0  0  0  0  0  0  0  0
  135.9279   69.7288  225.4087 H   0  0  0  0  0  0  0  0  0  0  0  0
  134.6250   69.4908  224.1962 H   0  0  0  0  0  0  0  0  0  0  0  0
  136.8384   68.9217  221.4293 H   0  0  0  0  0  0  0  0  0  0  0  0
  138.4741   69.4762  221.3690 H   0  0  0  0  0  0  0  0  0  0  0  0
  137.2960   67.2091  223.1542 H   0  0  0  0  0  0  0  0  0  0  0  0
  138.5599   66.9816  221.9915 H   0  0  0  0  0  0  0  0  0  0  0  0
  140.1500   68.2742  223.3185 H   0  0  0  0  0  0  0  0  0  0  0  0
  140.0010   66.7770  224.7440 H   0  0  0  0  0  0  0  0  0  0  0  0
  138.3833   69.7077  225.2045 H   0  0  0  0  0  0  0  0  0  0  0  0
  140.5920   70.1162  223.4554 H   0  0  0  0  0  0  0  0  0  0  0  0
  139.2575   71.2321  222.8943 H   0  0  0  0  0  0  0  0  0  0  0  0
  141.8705   70.9566  224.9272 H   0  0  0  0  0  0  0  0  0  0  0  0
  141.1639   72.1287  226.1745 H   0  0  0  0  0  0  0  0  0  0  0  0
  141.9609   68.6326  225.5630 H   0  0  0  0  0  0  0  0  0  0  0  0
  141.5029   66.8915  227.2262 H   0  0  0  0  0  0  0  0  0  0  0  0
  140.0403   67.3762  229.1854 H   0  0  0  0  0  0  0  0  0  0  0  0
  139.0612   69.6482  229.4109 H   0  0  0  0  0  0  0  0  0  0  0  0
  139.5258   71.3835  227.7409 H   0  0  0  0  0  0  0  0  0  0  0  0
  131.4443   71.5115  227.5294 H   0  0  0  0  0  0  0  0  0  0  0  0
  130.3648   73.6240  228.2771 H   0  0  0  0  0  0  0  0  0  0  0  0
  130.3967   76.0951  228.4432 H   0  0  0  0  0  0  0  0  0  0  0  0
  133.7404   78.2190  226.7650 H   0  0  0  0  0  0  0  0  0  0  0  0
  134.7571   76.0542  226.0484 H   0  0  0  0  0  0  0  0  0  0  0  0
  1  2  2  0
  2  3  1  0
  3  4  1  0
  4  5  1  0
  5  6  2  0
  5  7  1  0
  7  8  1  0
  8  9  1  0
  9 10  1  0
 10 11  1  0
 10 12  1  0
 12 13  1  0
 13 14  1  0
 14 15  1  0
 15 16  1  0
 16 17  2  0
 17 18  1  0
 18 19  2  0
 19 20  1  0
 20 21  2  0
  2 22  1  0
 22 23  2  0
 23 24  1  0
 24 25  2  0
 25 26  1  0
 26 27  2  0
 27 28  1  0
 27 29  1  0
 29 30  2  0
 30 31  1  0
 31 32  2  0
 12  7  1  0
 21 16  1  0
 32 22  1  0
 31 25  1  0
  3 33  1  0
  4 34  1  0
  4 35  1  0
  8 36  1  0
  8 37  1  0
  9 38  1  0
  9 39  1  0
 10 40  1  6
 11 41  1  0
 12 42  1  1
 13 43  1  0
 13 44  1  0
 15 45  1  0
 15 46  1  0
 17 47  1  0
 18 48  1  0
 19 49  1  0
 20 50  1  0
 21 51  1  0
 23 52  1  0
 24 53  1  0
 26 54  1  0
 29 55  1  0
 30 56  1  0
M  END
>  <smiles>  (42) 
O=C(NCC(=O)N1CC[C@H](O)[C@H]1COCc1ccccc1)c1ccc2cc(F)ccc2n1

>  <score_type>  (42) 
oracle

>  <origin>  (42) 
autodockgpu

>  <m_score__min__energy>  (42) 
-8.9700000000000006

>  <m_primary>  (42) 
energy

>  <rmsd>  (42) 
8.982574285419188

>  <m_score__min__rmsd>  (42) 
8.982574285419188

>  <meeko>  (42) 
{"free_energy": -8.31, "intermolecular_energy": -10.99, "internal_energy": -2.35, "cluster_size": 5, "cluster_id": 3, "rank_in_cluster": 2}

>  <energy>  (42) 
-7.72

>  <cluster_rmsd>  (42) 
0.0

>  <cluster>  (42) 
5

$$$$

     RDKit          3D

 56 59  0  0  0  0  0  0  0  0999 V2000
  138.5950   75.1080  221.9100 O   0  0  0  0  0  0  0  0  0  0  0  0
  139.7490   75.5950  221.8060 C   0  0  0  0  0  0  0  0  0  0  0  0
  140.8370   74.9080  221.2020 N   0  0  0  0  0  0  0  0  0  0  0  0
  140.6470   73.5700  220.6650 C   0  0  0  0  0  0  0  0  0  0  0  0
  141.8880   72.7790  220.8590 C   0  0  0  0  0  0  0  0  0  0  0  0
  141.8690   71.9050  221.7630 O   0  0  0  0  0  0  0  0  0  0  0  0
  143.0170   73.0370  220.0360 N   0  0  0  0  0  0  0  0  0  0  0  0
  143.0280   73.0280  218.5640 C   0  0  0  0  0  0  0  0  0  0  0  0
  144.2500   72.1640  218.3290 C   0  0  0  0  0  0  0  0  0  0  0  0
  145.2300   72.8230  219.2740 C   0  0  2  0  0  0  0  0  0  0  0  0
  146.2110   71.9510  219.7180 O   0  0  0  0  0  0  0  0  0  0  0  0
  144.3750   73.3560  220.4350 C   0  0  1  0  0  0  0  0  0  0  0  0
  144.5010   74.8850  220.4500 C   0  0  0  0  0  0  0  0  0  0  0  0
  143.3260   75.5340  220.1990 O   0  0  0  0  0  0  0  0  0  0  0  0
  143.3280   76.4870  219.2200 C   0  0  0  0  0  0  0  0  0  0  0  0
  142.1790   77.3880  219.1800 C   0  0  0  0  0  0  0  0  0  0  0  0
  142.1980   78.7350  219.4570 C   0  0  0  0  0  0  0  0  0  0  0  0
  141.0720   79.5300  219.4020 C   0  0  0  0  0  0  0  0  0  0  0  0
  139.8520   78.9850  219.0580 C   0  0  0  0  0  0  0  0  0  0  0  0
  139.7980   77.6390  218.7750 C   0  0  0  0  0  0  0  0  0  0  0  0
  140.9310   76.8580  218.8330 C   0  0  0  0  0  0  0  0  0  0  0  0
  140.0200   76.9470  222.3270 C   0  0  0  0  0  0  0  0  0  0  0  0
  138.9880   77.7620  222.7690 C   0  0  0  0  0  0  0  0  0  0  0  0
  139.2700   79.0400  223.2580 C   0  0  0  0  0  0  0  0  0  0  0  0
  140.5720   79.5180  223.3140 C   0  0  0  0  0  0  0  0  0  0  0  0
  140.8850   80.7680  223.7890 C   0  0  0  0  0  0  0  0  0  0  0  0
  142.2090   81.1620  223.8090 C   0  0  0  0  0  0  0  0  0  0  0  0
  142.5520   82.3940  224.2730 F   0  0  0  0  0  0  0  0  0  0  0  0
  143.2080   80.3320  223.3640 C   0  0  0  0  0  0  0  0  0  0  0  0
  142.8830   79.0680  222.8850 C   0  0  0  0  0  0  0  0  0  0  0  0
  141.5700   78.6660  222.8610 C   0  0  0  0  0  0  0  0  0  0  0  0
  141.2570   77.4560  222.4020 N   0  0  0  0  0  0  0  0  0  0  0  0
  141.7880   75.3590  221.1380 H   0  0  0  0  0  0  0  0  0  0  0  0
  139.8136   73.0793  221.1891 H   0  0  0  0  0  0  0  0  0  0  0  0
  140.4171   73.6347  219.5912 H   0  0  0  0  0  0  0  0  0  0  0  0
  142.1169   72.5718  218.1495 H   0  0  0  0  0  0  0  0  0  0  0  0
  143.0575   74.0201  218.0897 H   0  0  0  0  0  0  0  0  0  0  0  0
  144.0651   71.1143  218.6008 H   0  0  0  0  0  0  0  0  0  0  0  0
  144.5832   72.1113  217.2820 H   0  0  0  0  0  0  0  0  0  0  0  0
  145.7854   73.6272  218.7692 H   0  0  0  0  0  0  0  0  0  0  0  0
  145.9860   71.5550  220.5850 H   0  0  0  0  0  0  0  0  0  0  0  0
  144.6605   72.9435  221.4139 H   0  0  0  0  0  0  0  0  0  0  0  0
  144.8638   75.1941  221.4414 H   0  0  0  0  0  0  0  0  0  0  0  0
  145.1984   75.1586  219.6445 H   0  0  0  0  0  0  0  0  0  0  0  0
  144.2297   77.1023  219.3555 H   0  0  0  0  0  0  0  0  0  0  0  0
  143.2911   75.9289  218.2728 H   0  0  0  0  0  0  0  0  0  0  0  0
  143.1553   79.1999  219.7353 H   0  0  0  0  0  0  0  0  0  0  0  0
  141.1471   80.6028  219.6333 H   0  0  0  0  0  0  0  0  0  0  0  0
  138.9473   79.6090  219.0112 H   0  0  0  0  0  0  0  0  0  0  0  0
  138.8369   77.1809  218.4987 H   0  0  0  0  0  0  0  0  0  0  0  0
  140.8527   75.7859  218.5997 H   0  0  0  0  0  0  0  0  0  0  0  0
  137.9490   77.4025  222.7345 H   0  0  0  0  0  0  0  0  0  0  0  0
  138.4449   79.6793  223.6051 H   0  0  0  0  0  0  0  0  0  0  0  0
  140.0948   81.4441  224.1475 H   0  0  0  0  0  0  0  0  0  0  0  0
  144.2564   80.6642  223.3863 H   0  0  0  0  0  0  0  0  0  0  0  0
  143.6741   78.3928  222.5268 H   0  0  0  0  0  0  0  0  0  0  0  0
  1  2  2  0
  2  3  1  0
  3  4  1  0
  4  5  1  0
  5  6  2  0
  5  7  1  0
  7  8  1  0
  8  9  1  0
  9 10  1  0
 10 11  1  0
 10 12  1  0
 12 13  1  0
 13 14  1  0
 14 15  1  0
 15 16  1  0
 16 17  2  0
 17 18  1  0
 18 19  2  0
 19 20  1  0
 20 21  2  0
  2 22  1  0
 22 23  2  0
 23 24  1  0
 24 25  2  0
 25 26  1  0
 26 27  2  0
 27 28  1  0
 27 29  1  0
 29 30  2  0
 30 31  1  0
 31 32  2  0
 12  7  1  0
 21 16  1  0
 32 22  1  0
 31 25  1  0
  3 33  1  0
  4 34  1  0
  4 35  1  0
  8 36  1  0
  8 37  1  0
  9 38  1  0
  9 39  1  0
 10 40  1  6
 11 41  1  0
 12 42  1  1
 13 43  1  0
 13 44  1  0
 15 45  1  0
 15 46  1  0
 17 47  1  0
 18 48  1  0
 19 49  1  0
 20 50  1  0
 21 51  1  0
 23 52  1  0
 24 53  1  0
 26 54  1  0
 29 55  1  0
 30 56  1  0
M  END
>  <smiles>  (43) 
O=C(NCC(=O)N1CC[C@H](O)[C@H]1COCc1ccccc1)c1ccc2cc(F)ccc2n1

>  <score_type>  (43) 
oracle

>  <origin>  (43) 
autodockgpu

>  <m_score__min__energy>  (43) 
-8.9700000000000006

>  <m_primary>  (43) 
energy

>  <rmsd>  (43) 
7.729235259606819

>  <m_score__min__rmsd>  (43) 
7.729235259606819

>  <meeko>  (43) 
{"free_energy": -6.19, "intermolecular_energy": -8.88, "internal_energy": -4.19, "cluster_size": 2, "cluster_id": 8, "rank_in_cluster": 2}

>  <energy>  (43) 
-6.23

>  <cluster_rmsd>  (43) 
2.0

>  <cluster>  (43) 
5

$$$$

     RDKit          3D

 56 59  0  0  0  0  0  0  0  0999 V2000
  139.8840   71.6140  220.9090 O   0  0  0  0  0  0  0  0  0  0  0  0
  139.7780   72.1490  222.0410 C   0  0  0  0  0  0  0  0  0  0  0  0
  139.6120   73.5480  222.2330 N   0  0  0  0  0  0  0  0  0  0  0  0
  139.5580   74.4400  221.0860 C   0  0  0  0  0  0  0  0  0  0  0  0
  140.0800   75.7740  221.4730 C   0  0  0  0  0  0  0  0  0  0  0  0
  140.3270   75.9560  222.6930 O   0  0  0  0  0  0  0  0  0  0  0  0
  140.2740   76.7670  220.4740 N   0  0  0  0  0  0  0  0  0  0  0  0
  140.5310   76.5120  219.0480 C   0  0  0  0  0  0  0  0  0  0  0  0
  141.7160   77.4330  218.8400 C   0  0  0  0  0  0  0  0  0  0  0  0
  141.1920   78.6930  219.4910 C   0  0  2  0  0  0  0  0  0  0  0  0
  142.2060   79.5050  219.9750 O   0  0  0  0  0  0  0  0  0  0  0  0
  140.2640   78.2100  220.6180 C   0  0  1  0  0  0  0  0  0  0  0  0
  138.8440   78.6940  220.2990 C   0  0  0  0  0  0  0  0  0  0  0  0
  138.1870   79.2130  221.3780 O   0  0  0  0  0  0  0  0  0  0  0  0
  138.6750   80.3680  221.9190 C   0  0  0  0  0  0  0  0  0  0  0  0
  139.9520   80.2740  222.6220 C   0  0  0  0  0  0  0  0  0  0  0  0
  140.2960   79.3220  223.5520 C   0  0  0  0  0  0  0  0  0  0  0  0
  141.5220   79.2920  224.1810 C   0  0  0  0  0  0  0  0  0  0  0  0
  142.4760   80.2460  223.8910 C   0  0  0  0  0  0  0  0  0  0  0  0
  142.1650   81.2150  222.9640 C   0  0  0  0  0  0  0  0  0  0  0  0
  140.9350   81.2310  222.3440 C   0  0  0  0  0  0  0  0  0  0  0  0
  139.8230   71.3110  223.2530 C   0  0  0  0  0  0  0  0  0  0  0  0
  139.3610   70.0020  223.2320 C   0  0  0  0  0  0  0  0  0  0  0  0
  139.4150   69.2270  224.3930 C   0  0  0  0  0  0  0  0  0  0  0  0
  139.9250   69.7400  225.5790 C   0  0  0  0  0  0  0  0  0  0  0  0
  139.9910   69.0060  226.7380 C   0  0  0  0  0  0  0  0  0  0  0  0
  140.5140   69.5970  227.8720 C   0  0  0  0  0  0  0  0  0  0  0  0
  140.5950   68.8980  229.0360 F   0  0  0  0  0  0  0  0  0  0  0  0
  140.9620   70.8950  227.8600 C   0  0  0  0  0  0  0  0  0  0  0  0
  140.8910   71.6310  226.6820 C   0  0  0  0  0  0  0  0  0  0  0  0
  140.3730   71.0530  225.5490 C   0  0  0  0  0  0  0  0  0  0  0  0
  140.3040   71.7560  224.4210 N   0  0  0  0  0  0  0  0  0  0  0  0
  139.5270   73.9510  223.2040 H   0  0  0  0  0  0  0  0  0  0  0  0
  140.1720   74.0280  220.2716 H   0  0  0  0  0  0  0  0  0  0  0  0
  138.5165   74.5379  220.7459 H   0  0  0  0  0  0  0  0  0  0  0  0
  140.7907   75.4599  218.8594 H   0  0  0  0  0  0  0  0  0  0  0  0
  139.6763   76.6896  218.3787 H   0  0  0  0  0  0  0  0  0  0  0  0
  142.6177   77.0576  219.3459 H   0  0  0  0  0  0  0  0  0  0  0  0
  142.0308   77.5510  217.7926 H   0  0  0  0  0  0  0  0  0  0  0  0
  140.6607   79.3220  218.7616 H   0  0  0  0  0  0  0  0  0  0  0  0
  142.7730   79.0380  220.6240 H   0  0  0  0  0  0  0  0  0  0  0  0
  140.5666   78.5605  221.6158 H   0  0  0  0  0  0  0  0  0  0  0  0
  138.9078   79.4718  219.5238 H   0  0  0  0  0  0  0  0  0  0  0  0
  138.2717   77.8159  219.9652 H   0  0  0  0  0  0  0  0  0  0  0  0
  138.7971   81.0936  221.1014 H   0  0  0  0  0  0  0  0  0  0  0  0
  137.9430   80.6600  222.6864 H   0  0  0  0  0  0  0  0  0  0  0  0
  139.5577   78.5473  223.8063 H   0  0  0  0  0  0  0  0  0  0  0  0
  141.7409   78.5045  224.9171 H   0  0  0  0  0  0  0  0  0  0  0  0
  143.4578   80.2325  224.3869 H   0  0  0  0  0  0  0  0  0  0  0  0
  142.9084   81.9866  222.7151 H   0  0  0  0  0  0  0  0  0  0  0  0
  140.7187   82.0196  221.6082 H   0  0  0  0  0  0  0  0  0  0  0  0
  138.9534   69.5761  222.3033 H   0  0  0  0  0  0  0  0  0  0  0  0
  139.0467   68.1908  224.3676 H   0  0  0  0  0  0  0  0  0  0  0  0
  139.6337   67.9659  226.7629 H   0  0  0  0  0  0  0  0  0  0  0  0
  141.3733   71.3486  228.7738 H   0  0  0  0  0  0  0  0  0  0  0  0
  141.2481   72.6712  226.6579 H   0  0  0  0  0  0  0  0  0  0  0  0
  1  2  2  0
  2  3  1  0
  3  4  1  0
  4  5  1  0
  5  6  2  0
  5  7  1  0
  7  8  1  0
  8  9  1  0
  9 10  1  0
 10 11  1  0
 10 12  1  0
 12 13  1  0
 13 14  1  0
 14 15  1  0
 15 16  1  0
 16 17  2  0
 17 18  1  0
 18 19  2  0
 19 20  1  0
 20 21  2  0
  2 22  1  0
 22 23  2  0
 23 24  1  0
 24 25  2  0
 25 26  1  0
 26 27  2  0
 27 28  1  0
 27 29  1  0
 29 30  2  0
 30 31  1  0
 31 32  2  0
 12  7  1  0
 21 16  1  0
 32 22  1  0
 31 25  1  0
  3 33  1  0
  4 34  1  0
  4 35  1  0
  8 36  1  0
  8 37  1  0
  9 38  1  0
  9 39  1  0
 10 40  1  6
 11 41  1  0
 12 42  1  1
 13 43  1  0
 13 44  1  0
 15 45  1  0
 15 46  1  0
 17 47  1  0
 18 48  1  0
 19 49  1  0
 20 50  1  0
 21 51  1  0
 23 52  1  0
 24 53  1  0
 26 54  1  0
 29 55  1  0
 30 56  1  0
M  END
>  <smiles>  (44) 
O=C(NCC(=O)N1CC[C@H](O)[C@H]1COCc1ccccc1)c1ccc2cc(F)ccc2n1

>  <score_type>  (44) 
oracle

>  <origin>  (44) 
autodockgpu

>  <m_score__min__energy>  (44) 
-8.9700000000000006

>  <m_primary>  (44) 
energy

>  <rmsd>  (44) 
2.25469508541576

>  <m_score__min__rmsd>  (44) 
2.25469508541576

>  <meeko>  (44) 
{"free_energy": -7.83, "intermolecular_energy": -10.52, "internal_energy": -2.3, "cluster_size": 27, "cluster_id": 1, "rank_in_cluster": 23}

>  <energy>  (44) 
-6.17

>  <cluster_rmsd>  (44) 
1.9

>  <cluster>  (44) 
5

$$$$

     RDKit          3D

 56 59  0  0  0  0  0  0  0  0999 V2000
  133.7530   69.7610  226.4830 O   0  0  0  0  0  0  0  0  0  0  0  0
  134.0900   70.9060  226.0900 C   0  0  0  0  0  0  0  0  0  0  0  0
  135.1710   71.1410  225.1970 N   0  0  0  0  0  0  0  0  0  0  0  0
  135.9520   70.0250  224.6890 C   0  0  0  0  0  0  0  0  0  0  0  0
  137.1600   70.5410  223.9980 C   0  0  0  0  0  0  0  0  0  0  0  0
  137.3850   71.7750  224.0930 O   0  0  0  0  0  0  0  0  0  0  0  0
  137.9920   69.6420  223.2770 N   0  0  0  0  0  0  0  0  0  0  0  0
  138.9680   70.0170  222.2410 C   0  0  0  0  0  0  0  0  0  0  0  0
  138.5840   69.0230  221.1650 C   0  0  0  0  0  0  0  0  0  0  0  0
  138.5210   67.7530  221.9830 C   0  0  2  0  0  0  0  0  0  0  0  0
  137.6580   66.8120  221.4430 O   0  0  0  0  0  0  0  0  0  0  0  0
  138.0710   68.1980  223.3850 C   0  0  1  0  0  0  0  0  0  0  0  0
  139.2030   67.8720  224.3680 C   0  0  0  0  0  0  0  0  0  0  0  0
  138.8450   68.0090  225.6790 O   0  0  0  0  0  0  0  0  0  0  0  0
  139.8470   68.1700  226.5930 C   0  0  0  0  0  0  0  0  0  0  0  0
  140.2480   69.5430  226.8920 C   0  0  0  0  0  0  0  0  0  0  0  0
  140.0090   70.2180  228.0660 C   0  0  0  0  0  0  0  0  0  0  0  0
  140.4140   71.5180  228.2830 C   0  0  0  0  0  0  0  0  0  0  0  0
  141.0920   72.2080  227.2990 C   0  0  0  0  0  0  0  0  0  0  0  0
  141.3470   71.5620  226.1110 C   0  0  0  0  0  0  0  0  0  0  0  0
  140.9370   70.2630  225.9090 C   0  0  0  0  0  0  0  0  0  0  0  0
  133.3470   72.0890  226.5610 C   0  0  0  0  0  0  0  0  0  0  0  0
  132.1050   71.9550  227.1670 C   0  0  0  0  0  0  0  0  0  0  0  0
  131.4190   73.0910  227.6050 C   0  0  0  0  0  0  0  0  0  0  0  0
  131.9550   74.3620  227.4490 C   0  0  0  0  0  0  0  0  0  0  0  0
  131.3090   75.4980  227.8680 C   0  0  0  0  0  0  0  0  0  0  0  0
  131.9170   76.7230  227.6710 C   0  0  0  0  0  0  0  0  0  0  0  0
  131.3030   77.8680  228.0750 F   0  0  0  0  0  0  0  0  0  0  0  0
  133.1470   76.8210  227.0680 C   0  0  0  0  0  0  0  0  0  0  0  0
  133.7950   75.6660  226.6470 C   0  0  0  0  0  0  0  0  0  0  0  0
  133.1990   74.4430  226.8380 C   0  0  0  0  0  0  0  0  0  0  0  0
  133.8190   73.3350  226.4350 N   0  0  0  0  0  0  0  0  0  0  0  0
  135.4160   72.1210  224.8960 H   0  0  0  0  0  0  0  0  0  0  0  0
  136.2560   69.3790  225.5259 H   0  0  0  0  0  0  0  0  0  0  0  0
  135.3438   69.4442  223.9800 H   0  0  0  0  0  0  0  0  0  0  0  0
  138.8329   71.0563  221.9068 H   0  0  0  0  0  0  0  0  0  0  0  0
  140.0215   69.9829  222.5557 H   0  0  0  0  0  0  0  0  0  0  0  0
  137.6103   69.2661  220.7147 H   0  0  0  0  0  0  0  0  0  0  0  0
  139.2705   68.9848  220.3063 H   0  0  0  0  0  0  0  0  0  0  0  0
  139.4984   67.2488  222.0044 H   0  0  0  0  0  0  0  0  0  0  0  0
  137.5460   66.9290  220.4760 H   0  0  0  0  0  0  0  0  0  0  0  0
  137.1351   67.7243  223.7161 H   0  0  0  0  0  0  0  0  0  0  0  0
  139.5200   66.8320  224.2009 H   0  0  0  0  0  0  0  0  0  0  0  0
  140.0128   68.5918  224.1778 H   0  0  0  0  0  0  0  0  0  0  0  0
  139.5170   67.7066  227.5345 H   0  0  0  0  0  0  0  0  0  0  0  0
  140.7323   67.7031  226.1367 H   0  0  0  0  0  0  0  0  0  0  0  0
  139.4692   69.6962  228.8699 H   0  0  0  0  0  0  0  0  0  0  0  0
  140.1959   72.0068  229.2440 H   0  0  0  0  0  0  0  0  0  0  0  0
  141.4196   73.2457  227.4598 H   0  0  0  0  0  0  0  0  0  0  0  0
  141.8861   72.0909  225.3112 H   0  0  0  0  0  0  0  0  0  0  0  0
  141.1573   69.7770  224.9471 H   0  0  0  0  0  0  0  0  0  0  0  0
  131.6621   70.9572  227.3020 H   0  0  0  0  0  0  0  0  0  0  0  0
  130.4349   72.9758  228.0828 H   0  0  0  0  0  0  0  0  0  0  0  0
  130.3236   75.4344  228.3526 H   0  0  0  0  0  0  0  0  0  0  0  0
  133.6152   77.8052  226.9195 H   0  0  0  0  0  0  0  0  0  0  0  0
  134.7807   75.7307  226.1630 H   0  0  0  0  0  0  0  0  0  0  0  0
  1  2  2  0
  2  3  1  0
  3  4  1  0
  4  5  1  0
  5  6  2  0
  5  7  1  0
  7  8  1  0
  8  9  1  0
  9 10  1  0
 10 11  1  0
 10 12  1  0
 12 13  1  0
 13 14  1  0
 14 15  1  0
 15 16  1  0
 16 17  2  0
 17 18  1  0
 18 19  2  0
 19 20  1  0
 20 21  2  0
  2 22  1  0
 22 23  2  0
 23 24  1  0
 24 25  2  0
 25 26  1  0
 26 27  2  0
 27 28  1  0
 27 29  1  0
 29 30  2  0
 30 31  1  0
 31 32  2  0
 12  7  1  0
 21 16  1  0
 32 22  1  0
 31 25  1  0
  3 33  1  0
  4 34  1  0
  4 35  1  0
  8 36  1  0
  8 37  1  0
  9 38  1  0
  9 39  1  0
 10 40  1  1
 11 41  1  0
 12 42  1  1
 13 43  1  0
 13 44  1  0
 15 45  1  0
 15 46  1  0
 17 47  1  0
 18 48  1  0
 19 49  1  0
 20 50  1  0
 21 51  1  0
 23 52  1  0
 24 53  1  0
 26 54  1  0
 29 55  1  0
 30 56  1  0
M  END
>  <smiles>  (45) 
O=C(NCC(=O)N1CC[C@H](O)[C@H]1COCc1ccccc1)c1ccc2cc(F)ccc2n1

>  <score_type>  (45) 
oracle

>  <origin>  (45) 
autodockgpu

>  <m_score__min__energy>  (45) 
-8.9700000000000006

>  <m_primary>  (45) 
energy

>  <rmsd>  (45) 
8.807229186971115

>  <m_score__min__rmsd>  (45) 
8.807229186971115

>  <meeko>  (45) 
{"free_energy": -8.19, "intermolecular_energy": -10.87, "internal_energy": -2.49, "cluster_size": 5, "cluster_id": 3, "rank_in_cluster": 3}

>  <energy>  (45) 
-6.14

>  <cluster_rmsd>  (45) 
1.98

>  <cluster>  (45) 
5

$$$$

     RDKit          3D

 56 59  0  0  0  0  0  0  0  0999 V2000
  141.3110   72.3310  221.5120 O   0  0  0  0  0  0  0  0  0  0  0  0
  140.4290   72.5780  222.3730 C   0  0  0  0  0  0  0  0  0  0  0  0
  139.5930   73.7270  222.3320 N   0  0  0  0  0  0  0  0  0  0  0  0
  139.7350   74.6920  221.2530 C   0  0  0  0  0  0  0  0  0  0  0  0
  139.4950   76.0590  221.7790 C   0  0  0  0  0  0  0  0  0  0  0  0
  138.7110   76.1620  222.7580 O   0  0  0  0  0  0  0  0  0  0  0  0
  140.1440   77.1680  221.1710 N   0  0  0  0  0  0  0  0  0  0  0  0
  139.4890   78.2180  220.3760 C   0  0  0  0  0  0  0  0  0  0  0  0
  140.4130   78.2370  219.1770 C   0  0  0  0  0  0  0  0  0  0  0  0
  141.7550   78.2830  219.8730 C   0  0  2  0  0  0  0  0  0  0  0  0
  142.7720   77.7340  219.1080 O   0  0  0  0  0  0  0  0  0  0  0  0
  141.5530   77.5120  221.1890 C   0  0  1  0  0  0  0  0  0  0  0  0
  141.7720   78.4920  222.3470 C   0  0  0  0  0  0  0  0  0  0  0  0
  140.8060   78.4260  223.3110 O   0  0  0  0  0  0  0  0  0  0  0  0
  140.3640   79.6030  223.8440 C   0  0  0  0  0  0  0  0  0  0  0  0
  140.2950   80.7470  222.9380 C   0  0  0  0  0  0  0  0  0  0  0  0
  139.1900   81.1490  222.2260 C   0  0  0  0  0  0  0  0  0  0  0  0
  139.1940   82.2420  221.3840 C   0  0  0  0  0  0  0  0  0  0  0  0
  140.3410   82.9910  221.2220 C   0  0  0  0  0  0  0  0  0  0  0  0
  141.4660   82.6160  221.9210 C   0  0  0  0  0  0  0  0  0  0  0  0
  141.4470   81.5230  222.7590 C   0  0  0  0  0  0  0  0  0  0  0  0
  140.2250   71.6460  223.4970 C   0  0  0  0  0  0  0  0  0  0  0  0
  139.5440   70.4500  223.3180 C   0  0  0  0  0  0  0  0  0  0  0  0
  139.3630   69.5830  224.3980 C   0  0  0  0  0  0  0  0  0  0  0  0
  139.8540   69.8920  225.6600 C   0  0  0  0  0  0  0  0  0  0  0  0
  139.6940   69.0640  226.7430 C   0  0  0  0  0  0  0  0  0  0  0  0
  140.2160   69.4510  227.9620 C   0  0  0  0  0  0  0  0  0  0  0  0
  140.0750   68.6530  229.0550 F   0  0  0  0  0  0  0  0  0  0  0  0
  140.8850   70.6420  228.1070 C   0  0  0  0  0  0  0  0  0  0  0  0
  141.0420   71.4750  227.0050 C   0  0  0  0  0  0  0  0  0  0  0  0
  140.5280   71.0990  225.7880 C   0  0  0  0  0  0  0  0  0  0  0  0
  140.6780   71.8960  224.7320 N   0  0  0  0  0  0  0  0  0  0  0  0
  138.8670   73.8900  223.0780 H   0  0  0  0  0  0  0  0  0  0  0  0
  140.7521   74.6317  220.8383 H   0  0  0  0  0  0  0  0  0  0  0  0
  139.0036   74.4691  220.4622 H   0  0  0  0  0  0  0  0  0  0  0  0
  138.4614   77.9411  220.0978 H   0  0  0  0  0  0  0  0  0  0  0  0
  139.3658   79.1841  220.8874 H   0  0  0  0  0  0  0  0  0  0  0  0
  140.3031   77.3304  218.5637 H   0  0  0  0  0  0  0  0  0  0  0  0
  140.2325   79.0590  218.4687 H   0  0  0  0  0  0  0  0  0  0  0  0
  142.0737   79.3211  220.0484 H   0  0  0  0  0  0  0  0  0  0  0  0
  143.6360   77.7640  219.5690 H   0  0  0  0  0  0  0  0  0  0  0  0
  142.2219   76.6454  221.2967 H   0  0  0  0  0  0  0  0  0  0  0  0
  142.7433   78.2685  222.8124 H   0  0  0  0  0  0  0  0  0  0  0  0
  141.7343   79.5060  221.9223 H   0  0  0  0  0  0  0  0  0  0  0  0
  139.3528   79.4305  224.2411 H   0  0  0  0  0  0  0  0  0  0  0  0
  141.1133   79.8777  224.6010 H   0  0  0  0  0  0  0  0  0  0  0  0
  138.2593   80.5725  222.3325 H   0  0  0  0  0  0  0  0  0  0  0  0
  138.2787   82.5173  220.8396 H   0  0  0  0  0  0  0  0  0  0  0  0
  140.3562   83.8638  220.5527 H   0  0  0  0  0  0  0  0  0  0  0  0
  142.3931   83.1973  221.8088 H   0  0  0  0  0  0  0  0  0  0  0  0
  142.3635   81.2517  223.3035 H   0  0  0  0  0  0  0  0  0  0  0  0
  139.1473   70.1852  222.3268 H   0  0  0  0  0  0  0  0  0  0  0  0
  138.8214   68.6377  224.2462 H   0  0  0  0  0  0  0  0  0  0  0  0
  139.1590   68.1082  226.6419 H   0  0  0  0  0  0  0  0  0  0  0  0
  141.2927   70.9340  229.0860 H   0  0  0  0  0  0  0  0  0  0  0  0
  141.5757   72.4314  227.1073 H   0  0  0  0  0  0  0  0  0  0  0  0
  1  2  2  0
  2  3  1  0
  3  4  1  0
  4  5  1  0
  5  6  2  0
  5  7  1  0
  7  8  1  0
  8  9  1  0
  9 10  1  0
 10 11  1  0
 10 12  1  0
 12 13  1  0
 13 14  1  0
 14 15  1  0
 15 16  1  0
 16 17  2  0
 17 18  1  0
 18 19  2  0
 19 20  1  0
 20 21  2  0
  2 22  1  0
 22 23  2  0
 23 24  1  0
 24 25  2  0
 25 26  1  0
 26 27  2  0
 27 28  1  0
 27 29  1  0
 29 30  2  0
 30 31  1  0
 31 32  2  0
 12  7  1  0
 21 16  1  0
 32 22  1  0
 31 25  1  0
  3 33  1  0
  4 34  1  0
  4 35  1  0
  8 36  1  0
  8 37  1  0
  9 38  1  0
  9 39  1  0
 10 40  1  1
 11 41  1  0
 12 42  1  1
 13 43  1  0
 13 44  1  0
 15 45  1  0
 15 46  1  0
 17 47  1  0
 18 48  1  0
 19 49  1  0
 20 50  1  0
 21 51  1  0
 23 52  1  0
 24 53  1  0
 26 54  1  0
 29 55  1  0
 30 56  1  0
M  END
>  <smiles>  (46) 
O=C(NCC(=O)N1CC[C@H](O)[C@H]1COCc1ccccc1)c1ccc2cc(F)ccc2n1

>  <score_type>  (46) 
oracle

>  <origin>  (46) 
autodockgpu

>  <m_score__min__energy>  (46) 
-8.9700000000000006

>  <m_primary>  (46) 
energy

>  <rmsd>  (46) 
2.5746615283545133

>  <m_score__min__rmsd>  (46) 
2.5746615283545133

>  <meeko>  (46) 
{"free_energy": -7.93, "intermolecular_energy": -10.62, "internal_energy": -2.17, "cluster_size": 27, "cluster_id": 1, "rank_in_cluster": 22}

>  <energy>  (46) 
-5.95

>  <cluster_rmsd>  (46) 
1.95

>  <cluster>  (46) 
5

$$$$

     RDKit          3D

 56 59  0  0  0  0  0  0  0  0999 V2000
  136.9970   70.3610  221.6080 O   0  0  0  0  0  0  0  0  0  0  0  0
  137.3280   71.0480  222.6070 C   0  0  0  0  0  0  0  0  0  0  0  0
  136.9980   72.4230  222.7560 N   0  0  0  0  0  0  0  0  0  0  0  0
  136.2410   73.1070  221.7200 C   0  0  0  0  0  0  0  0  0  0  0  0
  137.1530   73.4940  220.6160 C   0  0  0  0  0  0  0  0  0  0  0  0
  136.6180   73.8560  219.5360 O   0  0  0  0  0  0  0  0  0  0  0  0
  138.5590   73.4420  220.8190 N   0  0  0  0  0  0  0  0  0  0  0  0
  139.5320   72.7800  219.9340 C   0  0  0  0  0  0  0  0  0  0  0  0
  140.3150   71.9960  220.9670 C   0  0  0  0  0  0  0  0  0  0  0  0
  140.5610   73.0780  221.9950 C   0  0  2  0  0  0  0  0  0  0  0  0
  140.7260   72.5710  223.2740 O   0  0  0  0  0  0  0  0  0  0  0  0
  139.3380   74.0070  221.9040 C   0  0  1  0  0  0  0  0  0  0  0  0
  139.8280   75.3870  221.4490 C   0  0  0  0  0  0  0  0  0  0  0  0
  140.1690   76.2150  222.4800 O   0  0  0  0  0  0  0  0  0  0  0  0
  139.5290   77.4190  222.5620 C   0  0  0  0  0  0  0  0  0  0  0  0
  140.3540   78.5780  222.8950 C   0  0  0  0  0  0  0  0  0  0  0  0
  139.8930   79.8070  223.3060 C   0  0  0  0  0  0  0  0  0  0  0  0
  140.7290   80.8630  223.6030 C   0  0  0  0  0  0  0  0  0  0  0  0
  142.0960   80.7190  223.4950 C   0  0  0  0  0  0  0  0  0  0  0  0
  142.5910   79.5010  223.0860 C   0  0  0  0  0  0  0  0  0  0  0  0
  141.7440   78.4560  222.7930 C   0  0  0  0  0  0  0  0  0  0  0  0
  138.0970   70.4250  223.6990 C   0  0  0  0  0  0  0  0  0  0  0  0
  138.0830   69.0500  223.8870 C   0  0  0  0  0  0  0  0  0  0  0  0
  138.8210   68.4830  224.9290 C   0  0  0  0  0  0  0  0  0  0  0  0
  139.5750   69.2700  225.7900 C   0  0  0  0  0  0  0  0  0  0  0  0
  140.3110   68.7450  226.8230 C   0  0  0  0  0  0  0  0  0  0  0  0
  141.0330   69.6040  227.6310 C   0  0  0  0  0  0  0  0  0  0  0  0
  141.7720   69.1150  228.6630 F   0  0  0  0  0  0  0  0  0  0  0  0
  141.0260   70.9600  227.4180 C   0  0  0  0  0  0  0  0  0  0  0  0
  140.2780   71.4820  226.3690 C   0  0  0  0  0  0  0  0  0  0  0  0
  139.5570   70.6380  225.5610 C   0  0  0  0  0  0  0  0  0  0  0  0
  138.8400   71.1380  224.5560 N   0  0  0  0  0  0  0  0  0  0  0  0
  137.2980   72.9570  223.6140 H   0  0  0  0  0  0  0  0  0  0  0  0
  135.4603   72.4359  221.3326 H   0  0  0  0  0  0  0  0  0  0  0  0
  135.7728   74.0084  222.1422 H   0  0  0  0  0  0  0  0  0  0  0  0
  139.0403   72.1202  219.2040 H   0  0  0  0  0  0  0  0  0  0  0  0
  140.1307   73.4566  219.3065 H   0  0  0  0  0  0  0  0  0  0  0  0
  139.7243   71.1662  221.3824 H   0  0  0  0  0  0  0  0  0  0  0  0
  141.2236   71.5082  220.5844 H   0  0  0  0  0  0  0  0  0  0  0  0
  141.5000   73.6126  221.7887 H   0  0  0  0  0  0  0  0  0  0  0  0
  139.9550   72.7610  223.8470 H   0  0  0  0  0  0  0  0  0  0  0  0
  138.7839   74.0967  222.8500 H   0  0  0  0  0  0  0  0  0  0  0  0
  140.7112   75.2482  220.8082 H   0  0  0  0  0  0  0  0  0  0  0  0
  138.9935   75.8649  220.9150 H   0  0  0  0  0  0  0  0  0  0  0  0
  139.0584   77.6137  221.5870 H   0  0  0  0  0  0  0  0  0  0  0  0
  138.8234   77.3155  223.3995 H   0  0  0  0  0  0  0  0  0  0  0  0
  138.8072   79.9545  223.4023 H   0  0  0  0  0  0  0  0  0  0  0  0
  140.3034   81.8241  223.9274 H   0  0  0  0  0  0  0  0  0  0  0  0
  142.7725   81.5542  223.7291 H   0  0  0  0  0  0  0  0  0  0  0  0
  143.6780   79.3610  222.9921 H   0  0  0  0  0  0  0  0  0  0  0  0
  142.1730   77.4963  222.4690 H   0  0  0  0  0  0  0  0  0  0  0  0
  137.4921   68.4080  223.2171 H   0  0  0  0  0  0  0  0  0  0  0  0
  138.8046   67.3922  225.0703 H   0  0  0  0  0  0  0  0  0  0  0  0
  140.3261   67.6602  227.0048 H   0  0  0  0  0  0  0  0  0  0  0  0
  141.6070   71.6275  228.0714 H   0  0  0  0  0  0  0  0  0  0  0  0
  140.2638   72.5668  226.1870 H   0  0  0  0  0  0  0  0  0  0  0  0
  1  2  2  0
  2  3  1  0
  3  4  1  0
  4  5  1  0
  5  6  2  0
  5  7  1  0
  7  8  1  0
  8  9  1  0
  9 10  1  0
 10 11  1  0
 10 12  1  0
 12 13  1  0
 13 14  1  0
 14 15  1  0
 15 16  1  0
 16 17  2  0
 17 18  1  0
 18 19  2  0
 19 20  1  0
 20 21  2  0
  2 22  1  0
 22 23  2  0
 23 24  1  0
 24 25  2  0
 25 26  1  0
 26 27  2  0
 27 28  1  0
 27 29  1  0
 29 30  2  0
 30 31  1  0
 31 32  2  0
 12  7  1  0
 21 16  1  0
 32 22  1  0
 31 25  1  0
  3 33  1  0
  4 34  1  0
  4 35  1  0
  8 36  1  0
  8 37  1  0
  9 38  1  0
  9 39  1  0
 10 40  1  6
 11 41  1  0
 12 42  1  1
 13 43  1  0
 13 44  1  0
 15 45  1  0
 15 46  1  0
 17 47  1  0
 18 48  1  0
 19 49  1  0
 20 50  1  0
 21 51  1  0
 23 52  1  0
 24 53  1  0
 26 54  1  0
 29 55  1  0
 30 56  1  0
M  END
>  <smiles>  (47) 
O=C(NCC(=O)N1CC[C@H](O)[C@H]1COCc1ccccc1)c1ccc2cc(F)ccc2n1

>  <score_type>  (47) 
oracle

>  <origin>  (47) 
autodockgpu

>  <m_score__min__energy>  (47) 
-8.9700000000000006

>  <m_primary>  (47) 
energy

>  <rmsd>  (47) 
3.2893851838428723

>  <m_score__min__rmsd>  (47) 
3.2893851838428723

>  <meeko>  (47) 
{"free_energy": -7.4, "intermolecular_energy": -10.08, "internal_energy": -2.78, "cluster_size": 27, "cluster_id": 1, "rank_in_cluster": 26}

>  <energy>  (47) 
-7.51

>  <cluster_rmsd>  (47) 
0.0

>  <cluster>  (47) 
6

$$$$

     RDKit          3D

 56 59  0  0  0  0  0  0  0  0999 V2000
  138.4540   75.4600  221.5070 O   0  0  0  0  0  0  0  0  0  0  0  0
  139.6520   75.8080  221.6570 C   0  0  0  0  0  0  0  0  0  0  0  0
  140.7570   74.9870  221.2990 N   0  0  0  0  0  0  0  0  0  0  0  0
  140.5300   73.6690  220.7280 C   0  0  0  0  0  0  0  0  0  0  0  0
  141.6370   72.7630  221.1240 C   0  0  0  0  0  0  0  0  0  0  0  0
  141.4290   72.0050  222.1050 O   0  0  0  0  0  0  0  0  0  0  0  0
  142.8570   72.7890  220.3940 N   0  0  0  0  0  0  0  0  0  0  0  0
  143.2710   71.8090  219.3760 C   0  0  0  0  0  0  0  0  0  0  0  0
  144.6760   71.5220  219.8630 C   0  0  0  0  0  0  0  0  0  0  0  0
  145.1800   72.9330  220.0720 C   0  0  2  0  0  0  0  0  0  0  0  0
  146.1780   73.0070  221.0300 O   0  0  0  0  0  0  0  0  0  0  0  0
  143.9410   73.7490  220.4760 C   0  0  1  0  0  0  0  0  0  0  0  0
  143.7000   74.8080  219.3920 C   0  0  0  0  0  0  0  0  0  0  0  0
  143.0320   75.9110  219.8430 O   0  0  0  0  0  0  0  0  0  0  0  0
  143.0430   77.0230  219.0500 C   0  0  0  0  0  0  0  0  0  0  0  0
  141.9130   77.9380  219.1880 C   0  0  0  0  0  0  0  0  0  0  0  0
  141.9850   79.2660  219.5350 C   0  0  0  0  0  0  0  0  0  0  0  0
  140.8740   80.0760  219.6500 C   0  0  0  0  0  0  0  0  0  0  0  0
  139.6150   79.5650  219.4150 C   0  0  0  0  0  0  0  0  0  0  0  0
  139.5060   78.2380  219.0660 C   0  0  0  0  0  0  0  0  0  0  0  0
  140.6250   77.4420  218.9540 C   0  0  0  0  0  0  0  0  0  0  0  0
  139.9630   77.1300  222.2300 C   0  0  0  0  0  0  0  0  0  0  0  0
  138.9560   77.9460  222.7280 C   0  0  0  0  0  0  0  0  0  0  0  0
  139.2750   79.1950  223.2660 C   0  0  0  0  0  0  0  0  0  0  0  0
  140.5880   79.6440  223.3160 C   0  0  0  0  0  0  0  0  0  0  0  0
  140.9370   80.8650  223.8380 C   0  0  0  0  0  0  0  0  0  0  0  0
  142.2690   81.2310  223.8470 C   0  0  0  0  0  0  0  0  0  0  0  0
  142.6470   82.4350  224.3570 F   0  0  0  0  0  0  0  0  0  0  0  0
  143.2410   80.4010  223.3460 C   0  0  0  0  0  0  0  0  0  0  0  0
  142.8800   79.1660  222.8190 C   0  0  0  0  0  0  0  0  0  0  0  0
  141.5580   78.7930  222.8060 C   0  0  0  0  0  0  0  0  0  0  0  0
  141.2110   77.6100  222.3020 N   0  0  0  0  0  0  0  0  0  0  0  0
  141.7450   75.3240  221.4440 H   0  0  0  0  0  0  0  0  0  0  0  0
  139.5760   73.2672  221.1000 H   0  0  0  0  0  0  0  0  0  0  0  0
  140.4919   73.7452  219.6313 H   0  0  0  0  0  0  0  0  0  0  0  0
  142.6391   70.9087  219.3920 H   0  0  0  0  0  0  0  0  0  0  0  0
  143.1979   72.1560  218.3347 H   0  0  0  0  0  0  0  0  0  0  0  0
  144.6727   70.9474  220.8010 H   0  0  0  0  0  0  0  0  0  0  0  0
  145.2850   70.9107  219.1809 H   0  0  0  0  0  0  0  0  0  0  0  0
  145.6492   73.3238  219.1571 H   0  0  0  0  0  0  0  0  0  0  0  0
  146.2130   72.2010  221.5870 H   0  0  0  0  0  0  0  0  0  0  0  0
  144.0357   74.2311  221.4602 H   0  0  0  0  0  0  0  0  0  0  0  0
  144.6751   75.1294  218.9972 H   0  0  0  0  0  0  0  0  0  0  0  0
  143.0690   74.3420  218.6209 H   0  0  0  0  0  0  0  0  0  0  0  0
  143.9588   77.5873  219.2798 H   0  0  0  0  0  0  0  0  0  0  0  0
  142.9837   76.6437  218.0192 H   0  0  0  0  0  0  0  0  0  0  0  0
  142.9751   79.7037  219.7302 H   0  0  0  0  0  0  0  0  0  0  0  0
  140.9930   81.1331  219.9301 H   0  0  0  0  0  0  0  0  0  0  0  0
  138.7218   80.2008  219.5040 H   0  0  0  0  0  0  0  0  0  0  0  0
  138.5122   77.8073  218.8739 H   0  0  0  0  0  0  0  0  0  0  0  0
  140.5027   76.3857  218.6724 H   0  0  0  0  0  0  0  0  0  0  0  0
  137.9091   77.6096  222.6989 H   0  0  0  0  0  0  0  0  0  0  0  0
  138.4707   79.8351  223.6576 H   0  0  0  0  0  0  0  0  0  0  0  0
  140.1687   81.5405  224.2423 H   0  0  0  0  0  0  0  0  0  0  0  0
  144.2965   80.7104  223.3613 H   0  0  0  0  0  0  0  0  0  0  0  0
  143.6489   78.4913  222.4147 H   0  0  0  0  0  0  0  0  0  0  0  0
  1  2  2  0
  2  3  1  0
  3  4  1  0
  4  5  1  0
  5  6  2  0
  5  7  1  0
  7  8  1  0
  8  9  1  0
  9 10  1  0
 10 11  1  0
 10 12  1  0
 12 13  1  0
 13 14  1  0
 14 15  1  0
 15 16  1  0
 16 17  2  0
 17 18  1  0
 18 19  2  0
 19 20  1  0
 20 21  2  0
  2 22  1  0
 22 23  2  0
 23 24  1  0
 24 25  2  0
 25 26  1  0
 26 27  2  0
 27 28  1  0
 27 29  1  0
 29 30  2  0
 30 31  1  0
 31 32  2  0
 12  7  1  0
 21 16  1  0
 32 22  1  0
 31 25  1  0
  3 33  1  0
  4 34  1  0
  4 35  1  0
  8 36  1  0
  8 37  1  0
  9 38  1  0
  9 39  1  0
 10 40  1  6
 11 41  1  0
 12 42  1  1
 13 43  1  0
 13 44  1  0
 15 45  1  0
 15 46  1  0
 17 47  1  0
 18 48  1  0
 19 49  1  0
 20 50  1  0
 21 51  1  0
 23 52  1  0
 24 53  1  0
 26 54  1  0
 29 55  1  0
 30 56  1  0
M  END
>  <smiles>  (48) 
O=C(NCC(=O)N1CC[C@H](O)[C@H]1COCc1ccccc1)c1ccc2cc(F)ccc2n1

>  <score_type>  (48) 
oracle

>  <origin>  (48) 
autodockgpu

>  <m_score__min__energy>  (48) 
-8.9700000000000006

>  <m_primary>  (48) 
energy

>  <rmsd>  (48) 
7.851500941177615

>  <m_score__min__rmsd>  (48) 
7.851500941177615

>  <meeko>  (48) 
{"free_energy": -6.31, "intermolecular_energy": -9.0, "internal_energy": -3.95, "cluster_size": 2, "cluster_id": 8, "rank_in_cluster": 1}

>  <energy>  (48) 
-6.79

>  <cluster_rmsd>  (48) 
0.0

>  <cluster>  (48) 
7

$$$$

     RDKit          3D

 56 59  0  0  0  0  0  0  0  0999 V2000
  140.8140   71.7440  221.0790 O   0  0  0  0  0  0  0  0  0  0  0  0
  140.3040   72.2390  222.1160 C   0  0  0  0  0  0  0  0  0  0  0  0
  139.8870   73.5950  222.2130 N   0  0  0  0  0  0  0  0  0  0  0  0
  140.0420   74.4880  221.0760 C   0  0  0  0  0  0  0  0  0  0  0  0
  140.0590   75.8940  221.5520 C   0  0  0  0  0  0  0  0  0  0  0  0
  139.6320   76.1050  222.7160 O   0  0  0  0  0  0  0  0  0  0  0  0
  140.5460   76.9170  220.6940 N   0  0  0  0  0  0  0  0  0  0  0  0
  139.8000   77.5410  219.5900 C   0  0  0  0  0  0  0  0  0  0  0  0
  140.8450   77.4480  218.4980 C   0  0  0  0  0  0  0  0  0  0  0  0
  142.0520   77.9810  219.2370 C   0  0  2  0  0  0  0  0  0  0  0  0
  143.2460   77.4940  218.7300 O   0  0  0  0  0  0  0  0  0  0  0  0
  141.8450   77.5640  220.7030 C   0  0  1  0  0  0  0  0  0  0  0  0
  141.7160   78.8410  221.5430 C   0  0  0  0  0  0  0  0  0  0  0  0
  142.2160   78.7180  222.8080 O   0  0  0  0  0  0  0  0  0  0  0  0
  141.4700   79.2250  223.8330 C   0  0  0  0  0  0  0  0  0  0  0  0
  140.1450   79.7350  223.4910 C   0  0  0  0  0  0  0  0  0  0  0  0
  138.9800   79.0050  223.4640 C   0  0  0  0  0  0  0  0  0  0  0  0
  137.7580   79.5510  223.1280 C   0  0  0  0  0  0  0  0  0  0  0  0
  137.6600   80.8860  222.7970 C   0  0  0  0  0  0  0  0  0  0  0  0
  138.8080   81.6460  222.8140 C   0  0  0  0  0  0  0  0  0  0  0  0
  140.0210   81.0870  223.1520 C   0  0  0  0  0  0  0  0  0  0  0  0
  140.1130   71.3960  223.3100 C   0  0  0  0  0  0  0  0  0  0  0  0
  139.4850   70.1620  223.2190 C   0  0  0  0  0  0  0  0  0  0  0  0
  139.3160   69.3800  224.3650 C   0  0  0  0  0  0  0  0  0  0  0  0
  139.7670   69.8140  225.6050 C   0  0  0  0  0  0  0  0  0  0  0  0
  139.6170   69.0720  226.7500 C   0  0  0  0  0  0  0  0  0  0  0  0
  140.0970   69.5810  227.9420 C   0  0  0  0  0  0  0  0  0  0  0  0
  139.9640   68.8710  229.0950 F   0  0  0  0  0  0  0  0  0  0  0  0
  140.7130   70.8070  227.9990 C   0  0  0  0  0  0  0  0  0  0  0  0
  140.8600   71.5510  226.8340 C   0  0  0  0  0  0  0  0  0  0  0  0
  140.3880   71.0540  225.6440 C   0  0  0  0  0  0  0  0  0  0  0  0
  140.5290   71.7660  224.5280 N   0  0  0  0  0  0  0  0  0  0  0  0
  139.4630   73.9640  223.1050 H   0  0  0  0  0  0  0  0  0  0  0  0
  140.9870   74.2639  220.5596 H   0  0  0  0  0  0  0  0  0  0  0  0
  139.2021   74.3459  220.3800 H   0  0  0  0  0  0  0  0  0  0  0  0
  138.8912   76.9751  219.3375 H   0  0  0  0  0  0  0  0  0  0  0  0
  139.4240   78.5546  219.7931 H   0  0  0  0  0  0  0  0  0  0  0  0
  140.9961   76.4103  218.1659 H   0  0  0  0  0  0  0  0  0  0  0  0
  140.5949   77.9877  217.5727 H   0  0  0  0  0  0  0  0  0  0  0  0
  142.1315   79.0726  219.1267 H   0  0  0  0  0  0  0  0  0  0  0  0
  143.9840   77.5930  219.3670 H   0  0  0  0  0  0  0  0  0  0  0  0
  142.6550   76.9332  221.0978 H   0  0  0  0  0  0  0  0  0  0  0  0
  142.2592   79.6495  221.0318 H   0  0  0  0  0  0  0  0  0  0  0  0
  140.6414   79.0545  221.6410 H   0  0  0  0  0  0  0  0  0  0  0  0
  141.3374   78.4248  224.5761 H   0  0  0  0  0  0  0  0  0  0  0  0
  142.0316   80.0993  224.1939 H   0  0  0  0  0  0  0  0  0  0  0  0
  139.0242   77.9366  223.7221 H   0  0  0  0  0  0  0  0  0  0  0  0
  136.8581   78.9184  223.1242 H   0  0  0  0  0  0  0  0  0  0  0  0
  136.6913   81.3316  222.5268 H   0  0  0  0  0  0  0  0  0  0  0  0
  138.7560   82.7136  222.5543 H   0  0  0  0  0  0  0  0  0  0  0  0
  140.9189   81.7225  223.1555 H   0  0  0  0  0  0  0  0  0  0  0  0
  139.1207   69.7998  222.2463 H   0  0  0  0  0  0  0  0  0  0  0  0
  138.8168   68.4032  224.2835 H   0  0  0  0  0  0  0  0  0  0  0  0
  139.1234   68.0894  226.7195 H   0  0  0  0  0  0  0  0  0  0  0  0
  141.0866   71.1966  228.9574 H   0  0  0  0  0  0  0  0  0  0  0  0
  141.3525   72.5341  226.8652 H   0  0  0  0  0  0  0  0  0  0  0  0
  1  2  2  0
  2  3  1  0
  3  4  1  0
  4  5  1  0
  5  6  2  0
  5  7  1  0
  7  8  1  0
  8  9  1  0
  9 10  1  0
 10 11  1  0
 10 12  1  0
 12 13  1  0
 13 14  1  0
 14 15  1  0
 15 16  1  0
 16 17  2  0
 17 18  1  0
 18 19  2  0
 19 20  1  0
 20 21  2  0
  2 22  1  0
 22 23  2  0
 23 24  1  0
 24 25  2  0
 25 26  1  0
 26 27  2  0
 27 28  1  0
 27 29  1  0
 29 30  2  0
 30 31  1  0
 31 32  2  0
 12  7  1  0
 21 16  1  0
 32 22  1  0
 31 25  1  0
  3 33  1  0
  4 34  1  0
  4 35  1  0
  8 36  1  0
  8 37  1  0
  9 38  1  0
  9 39  1  0
 10 40  1  1
 11 41  1  0
 12 42  1  1
 13 43  1  0
 13 44  1  0
 15 45  1  0
 15 46  1  0
 17 47  1  0
 18 48  1  0
 19 49  1  0
 20 50  1  0
 21 51  1  0
 23 52  1  0
 24 53  1  0
 26 54  1  0
 29 55  1  0
 30 56  1  0
M  END
>  <smiles>  (49) 
O=C(NCC(=O)N1CC[C@H](O)[C@H]1COCc1ccccc1)c1ccc2cc(F)ccc2n1

>  <score_type>  (49) 
oracle

>  <origin>  (49) 
autodockgpu

>  <m_score__min__energy>  (49) 
-8.9700000000000006

>  <m_primary>  (49) 
energy

>  <rmsd>  (49) 
2.21012817908886

>  <m_score__min__rmsd>  (49) 
2.21012817908886

>  <meeko>  (49) 
{"free_energy": -7.96, "intermolecular_energy": -10.64, "internal_energy": -2.32, "cluster_size": 27, "cluster_id": 1, "rank_in_cluster": 21}

>  <energy>  (49) 
-6.31

>  <cluster_rmsd>  (49) 
0.0

>  <cluster>  (49) 
8

$$$$

     RDKit          3D

 56 59  0  0  0  0  0  0  0  0999 V2000
  136.9970   70.4820  221.5540 O   0  0  0  0  0  0  0  0  0  0  0  0
  137.3180   71.1600  222.5620 C   0  0  0  0  0  0  0  0  0  0  0  0
  137.0200   72.5430  222.7020 N   0  0  0  0  0  0  0  0  0  0  0  0
  136.3090   73.2460  221.6460 C   0  0  0  0  0  0  0  0  0  0  0  0
  137.2740   73.6780  220.6040 C   0  0  0  0  0  0  0  0  0  0  0  0
  136.7980   74.2540  219.5930 O   0  0  0  0  0  0  0  0  0  0  0  0
  138.6620   73.4300  220.7900 N   0  0  0  0  0  0  0  0  0  0  0  0
  139.4740   72.4760  220.0180 C   0  0  0  0  0  0  0  0  0  0  0  0
  140.1680   71.7600  221.1580 C   0  0  0  0  0  0  0  0  0  0  0  0
  140.6300   72.9450  221.9770 C   0  0  2  0  0  0  0  0  0  0  0  0
  140.7710   72.6420  223.3220 O   0  0  0  0  0  0  0  0  0  0  0  0
  139.5690   74.0340  221.7460 C   0  0  1  0  0  0  0  0  0  0  0  0
  140.2520   75.2170  221.0480 C   0  0  0  0  0  0  0  0  0  0  0  0
  139.9710   76.4260  221.6180 O   0  0  0  0  0  0  0  0  0  0  0  0
  140.7430   76.8210  222.6730 C   0  0  0  0  0  0  0  0  0  0  0  0
  141.2800   78.1790  222.6200 C   0  0  0  0  0  0  0  0  0  0  0  0
  141.3880   78.9620  221.4950 C   0  0  0  0  0  0  0  0  0  0  0  0
  141.9080   80.2390  221.5150 C   0  0  0  0  0  0  0  0  0  0  0  0
  142.3520   80.7920  222.6980 C   0  0  0  0  0  0  0  0  0  0  0  0
  142.2580   80.0340  223.8440 C   0  0  0  0  0  0  0  0  0  0  0  0
  141.7360   78.7600  223.8090 C   0  0  0  0  0  0  0  0  0  0  0  0
  138.0410   70.5180  223.6740 C   0  0  0  0  0  0  0  0  0  0  0  0
  137.9020   69.1600  223.9250 C   0  0  0  0  0  0  0  0  0  0  0  0
  138.5980   68.5730  224.9850 C   0  0  0  0  0  0  0  0  0  0  0  0
  139.4330   69.3240  225.8020 C   0  0  0  0  0  0  0  0  0  0  0  0
  140.1310   68.7810  226.8520 C   0  0  0  0  0  0  0  0  0  0  0  0
  140.9400   69.6030  227.6120 C   0  0  0  0  0  0  0  0  0  0  0  0
  141.6440   69.0950  228.6600 F   0  0  0  0  0  0  0  0  0  0  0  0
  141.0550   70.9430  227.3380 C   0  0  0  0  0  0  0  0  0  0  0  0
  140.3450   71.4860  226.2740 C   0  0  0  0  0  0  0  0  0  0  0  0
  139.5380   70.6770  225.5110 C   0  0  0  0  0  0  0  0  0  0  0  0
  138.8580   71.1960  224.4900 N   0  0  0  0  0  0  0  0  0  0  0  0
  137.3110   73.0700  223.5680 H   0  0  0  0  0  0  0  0  0  0  0  0
  135.5610   72.5754  221.1979 H   0  0  0  0  0  0  0  0  0  0  0  0
  135.8043   74.1279  222.0673 H   0  0  0  0  0  0  0  0  0  0  0  0
  138.8498   71.7927  219.4235 H   0  0  0  0  0  0  0  0  0  0  0  0
  140.1438   72.9276  219.2714 H   0  0  0  0  0  0  0  0  0  0  0  0
  139.4720   71.1216  221.7219 H   0  0  0  0  0  0  0  0  0  0  0  0
  140.9688   71.0712  220.8508 H   0  0  0  0  0  0  0  0  0  0  0  0
  141.6319   73.2744  221.6643 H   0  0  0  0  0  0  0  0  0  0  0  0
  139.9820   72.9040  223.8420 H   0  0  0  0  0  0  0  0  0  0  0  0
  139.0802   74.3733  222.6712 H   0  0  0  0  0  0  0  0  0  0  0  0
  141.3402   75.0605  221.0838 H   0  0  0  0  0  0  0  0  0  0  0  0
  139.8669   75.2492  220.0181 H   0  0  0  0  0  0  0  0  0  0  0  0
  140.1306   76.7398  223.5832 H   0  0  0  0  0  0  0  0  0  0  0  0
  141.6226   76.1608  222.6513 H   0  0  0  0  0  0  0  0  0  0  0  0
  141.0437   78.5508  220.5346 H   0  0  0  0  0  0  0  0  0  0  0  0
  141.9690   80.8196  220.5827 H   0  0  0  0  0  0  0  0  0  0  0  0
  142.7693   81.8094  222.7254 H   0  0  0  0  0  0  0  0  0  0  0  0
  142.6047   80.4519  224.8006 H   0  0  0  0  0  0  0  0  0  0  0  0
  141.6756   78.1820  224.7430 H   0  0  0  0  0  0  0  0  0  0  0  0
  137.2450   68.5469  223.2906 H   0  0  0  0  0  0  0  0  0  0  0  0
  138.4824   67.4959  225.1759 H   0  0  0  0  0  0  0  0  0  0  0  0
  140.0474   67.7090  227.0842 H   0  0  0  0  0  0  0  0  0  0  0  0
  141.7037   71.5817  227.9554 H   0  0  0  0  0  0  0  0  0  0  0  0
  140.4287   72.5584  226.0437 H   0  0  0  0  0  0  0  0  0  0  0  0
  1  2  2  0
  2  3  1  0
  3  4  1  0
  4  5  1  0
  5  6  2  0
  5  7  1  0
  7  8  1  0
  8  9  1  0
  9 10  1  0
 10 11  1  0
 10 12  1  0
 12 13  1  0
 13 14  1  0
 14 15  1  0
 15 16  1  0
 16 17  2  0
 17 18  1  0
 18 19  2  0
 19 20  1  0
 20 21  2  0
  2 22  1  0
 22 23  2  0
 23 24  1  0
 24 25  2  0
 25 26  1  0
 26 27  2  0
 27 28  1  0
 27 29  1  0
 29 30  2  0
 30 31  1  0
 31 32  2  0
 12  7  1  0
 21 16  1  0
 32 22  1  0
 31 25  1  0
  3 33  1  0
  4 34  1  0
  4 35  1  0
  8 36  1  0
  8 37  1  0
  9 38  1  0
  9 39  1  0
 10 40  1  6
 11 41  1  0
 12 42  1  1
 13 43  1  0
 13 44  1  0
 15 45  1  0
 15 46  1  0
 17 47  1  0
 18 48  1  0
 19 49  1  0
 20 50  1  0
 21 51  1  0
 23 52  1  0
 24 53  1  0
 26 54  1  0
 29 55  1  0
 30 56  1  0
M  END
>  <smiles>  (50) 
O=C(NCC(=O)N1CC[C@H](O)[C@H]1COCc1ccccc1)c1ccc2cc(F)ccc2n1

>  <score_type>  (50) 
oracle

>  <origin>  (50) 
autodockgpu

>  <m_score__min__energy>  (50) 
-8.9700000000000006

>  <m_primary>  (50) 
energy

>  <rmsd>  (50) 
3.280000033863308

>  <m_score__min__rmsd>  (50) 
3.280000033863308

>  <meeko>  (50) 
{"free_energy": -7.27, "intermolecular_energy": -9.96, "internal_energy": -2.79, "cluster_size": 27, "cluster_id": 1, "rank_in_cluster": 27}

>  <energy>  (50) 
-6.19

>  <cluster_rmsd>  (50) 
0.69

>  <cluster>  (50) 
8

$$$$
