
     RDKit          3D

 68 73  0  0  0  0  0  0  0  0999 V2000
  146.3760   73.3420  221.8450 C   0  0  0  0  0  0  0  0  0  0  0  0
  145.9840   74.1300  220.6300 C   0  0  0  0  0  0  0  0  0  0  0  0
  146.2140   73.3930  219.4240 N   0  0  0  0  0  0  0  0  0  0  0  0
  145.0520   72.7090  218.9180 C   0  0  2  0  0  0  0  0  0  0  0  0
  143.8490   73.2460  219.6190 C   0  0  0  0  0  0  0  0  0  0  0  0
  143.0040   72.2430  220.2220 N   0  0  0  0  0  0  0  0  0  0  0  0
  141.9640   72.6920  221.0940 C   0  0  0  0  0  0  0  0  0  0  0  0
  141.5400   73.9860  221.0580 N   0  0  0  0  0  0  0  0  0  0  0  0
  140.5720   74.4570  221.8490 C   0  0  0  0  0  0  0  0  0  0  0  0
  140.2200   75.8400  221.7130 N   0  0  0  0  0  0  0  0  0  0  0  0
  138.8750   76.2390  222.0700 C   0  0  0  0  0  0  0  0  0  0  0  0
  138.5300   77.5370  221.3480 C   0  0  0  0  0  0  0  0  0  0  0  0
  139.5320   78.5370  221.8360 C   0  0  0  0  0  0  0  0  0  0  0  0
  139.1520   79.7690  222.3220 C   0  0  0  0  0  0  0  0  0  0  0  0
  140.1250   80.6420  222.7550 C   0  0  0  0  0  0  0  0  0  0  0  0
  141.4520   80.2630  222.6910 C   0  0  0  0  0  0  0  0  0  0  0  0
  141.8090   79.0290  222.2030 C   0  0  0  0  0  0  0  0  0  0  0  0
  140.8610   78.1370  221.7650 C   0  0  0  0  0  0  0  0  0  0  0  0
  141.2230   76.7800  221.2260 C   0  0  0  0  0  0  0  0  0  0  0  0
  139.9840   73.6390  222.7190 N   0  0  0  0  0  0  0  0  0  0  0  0
  140.3930   72.3450  222.7680 C   0  0  0  0  0  0  0  0  0  0  0  0
  139.7880   71.4160  223.6930 N   0  0  0  0  0  0  0  0  0  0  0  0
  138.7200   70.5280  223.2790 C   0  0  0  0  0  0  0  0  0  0  0  0
  139.1680   69.0970  223.4840 C   0  0  0  0  0  0  0  0  0  0  0  0
  139.4840   68.9650  224.9360 C   0  0  0  0  0  0  0  0  0  0  0  0
  139.2560   67.7440  225.5310 C   0  0  0  0  0  0  0  0  0  0  0  0
  139.5200   67.5250  226.8770 C   0  0  0  0  0  0  0  0  0  0  0  0
  140.0260   68.5930  227.6030 C   0  0  0  0  0  0  0  0  0  0  0  0
  140.2520   69.8240  226.9840 C   0  0  0  0  0  0  0  0  0  0  0  0
  139.9880   70.0270  225.6620 C   0  0  0  0  0  0  0  0  0  0  0  0
  140.2500   71.3600  225.0630 C   0  0  0  0  0  0  0  0  0  0  0  0
  141.3690   71.8740  221.9710 N   0  0  0  0  0  0  0  0  0  0  0  0
  143.1530   70.8190  219.9960 C   0  0  0  0  0  0  0  0  0  0  0  0
  144.0530   70.6320  218.8160 C   0  0  0  0  0  0  0  0  0  0  0  0
  145.2250   71.3510  219.0390 O   0  0  0  0  0  0  0  0  0  0  0  0
  146.0977   73.9014  222.7503 H   0  0  0  0  0  0  0  0  0  0  0  0
  145.8547   72.3734  221.8377 H   0  0  0  0  0  0  0  0  0  0  0  0
  147.4630   73.1735  221.8377 H   0  0  0  0  0  0  0  0  0  0  0  0
  144.9148   74.3798  220.6968 H   0  0  0  0  0  0  0  0  0  0  0  0
  146.6002   75.0406  220.5983 H   0  0  0  0  0  0  0  0  0  0  0  0
  147.0920   72.8620  219.3920 H   0  0  0  0  0  0  0  0  0  0  0  0
  144.9024   72.8903  217.8434 H   0  0  0  0  0  0  0  0  0  0  0  0
  144.1904   73.9280  220.4117 H   0  0  0  0  0  0  0  0  0  0  0  0
  143.2393   73.7451  218.8514 H   0  0  0  0  0  0  0  0  0  0  0  0
  138.1663   75.4523  221.7719 H   0  0  0  0  0  0  0  0  0  0  0  0
  138.8108   76.3921  223.1574 H   0  0  0  0  0  0  0  0  0  0  0  0
  138.6143   77.4066  220.2590 H   0  0  0  0  0  0  0  0  0  0  0  0
  137.4975   77.8577  221.5505 H   0  0  0  0  0  0  0  0  0  0  0  0
  138.0894   80.0504  222.3634 H   0  0  0  0  0  0  0  0  0  0  0  0
  139.8484   81.6314  223.1480 H   0  0  0  0  0  0  0  0  0  0  0  0
  142.2325   80.9577  223.0349 H   0  0  0  0  0  0  0  0  0  0  0  0
  142.8725   78.7508  222.1625 H   0  0  0  0  0  0  0  0  0  0  0  0
  141.2196   76.7983  220.1262 H   0  0  0  0  0  0  0  0  0  0  0  0
  142.2290   76.4839  221.5582 H   0  0  0  0  0  0  0  0  0  0  0  0
  137.8215   70.7241  223.8825 H   0  0  0  0  0  0  0  0  0  0  0  0
  138.4836   70.6971  222.2181 H   0  0  0  0  0  0  0  0  0  0  0  0
  138.3632   68.4014  223.2039 H   0  0  0  0  0  0  0  0  0  0  0  0
  140.0412   68.8565  222.8598 H   0  0  0  0  0  0  0  0  0  0  0  0
  138.8538   66.9197  224.9237 H   0  0  0  0  0  0  0  0  0  0  0  0
  139.3359   66.5474  227.3465 H   0  0  0  0  0  0  0  0  0  0  0  0
  140.2506   68.4695  228.6727 H   0  0  0  0  0  0  0  0  0  0  0  0
  140.6553   70.6552  227.5811 H   0  0  0  0  0  0  0  0  0  0  0  0
  139.7249   72.1273  225.6508 H   0  0  0  0  0  0  0  0  0  0  0  0
  141.3351   71.5401  225.0731 H   0  0  0  0  0  0  0  0  0  0  0  0
  143.5969   70.3443  220.8835 H   0  0  0  0  0  0  0  0  0  0  0  0
  142.1729   70.3566  219.8073 H   0  0  0  0  0  0  0  0  0  0  0  0
  144.2893   69.5646  218.6944 H   0  0  0  0  0  0  0  0  0  0  0  0
  143.5574   70.9909  217.9019 H   0  0  0  0  0  0  0  0  0  0  0  0
  1  2  1  0
  2  3  1  0
  3  4  1  0
  4  5  1  0
  5  6  1  0
  6  7  1  0
  7  8  2  0
  8  9  1  0
  9 10  1  0
 10 11  1  0
 11 12  1  0
 12 13  1  0
 13 14  2  0
 14 15  1  0
 15 16  2  0
 16 17  1  0
 17 18  2  0
 18 19  1  0
  9 20  2  0
 20 21  1  0
 21 22  1  0
 22 23  1  0
 23 24  1  0
 24 25  1  0
 25 26  2  0
 26 27  1  0
 27 28  2  0
 28 29  1  0
 29 30  2  0
 30 31  1  0
 21 32  2  0
  6 33  1  0
 33 34  1  0
 34 35  1  0
 35  4  1  0
 32  7  1  0
 19 10  1  0
 31 22  1  0
 18 13  1  0
 30 25  1  0
  1 36  1  0
  1 37  1  0
  1 38  1  0
  2 39  1  0
  2 40  1  0
  3 41  1  0
  4 42  1  6
  5 43  1  0
  5 44  1  0
 11 45  1  0
 11 46  1  0
 12 47  1  0
 12 48  1  0
 14 49  1  0
 15 50  1  0
 16 51  1  0
 17 52  1  0
 19 53  1  0
 19 54  1  0
 23 55  1  0
 23 56  1  0
 24 57  1  0
 24 58  1  0
 26 59  1  0
 27 60  1  0
 28 61  1  0
 29 62  1  0
 31 63  1  0
 31 64  1  0
 33 65  1  0
 33 66  1  0
 34 67  1  0
 34 68  1  0
M  END
>  <smiles>  (1) 
CCNC1CN(c2nc(N3CCc4ccccc4C3)nc(N3CCc4ccccc4C3)n2)CCO1

>  <score_type>  (1) 
oracle

>  <origin>  (1) 
autodockgpu

>  <m_score__min__energy>  (1) 
-10.48

>  <m_primary>  (1) 
energy

>  <rmsd>  (1) 
6.582538173265623

>  <m_score__min__rmsd>  (1) 
6.582538173265623

>  <meeko>  (1) 
{"free_energy": -9.83, "intermolecular_energy": -11.33, "internal_energy": -1.16, "cluster_size": 47, "cluster_id": 1, "rank_in_cluster": 36}

>  <energy>  (1) 
-10.48

>  <cluster_rmsd>  (1) 
0.0

>  <cluster>  (1) 
1

$$$$

     RDKit          3D

 68 73  0  0  0  0  0  0  0  0999 V2000
  145.9960   73.7740  221.3240 C   0  0  0  0  0  0  0  0  0  0  0  0
  146.3310   72.8910  220.1580 C   0  0  0  0  0  0  0  0  0  0  0  0
  145.8490   73.4390  218.9260 N   0  0  0  0  0  0  0  0  0  0  0  0
  144.6120   72.8620  218.4660 C   0  0  2  0  0  0  0  0  0  0  0  0
  143.5010   73.4070  219.2990 C   0  0  0  0  0  0  0  0  0  0  0  0
  142.6460   72.4080  219.8930 N   0  0  0  0  0  0  0  0  0  0  0  0
  141.7040   72.8440  220.8770 C   0  0  0  0  0  0  0  0  0  0  0  0
  141.3390   74.1530  220.9540 N   0  0  0  0  0  0  0  0  0  0  0  0
  140.4630   74.6130  221.8530 C   0  0  0  0  0  0  0  0  0  0  0  0
  140.1660   76.0150  221.8290 N   0  0  0  0  0  0  0  0  0  0  0  0
  138.8780   76.4460  222.3310 C   0  0  0  0  0  0  0  0  0  0  0  0
  138.5310   77.8000  221.7200 C   0  0  0  0  0  0  0  0  0  0  0  0
  139.6170   78.7250  222.1700 C   0  0  0  0  0  0  0  0  0  0  0  0
  139.3400   79.9390  222.7600 C   0  0  0  0  0  0  0  0  0  0  0  0
  140.3870   80.7440  223.1510 C   0  0  0  0  0  0  0  0  0  0  0  0
  141.6850   80.3150  222.9440 C   0  0  0  0  0  0  0  0  0  0  0  0
  141.9390   79.1000  222.3540 C   0  0  0  0  0  0  0  0  0  0  0  0
  140.9150   78.2760  221.9540 C   0  0  0  0  0  0  0  0  0  0  0  0
  141.1640   76.9410  221.3070 C   0  0  0  0  0  0  0  0  0  0  0  0
  139.9130   73.7670  222.7200 N   0  0  0  0  0  0  0  0  0  0  0  0
  140.2660   72.4560  222.6570 C   0  0  0  0  0  0  0  0  0  0  0  0
  139.6980   71.4970  223.5750 N   0  0  0  0  0  0  0  0  0  0  0  0
  138.6800   70.5580  223.1490 C   0  0  0  0  0  0  0  0  0  0  0  0
  139.1960   69.1510  223.3570 C   0  0  0  0  0  0  0  0  0  0  0  0
  139.5050   69.0310  224.8110 C   0  0  0  0  0  0  0  0  0  0  0  0
  139.3320   67.8000  225.4020 C   0  0  0  0  0  0  0  0  0  0  0  0
  139.5930   67.5910  226.7510 C   0  0  0  0  0  0  0  0  0  0  0  0
  140.0380   68.6830  227.4840 C   0  0  0  0  0  0  0  0  0  0  0  0
  140.2070   69.9240  226.8680 C   0  0  0  0  0  0  0  0  0  0  0  0
  139.9480   70.1170  225.5440 C   0  0  0  0  0  0  0  0  0  0  0  0
  140.1490   71.4620  224.9500 C   0  0  0  0  0  0  0  0  0  0  0  0
  141.1480   71.9970  221.7520 N   0  0  0  0  0  0  0  0  0  0  0  0
  142.6890   71.0000  219.5500 C   0  0  0  0  0  0  0  0  0  0  0  0
  143.4830   70.8580  218.2900 C   0  0  0  0  0  0  0  0  0  0  0  0
  144.7100   71.4910  218.4710 O   0  0  0  0  0  0  0  0  0  0  0  0
  146.2000   73.2363  222.2617 H   0  0  0  0  0  0  0  0  0  0  0  0
  146.6110   74.6851  221.2826 H   0  0  0  0  0  0  0  0  0  0  0  0
  144.9315   74.0479  221.2826 H   0  0  0  0  0  0  0  0  0  0  0  0
  147.4237   72.7805  220.0962 H   0  0  0  0  0  0  0  0  0  0  0  0
  145.8457   71.9162  220.3141 H   0  0  0  0  0  0  0  0  0  0  0  0
  146.5620   73.5970  218.2040 H   0  0  0  0  0  0  0  0  0  0  0  0
  144.3928   73.1358  217.4234 H   0  0  0  0  0  0  0  0  0  0  0  0
  143.9424   74.0058  220.1093 H   0  0  0  0  0  0  0  0  0  0  0  0
  142.8656   73.9964  218.6217 H   0  0  0  0  0  0  0  0  0  0  0  0
  138.1096   75.7092  222.0541 H   0  0  0  0  0  0  0  0  0  0  0  0
  138.9181   76.5336  223.4268 H   0  0  0  0  0  0  0  0  0  0  0  0
  138.5113   77.7338  220.6222 H   0  0  0  0  0  0  0  0  0  0  0  0
  137.5369   78.1500  222.0352 H   0  0  0  0  0  0  0  0  0  0  0  0
  138.2996   80.2601  222.9162 H   0  0  0  0  0  0  0  0  0  0  0  0
  140.1925   81.7183  223.6232 H   0  0  0  0  0  0  0  0  0  0  0  0
  142.5246   80.9539  223.2553 H   0  0  0  0  0  0  0  0  0  0  0  0
  142.9805   78.7817  222.1993 H   0  0  0  0  0  0  0  0  0  0  0  0
  141.0634   77.0270  220.2150 H   0  0  0  0  0  0  0  0  0  0  0  0
  142.1807   76.5840  221.5280 H   0  0  0  0  0  0  0  0  0  0  0  0
  137.7666   70.7083  223.7432 H   0  0  0  0  0  0  0  0  0  0  0  0
  138.4467   70.7169  222.0858 H   0  0  0  0  0  0  0  0  0  0  0  0
  138.4290   68.4172  223.0685 H   0  0  0  0  0  0  0  0  0  0  0  0
  140.0861   68.9557  222.7409 H   0  0  0  0  0  0  0  0  0  0  0  0
  138.9772   66.9580  224.7894 H   0  0  0  0  0  0  0  0  0  0  0  0
  139.4533   66.6045  227.2172 H   0  0  0  0  0  0  0  0  0  0  0  0
  140.2585   68.5695  228.5557 H   0  0  0  0  0  0  0  0  0  0  0  0
  140.5606   70.7736  227.4706 H   0  0  0  0  0  0  0  0  0  0  0  0
  139.5804   72.2011  225.5335 H   0  0  0  0  0  0  0  0  0  0  0  0
  141.2235   71.6964  224.9714 H   0  0  0  0  0  0  0  0  0  0  0  0
  143.1694   70.4323  220.3605 H   0  0  0  0  0  0  0  0  0  0  0  0
  141.6708   70.6089  219.4075 H   0  0  0  0  0  0  0  0  0  0  0  0
  143.6435   69.7923  218.0699 H   0  0  0  0  0  0  0  0  0  0  0  0
  142.9420   71.3151  217.4484 H   0  0  0  0  0  0  0  0  0  0  0  0
  1  2  1  0
  2  3  1  0
  3  4  1  0
  4  5  1  0
  5  6  1  0
  6  7  1  0
  7  8  2  0
  8  9  1  0
  9 10  1  0
 10 11  1  0
 11 12  1  0
 12 13  1  0
 13 14  2  0
 14 15  1  0
 15 16  2  0
 16 17  1  0
 17 18  2  0
 18 19  1  0
  9 20  2  0
 20 21  1  0
 21 22  1  0
 22 23  1  0
 23 24  1  0
 24 25  1  0
 25 26  2  0
 26 27  1  0
 27 28  2  0
 28 29  1  0
 29 30  2  0
 30 31  1  0
 21 32  2  0
  6 33  1  0
 33 34  1  0
 34 35  1  0
 35  4  1  0
 32  7  1  0
 19 10  1  0
 31 22  1  0
 18 13  1  0
 30 25  1  0
  1 36  1  0
  1 37  1  0
  1 38  1  0
  2 39  1  0
  2 40  1  0
  3 41  1  0
  4 42  1  6
  5 43  1  0
  5 44  1  0
 11 45  1  0
 11 46  1  0
 12 47  1  0
 12 48  1  0
 14 49  1  0
 15 50  1  0
 16 51  1  0
 17 52  1  0
 19 53  1  0
 19 54  1  0
 23 55  1  0
 23 56  1  0
 24 57  1  0
 24 58  1  0
 26 59  1  0
 27 60  1  0
 28 61  1  0
 29 62  1  0
 31 63  1  0
 31 64  1  0
 33 65  1  0
 33 66  1  0
 34 67  1  0
 34 68  1  0
M  END
>  <smiles>  (2) 
CCNC1CN(c2nc(N3CCc4ccccc4C3)nc(N3CCc4ccccc4C3)n2)CCO1

>  <score_type>  (2) 
oracle

>  <origin>  (2) 
autodockgpu

>  <m_score__min__energy>  (2) 
-10.48

>  <m_primary>  (2) 
energy

>  <rmsd>  (2) 
6.456268613964632

>  <m_score__min__rmsd>  (2) 
6.456268613964632

>  <meeko>  (2) 
{"free_energy": -9.93, "intermolecular_energy": -11.42, "internal_energy": -1.1, "cluster_size": 47, "cluster_id": 1, "rank_in_cluster": 21}

>  <energy>  (2) 
-10.47

>  <cluster_rmsd>  (2) 
0.14

>  <cluster>  (2) 
1

$$$$

     RDKit          3D

 68 73  0  0  0  0  0  0  0  0999 V2000
  146.4250   73.3960  222.0170 C   0  0  0  0  0  0  0  0  0  0  0  0
  146.3530   73.6880  220.5470 C   0  0  0  0  0  0  0  0  0  0  0  0
  146.3250   72.4860  219.7710 N   0  0  0  0  0  0  0  0  0  0  0  0
  145.1000   72.2830  219.0380 C   0  0  2  0  0  0  0  0  0  0  0  0
  143.9890   72.9300  219.7940 C   0  0  0  0  0  0  0  0  0  0  0  0
  142.8590   72.0710  220.0580 N   0  0  0  0  0  0  0  0  0  0  0  0
  141.8610   72.5510  220.9630 C   0  0  0  0  0  0  0  0  0  0  0  0
  141.3200   71.7230  221.8990 N   0  0  0  0  0  0  0  0  0  0  0  0
  140.3870   72.1190  222.7690 C   0  0  0  0  0  0  0  0  0  0  0  0
  139.8980   71.1480  223.7030 N   0  0  0  0  0  0  0  0  0  0  0  0
  139.1480   70.0230  223.1870 C   0  0  0  0  0  0  0  0  0  0  0  0
  138.2660   69.4570  224.2950 C   0  0  0  0  0  0  0  0  0  0  0  0
  139.2140   69.0210  225.3680 C   0  0  0  0  0  0  0  0  0  0  0  0
  139.1530   67.7610  225.9230 C   0  0  0  0  0  0  0  0  0  0  0  0
  140.0560   67.4240  226.9070 C   0  0  0  0  0  0  0  0  0  0  0  0
  140.9960   68.3530  227.3120 C   0  0  0  0  0  0  0  0  0  0  0  0
  141.0380   69.6040  226.7450 C   0  0  0  0  0  0  0  0  0  0  0  0
  140.1510   69.9690  225.7610 C   0  0  0  0  0  0  0  0  0  0  0  0
  140.1750   71.3310  225.1230 C   0  0  0  0  0  0  0  0  0  0  0  0
  139.9530   73.3760  222.7330 N   0  0  0  0  0  0  0  0  0  0  0  0
  140.4820   74.2170  221.8060 C   0  0  0  0  0  0  0  0  0  0  0  0
  140.0470   75.5910  221.7240 N   0  0  0  0  0  0  0  0  0  0  0  0
  138.6550   75.9290  221.5020 C   0  0  0  0  0  0  0  0  0  0  0  0
  138.1590   76.7480  222.6730 C   0  0  0  0  0  0  0  0  0  0  0  0
  139.0320   77.9560  222.7340 C   0  0  0  0  0  0  0  0  0  0  0  0
  138.4680   79.1300  223.1820 C   0  0  0  0  0  0  0  0  0  0  0  0
  139.2020   80.3060  223.2740 C   0  0  0  0  0  0  0  0  0  0  0  0
  140.5350   80.2500  222.8930 C   0  0  0  0  0  0  0  0  0  0  0  0
  141.0910   79.0510  222.4420 C   0  0  0  0  0  0  0  0  0  0  0  0
  140.3600   77.9030  222.3560 C   0  0  0  0  0  0  0  0  0  0  0  0
  141.0100   76.6610  221.8680 C   0  0  0  0  0  0  0  0  0  0  0  0
  141.4220   73.8140  220.9310 N   0  0  0  0  0  0  0  0  0  0  0  0
  142.6840   70.7610  219.4630 C   0  0  0  0  0  0  0  0  0  0  0  0
  143.6470   70.6400  218.3250 C   0  0  0  0  0  0  0  0  0  0  0  0
  144.9230   70.9420  218.7960 O   0  0  0  0  0  0  0  0  0  0  0  0
  146.1993   74.3111  222.5841 H   0  0  0  0  0  0  0  0  0  0  0  0
  145.6922   72.6164  222.2723 H   0  0  0  0  0  0  0  0  0  0  0  0
  147.4363   73.0464  222.2723 H   0  0  0  0  0  0  0  0  0  0  0  0
  145.4398   74.2661  220.3424 H   0  0  0  0  0  0  0  0  0  0  0  0
  147.2507   74.2579  220.2655 H   0  0  0  0  0  0  0  0  0  0  0  0
  146.7110   71.6530  220.2310 H   0  0  0  0  0  0  0  0  0  0  0  0
  145.1286   72.7574  218.0460 H   0  0  0  0  0  0  0  0  0  0  0  0
  144.3877   73.2779  220.7584 H   0  0  0  0  0  0  0  0  0  0  0  0
  143.6163   73.7478  219.1597 H   0  0  0  0  0  0  0  0  0  0  0  0
  138.5179   70.3545  222.3485 H   0  0  0  0  0  0  0  0  0  0  0  0
  139.8427   69.2463  222.8349 H   0  0  0  0  0  0  0  0  0  0  0  0
  137.5817   70.2295  224.6756 H   0  0  0  0  0  0  0  0  0  0  0  0
  137.6398   68.6263  223.9376 H   0  0  0  0  0  0  0  0  0  0  0  0
  138.3964   67.0371  225.5861 H   0  0  0  0  0  0  0  0  0  0  0  0
  140.0293   66.4248  227.3663 H   0  0  0  0  0  0  0  0  0  0  0  0
  141.7190   68.0877  228.0975 H   0  0  0  0  0  0  0  0  0  0  0  0
  141.7951   70.3260  227.0848 H   0  0  0  0  0  0  0  0  0  0  0  0
  139.4061   71.9733  225.5771 H   0  0  0  0  0  0  0  0  0  0  0  0
  141.1523   71.8138  225.2707 H   0  0  0  0  0  0  0  0  0  0  0  0
  138.5599   76.5139  220.5752 H   0  0  0  0  0  0  0  0  0  0  0  0
  138.0577   75.0100  221.4092 H   0  0  0  0  0  0  0  0  0  0  0  0
  137.1108   77.0423  222.5160 H   0  0  0  0  0  0  0  0  0  0  0  0
  138.2015   76.1744  223.6106 H   0  0  0  0  0  0  0  0  0  0  0  0
  137.4077   79.1367  223.4749 H   0  0  0  0  0  0  0  0  0  0  0  0
  138.7463   81.2405  223.6331 H   0  0  0  0  0  0  0  0  0  0  0  0
  141.1575   81.1554  222.9465 H   0  0  0  0  0  0  0  0  0  0  0  0
  142.1506   79.0320  222.1472 H   0  0  0  0  0  0  0  0  0  0  0  0
  141.4756   76.8591  220.8913 H   0  0  0  0  0  0  0  0  0  0  0  0
  141.7684   76.3519  222.6023 H   0  0  0  0  0  0  0  0  0  0  0  0
  142.8891   69.9806  220.2106 H   0  0  0  0  0  0  0  0  0  0  0  0
  141.6511   70.6377  219.1053 H   0  0  0  0  0  0  0  0  0  0  0  0
  143.6296   69.6131  217.9309 H   0  0  0  0  0  0  0  0  0  0  0  0
  143.3678   71.3330  217.5177 H   0  0  0  0  0  0  0  0  0  0  0  0
  1  2  1  0
  2  3  1  0
  3  4  1  0
  4  5  1  0
  5  6  1  0
  6  7  1  0
  7  8  2  0
  8  9  1  0
  9 10  1  0
 10 11  1  0
 11 12  1  0
 12 13  1  0
 13 14  2  0
 14 15  1  0
 15 16  2  0
 16 17  1  0
 17 18  2  0
 18 19  1  0
  9 20  2  0
 20 21  1  0
 21 22  1  0
 22 23  1  0
 23 24  1  0
 24 25  1  0
 25 26  2  0
 26 27  1  0
 27 28  2  0
 28 29  1  0
 29 30  2  0
 30 31  1  0
 21 32  2  0
  6 33  1  0
 33 34  1  0
 34 35  1  0
 35  4  1  0
 32  7  1  0
 19 10  1  0
 31 22  1  0
 18 13  1  0
 30 25  1  0
  1 36  1  0
  1 37  1  0
  1 38  1  0
  2 39  1  0
  2 40  1  0
  3 41  1  0
  4 42  1  6
  5 43  1  0
  5 44  1  0
 11 45  1  0
 11 46  1  0
 12 47  1  0
 12 48  1  0
 14 49  1  0
 15 50  1  0
 16 51  1  0
 17 52  1  0
 19 53  1  0
 19 54  1  0
 23 55  1  0
 23 56  1  0
 24 57  1  0
 24 58  1  0
 26 59  1  0
 27 60  1  0
 28 61  1  0
 29 62  1  0
 31 63  1  0
 31 64  1  0
 33 65  1  0
 33 66  1  0
 34 67  1  0
 34 68  1  0
M  END
>  <smiles>  (3) 
CCNC1CN(c2nc(N3CCc4ccccc4C3)nc(N3CCc4ccccc4C3)n2)CCO1

>  <score_type>  (3) 
oracle

>  <origin>  (3) 
autodockgpu

>  <m_score__min__energy>  (3) 
-10.48

>  <m_primary>  (3) 
energy

>  <rmsd>  (3) 
6.620254860862013

>  <m_score__min__rmsd>  (3) 
6.620254860862013

>  <meeko>  (3) 
{"free_energy": -10.43, "intermolecular_energy": -11.92, "internal_energy": -1.04, "cluster_size": 47, "cluster_id": 1, "rank_in_cluster": 7}

>  <energy>  (3) 
-10.47

>  <cluster_rmsd>  (3) 
0.16

>  <cluster>  (3) 
1

$$$$

     RDKit          3D

 68 73  0  0  0  0  0  0  0  0999 V2000
  143.4810   76.1090  217.4250 C   0  0  0  0  0  0  0  0  0  0  0  0
  143.5940   74.7760  216.7460 C   0  0  0  0  0  0  0  0  0  0  0  0
  144.8370   74.1330  217.0490 N   0  0  0  0  0  0  0  0  0  0  0  0
  144.7180   73.0000  217.9310 C   0  0  2  0  0  0  0  0  0  0  0  0
  143.4160   73.1020  218.6530 C   0  0  0  0  0  0  0  0  0  0  0  0
  143.5150   73.0080  220.0890 N   0  0  0  0  0  0  0  0  0  0  0  0
  142.3470   73.3190  220.8540 C   0  0  0  0  0  0  0  0  0  0  0  0
  141.7120   72.3520  221.5720 N   0  0  0  0  0  0  0  0  0  0  0  0
  140.6190   72.5890  222.3040 C   0  0  0  0  0  0  0  0  0  0  0  0
  140.0450   71.4830  223.0130 N   0  0  0  0  0  0  0  0  0  0  0  0
  139.5570   70.3590  222.2430 C   0  0  0  0  0  0  0  0  0  0  0  0
  138.5190   69.6010  223.0640 C   0  0  0  0  0  0  0  0  0  0  0  0
  139.2480   69.1360  224.2860 C   0  0  0  0  0  0  0  0  0  0  0  0
  139.2050   67.8230  224.7010 C   0  0  0  0  0  0  0  0  0  0  0  0
  139.8980   67.4610  225.8350 C   0  0  0  0  0  0  0  0  0  0  0  0
  140.6160   68.4200  226.5250 C   0  0  0  0  0  0  0  0  0  0  0  0
  140.6450   69.7240  226.0930 C   0  0  0  0  0  0  0  0  0  0  0  0
  139.9640   70.1140  224.9650 C   0  0  0  0  0  0  0  0  0  0  0  0
  139.9790   71.5340  224.4690 C   0  0  0  0  0  0  0  0  0  0  0  0
  140.1140   73.8190  222.3440 N   0  0  0  0  0  0  0  0  0  0  0  0
  140.7340   74.7960  221.6330 C   0  0  0  0  0  0  0  0  0  0  0  0
  140.2270   76.1480  221.6410 N   0  0  0  0  0  0  0  0  0  0  0  0
  138.8130   76.4230  221.4890 C   0  0  0  0  0  0  0  0  0  0  0  0
  138.3220   77.1540  222.7190 C   0  0  0  0  0  0  0  0  0  0  0  0
  139.1350   78.4010  222.8130 C   0  0  0  0  0  0  0  0  0  0  0  0
  138.5310   79.5190  223.3440 C   0  0  0  0  0  0  0  0  0  0  0  0
  139.2070   80.7260  223.4710 C   0  0  0  0  0  0  0  0  0  0  0  0
  140.5250   80.7600  223.0390 C   0  0  0  0  0  0  0  0  0  0  0  0
  141.1220   79.6170  222.5040 C   0  0  0  0  0  0  0  0  0  0  0  0
  140.4480   78.4380  222.3840 C   0  0  0  0  0  0  0  0  0  0  0  0
  141.1400   77.2590  221.8070 C   0  0  0  0  0  0  0  0  0  0  0  0
  141.8340   74.5550  220.8970 N   0  0  0  0  0  0  0  0  0  0  0  0
  144.7210   72.6200  220.7930 C   0  0  0  0  0  0  0  0  0  0  0  0
  145.6650   72.0270  219.7950 C   0  0  0  0  0  0  0  0  0  0  0  0
  145.8210   72.9310  218.7470 O   0  0  0  0  0  0  0  0  0  0  0  0
  143.4930   75.9671  218.5157 H   0  0  0  0  0  0  0  0  0  0  0  0
  144.3285   76.7445  217.1286 H   0  0  0  0  0  0  0  0  0  0  0  0
  142.5386   76.5928  217.1286 H   0  0  0  0  0  0  0  0  0  0  0  0
  142.7679   74.1326  217.0832 H   0  0  0  0  0  0  0  0  0  0  0  0
  143.5472   74.9388  215.6591 H   0  0  0  0  0  0  0  0  0  0  0  0
  145.6260   74.7630  217.2370 H   0  0  0  0  0  0  0  0  0  0  0  0
  144.7026   72.0481  217.3800 H   0  0  0  0  0  0  0  0  0  0  0  0
  142.9607   74.0718  218.4035 H   0  0  0  0  0  0  0  0  0  0  0  0
  142.8110   72.2435  218.3261 H   0  0  0  0  0  0  0  0  0  0  0  0
  139.0961   70.7227  221.3128 H   0  0  0  0  0  0  0  0  0  0  0  0
  140.3939   69.6891  221.9963 H   0  0  0  0  0  0  0  0  0  0  0  0
  137.6865   70.2646  223.3407 H   0  0  0  0  0  0  0  0  0  0  0  0
  138.0827   68.7623  222.5016 H   0  0  0  0  0  0  0  0  0  0  0  0
  138.6271   67.0765  224.1364 H   0  0  0  0  0  0  0  0  0  0  0  0
  139.8803   66.4194  226.1881 H   0  0  0  0  0  0  0  0  0  0  0  0
  141.1710   68.1355  227.4311 H   0  0  0  0  0  0  0  0  0  0  0  0
  141.2233   70.4685  226.6598 H   0  0  0  0  0  0  0  0  0  0  0  0
  139.0629   72.0535  224.7865 H   0  0  0  0  0  0  0  0  0  0  0  0
  140.8404   72.0813  224.8794 H   0  0  0  0  0  0  0  0  0  0  0  0
  138.6519   77.0485  220.5986 H   0  0  0  0  0  0  0  0  0  0  0  0
  138.2601   75.4795  221.3701 H   0  0  0  0  0  0  0  0  0  0  0  0
  137.2551   77.4011  222.6155 H   0  0  0  0  0  0  0  0  0  0  0  0
  138.4293   76.5360  223.6226 H   0  0  0  0  0  0  0  0  0  0  0  0
  137.4845   79.4545  223.6767 H   0  0  0  0  0  0  0  0  0  0  0  0
  138.7187   81.6157  223.8954 H   0  0  0  0  0  0  0  0  0  0  0  0
  141.1028   81.6927  223.1185 H   0  0  0  0  0  0  0  0  0  0  0  0
  142.1684   79.6693  222.1690 H   0  0  0  0  0  0  0  0  0  0  0  0
  141.5563   77.5314  220.8260 H   0  0  0  0  0  0  0  0  0  0  0  0
  141.9412   76.9527  222.4957 H   0  0  0  0  0  0  0  0  0  0  0  0
  145.1797   73.5024  221.2631 H   0  0  0  0  0  0  0  0  0  0  0  0
  144.4867   71.8887  221.5806 H   0  0  0  0  0  0  0  0  0  0  0  0
  146.6386   71.8382  220.2709 H   0  0  0  0  0  0  0  0  0  0  0  0
  145.2658   71.0744  219.4165 H   0  0  0  0  0  0  0  0  0  0  0  0
  1  2  1  0
  2  3  1  0
  3  4  1  0
  4  5  1  0
  5  6  1  0
  6  7  1  0
  7  8  2  0
  8  9  1  0
  9 10  1  0
 10 11  1  0
 11 12  1  0
 12 13  1  0
 13 14  2  0
 14 15  1  0
 15 16  2  0
 16 17  1  0
 17 18  2  0
 18 19  1  0
  9 20  2  0
 20 21  1  0
 21 22  1  0
 22 23  1  0
 23 24  1  0
 24 25  1  0
 25 26  2  0
 26 27  1  0
 27 28  2  0
 28 29  1  0
 29 30  2  0
 30 31  1  0
 21 32  2  0
  6 33  1  0
 33 34  1  0
 34 35  1  0
 35  4  1  0
 32  7  1  0
 19 10  1  0
 31 22  1  0
 18 13  1  0
 30 25  1  0
  1 36  1  0
  1 37  1  0
  1 38  1  0
  2 39  1  0
  2 40  1  0
  3 41  1  0
  4 42  1  6
  5 43  1  0
  5 44  1  0
 11 45  1  0
 11 46  1  0
 12 47  1  0
 12 48  1  0
 14 49  1  0
 15 50  1  0
 16 51  1  0
 17 52  1  0
 19 53  1  0
 19 54  1  0
 23 55  1  0
 23 56  1  0
 24 57  1  0
 24 58  1  0
 26 59  1  0
 27 60  1  0
 28 61  1  0
 29 62  1  0
 31 63  1  0
 31 64  1  0
 33 65  1  0
 33 66  1  0
 34 67  1  0
 34 68  1  0
M  END
>  <smiles>  (4) 
CCNC1CN(c2nc(N3CCc4ccccc4C3)nc(N3CCc4ccccc4C3)n2)CCO1

>  <score_type>  (4) 
oracle

>  <origin>  (4) 
autodockgpu

>  <m_score__min__energy>  (4) 
-10.48

>  <m_primary>  (4) 
energy

>  <rmsd>  (4) 
6.495712395338324

>  <m_score__min__rmsd>  (4) 
6.495712395338324

>  <meeko>  (4) 
{"free_energy": -9.87, "intermolecular_energy": -11.36, "internal_energy": -1.1, "cluster_size": 47, "cluster_id": 1, "rank_in_cluster": 29}

>  <energy>  (4) 
-10.46

>  <cluster_rmsd>  (4) 
0.13

>  <cluster>  (4) 
1

$$$$

     RDKit          3D

 68 73  0  0  0  0  0  0  0  0999 V2000
  143.4360   76.2300  217.5000 C   0  0  0  0  0  0  0  0  0  0  0  0
  143.5850   74.9710  216.6970 C   0  0  0  0  0  0  0  0  0  0  0  0
  144.7570   74.2400  217.0730 N   0  0  0  0  0  0  0  0  0  0  0  0
  144.4870   73.0060  217.7670 C   0  0  2  0  0  0  0  0  0  0  0  0
  143.2220   73.1690  218.5390 C   0  0  0  0  0  0  0  0  0  0  0  0
  143.3210   72.8300  219.9380 N   0  0  0  0  0  0  0  0  0  0  0  0
  142.2170   73.1710  220.7820 C   0  0  0  0  0  0  0  0  0  0  0  0
  141.6420   72.2320  221.5830 N   0  0  0  0  0  0  0  0  0  0  0  0
  140.6110   72.4980  222.3900 C   0  0  0  0  0  0  0  0  0  0  0  0
  140.0960   71.4190  223.1820 N   0  0  0  0  0  0  0  0  0  0  0  0
  139.5310   70.2780  222.4940 C   0  0  0  0  0  0  0  0  0  0  0  0
  138.5660   69.5560  223.4290 C   0  0  0  0  0  0  0  0  0  0  0  0
  139.3990   69.1200  224.5930 C   0  0  0  0  0  0  0  0  0  0  0  0
  139.3840   67.8200  225.0500 C   0  0  0  0  0  0  0  0  0  0  0  0
  140.1750   67.4850  226.1270 C   0  0  0  0  0  0  0  0  0  0  0  0
  140.9610   68.4570  226.7190 C   0  0  0  0  0  0  0  0  0  0  0  0
  140.9600   69.7470  226.2460 C   0  0  0  0  0  0  0  0  0  0  0  0
  140.1820   70.1110  225.1740 C   0  0  0  0  0  0  0  0  0  0  0  0
  140.1620   71.5150  224.6360 C   0  0  0  0  0  0  0  0  0  0  0  0
  140.1090   73.7300  222.4250 N   0  0  0  0  0  0  0  0  0  0  0  0
  140.6710   74.6790  221.6330 C   0  0  0  0  0  0  0  0  0  0  0  0
  140.1660   76.0320  221.6330 N   0  0  0  0  0  0  0  0  0  0  0  0
  138.7510   76.3070  221.4860 C   0  0  0  0  0  0  0  0  0  0  0  0
  138.2680   77.0490  222.7130 C   0  0  0  0  0  0  0  0  0  0  0  0
  139.0830   78.2960  222.7920 C   0  0  0  0  0  0  0  0  0  0  0  0
  138.4830   79.4200  223.3160 C   0  0  0  0  0  0  0  0  0  0  0  0
  139.1620   80.6260  223.4300 C   0  0  0  0  0  0  0  0  0  0  0  0
  140.4780   80.6550  222.9900 C   0  0  0  0  0  0  0  0  0  0  0  0
  141.0700   79.5070  222.4610 C   0  0  0  0  0  0  0  0  0  0  0  0
  140.3940   78.3280  222.3540 C   0  0  0  0  0  0  0  0  0  0  0  0
  141.0810   77.1430  221.7830 C   0  0  0  0  0  0  0  0  0  0  0  0
  141.7090   74.4090  220.8210 N   0  0  0  0  0  0  0  0  0  0  0  0
  144.4680   72.1700  220.5310 C   0  0  0  0  0  0  0  0  0  0  0  0
  145.3070   71.6220  219.4200 C   0  0  0  0  0  0  0  0  0  0  0  0
  145.5780   72.6540  218.5250 O   0  0  0  0  0  0  0  0  0  0  0  0
  143.4648   75.9865  218.5723 H   0  0  0  0  0  0  0  0  0  0  0  0
  144.2589   76.9187  217.2581 H   0  0  0  0  0  0  0  0  0  0  0  0
  142.4751   76.7076  217.2581 H   0  0  0  0  0  0  0  0  0  0  0  0
  142.7013   74.3368  216.8607 H   0  0  0  0  0  0  0  0  0  0  0  0
  143.6791   75.2490  215.6369 H   0  0  0  0  0  0  0  0  0  0  0  0
  145.5270   74.8040  217.4500 H   0  0  0  0  0  0  0  0  0  0  0  0
  144.3302   72.1677  217.0723 H   0  0  0  0  0  0  0  0  0  0  0  0
  142.9072   74.2202  218.4627 H   0  0  0  0  0  0  0  0  0  0  0  0
  142.4977   72.4671  218.1000 H   0  0  0  0  0  0  0  0  0  0  0  0
  138.9902   70.6189  221.5988 H   0  0  0  0  0  0  0  0  0  0  0  0
  140.3364   69.5921  222.1927 H   0  0  0  0  0  0  0  0  0  0  0  0
  137.7675   70.2366  223.7596 H   0  0  0  0  0  0  0  0  0  0  0  0
  138.0737   68.7056  222.9346 H   0  0  0  0  0  0  0  0  0  0  0  0
  138.7515   67.0630  224.5633 H   0  0  0  0  0  0  0  0  0  0  0  0
  140.1814   66.4547  226.5123 H   0  0  0  0  0  0  0  0  0  0  0  0
  141.5946   68.1941  227.5789 H   0  0  0  0  0  0  0  0  0  0  0  0
  141.5936   70.5019  226.7346 H   0  0  0  0  0  0  0  0  0  0  0  0
  139.2819   72.0526  225.0185 H   0  0  0  0  0  0  0  0  0  0  0  0
  141.0603   72.0664  224.9505 H   0  0  0  0  0  0  0  0  0  0  0  0
  138.5856   76.9251  220.5913 H   0  0  0  0  0  0  0  0  0  0  0  0
  138.1963   75.3633  221.3777 H   0  0  0  0  0  0  0  0  0  0  0  0
  137.2008   77.2964  222.6137 H   0  0  0  0  0  0  0  0  0  0  0  0
  138.3800   76.4384  223.6210 H   0  0  0  0  0  0  0  0  0  0  0  0
  137.4377   79.3606  223.6532 H   0  0  0  0  0  0  0  0  0  0  0  0
  138.6778   81.5196  223.8508 H   0  0  0  0  0  0  0  0  0  0  0  0
  141.0574   81.5875  223.0585 H   0  0  0  0  0  0  0  0  0  0  0  0
  142.1146   79.5551  222.1198 H   0  0  0  0  0  0  0  0  0  0  0  0
  141.4912   77.4062  220.7969 H   0  0  0  0  0  0  0  0  0  0  0  0
  141.8864   76.8419  222.4691 H   0  0  0  0  0  0  0  0  0  0  0  0
  145.0524   72.8927  221.1195 H   0  0  0  0  0  0  0  0  0  0  0  0
  144.1412   71.3604  221.2002 H   0  0  0  0  0  0  0  0  0  0  0  0
  146.2491   71.2255  219.8265 H   0  0  0  0  0  0  0  0  0  0  0  0
  144.7726   70.8080  218.9084 H   0  0  0  0  0  0  0  0  0  0  0  0
  1  2  1  0
  2  3  1  0
  3  4  1  0
  4  5  1  0
  5  6  1  0
  6  7  1  0
  7  8  2  0
  8  9  1  0
  9 10  1  0
 10 11  1  0
 11 12  1  0
 12 13  1  0
 13 14  2  0
 14 15  1  0
 15 16  2  0
 16 17  1  0
 17 18  2  0
 18 19  1  0
  9 20  2  0
 20 21  1  0
 21 22  1  0
 22 23  1  0
 23 24  1  0
 24 25  1  0
 25 26  2  0
 26 27  1  0
 27 28  2  0
 28 29  1  0
 29 30  2  0
 30 31  1  0
 21 32  2  0
  6 33  1  0
 33 34  1  0
 34 35  1  0
 35  4  1  0
 32  7  1  0
 19 10  1  0
 31 22  1  0
 18 13  1  0
 30 25  1  0
  1 36  1  0
  1 37  1  0
  1 38  1  0
  2 39  1  0
  2 40  1  0
  3 41  1  0
  4 42  1  6
  5 43  1  0
  5 44  1  0
 11 45  1  0
 11 46  1  0
 12 47  1  0
 12 48  1  0
 14 49  1  0
 15 50  1  0
 16 51  1  0
 17 52  1  0
 19 53  1  0
 19 54  1  0
 23 55  1  0
 23 56  1  0
 24 57  1  0
 24 58  1  0
 26 59  1  0
 27 60  1  0
 28 61  1  0
 29 62  1  0
 31 63  1  0
 31 64  1  0
 33 65  1  0
 33 66  1  0
 34 67  1  0
 34 68  1  0
M  END
>  <smiles>  (5) 
CCNC1CN(c2nc(N3CCc4ccccc4C3)nc(N3CCc4ccccc4C3)n2)CCO1

>  <score_type>  (5) 
oracle

>  <origin>  (5) 
autodockgpu

>  <m_score__min__energy>  (5) 
-10.48

>  <m_primary>  (5) 
energy

>  <rmsd>  (5) 
6.384491652128044

>  <m_score__min__rmsd>  (5) 
6.384491652128044

>  <meeko>  (5) 
{"free_energy": -9.9, "intermolecular_energy": -11.39, "internal_energy": -1.09, "cluster_size": 47, "cluster_id": 1, "rank_in_cluster": 26}

>  <energy>  (5) 
-10.46

>  <cluster_rmsd>  (5) 
0.1

>  <cluster>  (5) 
1

$$$$

     RDKit          3D

 68 73  0  0  0  0  0  0  0  0999 V2000
  146.3860   73.3870  222.0110 C   0  0  0  0  0  0  0  0  0  0  0  0
  146.2760   73.7450  220.5580 C   0  0  0  0  0  0  0  0  0  0  0  0
  146.2830   72.5800  219.7250 N   0  0  0  0  0  0  0  0  0  0  0  0
  145.0480   72.3490  219.0210 C   0  0  2  0  0  0  0  0  0  0  0  0
  143.9430   72.9970  219.7860 C   0  0  0  0  0  0  0  0  0  0  0  0
  142.8300   72.1310  220.0890 N   0  0  0  0  0  0  0  0  0  0  0  0
  141.8440   72.6160  221.0040 C   0  0  0  0  0  0  0  0  0  0  0  0
  141.4540   73.9210  220.9750 N   0  0  0  0  0  0  0  0  0  0  0  0
  140.5370   74.4250  221.8050 C   0  0  0  0  0  0  0  0  0  0  0  0
  140.2170   75.8160  221.6710 N   0  0  0  0  0  0  0  0  0  0  0  0
  138.8770   76.2430  222.0150 C   0  0  0  0  0  0  0  0  0  0  0  0
  138.5680   77.5520  221.2960 C   0  0  0  0  0  0  0  0  0  0  0  0
  139.5860   78.5270  221.7980 C   0  0  0  0  0  0  0  0  0  0  0  0
  139.2270   79.7650  222.2860 C   0  0  0  0  0  0  0  0  0  0  0  0
  140.2140   80.6150  222.7330 C   0  0  0  0  0  0  0  0  0  0  0  0
  141.5340   80.2070  222.6820 C   0  0  0  0  0  0  0  0  0  0  0  0
  141.8690   78.9680  222.1920 C   0  0  0  0  0  0  0  0  0  0  0  0
  140.9070   78.0980  221.7400 C   0  0  0  0  0  0  0  0  0  0  0  0
  141.2450   76.7360  221.1990 C   0  0  0  0  0  0  0  0  0  0  0  0
  139.9690   73.6320  222.7100 N   0  0  0  0  0  0  0  0  0  0  0  0
  140.3450   72.3270  222.7530 C   0  0  0  0  0  0  0  0  0  0  0  0
  139.7600   71.4240  223.7150 N   0  0  0  0  0  0  0  0  0  0  0  0
  138.7190   70.4890  223.3350 C   0  0  0  0  0  0  0  0  0  0  0  0
  139.2060   69.0820  223.6060 C   0  0  0  0  0  0  0  0  0  0  0  0
  139.5150   69.0230  225.0640 C   0  0  0  0  0  0  0  0  0  0  0  0
  139.3170   67.8240  225.7120 C   0  0  0  0  0  0  0  0  0  0  0  0
  139.5770   67.6720  227.0680 C   0  0  0  0  0  0  0  0  0  0  0  0
  140.0480   68.7860  227.7490 C   0  0  0  0  0  0  0  0  0  0  0  0
  140.2440   69.9940  227.0770 C   0  0  0  0  0  0  0  0  0  0  0  0
  139.9840   70.1310  225.7450 C   0  0  0  0  0  0  0  0  0  0  0  0
  140.2140   71.4420  225.0900 C   0  0  0  0  0  0  0  0  0  0  0  0
  141.2690   71.8230  221.9160 N   0  0  0  0  0  0  0  0  0  0  0  0
  142.6590   70.8070  219.5230 C   0  0  0  0  0  0  0  0  0  0  0  0
  143.6010   70.6750  218.3690 C   0  0  0  0  0  0  0  0  0  0  0  0
  144.8820   71.0020  218.8080 O   0  0  0  0  0  0  0  0  0  0  0  0
  146.1179   74.2595  222.6249 H   0  0  0  0  0  0  0  0  0  0  0  0
  145.7018   72.5557  222.2366 H   0  0  0  0  0  0  0  0  0  0  0  0
  147.4189   73.0833  222.2366 H   0  0  0  0  0  0  0  0  0  0  0  0
  145.3366   74.2939  220.3959 H   0  0  0  0  0  0  0  0  0  0  0  0
  147.1447   74.3643  220.2900 H   0  0  0  0  0  0  0  0  0  0  0  0
  146.7260   71.7490  220.1320 H   0  0  0  0  0  0  0  0  0  0  0  0
  145.0526   72.8052  218.0201 H   0  0  0  0  0  0  0  0  0  0  0  0
  144.3559   73.3689  220.7353 H   0  0  0  0  0  0  0  0  0  0  0  0
  143.5476   73.7968  219.1426 H   0  0  0  0  0  0  0  0  0  0  0  0
  138.1546   75.4735  221.7050 H   0  0  0  0  0  0  0  0  0  0  0  0
  138.8043   76.3924  223.1024 H   0  0  0  0  0  0  0  0  0  0  0  0
  138.6601   77.4248  220.2073 H   0  0  0  0  0  0  0  0  0  0  0  0
  137.5409   77.8945  221.4903 H   0  0  0  0  0  0  0  0  0  0  0  0
  138.1703   80.0689  222.3179 H   0  0  0  0  0  0  0  0  0  0  0  0
  139.9547   81.6088  223.1268 H   0  0  0  0  0  0  0  0  0  0  0  0
  142.3256   80.8826  223.0381 H   0  0  0  0  0  0  0  0  0  0  0  0
  142.9267   78.6673  222.1611 H   0  0  0  0  0  0  0  0  0  0  0  0
  141.2537   76.7591  220.0993 H   0  0  0  0  0  0  0  0  0  0  0  0
  142.2407   76.4168  221.5406 H   0  0  0  0  0  0  0  0  0  0  0  0
  137.8115   70.6863  223.9245 H   0  0  0  0  0  0  0  0  0  0  0  0
  138.4842   70.6044  222.2666 H   0  0  0  0  0  0  0  0  0  0  0  0
  138.4234   68.3519  223.3521 H   0  0  0  0  0  0  0  0  0  0  0  0
  140.0903   68.8396  222.9984 H   0  0  0  0  0  0  0  0  0  0  0  0
  138.9424   66.9625  225.1397 H   0  0  0  0  0  0  0  0  0  0  0  0
  139.4167   66.7114  227.5794 H   0  0  0  0  0  0  0  0  0  0  0  0
  140.2682   68.7167  228.8245 H   0  0  0  0  0  0  0  0  0  0  0  0
  140.6196   70.8619  227.6389 H   0  0  0  0  0  0  0  0  0  0  0  0
  139.6640   72.2199  225.6399 H   0  0  0  0  0  0  0  0  0  0  0  0
  141.2936   71.6527  225.0990 H   0  0  0  0  0  0  0  0  0  0  0  0
  142.8880   70.0439  220.2815 H   0  0  0  0  0  0  0  0  0  0  0  0
  141.6209   70.6646  219.1883 H   0  0  0  0  0  0  0  0  0  0  0  0
  143.5889   69.6403  217.9959 H   0  0  0  0  0  0  0  0  0  0  0  0
  143.2972   71.3484  217.5540 H   0  0  0  0  0  0  0  0  0  0  0  0
  1  2  1  0
  2  3  1  0
  3  4  1  0
  4  5  1  0
  5  6  1  0
  6  7  1  0
  7  8  2  0
  8  9  1  0
  9 10  1  0
 10 11  1  0
 11 12  1  0
 12 13  1  0
 13 14  2  0
 14 15  1  0
 15 16  2  0
 16 17  1  0
 17 18  2  0
 18 19  1  0
  9 20  2  0
 20 21  1  0
 21 22  1  0
 22 23  1  0
 23 24  1  0
 24 25  1  0
 25 26  2  0
 26 27  1  0
 27 28  2  0
 28 29  1  0
 29 30  2  0
 30 31  1  0
 21 32  2  0
  6 33  1  0
 33 34  1  0
 34 35  1  0
 35  4  1  0
 32  7  1  0
 19 10  1  0
 31 22  1  0
 18 13  1  0
 30 25  1  0
  1 36  1  0
  1 37  1  0
  1 38  1  0
  2 39  1  0
  2 40  1  0
  3 41  1  0
  4 42  1  6
  5 43  1  0
  5 44  1  0
 11 45  1  0
 11 46  1  0
 12 47  1  0
 12 48  1  0
 14 49  1  0
 15 50  1  0
 16 51  1  0
 17 52  1  0
 19 53  1  0
 19 54  1  0
 23 55  1  0
 23 56  1  0
 24 57  1  0
 24 58  1  0
 26 59  1  0
 27 60  1  0
 28 61  1  0
 29 62  1  0
 31 63  1  0
 31 64  1  0
 33 65  1  0
 33 66  1  0
 34 67  1  0
 34 68  1  0
M  END
>  <smiles>  (6) 
CCNC1CN(c2nc(N3CCc4ccccc4C3)nc(N3CCc4ccccc4C3)n2)CCO1

>  <score_type>  (6) 
oracle

>  <origin>  (6) 
autodockgpu

>  <m_score__min__energy>  (6) 
-10.48

>  <m_primary>  (6) 
energy

>  <rmsd>  (6) 
6.574108910713031

>  <m_score__min__rmsd>  (6) 
6.574108910713031

>  <meeko>  (6) 
{"free_energy": -10.16, "intermolecular_energy": -11.65, "internal_energy": -1.07, "cluster_size": 47, "cluster_id": 1, "rank_in_cluster": 14}

>  <energy>  (6) 
-10.44

>  <cluster_rmsd>  (6) 
0.14

>  <cluster>  (6) 
1

$$$$

     RDKit          3D

 68 73  0  0  0  0  0  0  0  0999 V2000
  145.9420   73.7810  221.2700 C   0  0  0  0  0  0  0  0  0  0  0  0
  146.4030   72.9560  220.1040 C   0  0  0  0  0  0  0  0  0  0  0  0
  145.8410   73.4210  218.8730 N   0  0  0  0  0  0  0  0  0  0  0  0
  144.6360   72.7360  218.4770 C   0  0  2  0  0  0  0  0  0  0  0  0
  143.5030   73.2780  219.2820 C   0  0  0  0  0  0  0  0  0  0  0  0
  142.7160   72.2790  219.9630 N   0  0  0  0  0  0  0  0  0  0  0  0
  141.7590   72.7330  220.9250 C   0  0  0  0  0  0  0  0  0  0  0  0
  141.3780   74.0390  220.9580 N   0  0  0  0  0  0  0  0  0  0  0  0
  140.4880   74.5160  221.8340 C   0  0  0  0  0  0  0  0  0  0  0  0
  140.1750   75.9130  221.7650 N   0  0  0  0  0  0  0  0  0  0  0  0
  138.8620   76.3390  222.2000 C   0  0  0  0  0  0  0  0  0  0  0  0
  138.5240   77.6730  221.5430 C   0  0  0  0  0  0  0  0  0  0  0  0
  139.5790   78.6230  222.0180 C   0  0  0  0  0  0  0  0  0  0  0  0
  139.2610   79.8470  222.5660 C   0  0  0  0  0  0  0  0  0  0  0  0
  140.2810   80.6730  222.9840 C   0  0  0  0  0  0  0  0  0  0  0  0
  141.5910   80.2570  222.8420 C   0  0  0  0  0  0  0  0  0  0  0  0
  141.8850   79.0320  222.2930 C   0  0  0  0  0  0  0  0  0  0  0  0
  140.8900   78.1860  221.8690 C   0  0  0  0  0  0  0  0  0  0  0  0
  141.1830   76.8400  221.2650 C   0  0  0  0  0  0  0  0  0  0  0  0
  139.9390   73.6900  222.7210 N   0  0  0  0  0  0  0  0  0  0  0  0
  140.3070   72.3830  222.7020 C   0  0  0  0  0  0  0  0  0  0  0  0
  139.7420   71.4450  223.6420 N   0  0  0  0  0  0  0  0  0  0  0  0
  138.6730   70.5440  223.2590 C   0  0  0  0  0  0  0  0  0  0  0  0
  139.1450   69.1190  223.4480 C   0  0  0  0  0  0  0  0  0  0  0  0
  139.5060   68.9880  224.8890 C   0  0  0  0  0  0  0  0  0  0  0  0
  139.3110   67.7640  225.4880 C   0  0  0  0  0  0  0  0  0  0  0  0
  139.6170   67.5460  226.8250 C   0  0  0  0  0  0  0  0  0  0  0  0
  140.1310   68.6200  227.5390 C   0  0  0  0  0  0  0  0  0  0  0  0
  140.3230   69.8540  226.9150 C   0  0  0  0  0  0  0  0  0  0  0  0
  140.0180   70.0560  225.6020 C   0  0  0  0  0  0  0  0  0  0  0  0
  140.2450   71.3930  224.9980 C   0  0  0  0  0  0  0  0  0  0  0  0
  141.2030   71.9060  221.8190 N   0  0  0  0  0  0  0  0  0  0  0  0
  142.8420   70.8530  219.7310 C   0  0  0  0  0  0  0  0  0  0  0  0
  143.6300   70.6610  218.4740 C   0  0  0  0  0  0  0  0  0  0  0  0
  144.8180   71.3790  218.5870 O   0  0  0  0  0  0  0  0  0  0  0  0
  146.2224   73.2792  222.2079 H   0  0  0  0  0  0  0  0  0  0  0  0
  146.4169   74.7723  221.2283 H   0  0  0  0  0  0  0  0  0  0  0  0
  144.8488   73.8961  221.2283 H   0  0  0  0  0  0  0  0  0  0  0  0
  147.4997   73.0117  220.0390 H   0  0  0  0  0  0  0  0  0  0  0  0
  146.0703   71.9197  220.2636 H   0  0  0  0  0  0  0  0  0  0  0  0
  146.5150   73.6050  218.1210 H   0  0  0  0  0  0  0  0  0  0  0  0
  144.3890   72.9127  217.4197 H   0  0  0  0  0  0  0  0  0  0  0  0
  143.9160   73.9626  220.0375 H   0  0  0  0  0  0  0  0  0  0  0  0
  142.8266   73.7754  218.5713 H   0  0  0  0  0  0  0  0  0  0  0  0
  138.1155   75.5857  221.9082 H   0  0  0  0  0  0  0  0  0  0  0  0
  138.8544   76.4536  223.2940 H   0  0  0  0  0  0  0  0  0  0  0  0
  138.5525   77.5815  220.4472 H   0  0  0  0  0  0  0  0  0  0  0  0
  137.5127   78.0165  221.8064 H   0  0  0  0  0  0  0  0  0  0  0  0
  138.2110   80.1588  222.6678 H   0  0  0  0  0  0  0  0  0  0  0  0
  140.0549   81.6543  223.4266 H   0  0  0  0  0  0  0  0  0  0  0  0
  142.4086   80.9145  223.1725 H   0  0  0  0  0  0  0  0  0  0  0  0
  142.9360   78.7237  222.1914 H   0  0  0  0  0  0  0  0  0  0  0  0
  141.1287   76.8996  220.1680 H   0  0  0  0  0  0  0  0  0  0  0  0
  142.1935   76.5017  221.5380 H   0  0  0  0  0  0  0  0  0  0  0  0
  137.7907   70.7279  223.8897 H   0  0  0  0  0  0  0  0  0  0  0  0
  138.4024   70.7115  222.2060 H   0  0  0  0  0  0  0  0  0  0  0  0
  138.3411   68.4137  223.1906 H   0  0  0  0  0  0  0  0  0  0  0  0
  140.0024   68.8911  222.7976 H   0  0  0  0  0  0  0  0  0  0  0  0
  138.9015   66.9357  224.8912 H   0  0  0  0  0  0  0  0  0  0  0  0
  139.4590   66.5653  227.2976 H   0  0  0  0  0  0  0  0  0  0  0  0
  140.3882   68.4981  228.6015 H   0  0  0  0  0  0  0  0  0  0  0  0
  140.7333   70.6894  227.5013 H   0  0  0  0  0  0  0  0  0  0  0  0
  139.7276   72.1526  225.6024 H   0  0  0  0  0  0  0  0  0  0  0  0
  141.3275   71.5871  224.9765 H   0  0  0  0  0  0  0  0  0  0  0  0
  143.3650   70.3814  220.5760 H   0  0  0  0  0  0  0  0  0  0  0  0
  141.8485   70.3904  219.6356 H   0  0  0  0  0  0  0  0  0  0  0  0
  143.8531   69.5929  218.3346 H   0  0  0  0  0  0  0  0  0  0  0  0
  143.0534   71.0175  217.6078 H   0  0  0  0  0  0  0  0  0  0  0  0
  1  2  1  0
  2  3  1  0
  3  4  1  0
  4  5  1  0
  5  6  1  0
  6  7  1  0
  7  8  2  0
  8  9  1  0
  9 10  1  0
 10 11  1  0
 11 12  1  0
 12 13  1  0
 13 14  2  0
 14 15  1  0
 15 16  2  0
 16 17  1  0
 17 18  2  0
 18 19  1  0
  9 20  2  0
 20 21  1  0
 21 22  1  0
 22 23  1  0
 23 24  1  0
 24 25  1  0
 25 26  2  0
 26 27  1  0
 27 28  2  0
 28 29  1  0
 29 30  2  0
 30 31  1  0
 21 32  2  0
  6 33  1  0
 33 34  1  0
 34 35  1  0
 35  4  1  0
 32  7  1  0
 19 10  1  0
 31 22  1  0
 18 13  1  0
 30 25  1  0
  1 36  1  0
  1 37  1  0
  1 38  1  0
  2 39  1  0
  2 40  1  0
  3 41  1  0
  4 42  1  6
  5 43  1  0
  5 44  1  0
 11 45  1  0
 11 46  1  0
 12 47  1  0
 12 48  1  0
 14 49  1  0
 15 50  1  0
 16 51  1  0
 17 52  1  0
 19 53  1  0
 19 54  1  0
 23 55  1  0
 23 56  1  0
 24 57  1  0
 24 58  1  0
 26 59  1  0
 27 60  1  0
 28 61  1  0
 29 62  1  0
 31 63  1  0
 31 64  1  0
 33 65  1  0
 33 66  1  0
 34 67  1  0
 34 68  1  0
M  END
>  <smiles>  (7) 
CCNC1CN(c2nc(N3CCc4ccccc4C3)nc(N3CCc4ccccc4C3)n2)CCO1

>  <score_type>  (7) 
oracle

>  <origin>  (7) 
autodockgpu

>  <m_score__min__energy>  (7) 
-10.48

>  <m_primary>  (7) 
energy

>  <rmsd>  (7) 
6.540793171655376

>  <m_score__min__rmsd>  (7) 
6.540793171655376

>  <meeko>  (7) 
{"free_energy": -9.84, "intermolecular_energy": -11.33, "internal_energy": -1.1, "cluster_size": 47, "cluster_id": 1, "rank_in_cluster": 33}

>  <energy>  (7) 
-10.43

>  <cluster_rmsd>  (7) 
0.13

>  <cluster>  (7) 
1

$$$$

     RDKit          3D

 68 73  0  0  0  0  0  0  0  0999 V2000
  145.9590   73.7500  221.3710 C   0  0  0  0  0  0  0  0  0  0  0  0
  146.6090   73.0890  220.1920 C   0  0  0  0  0  0  0  0  0  0  0  0
  145.9920   73.4800  218.9600 N   0  0  0  0  0  0  0  0  0  0  0  0
  144.8510   72.6830  218.5910 C   0  0  2  0  0  0  0  0  0  0  0  0
  143.6590   73.2000  219.3240 C   0  0  0  0  0  0  0  0  0  0  0  0
  142.9240   72.2020  220.0620 N   0  0  0  0  0  0  0  0  0  0  0  0
  141.9100   72.6570  220.9620 C   0  0  0  0  0  0  0  0  0  0  0  0
  141.3740   71.8120  221.8850 N   0  0  0  0  0  0  0  0  0  0  0  0
  140.4260   72.1860  222.7490 C   0  0  0  0  0  0  0  0  0  0  0  0
  139.9440   71.1990  223.6710 N   0  0  0  0  0  0  0  0  0  0  0  0
  139.1990   70.0770  223.1400 C   0  0  0  0  0  0  0  0  0  0  0  0
  138.3220   69.4910  224.2410 C   0  0  0  0  0  0  0  0  0  0  0  0
  139.2740   69.0450  225.3060 C   0  0  0  0  0  0  0  0  0  0  0  0
  139.2210   67.7770  225.8420 C   0  0  0  0  0  0  0  0  0  0  0  0
  140.1270   67.4300  226.8200 C   0  0  0  0  0  0  0  0  0  0  0  0
  141.0630   68.3580  227.2370 C   0  0  0  0  0  0  0  0  0  0  0  0
  141.0980   69.6170  226.6880 C   0  0  0  0  0  0  0  0  0  0  0  0
  140.2070   69.9920  225.7110 C   0  0  0  0  0  0  0  0  0  0  0  0
  140.2230   71.3620  225.0930 C   0  0  0  0  0  0  0  0  0  0  0  0
  139.9720   73.4360  222.7210 N   0  0  0  0  0  0  0  0  0  0  0  0
  140.4960   74.2930  221.8060 C   0  0  0  0  0  0  0  0  0  0  0  0
  140.0400   75.6610  221.7320 N   0  0  0  0  0  0  0  0  0  0  0  0
  138.6390   75.9790  221.5400 C   0  0  0  0  0  0  0  0  0  0  0  0
  138.1570   76.7930  222.7200 C   0  0  0  0  0  0  0  0  0  0  0  0
  139.0140   78.0130  222.7610 C   0  0  0  0  0  0  0  0  0  0  0  0
  138.4440   79.1800  223.2200 C   0  0  0  0  0  0  0  0  0  0  0  0
  139.1620   80.3660  223.2940 C   0  0  0  0  0  0  0  0  0  0  0  0
  140.4880   80.3280  222.8840 C   0  0  0  0  0  0  0  0  0  0  0  0
  141.0500   79.1370  222.4220 C   0  0  0  0  0  0  0  0  0  0  0  0
  140.3340   77.9780  222.3540 C   0  0  0  0  0  0  0  0  0  0  0  0
  140.9910   76.7450  221.8530 C   0  0  0  0  0  0  0  0  0  0  0  0
  141.4500   73.9140  220.9370 N   0  0  0  0  0  0  0  0  0  0  0  0
  143.1560   70.7750  219.9440 C   0  0  0  0  0  0  0  0  0  0  0  0
  143.9930   70.5460  218.7250 C   0  0  0  0  0  0  0  0  0  0  0  0
  145.1240   71.3540  218.8100 O   0  0  0  0  0  0  0  0  0  0  0  0
  146.3717   73.3303  222.3003 H   0  0  0  0  0  0  0  0  0  0  0  0
  146.1547   74.8320  221.3387 H   0  0  0  0  0  0  0  0  0  0  0  0
  144.8739   73.5725  221.3387 H   0  0  0  0  0  0  0  0  0  0  0  0
  147.6714   73.3730  220.1647 H   0  0  0  0  0  0  0  0  0  0  0  0
  146.4952   72.0005  220.3027 H   0  0  0  0  0  0  0  0  0  0  0  0
  146.6380   73.7140  218.1970 H   0  0  0  0  0  0  0  0  0  0  0  0
  144.6237   72.7622  217.5177 H   0  0  0  0  0  0  0  0  0  0  0  0
  144.0000   73.9683  220.0335 H   0  0  0  0  0  0  0  0  0  0  0  0
  142.9705   73.5903  218.5601 H   0  0  0  0  0  0  0  0  0  0  0  0
  138.5659   70.4169  222.3072 H   0  0  0  0  0  0  0  0  0  0  0  0
  139.8973   69.3090  222.7758 H   0  0  0  0  0  0  0  0  0  0  0  0
  137.6343   70.2545  224.6336 H   0  0  0  0  0  0  0  0  0  0  0  0
  137.6995   68.6621  223.8730 H   0  0  0  0  0  0  0  0  0  0  0  0
  138.4681   67.0540  225.4950 H   0  0  0  0  0  0  0  0  0  0  0  0
  140.1059   66.4242  227.2649 H   0  0  0  0  0  0  0  0  0  0  0  0
  141.7884   68.0852  228.0176 H   0  0  0  0  0  0  0  0  0  0  0  0
  141.8525   70.3376  227.0366 H   0  0  0  0  0  0  0  0  0  0  0  0
  139.4519   71.9938  225.5580 H   0  0  0  0  0  0  0  0  0  0  0  0
  141.1985   71.8469  225.2456 H   0  0  0  0  0  0  0  0  0  0  0  0
  138.5155   76.5607  220.6146 H   0  0  0  0  0  0  0  0  0  0  0  0
  138.0529   75.0514  221.4618 H   0  0  0  0  0  0  0  0  0  0  0  0
  137.1017   77.0725  222.5850 H   0  0  0  0  0  0  0  0  0  0  0  0
  138.2277   76.2215  223.6572 H   0  0  0  0  0  0  0  0  0  0  0  0
  137.3906   79.1720  223.5367 H   0  0  0  0  0  0  0  0  0  0  0  0
  138.7008   81.2947  223.6612 H   0  0  0  0  0  0  0  0  0  0  0  0
  141.0990   81.2418  222.9235 H   0  0  0  0  0  0  0  0  0  0  0  0
  142.1027   79.1328  222.1029 H   0  0  0  0  0  0  0  0  0  0  0  0
  141.4317   76.9483  220.8658 H   0  0  0  0  0  0  0  0  0  0  0  0
  141.7703   76.4480  222.5702 H   0  0  0  0  0  0  0  0  0  0  0  0
  143.6851   70.4071  220.8355 H   0  0  0  0  0  0  0  0  0  0  0  0
  142.2005   70.2364  219.8603 H   0  0  0  0  0  0  0  0  0  0  0  0
  144.2943   69.4893  218.6745 H   0  0  0  0  0  0  0  0  0  0  0  0
  143.4186   70.7939  217.8202 H   0  0  0  0  0  0  0  0  0  0  0  0
  1  2  1  0
  2  3  1  0
  3  4  1  0
  4  5  1  0
  5  6  1  0
  6  7  1  0
  7  8  2  0
  8  9  1  0
  9 10  1  0
 10 11  1  0
 11 12  1  0
 12 13  1  0
 13 14  2  0
 14 15  1  0
 15 16  2  0
 16 17  1  0
 17 18  2  0
 18 19  1  0
  9 20  2  0
 20 21  1  0
 21 22  1  0
 22 23  1  0
 23 24  1  0
 24 25  1  0
 25 26  2  0
 26 27  1  0
 27 28  2  0
 28 29  1  0
 29 30  2  0
 30 31  1  0
 21 32  2  0
  6 33  1  0
 33 34  1  0
 34 35  1  0
 35  4  1  0
 32  7  1  0
 19 10  1  0
 31 22  1  0
 18 13  1  0
 30 25  1  0
  1 36  1  0
  1 37  1  0
  1 38  1  0
  2 39  1  0
  2 40  1  0
  3 41  1  0
  4 42  1  6
  5 43  1  0
  5 44  1  0
 11 45  1  0
 11 46  1  0
 12 47  1  0
 12 48  1  0
 14 49  1  0
 15 50  1  0
 16 51  1  0
 17 52  1  0
 19 53  1  0
 19 54  1  0
 23 55  1  0
 23 56  1  0
 24 57  1  0
 24 58  1  0
 26 59  1  0
 27 60  1  0
 28 61  1  0
 29 62  1  0
 31 63  1  0
 31 64  1  0
 33 65  1  0
 33 66  1  0
 34 67  1  0
 34 68  1  0
M  END
>  <smiles>  (8) 
CCNC1CN(c2nc(N3CCc4ccccc4C3)nc(N3CCc4ccccc4C3)n2)CCO1

>  <score_type>  (8) 
oracle

>  <origin>  (8) 
autodockgpu

>  <m_score__min__energy>  (8) 
-10.48

>  <m_primary>  (8) 
energy

>  <rmsd>  (8) 
6.658078595609417

>  <m_score__min__rmsd>  (8) 
6.658078595609417

>  <meeko>  (8) 
{"free_energy": -9.94, "intermolecular_energy": -11.43, "internal_energy": -1.06, "cluster_size": 47, "cluster_id": 1, "rank_in_cluster": 20}

>  <energy>  (8) 
-10.42

>  <cluster_rmsd>  (8) 
0.1

>  <cluster>  (8) 
1

$$$$

     RDKit          3D

 68 73  0  0  0  0  0  0  0  0999 V2000
  146.5520   73.3570  221.9810 C   0  0  0  0  0  0  0  0  0  0  0  0
  146.3130   73.6130  220.5220 C   0  0  0  0  0  0  0  0  0  0  0  0
  146.2760   72.3940  219.7710 N   0  0  0  0  0  0  0  0  0  0  0  0
  145.0480   72.1810  219.0490 C   0  0  2  0  0  0  0  0  0  0  0  0
  143.9430   72.8540  219.7930 C   0  0  0  0  0  0  0  0  0  0  0  0
  142.8100   72.0090  220.0840 N   0  0  0  0  0  0  0  0  0  0  0  0
  141.8190   72.5170  220.9810 C   0  0  0  0  0  0  0  0  0  0  0  0
  141.2720   71.7150  221.9350 N   0  0  0  0  0  0  0  0  0  0  0  0
  140.3450   72.1390  222.7990 C   0  0  0  0  0  0  0  0  0  0  0  0
  139.8490   71.1930  223.7550 N   0  0  0  0  0  0  0  0  0  0  0  0
  139.2790   69.9590  223.2590 C   0  0  0  0  0  0  0  0  0  0  0  0
  138.3340   69.3850  224.3100 C   0  0  0  0  0  0  0  0  0  0  0  0
  139.1890   69.1340  225.5130 C   0  0  0  0  0  0  0  0  0  0  0  0
  139.1890   67.9200  226.1630 C   0  0  0  0  0  0  0  0  0  0  0  0
  140.0000   67.7550  227.2640 C   0  0  0  0  0  0  0  0  0  0  0  0
  140.7910   68.8070  227.6870 C   0  0  0  0  0  0  0  0  0  0  0  0
  140.7750   70.0100  227.0230 C   0  0  0  0  0  0  0  0  0  0  0  0
  139.9770   70.2040  225.9220 C   0  0  0  0  0  0  0  0  0  0  0  0
  139.9410   71.5090  225.1760 C   0  0  0  0  0  0  0  0  0  0  0  0
  139.9230   73.3990  222.7370 N   0  0  0  0  0  0  0  0  0  0  0  0
  140.4580   74.2150  221.7910 C   0  0  0  0  0  0  0  0  0  0  0  0
  140.0360   75.5910  221.6810 N   0  0  0  0  0  0  0  0  0  0  0  0
  138.6460   75.9370  221.4580 C   0  0  0  0  0  0  0  0  0  0  0  0
  138.1650   76.7880  222.6130 C   0  0  0  0  0  0  0  0  0  0  0  0
  139.0500   77.9880  222.6430 C   0  0  0  0  0  0  0  0  0  0  0  0
  138.5010   79.1780  223.0670 C   0  0  0  0  0  0  0  0  0  0  0  0
  139.2460   80.3480  223.1280 C   0  0  0  0  0  0  0  0  0  0  0  0
  140.5770   80.2700  222.7420 C   0  0  0  0  0  0  0  0  0  0  0  0
  141.1180   79.0560  222.3140 C   0  0  0  0  0  0  0  0  0  0  0  0
  140.3760   77.9130  222.2580 C   0  0  0  0  0  0  0  0  0  0  0  0
  141.0110   76.6550  221.7950 C   0  0  0  0  0  0  0  0  0  0  0  0
  141.3910   73.7850  220.9230 N   0  0  0  0  0  0  0  0  0  0  0  0
  142.6240   70.6850  219.5230 C   0  0  0  0  0  0  0  0  0  0  0  0
  143.5810   70.5290  218.3840 C   0  0  0  0  0  0  0  0  0  0  0  0
  144.8610   70.8360  218.8420 O   0  0  0  0  0  0  0  0  0  0  0  0
  145.9222   74.0316  222.5796 H   0  0  0  0  0  0  0  0  0  0  0  0
  146.2980   72.3130  222.2165 H   0  0  0  0  0  0  0  0  0  0  0  0
  147.6110   73.5388  222.2165 H   0  0  0  0  0  0  0  0  0  0  0  0
  145.3515   74.1341  220.4040 H   0  0  0  0  0  0  0  0  0  0  0  0
  147.1424   74.2266  220.1404 H   0  0  0  0  0  0  0  0  0  0  0  0
  146.6620   71.5710  220.2470 H   0  0  0  0  0  0  0  0  0  0  0  0
  145.0763   72.6306  218.0455 H   0  0  0  0  0  0  0  0  0  0  0  0
  144.3478   73.2247  220.7463 H   0  0  0  0  0  0  0  0  0  0  0  0
  143.5720   73.6569  219.1390 H   0  0  0  0  0  0  0  0  0  0  0  0
  138.7212   70.1578  222.3320 H   0  0  0  0  0  0  0  0  0  0  0  0
  140.0831   69.2376  223.0515 H   0  0  0  0  0  0  0  0  0  0  0  0
  137.5373   70.1056  224.5468 H   0  0  0  0  0  0  0  0  0  0  0  0
  137.8386   68.4675  223.9596 H   0  0  0  0  0  0  0  0  0  0  0  0
  138.5521   67.0960  225.8089 H   0  0  0  0  0  0  0  0  0  0  0  0
  140.0181   66.7955  227.8015 H   0  0  0  0  0  0  0  0  0  0  0  0
  141.4408   68.6796  228.5654 H   0  0  0  0  0  0  0  0  0  0  0  0
  141.4127   70.8323  227.3796 H   0  0  0  0  0  0  0  0  0  0  0  0
  139.0656   72.0973  225.4884 H   0  0  0  0  0  0  0  0  0  0  0  0
  140.8429   72.1028  225.3856 H   0  0  0  0  0  0  0  0  0  0  0  0
  138.5514   76.5011  220.5184 H   0  0  0  0  0  0  0  0  0  0  0  0
  138.0391   75.0222  221.3891 H   0  0  0  0  0  0  0  0  0  0  0  0
  137.1190   77.0895  222.4547 H   0  0  0  0  0  0  0  0  0  0  0  0
  138.2074   76.2350  223.5630 H   0  0  0  0  0  0  0  0  0  0  0  0
  137.4426   79.2020  223.3657 H   0  0  0  0  0  0  0  0  0  0  0  0
  138.8011   81.2951  223.4673 H   0  0  0  0  0  0  0  0  0  0  0  0
  141.2092   81.1696  222.7735 H   0  0  0  0  0  0  0  0  0  0  0  0
  142.1753   79.0204  222.0127 H   0  0  0  0  0  0  0  0  0  0  0  0
  141.4726   76.8263  220.8114 H   0  0  0  0  0  0  0  0  0  0  0  0
  141.7711   76.3553  222.5315 H   0  0  0  0  0  0  0  0  0  0  0  0
  142.8277   69.9225  220.2893 H   0  0  0  0  0  0  0  0  0  0  0  0
  141.5887   70.5593  219.1732 H   0  0  0  0  0  0  0  0  0  0  0  0
  143.5561   69.4924  218.0168 H   0  0  0  0  0  0  0  0  0  0  0  0
  143.3020   71.2022  217.5600 H   0  0  0  0  0  0  0  0  0  0  0  0
  1  2  1  0
  2  3  1  0
  3  4  1  0
  4  5  1  0
  5  6  1  0
  6  7  1  0
  7  8  2  0
  8  9  1  0
  9 10  1  0
 10 11  1  0
 11 12  1  0
 12 13  1  0
 13 14  2  0
 14 15  1  0
 15 16  2  0
 16 17  1  0
 17 18  2  0
 18 19  1  0
  9 20  2  0
 20 21  1  0
 21 22  1  0
 22 23  1  0
 23 24  1  0
 24 25  1  0
 25 26  2  0
 26 27  1  0
 27 28  2  0
 28 29  1  0
 29 30  2  0
 30 31  1  0
 21 32  2  0
  6 33  1  0
 33 34  1  0
 34 35  1  0
 35  4  1  0
 32  7  1  0
 19 10  1  0
 31 22  1  0
 18 13  1  0
 30 25  1  0
  1 36  1  0
  1 37  1  0
  1 38  1  0
  2 39  1  0
  2 40  1  0
  3 41  1  0
  4 42  1  6
  5 43  1  0
  5 44  1  0
 11 45  1  0
 11 46  1  0
 12 47  1  0
 12 48  1  0
 14 49  1  0
 15 50  1  0
 16 51  1  0
 17 52  1  0
 19 53  1  0
 19 54  1  0
 23 55  1  0
 23 56  1  0
 24 57  1  0
 24 58  1  0
 26 59  1  0
 27 60  1  0
 28 61  1  0
 29 62  1  0
 31 63  1  0
 31 64  1  0
 33 65  1  0
 33 66  1  0
 34 67  1  0
 34 68  1  0
M  END
>  <smiles>  (9) 
CCNC1CN(c2nc(N3CCc4ccccc4C3)nc(N3CCc4ccccc4C3)n2)CCO1

>  <score_type>  (9) 
oracle

>  <origin>  (9) 
autodockgpu

>  <m_score__min__energy>  (9) 
-10.48

>  <m_primary>  (9) 
energy

>  <rmsd>  (9) 
6.668353899667061

>  <m_score__min__rmsd>  (9) 
6.668353899667061

>  <meeko>  (9) 
{"free_energy": -10.39, "intermolecular_energy": -11.88, "internal_energy": -1.04, "cluster_size": 47, "cluster_id": 1, "rank_in_cluster": 10}

>  <energy>  (9) 
-10.42

>  <cluster_rmsd>  (9) 
0.2

>  <cluster>  (9) 
1

$$$$

     RDKit          3D

 68 73  0  0  0  0  0  0  0  0999 V2000
  146.0500   73.7470  221.3520 C   0  0  0  0  0  0  0  0  0  0  0  0
  146.3400   72.8520  220.1820 C   0  0  0  0  0  0  0  0  0  0  0  0
  145.8900   73.4280  218.9520 N   0  0  0  0  0  0  0  0  0  0  0  0
  144.6430   72.8910  218.4680 C   0  0  2  0  0  0  0  0  0  0  0  0
  143.5400   73.4350  219.3120 C   0  0  0  0  0  0  0  0  0  0  0  0
  142.6590   72.4370  219.8700 N   0  0  0  0  0  0  0  0  0  0  0  0
  141.7210   72.8630  220.8620 C   0  0  0  0  0  0  0  0  0  0  0  0
  141.3580   74.1710  220.9540 N   0  0  0  0  0  0  0  0  0  0  0  0
  140.4850   74.6220  221.8600 C   0  0  0  0  0  0  0  0  0  0  0  0
  140.1880   76.0250  221.8530 N   0  0  0  0  0  0  0  0  0  0  0  0
  138.9010   76.4510  222.3600 C   0  0  0  0  0  0  0  0  0  0  0  0
  138.5540   77.8120  221.7640 C   0  0  0  0  0  0  0  0  0  0  0  0
  139.6420   78.7310  222.2240 C   0  0  0  0  0  0  0  0  0  0  0  0
  139.3650   79.9390  222.8270 C   0  0  0  0  0  0  0  0  0  0  0  0
  140.4140   80.7380  223.2260 C   0  0  0  0  0  0  0  0  0  0  0  0
  141.7110   80.3110  223.0130 C   0  0  0  0  0  0  0  0  0  0  0  0
  141.9640   79.1020  222.4100 C   0  0  0  0  0  0  0  0  0  0  0  0
  140.9390   78.2840  222.0020 C   0  0  0  0  0  0  0  0  0  0  0  0
  141.1860   76.9560  221.3400 C   0  0  0  0  0  0  0  0  0  0  0  0
  139.9370   73.7680  222.7200 N   0  0  0  0  0  0  0  0  0  0  0  0
  140.2880   72.4570  222.6430 C   0  0  0  0  0  0  0  0  0  0  0  0
  139.7230   71.4890  223.5520 N   0  0  0  0  0  0  0  0  0  0  0  0
  138.6950   70.5620  223.1220 C   0  0  0  0  0  0  0  0  0  0  0  0
  139.2050   69.1490  223.3050 C   0  0  0  0  0  0  0  0  0  0  0  0
  139.5250   69.0070  224.7550 C   0  0  0  0  0  0  0  0  0  0  0  0
  139.3500   67.7680  225.3300 C   0  0  0  0  0  0  0  0  0  0  0  0
  139.6220   67.5390  226.6730 C   0  0  0  0  0  0  0  0  0  0  0  0
  140.0800   68.6180  227.4170 C   0  0  0  0  0  0  0  0  0  0  0  0
  140.2520   69.8670  226.8180 C   0  0  0  0  0  0  0  0  0  0  0  0
  139.9820   70.0790  225.4990 C   0  0  0  0  0  0  0  0  0  0  0  0
  140.1860   71.4310  224.9220 C   0  0  0  0  0  0  0  0  0  0  0  0
  141.1670   72.0070  221.7290 N   0  0  0  0  0  0  0  0  0  0  0  0
  142.6760   71.0390  219.4860 C   0  0  0  0  0  0  0  0  0  0  0  0
  143.4740   70.9180  218.2260 C   0  0  0  0  0  0  0  0  0  0  0  0
  144.7130   71.5190  218.4320 O   0  0  0  0  0  0  0  0  0  0  0  0
  146.2283   73.1967  222.2876 H   0  0  0  0  0  0  0  0  0  0  0  0
  146.7090   74.6269  221.3128 H   0  0  0  0  0  0  0  0  0  0  0  0
  145.0002   74.0732  221.3128 H   0  0  0  0  0  0  0  0  0  0  0  0
  147.4255   72.6846  220.1214 H   0  0  0  0  0  0  0  0  0  0  0  0
  145.8033   71.9038  220.3337 H   0  0  0  0  0  0  0  0  0  0  0  0
  146.6160   73.5760  218.2410 H   0  0  0  0  0  0  0  0  0  0  0  0
  144.4342   73.1997  217.4330 H   0  0  0  0  0  0  0  0  0  0  0  0
  143.9901   73.9978  220.1430 H   0  0  0  0  0  0  0  0  0  0  0  0
  142.9220   74.0600  218.6505 H   0  0  0  0  0  0  0  0  0  0  0  0
  138.1321   75.7176  222.0754 H   0  0  0  0  0  0  0  0  0  0  0  0
  138.9418   76.5267  223.4566 H   0  0  0  0  0  0  0  0  0  0  0  0
  138.5334   77.7581  220.6655 H   0  0  0  0  0  0  0  0  0  0  0  0
  137.5603   78.1592  222.0833 H   0  0  0  0  0  0  0  0  0  0  0  0
  138.3249   80.2594  222.9868 H   0  0  0  0  0  0  0  0  0  0  0  0
  140.2210   81.7069  223.7097 H   0  0  0  0  0  0  0  0  0  0  0  0
  142.5511   80.9464  223.3299 H   0  0  0  0  0  0  0  0  0  0  0  0
  143.0051   78.7842  222.2515 H   0  0  0  0  0  0  0  0  0  0  0  0
  141.0840   77.0542  220.2491 H   0  0  0  0  0  0  0  0  0  0  0  0
  142.2027   76.5958  221.5557 H   0  0  0  0  0  0  0  0  0  0  0  0
  137.7881   70.7090  223.7270 H   0  0  0  0  0  0  0  0  0  0  0  0
  138.4524   70.7376  222.0636 H   0  0  0  0  0  0  0  0  0  0  0  0
  138.4317   68.4235  223.0122 H   0  0  0  0  0  0  0  0  0  0  0  0
  140.0888   68.9574  222.6787 H   0  0  0  0  0  0  0  0  0  0  0  0
  138.9849   66.9368  224.7089 H   0  0  0  0  0  0  0  0  0  0  0  0
  139.4808   66.5469  227.1267 H   0  0  0  0  0  0  0  0  0  0  0  0
  140.3087   68.4878  228.4851 H   0  0  0  0  0  0  0  0  0  0  0  0
  140.6166   70.7058  227.4291 H   0  0  0  0  0  0  0  0  0  0  0  0
  139.6275   72.1652  225.5212 H   0  0  0  0  0  0  0  0  0  0  0  0
  141.2622   71.6579  224.9366 H   0  0  0  0  0  0  0  0  0  0  0  0
  143.1407   70.4384  220.2818 H   0  0  0  0  0  0  0  0  0  0  0  0
  141.6510   70.6727  219.3271 H   0  0  0  0  0  0  0  0  0  0  0  0
  143.6132   69.8562  217.9747 H   0  0  0  0  0  0  0  0  0  0  0  0
  142.9475   71.4116  217.3959 H   0  0  0  0  0  0  0  0  0  0  0  0
  1  2  1  0
  2  3  1  0
  3  4  1  0
  4  5  1  0
  5  6  1  0
  6  7  1  0
  7  8  2  0
  8  9  1  0
  9 10  1  0
 10 11  1  0
 11 12  1  0
 12 13  1  0
 13 14  2  0
 14 15  1  0
 15 16  2  0
 16 17  1  0
 17 18  2  0
 18 19  1  0
  9 20  2  0
 20 21  1  0
 21 22  1  0
 22 23  1  0
 23 24  1  0
 24 25  1  0
 25 26  2  0
 26 27  1  0
 27 28  2  0
 28 29  1  0
 29 30  2  0
 30 31  1  0
 21 32  2  0
  6 33  1  0
 33 34  1  0
 34 35  1  0
 35  4  1  0
 32  7  1  0
 19 10  1  0
 31 22  1  0
 18 13  1  0
 30 25  1  0
  1 36  1  0
  1 37  1  0
  1 38  1  0
  2 39  1  0
  2 40  1  0
  3 41  1  0
  4 42  1  6
  5 43  1  0
  5 44  1  0
 11 45  1  0
 11 46  1  0
 12 47  1  0
 12 48  1  0
 14 49  1  0
 15 50  1  0
 16 51  1  0
 17 52  1  0
 19 53  1  0
 19 54  1  0
 23 55  1  0
 23 56  1  0
 24 57  1  0
 24 58  1  0
 26 59  1  0
 27 60  1  0
 28 61  1  0
 29 62  1  0
 31 63  1  0
 31 64  1  0
 33 65  1  0
 33 66  1  0
 34 67  1  0
 34 68  1  0
M  END
>  <smiles>  (10) 
CCNC1CN(c2nc(N3CCc4ccccc4C3)nc(N3CCc4ccccc4C3)n2)CCO1

>  <score_type>  (10) 
oracle

>  <origin>  (10) 
autodockgpu

>  <m_score__min__energy>  (10) 
-10.48

>  <m_primary>  (10) 
energy

>  <rmsd>  (10) 
6.460220954132464

>  <m_score__min__rmsd>  (10) 
6.460220954132464

>  <meeko>  (10) 
{"free_energy": -9.96, "intermolecular_energy": -11.45, "internal_energy": -1.1, "cluster_size": 47, "cluster_id": 1, "rank_in_cluster": 19}

>  <energy>  (10) 
-10.39

>  <cluster_rmsd>  (10) 
0.25

>  <cluster>  (10) 
1

$$$$

     RDKit          3D

 68 73  0  0  0  0  0  0  0  0999 V2000
  141.8700   80.7950  222.5620 C   0  0  0  0  0  0  0  0  0  0  0  0
  142.2050   79.3540  222.8130 C   0  0  0  0  0  0  0  0  0  0  0  0
  141.9050   78.5360  221.6770 N   0  0  0  0  0  0  0  0  0  0  0  0
  140.6410   77.8490  221.7600 C   0  0  2  0  0  0  0  0  0  0  0  0
  140.8920   76.4590  222.2410 C   0  0  0  0  0  0  0  0  0  0  0  0
  140.3240   75.4230  221.4140 N   0  0  0  0  0  0  0  0  0  0  0  0
  140.7100   74.0730  221.6860 C   0  0  0  0  0  0  0  0  0  0  0  0
  141.6180   73.4390  220.8950 N   0  0  0  0  0  0  0  0  0  0  0  0
  142.0150   72.1810  221.1050 C   0  0  0  0  0  0  0  0  0  0  0  0
  142.9780   71.6290  220.1970 N   0  0  0  0  0  0  0  0  0  0  0  0
  144.2830   72.2500  220.1300 C   0  0  0  0  0  0  0  0  0  0  0  0
  144.9230   71.9280  218.7840 C   0  0  0  0  0  0  0  0  0  0  0  0
  145.0370   70.4360  218.7490 C   0  0  0  0  0  0  0  0  0  0  0  0
  146.2210   69.8050  218.4370 C   0  0  0  0  0  0  0  0  0  0  0  0
  146.2580   68.4280  218.4240 C   0  0  0  0  0  0  0  0  0  0  0  0
  145.1110   67.7170  218.7210 C   0  0  0  0  0  0  0  0  0  0  0  0
  143.9400   68.3670  219.0290 C   0  0  0  0  0  0  0  0  0  0  0  0
  143.8730   69.7390  219.0520 C   0  0  0  0  0  0  0  0  0  0  0  0
  142.6060   70.4760  219.3860 C   0  0  0  0  0  0  0  0  0  0  0  0
  141.5080   71.4990  222.1290 N   0  0  0  0  0  0  0  0  0  0  0  0
  140.5990   72.1160  222.9300 C   0  0  0  0  0  0  0  0  0  0  0  0
  140.0190   71.4220  224.0550 N   0  0  0  0  0  0  0  0  0  0  0  0
  138.8300   70.6070  223.9050 C   0  0  0  0  0  0  0  0  0  0  0  0
  139.1590   69.1850  224.3070 C   0  0  0  0  0  0  0  0  0  0  0  0
  139.6260   69.2510  225.7220 C   0  0  0  0  0  0  0  0  0  0  0  0
  139.3520   68.1750  226.5370 C   0  0  0  0  0  0  0  0  0  0  0  0
  139.7470   68.1450  227.8680 C   0  0  0  0  0  0  0  0  0  0  0  0
  140.4330   69.2520  228.3480 C   0  0  0  0  0  0  0  0  0  0  0  0
  140.7030   70.3340  227.5090 C   0  0  0  0  0  0  0  0  0  0  0  0
  140.3100   70.3520  226.2030 C   0  0  0  0  0  0  0  0  0  0  0  0
  140.6280   71.5330  225.3630 C   0  0  0  0  0  0  0  0  0  0  0  0
  140.2030   73.3830  222.7150 N   0  0  0  0  0  0  0  0  0  0  0  0
  139.3930   75.6720  220.3310 C   0  0  0  0  0  0  0  0  0  0  0  0
  138.8940   77.0760  220.4680 C   0  0  0  0  0  0  0  0  0  0  0  0
  139.9930   77.9270  220.5510 O   0  0  0  0  0  0  0  0  0  0  0  0
  141.7489   81.3161  223.5231 H   0  0  0  0  0  0  0  0  0  0  0  0
  142.6826   81.2660  221.9894 H   0  0  0  0  0  0  0  0  0  0  0  0
  140.9330   80.8592  221.9894 H   0  0  0  0  0  0  0  0  0  0  0  0
  143.2785   79.2714  223.0385 H   0  0  0  0  0  0  0  0  0  0  0  0
  141.5968   79.0025  223.6595 H   0  0  0  0  0  0  0  0  0  0  0  0
  142.6890   77.9820  221.3120 H   0  0  0  0  0  0  0  0  0  0  0  0
  139.9629   78.3195  222.4872 H   0  0  0  0  0  0  0  0  0  0  0  0
  141.9800   76.3033  222.2861 H   0  0  0  0  0  0  0  0  0  0  0  0
  140.4018   76.3767  223.2223 H   0  0  0  0  0  0  0  0  0  0  0  0
  144.1777   73.3398  220.2360 H   0  0  0  0  0  0  0  0  0  0  0  0
  144.9174   71.8655  220.9423 H   0  0  0  0  0  0  0  0  0  0  0  0
  144.2882   72.2856  217.9599 H   0  0  0  0  0  0  0  0  0  0  0  0
  145.9012   72.4174  218.6669 H   0  0  0  0  0  0  0  0  0  0  0  0
  147.1219   70.3909  218.2021 H   0  0  0  0  0  0  0  0  0  0  0  0
  147.1914   67.8997  218.1796 H   0  0  0  0  0  0  0  0  0  0  0  0
  145.1355   66.6173  218.7108 H   0  0  0  0  0  0  0  0  0  0  0  0
  143.0403   67.7782  219.2613 H   0  0  0  0  0  0  0  0  0  0  0  0
  142.1095   70.8092  218.4627 H   0  0  0  0  0  0  0  0  0  0  0  0
  141.9078   69.8242  219.9316 H   0  0  0  0  0  0  0  0  0  0  0  0
  138.0299   70.9980  224.5508 H   0  0  0  0  0  0  0  0  0  0  0  0
  138.4904   70.6305  222.8590 H   0  0  0  0  0  0  0  0  0  0  0  0
  138.2641   68.5500  224.2299 H   0  0  0  0  0  0  0  0  0  0  0  0
  139.9273   68.7501  223.6508 H   0  0  0  0  0  0  0  0  0  0  0  0
  138.8051   67.3155  226.1221 H   0  0  0  0  0  0  0  0  0  0  0  0
  139.5260   67.2821  228.5133 H   0  0  0  0  0  0  0  0  0  0  0  0
  140.7659   69.2766  229.3961 H   0  0  0  0  0  0  0  0  0  0  0  0
  141.2495   71.1988  227.9133 H   0  0  0  0  0  0  0  0  0  0  0  0
  140.2501   72.4390  225.8594 H   0  0  0  0  0  0  0  0  0  0  0  0
  141.7193   71.5877  225.2364 H   0  0  0  0  0  0  0  0  0  0  0  0
  139.9028   75.5491  219.3640 H   0  0  0  0  0  0  0  0  0  0  0  0
  138.5547   74.9611  220.3749 H   0  0  0  0  0  0  0  0  0  0  0  0
  138.2845   77.3408  219.5915 H   0  0  0  0  0  0  0  0  0  0  0  0
  138.2740   77.1702  221.3717 H   0  0  0  0  0  0  0  0  0  0  0  0
  1  2  1  0
  2  3  1  0
  3  4  1  0
  4  5  1  0
  5  6  1  0
  6  7  1  0
  7  8  2  0
  8  9  1  0
  9 10  1  0
 10 11  1  0
 11 12  1  0
 12 13  1  0
 13 14  2  0
 14 15  1  0
 15 16  2  0
 16 17  1  0
 17 18  2  0
 18 19  1  0
  9 20  2  0
 20 21  1  0
 21 22  1  0
 22 23  1  0
 23 24  1  0
 24 25  1  0
 25 26  2  0
 26 27  1  0
 27 28  2  0
 28 29  1  0
 29 30  2  0
 30 31  1  0
 21 32  2  0
  6 33  1  0
 33 34  1  0
 34 35  1  0
 35  4  1  0
 32  7  1  0
 19 10  1  0
 31 22  1  0
 18 13  1  0
 30 25  1  0
  1 36  1  0
  1 37  1  0
  1 38  1  0
  2 39  1  0
  2 40  1  0
  3 41  1  0
  4 42  1  1
  5 43  1  0
  5 44  1  0
 11 45  1  0
 11 46  1  0
 12 47  1  0
 12 48  1  0
 14 49  1  0
 15 50  1  0
 16 51  1  0
 17 52  1  0
 19 53  1  0
 19 54  1  0
 23 55  1  0
 23 56  1  0
 24 57  1  0
 24 58  1  0
 26 59  1  0
 27 60  1  0
 28 61  1  0
 29 62  1  0
 31 63  1  0
 31 64  1  0
 33 65  1  0
 33 66  1  0
 34 67  1  0
 34 68  1  0
M  END
>  <smiles>  (11) 
CCNC1CN(c2nc(N3CCc4ccccc4C3)nc(N3CCc4ccccc4C3)n2)CCO1

>  <score_type>  (11) 
oracle

>  <origin>  (11) 
autodockgpu

>  <m_score__min__energy>  (11) 
-10.48

>  <m_primary>  (11) 
energy

>  <rmsd>  (11) 
2.0123581069232688

>  <m_score__min__rmsd>  (11) 
2.0123581069232688

>  <meeko>  (11) 
{"free_energy": -9.48, "intermolecular_energy": -10.98, "internal_energy": -0.94, "cluster_size": 3, "cluster_id": 2, "rank_in_cluster": 3}

>  <energy>  (11) 
-10.31

>  <cluster_rmsd>  (11) 
0.6

>  <cluster>  (11) 
1

$$$$

     RDKit          3D

 68 73  0  0  0  0  0  0  0  0999 V2000
  146.6870   73.4140  222.1650 C   0  0  0  0  0  0  0  0  0  0  0  0
  146.4640   73.6890  220.7070 C   0  0  0  0  0  0  0  0  0  0  0  0
  146.3660   72.4770  219.9500 N   0  0  0  0  0  0  0  0  0  0  0  0
  145.1620   72.3650  219.1670 C   0  0  2  0  0  0  0  0  0  0  0  0
  144.0550   73.0380  219.9080 C   0  0  0  0  0  0  0  0  0  0  0  0
  142.8760   72.2280  220.0960 N   0  0  0  0  0  0  0  0  0  0  0  0
  141.8690   72.7220  220.9840 C   0  0  0  0  0  0  0  0  0  0  0  0
  141.3150   71.9070  221.9230 N   0  0  0  0  0  0  0  0  0  0  0  0
  140.3720   72.3180  222.7780 C   0  0  0  0  0  0  0  0  0  0  0  0
  139.8690   71.3600  223.7180 N   0  0  0  0  0  0  0  0  0  0  0  0
  138.9790   70.3290  223.2300 C   0  0  0  0  0  0  0  0  0  0  0  0
  138.1370   69.8040  224.3880 C   0  0  0  0  0  0  0  0  0  0  0  0
  139.1210   69.2420  225.3670 C   0  0  0  0  0  0  0  0  0  0  0  0
  138.9860   67.9730  225.8850 C   0  0  0  0  0  0  0  0  0  0  0  0
  139.9270   67.5170  226.7820 C   0  0  0  0  0  0  0  0  0  0  0  0
  140.9780   68.3410  227.1380 C   0  0  0  0  0  0  0  0  0  0  0  0
  141.0930   69.6040  226.6080 C   0  0  0  0  0  0  0  0  0  0  0  0
  140.1710   70.0850  225.7110 C   0  0  0  0  0  0  0  0  0  0  0  0
  140.2720   71.4620  225.1160 C   0  0  0  0  0  0  0  0  0  0  0  0
  139.9440   73.5760  222.7210 N   0  0  0  0  0  0  0  0  0  0  0  0
  140.4870   74.4030  221.7900 C   0  0  0  0  0  0  0  0  0  0  0  0
  140.0570   75.7780  221.6870 N   0  0  0  0  0  0  0  0  0  0  0  0
  138.6580   76.1210  221.5290 C   0  0  0  0  0  0  0  0  0  0  0  0
  138.2320   76.9830  222.6970 C   0  0  0  0  0  0  0  0  0  0  0  0
  139.1160   78.1840  222.6710 C   0  0  0  0  0  0  0  0  0  0  0  0
  138.5870   79.3770  223.1090 C   0  0  0  0  0  0  0  0  0  0  0  0
  139.3320   80.5490  223.1210 C   0  0  0  0  0  0  0  0  0  0  0  0
  140.6430   80.4680  222.6710 C   0  0  0  0  0  0  0  0  0  0  0  0
  141.1640   79.2500  222.2300 C   0  0  0  0  0  0  0  0  0  0  0  0
  140.4220   78.1070  222.2220 C   0  0  0  0  0  0  0  0  0  0  0  0
  141.0350   76.8440  221.7420 C   0  0  0  0  0  0  0  0  0  0  0  0
  141.4350   73.9870  220.9320 N   0  0  0  0  0  0  0  0  0  0  0  0
  142.6590   70.9520  219.4430 C   0  0  0  0  0  0  0  0  0  0  0  0
  143.6570   70.8260  218.3370 C   0  0  0  0  0  0  0  0  0  0  0  0
  144.9280   71.0450  218.8640 O   0  0  0  0  0  0  0  0  0  0  0  0
  146.1067   74.1296  222.7660 H   0  0  0  0  0  0  0  0  0  0  0  0
  146.3612   72.3897  222.3989 H   0  0  0  0  0  0  0  0  0  0  0  0
  147.7565   73.5211  222.3989 H   0  0  0  0  0  0  0  0  0  0  0  0
  145.5306   74.2592  220.5901 H   0  0  0  0  0  0  0  0  0  0  0  0
  147.3243   74.2613  220.3297 H   0  0  0  0  0  0  0  0  0  0  0  0
  146.6580   71.6240  220.4420 H   0  0  0  0  0  0  0  0  0  0  0  0
  145.2522   72.8760  218.1971 H   0  0  0  0  0  0  0  0  0  0  0  0
  144.4330   73.3282  220.8994 H   0  0  0  0  0  0  0  0  0  0  0  0
  143.7472   73.8971  219.2939 H   0  0  0  0  0  0  0  0  0  0  0  0
  138.3194   70.7485  222.4561 H   0  0  0  0  0  0  0  0  0  0  0  0
  139.5680   69.5062  222.7986 H   0  0  0  0  0  0  0  0  0  0  0  0
  137.5603   70.6207  224.8467 H   0  0  0  0  0  0  0  0  0  0  0  0
  137.4094   69.0483  224.0572 H   0  0  0  0  0  0  0  0  0  0  0  0
  138.1412   67.3344  225.5876 H   0  0  0  0  0  0  0  0  0  0  0  0
  139.8427   66.5074  227.2105 H   0  0  0  0  0  0  0  0  0  0  0  0
  141.7316   67.9817  227.8542 H   0  0  0  0  0  0  0  0  0  0  0  0
  141.9385   70.2407  226.9076 H   0  0  0  0  0  0  0  0  0  0  0  0
  139.6042   72.1533  225.6510 H   0  0  0  0  0  0  0  0  0  0  0  0
  141.2987   71.8480  225.1986 H   0  0  0  0  0  0  0  0  0  0  0  0
  138.5172   76.6757  220.5896 H   0  0  0  0  0  0  0  0  0  0  0  0
  138.0498   75.2049  221.4994 H   0  0  0  0  0  0  0  0  0  0  0  0
  137.1791   77.2818  222.5865 H   0  0  0  0  0  0  0  0  0  0  0  0
  138.3207   76.4401  223.6496 H   0  0  0  0  0  0  0  0  0  0  0  0
  137.5446   79.4028  223.4594 H   0  0  0  0  0  0  0  0  0  0  0  0
  138.9026   81.4992  223.4714 H   0  0  0  0  0  0  0  0  0  0  0  0
  141.2747   81.3685  222.6619 H   0  0  0  0  0  0  0  0  0  0  0  0
  142.2055   79.2119  221.8782 H   0  0  0  0  0  0  0  0  0  0  0  0
  141.4480   77.0050  220.7353 H   0  0  0  0  0  0  0  0  0  0  0  0
  141.8302   76.5527  222.4440 H   0  0  0  0  0  0  0  0  0  0  0  0
  142.7967   70.1342  220.1656 H   0  0  0  0  0  0  0  0  0  0  0  0
  141.6356   70.8951  219.0438 H   0  0  0  0  0  0  0  0  0  0  0  0
  143.6040   69.8170  217.9021 H   0  0  0  0  0  0  0  0  0  0  0  0
  143.4427   71.5629  217.5490 H   0  0  0  0  0  0  0  0  0  0  0  0
  1  2  1  0
  2  3  1  0
  3  4  1  0
  4  5  1  0
  5  6  1  0
  6  7  1  0
  7  8  2  0
  8  9  1  0
  9 10  1  0
 10 11  1  0
 11 12  1  0
 12 13  1  0
 13 14  2  0
 14 15  1  0
 15 16  2  0
 16 17  1  0
 17 18  2  0
 18 19  1  0
  9 20  2  0
 20 21  1  0
 21 22  1  0
 22 23  1  0
 23 24  1  0
 24 25  1  0
 25 26  2  0
 26 27  1  0
 27 28  2  0
 28 29  1  0
 29 30  2  0
 30 31  1  0
 21 32  2  0
  6 33  1  0
 33 34  1  0
 34 35  1  0
 35  4  1  0
 32  7  1  0
 19 10  1  0
 31 22  1  0
 18 13  1  0
 30 25  1  0
  1 36  1  0
  1 37  1  0
  1 38  1  0
  2 39  1  0
  2 40  1  0
  3 41  1  0
  4 42  1  6
  5 43  1  0
  5 44  1  0
 11 45  1  0
 11 46  1  0
 12 47  1  0
 12 48  1  0
 14 49  1  0
 15 50  1  0
 16 51  1  0
 17 52  1  0
 19 53  1  0
 19 54  1  0
 23 55  1  0
 23 56  1  0
 24 57  1  0
 24 58  1  0
 26 59  1  0
 27 60  1  0
 28 61  1  0
 29 62  1  0
 31 63  1  0
 31 64  1  0
 33 65  1  0
 33 66  1  0
 34 67  1  0
 34 68  1  0
M  END
>  <smiles>  (12) 
CCNC1CN(c2nc(N3CCc4ccccc4C3)nc(N3CCc4ccccc4C3)n2)CCO1

>  <score_type>  (12) 
oracle

>  <origin>  (12) 
autodockgpu

>  <m_score__min__energy>  (12) 
-10.48

>  <m_primary>  (12) 
energy

>  <rmsd>  (12) 
6.58781417347248

>  <m_score__min__rmsd>  (12) 
6.58781417347248

>  <meeko>  (12) 
{"free_energy": -10.42, "intermolecular_energy": -11.91, "internal_energy": -1.03, "cluster_size": 47, "cluster_id": 1, "rank_in_cluster": 9}

>  <energy>  (12) 
-10.28

>  <cluster_rmsd>  (12) 
0.59

>  <cluster>  (12) 
1

$$$$

     RDKit          3D

 68 73  0  0  0  0  0  0  0  0999 V2000
  146.6800   73.3880  222.2090 C   0  0  0  0  0  0  0  0  0  0  0  0
  146.5350   73.6870  220.7450 C   0  0  0  0  0  0  0  0  0  0  0  0
  146.3720   72.4900  219.9760 N   0  0  0  0  0  0  0  0  0  0  0  0
  145.1810   72.4670  219.1640 C   0  0  2  0  0  0  0  0  0  0  0  0
  144.0760   73.1080  219.9340 C   0  0  0  0  0  0  0  0  0  0  0  0
  142.8750   72.3160  220.0400 N   0  0  0  0  0  0  0  0  0  0  0  0
  141.8630   72.7660  220.9440 C   0  0  0  0  0  0  0  0  0  0  0  0
  141.3260   71.9150  221.8610 N   0  0  0  0  0  0  0  0  0  0  0  0
  140.3790   72.2840  222.7290 C   0  0  0  0  0  0  0  0  0  0  0  0
  139.8970   71.2910  223.6440 N   0  0  0  0  0  0  0  0  0  0  0  0
  139.2180   70.1350  223.0980 C   0  0  0  0  0  0  0  0  0  0  0  0
  138.3180   69.5290  224.1700 C   0  0  0  0  0  0  0  0  0  0  0  0
  139.2400   69.1330  225.2800 C   0  0  0  0  0  0  0  0  0  0  0  0
  139.2130   67.8710  225.8320 C   0  0  0  0  0  0  0  0  0  0  0  0
  140.0890   67.5720  226.8510 C   0  0  0  0  0  0  0  0  0  0  0  0
  140.9700   68.5410  227.2940 C   0  0  0  0  0  0  0  0  0  0  0  0
  140.9800   69.7930  226.7290 C   0  0  0  0  0  0  0  0  0  0  0  0
  140.1190   70.1210  225.7100 C   0  0  0  0  0  0  0  0  0  0  0  0
  140.1090   71.4830  225.0730 C   0  0  0  0  0  0  0  0  0  0  0  0
  139.9280   73.5350  222.7100 N   0  0  0  0  0  0  0  0  0  0  0  0
  140.4520   74.3980  221.8010 C   0  0  0  0  0  0  0  0  0  0  0  0
  139.9980   75.7670  221.7380 N   0  0  0  0  0  0  0  0  0  0  0  0
  138.6030   76.0890  221.5150 C   0  0  0  0  0  0  0  0  0  0  0  0
  138.0900   76.8840  222.6960 C   0  0  0  0  0  0  0  0  0  0  0  0
  138.9460   78.1030  222.7790 C   0  0  0  0  0  0  0  0  0  0  0  0
  138.3650   79.2620  223.2410 C   0  0  0  0  0  0  0  0  0  0  0  0
  139.0810   80.4470  223.3530 C   0  0  0  0  0  0  0  0  0  0  0  0
  140.4170   80.4150  222.9770 C   0  0  0  0  0  0  0  0  0  0  0  0
  140.9900   79.2310  222.5100 C   0  0  0  0  0  0  0  0  0  0  0  0
  140.2770   78.0740  222.4040 C   0  0  0  0  0  0  0  0  0  0  0  0
  140.9460   76.8490  221.9010 C   0  0  0  0  0  0  0  0  0  0  0  0
  141.4050   74.0240  220.9290 N   0  0  0  0  0  0  0  0  0  0  0  0
  142.6420   71.0980  219.2880 C   0  0  0  0  0  0  0  0  0  0  0  0
  143.6590   71.0320  218.1930 C   0  0  0  0  0  0  0  0  0  0  0  0
  144.9230   71.1800  218.7590 O   0  0  0  0  0  0  0  0  0  0  0  0
  146.2741   74.2250  222.7961 H   0  0  0  0  0  0  0  0  0  0  0  0
  146.1279   72.4681  222.4518 H   0  0  0  0  0  0  0  0  0  0  0  0
  147.7442   73.2518  222.4518 H   0  0  0  0  0  0  0  0  0  0  0  0
  145.6540   74.3289  220.5973 H   0  0  0  0  0  0  0  0  0  0  0  0
  147.4509   74.1924  220.4048 H   0  0  0  0  0  0  0  0  0  0  0  0
  146.5940   71.6160  220.4660 H   0  0  0  0  0  0  0  0  0  0  0  0
  145.3021   73.0471  218.2373 H   0  0  0  0  0  0  0  0  0  0  0  0
  144.4416   73.3133  220.9510 H   0  0  0  0  0  0  0  0  0  0  0  0
  143.7997   74.0177  219.3808 H   0  0  0  0  0  0  0  0  0  0  0  0
  138.6080   70.4402  222.2350 H   0  0  0  0  0  0  0  0  0  0  0  0
  139.9595   69.3900  222.7737 H   0  0  0  0  0  0  0  0  0  0  0  0
  137.5858   70.2702  224.5229 H   0  0  0  0  0  0  0  0  0  0  0  0
  137.7437   68.6722  223.7878 H   0  0  0  0  0  0  0  0  0  0  0  0
  138.5034   67.1150  225.4647 H   0  0  0  0  0  0  0  0  0  0  0  0
  140.0880   66.5716  227.3084 H   0  0  0  0  0  0  0  0  0  0  0  0
  141.6712   68.3066  228.1085 H   0  0  0  0  0  0  0  0  0  0  0  0
  141.6904   70.5468  227.0993 H   0  0  0  0  0  0  0  0  0  0  0  0
  139.2954   72.0906  225.4960 H   0  0  0  0  0  0  0  0  0  0  0  0
  141.0580   72.0072  225.2592 H   0  0  0  0  0  0  0  0  0  0  0  0
  138.5039   76.6861  220.5965 H   0  0  0  0  0  0  0  0  0  0  0  0
  138.0190   75.1632  221.4063 H   0  0  0  0  0  0  0  0  0  0  0  0
  137.0386   77.1662  222.5382 H   0  0  0  0  0  0  0  0  0  0  0  0
  138.1361   76.2972  223.6253 H   0  0  0  0  0  0  0  0  0  0  0  0
  137.3036   79.2495  223.5297 H   0  0  0  0  0  0  0  0  0  0  0  0
  138.6103   81.3697  223.7232 H   0  0  0  0  0  0  0  0  0  0  0  0
  141.0272   81.3275  223.0475 H   0  0  0  0  0  0  0  0  0  0  0  0
  142.0506   79.2316  222.2182 H   0  0  0  0  0  0  0  0  0  0  0  0
  141.4122   77.0676  220.9290 H   0  0  0  0  0  0  0  0  0  0  0  0
  141.7061   76.5401  222.6337 H   0  0  0  0  0  0  0  0  0  0  0  0
  142.7471   70.2249  219.9488 H   0  0  0  0  0  0  0  0  0  0  0  0
  141.6255   71.0958  218.8675 H   0  0  0  0  0  0  0  0  0  0  0  0
  143.5921   70.0604  217.6816 H   0  0  0  0  0  0  0  0  0  0  0  0
  143.4771   71.8308  217.4589 H   0  0  0  0  0  0  0  0  0  0  0  0
  1  2  1  0
  2  3  1  0
  3  4  1  0
  4  5  1  0
  5  6  1  0
  6  7  1  0
  7  8  2  0
  8  9  1  0
  9 10  1  0
 10 11  1  0
 11 12  1  0
 12 13  1  0
 13 14  2  0
 14 15  1  0
 15 16  2  0
 16 17  1  0
 17 18  2  0
 18 19  1  0
  9 20  2  0
 20 21  1  0
 21 22  1  0
 22 23  1  0
 23 24  1  0
 24 25  1  0
 25 26  2  0
 26 27  1  0
 27 28  2  0
 28 29  1  0
 29 30  2  0
 30 31  1  0
 21 32  2  0
  6 33  1  0
 33 34  1  0
 34 35  1  0
 35  4  1  0
 32  7  1  0
 19 10  1  0
 31 22  1  0
 18 13  1  0
 30 25  1  0
  1 36  1  0
  1 37  1  0
  1 38  1  0
  2 39  1  0
  2 40  1  0
  3 41  1  0
  4 42  1  6
  5 43  1  0
  5 44  1  0
 11 45  1  0
 11 46  1  0
 12 47  1  0
 12 48  1  0
 14 49  1  0
 15 50  1  0
 16 51  1  0
 17 52  1  0
 19 53  1  0
 19 54  1  0
 23 55  1  0
 23 56  1  0
 24 57  1  0
 24 58  1  0
 26 59  1  0
 27 60  1  0
 28 61  1  0
 29 62  1  0
 31 63  1  0
 31 64  1  0
 33 65  1  0
 33 66  1  0
 34 67  1  0
 34 68  1  0
M  END
>  <smiles>  (13) 
CCNC1CN(c2nc(N3CCc4ccccc4C3)nc(N3CCc4ccccc4C3)n2)CCO1

>  <score_type>  (13) 
oracle

>  <origin>  (13) 
autodockgpu

>  <m_score__min__energy>  (13) 
-10.48

>  <m_primary>  (13) 
energy

>  <rmsd>  (13) 
6.541845334896815

>  <m_score__min__rmsd>  (13) 
6.541845334896815

>  <meeko>  (13) 
{"free_energy": -10.47, "intermolecular_energy": -11.96, "internal_energy": -1.02, "cluster_size": 47, "cluster_id": 1, "rank_in_cluster": 3}

>  <energy>  (13) 
-10.27

>  <cluster_rmsd>  (13) 
0.63

>  <cluster>  (13) 
1

$$$$

     RDKit          3D

 68 73  0  0  0  0  0  0  0  0999 V2000
  146.6920   73.3930  222.1840 C   0  0  0  0  0  0  0  0  0  0  0  0
  146.5170   73.6820  220.7220 C   0  0  0  0  0  0  0  0  0  0  0  0
  146.3840   72.4790  219.9580 N   0  0  0  0  0  0  0  0  0  0  0  0
  145.1860   72.4130  219.1600 C   0  0  2  0  0  0  0  0  0  0  0  0
  144.0780   73.0570  219.9240 C   0  0  0  0  0  0  0  0  0  0  0  0
  142.8920   72.2480  220.0640 N   0  0  0  0  0  0  0  0  0  0  0  0
  141.8810   72.7060  220.9660 C   0  0  0  0  0  0  0  0  0  0  0  0
  141.3430   71.8620  221.8890 N   0  0  0  0  0  0  0  0  0  0  0  0
  140.3980   72.2390  222.7560 C   0  0  0  0  0  0  0  0  0  0  0  0
  139.9150   71.2530  223.6770 N   0  0  0  0  0  0  0  0  0  0  0  0
  139.1930   70.1170  223.1430 C   0  0  0  0  0  0  0  0  0  0  0  0
  138.3060   69.5280  224.2340 C   0  0  0  0  0  0  0  0  0  0  0  0
  139.2460   69.1030  225.3180 C   0  0  0  0  0  0  0  0  0  0  0  0
  139.2020   67.8380  225.8640 C   0  0  0  0  0  0  0  0  0  0  0  0
  140.0960   67.5110  226.8590 C   0  0  0  0  0  0  0  0  0  0  0  0
  141.0120   68.4550  227.2830 C   0  0  0  0  0  0  0  0  0  0  0  0
  141.0390   69.7100  226.7250 C   0  0  0  0  0  0  0  0  0  0  0  0
  140.1600   70.0650  225.7310 C   0  0  0  0  0  0  0  0  0  0  0  0
  140.1680   71.4310  225.1020 C   0  0  0  0  0  0  0  0  0  0  0  0
  139.9500   73.4910  222.7290 N   0  0  0  0  0  0  0  0  0  0  0  0
  140.4750   74.3470  221.8140 C   0  0  0  0  0  0  0  0  0  0  0  0
  140.0240   75.7160  221.7430 N   0  0  0  0  0  0  0  0  0  0  0  0
  138.6260   76.0390  221.5360 C   0  0  0  0  0  0  0  0  0  0  0  0
  138.1330   76.8490  222.7150 C   0  0  0  0  0  0  0  0  0  0  0  0
  138.9930   78.0660  222.7730 C   0  0  0  0  0  0  0  0  0  0  0  0
  138.4210   79.2320  223.2310 C   0  0  0  0  0  0  0  0  0  0  0  0
  139.1420   80.4160  223.3200 C   0  0  0  0  0  0  0  0  0  0  0  0
  140.4720   80.3760  222.9250 C   0  0  0  0  0  0  0  0  0  0  0  0
  141.0360   79.1860  222.4630 C   0  0  0  0  0  0  0  0  0  0  0  0
  140.3180   78.0300  222.3800 C   0  0  0  0  0  0  0  0  0  0  0  0
  140.9760   76.7970  221.8810 C   0  0  0  0  0  0  0  0  0  0  0  0
  141.4260   73.9650  220.9430 N   0  0  0  0  0  0  0  0  0  0  0  0
  142.6710   71.0070  219.3480 C   0  0  0  0  0  0  0  0  0  0  0  0
  143.6780   70.9270  218.2450 C   0  0  0  0  0  0  0  0  0  0  0  0
  144.9460   71.1110  218.7920 O   0  0  0  0  0  0  0  0  0  0  0  0
  146.2114   74.1867  222.7748 H   0  0  0  0  0  0  0  0  0  0  0  0
  146.2282   72.4250  222.4245 H   0  0  0  0  0  0  0  0  0  0  0  0
  147.7647   73.3554  222.4245 H   0  0  0  0  0  0  0  0  0  0  0  0
  145.6129   74.2934  220.5850 H   0  0  0  0  0  0  0  0  0  0  0  0
  147.4109   74.2165  220.3682 H   0  0  0  0  0  0  0  0  0  0  0  0
  146.6410   71.6140  220.4480 H   0  0  0  0  0  0  0  0  0  0  0  0
  145.2876   72.9689  218.2163 H   0  0  0  0  0  0  0  0  0  0  0  0
  144.4502   73.2963  220.9311 H   0  0  0  0  0  0  0  0  0  0  0  0
  143.7809   73.9467  219.3494 H   0  0  0  0  0  0  0  0  0  0  0  0
  138.5691   70.4422  222.2974 H   0  0  0  0  0  0  0  0  0  0  0  0
  139.9070   69.3554  222.7964 H   0  0  0  0  0  0  0  0  0  0  0  0
  137.6019   70.2853  224.6092 H   0  0  0  0  0  0  0  0  0  0  0  0
  137.7007   68.6880  223.8624 H   0  0  0  0  0  0  0  0  0  0  0  0
  138.4649   67.1019  225.5107 H   0  0  0  0  0  0  0  0  0  0  0  0
  140.0812   66.5086  227.3117 H   0  0  0  0  0  0  0  0  0  0  0  0
  141.7284   68.1982  228.0772 H   0  0  0  0  0  0  0  0  0  0  0  0
  141.7776   70.4436  227.0805 H   0  0  0  0  0  0  0  0  0  0  0  0
  139.3809   72.0560  225.5490 H   0  0  0  0  0  0  0  0  0  0  0  0
  141.1342   71.9303  225.2669 H   0  0  0  0  0  0  0  0  0  0  0  0
  138.5150   76.6256  220.6121 H   0  0  0  0  0  0  0  0  0  0  0  0
  138.0380   75.1137  221.4461 H   0  0  0  0  0  0  0  0  0  0  0  0
  137.0803   77.1327  222.5691 H   0  0  0  0  0  0  0  0  0  0  0  0
  138.1914   76.2722  223.6498 H   0  0  0  0  0  0  0  0  0  0  0  0
  137.3638   79.2256  223.5348 H   0  0  0  0  0  0  0  0  0  0  0  0
  138.6795   81.3440  223.6872 H   0  0  0  0  0  0  0  0  0  0  0  0
  141.0852   81.2878  222.9764 H   0  0  0  0  0  0  0  0  0  0  0  0
  142.0924   79.1806  222.1564 H   0  0  0  0  0  0  0  0  0  0  0  0
  141.4291   77.0037  220.9002 H   0  0  0  0  0  0  0  0  0  0  0  0
  141.7449   76.4939  222.6068 H   0  0  0  0  0  0  0  0  0  0  0  0
  142.7964   70.1540  220.0311 H   0  0  0  0  0  0  0  0  0  0  0  0
  141.6506   70.9776  218.9382 H   0  0  0  0  0  0  0  0  0  0  0  0
  143.6217   69.9405  217.7616 H   0  0  0  0  0  0  0  0  0  0  0  0
  143.4755   71.7027  217.4918 H   0  0  0  0  0  0  0  0  0  0  0  0
  1  2  1  0
  2  3  1  0
  3  4  1  0
  4  5  1  0
  5  6  1  0
  6  7  1  0
  7  8  2  0
  8  9  1  0
  9 10  1  0
 10 11  1  0
 11 12  1  0
 12 13  1  0
 13 14  2  0
 14 15  1  0
 15 16  2  0
 16 17  1  0
 17 18  2  0
 18 19  1  0
  9 20  2  0
 20 21  1  0
 21 22  1  0
 22 23  1  0
 23 24  1  0
 24 25  1  0
 25 26  2  0
 26 27  1  0
 27 28  2  0
 28 29  1  0
 29 30  2  0
 30 31  1  0
 21 32  2  0
  6 33  1  0
 33 34  1  0
 34 35  1  0
 35  4  1  0
 32  7  1  0
 19 10  1  0
 31 22  1  0
 18 13  1  0
 30 25  1  0
  1 36  1  0
  1 37  1  0
  1 38  1  0
  2 39  1  0
  2 40  1  0
  3 41  1  0
  4 42  1  6
  5 43  1  0
  5 44  1  0
 11 45  1  0
 11 46  1  0
 12 47  1  0
 12 48  1  0
 14 49  1  0
 15 50  1  0
 16 51  1  0
 17 52  1  0
 19 53  1  0
 19 54  1  0
 23 55  1  0
 23 56  1  0
 24 57  1  0
 24 58  1  0
 26 59  1  0
 27 60  1  0
 28 61  1  0
 29 62  1  0
 31 63  1  0
 31 64  1  0
 33 65  1  0
 33 66  1  0
 34 67  1  0
 34 68  1  0
M  END
>  <smiles>  (14) 
CCNC1CN(c2nc(N3CCc4ccccc4C3)nc(N3CCc4ccccc4C3)n2)CCO1

>  <score_type>  (14) 
oracle

>  <origin>  (14) 
autodockgpu

>  <m_score__min__energy>  (14) 
-10.48

>  <m_primary>  (14) 
energy

>  <rmsd>  (14) 
6.580164035915367

>  <m_score__min__rmsd>  (14) 
6.580164035915367

>  <meeko>  (14) 
{"free_energy": -10.46, "intermolecular_energy": -11.95, "internal_energy": -1.02, "cluster_size": 47, "cluster_id": 1, "rank_in_cluster": 4}

>  <energy>  (14) 
-10.16

>  <cluster_rmsd>  (14) 
0.62

>  <cluster>  (14) 
1

$$$$

     RDKit          3D

 68 73  0  0  0  0  0  0  0  0999 V2000
  145.8880   73.9270  221.2190 C   0  0  0  0  0  0  0  0  0  0  0  0
  146.4280   73.0720  220.1110 C   0  0  0  0  0  0  0  0  0  0  0  0
  145.8390   73.4070  218.8500 N   0  0  0  0  0  0  0  0  0  0  0  0
  144.6750   72.6280  218.5150 C   0  0  2  0  0  0  0  0  0  0  0  0
  143.5150   73.1610  219.2870 C   0  0  0  0  0  0  0  0  0  0  0  0
  142.7890   72.1720  220.0450 N   0  0  0  0  0  0  0  0  0  0  0  0
  141.8110   72.6400  220.9780 C   0  0  0  0  0  0  0  0  0  0  0  0
  141.4370   73.9490  220.9900 N   0  0  0  0  0  0  0  0  0  0  0  0
  140.5280   74.4380  221.8390 C   0  0  0  0  0  0  0  0  0  0  0  0
  140.2240   75.8360  221.7490 N   0  0  0  0  0  0  0  0  0  0  0  0
  138.9180   76.2790  222.1910 C   0  0  0  0  0  0  0  0  0  0  0  0
  138.5840   77.6050  221.5150 C   0  0  0  0  0  0  0  0  0  0  0  0
  139.6510   78.5550  221.9620 C   0  0  0  0  0  0  0  0  0  0  0  0
  139.3480   79.7900  222.4930 C   0  0  0  0  0  0  0  0  0  0  0  0
  140.3780   80.6160  222.8850 C   0  0  0  0  0  0  0  0  0  0  0  0
  141.6840   80.1870  222.7380 C   0  0  0  0  0  0  0  0  0  0  0  0
  141.9630   78.9510  222.2060 C   0  0  0  0  0  0  0  0  0  0  0  0
  140.9570   78.1050  221.8070 C   0  0  0  0  0  0  0  0  0  0  0  0
  141.2330   76.7470  221.2230 C   0  0  0  0  0  0  0  0  0  0  0  0
  139.9520   73.6240  222.7190 N   0  0  0  0  0  0  0  0  0  0  0  0
  140.3130   72.3140  222.7210 C   0  0  0  0  0  0  0  0  0  0  0  0
  139.7190   71.3880  223.6560 N   0  0  0  0  0  0  0  0  0  0  0  0
  138.6790   70.4660  223.2460 C   0  0  0  0  0  0  0  0  0  0  0  0
  139.1590   69.0510  223.4840 C   0  0  0  0  0  0  0  0  0  0  0  0
  139.4600   68.9540  224.9420 C   0  0  0  0  0  0  0  0  0  0  0  0
  139.2540   67.7400  225.5570 C   0  0  0  0  0  0  0  0  0  0  0  0
  139.5050   67.5520  226.9110 C   0  0  0  0  0  0  0  0  0  0  0  0
  139.9750   68.6470  227.6230 C   0  0  0  0  0  0  0  0  0  0  0  0
  140.1780   69.8710  226.9830 C   0  0  0  0  0  0  0  0  0  0  0  0
  139.9270   70.0430  225.6540 C   0  0  0  0  0  0  0  0  0  0  0  0
  140.1640   71.3700  225.0330 C   0  0  0  0  0  0  0  0  0  0  0  0
  141.2290   71.8250  221.8660 N   0  0  0  0  0  0  0  0  0  0  0  0
  142.9960   70.7430  219.9170 C   0  0  0  0  0  0  0  0  0  0  0  0
  143.7900   70.5040  218.6720 C   0  0  0  0  0  0  0  0  0  0  0  0
  144.9350   71.2950  218.7220 O   0  0  0  0  0  0  0  0  0  0  0  0
  146.1651   73.4883  222.1889 H   0  0  0  0  0  0  0  0  0  0  0  0
  146.3109   74.9394  221.1403 H   0  0  0  0  0  0  0  0  0  0  0  0
  144.7921   73.9802  221.1403 H   0  0  0  0  0  0  0  0  0  0  0  0
  147.5164   73.2176  220.0462 H   0  0  0  0  0  0  0  0  0  0  0  0
  146.1838   72.0234  220.3363 H   0  0  0  0  0  0  0  0  0  0  0  0
  146.5010   73.5710  218.0820 H   0  0  0  0  0  0  0  0  0  0  0  0
  144.4148   72.7133  217.4496 H   0  0  0  0  0  0  0  0  0  0  0  0
  143.8902   73.9217  219.9874 H   0  0  0  0  0  0  0  0  0  0  0  0
  142.8086   73.5646  218.5466 H   0  0  0  0  0  0  0  0  0  0  0  0
  138.1627   75.5268  221.9193 H   0  0  0  0  0  0  0  0  0  0  0  0
  138.9221   76.4111  223.2830 H   0  0  0  0  0  0  0  0  0  0  0  0
  138.6000   77.4946  220.4207 H   0  0  0  0  0  0  0  0  0  0  0  0
  137.5785   77.9610  221.7839 H   0  0  0  0  0  0  0  0  0  0  0  0
  138.3014   80.1106  222.6019 H   0  0  0  0  0  0  0  0  0  0  0  0
  140.1636   81.6073  223.3108 H   0  0  0  0  0  0  0  0  0  0  0  0
  142.5098   80.8429  223.0507 H   0  0  0  0  0  0  0  0  0  0  0  0
  143.0106   78.6335  222.0977 H   0  0  0  0  0  0  0  0  0  0  0  0
  141.1673   76.7886  220.1258 H   0  0  0  0  0  0  0  0  0  0  0  0
  142.2437   76.4057  221.4913 H   0  0  0  0  0  0  0  0  0  0  0  0
  137.7681   70.6511  223.8342 H   0  0  0  0  0  0  0  0  0  0  0  0
  138.4526   70.6090  222.1791 H   0  0  0  0  0  0  0  0  0  0  0  0
  138.3749   68.3307  223.2076 H   0  0  0  0  0  0  0  0  0  0  0  0
  140.0457   68.8205  222.8752 H   0  0  0  0  0  0  0  0  0  0  0  0
  138.8802   66.8949  224.9602 H   0  0  0  0  0  0  0  0  0  0  0  0
  139.3387   66.5791  227.3966 H   0  0  0  0  0  0  0  0  0  0  0  0
  140.1887   68.5497  228.6976 H   0  0  0  0  0  0  0  0  0  0  0  0
  140.5521   70.7232  227.5693 H   0  0  0  0  0  0  0  0  0  0  0  0
  139.6123   72.1351  225.5989 H   0  0  0  0  0  0  0  0  0  0  0  0
  141.2441   71.5775  225.0538 H   0  0  0  0  0  0  0  0  0  0  0  0
  143.5477   70.3654  220.7905 H   0  0  0  0  0  0  0  0  0  0  0  0
  142.0304   70.2189  219.8626 H   0  0  0  0  0  0  0  0  0  0  0  0
  144.0739   69.4430  218.6104 H   0  0  0  0  0  0  0  0  0  0  0  0
  143.1908   70.7621  217.7864 H   0  0  0  0  0  0  0  0  0  0  0  0
  1  2  1  0
  2  3  1  0
  3  4  1  0
  4  5  1  0
  5  6  1  0
  6  7  1  0
  7  8  2  0
  8  9  1  0
  9 10  1  0
 10 11  1  0
 11 12  1  0
 12 13  1  0
 13 14  2  0
 14 15  1  0
 15 16  2  0
 16 17  1  0
 17 18  2  0
 18 19  1  0
  9 20  2  0
 20 21  1  0
 21 22  1  0
 22 23  1  0
 23 24  1  0
 24 25  1  0
 25 26  2  0
 26 27  1  0
 27 28  2  0
 28 29  1  0
 29 30  2  0
 30 31  1  0
 21 32  2  0
  6 33  1  0
 33 34  1  0
 34 35  1  0
 35  4  1  0
 32  7  1  0
 19 10  1  0
 31 22  1  0
 18 13  1  0
 30 25  1  0
  1 36  1  0
  1 37  1  0
  1 38  1  0
  2 39  1  0
  2 40  1  0
  3 41  1  0
  4 42  1  6
  5 43  1  0
  5 44  1  0
 11 45  1  0
 11 46  1  0
 12 47  1  0
 12 48  1  0
 14 49  1  0
 15 50  1  0
 16 51  1  0
 17 52  1  0
 19 53  1  0
 19 54  1  0
 23 55  1  0
 23 56  1  0
 24 57  1  0
 24 58  1  0
 26 59  1  0
 27 60  1  0
 28 61  1  0
 29 62  1  0
 31 63  1  0
 31 64  1  0
 33 65  1  0
 33 66  1  0
 34 67  1  0
 34 68  1  0
M  END
>  <smiles>  (15) 
CCNC1CN(c2nc(N3CCc4ccccc4C3)nc(N3CCc4ccccc4C3)n2)CCO1

>  <score_type>  (15) 
oracle

>  <origin>  (15) 
autodockgpu

>  <m_score__min__energy>  (15) 
-10.48

>  <m_primary>  (15) 
energy

>  <rmsd>  (15) 
6.579764136641173

>  <m_score__min__rmsd>  (15) 
6.579764136641173

>  <meeko>  (15) 
{"free_energy": -9.74, "intermolecular_energy": -11.23, "internal_energy": -1.1, "cluster_size": 47, "cluster_id": 1, "rank_in_cluster": 43}

>  <energy>  (15) 
-10.15

>  <cluster_rmsd>  (15) 
0.45

>  <cluster>  (15) 
1

$$$$

     RDKit          3D

 68 73  0  0  0  0  0  0  0  0999 V2000
  147.5210   74.1800  216.3120 C   0  0  0  0  0  0  0  0  0  0  0  0
  146.0890   73.8100  216.5630 C   0  0  0  0  0  0  0  0  0  0  0  0
  145.8850   73.3700  217.9110 N   0  0  0  0  0  0  0  0  0  0  0  0
  144.9630   72.2710  218.0410 C   0  0  2  0  0  0  0  0  0  0  0  0
  143.7310   72.7700  218.7200 C   0  0  0  0  0  0  0  0  0  0  0  0
  143.3280   72.0050  219.8750 N   0  0  0  0  0  0  0  0  0  0  0  0
  142.2950   72.5500  220.7010 C   0  0  0  0  0  0  0  0  0  0  0  0
  141.6870   71.7810  221.6460 N   0  0  0  0  0  0  0  0  0  0  0  0
  140.7190   72.2400  222.4440 C   0  0  0  0  0  0  0  0  0  0  0  0
  140.1590   71.3270  223.3980 N   0  0  0  0  0  0  0  0  0  0  0  0
  139.3230   70.2540  222.9040 C   0  0  0  0  0  0  0  0  0  0  0  0
  138.4030   69.7800  224.0240 C   0  0  0  0  0  0  0  0  0  0  0  0
  139.3170   69.2920  225.1030 C   0  0  0  0  0  0  0  0  0  0  0  0
  139.1610   68.0510  225.6820 C   0  0  0  0  0  0  0  0  0  0  0  0
  140.0380   67.6630  226.6710 C   0  0  0  0  0  0  0  0  0  0  0  0
  141.0480   68.5240  227.0570 C   0  0  0  0  0  0  0  0  0  0  0  0
  141.1850   69.7570  226.4660 C   0  0  0  0  0  0  0  0  0  0  0  0
  140.3270   70.1710  225.4770 C   0  0  0  0  0  0  0  0  0  0  0  0
  140.4540   71.5150  224.8140 C   0  0  0  0  0  0  0  0  0  0  0  0
  140.3170   73.5030  222.3240 N   0  0  0  0  0  0  0  0  0  0  0  0
  140.9130   74.2850  221.3870 C   0  0  0  0  0  0  0  0  0  0  0  0
  140.5150   75.6620  221.2150 N   0  0  0  0  0  0  0  0  0  0  0  0
  139.1410   76.0790  221.4100 C   0  0  0  0  0  0  0  0  0  0  0  0
  139.0970   77.1100  222.5170 C   0  0  0  0  0  0  0  0  0  0  0  0
  139.9720   78.2330  222.0730 C   0  0  0  0  0  0  0  0  0  0  0  0
  139.6280   79.5070  222.4690 C   0  0  0  0  0  0  0  0  0  0  0  0
  140.3820   80.6150  222.1060 C   0  0  0  0  0  0  0  0  0  0  0  0
  141.5040   80.3870  221.3210 C   0  0  0  0  0  0  0  0  0  0  0  0
  141.8380   79.0890  220.9290 C   0  0  0  0  0  0  0  0  0  0  0  0
  141.0900   78.0080  221.2920 C   0  0  0  0  0  0  0  0  0  0  0  0
  141.4990   76.6550  220.8420 C   0  0  0  0  0  0  0  0  0  0  0  0
  141.8880   73.8200  220.5840 N   0  0  0  0  0  0  0  0  0  0  0  0
  143.9080   70.7290  220.2420 C   0  0  0  0  0  0  0  0  0  0  0  0
  144.6910   70.2250  219.0710 C   0  0  0  0  0  0  0  0  0  0  0  0
  145.5810   71.2210  218.6770 O   0  0  0  0  0  0  0  0  0  0  0  0
  148.0390   74.3138  217.2731 H   0  0  0  0  0  0  0  0  0  0  0  0
  148.0117   73.3791  215.7394 H   0  0  0  0  0  0  0  0  0  0  0  0
  147.5623   75.1183  215.7394 H   0  0  0  0  0  0  0  0  0  0  0  0
  145.4552   74.6892  216.3750 H   0  0  0  0  0  0  0  0  0  0  0  0
  145.8247   72.9826  215.8880 H   0  0  0  0  0  0  0  0  0  0  0  0
  145.7900   74.1170  218.6090 H   0  0  0  0  0  0  0  0  0  0  0  0
  144.6505   71.8769  217.0627 H   0  0  0  0  0  0  0  0  0  0  0  0
  143.9126   73.8062  219.0415 H   0  0  0  0  0  0  0  0  0  0  0  0
  142.9148   72.6811  217.9879 H   0  0  0  0  0  0  0  0  0  0  0  0
  138.7184   70.6173  222.0599 H   0  0  0  0  0  0  0  0  0  0  0  0
  139.9542   69.4191  222.5655 H   0  0  0  0  0  0  0  0  0  0  0  0
  137.7823   70.6108  224.3908 H   0  0  0  0  0  0  0  0  0  0  0  0
  137.7126   68.9942  223.6838 H   0  0  0  0  0  0  0  0  0  0  0  0
  138.3498   67.3816  225.3598 H   0  0  0  0  0  0  0  0  0  0  0  0
  139.9355   66.6775  227.1489 H   0  0  0  0  0  0  0  0  0  0  0  0
  141.7504   68.2186  227.8466 H   0  0  0  0  0  0  0  0  0  0  0  0
  141.9967   70.4245  226.7910 H   0  0  0  0  0  0  0  0  0  0  0  0
  139.7383   72.2230  225.2573 H   0  0  0  0  0  0  0  0  0  0  0  0
  141.4659   71.9240  224.9511 H   0  0  0  0  0  0  0  0  0  0  0  0
  138.7524   76.5187  220.4796 H   0  0  0  0  0  0  0  0  0  0  0  0
  138.5220   75.2114  221.6823 H   0  0  0  0  0  0  0  0  0  0  0  0
  138.0668   77.4653  222.6668 H   0  0  0  0  0  0  0  0  0  0  0  0
  139.4403   76.6875  223.4728 H   0  0  0  0  0  0  0  0  0  0  0  0
  138.7313   79.6503  223.0898 H   0  0  0  0  0  0  0  0  0  0  0  0
  140.1024   81.6294  222.4266 H   0  0  0  0  0  0  0  0  0  0  0  0
  142.1329   81.2328  221.0063 H   0  0  0  0  0  0  0  0  0  0  0  0
  142.7325   78.9336  220.3079 H   0  0  0  0  0  0  0  0  0  0  0  0
  141.6088   76.6584  219.7475 H   0  0  0  0  0  0  0  0  0  0  0  0
  142.4534   76.3998  221.3257 H   0  0  0  0  0  0  0  0  0  0  0  0
  144.5729   70.8564  221.1090 H   0  0  0  0  0  0  0  0  0  0  0  0
  143.1179   70.0126  220.5111 H   0  0  0  0  0  0  0  0  0  0  0  0
  145.2481   69.3209  219.3578 H   0  0  0  0  0  0  0  0  0  0  0  0
  144.0128   69.9741  218.2421 H   0  0  0  0  0  0  0  0  0  0  0  0
  1  2  1  0
  2  3  1  0
  3  4  1  0
  4  5  1  0
  5  6  1  0
  6  7  1  0
  7  8  2  0
  8  9  1  0
  9 10  1  0
 10 11  1  0
 11 12  1  0
 12 13  1  0
 13 14  2  0
 14 15  1  0
 15 16  2  0
 16 17  1  0
 17 18  2  0
 18 19  1  0
  9 20  2  0
 20 21  1  0
 21 22  1  0
 22 23  1  0
 23 24  1  0
 24 25  1  0
 25 26  2  0
 26 27  1  0
 27 28  2  0
 28 29  1  0
 29 30  2  0
 30 31  1  0
 21 32  2  0
  6 33  1  0
 33 34  1  0
 34 35  1  0
 35  4  1  0
 32  7  1  0
 19 10  1  0
 31 22  1  0
 18 13  1  0
 30 25  1  0
  1 36  1  0
  1 37  1  0
  1 38  1  0
  2 39  1  0
  2 40  1  0
  3 41  1  0
  4 42  1  6
  5 43  1  0
  5 44  1  0
 11 45  1  0
 11 46  1  0
 12 47  1  0
 12 48  1  0
 14 49  1  0
 15 50  1  0
 16 51  1  0
 17 52  1  0
 19 53  1  0
 19 54  1  0
 23 55  1  0
 23 56  1  0
 24 57  1  0
 24 58  1  0
 26 59  1  0
 27 60  1  0
 28 61  1  0
 29 62  1  0
 31 63  1  0
 31 64  1  0
 33 65  1  0
 33 66  1  0
 34 67  1  0
 34 68  1  0
M  END
>  <smiles>  (16) 
CCNC1CN(c2nc(N3CCc4ccccc4C3)nc(N3CCc4ccccc4C3)n2)CCO1

>  <score_type>  (16) 
oracle

>  <origin>  (16) 
autodockgpu

>  <m_score__min__energy>  (16) 
-10.48

>  <m_primary>  (16) 
energy

>  <rmsd>  (16) 
7.774662074809502

>  <m_score__min__rmsd>  (16) 
7.774662074809502

>  <meeko>  (16) 
{"free_energy": -9.79, "intermolecular_energy": -11.28, "internal_energy": -0.94, "cluster_size": 47, "cluster_id": 1, "rank_in_cluster": 40}

>  <energy>  (16) 
-10.11

>  <cluster_rmsd>  (16) 
0.49

>  <cluster>  (16) 
1

$$$$

     RDKit          3D

 68 73  0  0  0  0  0  0  0  0999 V2000
  143.6330   76.0390  217.0940 C   0  0  0  0  0  0  0  0  0  0  0  0
  143.7130   74.6070  216.6530 C   0  0  0  0  0  0  0  0  0  0  0  0
  144.9780   74.0220  216.9830 N   0  0  0  0  0  0  0  0  0  0  0  0
  144.9070   72.9860  217.9830 C   0  0  2  0  0  0  0  0  0  0  0  0
  143.6040   73.1130  218.6990 C   0  0  0  0  0  0  0  0  0  0  0  0
  143.7100   73.1770  220.1360 N   0  0  0  0  0  0  0  0  0  0  0  0
  142.5330   73.5210  220.8720 C   0  0  0  0  0  0  0  0  0  0  0  0
  141.8710   72.5790  221.5980 N   0  0  0  0  0  0  0  0  0  0  0  0
  140.7680   72.8470  222.3040 C   0  0  0  0  0  0  0  0  0  0  0  0
  140.1650   71.7650  223.0260 N   0  0  0  0  0  0  0  0  0  0  0  0
  139.5670   70.6880  222.2660 C   0  0  0  0  0  0  0  0  0  0  0  0
  138.5290   69.9810  223.1310 C   0  0  0  0  0  0  0  0  0  0  0  0
  139.2920   69.4480  224.3030 C   0  0  0  0  0  0  0  0  0  0  0  0
  139.1900   68.1320  224.6990 C   0  0  0  0  0  0  0  0  0  0  0  0
  139.9190   67.7060  225.7870 C   0  0  0  0  0  0  0  0  0  0  0  0
  140.7320   68.6050  226.4510 C   0  0  0  0  0  0  0  0  0  0  0  0
  140.8190   69.9130  226.0390 C   0  0  0  0  0  0  0  0  0  0  0  0
  140.1040   70.3660  224.9570 C   0  0  0  0  0  0  0  0  0  0  0  0
  140.1810   71.7920  224.4840 C   0  0  0  0  0  0  0  0  0  0  0  0
  140.2790   74.0840  222.3070 N   0  0  0  0  0  0  0  0  0  0  0  0
  140.9270   75.0370  221.5870 C   0  0  0  0  0  0  0  0  0  0  0  0
  140.4390   76.3960  221.5560 N   0  0  0  0  0  0  0  0  0  0  0  0
  139.0210   76.6860  221.4840 C   0  0  0  0  0  0  0  0  0  0  0  0
  138.6240   77.4890  222.7040 C   0  0  0  0  0  0  0  0  0  0  0  0
  139.4580   78.7260  222.6750 C   0  0  0  0  0  0  0  0  0  0  0  0
  138.9050   79.8800  223.1840 C   0  0  0  0  0  0  0  0  0  0  0  0
  139.6040   81.0810  223.2000 C   0  0  0  0  0  0  0  0  0  0  0  0
  140.8910   81.0700  222.6800 C   0  0  0  0  0  0  0  0  0  0  0  0
  141.4350   79.8900  222.1690 C   0  0  0  0  0  0  0  0  0  0  0  0
  140.7390   78.7180  222.1570 C   0  0  0  0  0  0  0  0  0  0  0  0
  141.3750   77.4990  221.6000 C   0  0  0  0  0  0  0  0  0  0  0  0
  142.0370   74.7640  220.8780 N   0  0  0  0  0  0  0  0  0  0  0  0
  144.9330   72.9160  220.8690 C   0  0  0  0  0  0  0  0  0  0  0  0
  145.8980   72.2580  219.9340 C   0  0  0  0  0  0  0  0  0  0  0  0
  146.0140   73.0500  218.7940 O   0  0  0  0  0  0  0  0  0  0  0  0
  143.6304   76.0846  218.1930 H   0  0  0  0  0  0  0  0  0  0  0  0
  144.5017   76.5912  216.7061 H   0  0  0  0  0  0  0  0  0  0  0  0
  142.7082   76.4910  216.7061 H   0  0  0  0  0  0  0  0  0  0  0  0
  142.9152   74.0356  217.1501 H   0  0  0  0  0  0  0  0  0  0  0  0
  143.5958   74.5774  215.5597 H   0  0  0  0  0  0  0  0  0  0  0  0
  145.7580   74.6820  217.0810 H   0  0  0  0  0  0  0  0  0  0  0  0
  144.9285   71.9804  217.5377 H   0  0  0  0  0  0  0  0  0  0  0  0
  143.1097   74.0318  218.3506 H   0  0  0  0  0  0  0  0  0  0  0  0
  143.0332   72.2010  218.4698 H   0  0  0  0  0  0  0  0  0  0  0  0
  139.0808   71.0970  221.3680 H   0  0  0  0  0  0  0  0  0  0  0  0
  140.3455   69.9723  221.9632 H   0  0  0  0  0  0  0  0  0  0  0  0
  137.7567   70.6901  223.4637 H   0  0  0  0  0  0  0  0  0  0  0  0
  138.0104   69.1823  222.5805 H   0  0  0  0  0  0  0  0  0  0  0  0
  138.5372   67.4334  224.1551 H   0  0  0  0  0  0  0  0  0  0  0  0
  139.8549   66.6609  226.1241 H   0  0  0  0  0  0  0  0  0  0  0  0
  141.3167   68.2693  227.3201 H   0  0  0  0  0  0  0  0  0  0  0  0
  141.4724   70.6094  226.5850 H   0  0  0  0  0  0  0  0  0  0  0  0
  139.3176   72.3607  224.8598 H   0  0  0  0  0  0  0  0  0  0  0  0
  141.0957   72.2773  224.8552 H   0  0  0  0  0  0  0  0  0  0  0  0
  138.8082   77.2665  220.5742 H   0  0  0  0  0  0  0  0  0  0  0  0
  138.4489   75.7470  221.4526 H   0  0  0  0  0  0  0  0  0  0  0  0
  137.5558   77.7477  222.6596 H   0  0  0  0  0  0  0  0  0  0  0  0
  138.7844   76.9180  223.6304 H   0  0  0  0  0  0  0  0  0  0  0  0
  137.8826   79.8503  223.5888 H   0  0  0  0  0  0  0  0  0  0  0  0
  139.1570   82.0001  223.6069 H   0  0  0  0  0  0  0  0  0  0  0  0
  141.4853   81.9956  222.6705 H   0  0  0  0  0  0  0  0  0  0  0  0
  142.4573   79.9066  221.7634 H   0  0  0  0  0  0  0  0  0  0  0  0
  141.7274   77.7119  220.5800 H   0  0  0  0  0  0  0  0  0  0  0  0
  142.2169   77.2167  222.2492 H   0  0  0  0  0  0  0  0  0  0  0  0
  145.3563   73.8617  221.2385 H   0  0  0  0  0  0  0  0  0  0  0  0
  144.7309   72.2645  221.7320 H   0  0  0  0  0  0  0  0  0  0  0  0
  146.8797   72.1611  220.4207 H   0  0  0  0  0  0  0  0  0  0  0  0
  145.5375   71.2548  219.6626 H   0  0  0  0  0  0  0  0  0  0  0  0
  1  2  1  0
  2  3  1  0
  3  4  1  0
  4  5  1  0
  5  6  1  0
  6  7  1  0
  7  8  2  0
  8  9  1  0
  9 10  1  0
 10 11  1  0
 11 12  1  0
 12 13  1  0
 13 14  2  0
 14 15  1  0
 15 16  2  0
 16 17  1  0
 17 18  2  0
 18 19  1  0
  9 20  2  0
 20 21  1  0
 21 22  1  0
 22 23  1  0
 23 24  1  0
 24 25  1  0
 25 26  2  0
 26 27  1  0
 27 28  2  0
 28 29  1  0
 29 30  2  0
 30 31  1  0
 21 32  2  0
  6 33  1  0
 33 34  1  0
 34 35  1  0
 35  4  1  0
 32  7  1  0
 19 10  1  0
 31 22  1  0
 18 13  1  0
 30 25  1  0
  1 36  1  0
  1 37  1  0
  1 38  1  0
  2 39  1  0
  2 40  1  0
  3 41  1  0
  4 42  1  6
  5 43  1  0
  5 44  1  0
 11 45  1  0
 11 46  1  0
 12 47  1  0
 12 48  1  0
 14 49  1  0
 15 50  1  0
 16 51  1  0
 17 52  1  0
 19 53  1  0
 19 54  1  0
 23 55  1  0
 23 56  1  0
 24 57  1  0
 24 58  1  0
 26 59  1  0
 27 60  1  0
 28 61  1  0
 29 62  1  0
 31 63  1  0
 31 64  1  0
 33 65  1  0
 33 66  1  0
 34 67  1  0
 34 68  1  0
M  END
>  <smiles>  (17) 
CCNC1CN(c2nc(N3CCc4ccccc4C3)nc(N3CCc4ccccc4C3)n2)CCO1

>  <score_type>  (17) 
oracle

>  <origin>  (17) 
autodockgpu

>  <m_score__min__energy>  (17) 
-10.48

>  <m_primary>  (17) 
energy

>  <rmsd>  (17) 
6.666317317817013

>  <m_score__min__rmsd>  (17) 
6.666317317817013

>  <meeko>  (17) 
{"free_energy": -9.82, "intermolecular_energy": -11.31, "internal_energy": -1.1, "cluster_size": 47, "cluster_id": 1, "rank_in_cluster": 37}

>  <energy>  (17) 
-10.08

>  <cluster_rmsd>  (17) 
1.65

>  <cluster>  (17) 
1

$$$$

     RDKit          3D

 68 73  0  0  0  0  0  0  0  0999 V2000
  142.4020   80.2820  223.6310 C   0  0  0  0  0  0  0  0  0  0  0  0
  141.5940   79.0490  223.3540 C   0  0  0  0  0  0  0  0  0  0  0  0
  141.8010   78.5700  222.0210 N   0  0  0  0  0  0  0  0  0  0  0  0
  140.6860   77.8390  221.4750 C   0  0  2  0  0  0  0  0  0  0  0  0
  140.7630   76.4310  221.9640 C   0  0  0  0  0  0  0  0  0  0  0  0
  140.7060   75.4290  220.9270 N   0  0  0  0  0  0  0  0  0  0  0  0
  140.9970   74.0780  221.2960 C   0  0  0  0  0  0  0  0  0  0  0  0
  141.8690   73.3330  220.5630 N   0  0  0  0  0  0  0  0  0  0  0  0
  142.1770   72.0680  220.8640 C   0  0  0  0  0  0  0  0  0  0  0  0
  143.1100   71.3930  220.0100 N   0  0  0  0  0  0  0  0  0  0  0  0
  144.4140   71.9920  219.8170 C   0  0  0  0  0  0  0  0  0  0  0  0
  145.0100   71.4860  218.5080 C   0  0  0  0  0  0  0  0  0  0  0  0
  145.1210   70.0030  218.6740 C   0  0  0  0  0  0  0  0  0  0  0  0
  146.2950   69.3290  218.4140 C   0  0  0  0  0  0  0  0  0  0  0  0
  146.3300   67.9630  218.5870 C   0  0  0  0  0  0  0  0  0  0  0  0
  145.1920   67.3050  219.0150 C   0  0  0  0  0  0  0  0  0  0  0  0
  144.0330   67.9970  219.2690 C   0  0  0  0  0  0  0  0  0  0  0  0
  143.9680   69.3590  219.1060 C   0  0  0  0  0  0  0  0  0  0  0  0
  142.7120   70.1420  219.3760 C   0  0  0  0  0  0  0  0  0  0  0  0
  141.6150   71.4940  221.9240 N   0  0  0  0  0  0  0  0  0  0  0  0
  140.7420   72.2230  222.6680 C   0  0  0  0  0  0  0  0  0  0  0  0
  140.1040   71.6470  223.8280 N   0  0  0  0  0  0  0  0  0  0  0  0
  138.8810   70.8800  223.7120 C   0  0  0  0  0  0  0  0  0  0  0  0
  139.1320   69.4810  224.2320 C   0  0  0  0  0  0  0  0  0  0  0  0
  139.5710   69.6360  225.6490 C   0  0  0  0  0  0  0  0  0  0  0  0
  139.2280   68.6420  226.5370 C   0  0  0  0  0  0  0  0  0  0  0  0
  139.5920   68.6980  227.8770 C   0  0  0  0  0  0  0  0  0  0  0  0
  140.3210   69.8060  228.2860 C   0  0  0  0  0  0  0  0  0  0  0  0
  140.6610   70.8050  227.3720 C   0  0  0  0  0  0  0  0  0  0  0  0
  140.2970   70.7380  226.0600 C   0  0  0  0  0  0  0  0  0  0  0  0
  140.6900   71.8330  225.1380 C   0  0  0  0  0  0  0  0  0  0  0  0
  140.4340   73.4960  222.3620 N   0  0  0  0  0  0  0  0  0  0  0  0
  140.3740   75.7140  219.5450 C   0  0  0  0  0  0  0  0  0  0  0  0
  139.7890   77.0890  219.4870 C   0  0  0  0  0  0  0  0  0  0  0  0
  140.6720   77.9690  220.1070 O   0  0  0  0  0  0  0  0  0  0  0  0
  142.4945   80.4232  224.7180 H   0  0  0  0  0  0  0  0  0  0  0  0
  143.4032   80.1712  223.1891 H   0  0  0  0  0  0  0  0  0  0  0  0
  141.9008   81.1558  223.1891 H   0  0  0  0  0  0  0  0  0  0  0  0
  141.8877   78.2629  224.0651 H   0  0  0  0  0  0  0  0  0  0  0  0
  140.5297   79.3035  223.4660 H   0  0  0  0  0  0  0  0  0  0  0  0
  142.7290   78.1720  221.8340 H   0  0  0  0  0  0  0  0  0  0  0  0
  139.7216   78.2429  221.8167 H   0  0  0  0  0  0  0  0  0  0  0  0
  141.7115   76.3083  222.5074 H   0  0  0  0  0  0  0  0  0  0  0  0
  139.8779   76.2732  222.5978 H   0  0  0  0  0  0  0  0  0  0  0  0
  144.3136   73.0867  219.7766 H   0  0  0  0  0  0  0  0  0  0  0  0
  145.0737   71.7180  220.6535 H   0  0  0  0  0  0  0  0  0  0  0  0
  144.3494   71.7311  217.6633 H   0  0  0  0  0  0  0  0  0  0  0  0
  145.9843   71.9495  218.2939 H   0  0  0  0  0  0  0  0  0  0  0  0
  147.1887   69.8729  218.0741 H   0  0  0  0  0  0  0  0  0  0  0  0
  147.2543   67.4012  218.3866 H   0  0  0  0  0  0  0  0  0  0  0  0
  145.2150   66.2140  219.1538 H   0  0  0  0  0  0  0  0  0  0  0  0
  143.1410   67.4505  219.6090 H   0  0  0  0  0  0  0  0  0  0  0  0
  142.1868   70.3487  218.4319 H   0  0  0  0  0  0  0  0  0  0  0  0
  142.0311   69.5743  220.0272 H   0  0  0  0  0  0  0  0  0  0  0  0
  138.0872   71.3579  224.3048 H   0  0  0  0  0  0  0  0  0  0  0  0
  138.5653   70.8366  222.6592 H   0  0  0  0  0  0  0  0  0  0  0  0
  138.2093   68.8843  224.1818 H   0  0  0  0  0  0  0  0  0  0  0  0
  139.8927   68.9607  223.6314 H   0  0  0  0  0  0  0  0  0  0  0  0
  138.6494   67.7789  226.1759 H   0  0  0  0  0  0  0  0  0  0  0  0
  139.3149   67.9002  228.5817 H   0  0  0  0  0  0  0  0  0  0  0  0
  140.6328   69.8976  229.3369 H   0  0  0  0  0  0  0  0  0  0  0  0
  141.2402   71.6726  227.7211 H   0  0  0  0  0  0  0  0  0  0  0  0
  140.3462   72.7922  225.5524 H   0  0  0  0  0  0  0  0  0  0  0  0
  141.7851   71.8265  225.0348 H   0  0  0  0  0  0  0  0  0  0  0  0
  141.2817   75.6676  218.9253 H   0  0  0  0  0  0  0  0  0  0  0  0
  139.6541   74.9749  219.1636 H   0  0  0  0  0  0  0  0  0  0  0  0
  139.6431   77.3867  218.4381 H   0  0  0  0  0  0  0  0  0  0  0  0
  138.8155   77.1074  219.9989 H   0  0  0  0  0  0  0  0  0  0  0  0
  1  2  1  0
  2  3  1  0
  3  4  1  0
  4  5  1  0
  5  6  1  0
  6  7  1  0
  7  8  2  0
  8  9  1  0
  9 10  1  0
 10 11  1  0
 11 12  1  0
 12 13  1  0
 13 14  2  0
 14 15  1  0
 15 16  2  0
 16 17  1  0
 17 18  2  0
 18 19  1  0
  9 20  2  0
 20 21  1  0
 21 22  1  0
 22 23  1  0
 23 24  1  0
 24 25  1  0
 25 26  2  0
 26 27  1  0
 27 28  2  0
 28 29  1  0
 29 30  2  0
 30 31  1  0
 21 32  2  0
  6 33  1  0
 33 34  1  0
 34 35  1  0
 35  4  1  0
 32  7  1  0
 19 10  1  0
 31 22  1  0
 18 13  1  0
 30 25  1  0
  1 36  1  0
  1 37  1  0
  1 38  1  0
  2 39  1  0
  2 40  1  0
  3 41  1  0
  4 42  1  1
  5 43  1  0
  5 44  1  0
 11 45  1  0
 11 46  1  0
 12 47  1  0
 12 48  1  0
 14 49  1  0
 15 50  1  0
 16 51  1  0
 17 52  1  0
 19 53  1  0
 19 54  1  0
 23 55  1  0
 23 56  1  0
 24 57  1  0
 24 58  1  0
 26 59  1  0
 27 60  1  0
 28 61  1  0
 29 62  1  0
 31 63  1  0
 31 64  1  0
 33 65  1  0
 33 66  1  0
 34 67  1  0
 34 68  1  0
M  END
>  <smiles>  (18) 
CCNC1CN(c2nc(N3CCc4ccccc4C3)nc(N3CCc4ccccc4C3)n2)CCO1

>  <score_type>  (18) 
oracle

>  <origin>  (18) 
autodockgpu

>  <m_score__min__energy>  (18) 
-10.48

>  <m_primary>  (18) 
energy

>  <rmsd>  (18) 
1.6213639518421674

>  <m_score__min__rmsd>  (18) 
1.6213639518421674

>  <meeko>  (18) 
{"free_energy": -9.64, "intermolecular_energy": -11.13, "internal_energy": -0.94, "cluster_size": 3, "cluster_id": 2, "rank_in_cluster": 2}

>  <energy>  (18) 
-10.03

>  <cluster_rmsd>  (18) 
1.6

>  <cluster>  (18) 
1

$$$$

     RDKit          3D

 68 73  0  0  0  0  0  0  0  0999 V2000
  143.6590   76.1190  217.4070 C   0  0  0  0  0  0  0  0  0  0  0  0
  143.7650   74.8200  216.6640 C   0  0  0  0  0  0  0  0  0  0  0  0
  144.9790   74.1290  216.9770 N   0  0  0  0  0  0  0  0  0  0  0  0
  144.8090   73.0070  217.8650 C   0  0  2  0  0  0  0  0  0  0  0  0
  143.5240   73.1830  218.6030 C   0  0  0  0  0  0  0  0  0  0  0  0
  143.6350   73.0870  220.0380 N   0  0  0  0  0  0  0  0  0  0  0  0
  142.4960   73.4640  220.8160 C   0  0  0  0  0  0  0  0  0  0  0  0
  141.8520   72.5470  221.5890 N   0  0  0  0  0  0  0  0  0  0  0  0
  140.7840   72.8460  222.3360 C   0  0  0  0  0  0  0  0  0  0  0  0
  140.1970   71.7870  223.1040 N   0  0  0  0  0  0  0  0  0  0  0  0
  139.5010   70.7360  222.3950 C   0  0  0  0  0  0  0  0  0  0  0  0
  138.5060   70.0680  223.3380 C   0  0  0  0  0  0  0  0  0  0  0  0
  139.3350   69.5050  224.4500 C   0  0  0  0  0  0  0  0  0  0  0  0
  139.2120   68.1940  224.8550 C   0  0  0  0  0  0  0  0  0  0  0  0
  140.0050   67.7390  225.8850 C   0  0  0  0  0  0  0  0  0  0  0  0
  140.9020   68.6050  226.4830 C   0  0  0  0  0  0  0  0  0  0  0  0
  141.0080   69.9090  226.0620 C   0  0  0  0  0  0  0  0  0  0  0  0
  140.2300   70.3910  225.0380 C   0  0  0  0  0  0  0  0  0  0  0  0
  140.3260   71.8130  224.5570 C   0  0  0  0  0  0  0  0  0  0  0  0
  140.3150   74.0910  222.3350 N   0  0  0  0  0  0  0  0  0  0  0  0
  140.9460   75.0190  221.5700 C   0  0  0  0  0  0  0  0  0  0  0  0
  140.4770   76.3840  221.5330 N   0  0  0  0  0  0  0  0  0  0  0  0
  139.0620   76.6960  221.5320 C   0  0  0  0  0  0  0  0  0  0  0  0
  138.7470   77.5340  222.7520 C   0  0  0  0  0  0  0  0  0  0  0  0
  139.5960   78.7560  222.6480 C   0  0  0  0  0  0  0  0  0  0  0  0
  139.0900   79.9310  223.1570 C   0  0  0  0  0  0  0  0  0  0  0  0
  139.8070   81.1200  223.1060 C   0  0  0  0  0  0  0  0  0  0  0  0
  141.0620   81.0750  222.5150 C   0  0  0  0  0  0  0  0  0  0  0  0
  141.5590   79.8750  222.0040 C   0  0  0  0  0  0  0  0  0  0  0  0
  140.8460   78.7150  222.0590 C   0  0  0  0  0  0  0  0  0  0  0  0
  141.4310   77.4720  221.4970 C   0  0  0  0  0  0  0  0  0  0  0  0
  142.0200   74.7150  220.8190 N   0  0  0  0  0  0  0  0  0  0  0  0
  144.8280   72.6370  220.7290 C   0  0  0  0  0  0  0  0  0  0  0  0
  145.7250   71.9900  219.7210 C   0  0  0  0  0  0  0  0  0  0  0  0
  145.9170   72.8810  218.6680 O   0  0  0  0  0  0  0  0  0  0  0  0
  143.6749   75.9246  218.4896 H   0  0  0  0  0  0  0  0  0  0  0  0
  144.5074   76.7655  217.1381 H   0  0  0  0  0  0  0  0  0  0  0  0
  142.7170   76.6194  217.1381 H   0  0  0  0  0  0  0  0  0  0  0  0
  142.9112   74.1824  216.9370 H   0  0  0  0  0  0  0  0  0  0  0  0
  143.7636   75.0401  215.5862 H   0  0  0  0  0  0  0  0  0  0  0  0
  145.7910   74.7280  217.1670 H   0  0  0  0  0  0  0  0  0  0  0  0
  144.7343   72.0555  217.3181 H   0  0  0  0  0  0  0  0  0  0  0  0
  143.1204   74.1761  218.3562 H   0  0  0  0  0  0  0  0  0  0  0  0
  142.8684   72.3585  218.2863 H   0  0  0  0  0  0  0  0  0  0  0  0
  138.9632   71.1650  221.5367 H   0  0  0  0  0  0  0  0  0  0  0  0
  140.2257   69.9910  222.0346 H   0  0  0  0  0  0  0  0  0  0  0  0
  137.7887   70.8056  223.7271 H   0  0  0  0  0  0  0  0  0  0  0  0
  137.9173   69.2899  222.8300 H   0  0  0  0  0  0  0  0  0  0  0  0
  138.4927   67.5220  224.3641 H   0  0  0  0  0  0  0  0  0  0  0  0
  139.9256   66.6970  226.2285 H   0  0  0  0  0  0  0  0  0  0  0  0
  141.5382   68.2460  227.3054 H   0  0  0  0  0  0  0  0  0  0  0  0
  141.7288   70.5786  226.5540 H   0  0  0  0  0  0  0  0  0  0  0  0
  139.5169   72.4149  224.9964 H   0  0  0  0  0  0  0  0  0  0  0  0
  141.2846   72.2622  224.8558 H   0  0  0  0  0  0  0  0  0  0  0  0
  138.8080   77.2584  220.6214 H   0  0  0  0  0  0  0  0  0  0  0  0
  138.4741   75.7665  221.5548 H   0  0  0  0  0  0  0  0  0  0  0  0
  137.6820   77.8092  222.7610 H   0  0  0  0  0  0  0  0  0  0  0  0
  138.9513   76.9819  223.6812 H   0  0  0  0  0  0  0  0  0  0  0  0
  138.0906   79.9283  223.6166 H   0  0  0  0  0  0  0  0  0  0  0  0
  139.3982   82.0554  223.5158 H   0  0  0  0  0  0  0  0  0  0  0  0
  141.6685   81.9903  222.4489 H   0  0  0  0  0  0  0  0  0  0  0  0
  142.5574   79.8653  221.5425 H   0  0  0  0  0  0  0  0  0  0  0  0
  141.7283   77.6547  220.4538 H   0  0  0  0  0  0  0  0  0  0  0  0
  142.3040   77.1912  222.1045 H   0  0  0  0  0  0  0  0  0  0  0  0
  145.3399   73.4951  221.1890 H   0  0  0  0  0  0  0  0  0  0  0  0
  144.5652   71.9229  221.5233 H   0  0  0  0  0  0  0  0  0  0  0  0
  146.6928   71.7492  220.1851 H   0  0  0  0  0  0  0  0  0  0  0  0
  145.2691   71.0599  219.3509 H   0  0  0  0  0  0  0  0  0  0  0  0
  1  2  1  0
  2  3  1  0
  3  4  1  0
  4  5  1  0
  5  6  1  0
  6  7  1  0
  7  8  2  0
  8  9  1  0
  9 10  1  0
 10 11  1  0
 11 12  1  0
 12 13  1  0
 13 14  2  0
 14 15  1  0
 15 16  2  0
 16 17  1  0
 17 18  2  0
 18 19  1  0
  9 20  2  0
 20 21  1  0
 21 22  1  0
 22 23  1  0
 23 24  1  0
 24 25  1  0
 25 26  2  0
 26 27  1  0
 27 28  2  0
 28 29  1  0
 29 30  2  0
 30 31  1  0
 21 32  2  0
  6 33  1  0
 33 34  1  0
 34 35  1  0
 35  4  1  0
 32  7  1  0
 19 10  1  0
 31 22  1  0
 18 13  1  0
 30 25  1  0
  1 36  1  0
  1 37  1  0
  1 38  1  0
  2 39  1  0
  2 40  1  0
  3 41  1  0
  4 42  1  6
  5 43  1  0
  5 44  1  0
 11 45  1  0
 11 46  1  0
 12 47  1  0
 12 48  1  0
 14 49  1  0
 15 50  1  0
 16 51  1  0
 17 52  1  0
 19 53  1  0
 19 54  1  0
 23 55  1  0
 23 56  1  0
 24 57  1  0
 24 58  1  0
 26 59  1  0
 27 60  1  0
 28 61  1  0
 29 62  1  0
 31 63  1  0
 31 64  1  0
 33 65  1  0
 33 66  1  0
 34 67  1  0
 34 68  1  0
M  END
>  <smiles>  (19) 
CCNC1CN(c2nc(N3CCc4ccccc4C3)nc(N3CCc4ccccc4C3)n2)CCO1

>  <score_type>  (19) 
oracle

>  <origin>  (19) 
autodockgpu

>  <m_score__min__energy>  (19) 
-10.48

>  <m_primary>  (19) 
energy

>  <rmsd>  (19) 
6.558804173864283

>  <m_score__min__rmsd>  (19) 
6.558804173864283

>  <meeko>  (19) 
{"free_energy": -9.9, "intermolecular_energy": -11.39, "internal_energy": -1.09, "cluster_size": 47, "cluster_id": 1, "rank_in_cluster": 27}

>  <energy>  (19) 
-9.96

>  <cluster_rmsd>  (19) 
0.83

>  <cluster>  (19) 
1

$$$$

     RDKit          3D

 68 73  0  0  0  0  0  0  0  0999 V2000
  146.3530   73.1580  221.8770 C   0  0  0  0  0  0  0  0  0  0  0  0
  146.1020   74.1010  220.7370 C   0  0  0  0  0  0  0  0  0  0  0  0
  146.3350   73.4740  219.4710 N   0  0  0  0  0  0  0  0  0  0  0  0
  145.2120   72.7250  218.9670 C   0  0  2  0  0  0  0  0  0  0  0  0
  143.9740   73.2340  219.6250 C   0  0  0  0  0  0  0  0  0  0  0  0
  143.1590   72.2180  220.2460 N   0  0  0  0  0  0  0  0  0  0  0  0
  142.0830   72.6520  221.0820 C   0  0  0  0  0  0  0  0  0  0  0  0
  141.5040   71.7950  221.9670 N   0  0  0  0  0  0  0  0  0  0  0  0
  140.4980   72.1490  222.7710 C   0  0  0  0  0  0  0  0  0  0  0  0
  139.9760   71.1490  223.6570 N   0  0  0  0  0  0  0  0  0  0  0  0
  139.3250   69.9950  223.0740 C   0  0  0  0  0  0  0  0  0  0  0  0
  138.3780   69.3820  224.1010 C   0  0  0  0  0  0  0  0  0  0  0  0
  139.2500   68.9820  225.2500 C   0  0  0  0  0  0  0  0  0  0  0  0
  139.2000   67.7160  225.7920 C   0  0  0  0  0  0  0  0  0  0  0  0
  140.0290   67.4120  226.8490 C   0  0  0  0  0  0  0  0  0  0  0  0
  140.8880   68.3800  227.3370 C   0  0  0  0  0  0  0  0  0  0  0  0
  140.9210   69.6360  226.7800 C   0  0  0  0  0  0  0  0  0  0  0  0
  140.1060   69.9680  225.7250 C   0  0  0  0  0  0  0  0  0  0  0  0
  140.1220   71.3340  225.0960 C   0  0  0  0  0  0  0  0  0  0  0  0
  140.0260   73.3910  222.7190 N   0  0  0  0  0  0  0  0  0  0  0  0
  140.5910   74.2610  221.8410 C   0  0  0  0  0  0  0  0  0  0  0  0
  140.1170   75.6210  221.7440 N   0  0  0  0  0  0  0  0  0  0  0  0
  138.7160   75.9170  221.5240 C   0  0  0  0  0  0  0  0  0  0  0  0
  138.2020   76.7380  222.6870 C   0  0  0  0  0  0  0  0  0  0  0  0
  139.0420   77.9710  222.7280 C   0  0  0  0  0  0  0  0  0  0  0  0
  138.4480   79.1350  223.1630 C   0  0  0  0  0  0  0  0  0  0  0  0
  139.1480   80.3320  223.2350 C   0  0  0  0  0  0  0  0  0  0  0  0
  140.4810   80.3080  222.8480 C   0  0  0  0  0  0  0  0  0  0  0  0
  141.0680   79.1190  222.4100 C   0  0  0  0  0  0  0  0  0  0  0  0
  140.3690   77.9500  222.3430 C   0  0  0  0  0  0  0  0  0  0  0  0
  141.0510   76.7200  221.8680 C   0  0  0  0  0  0  0  0  0  0  0  0
  141.6040   73.9020  221.0330 N   0  0  0  0  0  0  0  0  0  0  0  0
  143.3700   70.7950  220.0720 C   0  0  0  0  0  0  0  0  0  0  0  0
  144.3010   70.6060  218.9160 C   0  0  0  0  0  0  0  0  0  0  0  0
  145.4380   71.3800  219.1370 O   0  0  0  0  0  0  0  0  0  0  0  0
  146.2117   73.6889  222.8300 H   0  0  0  0  0  0  0  0  0  0  0  0
  145.6477   72.3159  221.8183 H   0  0  0  0  0  0  0  0  0  0  0  0
  147.3836   72.7779  221.8183 H   0  0  0  0  0  0  0  0  0  0  0  0
  145.0569   74.4416  220.7793 H   0  0  0  0  0  0  0  0  0  0  0  0
  146.7965   74.9485  220.8333 H   0  0  0  0  0  0  0  0  0  0  0  0
  147.2530   73.0270  219.3620 H   0  0  0  0  0  0  0  0  0  0  0  0
  145.0773   72.8641  217.8842 H   0  0  0  0  0  0  0  0  0  0  0  0
  144.2702   73.9564  220.3999 H   0  0  0  0  0  0  0  0  0  0  0  0
  143.3603   73.6802  218.8286 H   0  0  0  0  0  0  0  0  0  0  0  0
  138.7545   70.3040  222.1857 H   0  0  0  0  0  0  0  0  0  0  0  0
  140.0817   69.2530  222.7795 H   0  0  0  0  0  0  0  0  0  0  0  0
  137.6291   70.1202  224.4239 H   0  0  0  0  0  0  0  0  0  0  0  0
  137.8231   68.5263  223.6889 H   0  0  0  0  0  0  0  0  0  0  0  0
  138.5098   66.9611  225.3874 H   0  0  0  0  0  0  0  0  0  0  0  0
  140.0082   66.4092  227.3006 H   0  0  0  0  0  0  0  0  0  0  0  0
  141.5524   68.1418  228.1807 H   0  0  0  0  0  0  0  0  0  0  0  0
  141.6124   70.3890  227.1862 H   0  0  0  0  0  0  0  0  0  0  0  0
  139.2885   71.9375  225.4847 H   0  0  0  0  0  0  0  0  0  0  0  0
  141.0600   71.8595  225.3285 H   0  0  0  0  0  0  0  0  0  0  0  0
  138.6008   76.4865  220.5900 H   0  0  0  0  0  0  0  0  0  0  0  0
  138.1441   74.9806  221.4461 H   0  0  0  0  0  0  0  0  0  0  0  0
  137.1454   77.0011  222.5308 H   0  0  0  0  0  0  0  0  0  0  0  0
  138.2642   76.1783  223.6319 H   0  0  0  0  0  0  0  0  0  0  0  0
  137.3895   79.1158  223.4617 H   0  0  0  0  0  0  0  0  0  0  0  0
  138.6676   81.2583  223.5833 H   0  0  0  0  0  0  0  0  0  0  0  0
  141.0783   81.2309  222.8866 H   0  0  0  0  0  0  0  0  0  0  0  0
  142.1263   79.1256  222.1099 H   0  0  0  0  0  0  0  0  0  0  0  0
  141.5055   76.9177  220.8860 H   0  0  0  0  0  0  0  0  0  0  0  0
  141.8218   76.4423  222.6020 H   0  0  0  0  0  0  0  0  0  0  0  0
  143.8146   70.3689  220.9835 H   0  0  0  0  0  0  0  0  0  0  0  0
  142.4136   70.2864  219.8808 H   0  0  0  0  0  0  0  0  0  0  0  0
  144.5830   69.5458  218.8354 H   0  0  0  0  0  0  0  0  0  0  0  0
  143.8101   70.9133  217.9808 H   0  0  0  0  0  0  0  0  0  0  0  0
  1  2  1  0
  2  3  1  0
  3  4  1  0
  4  5  1  0
  5  6  1  0
  6  7  1  0
  7  8  2  0
  8  9  1  0
  9 10  1  0
 10 11  1  0
 11 12  1  0
 12 13  1  0
 13 14  2  0
 14 15  1  0
 15 16  2  0
 16 17  1  0
 17 18  2  0
 18 19  1  0
  9 20  2  0
 20 21  1  0
 21 22  1  0
 22 23  1  0
 23 24  1  0
 24 25  1  0
 25 26  2  0
 26 27  1  0
 27 28  2  0
 28 29  1  0
 29 30  2  0
 30 31  1  0
 21 32  2  0
  6 33  1  0
 33 34  1  0
 34 35  1  0
 35  4  1  0
 32  7  1  0
 19 10  1  0
 31 22  1  0
 18 13  1  0
 30 25  1  0
  1 36  1  0
  1 37  1  0
  1 38  1  0
  2 39  1  0
  2 40  1  0
  3 41  1  0
  4 42  1  6
  5 43  1  0
  5 44  1  0
 11 45  1  0
 11 46  1  0
 12 47  1  0
 12 48  1  0
 14 49  1  0
 15 50  1  0
 16 51  1  0
 17 52  1  0
 19 53  1  0
 19 54  1  0
 23 55  1  0
 23 56  1  0
 24 57  1  0
 24 58  1  0
 26 59  1  0
 27 60  1  0
 28 61  1  0
 29 62  1  0
 31 63  1  0
 31 64  1  0
 33 65  1  0
 33 66  1  0
 34 67  1  0
 34 68  1  0
M  END
>  <smiles>  (20) 
CCNC1CN(c2nc(N3CCc4ccccc4C3)nc(N3CCc4ccccc4C3)n2)CCO1

>  <score_type>  (20) 
oracle

>  <origin>  (20) 
autodockgpu

>  <m_score__min__energy>  (20) 
-10.48

>  <m_primary>  (20) 
energy

>  <rmsd>  (20) 
6.705696707500317

>  <m_score__min__rmsd>  (20) 
6.705696707500317

>  <meeko>  (20) 
{"free_energy": -10.11, "intermolecular_energy": -11.6, "internal_energy": -1.13, "cluster_size": 47, "cluster_id": 1, "rank_in_cluster": 16}

>  <energy>  (20) 
-9.94

>  <cluster_rmsd>  (20) 
0.62

>  <cluster>  (20) 
1

$$$$

     RDKit          3D

 68 73  0  0  0  0  0  0  0  0999 V2000
  146.4710   73.3750  221.9910 C   0  0  0  0  0  0  0  0  0  0  0  0
  146.5290   73.5840  220.5060 C   0  0  0  0  0  0  0  0  0  0  0  0
  146.3170   72.3620  219.7920 N   0  0  0  0  0  0  0  0  0  0  0  0
  145.1020   72.3330  219.0180 C   0  0  2  0  0  0  0  0  0  0  0  0
  144.0270   73.0040  219.8050 C   0  0  0  0  0  0  0  0  0  0  0  0
  142.8220   72.2280  219.9650 N   0  0  0  0  0  0  0  0  0  0  0  0
  141.8420   72.7100  220.8890 C   0  0  0  0  0  0  0  0  0  0  0  0
  141.3030   71.8790  221.8230 N   0  0  0  0  0  0  0  0  0  0  0  0
  140.3860   72.2780  222.7100 C   0  0  0  0  0  0  0  0  0  0  0  0
  139.8980   71.3040  223.6410 N   0  0  0  0  0  0  0  0  0  0  0  0
  139.0640   70.2350  223.1340 C   0  0  0  0  0  0  0  0  0  0  0  0
  138.2140   69.6800  224.2720 C   0  0  0  0  0  0  0  0  0  0  0  0
  139.1940   69.1620  225.2780 C   0  0  0  0  0  0  0  0  0  0  0  0
  139.0970   67.8900  225.7980 C   0  0  0  0  0  0  0  0  0  0  0  0
  140.0320   67.4760  226.7210 C   0  0  0  0  0  0  0  0  0  0  0  0
  141.0390   68.3430  227.1010 C   0  0  0  0  0  0  0  0  0  0  0  0
  141.1170   69.6070  226.5690 C   0  0  0  0  0  0  0  0  0  0  0  0
  140.1990   70.0480  225.6460 C   0  0  0  0  0  0  0  0  0  0  0  0
  140.2600   71.4270  225.0480 C   0  0  0  0  0  0  0  0  0  0  0  0
  139.9680   73.5410  222.6930 N   0  0  0  0  0  0  0  0  0  0  0  0
  140.4950   74.3850  221.7670 C   0  0  0  0  0  0  0  0  0  0  0  0
  140.0760   75.7640  221.7050 N   0  0  0  0  0  0  0  0  0  0  0  0
  138.6860   76.1220  221.5000 C   0  0  0  0  0  0  0  0  0  0  0  0
  138.2110   76.9340  222.6850 C   0  0  0  0  0  0  0  0  0  0  0  0
  139.1000   78.1300  222.7510 C   0  0  0  0  0  0  0  0  0  0  0  0
  138.5550   79.3060  223.2180 C   0  0  0  0  0  0  0  0  0  0  0  0
  139.3040   80.4720  223.3150 C   0  0  0  0  0  0  0  0  0  0  0  0
  140.6330   80.4040  222.9210 C   0  0  0  0  0  0  0  0  0  0  0  0
  141.1690   79.2040  222.4510 C   0  0  0  0  0  0  0  0  0  0  0  0
  140.4240   78.0660  222.3590 C   0  0  0  0  0  0  0  0  0  0  0  0
  141.0530   76.8220  221.8510 C   0  0  0  0  0  0  0  0  0  0  0  0
  141.4170   73.9800  220.8760 N   0  0  0  0  0  0  0  0  0  0  0  0
  142.5530   70.9960  219.2500 C   0  0  0  0  0  0  0  0  0  0  0  0
  143.5350   70.8930  218.1260 C   0  0  0  0  0  0  0  0  0  0  0  0
  144.8180   71.0400  218.6500 O   0  0  0  0  0  0  0  0  0  0  0  0
  146.7313   74.3128  222.5037 H   0  0  0  0  0  0  0  0  0  0  0  0
  145.4542   73.0698  222.2789 H   0  0  0  0  0  0  0  0  0  0  0  0
  147.1850   72.5893  222.2789 H   0  0  0  0  0  0  0  0  0  0  0  0
  145.7510   74.3058  220.2167 H   0  0  0  0  0  0  0  0  0  0  0  0
  147.5303   73.9614  220.2511 H   0  0  0  0  0  0  0  0  0  0  0  0
  146.5340   71.5030  220.3110 H   0  0  0  0  0  0  0  0  0  0  0  0
  145.2015   72.8905  218.0750 H   0  0  0  0  0  0  0  0  0  0  0  0
  144.4248   73.2290  220.8056 H   0  0  0  0  0  0  0  0  0  0  0  0
  143.7437   73.9036  219.2389 H   0  0  0  0  0  0  0  0  0  0  0  0
  138.4084   70.6242  222.3411 H   0  0  0  0  0  0  0  0  0  0  0  0
  139.6974   69.4357  222.7218 H   0  0  0  0  0  0  0  0  0  0  0  0
  137.5929   70.4740  224.7121 H   0  0  0  0  0  0  0  0  0  0  0  0
  137.5264   68.8943  223.9259 H   0  0  0  0  0  0  0  0  0  0  0  0
  138.2869   67.2165  225.4816 H   0  0  0  0  0  0  0  0  0  0  0  0
  139.9777   66.4652  227.1514 H   0  0  0  0  0  0  0  0  0  0  0  0
  141.7872   68.0168  227.8385 H   0  0  0  0  0  0  0  0  0  0  0  0
  141.9284   70.2781  226.8873 H   0  0  0  0  0  0  0  0  0  0  0  0
  139.5512   72.0925  225.5626 H   0  0  0  0  0  0  0  0  0  0  0  0
  141.2677   71.8547  225.1557 H   0  0  0  0  0  0  0  0  0  0  0  0
  138.5897   76.7185  220.5808 H   0  0  0  0  0  0  0  0  0  0  0  0
  138.0763   75.2116  221.4027 H   0  0  0  0  0  0  0  0  0  0  0  0
  137.1652   77.2433  222.5411 H   0  0  0  0  0  0  0  0  0  0  0  0
  138.2546   76.3494  223.6158 H   0  0  0  0  0  0  0  0  0  0  0  0
  137.4981   79.3221  223.5223 H   0  0  0  0  0  0  0  0  0  0  0  0
  138.8630   81.4082  223.6878 H   0  0  0  0  0  0  0  0  0  0  0  0
  141.2674   81.3007  222.9794 H   0  0  0  0  0  0  0  0  0  0  0  0
  142.2253   79.1756  222.1454 H   0  0  0  0  0  0  0  0  0  0  0  0
  141.5109   77.0254  220.8717 H   0  0  0  0  0  0  0  0  0  0  0  0
  141.8145   76.4958  222.5747 H   0  0  0  0  0  0  0  0  0  0  0  0
  142.6693   70.1375  219.9278 H   0  0  0  0  0  0  0  0  0  0  0  0
  141.5240   70.9954  218.8612 H   0  0  0  0  0  0  0  0  0  0  0  0
  143.4422   69.9105  217.6400 H   0  0  0  0  0  0  0  0  0  0  0  0
  143.3390   71.6763  217.3790 H   0  0  0  0  0  0  0  0  0  0  0  0
  1  2  1  0
  2  3  1  0
  3  4  1  0
  4  5  1  0
  5  6  1  0
  6  7  1  0
  7  8  2  0
  8  9  1  0
  9 10  1  0
 10 11  1  0
 11 12  1  0
 12 13  1  0
 13 14  2  0
 14 15  1  0
 15 16  2  0
 16 17  1  0
 17 18  2  0
 18 19  1  0
  9 20  2  0
 20 21  1  0
 21 22  1  0
 22 23  1  0
 23 24  1  0
 24 25  1  0
 25 26  2  0
 26 27  1  0
 27 28  2  0
 28 29  1  0
 29 30  2  0
 30 31  1  0
 21 32  2  0
  6 33  1  0
 33 34  1  0
 34 35  1  0
 35  4  1  0
 32  7  1  0
 19 10  1  0
 31 22  1  0
 18 13  1  0
 30 25  1  0
  1 36  1  0
  1 37  1  0
  1 38  1  0
  2 39  1  0
  2 40  1  0
  3 41  1  0
  4 42  1  6
  5 43  1  0
  5 44  1  0
 11 45  1  0
 11 46  1  0
 12 47  1  0
 12 48  1  0
 14 49  1  0
 15 50  1  0
 16 51  1  0
 17 52  1  0
 19 53  1  0
 19 54  1  0
 23 55  1  0
 23 56  1  0
 24 57  1  0
 24 58  1  0
 26 59  1  0
 27 60  1  0
 28 61  1  0
 29 62  1  0
 31 63  1  0
 31 64  1  0
 33 65  1  0
 33 66  1  0
 34 67  1  0
 34 68  1  0
M  END
>  <smiles>  (21) 
CCNC1CN(c2nc(N3CCc4ccccc4C3)nc(N3CCc4ccccc4C3)n2)CCO1

>  <score_type>  (21) 
oracle

>  <origin>  (21) 
autodockgpu

>  <m_score__min__energy>  (21) 
-10.48

>  <m_primary>  (21) 
energy

>  <rmsd>  (21) 
6.574287821357222

>  <m_score__min__rmsd>  (21) 
6.574287821357222

>  <meeko>  (21) 
{"free_energy": -10.42, "intermolecular_energy": -11.92, "internal_energy": -1.02, "cluster_size": 47, "cluster_id": 1, "rank_in_cluster": 8}

>  <energy>  (21) 
-9.93

>  <cluster_rmsd>  (21) 
0.84

>  <cluster>  (21) 
1

$$$$

     RDKit          3D

 68 73  0  0  0  0  0  0  0  0999 V2000
  146.6050   73.4050  222.0470 C   0  0  0  0  0  0  0  0  0  0  0  0
  146.3910   73.6570  220.5830 C   0  0  0  0  0  0  0  0  0  0  0  0
  146.3160   72.4340  219.8420 N   0  0  0  0  0  0  0  0  0  0  0  0
  145.0990   72.2740  219.0880 C   0  0  2  0  0  0  0  0  0  0  0  0
  143.9910   72.9340  219.8380 C   0  0  0  0  0  0  0  0  0  0  0  0
  142.8370   72.0980  220.0700 N   0  0  0  0  0  0  0  0  0  0  0  0
  141.8370   72.5860  220.9680 C   0  0  0  0  0  0  0  0  0  0  0  0
  141.2890   71.7640  221.9050 N   0  0  0  0  0  0  0  0  0  0  0  0
  140.3530   72.1680  222.7690 C   0  0  0  0  0  0  0  0  0  0  0  0
  139.8560   71.2020  223.7050 N   0  0  0  0  0  0  0  0  0  0  0  0
  139.0420   70.1180  223.1980 C   0  0  0  0  0  0  0  0  0  0  0  0
  138.1750   69.5720  224.3280 C   0  0  0  0  0  0  0  0  0  0  0  0
  139.1400   69.0790  225.3600 C   0  0  0  0  0  0  0  0  0  0  0  0
  139.0450   67.8130  225.8980 C   0  0  0  0  0  0  0  0  0  0  0  0
  139.9650   67.4220  226.8450 C   0  0  0  0  0  0  0  0  0  0  0  0
  140.9570   68.3050  227.2310 C   0  0  0  0  0  0  0  0  0  0  0  0
  141.0320   69.5620  226.6820 C   0  0  0  0  0  0  0  0  0  0  0  0
  140.1290   69.9800  225.7350 C   0  0  0  0  0  0  0  0  0  0  0  0
  140.1890   71.3500  225.1170 C   0  0  0  0  0  0  0  0  0  0  0  0
  139.9240   73.4260  222.7260 N   0  0  0  0  0  0  0  0  0  0  0  0
  140.4610   74.2610  221.7980 C   0  0  0  0  0  0  0  0  0  0  0  0
  140.0320   75.6360  221.7090 N   0  0  0  0  0  0  0  0  0  0  0  0
  138.6340   75.9800  221.5380 C   0  0  0  0  0  0  0  0  0  0  0  0
  138.1920   76.8250  222.7130 C   0  0  0  0  0  0  0  0  0  0  0  0
  139.0750   78.0270  222.7150 C   0  0  0  0  0  0  0  0  0  0  0  0
  138.5390   79.2140  223.1640 C   0  0  0  0  0  0  0  0  0  0  0  0
  139.2830   80.3860  223.2030 C   0  0  0  0  0  0  0  0  0  0  0  0
  140.5990   80.3130  222.7690 C   0  0  0  0  0  0  0  0  0  0  0  0
  141.1270   79.1020  222.3170 C   0  0  0  0  0  0  0  0  0  0  0  0
  140.3860   77.9580  222.2830 C   0  0  0  0  0  0  0  0  0  0  0  0
  141.0070   76.7020  221.7920 C   0  0  0  0  0  0  0  0  0  0  0  0
  141.4030   73.8510  220.9290 N   0  0  0  0  0  0  0  0  0  0  0  0
  142.6400   70.8030  219.4490 C   0  0  0  0  0  0  0  0  0  0  0  0
  143.6180   70.6800  218.3230 C   0  0  0  0  0  0  0  0  0  0  0  0
  144.8930   70.9430  218.8180 O   0  0  0  0  0  0  0  0  0  0  0  0
  146.0025   74.1145  222.6331 H   0  0  0  0  0  0  0  0  0  0  0  0
  146.3001   72.3765  222.2904 H   0  0  0  0  0  0  0  0  0  0  0  0
  147.6693   73.5392  222.2904 H   0  0  0  0  0  0  0  0  0  0  0  0
  145.4511   74.2128  220.4503 H   0  0  0  0  0  0  0  0  0  0  0  0
  147.2469   74.2356  220.2053 H   0  0  0  0  0  0  0  0  0  0  0  0
  146.6460   71.5970  220.3360 H   0  0  0  0  0  0  0  0  0  0  0  0
  145.1556   72.7660  218.1058 H   0  0  0  0  0  0  0  0  0  0  0  0
  144.3825   73.2561  220.8142 H   0  0  0  0  0  0  0  0  0  0  0  0
  143.6474   73.7705  219.2118 H   0  0  0  0  0  0  0  0  0  0  0  0
  138.3985   70.4892  222.3868 H   0  0  0  0  0  0  0  0  0  0  0  0
  139.6905   69.3187  222.8100 H   0  0  0  0  0  0  0  0  0  0  0  0
  137.5381   70.3666  224.7439 H   0  0  0  0  0  0  0  0  0  0  0  0
  137.5015   68.7746  223.9808 H   0  0  0  0  0  0  0  0  0  0  0  0
  138.2477   67.1269  225.5761 H   0  0  0  0  0  0  0  0  0  0  0  0
  139.9115   66.4175  227.2900 H   0  0  0  0  0  0  0  0  0  0  0  0
  141.6947   67.9971  227.9866 H   0  0  0  0  0  0  0  0  0  0  0  0
  141.8297   70.2463  227.0067 H   0  0  0  0  0  0  0  0  0  0  0  0
  139.4640   72.0165  225.6072 H   0  0  0  0  0  0  0  0  0  0  0  0
  141.1904   71.7889  225.2377 H   0  0  0  0  0  0  0  0  0  0  0  0
  138.5046   76.5479  220.6049 H   0  0  0  0  0  0  0  0  0  0  0  0
  138.0273   75.0638  221.4875 H   0  0  0  0  0  0  0  0  0  0  0  0
  137.1403   77.1244  222.5935 H   0  0  0  0  0  0  0  0  0  0  0  0
  138.2691   76.2688  223.6589 H   0  0  0  0  0  0  0  0  0  0  0  0
  137.4921   79.2340  223.5012 H   0  0  0  0  0  0  0  0  0  0  0  0
  138.8483   81.3305  223.5621 H   0  0  0  0  0  0  0  0  0  0  0  0
  141.2297   81.2141  222.7811 H   0  0  0  0  0  0  0  0  0  0  0  0
  142.1729   79.0699  221.9779 H   0  0  0  0  0  0  0  0  0  0  0  0
  141.4324   76.8783  220.7930 H   0  0  0  0  0  0  0  0  0  0  0  0
  141.7935   76.4015  222.4999 H   0  0  0  0  0  0  0  0  0  0  0  0
  142.8153   70.0048  220.1853 H   0  0  0  0  0  0  0  0  0  0  0  0
  141.6100   70.7102  219.0741 H   0  0  0  0  0  0  0  0  0  0  0  0
  143.5827   69.6612  217.9098 H   0  0  0  0  0  0  0  0  0  0  0  0
  143.3675   71.3942  217.5248 H   0  0  0  0  0  0  0  0  0  0  0  0
  1  2  1  0
  2  3  1  0
  3  4  1  0
  4  5  1  0
  5  6  1  0
  6  7  1  0
  7  8  2  0
  8  9  1  0
  9 10  1  0
 10 11  1  0
 11 12  1  0
 12 13  1  0
 13 14  2  0
 14 15  1  0
 15 16  2  0
 16 17  1  0
 17 18  2  0
 18 19  1  0
  9 20  2  0
 20 21  1  0
 21 22  1  0
 22 23  1  0
 23 24  1  0
 24 25  1  0
 25 26  2  0
 26 27  1  0
 27 28  2  0
 28 29  1  0
 29 30  2  0
 30 31  1  0
 21 32  2  0
  6 33  1  0
 33 34  1  0
 34 35  1  0
 35  4  1  0
 32  7  1  0
 19 10  1  0
 31 22  1  0
 18 13  1  0
 30 25  1  0
  1 36  1  0
  1 37  1  0
  1 38  1  0
  2 39  1  0
  2 40  1  0
  3 41  1  0
  4 42  1  6
  5 43  1  0
  5 44  1  0
 11 45  1  0
 11 46  1  0
 12 47  1  0
 12 48  1  0
 14 49  1  0
 15 50  1  0
 16 51  1  0
 17 52  1  0
 19 53  1  0
 19 54  1  0
 23 55  1  0
 23 56  1  0
 24 57  1  0
 24 58  1  0
 26 59  1  0
 27 60  1  0
 28 61  1  0
 29 62  1  0
 31 63  1  0
 31 64  1  0
 33 65  1  0
 33 66  1  0
 34 67  1  0
 34 68  1  0
M  END
>  <smiles>  (22) 
CCNC1CN(c2nc(N3CCc4ccccc4C3)nc(N3CCc4ccccc4C3)n2)CCO1

>  <score_type>  (22) 
oracle

>  <origin>  (22) 
autodockgpu

>  <m_score__min__energy>  (22) 
-10.48

>  <m_primary>  (22) 
energy

>  <rmsd>  (22) 
6.622260979966822

>  <m_score__min__rmsd>  (22) 
6.622260979966822

>  <meeko>  (22) 
{"free_energy": -10.44, "intermolecular_energy": -11.93, "internal_energy": -1.03, "cluster_size": 47, "cluster_id": 1, "rank_in_cluster": 6}

>  <energy>  (22) 
-9.92

>  <cluster_rmsd>  (22) 
1.57

>  <cluster>  (22) 
1

$$$$

     RDKit          3D

 68 73  0  0  0  0  0  0  0  0999 V2000
  145.6670   68.1380  219.4120 C   0  0  0  0  0  0  0  0  0  0  0  0
  145.7200   69.0660  218.2340 C   0  0  0  0  0  0  0  0  0  0  0  0
  144.7970   70.1510  218.3750 N   0  0  0  0  0  0  0  0  0  0  0  0
  145.2130   71.1630  219.3130 C   0  0  2  0  0  0  0  0  0  0  0  0
  144.0710   71.4500  220.2290 C   0  0  0  0  0  0  0  0  0  0  0  0
  143.7180   72.8460  220.3330 N   0  0  0  0  0  0  0  0  0  0  0  0
  142.5020   73.1720  221.0120 C   0  0  0  0  0  0  0  0  0  0  0  0
  141.8540   72.2360  221.7580 N   0  0  0  0  0  0  0  0  0  0  0  0
  140.7160   72.4870  222.4130 C   0  0  0  0  0  0  0  0  0  0  0  0
  140.1330   71.4130  223.1630 N   0  0  0  0  0  0  0  0  0  0  0  0
  139.6170   70.2750  222.4340 C   0  0  0  0  0  0  0  0  0  0  0  0
  138.5770   69.5600  223.2900 C   0  0  0  0  0  0  0  0  0  0  0  0
  139.3120   69.1210  224.5170 C   0  0  0  0  0  0  0  0  0  0  0  0
  139.2530   67.8220  224.9740 C   0  0  0  0  0  0  0  0  0  0  0  0
  139.9540   67.4840  226.1100 C   0  0  0  0  0  0  0  0  0  0  0  0
  140.6960   68.4520  226.7620 C   0  0  0  0  0  0  0  0  0  0  0  0
  140.7410   69.7410  226.2890 C   0  0  0  0  0  0  0  0  0  0  0  0
  140.0530   70.1070  225.1580 C   0  0  0  0  0  0  0  0  0  0  0  0
  140.0850   71.5110  224.6180 C   0  0  0  0  0  0  0  0  0  0  0  0
  140.1780   73.7020  222.3440 N   0  0  0  0  0  0  0  0  0  0  0  0
  140.8110   74.6480  221.6030 C   0  0  0  0  0  0  0  0  0  0  0  0
  140.2690   75.9820  221.4940 N   0  0  0  0  0  0  0  0  0  0  0  0
  138.8400   76.2130  221.4470 C   0  0  0  0  0  0  0  0  0  0  0  0
  138.4470   77.0850  222.6200 C   0  0  0  0  0  0  0  0  0  0  0  0
  139.2300   78.3470  222.4800 C   0  0  0  0  0  0  0  0  0  0  0  0
  138.6480   79.5130  222.9250 C   0  0  0  0  0  0  0  0  0  0  0  0
  139.2990   80.7370  222.8360 C   0  0  0  0  0  0  0  0  0  0  0  0
  140.5690   80.7370  222.2770 C   0  0  0  0  0  0  0  0  0  0  0  0
  141.1450   79.5460  221.8320 C   0  0  0  0  0  0  0  0  0  0  0  0
  140.4950   78.3500  221.9240 C   0  0  0  0  0  0  0  0  0  0  0  0
  141.1620   77.1190  221.4320 C   0  0  0  0  0  0  0  0  0  0  0  0
  141.9560   74.3920  220.9450 N   0  0  0  0  0  0  0  0  0  0  0  0
  144.5200   73.9250  219.7910 C   0  0  0  0  0  0  0  0  0  0  0  0
  145.8670   73.3700  219.4510 C   0  0  0  0  0  0  0  0  0  0  0  0
  145.6890   72.2570  218.6330 O   0  0  0  0  0  0  0  0  0  0  0  0
  145.7005   68.7241  220.3423 H   0  0  0  0  0  0  0  0  0  0  0  0
  144.7342   67.5560  219.3786 H   0  0  0  0  0  0  0  0  0  0  0  0
  146.5275   67.4536  219.3786 H   0  0  0  0  0  0  0  0  0  0  0  0
  146.7382   69.4729  218.1458 H   0  0  0  0  0  0  0  0  0  0  0  0
  145.4451   68.4956  217.3345 H   0  0  0  0  0  0  0  0  0  0  0  0
  143.8060   69.8860  218.4160 H   0  0  0  0  0  0  0  0  0  0  0  0
  146.0494   70.8239  219.9419 H   0  0  0  0  0  0  0  0  0  0  0  0
  143.1913   70.9004  219.8628 H   0  0  0  0  0  0  0  0  0  0  0  0
  144.3908   71.1345  221.2331 H   0  0  0  0  0  0  0  0  0  0  0  0
  139.1506   70.6181  221.4987 H   0  0  0  0  0  0  0  0  0  0  0  0
  140.4395   69.5838  222.1980 H   0  0  0  0  0  0  0  0  0  0  0  0
  137.7587   70.2456  223.5553 H   0  0  0  0  0  0  0  0  0  0  0  0
  138.1209   68.7115  222.7588 H   0  0  0  0  0  0  0  0  0  0  0  0
  138.6560   67.0679  224.4402 H   0  0  0  0  0  0  0  0  0  0  0  0
  139.9241   66.4541  226.4952 H   0  0  0  0  0  0  0  0  0  0  0  0
  141.2569   68.1866  227.6703 H   0  0  0  0  0  0  0  0  0  0  0  0
  141.3384   70.4930  226.8253 H   0  0  0  0  0  0  0  0  0  0  0  0
  139.1812   72.0552  224.9294 H   0  0  0  0  0  0  0  0  0  0  0  0
  140.9596   72.0569  225.0015 H   0  0  0  0  0  0  0  0  0  0  0  0
  138.5783   76.7193  220.5062 H   0  0  0  0  0  0  0  0  0  0  0  0
  138.3048   75.2534  221.4994 H   0  0  0  0  0  0  0  0  0  0  0  0
  137.3686   77.3000  222.5911 H   0  0  0  0  0  0  0  0  0  0  0  0
  138.6566   76.5870  223.5781 H   0  0  0  0  0  0  0  0  0  0  0  0
  137.6397   79.4741  223.3631 H   0  0  0  0  0  0  0  0  0  0  0  0
  138.8285   81.6651  223.1929 H   0  0  0  0  0  0  0  0  0  0  0  0
  141.1253   81.6814  222.1840 H   0  0  0  0  0  0  0  0  0  0  0  0
  142.1536   79.5725  221.3938 H   0  0  0  0  0  0  0  0  0  0  0  0
  141.4758   77.2728  220.3890 H   0  0  0  0  0  0  0  0  0  0  0  0
  142.0331   76.9143  222.0718 H   0  0  0  0  0  0  0  0  0  0  0  0
  144.0422   74.3276  218.8857 H   0  0  0  0  0  0  0  0  0  0  0  0
  144.6147   74.7385  220.5253 H   0  0  0  0  0  0  0  0  0  0  0  0
  146.4592   74.1302  218.9206 H   0  0  0  0  0  0  0  0  0  0  0  0
  146.4009   73.0834  220.3690 H   0  0  0  0  0  0  0  0  0  0  0  0
  1  2  1  0
  2  3  1  0
  3  4  1  0
  4  5  1  0
  5  6  1  0
  6  7  1  0
  7  8  2  0
  8  9  1  0
  9 10  1  0
 10 11  1  0
 11 12  1  0
 12 13  1  0
 13 14  2  0
 14 15  1  0
 15 16  2  0
 16 17  1  0
 17 18  2  0
 18 19  1  0
  9 20  2  0
 20 21  1  0
 21 22  1  0
 22 23  1  0
 23 24  1  0
 24 25  1  0
 25 26  2  0
 26 27  1  0
 27 28  2  0
 28 29  1  0
 29 30  2  0
 30 31  1  0
 21 32  2  0
  6 33  1  0
 33 34  1  0
 34 35  1  0
 35  4  1  0
 32  7  1  0
 19 10  1  0
 31 22  1  0
 18 13  1  0
 30 25  1  0
  1 36  1  0
  1 37  1  0
  1 38  1  0
  2 39  1  0
  2 40  1  0
  3 41  1  0
  4 42  1  1
  5 43  1  0
  5 44  1  0
 11 45  1  0
 11 46  1  0
 12 47  1  0
 12 48  1  0
 14 49  1  0
 15 50  1  0
 16 51  1  0
 17 52  1  0
 19 53  1  0
 19 54  1  0
 23 55  1  0
 23 56  1  0
 24 57  1  0
 24 58  1  0
 26 59  1  0
 27 60  1  0
 28 61  1  0
 29 62  1  0
 31 63  1  0
 31 64  1  0
 33 65  1  0
 33 66  1  0
 34 67  1  0
 34 68  1  0
M  END
>  <smiles>  (23) 
CCNC1CN(c2nc(N3CCc4ccccc4C3)nc(N3CCc4ccccc4C3)n2)CCO1

>  <score_type>  (23) 
oracle

>  <origin>  (23) 
autodockgpu

>  <m_score__min__energy>  (23) 
-10.48

>  <m_primary>  (23) 
energy

>  <rmsd>  (23) 
9.069958741956693

>  <m_score__min__rmsd>  (23) 
9.069958741956693

>  <meeko>  (23) 
{"free_energy": -9.57, "intermolecular_energy": -11.06, "internal_energy": -0.96, "cluster_size": 47, "cluster_id": 1, "rank_in_cluster": 44}

>  <energy>  (23) 
-9.92

>  <cluster_rmsd>  (23) 
1.6

>  <cluster>  (23) 
1

$$$$

     RDKit          3D

 68 73  0  0  0  0  0  0  0  0999 V2000
  143.9090   76.1850  216.0040 C   0  0  0  0  0  0  0  0  0  0  0  0
  143.7550   74.7130  216.2540 C   0  0  0  0  0  0  0  0  0  0  0  0
  144.8420   74.1920  217.0260 N   0  0  0  0  0  0  0  0  0  0  0  0
  144.5460   72.9560  217.7050 C   0  0  2  0  0  0  0  0  0  0  0  0
  143.2830   73.1360  218.4780 C   0  0  0  0  0  0  0  0  0  0  0  0
  143.3740   72.7780  219.8730 N   0  0  0  0  0  0  0  0  0  0  0  0
  142.2770   73.1320  220.7190 C   0  0  0  0  0  0  0  0  0  0  0  0
  141.7020   72.2040  221.5320 N   0  0  0  0  0  0  0  0  0  0  0  0
  140.6760   72.4810  222.3430 C   0  0  0  0  0  0  0  0  0  0  0  0
  140.1610   71.4130  223.1480 N   0  0  0  0  0  0  0  0  0  0  0  0
  139.6510   70.2380  222.4750 C   0  0  0  0  0  0  0  0  0  0  0  0
  138.6720   69.5170  223.3960 C   0  0  0  0  0  0  0  0  0  0  0  0
  139.4740   69.1370  224.6020 C   0  0  0  0  0  0  0  0  0  0  0  0
  139.4760   67.8520  225.0970 C   0  0  0  0  0  0  0  0  0  0  0  0
  140.2360   67.5690  226.2100 C   0  0  0  0  0  0  0  0  0  0  0  0
  140.9740   68.5780  226.8000 C   0  0  0  0  0  0  0  0  0  0  0  0
  140.9580   69.8530  226.2900 C   0  0  0  0  0  0  0  0  0  0  0  0
  140.2100   70.1650  225.1800 C   0  0  0  0  0  0  0  0  0  0  0  0
  140.1730   71.5520  224.6000 C   0  0  0  0  0  0  0  0  0  0  0  0
  140.1810   73.7160  222.3690 N   0  0  0  0  0  0  0  0  0  0  0  0
  140.7420   74.6550  221.5640 C   0  0  0  0  0  0  0  0  0  0  0  0
  140.2430   76.0100  221.5540 N   0  0  0  0  0  0  0  0  0  0  0  0
  138.8320   76.2920  221.3770 C   0  0  0  0  0  0  0  0  0  0  0  0
  138.3270   77.0350  222.5950 C   0  0  0  0  0  0  0  0  0  0  0  0
  139.1450   78.2780  222.6920 C   0  0  0  0  0  0  0  0  0  0  0  0
  138.5400   79.4040  223.2040 C   0  0  0  0  0  0  0  0  0  0  0  0
  139.2210   80.6080  223.3330 C   0  0  0  0  0  0  0  0  0  0  0  0
  140.5460   80.6310  222.9210 C   0  0  0  0  0  0  0  0  0  0  0  0
  141.1440   79.4800  222.4040 C   0  0  0  0  0  0  0  0  0  0  0  0
  140.4650   78.3040  222.2820 C   0  0  0  0  0  0  0  0  0  0  0  0
  141.1600   77.1170  221.7250 C   0  0  0  0  0  0  0  0  0  0  0  0
  141.7740   74.3720  220.7490 N   0  0  0  0  0  0  0  0  0  0  0  0
  144.5060   72.0870  220.4580 C   0  0  0  0  0  0  0  0  0  0  0  0
  145.3340   71.5350  219.3420 C   0  0  0  0  0  0  0  0  0  0  0  0
  145.6280   72.5710  218.4590 O   0  0  0  0  0  0  0  0  0  0  0  0
  143.9646   76.7164  216.9655 H   0  0  0  0  0  0  0  0  0  0  0  0
  144.8309   76.3652  215.4316 H   0  0  0  0  0  0  0  0  0  0  0  0
  143.0444   76.5521  215.4316 H   0  0  0  0  0  0  0  0  0  0  0  0
  142.8153   74.5401  216.7990 H   0  0  0  0  0  0  0  0  0  0  0  0
  143.7464   74.1984  215.2818 H   0  0  0  0  0  0  0  0  0  0  0  0
  145.3690   74.8840  217.5710 H   0  0  0  0  0  0  0  0  0  0  0  0
  144.3729   72.1297  216.9999 H   0  0  0  0  0  0  0  0  0  0  0  0
  142.9900   74.1943  218.4142 H   0  0  0  0  0  0  0  0  0  0  0  0
  142.5445   72.4550  218.0298 H   0  0  0  0  0  0  0  0  0  0  0  0
  139.1342   70.5383  221.5516 H   0  0  0  0  0  0  0  0  0  0  0  0
  140.4845   69.5658  222.2231 H   0  0  0  0  0  0  0  0  0  0  0  0
  137.8445   70.1847  223.6778 H   0  0  0  0  0  0  0  0  0  0  0  0
  138.2204   68.6397  222.9097 H   0  0  0  0  0  0  0  0  0  0  0  0
  138.8805   67.0648  224.6115 H   0  0  0  0  0  0  0  0  0  0  0  0
  140.2556   66.5506  226.6252 H   0  0  0  0  0  0  0  0  0  0  0  0
  141.5820   68.3568  227.6896 H   0  0  0  0  0  0  0  0  0  0  0  0
  141.5541   70.6380  226.7783 H   0  0  0  0  0  0  0  0  0  0  0  0
  139.2664   72.0767  224.9357 H   0  0  0  0  0  0  0  0  0  0  0  0
  141.0454   72.1358  224.9289 H   0  0  0  0  0  0  0  0  0  0  0  0
  138.6885   76.9120  220.4798 H   0  0  0  0  0  0  0  0  0  0  0  0
  138.2751   75.3512  221.2553 H   0  0  0  0  0  0  0  0  0  0  0  0
  137.2631   77.2870  222.4741 H   0  0  0  0  0  0  0  0  0  0  0  0
  138.4179   76.4230  223.5045 H   0  0  0  0  0  0  0  0  0  0  0  0
  137.4878   79.3486  223.5198 H   0  0  0  0  0  0  0  0  0  0  0  0
  138.7316   81.5035  223.7435 H   0  0  0  0  0  0  0  0  0  0  0  0
  141.1282   81.5608  223.0022 H   0  0  0  0  0  0  0  0  0  0  0  0
  142.1959   79.5234  222.0852 H   0  0  0  0  0  0  0  0  0  0  0  0
  141.5929   77.3793  220.7484 H   0  0  0  0  0  0  0  0  0  0  0  0
  141.9493   76.8120  222.4278 H   0  0  0  0  0  0  0  0  0  0  0  0
  145.1050   72.7900  221.0555 H   0  0  0  0  0  0  0  0  0  0  0  0
  144.1614   71.2763  221.1168 H   0  0  0  0  0  0  0  0  0  0  0  0
  146.2671   71.1140  219.7447 H   0  0  0  0  0  0  0  0  0  0  0  0
  144.7828   70.7387  218.8204 H   0  0  0  0  0  0  0  0  0  0  0  0
  1  2  1  0
  2  3  1  0
  3  4  1  0
  4  5  1  0
  5  6  1  0
  6  7  1  0
  7  8  2  0
  8  9  1  0
  9 10  1  0
 10 11  1  0
 11 12  1  0
 12 13  1  0
 13 14  2  0
 14 15  1  0
 15 16  2  0
 16 17  1  0
 17 18  2  0
 18 19  1  0
  9 20  2  0
 20 21  1  0
 21 22  1  0
 22 23  1  0
 23 24  1  0
 24 25  1  0
 25 26  2  0
 26 27  1  0
 27 28  2  0
 28 29  1  0
 29 30  2  0
 30 31  1  0
 21 32  2  0
  6 33  1  0
 33 34  1  0
 34 35  1  0
 35  4  1  0
 32  7  1  0
 19 10  1  0
 31 22  1  0
 18 13  1  0
 30 25  1  0
  1 36  1  0
  1 37  1  0
  1 38  1  0
  2 39  1  0
  2 40  1  0
  3 41  1  0
  4 42  1  6
  5 43  1  0
  5 44  1  0
 11 45  1  0
 11 46  1  0
 12 47  1  0
 12 48  1  0
 14 49  1  0
 15 50  1  0
 16 51  1  0
 17 52  1  0
 19 53  1  0
 19 54  1  0
 23 55  1  0
 23 56  1  0
 24 57  1  0
 24 58  1  0
 26 59  1  0
 27 60  1  0
 28 61  1  0
 29 62  1  0
 31 63  1  0
 31 64  1  0
 33 65  1  0
 33 66  1  0
 34 67  1  0
 34 68  1  0
M  END
>  <smiles>  (24) 
CCNC1CN(c2nc(N3CCc4ccccc4C3)nc(N3CCc4ccccc4C3)n2)CCO1

>  <score_type>  (24) 
oracle

>  <origin>  (24) 
autodockgpu

>  <m_score__min__energy>  (24) 
-10.48

>  <m_primary>  (24) 
energy

>  <rmsd>  (24) 
6.802035480468576

>  <m_score__min__rmsd>  (24) 
6.802035480468576

>  <meeko>  (24) 
{"free_energy": -9.79, "intermolecular_energy": -11.28, "internal_energy": -0.99, "cluster_size": 47, "cluster_id": 1, "rank_in_cluster": 41}

>  <energy>  (24) 
-9.92

>  <cluster_rmsd>  (24) 
1.55

>  <cluster>  (24) 
1

$$$$

     RDKit          3D

 68 73  0  0  0  0  0  0  0  0999 V2000
  147.7120   74.4740  216.3410 C   0  0  0  0  0  0  0  0  0  0  0  0
  146.3940   73.7640  216.4530 C   0  0  0  0  0  0  0  0  0  0  0  0
  146.1090   73.3900  217.8050 N   0  0  0  0  0  0  0  0  0  0  0  0
  145.1410   72.3300  217.9330 C   0  0  2  0  0  0  0  0  0  0  0  0
  143.9430   72.8710  218.6380 C   0  0  0  0  0  0  0  0  0  0  0  0
  143.5240   72.1070  219.7890 N   0  0  0  0  0  0  0  0  0  0  0  0
  142.5280   72.6830  220.6380 C   0  0  0  0  0  0  0  0  0  0  0  0
  141.8740   71.9180  221.5550 N   0  0  0  0  0  0  0  0  0  0  0  0
  140.9370   72.4060  222.3740 C   0  0  0  0  0  0  0  0  0  0  0  0
  140.3230   71.4940  223.2940 N   0  0  0  0  0  0  0  0  0  0  0  0
  139.5440   70.4000  222.7520 C   0  0  0  0  0  0  0  0  0  0  0  0
  138.5510   69.9220  223.8050 C   0  0  0  0  0  0  0  0  0  0  0  0
  139.3890   69.4620  224.9560 C   0  0  0  0  0  0  0  0  0  0  0  0
  139.2100   68.2250  225.5360 C   0  0  0  0  0  0  0  0  0  0  0  0
  140.0160   67.8640  226.5930 C   0  0  0  0  0  0  0  0  0  0  0  0
  140.9790   68.7470  227.0440 C   0  0  0  0  0  0  0  0  0  0  0  0
  141.1400   69.9760  226.4500 C   0  0  0  0  0  0  0  0  0  0  0  0
  140.3520   70.3640  225.3940 C   0  0  0  0  0  0  0  0  0  0  0  0
  140.5060   71.7020  224.7250 C   0  0  0  0  0  0  0  0  0  0  0  0
  140.6150   73.6940  222.3030 N   0  0  0  0  0  0  0  0  0  0  0  0
  141.2580   74.4730  221.3940 C   0  0  0  0  0  0  0  0  0  0  0  0
  140.9470   75.8780  221.2760 N   0  0  0  0  0  0  0  0  0  0  0  0
  140.1970   76.5720  222.3040 C   0  0  0  0  0  0  0  0  0  0  0  0
  141.0500   77.6950  222.8540 C   0  0  0  0  0  0  0  0  0  0  0  0
  141.3730   78.5770  221.6960 C   0  0  0  0  0  0  0  0  0  0  0  0
  141.5130   79.9260  221.9380 C   0  0  0  0  0  0  0  0  0  0  0  0
  141.8130   80.8250  220.9230 C   0  0  0  0  0  0  0  0  0  0  0  0
  141.9680   80.3060  219.6450 C   0  0  0  0  0  0  0  0  0  0  0  0
  141.8230   78.9360  219.4170 C   0  0  0  0  0  0  0  0  0  0  0  0
  141.5280   78.0630  220.4220 C   0  0  0  0  0  0  0  0  0  0  0  0
  141.3870   76.6180  220.1140 C   0  0  0  0  0  0  0  0  0  0  0  0
  142.2010   73.9790  220.5710 N   0  0  0  0  0  0  0  0  0  0  0  0
  144.0540   70.8010  220.1280 C   0  0  0  0  0  0  0  0  0  0  0  0
  144.7960   70.2820  218.9370 C   0  0  0  0  0  0  0  0  0  0  0  0
  145.7230   71.2450  218.5440 O   0  0  0  0  0  0  0  0  0  0  0  0
  148.1020   74.6841  217.3479 H   0  0  0  0  0  0  0  0  0  0  0  0
  148.4258   73.8383  215.7965 H   0  0  0  0  0  0  0  0  0  0  0  0
  147.5739   75.4198  215.7965 H   0  0  0  0  0  0  0  0  0  0  0  0
  145.5975   74.4313  216.0919 H   0  0  0  0  0  0  0  0  0  0  0  0
  146.4447   72.8477  215.8465 H   0  0  0  0  0  0  0  0  0  0  0  0
  146.0060   74.1690  218.4660 H   0  0  0  0  0  0  0  0  0  0  0  0
  144.7961   71.9651  216.9543 H   0  0  0  0  0  0  0  0  0  0  0  0
  144.1743   73.8935  218.9712 H   0  0  0  0  0  0  0  0  0  0  0  0
  143.1128   72.8278  217.9176 H   0  0  0  0  0  0  0  0  0  0  0  0
  138.9984   70.7431  221.8606 H   0  0  0  0  0  0  0  0  0  0  0  0
  140.2131   69.5728  222.4724 H   0  0  0  0  0  0  0  0  0  0  0  0
  137.8904   70.7455  224.1139 H   0  0  0  0  0  0  0  0  0  0  0  0
  137.9019   69.1201  223.4233 H   0  0  0  0  0  0  0  0  0  0  0  0
  138.4370   67.5378  225.1615 H   0  0  0  0  0  0  0  0  0  0  0  0
  139.8944   66.8821  227.0737 H   0  0  0  0  0  0  0  0  0  0  0  0
  141.6242   68.4628  227.8884 H   0  0  0  0  0  0  0  0  0  0  0  0
  141.9137   70.6610  226.8270 H   0  0  0  0  0  0  0  0  0  0  0  0
  139.7468   72.4020  225.1039 H   0  0  0  0  0  0  0  0  0  0  0  0
  141.4978   72.1298  224.9329 H   0  0  0  0  0  0  0  0  0  0  0  0
  139.2737   76.9860  221.8725 H   0  0  0  0  0  0  0  0  0  0  0  0
  139.9328   75.8728  223.1111 H   0  0  0  0  0  0  0  0  0  0  0  0
  140.4936   78.2574  223.6182 H   0  0  0  0  0  0  0  0  0  0  0  0
  141.9630   77.3086  223.3307 H   0  0  0  0  0  0  0  0  0  0  0  0
  141.3835   80.3015  222.9638 H   0  0  0  0  0  0  0  0  0  0  0  0
  141.9230   81.9011  221.1230 H   0  0  0  0  0  0  0  0  0  0  0  0
  142.2064   80.9777  218.8071 H   0  0  0  0  0  0  0  0  0  0  0  0
  141.9507   78.5492  218.3952 H   0  0  0  0  0  0  0  0  0  0  0  0
  140.6490   76.4929  219.3079 H   0  0  0  0  0  0  0  0  0  0  0  0
  142.3683   76.2297  219.8038 H   0  0  0  0  0  0  0  0  0  0  0  0
  144.7372   70.8862  220.9859 H   0  0  0  0  0  0  0  0  0  0  0  0
  143.2379   70.1152  220.3995 H   0  0  0  0  0  0  0  0  0  0  0  0
  145.3173   69.3500  219.2009 H   0  0  0  0  0  0  0  0  0  0  0  0
  144.0949   70.0740  218.1153 H   0  0  0  0  0  0  0  0  0  0  0  0
  1  2  1  0
  2  3  1  0
  3  4  1  0
  4  5  1  0
  5  6  1  0
  6  7  1  0
  7  8  2  0
  8  9  1  0
  9 10  1  0
 10 11  1  0
 11 12  1  0
 12 13  1  0
 13 14  2  0
 14 15  1  0
 15 16  2  0
 16 17  1  0
 17 18  2  0
 18 19  1  0
  9 20  2  0
 20 21  1  0
 21 22  1  0
 22 23  1  0
 23 24  1  0
 24 25  1  0
 25 26  2  0
 26 27  1  0
 27 28  2  0
 28 29  1  0
 29 30  2  0
 30 31  1  0
 21 32  2  0
  6 33  1  0
 33 34  1  0
 34 35  1  0
 35  4  1  0
 32  7  1  0
 19 10  1  0
 31 22  1  0
 18 13  1  0
 30 25  1  0
  1 36  1  0
  1 37  1  0
  1 38  1  0
  2 39  1  0
  2 40  1  0
  3 41  1  0
  4 42  1  6
  5 43  1  0
  5 44  1  0
 11 45  1  0
 11 46  1  0
 12 47  1  0
 12 48  1  0
 14 49  1  0
 15 50  1  0
 16 51  1  0
 17 52  1  0
 19 53  1  0
 19 54  1  0
 23 55  1  0
 23 56  1  0
 24 57  1  0
 24 58  1  0
 26 59  1  0
 27 60  1  0
 28 61  1  0
 29 62  1  0
 31 63  1  0
 31 64  1  0
 33 65  1  0
 33 66  1  0
 34 67  1  0
 34 68  1  0
M  END
>  <smiles>  (25) 
CCNC1CN(c2nc(N3CCc4ccccc4C3)nc(N3CCc4ccccc4C3)n2)CCO1

>  <score_type>  (25) 
oracle

>  <origin>  (25) 
autodockgpu

>  <m_score__min__energy>  (25) 
-10.48

>  <m_primary>  (25) 
energy

>  <rmsd>  (25) 
7.8116075634477955

>  <m_score__min__rmsd>  (25) 
7.8116075634477955

>  <meeko>  (25) 
{"free_energy": -10.08, "intermolecular_energy": -11.57, "internal_energy": -0.95, "cluster_size": 47, "cluster_id": 1, "rank_in_cluster": 17}

>  <energy>  (25) 
-9.91

>  <cluster_rmsd>  (25) 
1.58

>  <cluster>  (25) 
1

$$$$

     RDKit          3D

 68 73  0  0  0  0  0  0  0  0999 V2000
  143.5280   76.0290  217.2750 C   0  0  0  0  0  0  0  0  0  0  0  0
  143.5880   74.6140  216.7780 C   0  0  0  0  0  0  0  0  0  0  0  0
  144.8580   74.0120  217.0500 N   0  0  0  0  0  0  0  0  0  0  0  0
  144.8160   72.9650  218.0400 C   0  0  2  0  0  0  0  0  0  0  0  0
  143.5050   73.0400  218.7470 C   0  0  0  0  0  0  0  0  0  0  0  0
  143.5980   73.0950  220.1860 N   0  0  0  0  0  0  0  0  0  0  0  0
  142.4040   73.3910  220.9150 C   0  0  0  0  0  0  0  0  0  0  0  0
  141.7590   72.4150  221.6130 N   0  0  0  0  0  0  0  0  0  0  0  0
  140.6420   72.6380  222.3120 C   0  0  0  0  0  0  0  0  0  0  0  0
  140.0600   71.5240  223.0020 N   0  0  0  0  0  0  0  0  0  0  0  0
  139.5920   70.4040  222.2140 C   0  0  0  0  0  0  0  0  0  0  0  0
  138.5420   69.6350  223.0090 C   0  0  0  0  0  0  0  0  0  0  0  0
  139.2490   69.1640  224.2410 C   0  0  0  0  0  0  0  0  0  0  0  0
  139.2050   67.8480  224.6460 C   0  0  0  0  0  0  0  0  0  0  0  0
  139.8780   67.4810  225.7900 C   0  0  0  0  0  0  0  0  0  0  0  0
  140.5790   68.4380  226.5010 C   0  0  0  0  0  0  0  0  0  0  0  0
  140.6100   69.7450  226.0790 C   0  0  0  0  0  0  0  0  0  0  0  0
  139.9490   70.1410  224.9410 C   0  0  0  0  0  0  0  0  0  0  0  0
  139.9660   71.5640  224.4560 C   0  0  0  0  0  0  0  0  0  0  0  0
  140.1210   73.8620  222.3380 N   0  0  0  0  0  0  0  0  0  0  0  0
  140.7520   74.8480  221.6470 C   0  0  0  0  0  0  0  0  0  0  0  0
  140.2290   76.1930  221.6420 N   0  0  0  0  0  0  0  0  0  0  0  0
  138.8110   76.4500  221.4890 C   0  0  0  0  0  0  0  0  0  0  0  0
  138.3140   77.1880  222.7130 C   0  0  0  0  0  0  0  0  0  0  0  0
  139.1120   78.4460  222.7920 C   0  0  0  0  0  0  0  0  0  0  0  0
  138.4960   79.5630  223.3120 C   0  0  0  0  0  0  0  0  0  0  0  0
  139.1580   80.7780  223.4260 C   0  0  0  0  0  0  0  0  0  0  0  0
  140.4750   80.8230  222.9910 C   0  0  0  0  0  0  0  0  0  0  0  0
  141.0850   79.6820  222.4670 C   0  0  0  0  0  0  0  0  0  0  0  0
  140.4240   78.4930  222.3600 C   0  0  0  0  0  0  0  0  0  0  0  0
  141.1290   77.3170  221.7940 C   0  0  0  0  0  0  0  0  0  0  0  0
  141.8760   74.6200  220.9450 N   0  0  0  0  0  0  0  0  0  0  0  0
  144.8250   72.8690  220.9250 C   0  0  0  0  0  0  0  0  0  0  0  0
  145.8180   72.2540  219.9920 C   0  0  0  0  0  0  0  0  0  0  0  0
  145.9150   73.0600  218.8600 O   0  0  0  0  0  0  0  0  0  0  0  0
  143.5279   76.0316  218.3750 H   0  0  0  0  0  0  0  0  0  0  0  0
  144.4034   76.5843  216.9071 H   0  0  0  0  0  0  0  0  0  0  0  0
  142.6087   76.5082  216.9071 H   0  0  0  0  0  0  0  0  0  0  0  0
  142.8014   74.0276  217.2754 H   0  0  0  0  0  0  0  0  0  0  0  0
  143.4401   74.6262  215.6881 H   0  0  0  0  0  0  0  0  0  0  0  0
  145.6490   74.6630  217.1240 H   0  0  0  0  0  0  0  0  0  0  0  0
  144.8755   71.9648  217.5860 H   0  0  0  0  0  0  0  0  0  0  0  0
  142.9813   73.9440  218.4027 H   0  0  0  0  0  0  0  0  0  0  0  0
  142.9684   72.1106  218.5057 H   0  0  0  0  0  0  0  0  0  0  0  0
  139.1473   70.7730  221.2780 H   0  0  0  0  0  0  0  0  0  0  0  0
  140.4365   69.7397  221.9781 H   0  0  0  0  0  0  0  0  0  0  0  0
  137.7012   70.2927  223.2745 H   0  0  0  0  0  0  0  0  0  0  0  0
  138.1208   68.7986  222.4319 H   0  0  0  0  0  0  0  0  0  0  0  0
  138.6417   67.1028  224.0652 H   0  0  0  0  0  0  0  0  0  0  0  0
  139.8583   66.4367  226.1350 H   0  0  0  0  0  0  0  0  0  0  0  0
  141.1181   68.1492  227.4153 H   0  0  0  0  0  0  0  0  0  0  0  0
  141.1739   70.4878  226.6623 H   0  0  0  0  0  0  0  0  0  0  0  0
  139.0413   72.0765  224.7597 H   0  0  0  0  0  0  0  0  0  0  0  0
  140.8165   72.1127  224.8868 H   0  0  0  0  0  0  0  0  0  0  0  0
  138.6413   77.0645  220.5926 H   0  0  0  0  0  0  0  0  0  0  0  0
  138.2686   75.4992  221.3801 H   0  0  0  0  0  0  0  0  0  0  0  0
  137.2439   77.4209  222.6097 H   0  0  0  0  0  0  0  0  0  0  0  0
  138.4312   76.5808  223.6227 H   0  0  0  0  0  0  0  0  0  0  0  0
  137.4505   79.4903  223.6462 H   0  0  0  0  0  0  0  0  0  0  0  0
  138.6604   81.6660  223.8428 H   0  0  0  0  0  0  0  0  0  0  0  0
  141.0416   81.7634  223.0595 H   0  0  0  0  0  0  0  0  0  0  0  0
  142.1303   79.7432  222.1301 H   0  0  0  0  0  0  0  0  0  0  0  0
  141.5397   77.5841  220.8091 H   0  0  0  0  0  0  0  0  0  0  0  0
  141.9356   77.0279  222.4838 H   0  0  0  0  0  0  0  0  0  0  0  0
  145.2130   73.8251  221.3062 H   0  0  0  0  0  0  0  0  0  0  0  0
  144.6395   72.2024  221.7801 H   0  0  0  0  0  0  0  0  0  0  0  0
  146.7989   72.1864  220.4852 H   0  0  0  0  0  0  0  0  0  0  0  0
  145.4941   71.2417  219.7087 H   0  0  0  0  0  0  0  0  0  0  0  0
  1  2  1  0
  2  3  1  0
  3  4  1  0
  4  5  1  0
  5  6  1  0
  6  7  1  0
  7  8  2  0
  8  9  1  0
  9 10  1  0
 10 11  1  0
 11 12  1  0
 12 13  1  0
 13 14  2  0
 14 15  1  0
 15 16  2  0
 16 17  1  0
 17 18  2  0
 18 19  1  0
  9 20  2  0
 20 21  1  0
 21 22  1  0
 22 23  1  0
 23 24  1  0
 24 25  1  0
 25 26  2  0
 26 27  1  0
 27 28  2  0
 28 29  1  0
 29 30  2  0
 30 31  1  0
 21 32  2  0
  6 33  1  0
 33 34  1  0
 34 35  1  0
 35  4  1  0
 32  7  1  0
 19 10  1  0
 31 22  1  0
 18 13  1  0
 30 25  1  0
  1 36  1  0
  1 37  1  0
  1 38  1  0
  2 39  1  0
  2 40  1  0
  3 41  1  0
  4 42  1  6
  5 43  1  0
  5 44  1  0
 11 45  1  0
 11 46  1  0
 12 47  1  0
 12 48  1  0
 14 49  1  0
 15 50  1  0
 16 51  1  0
 17 52  1  0
 19 53  1  0
 19 54  1  0
 23 55  1  0
 23 56  1  0
 24 57  1  0
 24 58  1  0
 26 59  1  0
 27 60  1  0
 28 61  1  0
 29 62  1  0
 31 63  1  0
 31 64  1  0
 33 65  1  0
 33 66  1  0
 34 67  1  0
 34 68  1  0
M  END
>  <smiles>  (26) 
CCNC1CN(c2nc(N3CCc4ccccc4C3)nc(N3CCc4ccccc4C3)n2)CCO1

>  <score_type>  (26) 
oracle

>  <origin>  (26) 
autodockgpu

>  <m_score__min__energy>  (26) 
-10.48

>  <m_primary>  (26) 
energy

>  <rmsd>  (26) 
6.577061797138176

>  <m_score__min__rmsd>  (26) 
6.577061797138176

>  <meeko>  (26) 
{"free_energy": -9.82, "intermolecular_energy": -11.31, "internal_energy": -1.1, "cluster_size": 47, "cluster_id": 1, "rank_in_cluster": 38}

>  <energy>  (26) 
-9.9

>  <cluster_rmsd>  (26) 
1.48

>  <cluster>  (26) 
1

$$$$

     RDKit          3D

 68 73  0  0  0  0  0  0  0  0999 V2000
  146.4380   73.3860  221.9640 C   0  0  0  0  0  0  0  0  0  0  0  0
  146.4500   73.6580  220.4890 C   0  0  0  0  0  0  0  0  0  0  0  0
  146.3230   72.4520  219.7280 N   0  0  0  0  0  0  0  0  0  0  0  0
  145.0960   72.3500  218.9800 C   0  0  2  0  0  0  0  0  0  0  0  0
  144.0110   73.0040  219.7680 C   0  0  0  0  0  0  0  0  0  0  0  0
  142.8410   72.1860  219.9780 N   0  0  0  0  0  0  0  0  0  0  0  0
  141.8610   72.6590  220.9050 C   0  0  0  0  0  0  0  0  0  0  0  0
  141.3290   71.8220  221.8380 N   0  0  0  0  0  0  0  0  0  0  0  0
  140.4120   72.2130  222.7280 C   0  0  0  0  0  0  0  0  0  0  0  0
  139.9310   71.2320  223.6570 N   0  0  0  0  0  0  0  0  0  0  0  0
  139.1970   70.1000  223.1330 C   0  0  0  0  0  0  0  0  0  0  0  0
  138.3170   69.5200  224.2350 C   0  0  0  0  0  0  0  0  0  0  0  0
  139.2660   69.0900  225.3100 C   0  0  0  0  0  0  0  0  0  0  0  0
  139.2190   67.8280  225.8590 C   0  0  0  0  0  0  0  0  0  0  0  0
  140.1210   67.4970  226.8460 C   0  0  0  0  0  0  0  0  0  0  0  0
  141.0480   68.4360  227.2580 C   0  0  0  0  0  0  0  0  0  0  0  0
  141.0780   69.6890  226.6970 C   0  0  0  0  0  0  0  0  0  0  0  0
  140.1910   70.0480  225.7110 C   0  0  0  0  0  0  0  0  0  0  0  0
  140.2010   71.4120  225.0790 C   0  0  0  0  0  0  0  0  0  0  0  0
  139.9860   73.4730  222.7170 N   0  0  0  0  0  0  0  0  0  0  0  0
  140.5060   74.3230  221.7930 C   0  0  0  0  0  0  0  0  0  0  0  0
  140.0790   75.7010  221.7370 N   0  0  0  0  0  0  0  0  0  0  0  0
  138.6880   76.0510  221.5320 C   0  0  0  0  0  0  0  0  0  0  0  0
  138.2070   76.8550  222.7200 C   0  0  0  0  0  0  0  0  0  0  0  0
  139.0890   78.0560  222.7940 C   0  0  0  0  0  0  0  0  0  0  0  0
  138.5370   79.2270  223.2650 C   0  0  0  0  0  0  0  0  0  0  0  0
  139.2780   80.3960  223.3690 C   0  0  0  0  0  0  0  0  0  0  0  0
  140.6080   80.3370  222.9760 C   0  0  0  0  0  0  0  0  0  0  0  0
  141.1520   79.1430  222.5010 C   0  0  0  0  0  0  0  0  0  0  0  0
  140.4130   78.0010  222.4030 C   0  0  0  0  0  0  0  0  0  0  0  0
  141.0510   76.7630  221.8900 C   0  0  0  0  0  0  0  0  0  0  0  0
  141.4290   73.9260  220.8980 N   0  0  0  0  0  0  0  0  0  0  0  0
  142.6080   70.9210  219.3080 C   0  0  0  0  0  0  0  0  0  0  0  0
  143.5720   70.8210  218.1690 C   0  0  0  0  0  0  0  0  0  0  0  0
  144.8570   71.0350  218.6610 O   0  0  0  0  0  0  0  0  0  0  0  0
  146.4800   74.3384  222.5128 H   0  0  0  0  0  0  0  0  0  0  0  0
  145.5153   72.8496  222.2305 H   0  0  0  0  0  0  0  0  0  0  0  0
  147.3099   72.7705  222.2305 H   0  0  0  0  0  0  0  0  0  0  0  0
  145.6109   74.3253  220.2425 H   0  0  0  0  0  0  0  0  0  0  0  0
  147.4126   74.1252  220.2339 H   0  0  0  0  0  0  0  0  0  0  0  0
  146.6270   71.5950  220.2050 H   0  0  0  0  0  0  0  0  0  0  0  0
  145.1544   72.8789  218.0172 H   0  0  0  0  0  0  0  0  0  0  0  0
  144.4193   73.2770  220.7523 H   0  0  0  0  0  0  0  0  0  0  0  0
  143.6809   73.8731  219.1801 H   0  0  0  0  0  0  0  0  0  0  0  0
  138.5669   70.4270  222.2927 H   0  0  0  0  0  0  0  0  0  0  0  0
  139.9024   69.3329  222.7809 H   0  0  0  0  0  0  0  0  0  0  0  0
  137.6228   70.2834  224.6161 H   0  0  0  0  0  0  0  0  0  0  0  0
  137.7011   68.6840  223.8719 H   0  0  0  0  0  0  0  0  0  0  0  0
  138.4733   67.0962  225.5150 H   0  0  0  0  0  0  0  0  0  0  0  0
  140.1038   66.4959  227.3016 H   0  0  0  0  0  0  0  0  0  0  0  0
  141.7709   68.1762  228.0453 H   0  0  0  0  0  0  0  0  0  0  0  0
  141.8253   70.4182  227.0431 H   0  0  0  0  0  0  0  0  0  0  0  0
  139.4230   72.0432  225.5331 H   0  0  0  0  0  0  0  0  0  0  0  0
  141.1721   71.9055  225.2320 H   0  0  0  0  0  0  0  0  0  0  0  0
  138.5890   76.6508  220.6152 H   0  0  0  0  0  0  0  0  0  0  0  0
  138.0840   75.1374  221.4300 H   0  0  0  0  0  0  0  0  0  0  0  0
  137.1598   77.1592  222.5758 H   0  0  0  0  0  0  0  0  0  0  0  0
  138.2529   76.2660  223.6479 H   0  0  0  0  0  0  0  0  0  0  0  0
  137.4793   79.2358  223.5671 H   0  0  0  0  0  0  0  0  0  0  0  0
  138.8312   81.3278  223.7461 H   0  0  0  0  0  0  0  0  0  0  0  0
  141.2371   81.2371  223.0394 H   0  0  0  0  0  0  0  0  0  0  0  0
  142.2088   79.1223  222.1964 H   0  0  0  0  0  0  0  0  0  0  0  0
  141.5099   76.9737  220.9127 H   0  0  0  0  0  0  0  0  0  0  0  0
  141.8135   76.4374  222.6128 H   0  0  0  0  0  0  0  0  0  0  0  0
  142.7714   70.0902  220.0102 H   0  0  0  0  0  0  0  0  0  0  0  0
  141.5727   70.8666  218.9403 H   0  0  0  0  0  0  0  0  0  0  0  0
  143.5094   69.8206  217.7160 H   0  0  0  0  0  0  0  0  0  0  0  0
  143.3307   71.5721  217.4025 H   0  0  0  0  0  0  0  0  0  0  0  0
  1  2  1  0
  2  3  1  0
  3  4  1  0
  4  5  1  0
  5  6  1  0
  6  7  1  0
  7  8  2  0
  8  9  1  0
  9 10  1  0
 10 11  1  0
 11 12  1  0
 12 13  1  0
 13 14  2  0
 14 15  1  0
 15 16  2  0
 16 17  1  0
 17 18  2  0
 18 19  1  0
  9 20  2  0
 20 21  1  0
 21 22  1  0
 22 23  1  0
 23 24  1  0
 24 25  1  0
 25 26  2  0
 26 27  1  0
 27 28  2  0
 28 29  1  0
 29 30  2  0
 30 31  1  0
 21 32  2  0
  6 33  1  0
 33 34  1  0
 34 35  1  0
 35  4  1  0
 32  7  1  0
 19 10  1  0
 31 22  1  0
 18 13  1  0
 30 25  1  0
  1 36  1  0
  1 37  1  0
  1 38  1  0
  2 39  1  0
  2 40  1  0
  3 41  1  0
  4 42  1  6
  5 43  1  0
  5 44  1  0
 11 45  1  0
 11 46  1  0
 12 47  1  0
 12 48  1  0
 14 49  1  0
 15 50  1  0
 16 51  1  0
 17 52  1  0
 19 53  1  0
 19 54  1  0
 23 55  1  0
 23 56  1  0
 24 57  1  0
 24 58  1  0
 26 59  1  0
 27 60  1  0
 28 61  1  0
 29 62  1  0
 31 63  1  0
 31 64  1  0
 33 65  1  0
 33 66  1  0
 34 67  1  0
 34 68  1  0
M  END
>  <smiles>  (27) 
CCNC1CN(c2nc(N3CCc4ccccc4C3)nc(N3CCc4ccccc4C3)n2)CCO1

>  <score_type>  (27) 
oracle

>  <origin>  (27) 
autodockgpu

>  <m_score__min__energy>  (27) 
-10.48

>  <m_primary>  (27) 
energy

>  <rmsd>  (27) 
6.577138818073739

>  <m_score__min__rmsd>  (27) 
6.577138818073739

>  <meeko>  (27) 
{"free_energy": -10.48, "intermolecular_energy": -11.97, "internal_energy": -1.03, "cluster_size": 47, "cluster_id": 1, "rank_in_cluster": 1}

>  <energy>  (27) 
-9.9

>  <cluster_rmsd>  (27) 
1.59

>  <cluster>  (27) 
1

$$$$

     RDKit          3D

 68 73  0  0  0  0  0  0  0  0999 V2000
  145.4590   74.6810  215.9550 C   0  0  0  0  0  0  0  0  0  0  0  0
  146.4810   73.7520  216.5410 C   0  0  0  0  0  0  0  0  0  0  0  0
  146.1430   73.3700  217.8780 N   0  0  0  0  0  0  0  0  0  0  0  0
  145.1490   72.3300  217.9620 C   0  0  2  0  0  0  0  0  0  0  0  0
  143.9530   72.8800  218.6660 C   0  0  0  0  0  0  0  0  0  0  0  0
  143.4990   72.0940  219.7870 N   0  0  0  0  0  0  0  0  0  0  0  0
  142.5050   72.6700  220.6390 C   0  0  0  0  0  0  0  0  0  0  0  0
  141.8450   71.9030  221.5500 N   0  0  0  0  0  0  0  0  0  0  0  0
  140.9090   72.3900  222.3700 C   0  0  0  0  0  0  0  0  0  0  0  0
  140.2890   71.4750  223.2830 N   0  0  0  0  0  0  0  0  0  0  0  0
  139.4840   70.4050  222.7340 C   0  0  0  0  0  0  0  0  0  0  0  0
  138.4940   69.9290  223.7920 C   0  0  0  0  0  0  0  0  0  0  0  0
  139.3370   69.4360  224.9260 C   0  0  0  0  0  0  0  0  0  0  0  0
  139.1420   68.1940  225.4890 C   0  0  0  0  0  0  0  0  0  0  0  0
  139.9530   67.8010  226.5310 C   0  0  0  0  0  0  0  0  0  0  0  0
  140.9380   68.6600  226.9830 C   0  0  0  0  0  0  0  0  0  0  0  0
  141.1150   69.8940  226.4060 C   0  0  0  0  0  0  0  0  0  0  0  0
  140.3220   70.3130  225.3660 C   0  0  0  0  0  0  0  0  0  0  0  0
  140.4930   71.6580  224.7160 C   0  0  0  0  0  0  0  0  0  0  0  0
  140.5940   73.6810  222.3070 N   0  0  0  0  0  0  0  0  0  0  0  0
  141.2420   74.4610  221.4040 C   0  0  0  0  0  0  0  0  0  0  0  0
  140.9380   75.8680  221.2950 N   0  0  0  0  0  0  0  0  0  0  0  0
  140.2020   76.5630  222.3310 C   0  0  0  0  0  0  0  0  0  0  0  0
  141.0650   77.6790  222.8790 C   0  0  0  0  0  0  0  0  0  0  0  0
  141.3840   78.5640  221.7210 C   0  0  0  0  0  0  0  0  0  0  0  0
  141.5340   79.9100  221.9670 C   0  0  0  0  0  0  0  0  0  0  0  0
  141.8310   80.8120  220.9530 C   0  0  0  0  0  0  0  0  0  0  0  0
  141.9720   80.2970  219.6720 C   0  0  0  0  0  0  0  0  0  0  0  0
  141.8170   78.9290  219.4400 C   0  0  0  0  0  0  0  0  0  0  0  0
  141.5250   78.0540  220.4440 C   0  0  0  0  0  0  0  0  0  0  0  0
  141.3730   76.6110  220.1310 C   0  0  0  0  0  0  0  0  0  0  0  0
  142.1840   73.9680  220.5800 N   0  0  0  0  0  0  0  0  0  0  0  0
  143.9920   70.7660  220.0970 C   0  0  0  0  0  0  0  0  0  0  0  0
  144.7390   70.2640  218.9020 C   0  0  0  0  0  0  0  0  0  0  0  0
  145.6950   71.2140  218.5500 O   0  0  0  0  0  0  0  0  0  0  0  0
  144.9095   75.1805  216.7665 H   0  0  0  0  0  0  0  0  0  0  0  0
  145.9632   75.4364  215.3344 H   0  0  0  0  0  0  0  0  0  0  0  0
  144.7550   74.1072  215.3344 H   0  0  0  0  0  0  0  0  0  0  0  0
  146.5414   72.8485  215.9164 H   0  0  0  0  0  0  0  0  0  0  0  0
  147.4470   74.2774  216.5679 H   0  0  0  0  0  0  0  0  0  0  0  0
  146.0360   74.1430  218.5450 H   0  0  0  0  0  0  0  0  0  0  0  0
  144.8112   72.0013  216.9681 H   0  0  0  0  0  0  0  0  0  0  0  0
  144.2038   73.8864  219.0324 H   0  0  0  0  0  0  0  0  0  0  0  0
  143.1329   72.8782  217.9329 H   0  0  0  0  0  0  0  0  0  0  0  0
  138.9345   70.7720  221.8545 H   0  0  0  0  0  0  0  0  0  0  0  0
  140.1341   69.5700  222.4338 H   0  0  0  0  0  0  0  0  0  0  0  0
  137.8525   70.7597  224.1212 H   0  0  0  0  0  0  0  0  0  0  0  0
  137.8256   69.1452  223.4061 H   0  0  0  0  0  0  0  0  0  0  0  0
  138.3520   67.5273  225.1129 H   0  0  0  0  0  0  0  0  0  0  0  0
  139.8185   66.8144  226.9985 H   0  0  0  0  0  0  0  0  0  0  0  0
  141.5879   68.3513  227.8150 H   0  0  0  0  0  0  0  0  0  0  0  0
  141.9061   70.5584  226.7838 H   0  0  0  0  0  0  0  0  0  0  0  0
  139.7515   72.3660  225.1146 H   0  0  0  0  0  0  0  0  0  0  0  0
  141.4949   72.0645  224.9185 H   0  0  0  0  0  0  0  0  0  0  0  0
  139.2778   76.9841  221.9085 H   0  0  0  0  0  0  0  0  0  0  0  0
  139.9414   75.8622  223.1378 H   0  0  0  0  0  0  0  0  0  0  0  0
  140.5174   78.2415  223.6495 H   0  0  0  0  0  0  0  0  0  0  0  0
  141.9794   77.2860  223.3476 H   0  0  0  0  0  0  0  0  0  0  0  0
  141.4154   80.2819  222.9954 H   0  0  0  0  0  0  0  0  0  0  0  0
  141.9491   81.8866  221.1564 H   0  0  0  0  0  0  0  0  0  0  0  0
  142.2072   80.9705  218.8347 H   0  0  0  0  0  0  0  0  0  0  0  0
  141.9341   78.5454  218.4157 H   0  0  0  0  0  0  0  0  0  0  0  0
  140.6276   76.4936  219.3307 H   0  0  0  0  0  0  0  0  0  0  0  0
  142.3493   76.2183  219.8107 H   0  0  0  0  0  0  0  0  0  0  0  0
  144.6640   70.8101  220.9668 H   0  0  0  0  0  0  0  0  0  0  0  0
  143.1561   70.0928  220.3378 H   0  0  0  0  0  0  0  0  0  0  0  0
  145.2334   69.3121  219.1459 H   0  0  0  0  0  0  0  0  0  0  0  0
  144.0450   70.0980  218.0648 H   0  0  0  0  0  0  0  0  0  0  0  0
  1  2  1  0
  2  3  1  0
  3  4  1  0
  4  5  1  0
  5  6  1  0
  6  7  1  0
  7  8  2  0
  8  9  1  0
  9 10  1  0
 10 11  1  0
 11 12  1  0
 12 13  1  0
 13 14  2  0
 14 15  1  0
 15 16  2  0
 16 17  1  0
 17 18  2  0
 18 19  1  0
  9 20  2  0
 20 21  1  0
 21 22  1  0
 22 23  1  0
 23 24  1  0
 24 25  1  0
 25 26  2  0
 26 27  1  0
 27 28  2  0
 28 29  1  0
 29 30  2  0
 30 31  1  0
 21 32  2  0
  6 33  1  0
 33 34  1  0
 34 35  1  0
 35  4  1  0
 32  7  1  0
 19 10  1  0
 31 22  1  0
 18 13  1  0
 30 25  1  0
  1 36  1  0
  1 37  1  0
  1 38  1  0
  2 39  1  0
  2 40  1  0
  3 41  1  0
  4 42  1  6
  5 43  1  0
  5 44  1  0
 11 45  1  0
 11 46  1  0
 12 47  1  0
 12 48  1  0
 14 49  1  0
 15 50  1  0
 16 51  1  0
 17 52  1  0
 19 53  1  0
 19 54  1  0
 23 55  1  0
 23 56  1  0
 24 57  1  0
 24 58  1  0
 26 59  1  0
 27 60  1  0
 28 61  1  0
 29 62  1  0
 31 63  1  0
 31 64  1  0
 33 65  1  0
 33 66  1  0
 34 67  1  0
 34 68  1  0
M  END
>  <smiles>  (28) 
CCNC1CN(c2nc(N3CCc4ccccc4C3)nc(N3CCc4ccccc4C3)n2)CCO1

>  <score_type>  (28) 
oracle

>  <origin>  (28) 
autodockgpu

>  <m_score__min__energy>  (28) 
-10.48

>  <m_primary>  (28) 
energy

>  <rmsd>  (28) 
7.679480535842174

>  <m_score__min__rmsd>  (28) 
7.679480535842174

>  <meeko>  (28) 
{"free_energy": -10.03, "intermolecular_energy": -11.52, "internal_energy": -0.99, "cluster_size": 47, "cluster_id": 1, "rank_in_cluster": 18}

>  <energy>  (28) 
-9.88

>  <cluster_rmsd>  (28) 
1.59

>  <cluster>  (28) 
1

$$$$

     RDKit          3D

 68 73  0  0  0  0  0  0  0  0999 V2000
  146.5050   73.3770  221.8960 C   0  0  0  0  0  0  0  0  0  0  0  0
  145.9890   74.1280  220.7040 C   0  0  0  0  0  0  0  0  0  0  0  0
  146.2270   73.4150  219.4860 N   0  0  0  0  0  0  0  0  0  0  0  0
  145.0760   72.7110  218.9790 C   0  0  2  0  0  0  0  0  0  0  0  0
  143.8610   73.2440  219.6610 C   0  0  0  0  0  0  0  0  0  0  0  0
  143.0220   72.2400  220.2700 N   0  0  0  0  0  0  0  0  0  0  0  0
  141.9690   72.6890  221.1260 C   0  0  0  0  0  0  0  0  0  0  0  0
  141.5120   73.9690  221.0480 N   0  0  0  0  0  0  0  0  0  0  0  0
  140.5290   74.4400  221.8220 C   0  0  0  0  0  0  0  0  0  0  0  0
  140.1420   75.8080  221.6410 N   0  0  0  0  0  0  0  0  0  0  0  0
  138.7690   76.1710  221.9240 C   0  0  0  0  0  0  0  0  0  0  0  0
  138.4200   77.4440  221.1600 C   0  0  0  0  0  0  0  0  0  0  0  0
  139.3640   78.4840  221.6760 C   0  0  0  0  0  0  0  0  0  0  0  0
  138.9220   79.7110  222.1180 C   0  0  0  0  0  0  0  0  0  0  0  0
  139.8450   80.6240  222.5800 C   0  0  0  0  0  0  0  0  0  0  0  0
  141.1860   80.2860  222.5890 C   0  0  0  0  0  0  0  0  0  0  0  0
  141.6040   79.0560  222.1430 C   0  0  0  0  0  0  0  0  0  0  0  0
  140.7070   78.1250  221.6780 C   0  0  0  0  0  0  0  0  0  0  0  0
  141.1370   76.7710  221.1850 C   0  0  0  0  0  0  0  0  0  0  0  0
  139.9610   73.6360  222.7170 N   0  0  0  0  0  0  0  0  0  0  0  0
  140.4050   72.3550  222.8080 C   0  0  0  0  0  0  0  0  0  0  0  0
  139.8220   71.4410  223.7620 N   0  0  0  0  0  0  0  0  0  0  0  0
  138.6590   70.6430  223.4290 C   0  0  0  0  0  0  0  0  0  0  0  0
  139.0200   69.1790  223.5530 C   0  0  0  0  0  0  0  0  0  0  0  0
  139.4590   68.9770  224.9640 C   0  0  0  0  0  0  0  0  0  0  0  0
  139.1990   67.7570  225.5460 C   0  0  0  0  0  0  0  0  0  0  0  0
  139.5700   67.4760  226.8550 C   0  0  0  0  0  0  0  0  0  0  0  0
  140.2170   68.4830  227.5580 C   0  0  0  0  0  0  0  0  0  0  0  0
  140.4730   69.7140  226.9520 C   0  0  0  0  0  0  0  0  0  0  0  0
  140.1030   69.9780  225.6670 C   0  0  0  0  0  0  0  0  0  0  0  0
  140.4040   71.3080  225.0810 C   0  0  0  0  0  0  0  0  0  0  0  0
  141.3940   71.8840  222.0280 N   0  0  0  0  0  0  0  0  0  0  0  0
  143.1890   70.8150  220.0650 C   0  0  0  0  0  0  0  0  0  0  0  0
  144.1020   70.6220  218.8960 C   0  0  0  0  0  0  0  0  0  0  0  0
  145.2630   71.3570  219.1200 O   0  0  0  0  0  0  0  0  0  0  0  0
  146.1645   73.8726  222.8171 H   0  0  0  0  0  0  0  0  0  0  0  0
  146.1242   72.3453  221.8724 H   0  0  0  0  0  0  0  0  0  0  0  0
  147.6047   73.3625  221.8724 H   0  0  0  0  0  0  0  0  0  0  0  0
  144.9062   74.2823  220.8211 H   0  0  0  0  0  0  0  0  0  0  0  0
  146.5202   75.0896  220.6480 H   0  0  0  0  0  0  0  0  0  0  0  0
  147.1170   72.9060  219.4390 H   0  0  0  0  0  0  0  0  0  0  0  0
  144.9338   72.8762  217.9008 H   0  0  0  0  0  0  0  0  0  0  0  0
  144.1872   73.9408  220.4472 H   0  0  0  0  0  0  0  0  0  0  0  0
  143.2530   73.7256  218.8810 H   0  0  0  0  0  0  0  0  0  0  0  0
  138.1004   75.3569  221.6076 H   0  0  0  0  0  0  0  0  0  0  0  0
  138.6467   76.3423  223.0037 H   0  0  0  0  0  0  0  0  0  0  0  0
  138.5623   77.2963  220.0793 H   0  0  0  0  0  0  0  0  0  0  0  0
  137.3692   77.7350  221.3052 H   0  0  0  0  0  0  0  0  0  0  0  0
  137.8502   79.9582  222.1025 H   0  0  0  0  0  0  0  0  0  0  0  0
  139.5185   81.6115  222.9380 H   0  0  0  0  0  0  0  0  0  0  0  0
  141.9267   81.0109  222.9577 H   0  0  0  0  0  0  0  0  0  0  0  0
  142.6765   78.8119  222.1584 H   0  0  0  0  0  0  0  0  0  0  0  0
  141.1871   76.7689  220.0861 H   0  0  0  0  0  0  0  0  0  0  0  0
  142.1340   76.5140  221.5721 H   0  0  0  0  0  0  0  0  0  0  0  0
  137.8372   70.8809  224.1204 H   0  0  0  0  0  0  0  0  0  0  0  0
  138.3373   70.8626  222.4003 H   0  0  0  0  0  0  0  0  0  0  0  0
  138.1448   68.5504  223.3322 H   0  0  0  0  0  0  0  0  0  0  0  0
  139.8122   68.8999  222.8428 H   0  0  0  0  0  0  0  0  0  0  0  0
  138.6832   66.9832  224.9585 H   0  0  0  0  0  0  0  0  0  0  0  0
  139.3603   66.4986  227.3141 H   0  0  0  0  0  0  0  0  0  0  0  0
  140.5296   68.3099  228.5983 H   0  0  0  0  0  0  0  0  0  0  0  0
  140.9893   70.4952  227.5292 H   0  0  0  0  0  0  0  0  0  0  0  0
  139.9925   72.0903  225.7357 H   0  0  0  0  0  0  0  0  0  0  0  0
  141.4956   71.4117  224.9930 H   0  0  0  0  0  0  0  0  0  0  0  0
  143.6299   70.3575  220.9629 H   0  0  0  0  0  0  0  0  0  0  0  0
  142.2159   70.3390  219.8736 H   0  0  0  0  0  0  0  0  0  0  0  0
  144.3515   69.5558  218.7914 H   0  0  0  0  0  0  0  0  0  0  0  0
  143.6111   70.9625  217.9724 H   0  0  0  0  0  0  0  0  0  0  0  0
  1  2  1  0
  2  3  1  0
  3  4  1  0
  4  5  1  0
  5  6  1  0
  6  7  1  0
  7  8  2  0
  8  9  1  0
  9 10  1  0
 10 11  1  0
 11 12  1  0
 12 13  1  0
 13 14  2  0
 14 15  1  0
 15 16  2  0
 16 17  1  0
 17 18  2  0
 18 19  1  0
  9 20  2  0
 20 21  1  0
 21 22  1  0
 22 23  1  0
 23 24  1  0
 24 25  1  0
 25 26  2  0
 26 27  1  0
 27 28  2  0
 28 29  1  0
 29 30  2  0
 30 31  1  0
 21 32  2  0
  6 33  1  0
 33 34  1  0
 34 35  1  0
 35  4  1  0
 32  7  1  0
 19 10  1  0
 31 22  1  0
 18 13  1  0
 30 25  1  0
  1 36  1  0
  1 37  1  0
  1 38  1  0
  2 39  1  0
  2 40  1  0
  3 41  1  0
  4 42  1  6
  5 43  1  0
  5 44  1  0
 11 45  1  0
 11 46  1  0
 12 47  1  0
 12 48  1  0
 14 49  1  0
 15 50  1  0
 16 51  1  0
 17 52  1  0
 19 53  1  0
 19 54  1  0
 23 55  1  0
 23 56  1  0
 24 57  1  0
 24 58  1  0
 26 59  1  0
 27 60  1  0
 28 61  1  0
 29 62  1  0
 31 63  1  0
 31 64  1  0
 33 65  1  0
 33 66  1  0
 34 67  1  0
 34 68  1  0
M  END
>  <smiles>  (29) 
CCNC1CN(c2nc(N3CCc4ccccc4C3)nc(N3CCc4ccccc4C3)n2)CCO1

>  <score_type>  (29) 
oracle

>  <origin>  (29) 
autodockgpu

>  <m_score__min__energy>  (29) 
-10.48

>  <m_primary>  (29) 
energy

>  <rmsd>  (29) 
6.602346157418842

>  <m_score__min__rmsd>  (29) 
6.602346157418842

>  <meeko>  (29) 
{"free_energy": -9.75, "intermolecular_energy": -11.24, "internal_energy": -1.15, "cluster_size": 47, "cluster_id": 1, "rank_in_cluster": 42}

>  <energy>  (29) 
-9.87

>  <cluster_rmsd>  (29) 
1.52

>  <cluster>  (29) 
1

$$$$

     RDKit          3D

 68 73  0  0  0  0  0  0  0  0999 V2000
  143.6660   76.1150  217.1530 C   0  0  0  0  0  0  0  0  0  0  0  0
  143.8490   74.7650  216.5250 C   0  0  0  0  0  0  0  0  0  0  0  0
  145.0160   74.1030  217.0250 N   0  0  0  0  0  0  0  0  0  0  0  0
  144.7400   72.9210  217.8000 C   0  0  2  0  0  0  0  0  0  0  0  0
  143.4650   73.1350  218.5450 C   0  0  0  0  0  0  0  0  0  0  0  0
  143.5480   72.8940  219.9650 N   0  0  0  0  0  0  0  0  0  0  0  0
  142.4340   73.2920  220.7690 C   0  0  0  0  0  0  0  0  0  0  0  0
  141.8010   72.3900  221.5690 N   0  0  0  0  0  0  0  0  0  0  0  0
  140.7570   72.7090  222.3410 C   0  0  0  0  0  0  0  0  0  0  0  0
  140.1790   71.6650  223.1350 N   0  0  0  0  0  0  0  0  0  0  0  0
  139.4870   70.5930  222.4520 C   0  0  0  0  0  0  0  0  0  0  0  0
  138.4990   69.9410  223.4140 C   0  0  0  0  0  0  0  0  0  0  0  0
  139.3350   69.4090  224.5360 C   0  0  0  0  0  0  0  0  0  0  0  0
  139.2220   68.1070  224.9720 C   0  0  0  0  0  0  0  0  0  0  0  0
  140.0210   67.6810  226.0090 C   0  0  0  0  0  0  0  0  0  0  0  0
  140.9140   68.5660  226.5840 C   0  0  0  0  0  0  0  0  0  0  0  0
  141.0110   69.8600  226.1330 C   0  0  0  0  0  0  0  0  0  0  0  0
  140.2270   70.3140  225.1000 C   0  0  0  0  0  0  0  0  0  0  0  0
  140.3120   71.7240  224.5860 C   0  0  0  0  0  0  0  0  0  0  0  0
  140.3020   73.9590  222.3400 N   0  0  0  0  0  0  0  0  0  0  0  0
  140.9230   74.8720  221.5480 C   0  0  0  0  0  0  0  0  0  0  0  0
  140.4690   76.2420  221.5100 N   0  0  0  0  0  0  0  0  0  0  0  0
  139.0570   76.5690  221.5010 C   0  0  0  0  0  0  0  0  0  0  0  0
  138.7430   77.4090  222.7200 C   0  0  0  0  0  0  0  0  0  0  0  0
  139.6050   78.6220  222.6220 C   0  0  0  0  0  0  0  0  0  0  0  0
  139.1100   79.8020  223.1310 C   0  0  0  0  0  0  0  0  0  0  0  0
  139.8390   80.9830  223.0850 C   0  0  0  0  0  0  0  0  0  0  0  0
  141.0970   80.9260  222.5020 C   0  0  0  0  0  0  0  0  0  0  0  0
  141.5850   79.7210  221.9920 C   0  0  0  0  0  0  0  0  0  0  0  0
  140.8590   78.5680  222.0420 C   0  0  0  0  0  0  0  0  0  0  0  0
  141.4340   77.3200  221.4820 C   0  0  0  0  0  0  0  0  0  0  0  0
  141.9730   74.5490  220.7720 N   0  0  0  0  0  0  0  0  0  0  0  0
  144.6880   72.2800  220.6150 C   0  0  0  0  0  0  0  0  0  0  0  0
  145.5410   71.6570  219.5550 C   0  0  0  0  0  0  0  0  0  0  0  0
  145.8220   72.6240  218.5930 O   0  0  0  0  0  0  0  0  0  0  0  0
  143.6796   76.0147  218.2483 H   0  0  0  0  0  0  0  0  0  0  0  0
  144.4821   76.7807  216.8356 H   0  0  0  0  0  0  0  0  0  0  0  0
  142.7021   76.5394  216.8356 H   0  0  0  0  0  0  0  0  0  0  0  0
  142.9663   74.1466  216.7452 H   0  0  0  0  0  0  0  0  0  0  0  0
  143.9715   74.9045  215.4408 H   0  0  0  0  0  0  0  0  0  0  0  0
  145.7470   74.7200  217.3990 H   0  0  0  0  0  0  0  0  0  0  0  0
  144.5925   72.0362  217.1633 H   0  0  0  0  0  0  0  0  0  0  0  0
  143.1501   74.1778  218.3924 H   0  0  0  0  0  0  0  0  0  0  0  0
  142.7466   72.4030  218.1474 H   0  0  0  0  0  0  0  0  0  0  0  0
  138.9439   70.9988  221.5858 H   0  0  0  0  0  0  0  0  0  0  0  0
  140.2150   69.8444  222.1062 H   0  0  0  0  0  0  0  0  0  0  0  0
  137.7785   70.6831  223.7883 H   0  0  0  0  0  0  0  0  0  0  0  0
  137.9134   69.1478  222.9262 H   0  0  0  0  0  0  0  0  0  0  0  0
  138.5053   67.4193  224.4994 H   0  0  0  0  0  0  0  0  0  0  0  0
  139.9496   66.6467  226.3765 H   0  0  0  0  0  0  0  0  0  0  0  0
  141.5546   68.2300  227.4127 H   0  0  0  0  0  0  0  0  0  0  0  0
  141.7292   70.5449  226.6074 H   0  0  0  0  0  0  0  0  0  0  0  0
  139.5002   72.3304  225.0141 H   0  0  0  0  0  0  0  0  0  0  0  0
  141.2689   72.1856  224.8711 H   0  0  0  0  0  0  0  0  0  0  0  0
  138.8144   77.1350  220.5895 H   0  0  0  0  0  0  0  0  0  0  0  0
  138.4595   75.6456  221.5195 H   0  0  0  0  0  0  0  0  0  0  0  0
  137.6809   77.6951  222.7228 H   0  0  0  0  0  0  0  0  0  0  0  0
  138.9358   76.8540  223.6500 H   0  0  0  0  0  0  0  0  0  0  0  0
  138.1089   79.8092  223.5868 H   0  0  0  0  0  0  0  0  0  0  0  0
  139.4370   81.9222  223.4927 H   0  0  0  0  0  0  0  0  0  0  0  0
  141.7133   81.8351  222.4412 H   0  0  0  0  0  0  0  0  0  0  0  0
  142.5858   79.7015  221.5360 H   0  0  0  0  0  0  0  0  0  0  0  0
  141.7398   77.5012  220.4410 H   0  0  0  0  0  0  0  0  0  0  0  0
  142.2998   77.0291  222.0949 H   0  0  0  0  0  0  0  0  0  0  0  0
  145.2646   73.0433  221.1580 H   0  0  0  0  0  0  0  0  0  0  0  0
  144.3543   71.5184  221.3352 H   0  0  0  0  0  0  0  0  0  0  0  0
  146.4785   71.2916  219.9995 H   0  0  0  0  0  0  0  0  0  0  0  0
  145.0134   70.8083  219.0953 H   0  0  0  0  0  0  0  0  0  0  0  0
  1  2  1  0
  2  3  1  0
  3  4  1  0
  4  5  1  0
  5  6  1  0
  6  7  1  0
  7  8  2  0
  8  9  1  0
  9 10  1  0
 10 11  1  0
 11 12  1  0
 12 13  1  0
 13 14  2  0
 14 15  1  0
 15 16  2  0
 16 17  1  0
 17 18  2  0
 18 19  1  0
  9 20  2  0
 20 21  1  0
 21 22  1  0
 22 23  1  0
 23 24  1  0
 24 25  1  0
 25 26  2  0
 26 27  1  0
 27 28  2  0
 28 29  1  0
 29 30  2  0
 30 31  1  0
 21 32  2  0
  6 33  1  0
 33 34  1  0
 34 35  1  0
 35  4  1  0
 32  7  1  0
 19 10  1  0
 31 22  1  0
 18 13  1  0
 30 25  1  0
  1 36  1  0
  1 37  1  0
  1 38  1  0
  2 39  1  0
  2 40  1  0
  3 41  1  0
  4 42  1  6
  5 43  1  0
  5 44  1  0
 11 45  1  0
 11 46  1  0
 12 47  1  0
 12 48  1  0
 14 49  1  0
 15 50  1  0
 16 51  1  0
 17 52  1  0
 19 53  1  0
 19 54  1  0
 23 55  1  0
 23 56  1  0
 24 57  1  0
 24 58  1  0
 26 59  1  0
 27 60  1  0
 28 61  1  0
 29 62  1  0
 31 63  1  0
 31 64  1  0
 33 65  1  0
 33 66  1  0
 34 67  1  0
 34 68  1  0
M  END
>  <smiles>  (30) 
CCNC1CN(c2nc(N3CCc4ccccc4C3)nc(N3CCc4ccccc4C3)n2)CCO1

>  <score_type>  (30) 
oracle

>  <origin>  (30) 
autodockgpu

>  <m_score__min__energy>  (30) 
-10.48

>  <m_primary>  (30) 
energy

>  <rmsd>  (30) 
6.623304598311499

>  <m_score__min__rmsd>  (30) 
6.623304598311499

>  <meeko>  (30) 
{"free_energy": -9.92, "intermolecular_energy": -11.41, "internal_energy": -1.08, "cluster_size": 47, "cluster_id": 1, "rank_in_cluster": 24}

>  <energy>  (30) 
-9.87

>  <cluster_rmsd>  (30) 
1.62

>  <cluster>  (30) 
1

$$$$

     RDKit          3D

 68 73  0  0  0  0  0  0  0  0999 V2000
  143.6480   76.1300  217.1570 C   0  0  0  0  0  0  0  0  0  0  0  0
  143.7260   74.7330  216.6150 C   0  0  0  0  0  0  0  0  0  0  0  0
  144.9570   74.0950  216.9710 N   0  0  0  0  0  0  0  0  0  0  0  0
  144.8080   72.9860  217.8790 C   0  0  2  0  0  0  0  0  0  0  0  0
  143.5230   73.1540  218.6180 C   0  0  0  0  0  0  0  0  0  0  0  0
  143.6400   73.0860  220.0550 N   0  0  0  0  0  0  0  0  0  0  0  0
  142.4970   73.4580  220.8300 C   0  0  0  0  0  0  0  0  0  0  0  0
  141.8480   72.5360  221.5930 N   0  0  0  0  0  0  0  0  0  0  0  0
  140.7780   72.8310  222.3360 C   0  0  0  0  0  0  0  0  0  0  0  0
  140.1860   71.7670  223.0940 N   0  0  0  0  0  0  0  0  0  0  0  0
  139.5020   70.7150  222.3730 C   0  0  0  0  0  0  0  0  0  0  0  0
  138.4980   70.0410  223.3020 C   0  0  0  0  0  0  0  0  0  0  0  0
  139.3160   69.4770  224.4210 C   0  0  0  0  0  0  0  0  0  0  0  0
  139.1940   68.1640  224.8210 C   0  0  0  0  0  0  0  0  0  0  0  0
  139.9770   67.7090  225.8590 C   0  0  0  0  0  0  0  0  0  0  0  0
  140.8620   68.5760  226.4700 C   0  0  0  0  0  0  0  0  0  0  0  0
  140.9680   69.8820  226.0550 C   0  0  0  0  0  0  0  0  0  0  0  0
  140.2010   70.3640  225.0230 C   0  0  0  0  0  0  0  0  0  0  0  0
  140.2970   71.7880  224.5480 C   0  0  0  0  0  0  0  0  0  0  0  0
  140.3100   74.0760  222.3430 N   0  0  0  0  0  0  0  0  0  0  0  0
  140.9450   75.0090  221.5870 C   0  0  0  0  0  0  0  0  0  0  0  0
  140.4780   76.3750  221.5580 N   0  0  0  0  0  0  0  0  0  0  0  0
  139.0640   76.6880  221.5020 C   0  0  0  0  0  0  0  0  0  0  0  0
  138.6950   77.5000  222.7230 C   0  0  0  0  0  0  0  0  0  0  0  0
  139.5480   78.7240  222.6820 C   0  0  0  0  0  0  0  0  0  0  0  0
  139.0200   79.8890  223.1930 C   0  0  0  0  0  0  0  0  0  0  0  0
  139.7380   81.0780  223.1980 C   0  0  0  0  0  0  0  0  0  0  0  0
  141.0180   81.0450  222.6620 C   0  0  0  0  0  0  0  0  0  0  0  0
  141.5370   79.8550  222.1470 C   0  0  0  0  0  0  0  0  0  0  0  0
  140.8230   78.6940  222.1480 C   0  0  0  0  0  0  0  0  0  0  0  0
  141.4330   77.4630  221.5870 C   0  0  0  0  0  0  0  0  0  0  0  0
  142.0220   74.7100  220.8390 N   0  0  0  0  0  0  0  0  0  0  0  0
  144.8410   72.6660  220.7490 C   0  0  0  0  0  0  0  0  0  0  0  0
  145.7460   72.0160  219.7500 C   0  0  0  0  0  0  0  0  0  0  0  0
  145.9200   72.8910  218.6800 O   0  0  0  0  0  0  0  0  0  0  0  0
  143.6498   76.0973  218.2565 H   0  0  0  0  0  0  0  0  0  0  0  0
  144.5152   76.7085  216.8059 H   0  0  0  0  0  0  0  0  0  0  0  0
  142.7217   76.6083  216.8059 H   0  0  0  0  0  0  0  0  0  0  0  0
  142.8895   74.1457  217.0216 H   0  0  0  0  0  0  0  0  0  0  0  0
  143.6728   74.7874  215.5176 H   0  0  0  0  0  0  0  0  0  0  0  0
  145.7420   74.7270  217.1660 H   0  0  0  0  0  0  0  0  0  0  0  0
  144.7471   72.0242  217.3487 H   0  0  0  0  0  0  0  0  0  0  0  0
  143.1021   74.1356  218.3546 H   0  0  0  0  0  0  0  0  0  0  0  0
  142.8803   72.3130  218.3186 H   0  0  0  0  0  0  0  0  0  0  0  0
  138.9732   71.1446  221.5094 H   0  0  0  0  0  0  0  0  0  0  0  0
  140.2335   69.9736  222.0192 H   0  0  0  0  0  0  0  0  0  0  0  0
  137.7741   70.7751  223.6854 H   0  0  0  0  0  0  0  0  0  0  0  0
  137.9172   69.2631  222.7847 H   0  0  0  0  0  0  0  0  0  0  0  0
  138.4832   67.4905  224.3198 H   0  0  0  0  0  0  0  0  0  0  0  0
  139.8983   66.6655  226.1980 H   0  0  0  0  0  0  0  0  0  0  0  0
  141.4896   68.2167  227.2989 H   0  0  0  0  0  0  0  0  0  0  0  0
  141.6797   70.5529  226.5584 H   0  0  0  0  0  0  0  0  0  0  0  0
  139.4801   72.3849  224.9796 H   0  0  0  0  0  0  0  0  0  0  0  0
  141.2502   72.2399  224.8600 H   0  0  0  0  0  0  0  0  0  0  0  0
  138.8499   77.2694  220.5931 H   0  0  0  0  0  0  0  0  0  0  0  0
  138.4764   75.7584  221.4803 H   0  0  0  0  0  0  0  0  0  0  0  0
  137.6306   77.7756  222.6903 H   0  0  0  0  0  0  0  0  0  0  0  0
  138.8578   76.9286  223.6488 H   0  0  0  0  0  0  0  0  0  0  0  0
  138.0016   79.8775  223.6086 H   0  0  0  0  0  0  0  0  0  0  0  0
  139.3111   82.0049  223.6086 H   0  0  0  0  0  0  0  0  0  0  0  0
  141.6268   81.9609  222.6428 H   0  0  0  0  0  0  0  0  0  0  0  0
  142.5538   79.8548  221.7275 H   0  0  0  0  0  0  0  0  0  0  0  0
  141.7764   77.6671  220.5621 H   0  0  0  0  0  0  0  0  0  0  0  0
  142.2784   77.1691  222.2265 H   0  0  0  0  0  0  0  0  0  0  0  0
  145.3407   73.5394  221.1933 H   0  0  0  0  0  0  0  0  0  0  0  0
  144.5909   71.9608  221.5553 H   0  0  0  0  0  0  0  0  0  0  0  0
  146.7190   71.8000  220.2154 H   0  0  0  0  0  0  0  0  0  0  0  0
  145.3048   71.0717  219.3983 H   0  0  0  0  0  0  0  0  0  0  0  0
  1  2  1  0
  2  3  1  0
  3  4  1  0
  4  5  1  0
  5  6  1  0
  6  7  1  0
  7  8  2  0
  8  9  1  0
  9 10  1  0
 10 11  1  0
 11 12  1  0
 12 13  1  0
 13 14  2  0
 14 15  1  0
 15 16  2  0
 16 17  1  0
 17 18  2  0
 18 19  1  0
  9 20  2  0
 20 21  1  0
 21 22  1  0
 22 23  1  0
 23 24  1  0
 24 25  1  0
 25 26  2  0
 26 27  1  0
 27 28  2  0
 28 29  1  0
 29 30  2  0
 30 31  1  0
 21 32  2  0
  6 33  1  0
 33 34  1  0
 34 35  1  0
 35  4  1  0
 32  7  1  0
 19 10  1  0
 31 22  1  0
 18 13  1  0
 30 25  1  0
  1 36  1  0
  1 37  1  0
  1 38  1  0
  2 39  1  0
  2 40  1  0
  3 41  1  0
  4 42  1  6
  5 43  1  0
  5 44  1  0
 11 45  1  0
 11 46  1  0
 12 47  1  0
 12 48  1  0
 14 49  1  0
 15 50  1  0
 16 51  1  0
 17 52  1  0
 19 53  1  0
 19 54  1  0
 23 55  1  0
 23 56  1  0
 24 57  1  0
 24 58  1  0
 26 59  1  0
 27 60  1  0
 28 61  1  0
 29 62  1  0
 31 63  1  0
 31 64  1  0
 33 65  1  0
 33 66  1  0
 34 67  1  0
 34 68  1  0
M  END
>  <smiles>  (31) 
CCNC1CN(c2nc(N3CCc4ccccc4C3)nc(N3CCc4ccccc4C3)n2)CCO1

>  <score_type>  (31) 
oracle

>  <origin>  (31) 
autodockgpu

>  <m_score__min__energy>  (31) 
-10.48

>  <m_primary>  (31) 
energy

>  <rmsd>  (31) 
6.612917811480789

>  <m_score__min__rmsd>  (31) 
6.612917811480789

>  <meeko>  (31) 
{"free_energy": -9.92, "intermolecular_energy": -11.41, "internal_energy": -1.09, "cluster_size": 47, "cluster_id": 1, "rank_in_cluster": 23}

>  <energy>  (31) 
-9.86

>  <cluster_rmsd>  (31) 
1.55

>  <cluster>  (31) 
1

$$$$

     RDKit          3D

 68 73  0  0  0  0  0  0  0  0999 V2000
  145.3630   68.2130  219.3140 C   0  0  0  0  0  0  0  0  0  0  0  0
  145.4750   69.0850  218.0980 C   0  0  0  0  0  0  0  0  0  0  0  0
  144.6690   70.2620  218.2160 N   0  0  0  0  0  0  0  0  0  0  0  0
  145.1040   71.1770  219.2410 C   0  0  2  0  0  0  0  0  0  0  0  0
  143.9540   71.4390  220.1550 C   0  0  0  0  0  0  0  0  0  0  0  0
  143.6560   72.8350  220.3650 N   0  0  0  0  0  0  0  0  0  0  0  0
  142.4390   73.1570  221.0430 C   0  0  0  0  0  0  0  0  0  0  0  0
  141.7870   72.2150  221.7790 N   0  0  0  0  0  0  0  0  0  0  0  0
  140.6480   72.4630  222.4340 C   0  0  0  0  0  0  0  0  0  0  0  0
  140.0610   71.3830  223.1720 N   0  0  0  0  0  0  0  0  0  0  0  0
  139.6140   70.2190  222.4370 C   0  0  0  0  0  0  0  0  0  0  0  0
  138.5540   69.4870  223.2530 C   0  0  0  0  0  0  0  0  0  0  0  0
  139.2420   69.0880  224.5210 C   0  0  0  0  0  0  0  0  0  0  0  0
  139.1980   67.7940  224.9950 C   0  0  0  0  0  0  0  0  0  0  0  0
  139.8530   67.4940  226.1690 C   0  0  0  0  0  0  0  0  0  0  0  0
  140.5340   68.4920  226.8400 C   0  0  0  0  0  0  0  0  0  0  0  0
  140.5650   69.7750  226.3490 C   0  0  0  0  0  0  0  0  0  0  0  0
  139.9220   70.1050  225.1800 C   0  0  0  0  0  0  0  0  0  0  0  0
  139.9400   71.5000  224.6200 C   0  0  0  0  0  0  0  0  0  0  0  0
  140.1120   73.6790  222.3740 N   0  0  0  0  0  0  0  0  0  0  0  0
  140.7500   74.6320  221.6450 C   0  0  0  0  0  0  0  0  0  0  0  0
  140.2110   75.9680  221.5470 N   0  0  0  0  0  0  0  0  0  0  0  0
  138.7970   76.1960  221.3290 C   0  0  0  0  0  0  0  0  0  0  0  0
  138.2470   76.9930  222.4920 C   0  0  0  0  0  0  0  0  0  0  0  0
  139.0260   78.2640  222.5310 C   0  0  0  0  0  0  0  0  0  0  0  0
  138.3780   79.3980  222.9660 C   0  0  0  0  0  0  0  0  0  0  0  0
  139.0210   80.6280  223.0360 C   0  0  0  0  0  0  0  0  0  0  0  0
  140.3530   80.6670  222.6470 C   0  0  0  0  0  0  0  0  0  0  0  0
  140.9950   79.5070  222.2090 C   0  0  0  0  0  0  0  0  0  0  0  0
  140.3530   78.3060  222.1440 C   0  0  0  0  0  0  0  0  0  0  0  0
  141.0920   77.1100  221.6690 C   0  0  0  0  0  0  0  0  0  0  0  0
  141.8960   74.3790  220.9870 N   0  0  0  0  0  0  0  0  0  0  0  0
  144.5140   73.9190  219.9280 C   0  0  0  0  0  0  0  0  0  0  0  0
  145.8440   73.3360  219.5700 C   0  0  0  0  0  0  0  0  0  0  0  0
  145.6400   72.3010  218.6610 O   0  0  0  0  0  0  0  0  0  0  0  0
  145.4427   68.8335  220.2188 H   0  0  0  0  0  0  0  0  0  0  0  0
  144.3913   67.6975  219.3073 H   0  0  0  0  0  0  0  0  0  0  0  0
  146.1729   67.4687  219.3073 H   0  0  0  0  0  0  0  0  0  0  0  0
  146.5258   69.3837  217.9688 H   0  0  0  0  0  0  0  0  0  0  0  0
  145.1194   68.5109  217.2297 H   0  0  0  0  0  0  0  0  0  0  0  0
  143.6550   70.1120  218.1540 H   0  0  0  0  0  0  0  0  0  0  0  0
  145.9107   70.7527  219.8568 H   0  0  0  0  0  0  0  0  0  0  0  0
  143.0611   70.9586  219.7285 H   0  0  0  0  0  0  0  0  0  0  0  0
  144.2382   71.0312  221.1363 H   0  0  0  0  0  0  0  0  0  0  0  0
  139.1846   70.5342  221.4746 H   0  0  0  0  0  0  0  0  0  0  0  0
  140.4664   69.5487  222.2526 H   0  0  0  0  0  0  0  0  0  0  0  0
  137.7047   70.1523  223.4677 H   0  0  0  0  0  0  0  0  0  0  0  0
  138.1476   68.6182  222.7145 H   0  0  0  0  0  0  0  0  0  0  0  0
  138.6495   67.0149  224.4453 H   0  0  0  0  0  0  0  0  0  0  0  0
  139.8342   66.4694  226.5689 H   0  0  0  0  0  0  0  0  0  0  0  0
  141.0575   68.2564  227.7783 H   0  0  0  0  0  0  0  0  0  0  0  0
  141.1142   70.5517  226.9014 H   0  0  0  0  0  0  0  0  0  0  0  0
  139.0070   72.0219  224.8790 H   0  0  0  0  0  0  0  0  0  0  0  0
  140.7794   72.0765  225.0361 H   0  0  0  0  0  0  0  0  0  0  0  0
  138.6528   76.7580  220.3945 H   0  0  0  0  0  0  0  0  0  0  0  0
  138.2703   75.2333  221.2531 H   0  0  0  0  0  0  0  0  0  0  0  0
  137.1787   77.2051  222.3376 H   0  0  0  0  0  0  0  0  0  0  0  0
  138.3384   76.4378  223.4372 H   0  0  0  0  0  0  0  0  0  0  0  0
  137.3221   79.3286  223.2665 H   0  0  0  0  0  0  0  0  0  0  0  0
  138.4977   81.5307  223.3842 H   0  0  0  0  0  0  0  0  0  0  0  0
  140.9059   81.6172  222.6840 H   0  0  0  0  0  0  0  0  0  0  0  0
  142.0512   79.5639  221.9071 H   0  0  0  0  0  0  0  0  0  0  0  0
  141.5354   77.3284  220.6863 H   0  0  0  0  0  0  0  0  0  0  0  0
  141.8762   76.8698  222.4020 H   0  0  0  0  0  0  0  0  0  0  0  0
  144.0738   74.4133  219.0494 H   0  0  0  0  0  0  0  0  0  0  0  0
  144.6255   74.6660  220.7277 H   0  0  0  0  0  0  0  0  0  0  0  0
  146.4787   74.1105  219.1148 H   0  0  0  0  0  0  0  0  0  0  0  0
  146.3442   72.9536  220.4720 H   0  0  0  0  0  0  0  0  0  0  0  0
  1  2  1  0
  2  3  1  0
  3  4  1  0
  4  5  1  0
  5  6  1  0
  6  7  1  0
  7  8  2  0
  8  9  1  0
  9 10  1  0
 10 11  1  0
 11 12  1  0
 12 13  1  0
 13 14  2  0
 14 15  1  0
 15 16  2  0
 16 17  1  0
 17 18  2  0
 18 19  1  0
  9 20  2  0
 20 21  1  0
 21 22  1  0
 22 23  1  0
 23 24  1  0
 24 25  1  0
 25 26  2  0
 26 27  1  0
 27 28  2  0
 28 29  1  0
 29 30  2  0
 30 31  1  0
 21 32  2  0
  6 33  1  0
 33 34  1  0
 34 35  1  0
 35  4  1  0
 32  7  1  0
 19 10  1  0
 31 22  1  0
 18 13  1  0
 30 25  1  0
  1 36  1  0
  1 37  1  0
  1 38  1  0
  2 39  1  0
  2 40  1  0
  3 41  1  0
  4 42  1  1
  5 43  1  0
  5 44  1  0
 11 45  1  0
 11 46  1  0
 12 47  1  0
 12 48  1  0
 14 49  1  0
 15 50  1  0
 16 51  1  0
 17 52  1  0
 19 53  1  0
 19 54  1  0
 23 55  1  0
 23 56  1  0
 24 57  1  0
 24 58  1  0
 26 59  1  0
 27 60  1  0
 28 61  1  0
 29 62  1  0
 31 63  1  0
 31 64  1  0
 33 65  1  0
 33 66  1  0
 34 67  1  0
 34 68  1  0
M  END
>  <smiles>  (32) 
CCNC1CN(c2nc(N3CCc4ccccc4C3)nc(N3CCc4ccccc4C3)n2)CCO1

>  <score_type>  (32) 
oracle

>  <origin>  (32) 
autodockgpu

>  <m_score__min__energy>  (32) 
-10.48

>  <m_primary>  (32) 
energy

>  <rmsd>  (32) 
9.018231969189321

>  <m_score__min__rmsd>  (32) 
9.018231969189321

>  <meeko>  (32) 
{"free_energy": -9.56, "intermolecular_energy": -11.05, "internal_energy": -0.97, "cluster_size": 47, "cluster_id": 1, "rank_in_cluster": 46}

>  <energy>  (32) 
-9.86

>  <cluster_rmsd>  (32) 
1.47

>  <cluster>  (32) 
1

$$$$

     RDKit          3D

 68 73  0  0  0  0  0  0  0  0999 V2000
  143.9600   76.3610  216.3320 C   0  0  0  0  0  0  0  0  0  0  0  0
  143.6270   75.0130  216.8990 C   0  0  0  0  0  0  0  0  0  0  0  0
  144.7970   74.2020  217.0560 N   0  0  0  0  0  0  0  0  0  0  0  0
  144.5800   72.9890  217.8030 C   0  0  2  0  0  0  0  0  0  0  0  0
  143.3060   73.1290  218.5670 C   0  0  0  0  0  0  0  0  0  0  0  0
  143.4170   72.8560  219.9790 N   0  0  0  0  0  0  0  0  0  0  0  0
  142.2970   73.1850  220.8060 C   0  0  0  0  0  0  0  0  0  0  0  0
  141.7230   72.2400  221.6010 N   0  0  0  0  0  0  0  0  0  0  0  0
  140.6770   72.4940  222.3940 C   0  0  0  0  0  0  0  0  0  0  0  0
  140.1650   71.4110  223.1810 N   0  0  0  0  0  0  0  0  0  0  0  0
  139.6080   70.2690  222.4880 C   0  0  0  0  0  0  0  0  0  0  0  0
  138.6440   69.5390  223.4180 C   0  0  0  0  0  0  0  0  0  0  0  0
  139.4760   69.1050  224.5840 C   0  0  0  0  0  0  0  0  0  0  0  0
  139.4670   67.8040  225.0380 C   0  0  0  0  0  0  0  0  0  0  0  0
  140.2560   67.4700  226.1160 C   0  0  0  0  0  0  0  0  0  0  0  0
  141.0340   68.4440  226.7130 C   0  0  0  0  0  0  0  0  0  0  0  0
  141.0280   69.7350  226.2440 C   0  0  0  0  0  0  0  0  0  0  0  0
  140.2520   70.0970  225.1700 C   0  0  0  0  0  0  0  0  0  0  0  0
  140.2270   71.5030  224.6350 C   0  0  0  0  0  0  0  0  0  0  0  0
  140.1590   73.7200  222.4190 N   0  0  0  0  0  0  0  0  0  0  0  0
  140.7200   74.6750  221.6320 C   0  0  0  0  0  0  0  0  0  0  0  0
  140.1970   76.0200  221.6210 N   0  0  0  0  0  0  0  0  0  0  0  0
  138.8070   76.2870  221.3080 C   0  0  0  0  0  0  0  0  0  0  0  0
  138.1630   76.9720  222.4940 C   0  0  0  0  0  0  0  0  0  0  0  0
  138.9410   78.2230  222.7230 C   0  0  0  0  0  0  0  0  0  0  0  0
  138.2630   79.3180  223.2120 C   0  0  0  0  0  0  0  0  0  0  0  0
  138.9030   80.5260  223.4580 C   0  0  0  0  0  0  0  0  0  0  0  0
  140.2630   80.5870  223.1880 C   0  0  0  0  0  0  0  0  0  0  0  0
  140.9350   79.4680  222.6940 C   0  0  0  0  0  0  0  0  0  0  0  0
  140.2960   78.2870  222.4560 C   0  0  0  0  0  0  0  0  0  0  0  0
  141.0680   77.1340  221.9300 C   0  0  0  0  0  0  0  0  0  0  0  0
  141.7730   74.4160  220.8350 N   0  0  0  0  0  0  0  0  0  0  0  0
  144.5900   72.2730  220.6000 C   0  0  0  0  0  0  0  0  0  0  0  0
  145.4550   71.7150  219.5150 C   0  0  0  0  0  0  0  0  0  0  0  0
  145.6830   72.7180  218.5760 O   0  0  0  0  0  0  0  0  0  0  0  0
  144.1354   77.0712  217.1535 H   0  0  0  0  0  0  0  0  0  0  0  0
  144.8663   76.2848  215.7133 H   0  0  0  0  0  0  0  0  0  0  0  0
  143.1225   76.7156  215.7133 H   0  0  0  0  0  0  0  0  0  0  0  0
  143.1513   75.1470  217.8817 H   0  0  0  0  0  0  0  0  0  0  0  0
  142.9478   74.5042  216.1991 H   0  0  0  0  0  0  0  0  0  0  0  0
  145.6610   74.7110  217.2750 H   0  0  0  0  0  0  0  0  0  0  0  0
  144.4622   72.1155  217.1449 H   0  0  0  0  0  0  0  0  0  0  0  0
  142.9448   74.1608  218.4448 H   0  0  0  0  0  0  0  0  0  0  0  0
  142.6145   72.3773  218.1586 H   0  0  0  0  0  0  0  0  0  0  0  0
  139.0680   70.6097  221.5923 H   0  0  0  0  0  0  0  0  0  0  0  0
  140.4180   69.5882  222.1871 H   0  0  0  0  0  0  0  0  0  0  0  0
  137.8404   70.2140  223.7476 H   0  0  0  0  0  0  0  0  0  0  0  0
  138.1583   68.6870  222.9199 H   0  0  0  0  0  0  0  0  0  0  0  0
  138.8400   67.0449  224.5474 H   0  0  0  0  0  0  0  0  0  0  0  0
  140.2670   66.4386  226.4981 H   0  0  0  0  0  0  0  0  0  0  0  0
  141.6659   68.1820  227.5745 H   0  0  0  0  0  0  0  0  0  0  0  0
  141.6555   70.4921  226.7370 H   0  0  0  0  0  0  0  0  0  0  0  0
  139.3436   72.0357  225.0168 H   0  0  0  0  0  0  0  0  0  0  0  0
  141.1223   72.0573  224.9530 H   0  0  0  0  0  0  0  0  0  0  0  0
  138.7457   76.9407  220.4254 H   0  0  0  0  0  0  0  0  0  0  0  0
  138.2845   75.3434  221.0923 H   0  0  0  0  0  0  0  0  0  0  0  0
  137.1125   77.2112  222.2723 H   0  0  0  0  0  0  0  0  0  0  0  0
  138.1712   76.3256  223.3840 H   0  0  0  0  0  0  0  0  0  0  0  0
  137.1849   79.2333  223.4132 H   0  0  0  0  0  0  0  0  0  0  0  0
  138.3559   81.3962  223.8496 H   0  0  0  0  0  0  0  0  0  0  0  0
  140.8143   81.5224  223.3643 H   0  0  0  0  0  0  0  0  0  0  0  0
  142.0135   79.5409  222.4903 H   0  0  0  0  0  0  0  0  0  0  0  0
  141.5951   77.4422  221.0150 H   0  0  0  0  0  0  0  0  0  0  0  0
  141.7848   76.8134  222.7003 H   0  0  0  0  0  0  0  0  0  0  0  0
  145.1407   73.0452  221.1572 H   0  0  0  0  0  0  0  0  0  0  0  0
  144.2970   71.4792  221.3029 H   0  0  0  0  0  0  0  0  0  0  0  0
  146.4125   71.3784  219.9392 H   0  0  0  0  0  0  0  0  0  0  0  0
  144.9582   70.8569  219.0388 H   0  0  0  0  0  0  0  0  0  0  0  0
  1  2  1  0
  2  3  1  0
  3  4  1  0
  4  5  1  0
  5  6  1  0
  6  7  1  0
  7  8  2  0
  8  9  1  0
  9 10  1  0
 10 11  1  0
 11 12  1  0
 12 13  1  0
 13 14  2  0
 14 15  1  0
 15 16  2  0
 16 17  1  0
 17 18  2  0
 18 19  1  0
  9 20  2  0
 20 21  1  0
 21 22  1  0
 22 23  1  0
 23 24  1  0
 24 25  1  0
 25 26  2  0
 26 27  1  0
 27 28  2  0
 28 29  1  0
 29 30  2  0
 30 31  1  0
 21 32  2  0
  6 33  1  0
 33 34  1  0
 34 35  1  0
 35  4  1  0
 32  7  1  0
 19 10  1  0
 31 22  1  0
 18 13  1  0
 30 25  1  0
  1 36  1  0
  1 37  1  0
  1 38  1  0
  2 39  1  0
  2 40  1  0
  3 41  1  0
  4 42  1  6
  5 43  1  0
  5 44  1  0
 11 45  1  0
 11 46  1  0
 12 47  1  0
 12 48  1  0
 14 49  1  0
 15 50  1  0
 16 51  1  0
 17 52  1  0
 19 53  1  0
 19 54  1  0
 23 55  1  0
 23 56  1  0
 24 57  1  0
 24 58  1  0
 26 59  1  0
 27 60  1  0
 28 61  1  0
 29 62  1  0
 31 63  1  0
 31 64  1  0
 33 65  1  0
 33 66  1  0
 34 67  1  0
 34 68  1  0
M  END
>  <smiles>  (33) 
CCNC1CN(c2nc(N3CCc4ccccc4C3)nc(N3CCc4ccccc4C3)n2)CCO1

>  <score_type>  (33) 
oracle

>  <origin>  (33) 
autodockgpu

>  <m_score__min__energy>  (33) 
-10.48

>  <m_primary>  (33) 
energy

>  <rmsd>  (33) 
6.6393139011589675

>  <m_score__min__rmsd>  (33) 
6.6393139011589675

>  <meeko>  (33) 
{"free_energy": -9.84, "intermolecular_energy": -11.33, "internal_energy": -1.03, "cluster_size": 47, "cluster_id": 1, "rank_in_cluster": 35}

>  <energy>  (33) 
-9.84

>  <cluster_rmsd>  (33) 
0.84

>  <cluster>  (33) 
1

$$$$

     RDKit          3D

 68 73  0  0  0  0  0  0  0  0999 V2000
  145.6280   68.2620  219.3360 C   0  0  0  0  0  0  0  0  0  0  0  0
  144.3970   68.9010  218.7630 C   0  0  0  0  0  0  0  0  0  0  0  0
  144.6700   70.2110  218.2540 N   0  0  0  0  0  0  0  0  0  0  0  0
  145.1000   71.1560  219.2520 C   0  0  2  0  0  0  0  0  0  0  0  0
  143.9520   71.4270  220.1670 C   0  0  0  0  0  0  0  0  0  0  0  0
  143.6390   72.8250  220.3430 N   0  0  0  0  0  0  0  0  0  0  0  0
  142.4230   73.1500  221.0210 C   0  0  0  0  0  0  0  0  0  0  0  0
  141.7750   72.2130  221.7680 N   0  0  0  0  0  0  0  0  0  0  0  0
  140.6380   72.4640  222.4230 C   0  0  0  0  0  0  0  0  0  0  0  0
  140.0560   71.3900  223.1740 N   0  0  0  0  0  0  0  0  0  0  0  0
  139.5760   70.2330  222.4480 C   0  0  0  0  0  0  0  0  0  0  0  0
  138.5280   69.5120  223.2900 C   0  0  0  0  0  0  0  0  0  0  0  0
  139.2430   69.1010  224.5390 C   0  0  0  0  0  0  0  0  0  0  0  0
  139.1950   67.8080  225.0110 C   0  0  0  0  0  0  0  0  0  0  0  0
  139.8760   67.4960  226.1670 C   0  0  0  0  0  0  0  0  0  0  0  0
  140.5860   68.4840  226.8220 C   0  0  0  0  0  0  0  0  0  0  0  0
  140.6210   69.7680  226.3340 C   0  0  0  0  0  0  0  0  0  0  0  0
  139.9520   70.1080  225.1820 C   0  0  0  0  0  0  0  0  0  0  0  0
  139.9730   71.5050  224.6250 C   0  0  0  0  0  0  0  0  0  0  0  0
  140.0970   73.6780  222.3520 N   0  0  0  0  0  0  0  0  0  0  0  0
  140.7300   74.6250  221.6110 C   0  0  0  0  0  0  0  0  0  0  0  0
  140.1860   75.9580  221.5010 N   0  0  0  0  0  0  0  0  0  0  0  0
  138.7570   76.1860  221.4340 C   0  0  0  0  0  0  0  0  0  0  0  0
  138.3450   77.0500  222.6060 C   0  0  0  0  0  0  0  0  0  0  0  0
  139.1270   78.3150  222.4830 C   0  0  0  0  0  0  0  0  0  0  0  0
  138.5350   79.4770  222.9250 C   0  0  0  0  0  0  0  0  0  0  0  0
  139.1840   80.7030  222.8530 C   0  0  0  0  0  0  0  0  0  0  0  0
  140.4630   80.7090  222.3120 C   0  0  0  0  0  0  0  0  0  0  0  0
  141.0480   79.5220  221.8690 C   0  0  0  0  0  0  0  0  0  0  0  0
  140.4000   78.3240  221.9450 C   0  0  0  0  0  0  0  0  0  0  0  0
  141.0770   77.0970  221.4570 C   0  0  0  0  0  0  0  0  0  0  0  0
  141.8750   74.3690  220.9530 N   0  0  0  0  0  0  0  0  0  0  0  0
  144.4810   73.9070  219.8730 C   0  0  0  0  0  0  0  0  0  0  0  0
  145.8160   73.3320  219.5220 C   0  0  0  0  0  0  0  0  0  0  0  0
  145.6190   72.2710  218.6410 O   0  0  0  0  0  0  0  0  0  0  0  0
  145.5773   68.2883  220.4345 H   0  0  0  0  0  0  0  0  0  0  0  0
  145.6907   67.2175  218.9967 H   0  0  0  0  0  0  0  0  0  0  0  0
  146.5183   68.8118  218.9967 H   0  0  0  0  0  0  0  0  0  0  0  0
  144.0168   68.2723  217.9444 H   0  0  0  0  0  0  0  0  0  0  0  0
  143.6519   68.9932  219.5670 H   0  0  0  0  0  0  0  0  0  0  0  0
  143.9960   70.5660  217.5650 H   0  0  0  0  0  0  0  0  0  0  0  0
  145.9157   70.7571  219.8729 H   0  0  0  0  0  0  0  0  0  0  0  0
  143.0623   70.9253  219.7586 H   0  0  0  0  0  0  0  0  0  0  0  0
  144.2465   71.0472  221.1565 H   0  0  0  0  0  0  0  0  0  0  0  0
  139.1260   70.5557  221.4975 H   0  0  0  0  0  0  0  0  0  0  0  0
  140.4151   69.5527  222.2402 H   0  0  0  0  0  0  0  0  0  0  0  0
  137.6931   70.1874  223.5280 H   0  0  0  0  0  0  0  0  0  0  0  0
  138.0972   68.6496  222.7602 H   0  0  0  0  0  0  0  0  0  0  0  0
  138.6225   67.0374  224.4739 H   0  0  0  0  0  0  0  0  0  0  0  0
  139.8548   66.4706  226.5647 H   0  0  0  0  0  0  0  0  0  0  0  0
  141.1303   68.2395  227.7461 H   0  0  0  0  0  0  0  0  0  0  0  0
  141.1937   70.5365  226.8739 H   0  0  0  0  0  0  0  0  0  0  0  0
  139.0533   72.0376  224.9087 H   0  0  0  0  0  0  0  0  0  0  0  0
  140.8294   72.0703  225.0213 H   0  0  0  0  0  0  0  0  0  0  0  0
  138.5080   76.6972  220.4924 H   0  0  0  0  0  0  0  0  0  0  0  0
  138.2232   75.2250  221.4726 H   0  0  0  0  0  0  0  0  0  0  0  0
  137.2665   77.2622  222.5633 H   0  0  0  0  0  0  0  0  0  0  0  0
  138.5420   76.5475  223.5645 H   0  0  0  0  0  0  0  0  0  0  0  0
  137.5200   79.4332  223.3468 H   0  0  0  0  0  0  0  0  0  0  0  0
  138.7062   81.6278  223.2086 H   0  0  0  0  0  0  0  0  0  0  0  0
  141.0183   81.6552  222.2322 H   0  0  0  0  0  0  0  0  0  0  0  0
  142.0628   79.5533  221.4456 H   0  0  0  0  0  0  0  0  0  0  0  0
  141.4053   77.2564  220.4193 H   0  0  0  0  0  0  0  0  0  0  0  0
  141.9394   76.8913  222.1081 H   0  0  0  0  0  0  0  0  0  0  0  0
  144.0296   74.3729  218.9847 H   0  0  0  0  0  0  0  0  0  0  0  0
  144.5880   74.6754  220.6528 H   0  0  0  0  0  0  0  0  0  0  0  0
  146.4381   74.1023  219.0429 H   0  0  0  0  0  0  0  0  0  0  0  0
  146.3268   72.9797  220.4303 H   0  0  0  0  0  0  0  0  0  0  0  0
  1  2  1  0
  2  3  1  0
  3  4  1  0
  4  5  1  0
  5  6  1  0
  6  7  1  0
  7  8  2  0
  8  9  1  0
  9 10  1  0
 10 11  1  0
 11 12  1  0
 12 13  1  0
 13 14  2  0
 14 15  1  0
 15 16  2  0
 16 17  1  0
 17 18  2  0
 18 19  1  0
  9 20  2  0
 20 21  1  0
 21 22  1  0
 22 23  1  0
 23 24  1  0
 24 25  1  0
 25 26  2  0
 26 27  1  0
 27 28  2  0
 28 29  1  0
 29 30  2  0
 30 31  1  0
 21 32  2  0
  6 33  1  0
 33 34  1  0
 34 35  1  0
 35  4  1  0
 32  7  1  0
 19 10  1  0
 31 22  1  0
 18 13  1  0
 30 25  1  0
  1 36  1  0
  1 37  1  0
  1 38  1  0
  2 39  1  0
  2 40  1  0
  3 41  1  0
  4 42  1  1
  5 43  1  0
  5 44  1  0
 11 45  1  0
 11 46  1  0
 12 47  1  0
 12 48  1  0
 14 49  1  0
 15 50  1  0
 16 51  1  0
 17 52  1  0
 19 53  1  0
 19 54  1  0
 23 55  1  0
 23 56  1  0
 24 57  1  0
 24 58  1  0
 26 59  1  0
 27 60  1  0
 28 61  1  0
 29 62  1  0
 31 63  1  0
 31 64  1  0
 33 65  1  0
 33 66  1  0
 34 67  1  0
 34 68  1  0
M  END
>  <smiles>  (34) 
CCNC1CN(c2nc(N3CCc4ccccc4C3)nc(N3CCc4ccccc4C3)n2)CCO1

>  <score_type>  (34) 
oracle

>  <origin>  (34) 
autodockgpu

>  <m_score__min__energy>  (34) 
-10.48

>  <m_primary>  (34) 
energy

>  <rmsd>  (34) 
8.983360345150768

>  <m_score__min__rmsd>  (34) 
8.983360345150768

>  <meeko>  (34) 
{"free_energy": -9.56, "intermolecular_energy": -11.06, "internal_energy": -1.0, "cluster_size": 47, "cluster_id": 1, "rank_in_cluster": 45}

>  <energy>  (34) 
-9.84

>  <cluster_rmsd>  (34) 
0.72

>  <cluster>  (34) 
1

$$$$

     RDKit          3D

 68 73  0  0  0  0  0  0  0  0999 V2000
  143.4580   76.2550  217.4360 C   0  0  0  0  0  0  0  0  0  0  0  0
  143.6900   75.0040  216.6400 C   0  0  0  0  0  0  0  0  0  0  0  0
  144.8290   74.2790  217.1150 N   0  0  0  0  0  0  0  0  0  0  0  0
  144.5100   73.0270  217.7530 C   0  0  2  0  0  0  0  0  0  0  0  0
  143.2490   73.2060  218.5310 C   0  0  0  0  0  0  0  0  0  0  0  0
  143.3320   72.8010  219.9140 N   0  0  0  0  0  0  0  0  0  0  0  0
  142.2410   73.1480  220.7710 C   0  0  0  0  0  0  0  0  0  0  0  0
  141.6770   72.2150  221.5870 N   0  0  0  0  0  0  0  0  0  0  0  0
  140.6580   72.4860  222.4070 C   0  0  0  0  0  0  0  0  0  0  0  0
  140.1550   71.4130  223.2140 N   0  0  0  0  0  0  0  0  0  0  0  0
  139.5940   70.2600  222.5420 C   0  0  0  0  0  0  0  0  0  0  0  0
  138.6390   69.5420  223.4900 C   0  0  0  0  0  0  0  0  0  0  0  0
  139.4820   69.1250  224.6550 C   0  0  0  0  0  0  0  0  0  0  0  0
  139.4790   67.8300  225.1260 C   0  0  0  0  0  0  0  0  0  0  0  0
  140.2780   67.5130  226.2020 C   0  0  0  0  0  0  0  0  0  0  0  0
  141.0600   68.4960  226.7790 C   0  0  0  0  0  0  0  0  0  0  0  0
  141.0480   69.7800  226.2920 C   0  0  0  0  0  0  0  0  0  0  0  0
  140.2620   70.1270  225.2200 C   0  0  0  0  0  0  0  0  0  0  0  0
  140.2290   71.5250  224.6660 C   0  0  0  0  0  0  0  0  0  0  0  0
  140.1570   73.7180  222.4410 N   0  0  0  0  0  0  0  0  0  0  0  0
  140.7070   74.6620  221.6340 C   0  0  0  0  0  0  0  0  0  0  0  0
  140.2010   76.0140  221.6320 N   0  0  0  0  0  0  0  0  0  0  0  0
  138.7860   76.2900  221.4860 C   0  0  0  0  0  0  0  0  0  0  0  0
  138.3040   77.0330  222.7120 C   0  0  0  0  0  0  0  0  0  0  0  0
  139.1190   78.2810  222.7880 C   0  0  0  0  0  0  0  0  0  0  0  0
  138.5200   79.4050  223.3110 C   0  0  0  0  0  0  0  0  0  0  0  0
  139.1980   80.6120  223.4230 C   0  0  0  0  0  0  0  0  0  0  0  0
  140.5140   80.6400  222.9820 C   0  0  0  0  0  0  0  0  0  0  0  0
  141.1060   79.4910  222.4550 C   0  0  0  0  0  0  0  0  0  0  0  0
  140.4300   78.3110  222.3500 C   0  0  0  0  0  0  0  0  0  0  0  0
  141.1170   77.1260  221.7800 C   0  0  0  0  0  0  0  0  0  0  0  0
  141.7330   74.3860  220.8090 N   0  0  0  0  0  0  0  0  0  0  0  0
  144.4500   72.0710  220.4770 C   0  0  0  0  0  0  0  0  0  0  0  0
  145.2700   71.5400  219.3440 C   0  0  0  0  0  0  0  0  0  0  0  0
  145.5840   72.5990  218.4950 O   0  0  0  0  0  0  0  0  0  0  0  0
  143.5016   76.0198  218.5097 H   0  0  0  0  0  0  0  0  0  0  0  0
  144.2342   76.9948  217.1909 H   0  0  0  0  0  0  0  0  0  0  0  0
  142.4681   76.6673  217.1909 H   0  0  0  0  0  0  0  0  0  0  0  0
  142.8005   74.3616  216.7178 H   0  0  0  0  0  0  0  0  0  0  0  0
  143.8776   75.2918  215.5950 H   0  0  0  0  0  0  0  0  0  0  0  0
  145.5500   74.8440  217.5780 H   0  0  0  0  0  0  0  0  0  0  0  0
  144.3230   72.2267  217.0219 H   0  0  0  0  0  0  0  0  0  0  0  0
  142.9763   74.2712  218.5015 H   0  0  0  0  0  0  0  0  0  0  0  0
  142.4980   72.5544  218.0605 H   0  0  0  0  0  0  0  0  0  0  0  0
  139.0461   70.5870  221.6459 H   0  0  0  0  0  0  0  0  0  0  0  0
  140.4026   69.5762  222.2444 H   0  0  0  0  0  0  0  0  0  0  0  0
  137.8375   70.2206  223.8172 H   0  0  0  0  0  0  0  0  0  0  0  0
  138.1500   68.6827  223.0079 H   0  0  0  0  0  0  0  0  0  0  0  0
  138.8496   67.0631  224.6510 H   0  0  0  0  0  0  0  0  0  0  0  0
  140.2937   66.4871  226.5986 H   0  0  0  0  0  0  0  0  0  0  0  0
  141.6996   68.2468  227.6386 H   0  0  0  0  0  0  0  0  0  0  0  0
  141.6791   70.5444  226.7689 H   0  0  0  0  0  0  0  0  0  0  0  0
  139.3475   72.0608  225.0479 H   0  0  0  0  0  0  0  0  0  0  0  0
  141.1256   72.0857  224.9687 H   0  0  0  0  0  0  0  0  0  0  0  0
  138.6205   76.9075  220.5909 H   0  0  0  0  0  0  0  0  0  0  0  0
  138.2308   75.3464  221.3791 H   0  0  0  0  0  0  0  0  0  0  0  0
  137.2366   77.2798  222.6135 H   0  0  0  0  0  0  0  0  0  0  0  0
  138.4171   76.4238  223.6209 H   0  0  0  0  0  0  0  0  0  0  0  0
  137.4751   79.3454  223.6497 H   0  0  0  0  0  0  0  0  0  0  0  0
  138.7137   81.5061  223.8425 H   0  0  0  0  0  0  0  0  0  0  0  0
  141.0934   81.5727  223.0482 H   0  0  0  0  0  0  0  0  0  0  0  0
  142.1506   79.5387  222.1136 H   0  0  0  0  0  0  0  0  0  0  0  0
  141.5264   77.3881  220.7932 H   0  0  0  0  0  0  0  0  0  0  0  0
  141.9233   76.8260  222.4655 H   0  0  0  0  0  0  0  0  0  0  0  0
  145.0608   72.7432  221.0975 H   0  0  0  0  0  0  0  0  0  0  0  0
  144.0896   71.2458  221.1088 H   0  0  0  0  0  0  0  0  0  0  0  0
  146.1947   71.0894  219.7337 H   0  0  0  0  0  0  0  0  0  0  0  0
  144.7054   70.7709  218.7965 H   0  0  0  0  0  0  0  0  0  0  0  0
  1  2  1  0
  2  3  1  0
  3  4  1  0
  4  5  1  0
  5  6  1  0
  6  7  1  0
  7  8  2  0
  8  9  1  0
  9 10  1  0
 10 11  1  0
 11 12  1  0
 12 13  1  0
 13 14  2  0
 14 15  1  0
 15 16  2  0
 16 17  1  0
 17 18  2  0
 18 19  1  0
  9 20  2  0
 20 21  1  0
 21 22  1  0
 22 23  1  0
 23 24  1  0
 24 25  1  0
 25 26  2  0
 26 27  1  0
 27 28  2  0
 28 29  1  0
 29 30  2  0
 30 31  1  0
 21 32  2  0
  6 33  1  0
 33 34  1  0
 34 35  1  0
 35  4  1  0
 32  7  1  0
 19 10  1  0
 31 22  1  0
 18 13  1  0
 30 25  1  0
  1 36  1  0
  1 37  1  0
  1 38  1  0
  2 39  1  0
  2 40  1  0
  3 41  1  0
  4 42  1  6
  5 43  1  0
  5 44  1  0
 11 45  1  0
 11 46  1  0
 12 47  1  0
 12 48  1  0
 14 49  1  0
 15 50  1  0
 16 51  1  0
 17 52  1  0
 19 53  1  0
 19 54  1  0
 23 55  1  0
 23 56  1  0
 24 57  1  0
 24 58  1  0
 26 59  1  0
 27 60  1  0
 28 61  1  0
 29 62  1  0
 31 63  1  0
 31 64  1  0
 33 65  1  0
 33 66  1  0
 34 67  1  0
 34 68  1  0
M  END
>  <smiles>  (35) 
CCNC1CN(c2nc(N3CCc4ccccc4C3)nc(N3CCc4ccccc4C3)n2)CCO1

>  <score_type>  (35) 
oracle

>  <origin>  (35) 
autodockgpu

>  <m_score__min__energy>  (35) 
-10.48

>  <m_primary>  (35) 
energy

>  <rmsd>  (35) 
6.404868955568739

>  <m_score__min__rmsd>  (35) 
6.404868955568739

>  <meeko>  (35) 
{"free_energy": -9.86, "intermolecular_energy": -11.35, "internal_energy": -1.08, "cluster_size": 47, "cluster_id": 1, "rank_in_cluster": 32}

>  <energy>  (35) 
-9.84

>  <cluster_rmsd>  (35) 
1.54

>  <cluster>  (35) 
1

$$$$

     RDKit          3D

 68 73  0  0  0  0  0  0  0  0999 V2000
  142.5620   80.3730  223.5940 C   0  0  0  0  0  0  0  0  0  0  0  0
  141.6860   79.1590  223.4950 C   0  0  0  0  0  0  0  0  0  0  0  0
  141.7340   78.5780  222.1870 N   0  0  0  0  0  0  0  0  0  0  0  0
  140.5480   77.8470  221.8210 C   0  0  2  0  0  0  0  0  0  0  0  0
  140.7040   76.4370  222.2840 C   0  0  0  0  0  0  0  0  0  0  0  0
  140.4850   75.4400  221.2650 N   0  0  0  0  0  0  0  0  0  0  0  0
  140.8330   74.0880  221.5760 C   0  0  0  0  0  0  0  0  0  0  0  0
  141.7260   73.4080  220.8060 N   0  0  0  0  0  0  0  0  0  0  0  0
  142.0870   72.1460  221.0530 C   0  0  0  0  0  0  0  0  0  0  0  0
  143.0380   71.5430  220.1650 N   0  0  0  0  0  0  0  0  0  0  0  0
  144.3370   72.1670  220.0330 C   0  0  0  0  0  0  0  0  0  0  0  0
  144.9540   71.7630  218.6980 C   0  0  0  0  0  0  0  0  0  0  0  0
  145.0800   70.2720  218.7580 C   0  0  0  0  0  0  0  0  0  0  0  0
  146.2640   69.6310  218.4660 C   0  0  0  0  0  0  0  0  0  0  0  0
  146.3110   68.2570  218.5410 C   0  0  0  0  0  0  0  0  0  0  0  0
  145.1760   67.5580  218.9060 C   0  0  0  0  0  0  0  0  0  0  0  0
  144.0060   68.2180  219.1940 C   0  0  0  0  0  0  0  0  0  0  0  0
  143.9280   69.5880  219.1280 C   0  0  0  0  0  0  0  0  0  0  0  0
  142.6610   70.3370  219.4380 C   0  0  0  0  0  0  0  0  0  0  0  0
  141.5590   71.5070  222.0940 N   0  0  0  0  0  0  0  0  0  0  0  0
  140.6650   72.1700  222.8740 C   0  0  0  0  0  0  0  0  0  0  0  0
  140.0620   71.5240  224.0150 N   0  0  0  0  0  0  0  0  0  0  0  0
  138.8350   70.7640  223.8890 C   0  0  0  0  0  0  0  0  0  0  0  0
  139.1000   69.3350  224.3130 C   0  0  0  0  0  0  0  0  0  0  0  0
  139.5820   69.4040  225.7230 C   0  0  0  0  0  0  0  0  0  0  0  0
  139.2650   68.3560  226.5590 C   0  0  0  0  0  0  0  0  0  0  0  0
  139.6690   68.3300  227.8880 C   0  0  0  0  0  0  0  0  0  0  0  0
  140.4110   69.4110  228.3430 C   0  0  0  0  0  0  0  0  0  0  0  0
  140.7240   70.4650  227.4820 C   0  0  0  0  0  0  0  0  0  0  0  0
  140.3210   70.4790  226.1790 C   0  0  0  0  0  0  0  0  0  0  0  0
  140.6870   71.6290  225.3160 C   0  0  0  0  0  0  0  0  0  0  0  0
  140.3040   73.4410  222.6220 N   0  0  0  0  0  0  0  0  0  0  0  0
  139.9380   75.7300  219.9540 C   0  0  0  0  0  0  0  0  0  0  0  0
  139.3490   77.1040  219.9960 C   0  0  0  0  0  0  0  0  0  0  0  0
  140.3180   77.9830  220.4730 O   0  0  0  0  0  0  0  0  0  0  0  0
  142.7360   80.6142  224.6530 H   0  0  0  0  0  0  0  0  0  0  0  0
  143.5244   80.1719  223.1008 H   0  0  0  0  0  0  0  0  0  0  0  0
  142.0678   81.2230  223.1008 H   0  0  0  0  0  0  0  0  0  0  0  0
  142.0253   78.4134  224.2292 H   0  0  0  0  0  0  0  0  0  0  0  0
  140.6492   79.4662  223.6965 H   0  0  0  0  0  0  0  0  0  0  0  0
  142.6250   78.1370  221.9320 H   0  0  0  0  0  0  0  0  0  0  0  0
  139.6493   78.2469  222.3133 H   0  0  0  0  0  0  0  0  0  0  0  0
  141.7270   76.3141  222.6693 H   0  0  0  0  0  0  0  0  0  0  0  0
  139.9307   76.2741  223.0492 H   0  0  0  0  0  0  0  0  0  0  0  0
  144.2254   73.2607  220.0708 H   0  0  0  0  0  0  0  0  0  0  0  0
  144.9896   71.8398  220.8559 H   0  0  0  0  0  0  0  0  0  0  0  0
  144.3004   72.0615  217.8651 H   0  0  0  0  0  0  0  0  0  0  0  0
  145.9254   72.2509  218.5300 H   0  0  0  0  0  0  0  0  0  0  0  0
  147.1560   70.2067  218.1781 H   0  0  0  0  0  0  0  0  0  0  0  0
  147.2436   67.7204  218.3124 H   0  0  0  0  0  0  0  0  0  0  0  0
  145.2098   66.4602  218.9666 H   0  0  0  0  0  0  0  0  0  0  0  0
  143.1161   67.6394  219.4825 H   0  0  0  0  0  0  0  0  0  0  0  0
  142.1446   70.6059  218.5047 H   0  0  0  0  0  0  0  0  0  0  0  0
  141.9788   69.7172  220.0384 H   0  0  0  0  0  0  0  0  0  0  0  0
  138.0601   71.2034  224.5344 H   0  0  0  0  0  0  0  0  0  0  0  0
  138.4876   70.7857  222.8455 H   0  0  0  0  0  0  0  0  0  0  0  0
  138.1756   68.7418  224.2543 H   0  0  0  0  0  0  0  0  0  0  0  0
  139.8408   68.8526  223.6584 H   0  0  0  0  0  0  0  0  0  0  0  0
  138.6753   67.5160  226.1631 H   0  0  0  0  0  0  0  0  0  0  0  0
  139.4122   67.4900  228.5502 H   0  0  0  0  0  0  0  0  0  0  0  0
  140.7545   69.4377  229.3877 H   0  0  0  0  0  0  0  0  0  0  0  0
  141.3138   71.3101  227.8665 H   0  0  0  0  0  0  0  0  0  0  0  0
  140.3564   72.5603  225.7992 H   0  0  0  0  0  0  0  0  0  0  0  0
  141.7786   71.6302  225.1800 H   0  0  0  0  0  0  0  0  0  0  0  0
  140.7362   75.6884  219.1983 H   0  0  0  0  0  0  0  0  0  0  0  0
  139.1682   74.9908  219.6877 H   0  0  0  0  0  0  0  0  0  0  0  0
  139.0386   77.4062  218.9849 H   0  0  0  0  0  0  0  0  0  0  0  0
  138.4686   77.1179  220.6553 H   0  0  0  0  0  0  0  0  0  0  0  0
  1  2  1  0
  2  3  1  0
  3  4  1  0
  4  5  1  0
  5  6  1  0
  6  7  1  0
  7  8  2  0
  8  9  1  0
  9 10  1  0
 10 11  1  0
 11 12  1  0
 12 13  1  0
 13 14  2  0
 14 15  1  0
 15 16  2  0
 16 17  1  0
 17 18  2  0
 18 19  1  0
  9 20  2  0
 20 21  1  0
 21 22  1  0
 22 23  1  0
 23 24  1  0
 24 25  1  0
 25 26  2  0
 26 27  1  0
 27 28  2  0
 28 29  1  0
 29 30  2  0
 30 31  1  0
 21 32  2  0
  6 33  1  0
 33 34  1  0
 34 35  1  0
 35  4  1  0
 32  7  1  0
 19 10  1  0
 31 22  1  0
 18 13  1  0
 30 25  1  0
  1 36  1  0
  1 37  1  0
  1 38  1  0
  2 39  1  0
  2 40  1  0
  3 41  1  0
  4 42  1  1
  5 43  1  0
  5 44  1  0
 11 45  1  0
 11 46  1  0
 12 47  1  0
 12 48  1  0
 14 49  1  0
 15 50  1  0
 16 51  1  0
 17 52  1  0
 19 53  1  0
 19 54  1  0
 23 55  1  0
 23 56  1  0
 24 57  1  0
 24 58  1  0
 26 59  1  0
 27 60  1  0
 28 61  1  0
 29 62  1  0
 31 63  1  0
 31 64  1  0
 33 65  1  0
 33 66  1  0
 34 67  1  0
 34 68  1  0
M  END
>  <smiles>  (36) 
CCNC1CN(c2nc(N3CCc4ccccc4C3)nc(N3CCc4ccccc4C3)n2)CCO1

>  <score_type>  (36) 
oracle

>  <origin>  (36) 
autodockgpu

>  <m_score__min__energy>  (36) 
-10.48

>  <m_primary>  (36) 
energy

>  <rmsd>  (36) 
1.7600604721637272

>  <m_score__min__rmsd>  (36) 
1.7600604721637272

>  <meeko>  (36) 
{"free_energy": -9.7, "intermolecular_energy": -11.19, "internal_energy": -0.93, "cluster_size": 3, "cluster_id": 2, "rank_in_cluster": 1}

>  <energy>  (36) 
-9.83

>  <cluster_rmsd>  (36) 
0.73

>  <cluster>  (36) 
1

$$$$

     RDKit          3D

 68 73  0  0  0  0  0  0  0  0999 V2000
  143.6530   76.1570  217.0950 C   0  0  0  0  0  0  0  0  0  0  0  0
  143.8410   74.7960  216.4920 C   0  0  0  0  0  0  0  0  0  0  0  0
  145.0070   74.1460  217.0080 N   0  0  0  0  0  0  0  0  0  0  0  0
  144.7320   72.9570  217.7740 C   0  0  2  0  0  0  0  0  0  0  0  0
  143.4600   73.1660  218.5250 C   0  0  0  0  0  0  0  0  0  0  0  0
  143.5480   72.9130  219.9430 N   0  0  0  0  0  0  0  0  0  0  0  0
  142.4380   73.3050  220.7550 C   0  0  0  0  0  0  0  0  0  0  0  0
  141.8110   72.3980  221.5540 N   0  0  0  0  0  0  0  0  0  0  0  0
  140.7710   72.7110  222.3330 C   0  0  0  0  0  0  0  0  0  0  0  0
  140.2000   71.6630  223.1260 N   0  0  0  0  0  0  0  0  0  0  0  0
  139.5150   70.5870  222.4420 C   0  0  0  0  0  0  0  0  0  0  0  0
  138.5310   69.9280  223.4030 C   0  0  0  0  0  0  0  0  0  0  0  0
  139.3690   69.4000  224.5240 C   0  0  0  0  0  0  0  0  0  0  0  0
  139.2640   68.0970  224.9590 C   0  0  0  0  0  0  0  0  0  0  0  0
  140.0660   67.6750  225.9960 C   0  0  0  0  0  0  0  0  0  0  0  0
  140.9520   68.5660  226.5730 C   0  0  0  0  0  0  0  0  0  0  0  0
  141.0400   69.8610  226.1230 C   0  0  0  0  0  0  0  0  0  0  0  0
  140.2540   70.3100  225.0900 C   0  0  0  0  0  0  0  0  0  0  0  0
  140.3310   71.7220  224.5780 C   0  0  0  0  0  0  0  0  0  0  0  0
  140.3140   73.9610  222.3410 N   0  0  0  0  0  0  0  0  0  0  0  0
  140.9280   74.8790  221.5500 C   0  0  0  0  0  0  0  0  0  0  0  0
  140.4720   76.2480  221.5200 N   0  0  0  0  0  0  0  0  0  0  0  0
  139.0600   76.5720  221.5010 C   0  0  0  0  0  0  0  0  0  0  0  0
  138.7320   77.3990  222.7240 C   0  0  0  0  0  0  0  0  0  0  0  0
  139.5930   78.6150  222.6460 C   0  0  0  0  0  0  0  0  0  0  0  0
  139.0890   79.7890  223.1610 C   0  0  0  0  0  0  0  0  0  0  0  0
  139.8160   80.9720  223.1330 C   0  0  0  0  0  0  0  0  0  0  0  0
  141.0800   80.9230  222.5620 C   0  0  0  0  0  0  0  0  0  0  0  0
  141.5750   79.7250  222.0450 C   0  0  0  0  0  0  0  0  0  0  0  0
  140.8520   78.5700  222.0770 C   0  0  0  0  0  0  0  0  0  0  0  0
  141.4350   77.3280  221.5110 C   0  0  0  0  0  0  0  0  0  0  0  0
  141.9750   74.5600  220.7660 N   0  0  0  0  0  0  0  0  0  0  0  0
  144.6900   72.2900  220.5830 C   0  0  0  0  0  0  0  0  0  0  0  0
  145.5380   71.6760  219.5150 C   0  0  0  0  0  0  0  0  0  0  0  0
  145.8170   72.6510  218.5600 O   0  0  0  0  0  0  0  0  0  0  0  0
  143.6641   76.0767  218.1920 H   0  0  0  0  0  0  0  0  0  0  0  0
  144.4682   76.8189  216.7675 H   0  0  0  0  0  0  0  0  0  0  0  0
  142.6888   76.5731  216.7675 H   0  0  0  0  0  0  0  0  0  0  0  0
  142.9588   74.1798  216.7201 H   0  0  0  0  0  0  0  0  0  0  0  0
  143.9671   74.9161  215.4059 H   0  0  0  0  0  0  0  0  0  0  0  0
  145.7250   74.7690  217.3960 H   0  0  0  0  0  0  0  0  0  0  0  0
  144.5808   72.0779  217.1304 H   0  0  0  0  0  0  0  0  0  0  0  0
  143.1455   74.2104  218.3822 H   0  0  0  0  0  0  0  0  0  0  0  0
  142.7394   72.4381  218.1238 H   0  0  0  0  0  0  0  0  0  0  0  0
  138.9695   70.9899  221.5759 H   0  0  0  0  0  0  0  0  0  0  0  0
  140.2479   69.8433  222.0959 H   0  0  0  0  0  0  0  0  0  0  0  0
  137.8060   70.6654  223.7780 H   0  0  0  0  0  0  0  0  0  0  0  0
  137.9506   69.1317  222.9141 H   0  0  0  0  0  0  0  0  0  0  0  0
  138.5515   67.4052  224.4859 H   0  0  0  0  0  0  0  0  0  0  0  0
  140.0023   66.6395  226.3616 H   0  0  0  0  0  0  0  0  0  0  0  0
  141.5940   68.2340  227.4022 H   0  0  0  0  0  0  0  0  0  0  0  0
  141.7528   70.5508  226.5986 H   0  0  0  0  0  0  0  0  0  0  0  0
  139.5149   72.3229  225.0058 H   0  0  0  0  0  0  0  0  0  0  0  0
  141.2844   72.1896  224.8650 H   0  0  0  0  0  0  0  0  0  0  0  0
  138.8249   77.1462  220.5927 H   0  0  0  0  0  0  0  0  0  0  0  0
  138.4647   75.6470  221.5053 H   0  0  0  0  0  0  0  0  0  0  0  0
  137.6693   77.6830  222.7187 H   0  0  0  0  0  0  0  0  0  0  0  0
  138.9162   76.8356  223.6506 H   0  0  0  0  0  0  0  0  0  0  0  0
  138.0833   79.7895  223.6066 H   0  0  0  0  0  0  0  0  0  0  0  0
  139.4079   81.9066  223.5452 H   0  0  0  0  0  0  0  0  0  0  0  0
  141.6952   81.8337  222.5167 H   0  0  0  0  0  0  0  0  0  0  0  0
  142.5799   79.7124  221.5978 H   0  0  0  0  0  0  0  0  0  0  0  0
  141.7503   77.5192  220.4747 H   0  0  0  0  0  0  0  0  0  0  0  0
  142.2956   77.0332  222.1295 H   0  0  0  0  0  0  0  0  0  0  0  0
  145.2699   73.0469  221.1315 H   0  0  0  0  0  0  0  0  0  0  0  0
  144.3571   71.5218  221.2965 H   0  0  0  0  0  0  0  0  0  0  0  0
  146.4766   71.3057  219.9530 H   0  0  0  0  0  0  0  0  0  0  0  0
  145.0074   70.8322  219.0497 H   0  0  0  0  0  0  0  0  0  0  0  0
  1  2  1  0
  2  3  1  0
  3  4  1  0
  4  5  1  0
  5  6  1  0
  6  7  1  0
  7  8  2  0
  8  9  1  0
  9 10  1  0
 10 11  1  0
 11 12  1  0
 12 13  1  0
 13 14  2  0
 14 15  1  0
 15 16  2  0
 16 17  1  0
 17 18  2  0
 18 19  1  0
  9 20  2  0
 20 21  1  0
 21 22  1  0
 22 23  1  0
 23 24  1  0
 24 25  1  0
 25 26  2  0
 26 27  1  0
 27 28  2  0
 28 29  1  0
 29 30  2  0
 30 31  1  0
 21 32  2  0
  6 33  1  0
 33 34  1  0
 34 35  1  0
 35  4  1  0
 32  7  1  0
 19 10  1  0
 31 22  1  0
 18 13  1  0
 30 25  1  0
  1 36  1  0
  1 37  1  0
  1 38  1  0
  2 39  1  0
  2 40  1  0
  3 41  1  0
  4 42  1  6
  5 43  1  0
  5 44  1  0
 11 45  1  0
 11 46  1  0
 12 47  1  0
 12 48  1  0
 14 49  1  0
 15 50  1  0
 16 51  1  0
 17 52  1  0
 19 53  1  0
 19 54  1  0
 23 55  1  0
 23 56  1  0
 24 57  1  0
 24 58  1  0
 26 59  1  0
 27 60  1  0
 28 61  1  0
 29 62  1  0
 31 63  1  0
 31 64  1  0
 33 65  1  0
 33 66  1  0
 34 67  1  0
 34 68  1  0
M  END
>  <smiles>  (37) 
CCNC1CN(c2nc(N3CCc4ccccc4C3)nc(N3CCc4ccccc4C3)n2)CCO1

>  <score_type>  (37) 
oracle

>  <origin>  (37) 
autodockgpu

>  <m_score__min__energy>  (37) 
-10.48

>  <m_primary>  (37) 
energy

>  <rmsd>  (37) 
6.618439991016969

>  <m_score__min__rmsd>  (37) 
6.618439991016969

>  <meeko>  (37) 
{"free_energy": -9.92, "intermolecular_energy": -11.41, "internal_energy": -1.08, "cluster_size": 47, "cluster_id": 1, "rank_in_cluster": 22}

>  <energy>  (37) 
-9.82

>  <cluster_rmsd>  (37) 
1.61

>  <cluster>  (37) 
1

$$$$

     RDKit          3D

 68 73  0  0  0  0  0  0  0  0999 V2000
  143.6440   76.1260  217.2470 C   0  0  0  0  0  0  0  0  0  0  0  0
  143.7250   74.7560  216.6400 C   0  0  0  0  0  0  0  0  0  0  0  0
  144.9560   74.1040  216.9730 N   0  0  0  0  0  0  0  0  0  0  0  0
  144.8090   72.9880  217.8720 C   0  0  2  0  0  0  0  0  0  0  0  0
  143.5230   73.1470  218.6120 C   0  0  0  0  0  0  0  0  0  0  0  0
  143.6400   73.0680  220.0480 N   0  0  0  0  0  0  0  0  0  0  0  0
  142.4970   73.4320  220.8260 C   0  0  0  0  0  0  0  0  0  0  0  0
  141.8570   72.5050  221.5910 N   0  0  0  0  0  0  0  0  0  0  0  0
  140.7860   72.7920  222.3380 C   0  0  0  0  0  0  0  0  0  0  0  0
  140.2040   71.7240  223.0970 N   0  0  0  0  0  0  0  0  0  0  0  0
  139.5420   70.6580  222.3770 C   0  0  0  0  0  0  0  0  0  0  0  0
  138.5410   69.9740  223.3020 C   0  0  0  0  0  0  0  0  0  0  0  0
  139.3590   69.4290  224.4320 C   0  0  0  0  0  0  0  0  0  0  0  0
  139.2530   68.1170  224.8380 C   0  0  0  0  0  0  0  0  0  0  0  0
  140.0340   67.6800  225.8850 C   0  0  0  0  0  0  0  0  0  0  0  0
  140.9020   68.5650  226.4980 C   0  0  0  0  0  0  0  0  0  0  0  0
  140.9910   69.8690  226.0760 C   0  0  0  0  0  0  0  0  0  0  0  0
  140.2250   70.3330  225.0350 C   0  0  0  0  0  0  0  0  0  0  0  0
  140.3030   71.7560  224.5520 C   0  0  0  0  0  0  0  0  0  0  0  0
  140.3080   74.0340  222.3450 N   0  0  0  0  0  0  0  0  0  0  0  0
  140.9350   74.9720  221.5870 C   0  0  0  0  0  0  0  0  0  0  0  0
  140.4570   76.3340  221.5590 N   0  0  0  0  0  0  0  0  0  0  0  0
  139.0410   76.6350  221.4960 C   0  0  0  0  0  0  0  0  0  0  0  0
  138.6600   77.4430  222.7180 C   0  0  0  0  0  0  0  0  0  0  0  0
  139.5030   78.6730  222.6830 C   0  0  0  0  0  0  0  0  0  0  0  0
  138.9640   79.8320  223.1940 C   0  0  0  0  0  0  0  0  0  0  0  0
  139.6730   81.0270  223.2040 C   0  0  0  0  0  0  0  0  0  0  0  0
  140.9550   81.0050  222.6740 C   0  0  0  0  0  0  0  0  0  0  0  0
  141.4860   79.8210  222.1600 C   0  0  0  0  0  0  0  0  0  0  0  0
  140.7810   78.6540  222.1550 C   0  0  0  0  0  0  0  0  0  0  0  0
  141.4030   77.4290  221.5940 C   0  0  0  0  0  0  0  0  0  0  0  0
  142.0120   74.6800  220.8370 N   0  0  0  0  0  0  0  0  0  0  0  0
  144.8430   72.6460  220.7390 C   0  0  0  0  0  0  0  0  0  0  0  0
  145.7490   72.0060  219.7360 C   0  0  0  0  0  0  0  0  0  0  0  0
  145.9210   72.8890  218.6730 O   0  0  0  0  0  0  0  0  0  0  0  0
  143.6490   76.0420  218.3438 H   0  0  0  0  0  0  0  0  0  0  0  0
  144.5084   76.7231  216.9211 H   0  0  0  0  0  0  0  0  0  0  0  0
  142.7152   76.6171  216.9211 H   0  0  0  0  0  0  0  0  0  0  0  0
  142.8871   74.1495  217.0144 H   0  0  0  0  0  0  0  0  0  0  0  0
  143.6760   74.8608  215.5461 H   0  0  0  0  0  0  0  0  0  0  0  0
  145.7490   74.7270  217.1620 H   0  0  0  0  0  0  0  0  0  0  0  0
  144.7504   72.0304  217.3338 H   0  0  0  0  0  0  0  0  0  0  0  0
  143.0997   74.1296  218.3562 H   0  0  0  0  0  0  0  0  0  0  0  0
  142.8824   72.3069  218.3058 H   0  0  0  0  0  0  0  0  0  0  0  0
  139.0136   71.0746  221.5068 H   0  0  0  0  0  0  0  0  0  0  0  0
  140.2875   69.9258  222.0333 H   0  0  0  0  0  0  0  0  0  0  0  0
  137.8027   70.6991  223.6750 H   0  0  0  0  0  0  0  0  0  0  0  0
  137.9767   69.1841  222.7848 H   0  0  0  0  0  0  0  0  0  0  0  0
  138.5567   67.4301  224.3347 H   0  0  0  0  0  0  0  0  0  0  0  0
  139.9680   66.6376  226.2301 H   0  0  0  0  0  0  0  0  0  0  0  0
  141.5287   68.2204  227.3337 H   0  0  0  0  0  0  0  0  0  0  0  0
  141.6882   70.5538  226.5809 H   0  0  0  0  0  0  0  0  0  0  0  0
  139.4735   72.3429  224.9733 H   0  0  0  0  0  0  0  0  0  0  0  0
  141.2464   72.2246  224.8689 H   0  0  0  0  0  0  0  0  0  0  0  0
  138.8265   77.2159  220.5869 H   0  0  0  0  0  0  0  0  0  0  0  0
  138.4608   75.7008  221.4694 H   0  0  0  0  0  0  0  0  0  0  0  0
  137.5936   77.7104  222.6811 H   0  0  0  0  0  0  0  0  0  0  0  0
  138.8233   76.8713  223.6435 H   0  0  0  0  0  0  0  0  0  0  0  0
  137.9441   79.8116  223.6057 H   0  0  0  0  0  0  0  0  0  0  0  0
  139.2370   81.9499  223.6141 H   0  0  0  0  0  0  0  0  0  0  0  0
  141.5564   81.9259  222.6588 H   0  0  0  0  0  0  0  0  0  0  0  0
  142.5051   79.8296  221.7460 H   0  0  0  0  0  0  0  0  0  0  0  0
  141.7489   77.6379  220.5709 H   0  0  0  0  0  0  0  0  0  0  0  0
  142.2481   77.1405  222.2363 H   0  0  0  0  0  0  0  0  0  0  0  0
  145.3405   73.5176  221.1894 H   0  0  0  0  0  0  0  0  0  0  0  0
  144.5949   71.9343  221.5402 H   0  0  0  0  0  0  0  0  0  0  0  0
  146.7225   71.7888  220.1999 H   0  0  0  0  0  0  0  0  0  0  0  0
  145.3100   71.0634  219.3772 H   0  0  0  0  0  0  0  0  0  0  0  0
  1  2  1  0
  2  3  1  0
  3  4  1  0
  4  5  1  0
  5  6  1  0
  6  7  1  0
  7  8  2  0
  8  9  1  0
  9 10  1  0
 10 11  1  0
 11 12  1  0
 12 13  1  0
 13 14  2  0
 14 15  1  0
 15 16  2  0
 16 17  1  0
 17 18  2  0
 18 19  1  0
  9 20  2  0
 20 21  1  0
 21 22  1  0
 22 23  1  0
 23 24  1  0
 24 25  1  0
 25 26  2  0
 26 27  1  0
 27 28  2  0
 28 29  1  0
 29 30  2  0
 30 31  1  0
 21 32  2  0
  6 33  1  0
 33 34  1  0
 34 35  1  0
 35  4  1  0
 32  7  1  0
 19 10  1  0
 31 22  1  0
 18 13  1  0
 30 25  1  0
  1 36  1  0
  1 37  1  0
  1 38  1  0
  2 39  1  0
  2 40  1  0
  3 41  1  0
  4 42  1  6
  5 43  1  0
  5 44  1  0
 11 45  1  0
 11 46  1  0
 12 47  1  0
 12 48  1  0
 14 49  1  0
 15 50  1  0
 16 51  1  0
 17 52  1  0
 19 53  1  0
 19 54  1  0
 23 55  1  0
 23 56  1  0
 24 57  1  0
 24 58  1  0
 26 59  1  0
 27 60  1  0
 28 61  1  0
 29 62  1  0
 31 63  1  0
 31 64  1  0
 33 65  1  0
 33 66  1  0
 34 67  1  0
 34 68  1  0
M  END
>  <smiles>  (38) 
CCNC1CN(c2nc(N3CCc4ccccc4C3)nc(N3CCc4ccccc4C3)n2)CCO1

>  <score_type>  (38) 
oracle

>  <origin>  (38) 
autodockgpu

>  <m_score__min__energy>  (38) 
-10.48

>  <m_primary>  (38) 
energy

>  <rmsd>  (38) 
6.5950796446017605

>  <m_score__min__rmsd>  (38) 
6.5950796446017605

>  <meeko>  (38) 
{"free_energy": -9.91, "intermolecular_energy": -11.4, "internal_energy": -1.1, "cluster_size": 47, "cluster_id": 1, "rank_in_cluster": 25}

>  <energy>  (38) 
-9.82

>  <cluster_rmsd>  (38) 
1.54

>  <cluster>  (38) 
1

$$$$

     RDKit          3D

 68 73  0  0  0  0  0  0  0  0999 V2000
  146.6810   73.4050  222.0550 C   0  0  0  0  0  0  0  0  0  0  0  0
  146.3720   73.6780  220.6120 C   0  0  0  0  0  0  0  0  0  0  0  0
  146.3010   72.4680  219.8490 N   0  0  0  0  0  0  0  0  0  0  0  0
  145.0750   72.3060  219.1100 C   0  0  2  0  0  0  0  0  0  0  0  0
  143.9770   72.9710  219.8710 C   0  0  0  0  0  0  0  0  0  0  0  0
  142.8260   72.1390  220.1210 N   0  0  0  0  0  0  0  0  0  0  0  0
  141.8370   72.6320  221.0290 C   0  0  0  0  0  0  0  0  0  0  0  0
  141.4390   73.9330  220.9790 N   0  0  0  0  0  0  0  0  0  0  0  0
  140.5190   74.4450  221.8020 C   0  0  0  0  0  0  0  0  0  0  0  0
  140.1900   75.8320  221.6460 N   0  0  0  0  0  0  0  0  0  0  0  0
  138.8440   76.2530  221.9690 C   0  0  0  0  0  0  0  0  0  0  0  0
  138.5330   77.5490  221.2290 C   0  0  0  0  0  0  0  0  0  0  0  0
  139.5370   78.5390  221.7300 C   0  0  0  0  0  0  0  0  0  0  0  0
  139.1640   79.7800  222.1970 C   0  0  0  0  0  0  0  0  0  0  0  0
  140.1390   80.6440  222.6440 C   0  0  0  0  0  0  0  0  0  0  0  0
  141.4620   80.2460  222.6130 C   0  0  0  0  0  0  0  0  0  0  0  0
  141.8120   79.0030  222.1430 C   0  0  0  0  0  0  0  0  0  0  0  0
  140.8620   78.1200  221.6920 C   0  0  0  0  0  0  0  0  0  0  0  0
  141.2170   76.7540  221.1730 C   0  0  0  0  0  0  0  0  0  0  0  0
  139.9570   73.6630  222.7190 N   0  0  0  0  0  0  0  0  0  0  0  0
  140.3410   72.3620  222.7840 C   0  0  0  0  0  0  0  0  0  0  0  0
  139.7620   71.4700  223.7600 N   0  0  0  0  0  0  0  0  0  0  0  0
  138.7220   70.5280  223.3980 C   0  0  0  0  0  0  0  0  0  0  0  0
  139.2120   69.1260  223.6850 C   0  0  0  0  0  0  0  0  0  0  0  0
  139.5290   69.0870  225.1420 C   0  0  0  0  0  0  0  0  0  0  0  0
  139.3360   67.8960  225.8070 C   0  0  0  0  0  0  0  0  0  0  0  0
  139.6020   67.7630  227.1640 C   0  0  0  0  0  0  0  0  0  0  0  0
  140.0740   68.8870  227.8270 C   0  0  0  0  0  0  0  0  0  0  0  0
  140.2640   70.0860  227.1380 C   0  0  0  0  0  0  0  0  0  0  0  0
  139.9980   70.2050  225.8060 C   0  0  0  0  0  0  0  0  0  0  0  0
  140.2220   71.5080  225.1320 C   0  0  0  0  0  0  0  0  0  0  0  0
  141.2680   71.8490  221.9540 N   0  0  0  0  0  0  0  0  0  0  0  0
  142.6190   70.8400  219.5100 C   0  0  0  0  0  0  0  0  0  0  0  0
  143.5820   70.7090  218.3730 C   0  0  0  0  0  0  0  0  0  0  0  0
  144.8640   70.9730  218.8510 O   0  0  0  0  0  0  0  0  0  0  0  0
  146.0092   73.9985  222.6925 H   0  0  0  0  0  0  0  0  0  0  0  0
  146.5355   72.3351  222.2651 H   0  0  0  0  0  0  0  0  0  0  0  0
  147.7248   73.6813  222.2651 H   0  0  0  0  0  0  0  0  0  0  0  0
  145.4051   74.1984  220.5464 H   0  0  0  0  0  0  0  0  0  0  0  0
  147.1812   74.2979  220.1986 H   0  0  0  0  0  0  0  0  0  0  0  0
  146.6510   71.6260  220.3220 H   0  0  0  0  0  0  0  0  0  0  0  0
  145.1202   72.7925  218.1245 H   0  0  0  0  0  0  0  0  0  0  0  0
  144.3811   73.2969  220.8408 H   0  0  0  0  0  0  0  0  0  0  0  0
  143.6268   73.8051  219.2451 H   0  0  0  0  0  0  0  0  0  0  0  0
  138.1310   75.4737  221.6617 H   0  0  0  0  0  0  0  0  0  0  0  0
  138.7582   76.4168  223.0533 H   0  0  0  0  0  0  0  0  0  0  0  0
  138.6392   77.4080  220.1433 H   0  0  0  0  0  0  0  0  0  0  0  0
  137.5008   77.8855  221.4062 H   0  0  0  0  0  0  0  0  0  0  0  0
  138.1047   80.0762  222.2127 H   0  0  0  0  0  0  0  0  0  0  0  0
  139.8674   81.6407  223.0218 H   0  0  0  0  0  0  0  0  0  0  0  0
  142.2444   80.9325  222.9689 H   0  0  0  0  0  0  0  0  0  0  0  0
  142.8722   78.7101  222.1278 H   0  0  0  0  0  0  0  0  0  0  0  0
  141.2381   76.7625  220.0732 H   0  0  0  0  0  0  0  0  0  0  0  0
  142.2112   76.4472  221.5298 H   0  0  0  0  0  0  0  0  0  0  0  0
  137.8169   70.7315  223.9891 H   0  0  0  0  0  0  0  0  0  0  0  0
  138.4826   70.6285  222.3291 H   0  0  0  0  0  0  0  0  0  0  0  0
  138.4289   68.3916  223.4452 H   0  0  0  0  0  0  0  0  0  0  0  0
  140.0933   68.8765  223.0759 H   0  0  0  0  0  0  0  0  0  0  0  0
  138.9608   67.0261  225.2479 H   0  0  0  0  0  0  0  0  0  0  0  0
  139.4455   66.8094  227.6895 H   0  0  0  0  0  0  0  0  0  0  0  0
  140.2998   68.8328  228.9022 H   0  0  0  0  0  0  0  0  0  0  0  0
  140.6400   70.9621  227.6867 H   0  0  0  0  0  0  0  0  0  0  0  0
  139.6726   72.2920  225.6737 H   0  0  0  0  0  0  0  0  0  0  0  0
  141.3011   71.7215  225.1333 H   0  0  0  0  0  0  0  0  0  0  0  0
  142.8024   70.0458  220.2487 H   0  0  0  0  0  0  0  0  0  0  0  0
  141.5842   70.7465  219.1489 H   0  0  0  0  0  0  0  0  0  0  0  0
  143.5400   69.6879  217.9661 H   0  0  0  0  0  0  0  0  0  0  0  0
  143.3226   71.4188  217.5737 H   0  0  0  0  0  0  0  0  0  0  0  0
  1  2  1  0
  2  3  1  0
  3  4  1  0
  4  5  1  0
  5  6  1  0
  6  7  1  0
  7  8  2  0
  8  9  1  0
  9 10  1  0
 10 11  1  0
 11 12  1  0
 12 13  1  0
 13 14  2  0
 14 15  1  0
 15 16  2  0
 16 17  1  0
 17 18  2  0
 18 19  1  0
  9 20  2  0
 20 21  1  0
 21 22  1  0
 22 23  1  0
 23 24  1  0
 24 25  1  0
 25 26  2  0
 26 27  1  0
 27 28  2  0
 28 29  1  0
 29 30  2  0
 30 31  1  0
 21 32  2  0
  6 33  1  0
 33 34  1  0
 34 35  1  0
 35  4  1  0
 32  7  1  0
 19 10  1  0
 31 22  1  0
 18 13  1  0
 30 25  1  0
  1 36  1  0
  1 37  1  0
  1 38  1  0
  2 39  1  0
  2 40  1  0
  3 41  1  0
  4 42  1  6
  5 43  1  0
  5 44  1  0
 11 45  1  0
 11 46  1  0
 12 47  1  0
 12 48  1  0
 14 49  1  0
 15 50  1  0
 16 51  1  0
 17 52  1  0
 19 53  1  0
 19 54  1  0
 23 55  1  0
 23 56  1  0
 24 57  1  0
 24 58  1  0
 26 59  1  0
 27 60  1  0
 28 61  1  0
 29 62  1  0
 31 63  1  0
 31 64  1  0
 33 65  1  0
 33 66  1  0
 34 67  1  0
 34 68  1  0
M  END
>  <smiles>  (39) 
CCNC1CN(c2nc(N3CCc4ccccc4C3)nc(N3CCc4ccccc4C3)n2)CCO1

>  <score_type>  (39) 
oracle

>  <origin>  (39) 
autodockgpu

>  <m_score__min__energy>  (39) 
-10.48

>  <m_primary>  (39) 
energy

>  <rmsd>  (39) 
6.609669832995658

>  <m_score__min__rmsd>  (39) 
6.609669832995658

>  <meeko>  (39) 
{"free_energy": -10.27, "intermolecular_energy": -11.76, "internal_energy": -1.05, "cluster_size": 47, "cluster_id": 1, "rank_in_cluster": 13}

>  <energy>  (39) 
-9.8

>  <cluster_rmsd>  (39) 
1.51

>  <cluster>  (39) 
1

$$$$

     RDKit          3D

 68 73  0  0  0  0  0  0  0  0999 V2000
  146.6920   73.4030  222.1530 C   0  0  0  0  0  0  0  0  0  0  0  0
  146.5110   73.7030  220.6940 C   0  0  0  0  0  0  0  0  0  0  0  0
  146.3700   72.5060  219.9220 N   0  0  0  0  0  0  0  0  0  0  0  0
  145.1690   72.4540  219.1270 C   0  0  2  0  0  0  0  0  0  0  0  0
  144.0660   73.0960  219.8990 C   0  0  0  0  0  0  0  0  0  0  0  0
  142.8760   72.2900  220.0350 N   0  0  0  0  0  0  0  0  0  0  0  0
  141.8700   72.7450  220.9430 C   0  0  0  0  0  0  0  0  0  0  0  0
  141.3280   71.8940  221.8570 N   0  0  0  0  0  0  0  0  0  0  0  0
  140.3860   72.2660  222.7300 C   0  0  0  0  0  0  0  0  0  0  0  0
  139.8970   71.2730  223.6400 N   0  0  0  0  0  0  0  0  0  0  0  0
  139.2380   70.1080  223.0870 C   0  0  0  0  0  0  0  0  0  0  0  0
  138.3250   69.4990  224.1460 C   0  0  0  0  0  0  0  0  0  0  0  0
  139.2320   69.1160  225.2740 C   0  0  0  0  0  0  0  0  0  0  0  0
  139.2060   67.8560  225.8300 C   0  0  0  0  0  0  0  0  0  0  0  0
  140.0670   67.5680  226.8660 C   0  0  0  0  0  0  0  0  0  0  0  0
  140.9320   68.5470  227.3190 C   0  0  0  0  0  0  0  0  0  0  0  0
  140.9410   69.7970  226.7490 C   0  0  0  0  0  0  0  0  0  0  0  0
  140.0940   70.1130  225.7150 C   0  0  0  0  0  0  0  0  0  0  0  0
  140.0830   71.4730  225.0720 C   0  0  0  0  0  0  0  0  0  0  0  0
  139.9460   73.5220  222.7190 N   0  0  0  0  0  0  0  0  0  0  0  0
  140.4760   74.3850  221.8130 C   0  0  0  0  0  0  0  0  0  0  0  0
  140.0340   75.7580  221.7590 N   0  0  0  0  0  0  0  0  0  0  0  0
  138.6430   76.0940  221.5310 C   0  0  0  0  0  0  0  0  0  0  0  0
  138.1320   76.8840  222.7160 C   0  0  0  0  0  0  0  0  0  0  0  0
  138.9980   78.0950  222.8120 C   0  0  0  0  0  0  0  0  0  0  0  0
  138.4240   79.2560  223.2810 C   0  0  0  0  0  0  0  0  0  0  0  0
  139.1500   80.4330  223.4050 C   0  0  0  0  0  0  0  0  0  0  0  0
  140.4870   80.3930  223.0350 C   0  0  0  0  0  0  0  0  0  0  0  0
  141.0530   79.2070  222.5620 C   0  0  0  0  0  0  0  0  0  0  0  0
  140.3300   78.0570  222.4440 C   0  0  0  0  0  0  0  0  0  0  0  0
  140.9910   76.8300  221.9340 C   0  0  0  0  0  0  0  0  0  0  0  0
  141.4240   74.0070  220.9360 N   0  0  0  0  0  0  0  0  0  0  0  0
  142.6490   71.0560  219.3080 C   0  0  0  0  0  0  0  0  0  0  0  0
  143.6520   70.9830  218.2020 C   0  0  0  0  0  0  0  0  0  0  0  0
  144.9220   71.1560  218.7480 O   0  0  0  0  0  0  0  0  0  0  0  0
  146.2153   74.1931  222.7517 H   0  0  0  0  0  0  0  0  0  0  0  0
  146.2277   72.4340  222.3884 H   0  0  0  0  0  0  0  0  0  0  0  0
  147.7657   73.3619  222.3884 H   0  0  0  0  0  0  0  0  0  0  0  0
  145.6084   74.3186  220.5657 H   0  0  0  0  0  0  0  0  0  0  0  0
  147.4052   74.2368  220.3397 H   0  0  0  0  0  0  0  0  0  0  0  0
  146.6220   71.6360  220.4050 H   0  0  0  0  0  0  0  0  0  0  0  0
  145.2706   73.0190  218.1887 H   0  0  0  0  0  0  0  0  0  0  0  0
  144.4417   73.3251  220.9072 H   0  0  0  0  0  0  0  0  0  0  0  0
  143.7713   73.9919  219.3329 H   0  0  0  0  0  0  0  0  0  0  0  0
  138.6405   70.4038  222.2121 H   0  0  0  0  0  0  0  0  0  0  0  0
  139.9916   69.3683  222.7789 H   0  0  0  0  0  0  0  0  0  0  0  0
  137.5804   70.2353  224.4828 H   0  0  0  0  0  0  0  0  0  0  0  0
  137.7646   68.6356  223.7580 H   0  0  0  0  0  0  0  0  0  0  0  0
  138.5094   67.0926  225.4531 H   0  0  0  0  0  0  0  0  0  0  0  0
  140.0664   66.5697  227.3280 H   0  0  0  0  0  0  0  0  0  0  0  0
  141.6215   68.3222  228.1461 H   0  0  0  0  0  0  0  0  0  0  0  0
  141.6390   70.5583  227.1275 H   0  0  0  0  0  0  0  0  0  0  0  0
  139.2571   72.0751  225.4786 H   0  0  0  0  0  0  0  0  0  0  0  0
  141.0239   72.0064  225.2721 H   0  0  0  0  0  0  0  0  0  0  0  0
  138.5539   76.6993  220.6169 H   0  0  0  0  0  0  0  0  0  0  0  0
  138.0511   75.1746  221.4113 H   0  0  0  0  0  0  0  0  0  0  0  0
  137.0837   77.1763  222.5562 H   0  0  0  0  0  0  0  0  0  0  0  0
  138.1693   76.2896  223.6408 H   0  0  0  0  0  0  0  0  0  0  0  0
  137.3613   79.2505  223.5651 H   0  0  0  0  0  0  0  0  0  0  0  0
  138.6857   81.3569  223.7802 H   0  0  0  0  0  0  0  0  0  0  0  0
  141.1041   81.3001  223.1147 H   0  0  0  0  0  0  0  0  0  0  0  0
  142.1151   79.2005  222.2757 H   0  0  0  0  0  0  0  0  0  0  0  0
  141.4631   77.0521  220.9656 H   0  0  0  0  0  0  0  0  0  0  0  0
  141.7458   76.5089  222.6669 H   0  0  0  0  0  0  0  0  0  0  0  0
  142.7736   70.1963  219.9829 H   0  0  0  0  0  0  0  0  0  0  0  0
  141.6274   71.0336  218.9008 H   0  0  0  0  0  0  0  0  0  0  0  0
  143.5902   70.0018  217.7086 H   0  0  0  0  0  0  0  0  0  0  0  0
  143.4509   71.7669  217.4570 H   0  0  0  0  0  0  0  0  0  0  0  0
  1  2  1  0
  2  3  1  0
  3  4  1  0
  4  5  1  0
  5  6  1  0
  6  7  1  0
  7  8  2  0
  8  9  1  0
  9 10  1  0
 10 11  1  0
 11 12  1  0
 12 13  1  0
 13 14  2  0
 14 15  1  0
 15 16  2  0
 16 17  1  0
 17 18  2  0
 18 19  1  0
  9 20  2  0
 20 21  1  0
 21 22  1  0
 22 23  1  0
 23 24  1  0
 24 25  1  0
 25 26  2  0
 26 27  1  0
 27 28  2  0
 28 29  1  0
 29 30  2  0
 30 31  1  0
 21 32  2  0
  6 33  1  0
 33 34  1  0
 34 35  1  0
 35  4  1  0
 32  7  1  0
 19 10  1  0
 31 22  1  0
 18 13  1  0
 30 25  1  0
  1 36  1  0
  1 37  1  0
  1 38  1  0
  2 39  1  0
  2 40  1  0
  3 41  1  0
  4 42  1  6
  5 43  1  0
  5 44  1  0
 11 45  1  0
 11 46  1  0
 12 47  1  0
 12 48  1  0
 14 49  1  0
 15 50  1  0
 16 51  1  0
 17 52  1  0
 19 53  1  0
 19 54  1  0
 23 55  1  0
 23 56  1  0
 24 57  1  0
 24 58  1  0
 26 59  1  0
 27 60  1  0
 28 61  1  0
 29 62  1  0
 31 63  1  0
 31 64  1  0
 33 65  1  0
 33 66  1  0
 34 67  1  0
 34 68  1  0
M  END
>  <smiles>  (40) 
CCNC1CN(c2nc(N3CCc4ccccc4C3)nc(N3CCc4ccccc4C3)n2)CCO1

>  <score_type>  (40) 
oracle

>  <origin>  (40) 
autodockgpu

>  <m_score__min__energy>  (40) 
-10.48

>  <m_primary>  (40) 
energy

>  <rmsd>  (40) 
6.551519704197915

>  <m_score__min__rmsd>  (40) 
6.551519704197915

>  <meeko>  (40) 
{"free_energy": -10.47, "intermolecular_energy": -11.97, "internal_energy": -1.02, "cluster_size": 47, "cluster_id": 1, "rank_in_cluster": 2}

>  <energy>  (40) 
-9.79

>  <cluster_rmsd>  (40) 
1.33

>  <cluster>  (40) 
1

$$$$

     RDKit          3D

 68 73  0  0  0  0  0  0  0  0999 V2000
  146.5200   73.3630  221.9260 C   0  0  0  0  0  0  0  0  0  0  0  0
  146.0110   74.1110  220.7290 C   0  0  0  0  0  0  0  0  0  0  0  0
  146.2520   73.3930  219.5140 N   0  0  0  0  0  0  0  0  0  0  0  0
  145.0910   72.7290  218.9790 C   0  0  2  0  0  0  0  0  0  0  0  0
  143.8830   73.2650  219.6710 C   0  0  0  0  0  0  0  0  0  0  0  0
  143.0200   72.2600  220.2430 N   0  0  0  0  0  0  0  0  0  0  0  0
  141.9700   72.7040  221.1070 C   0  0  0  0  0  0  0  0  0  0  0  0
  141.5360   73.9930  221.0630 N   0  0  0  0  0  0  0  0  0  0  0  0
  140.5590   74.4590  221.8460 C   0  0  0  0  0  0  0  0  0  0  0  0
  140.1960   75.8380  221.7020 N   0  0  0  0  0  0  0  0  0  0  0  0
  138.8430   76.2260  222.0420 C   0  0  0  0  0  0  0  0  0  0  0  0
  138.4940   77.5190  221.3130 C   0  0  0  0  0  0  0  0  0  0  0  0
  139.4810   78.5290  221.8090 C   0  0  0  0  0  0  0  0  0  0  0  0
  139.0840   79.7590  222.2870 C   0  0  0  0  0  0  0  0  0  0  0  0
  140.0440   80.6420  222.7290 C   0  0  0  0  0  0  0  0  0  0  0  0
  141.3760   80.2750  222.6810 C   0  0  0  0  0  0  0  0  0  0  0  0
  141.7490   79.0440  222.2010 C   0  0  0  0  0  0  0  0  0  0  0  0
  140.8150   78.1410  221.7540 C   0  0  0  0  0  0  0  0  0  0  0  0
  141.1950   76.7860  221.2240 C   0  0  0  0  0  0  0  0  0  0  0  0
  139.9730   73.6400  222.7160 N   0  0  0  0  0  0  0  0  0  0  0  0
  140.3930   72.3490  222.7730 C   0  0  0  0  0  0  0  0  0  0  0  0
  139.7910   71.4190  223.6990 N   0  0  0  0  0  0  0  0  0  0  0  0
  138.7210   70.5330  223.2870 C   0  0  0  0  0  0  0  0  0  0  0  0
  139.1690   69.1020  223.4880 C   0  0  0  0  0  0  0  0  0  0  0  0
  139.4900   68.9660  224.9380 C   0  0  0  0  0  0  0  0  0  0  0  0
  139.2640   67.7440  225.5320 C   0  0  0  0  0  0  0  0  0  0  0  0
  139.5320   67.5220  226.8760 C   0  0  0  0  0  0  0  0  0  0  0  0
  140.0410   68.5900  227.6030 C   0  0  0  0  0  0  0  0  0  0  0  0
  140.2650   69.8210  226.9850 C   0  0  0  0  0  0  0  0  0  0  0  0
  139.9970   70.0270  225.6640 C   0  0  0  0  0  0  0  0  0  0  0  0
  140.2580   71.3610  225.0670 C   0  0  0  0  0  0  0  0  0  0  0  0
  141.3770   71.8840  221.9830 N   0  0  0  0  0  0  0  0  0  0  0  0
  143.1590   70.8390  219.9940 C   0  0  0  0  0  0  0  0  0  0  0  0
  144.0740   70.6640  218.8240 C   0  0  0  0  0  0  0  0  0  0  0  0
  145.2500   71.3680  219.0770 O   0  0  0  0  0  0  0  0  0  0  0  0
  146.1789   73.8642  222.8439 H   0  0  0  0  0  0  0  0  0  0  0  0
  146.1346   72.3329  221.9058 H   0  0  0  0  0  0  0  0  0  0  0  0
  147.6196   73.3435  221.9058 H   0  0  0  0  0  0  0  0  0  0  0  0
  144.9281   74.2686  220.8411 H   0  0  0  0  0  0  0  0  0  0  0  0
  146.5453   75.0708  220.6718 H   0  0  0  0  0  0  0  0  0  0  0  0
  147.1260   72.8540  219.4860 H   0  0  0  0  0  0  0  0  0  0  0  0
  144.9585   72.9308  217.9058 H   0  0  0  0  0  0  0  0  0  0  0  0
  144.2186   73.9295  220.4808 H   0  0  0  0  0  0  0  0  0  0  0  0
  143.2897   73.7835  218.9034 H   0  0  0  0  0  0  0  0  0  0  0  0
  138.1451   75.4321  221.7376 H   0  0  0  0  0  0  0  0  0  0  0  0
  138.7650   76.3815  223.1282 H   0  0  0  0  0  0  0  0  0  0  0  0
  138.5913   77.3867  220.2253 H   0  0  0  0  0  0  0  0  0  0  0  0
  137.4564   77.8307  221.5035 H   0  0  0  0  0  0  0  0  0  0  0  0
  138.0185   80.0309  222.3150 H   0  0  0  0  0  0  0  0  0  0  0  0
  139.7538   81.6297  223.1165 H   0  0  0  0  0  0  0  0  0  0  0  0
  142.1462   80.9777  223.0316 H   0  0  0  0  0  0  0  0  0  0  0  0
  142.8154   78.7757  222.1738 H   0  0  0  0  0  0  0  0  0  0  0  0
  141.2040   76.8009  220.1241 H   0  0  0  0  0  0  0  0  0  0  0  0
  142.1996   76.5004  221.5692 H   0  0  0  0  0  0  0  0  0  0  0  0
  137.8246   70.7286  223.8938 H   0  0  0  0  0  0  0  0  0  0  0  0
  138.4807   70.7043  222.2273 H   0  0  0  0  0  0  0  0  0  0  0  0
  138.3629   68.4074  223.2092 H   0  0  0  0  0  0  0  0  0  0  0  0
  140.0403   68.8630  222.8606 H   0  0  0  0  0  0  0  0  0  0  0  0
  138.8598   66.9209  224.9244 H   0  0  0  0  0  0  0  0  0  0  0  0
  139.3492   66.5435  227.3442 H   0  0  0  0  0  0  0  0  0  0  0  0
  140.2689   68.4650  228.6718 H   0  0  0  0  0  0  0  0  0  0  0  0
  140.6704   70.6511  227.5822 H   0  0  0  0  0  0  0  0  0  0  0  0
  139.7355   72.1277  225.6579 H   0  0  0  0  0  0  0  0  0  0  0  0
  141.3431   71.5410  225.0740 H   0  0  0  0  0  0  0  0  0  0  0  0
  143.5856   70.3445  220.8792 H   0  0  0  0  0  0  0  0  0  0  0  0
  142.1775   70.3894  219.7831 H   0  0  0  0  0  0  0  0  0  0  0  0
  144.3020   69.5967  218.6869 H   0  0  0  0  0  0  0  0  0  0  0  0
  143.5952   71.0436  217.9093 H   0  0  0  0  0  0  0  0  0  0  0  0
  1  2  1  0
  2  3  1  0
  3  4  1  0
  4  5  1  0
  5  6  1  0
  6  7  1  0
  7  8  2  0
  8  9  1  0
  9 10  1  0
 10 11  1  0
 11 12  1  0
 12 13  1  0
 13 14  2  0
 14 15  1  0
 15 16  2  0
 16 17  1  0
 17 18  2  0
 18 19  1  0
  9 20  2  0
 20 21  1  0
 21 22  1  0
 22 23  1  0
 23 24  1  0
 24 25  1  0
 25 26  2  0
 26 27  1  0
 27 28  2  0
 28 29  1  0
 29 30  2  0
 30 31  1  0
 21 32  2  0
  6 33  1  0
 33 34  1  0
 34 35  1  0
 35  4  1  0
 32  7  1  0
 19 10  1  0
 31 22  1  0
 18 13  1  0
 30 25  1  0
  1 36  1  0
  1 37  1  0
  1 38  1  0
  2 39  1  0
  2 40  1  0
  3 41  1  0
  4 42  1  6
  5 43  1  0
  5 44  1  0
 11 45  1  0
 11 46  1  0
 12 47  1  0
 12 48  1  0
 14 49  1  0
 15 50  1  0
 16 51  1  0
 17 52  1  0
 19 53  1  0
 19 54  1  0
 23 55  1  0
 23 56  1  0
 24 57  1  0
 24 58  1  0
 26 59  1  0
 27 60  1  0
 28 61  1  0
 29 62  1  0
 31 63  1  0
 31 64  1  0
 33 65  1  0
 33 66  1  0
 34 67  1  0
 34 68  1  0
M  END
>  <smiles>  (41) 
CCNC1CN(c2nc(N3CCc4ccccc4C3)nc(N3CCc4ccccc4C3)n2)CCO1

>  <score_type>  (41) 
oracle

>  <origin>  (41) 
autodockgpu

>  <m_score__min__energy>  (41) 
-10.48

>  <m_primary>  (41) 
energy

>  <rmsd>  (41) 
6.592666830426628

>  <m_score__min__rmsd>  (41) 
6.592666830426628

>  <meeko>  (41) 
{"free_energy": -9.84, "intermolecular_energy": -11.33, "internal_energy": -1.15, "cluster_size": 47, "cluster_id": 1, "rank_in_cluster": 34}

>  <energy>  (41) 
-9.79

>  <cluster_rmsd>  (41) 
1.57

>  <cluster>  (41) 
1

$$$$

     RDKit          3D

 68 73  0  0  0  0  0  0  0  0999 V2000
  143.6210   76.1380  217.1340 C   0  0  0  0  0  0  0  0  0  0  0  0
  143.6740   74.7210  216.6440 C   0  0  0  0  0  0  0  0  0  0  0  0
  144.9230   74.0980  216.9620 N   0  0  0  0  0  0  0  0  0  0  0  0
  144.8230   73.0230  217.9160 C   0  0  2  0  0  0  0  0  0  0  0  0
  143.5320   73.1670  218.6510 C   0  0  0  0  0  0  0  0  0  0  0  0
  143.6530   73.1640  220.0890 N   0  0  0  0  0  0  0  0  0  0  0  0
  142.4960   73.5190  220.8510 C   0  0  0  0  0  0  0  0  0  0  0  0
  141.8440   72.5840  221.5950 N   0  0  0  0  0  0  0  0  0  0  0  0
  140.7600   72.8630  222.3250 C   0  0  0  0  0  0  0  0  0  0  0  0
  140.1650   71.7870  223.0630 N   0  0  0  0  0  0  0  0  0  0  0  0
  139.5050   70.7340  222.3200 C   0  0  0  0  0  0  0  0  0  0  0  0
  138.4920   70.0410  223.2250 C   0  0  0  0  0  0  0  0  0  0  0  0
  139.2950   69.4760  224.3540 C   0  0  0  0  0  0  0  0  0  0  0  0
  139.1790   68.1590  224.7400 C   0  0  0  0  0  0  0  0  0  0  0  0
  139.9480   67.7020  225.7880 C   0  0  0  0  0  0  0  0  0  0  0  0
  140.8130   68.5740  226.4230 C   0  0  0  0  0  0  0  0  0  0  0  0
  140.9130   69.8840  226.0220 C   0  0  0  0  0  0  0  0  0  0  0  0
  140.1600   70.3670  224.9800 C   0  0  0  0  0  0  0  0  0  0  0  0
  140.2490   71.7960  224.5190 C   0  0  0  0  0  0  0  0  0  0  0  0
  140.2820   74.1040  222.3370 N   0  0  0  0  0  0  0  0  0  0  0  0
  140.9210   75.0500  221.6010 C   0  0  0  0  0  0  0  0  0  0  0  0
  140.4440   76.4130  221.5790 N   0  0  0  0  0  0  0  0  0  0  0  0
  139.0280   76.7150  221.5220 C   0  0  0  0  0  0  0  0  0  0  0  0
  138.6500   77.5170  222.7480 C   0  0  0  0  0  0  0  0  0  0  0  0
  139.4930   78.7470  222.7150 C   0  0  0  0  0  0  0  0  0  0  0  0
  138.9550   79.9050  223.2320 C   0  0  0  0  0  0  0  0  0  0  0  0
  139.6640   81.0990  223.2460 C   0  0  0  0  0  0  0  0  0  0  0  0
  140.9450   81.0790  222.7130 C   0  0  0  0  0  0  0  0  0  0  0  0
  141.4750   79.8970  222.1930 C   0  0  0  0  0  0  0  0  0  0  0  0
  140.7690   78.7300  222.1840 C   0  0  0  0  0  0  0  0  0  0  0  0
  141.3900   77.5080  221.6170 C   0  0  0  0  0  0  0  0  0  0  0  0
  142.0120   74.7670  220.8660 N   0  0  0  0  0  0  0  0  0  0  0  0
  144.8720   72.8260  220.7970 C   0  0  0  0  0  0  0  0  0  0  0  0
  145.8030   72.1740  219.8240 C   0  0  0  0  0  0  0  0  0  0  0  0
  145.9390   73.0100  218.7180 O   0  0  0  0  0  0  0  0  0  0  0  0
  143.6207   76.1458  218.2340 H   0  0  0  0  0  0  0  0  0  0  0  0
  144.4992   76.6871  216.7637 H   0  0  0  0  0  0  0  0  0  0  0  0
  142.7042   76.6200  216.7637 H   0  0  0  0  0  0  0  0  0  0  0  0
  142.8604   74.1500  217.1153 H   0  0  0  0  0  0  0  0  0  0  0  0
  143.5647   74.7320  215.5495 H   0  0  0  0  0  0  0  0  0  0  0  0
  145.7150   74.7390  217.0950 H   0  0  0  0  0  0  0  0  0  0  0  0
  144.8035   72.0380  217.4267 H   0  0  0  0  0  0  0  0  0  0  0  0
  143.0695   74.1180  218.3481 H   0  0  0  0  0  0  0  0  0  0  0  0
  142.9254   72.2877  218.3885 H   0  0  0  0  0  0  0  0  0  0  0  0
  138.9870   71.1659  221.4510 H   0  0  0  0  0  0  0  0  0  0  0  0
  140.2506   70.0037  221.9725 H   0  0  0  0  0  0  0  0  0  0  0  0
  137.7532   70.7639  223.6013 H   0  0  0  0  0  0  0  0  0  0  0  0
  137.9297   69.2612  222.6905 H   0  0  0  0  0  0  0  0  0  0  0  0
  138.4839   67.4832  224.2202 H   0  0  0  0  0  0  0  0  0  0  0  0
  139.8746   66.6546  226.1160 H   0  0  0  0  0  0  0  0  0  0  0  0
  141.4291   68.2140  227.2602 H   0  0  0  0  0  0  0  0  0  0  0  0
  141.6081   70.5577  226.5445 H   0  0  0  0  0  0  0  0  0  0  0  0
  139.4177   72.3802  224.9406 H   0  0  0  0  0  0  0  0  0  0  0  0
  141.1914   72.2552  224.8523 H   0  0  0  0  0  0  0  0  0  0  0  0
  138.8111   77.3002  220.6162 H   0  0  0  0  0  0  0  0  0  0  0  0
  138.4478   75.7809  221.4933 H   0  0  0  0  0  0  0  0  0  0  0  0
  137.5835   77.7844  222.7152 H   0  0  0  0  0  0  0  0  0  0  0  0
  138.8154   76.9416  223.6708 H   0  0  0  0  0  0  0  0  0  0  0  0
  137.9358   79.8833  223.6451 H   0  0  0  0  0  0  0  0  0  0  0  0
  139.2292   82.0201  223.6614 H   0  0  0  0  0  0  0  0  0  0  0  0
  141.5463   82.0000  222.7002 H   0  0  0  0  0  0  0  0  0  0  0  0
  142.4935   79.9070  221.7776 H   0  0  0  0  0  0  0  0  0  0  0  0
  141.7342   77.7212  220.5942 H   0  0  0  0  0  0  0  0  0  0  0  0
  142.2363   77.2169  222.2566 H   0  0  0  0  0  0  0  0  0  0  0  0
  145.3339   73.7382  221.2025 H   0  0  0  0  0  0  0  0  0  0  0  0
  144.6534   72.1455  221.6332 H   0  0  0  0  0  0  0  0  0  0  0  0
  146.7846   72.0192  220.2957 H   0  0  0  0  0  0  0  0  0  0  0  0
  145.4020   71.1980  219.5131 H   0  0  0  0  0  0  0  0  0  0  0  0
  1  2  1  0
  2  3  1  0
  3  4  1  0
  4  5  1  0
  5  6  1  0
  6  7  1  0
  7  8  2  0
  8  9  1  0
  9 10  1  0
 10 11  1  0
 11 12  1  0
 12 13  1  0
 13 14  2  0
 14 15  1  0
 15 16  2  0
 16 17  1  0
 17 18  2  0
 18 19  1  0
  9 20  2  0
 20 21  1  0
 21 22  1  0
 22 23  1  0
 23 24  1  0
 24 25  1  0
 25 26  2  0
 26 27  1  0
 27 28  2  0
 28 29  1  0
 29 30  2  0
 30 31  1  0
 21 32  2  0
  6 33  1  0
 33 34  1  0
 34 35  1  0
 35  4  1  0
 32  7  1  0
 19 10  1  0
 31 22  1  0
 18 13  1  0
 30 25  1  0
  1 36  1  0
  1 37  1  0
  1 38  1  0
  2 39  1  0
  2 40  1  0
  3 41  1  0
  4 42  1  6
  5 43  1  0
  5 44  1  0
 11 45  1  0
 11 46  1  0
 12 47  1  0
 12 48  1  0
 14 49  1  0
 15 50  1  0
 16 51  1  0
 17 52  1  0
 19 53  1  0
 19 54  1  0
 23 55  1  0
 23 56  1  0
 24 57  1  0
 24 58  1  0
 26 59  1  0
 27 60  1  0
 28 61  1  0
 29 62  1  0
 31 63  1  0
 31 64  1  0
 33 65  1  0
 33 66  1  0
 34 67  1  0
 34 68  1  0
M  END
>  <smiles>  (42) 
CCNC1CN(c2nc(N3CCc4ccccc4C3)nc(N3CCc4ccccc4C3)n2)CCO1

>  <score_type>  (42) 
oracle

>  <origin>  (42) 
autodockgpu

>  <m_score__min__energy>  (42) 
-10.48

>  <m_primary>  (42) 
energy

>  <rmsd>  (42) 
6.602164128330983

>  <m_score__min__rmsd>  (42) 
6.602164128330983

>  <meeko>  (42) 
{"free_energy": -9.87, "intermolecular_energy": -11.36, "internal_energy": -1.1, "cluster_size": 47, "cluster_id": 1, "rank_in_cluster": 30}

>  <energy>  (42) 
-9.75

>  <cluster_rmsd>  (42) 
0.72

>  <cluster>  (42) 
1

$$$$

     RDKit          3D

 68 73  0  0  0  0  0  0  0  0999 V2000
  146.4280   73.3930  221.9910 C   0  0  0  0  0  0  0  0  0  0  0  0
  146.4640   73.6540  220.5140 C   0  0  0  0  0  0  0  0  0  0  0  0
  146.2410   72.4580  219.7600 N   0  0  0  0  0  0  0  0  0  0  0  0
  145.0150   72.4570  219.0020 C   0  0  2  0  0  0  0  0  0  0  0  0
  143.9520   73.1010  219.8280 C   0  0  0  0  0  0  0  0  0  0  0  0
  142.7480   72.3200  219.9780 N   0  0  0  0  0  0  0  0  0  0  0  0
  141.7820   72.7700  220.9310 C   0  0  0  0  0  0  0  0  0  0  0  0
  141.4050   74.0780  220.9690 N   0  0  0  0  0  0  0  0  0  0  0  0
  140.5060   74.5510  221.8380 C   0  0  0  0  0  0  0  0  0  0  0  0
  140.1970   75.9500  221.7750 N   0  0  0  0  0  0  0  0  0  0  0  0
  138.8940   76.3810  222.2330 C   0  0  0  0  0  0  0  0  0  0  0  0
  138.5500   77.7170  221.5830 C   0  0  0  0  0  0  0  0  0  0  0  0
  139.6180   78.6620  222.0390 C   0  0  0  0  0  0  0  0  0  0  0  0
  139.3150   79.8870  222.5930 C   0  0  0  0  0  0  0  0  0  0  0  0
  140.3450   80.7090  222.9910 C   0  0  0  0  0  0  0  0  0  0  0  0
  141.6510   80.2870  222.8270 C   0  0  0  0  0  0  0  0  0  0  0  0
  141.9300   79.0620  222.2720 C   0  0  0  0  0  0  0  0  0  0  0  0
  140.9240   78.2200  221.8660 C   0  0  0  0  0  0  0  0  0  0  0  0
  141.2000   76.8730  221.2560 C   0  0  0  0  0  0  0  0  0  0  0  0
  139.9450   73.7210  222.7130 N   0  0  0  0  0  0  0  0  0  0  0  0
  140.3100   72.4130  222.6900 C   0  0  0  0  0  0  0  0  0  0  0  0
  139.7310   71.4700  223.6180 N   0  0  0  0  0  0  0  0  0  0  0  0
  138.7050   70.5350  223.2010 C   0  0  0  0  0  0  0  0  0  0  0  0
  139.2080   69.1260  223.4280 C   0  0  0  0  0  0  0  0  0  0  0  0
  139.5110   69.0230  224.8850 C   0  0  0  0  0  0  0  0  0  0  0  0
  139.3260   67.8010  225.4920 C   0  0  0  0  0  0  0  0  0  0  0  0
  139.5810   67.6070  226.8430 C   0  0  0  0  0  0  0  0  0  0  0  0
  140.0330   68.7040  227.5630 C   0  0  0  0  0  0  0  0  0  0  0  0
  140.2160   69.9360  226.9330 C   0  0  0  0  0  0  0  0  0  0  0  0
  139.9620   70.1130  225.6050 C   0  0  0  0  0  0  0  0  0  0  0  0
  140.1770   71.4490  224.9940 C   0  0  0  0  0  0  0  0  0  0  0  0
  141.2150   71.9400  221.8140 N   0  0  0  0  0  0  0  0  0  0  0  0
  142.4680   71.1140  219.2240 C   0  0  0  0  0  0  0  0  0  0  0  0
  143.4350   71.0490  218.0840 C   0  0  0  0  0  0  0  0  0  0  0  0
  144.7240   71.1770  218.5940 O   0  0  0  0  0  0  0  0  0  0  0  0
  146.5587   74.3406  222.5341 H   0  0  0  0  0  0  0  0  0  0  0  0
  145.4597   72.9463  222.2609 H   0  0  0  0  0  0  0  0  0  0  0  0
  147.2391   72.7008  222.2609 H   0  0  0  0  0  0  0  0  0  0  0  0
  145.6820   74.3854  220.2620 H   0  0  0  0  0  0  0  0  0  0  0  0
  147.4617   74.0400  220.2580 H   0  0  0  0  0  0  0  0  0  0  0  0
  146.4650   71.5820  220.2450 H   0  0  0  0  0  0  0  0  0  0  0  0
  145.1018   73.0465  218.0774 H   0  0  0  0  0  0  0  0  0  0  0  0
  144.3645   73.2903  220.8300 H   0  0  0  0  0  0  0  0  0  0  0  0
  143.6616   74.0203  219.2983 H   0  0  0  0  0  0  0  0  0  0  0  0
  138.1393   75.6310  221.9538 H   0  0  0  0  0  0  0  0  0  0  0  0
  138.9061   76.4948  223.3270 H   0  0  0  0  0  0  0  0  0  0  0  0
  138.5578   77.6260  220.4868 H   0  0  0  0  0  0  0  0  0  0  0  0
  137.5454   78.0649  221.8652 H   0  0  0  0  0  0  0  0  0  0  0  0
  138.2683   80.2024  222.7150 H   0  0  0  0  0  0  0  0  0  0  0  0
  140.1308   81.6922  223.4353 H   0  0  0  0  0  0  0  0  0  0  0  0
  142.4770   80.9402  223.1448 H   0  0  0  0  0  0  0  0  0  0  0  0
  142.9778   78.7499  222.1506 H   0  0  0  0  0  0  0  0  0  0  0  0
  141.1254   76.9332  220.1602 H   0  0  0  0  0  0  0  0  0  0  0  0
  142.2140   76.5302  221.5096 H   0  0  0  0  0  0  0  0  0  0  0  0
  137.7916   70.7010  223.7910 H   0  0  0  0  0  0  0  0  0  0  0  0
  138.4754   70.6828  222.1354 H   0  0  0  0  0  0  0  0  0  0  0  0
  138.4356   68.3952  223.1464 H   0  0  0  0  0  0  0  0  0  0  0  0
  140.0980   68.9144  222.8171 H   0  0  0  0  0  0  0  0  0  0  0  0
  138.9659   66.9542  224.8893 H   0  0  0  0  0  0  0  0  0  0  0  0
  139.4315   66.6277  227.3212 H   0  0  0  0  0  0  0  0  0  0  0  0
  140.2484   68.6019  228.6369 H   0  0  0  0  0  0  0  0  0  0  0  0
  140.5760   70.7899  227.5257 H   0  0  0  0  0  0  0  0  0  0  0  0
  139.6132   72.2006  225.5660 H   0  0  0  0  0  0  0  0  0  0  0  0
  141.2535   71.6742  225.0159 H   0  0  0  0  0  0  0  0  0  0  0  0
  142.5920   70.2323  219.8699 H   0  0  0  0  0  0  0  0  0  0  0  0
  141.4340   71.1282  218.8489 H   0  0  0  0  0  0  0  0  0  0  0  0
  143.3345   70.0838  217.5660 H   0  0  0  0  0  0  0  0  0  0  0  0
  143.2298   71.8580  217.3674 H   0  0  0  0  0  0  0  0  0  0  0  0
  1  2  1  0
  2  3  1  0
  3  4  1  0
  4  5  1  0
  5  6  1  0
  6  7  1  0
  7  8  2  0
  8  9  1  0
  9 10  1  0
 10 11  1  0
 11 12  1  0
 12 13  1  0
 13 14  2  0
 14 15  1  0
 15 16  2  0
 16 17  1  0
 17 18  2  0
 18 19  1  0
  9 20  2  0
 20 21  1  0
 21 22  1  0
 22 23  1  0
 23 24  1  0
 24 25  1  0
 25 26  2  0
 26 27  1  0
 27 28  2  0
 28 29  1  0
 29 30  2  0
 30 31  1  0
 21 32  2  0
  6 33  1  0
 33 34  1  0
 34 35  1  0
 35  4  1  0
 32  7  1  0
 19 10  1  0
 31 22  1  0
 18 13  1  0
 30 25  1  0
  1 36  1  0
  1 37  1  0
  1 38  1  0
  2 39  1  0
  2 40  1  0
  3 41  1  0
  4 42  1  6
  5 43  1  0
  5 44  1  0
 11 45  1  0
 11 46  1  0
 12 47  1  0
 12 48  1  0
 14 49  1  0
 15 50  1  0
 16 51  1  0
 17 52  1  0
 19 53  1  0
 19 54  1  0
 23 55  1  0
 23 56  1  0
 24 57  1  0
 24 58  1  0
 26 59  1  0
 27 60  1  0
 28 61  1  0
 29 62  1  0
 31 63  1  0
 31 64  1  0
 33 65  1  0
 33 66  1  0
 34 67  1  0
 34 68  1  0
M  END
>  <smiles>  (43) 
CCNC1CN(c2nc(N3CCc4ccccc4C3)nc(N3CCc4ccccc4C3)n2)CCO1

>  <score_type>  (43) 
oracle

>  <origin>  (43) 
autodockgpu

>  <m_score__min__energy>  (43) 
-10.48

>  <m_primary>  (43) 
energy

>  <rmsd>  (43) 
6.472830950410973

>  <m_score__min__rmsd>  (43) 
6.472830950410973

>  <meeko>  (43) 
{"free_energy": -10.31, "intermolecular_energy": -11.8, "internal_energy": -1.03, "cluster_size": 47, "cluster_id": 1, "rank_in_cluster": 11}

>  <energy>  (43) 
-9.74

>  <cluster_rmsd>  (43) 
0.86

>  <cluster>  (43) 
1

$$$$

     RDKit          3D

 68 73  0  0  0  0  0  0  0  0999 V2000
  143.9340   76.2730  215.9920 C   0  0  0  0  0  0  0  0  0  0  0  0
  143.6980   75.1900  217.0040 C   0  0  0  0  0  0  0  0  0  0  0  0
  144.8020   74.2810  217.0720 N   0  0  0  0  0  0  0  0  0  0  0  0
  144.5020   73.0330  217.7260 C   0  0  2  0  0  0  0  0  0  0  0  0
  143.2360   73.2010  218.4990 C   0  0  0  0  0  0  0  0  0  0  0  0
  143.3210   72.8170  219.8870 N   0  0  0  0  0  0  0  0  0  0  0  0
  142.2220   73.1570  220.7360 C   0  0  0  0  0  0  0  0  0  0  0  0
  141.6590   72.2210  221.5480 N   0  0  0  0  0  0  0  0  0  0  0  0
  140.6320   72.4850  222.3610 C   0  0  0  0  0  0  0  0  0  0  0  0
  140.1290   71.4090  223.1640 N   0  0  0  0  0  0  0  0  0  0  0  0
  139.5490   70.2690  222.4880 C   0  0  0  0  0  0  0  0  0  0  0  0
  138.6000   69.5500  223.4420 C   0  0  0  0  0  0  0  0  0  0  0  0
  139.4540   69.1140  224.5910 C   0  0  0  0  0  0  0  0  0  0  0  0
  139.4450   67.8150  225.0510 C   0  0  0  0  0  0  0  0  0  0  0  0
  140.2550   67.4800  226.1130 C   0  0  0  0  0  0  0  0  0  0  0  0
  141.0530   68.4500  226.6890 C   0  0  0  0  0  0  0  0  0  0  0  0
  141.0470   69.7390  226.2140 C   0  0  0  0  0  0  0  0  0  0  0  0
  140.2500   70.1030  225.1560 C   0  0  0  0  0  0  0  0  0  0  0  0
  140.2230   71.5070  224.6160 C   0  0  0  0  0  0  0  0  0  0  0  0
  140.1230   73.7140  222.3920 N   0  0  0  0  0  0  0  0  0  0  0  0
  140.6740   74.6620  221.5890 C   0  0  0  0  0  0  0  0  0  0  0  0
  140.1600   76.0110  221.5830 N   0  0  0  0  0  0  0  0  0  0  0  0
  138.7420   76.2770  221.4540 C   0  0  0  0  0  0  0  0  0  0  0  0
  138.2720   77.0280  222.6810 C   0  0  0  0  0  0  0  0  0  0  0  0
  139.0800   78.2800  222.7370 C   0  0  0  0  0  0  0  0  0  0  0  0
  138.4810   79.4050  223.2590 C   0  0  0  0  0  0  0  0  0  0  0  0
  139.1540   80.6170  223.3520 C   0  0  0  0  0  0  0  0  0  0  0  0
  140.4630   80.6490  222.8940 C   0  0  0  0  0  0  0  0  0  0  0  0
  141.0550   79.4990  222.3670 C   0  0  0  0  0  0  0  0  0  0  0  0
  140.3850   78.3150  222.2800 C   0  0  0  0  0  0  0  0  0  0  0  0
  141.0710   77.1290  221.7110 C   0  0  0  0  0  0  0  0  0  0  0  0
  141.7070   74.3920  220.7710 N   0  0  0  0  0  0  0  0  0  0  0  0
  144.4500   72.1130  220.4630 C   0  0  0  0  0  0  0  0  0  0  0  0
  145.2820   71.5800  219.3390 C   0  0  0  0  0  0  0  0  0  0  0  0
  145.5810   72.6330  218.4770 O   0  0  0  0  0  0  0  0  0  0  0  0
  144.1406   77.2208  216.5107 H   0  0  0  0  0  0  0  0  0  0  0  0
  144.7948   76.0047  215.3618 H   0  0  0  0  0  0  0  0  0  0  0  0
  143.0397   76.3872  215.3618 H   0  0  0  0  0  0  0  0  0  0  0  0
  143.5538   75.6506  217.9924 H   0  0  0  0  0  0  0  0  0  0  0  0
  142.8052   74.6240  216.6996 H   0  0  0  0  0  0  0  0  0  0  0  0
  145.7070   74.7020  217.3110 H   0  0  0  0  0  0  0  0  0  0  0  0
  144.3302   72.2203  217.0048 H   0  0  0  0  0  0  0  0  0  0  0  0
  142.9453   74.2609  218.4540 H   0  0  0  0  0  0  0  0  0  0  0  0
  142.4981   72.5295  218.0358 H   0  0  0  0  0  0  0  0  0  0  0  0
  138.9922   70.6102  221.6028 H   0  0  0  0  0  0  0  0  0  0  0  0
  140.3471   69.5810  222.1721 H   0  0  0  0  0  0  0  0  0  0  0  0
  137.8091   70.2326  223.7865 H   0  0  0  0  0  0  0  0  0  0  0  0
  138.0969   68.6999  222.9581 H   0  0  0  0  0  0  0  0  0  0  0  0
  138.8017   67.0585  224.5778 H   0  0  0  0  0  0  0  0  0  0  0  0
  140.2667   66.4501  226.4992 H   0  0  0  0  0  0  0  0  0  0  0  0
  141.7009   68.1868  227.5381 H   0  0  0  0  0  0  0  0  0  0  0  0
  141.6918   70.4930  226.6892 H   0  0  0  0  0  0  0  0  0  0  0  0
  139.3516   72.0473  225.0144 H   0  0  0  0  0  0  0  0  0  0  0  0
  141.1285   72.0568  224.9124 H   0  0  0  0  0  0  0  0  0  0  0  0
  138.5604   76.8858  220.5560 H   0  0  0  0  0  0  0  0  0  0  0  0
  138.1912   75.3292  221.3626 H   0  0  0  0  0  0  0  0  0  0  0  0
  137.2020   77.2682  222.5945 H   0  0  0  0  0  0  0  0  0  0  0  0
  138.4008   76.4266  223.5930 H   0  0  0  0  0  0  0  0  0  0  0  0
  137.4411   79.3422  223.6120 H   0  0  0  0  0  0  0  0  0  0  0  0
  138.6701   81.5118  223.7704 H   0  0  0  0  0  0  0  0  0  0  0  0
  141.0380   81.5853  222.9462 H   0  0  0  0  0  0  0  0  0  0  0  0
  142.0945   79.5503  222.0110 H   0  0  0  0  0  0  0  0  0  0  0  0
  141.4668   77.3854  220.7172 H   0  0  0  0  0  0  0  0  0  0  0  0
  141.8869   76.8387  222.3892 H   0  0  0  0  0  0  0  0  0  0  0  0
  145.0480   72.8037  221.0757 H   0  0  0  0  0  0  0  0  0  0  0  0
  144.1016   71.2906  221.1051 H   0  0  0  0  0  0  0  0  0  0  0  0
  146.2128   71.1497  219.7371 H   0  0  0  0  0  0  0  0  0  0  0  0
  144.7318   70.7945  218.8003 H   0  0  0  0  0  0  0  0  0  0  0  0
  1  2  1  0
  2  3  1  0
  3  4  1  0
  4  5  1  0
  5  6  1  0
  6  7  1  0
  7  8  2  0
  8  9  1  0
  9 10  1  0
 10 11  1  0
 11 12  1  0
 12 13  1  0
 13 14  2  0
 14 15  1  0
 15 16  2  0
 16 17  1  0
 17 18  2  0
 18 19  1  0
  9 20  2  0
 20 21  1  0
 21 22  1  0
 22 23  1  0
 23 24  1  0
 24 25  1  0
 25 26  2  0
 26 27  1  0
 27 28  2  0
 28 29  1  0
 29 30  2  0
 30 31  1  0
 21 32  2  0
  6 33  1  0
 33 34  1  0
 34 35  1  0
 35  4  1  0
 32  7  1  0
 19 10  1  0
 31 22  1  0
 18 13  1  0
 30 25  1  0
  1 36  1  0
  1 37  1  0
  1 38  1  0
  2 39  1  0
  2 40  1  0
  3 41  1  0
  4 42  1  6
  5 43  1  0
  5 44  1  0
 11 45  1  0
 11 46  1  0
 12 47  1  0
 12 48  1  0
 14 49  1  0
 15 50  1  0
 16 51  1  0
 17 52  1  0
 19 53  1  0
 19 54  1  0
 23 55  1  0
 23 56  1  0
 24 57  1  0
 24 58  1  0
 26 59  1  0
 27 60  1  0
 28 61  1  0
 29 62  1  0
 31 63  1  0
 31 64  1  0
 33 65  1  0
 33 66  1  0
 34 67  1  0
 34 68  1  0
M  END
>  <smiles>  (44) 
CCNC1CN(c2nc(N3CCc4ccccc4C3)nc(N3CCc4ccccc4C3)n2)CCO1

>  <score_type>  (44) 
oracle

>  <origin>  (44) 
autodockgpu

>  <m_score__min__energy>  (44) 
-10.48

>  <m_primary>  (44) 
energy

>  <rmsd>  (44) 
6.68962159787455

>  <m_score__min__rmsd>  (44) 
6.68962159787455

>  <meeko>  (44) 
{"free_energy": -9.86, "intermolecular_energy": -11.35, "internal_energy": -1.03, "cluster_size": 47, "cluster_id": 1, "rank_in_cluster": 31}

>  <energy>  (44) 
-9.57

>  <cluster_rmsd>  (44) 
1.34

>  <cluster>  (44) 
1

$$$$

     RDKit          3D

 68 73  0  0  0  0  0  0  0  0999 V2000
  145.6710   68.6980  218.6170 C   0  0  0  0  0  0  0  0  0  0  0  0
  145.0630   69.3630  217.4160 C   0  0  0  0  0  0  0  0  0  0  0  0
  144.5080   70.6410  217.7450 N   0  0  0  0  0  0  0  0  0  0  0  0
  144.9910   71.1950  218.9840 C   0  0  2  0  0  0  0  0  0  0  0  0
  143.8180   71.4760  219.8620 C   0  0  0  0  0  0  0  0  0  0  0  0
  143.7620   72.8210  220.3810 N   0  0  0  0  0  0  0  0  0  0  0  0
  142.5600   73.2260  221.0420 C   0  0  0  0  0  0  0  0  0  0  0  0
  141.8720   72.3500  221.8250 N   0  0  0  0  0  0  0  0  0  0  0  0
  140.7460   72.6760  222.4660 C   0  0  0  0  0  0  0  0  0  0  0  0
  140.1180   71.6600  223.2590 N   0  0  0  0  0  0  0  0  0  0  0  0
  139.3060   70.6720  222.5810 C   0  0  0  0  0  0  0  0  0  0  0  0
  138.3110   70.0760  223.5720 C   0  0  0  0  0  0  0  0  0  0  0  0
  139.1490   69.4410  224.6360 C   0  0  0  0  0  0  0  0  0  0  0  0
  138.9450   68.1400  225.0420 C   0  0  0  0  0  0  0  0  0  0  0  0
  139.7520   67.6160  226.0270 C   0  0  0  0  0  0  0  0  0  0  0  0
  140.7420   68.4050  226.5830 C   0  0  0  0  0  0  0  0  0  0  0  0
  140.9280   69.6990  226.1630 C   0  0  0  0  0  0  0  0  0  0  0  0
  140.1390   70.2490  225.1810 C   0  0  0  0  0  0  0  0  0  0  0  0
  140.3210   71.6630  224.7030 C   0  0  0  0  0  0  0  0  0  0  0  0
  140.2580   73.9080  222.3430 N   0  0  0  0  0  0  0  0  0  0  0  0
  140.9310   74.7950  221.5650 C   0  0  0  0  0  0  0  0  0  0  0  0
  140.4460   76.1440  221.3980 N   0  0  0  0  0  0  0  0  0  0  0  0
  139.0430   76.4670  221.5690 C   0  0  0  0  0  0  0  0  0  0  0  0
  138.9090   77.4810  222.6850 C   0  0  0  0  0  0  0  0  0  0  0  0
  139.7160   78.6650  222.2690 C   0  0  0  0  0  0  0  0  0  0  0  0
  139.2800   79.9080  222.6700 C   0  0  0  0  0  0  0  0  0  0  0  0
  139.9650   81.0690  222.3320 C   0  0  0  0  0  0  0  0  0  0  0  0
  141.1150   80.9230  221.5680 C   0  0  0  0  0  0  0  0  0  0  0  0
  141.5420   79.6550  221.1700 C   0  0  0  0  0  0  0  0  0  0  0  0
  140.8610   78.5230  221.5080 C   0  0  0  0  0  0  0  0  0  0  0  0
  141.3690   77.2050  221.0540 C   0  0  0  0  0  0  0  0  0  0  0  0
  142.0650   74.4640  220.9220 N   0  0  0  0  0  0  0  0  0  0  0  0
  144.8470   73.7770  220.2700 C   0  0  0  0  0  0  0  0  0  0  0  0
  146.0780   73.0290  219.8650 C   0  0  0  0  0  0  0  0  0  0  0  0
  145.7850   72.2860  218.7240 O   0  0  0  0  0  0  0  0  0  0  0  0
  145.2597   69.1478  219.5327 H   0  0  0  0  0  0  0  0  0  0  0  0
  145.4365   67.6234  218.5991 H   0  0  0  0  0  0  0  0  0  0  0  0
  146.7622   68.8355  218.5991 H   0  0  0  0  0  0  0  0  0  0  0  0
  145.8415   69.4983  216.6507 H   0  0  0  0  0  0  0  0  0  0  0  0
  144.2513   68.7217  217.0420 H   0  0  0  0  0  0  0  0  0  0  0  0
  143.5000   70.7410  217.5750 H   0  0  0  0  0  0  0  0  0  0  0  0
  145.6340   70.4881  219.5289 H   0  0  0  0  0  0  0  0  0  0  0  0
  142.9027   71.2952  219.2793 H   0  0  0  0  0  0  0  0  0  0  0  0
  143.9152   70.8108  220.7327 H   0  0  0  0  0  0  0  0  0  0  0  0
  138.7604   71.1490  221.7535 H   0  0  0  0  0  0  0  0  0  0  0  0
  139.9503   69.8759  222.1797 H   0  0  0  0  0  0  0  0  0  0  0  0
  137.6750   70.8642  224.0012 H   0  0  0  0  0  0  0  0  0  0  0  0
  137.6373   69.3508  223.0921 H   0  0  0  0  0  0  0  0  0  0  0  0
  138.1507   67.5302  224.5868 H   0  0  0  0  0  0  0  0  0  0  0  0
  139.6105   66.5799  226.3682 H   0  0  0  0  0  0  0  0  0  0  0  0
  141.3883   67.9912  227.3711 H   0  0  0  0  0  0  0  0  0  0  0  0
  141.7227   70.3064  226.6206 H   0  0  0  0  0  0  0  0  0  0  0  0
  139.5841   72.3217  225.1857 H   0  0  0  0  0  0  0  0  0  0  0  0
  141.3254   72.0340  224.9552 H   0  0  0  0  0  0  0  0  0  0  0  0
  138.6444   76.8901  220.6351 H   0  0  0  0  0  0  0  0  0  0  0  0
  138.4777   75.5574  221.8203 H   0  0  0  0  0  0  0  0  0  0  0  0
  137.8547   77.7654  222.8176 H   0  0  0  0  0  0  0  0  0  0  0  0
  139.2612   77.0719  223.6434 H   0  0  0  0  0  0  0  0  0  0  0  0
  138.3642   79.9842  223.2746 H   0  0  0  0  0  0  0  0  0  0  0  0
  139.6118   82.0593  222.6553 H   0  0  0  0  0  0  0  0  0  0  0  0
  141.6930   81.8117  221.2746 H   0  0  0  0  0  0  0  0  0  0  0  0
  142.4563   79.5662  220.5649 H   0  0  0  0  0  0  0  0  0  0  0  0
  141.5000   77.2272  219.9621 H   0  0  0  0  0  0  0  0  0  0  0  0
  142.3287   77.0092  221.5546 H   0  0  0  0  0  0  0  0  0  0  0  0
  144.6023   74.5338  219.5101 H   0  0  0  0  0  0  0  0  0  0  0  0
  145.0075   74.2884  221.2306 H   0  0  0  0  0  0  0  0  0  0  0  0
  146.8896   73.7390  219.6478 H   0  0  0  0  0  0  0  0  0  0  0  0
  146.3999   72.3619  220.6783 H   0  0  0  0  0  0  0  0  0  0  0  0
  1  2  1  0
  2  3  1  0
  3  4  1  0
  4  5  1  0
  5  6  1  0
  6  7  1  0
  7  8  2  0
  8  9  1  0
  9 10  1  0
 10 11  1  0
 11 12  1  0
 12 13  1  0
 13 14  2  0
 14 15  1  0
 15 16  2  0
 16 17  1  0
 17 18  2  0
 18 19  1  0
  9 20  2  0
 20 21  1  0
 21 22  1  0
 22 23  1  0
 23 24  1  0
 24 25  1  0
 25 26  2  0
 26 27  1  0
 27 28  2  0
 28 29  1  0
 29 30  2  0
 30 31  1  0
 21 32  2  0
  6 33  1  0
 33 34  1  0
 34 35  1  0
 35  4  1  0
 32  7  1  0
 19 10  1  0
 31 22  1  0
 18 13  1  0
 30 25  1  0
  1 36  1  0
  1 37  1  0
  1 38  1  0
  2 39  1  0
  2 40  1  0
  3 41  1  0
  4 42  1  1
  5 43  1  0
  5 44  1  0
 11 45  1  0
 11 46  1  0
 12 47  1  0
 12 48  1  0
 14 49  1  0
 15 50  1  0
 16 51  1  0
 17 52  1  0
 19 53  1  0
 19 54  1  0
 23 55  1  0
 23 56  1  0
 24 57  1  0
 24 58  1  0
 26 59  1  0
 27 60  1  0
 28 61  1  0
 29 62  1  0
 31 63  1  0
 31 64  1  0
 33 65  1  0
 33 66  1  0
 34 67  1  0
 34 68  1  0
M  END
>  <smiles>  (45) 
CCNC1CN(c2nc(N3CCc4ccccc4C3)nc(N3CCc4ccccc4C3)n2)CCO1

>  <score_type>  (45) 
oracle

>  <origin>  (45) 
autodockgpu

>  <m_score__min__energy>  (45) 
-10.48

>  <m_primary>  (45) 
energy

>  <rmsd>  (45) 
9.028941173940138

>  <m_score__min__rmsd>  (45) 
9.028941173940138

>  <meeko>  (45) 
{"free_energy": -9.26, "intermolecular_energy": -10.75, "internal_energy": -0.98, "cluster_size": 47, "cluster_id": 1, "rank_in_cluster": 47}

>  <energy>  (45) 
-9.56

>  <cluster_rmsd>  (45) 
1.3

>  <cluster>  (45) 
1

$$$$

     RDKit          3D

 68 73  0  0  0  0  0  0  0  0999 V2000
  143.6190   76.1320  216.8570 C   0  0  0  0  0  0  0  0  0  0  0  0
  143.9660   74.7790  216.3080 C   0  0  0  0  0  0  0  0  0  0  0  0
  144.9930   74.1450  217.0780 N   0  0  0  0  0  0  0  0  0  0  0  0
  144.5920   72.9030  217.6890 C   0  0  2  0  0  0  0  0  0  0  0  0
  143.3400   73.1430  218.4640 C   0  0  0  0  0  0  0  0  0  0  0  0
  143.3870   72.7070  219.8380 N   0  0  0  0  0  0  0  0  0  0  0  0
  142.3140   73.1030  220.6960 C   0  0  0  0  0  0  0  0  0  0  0  0
  141.7220   72.2010  221.5260 N   0  0  0  0  0  0  0  0  0  0  0  0
  140.7170   72.5190  222.3480 C   0  0  0  0  0  0  0  0  0  0  0  0
  140.1800   71.4750  223.1710 N   0  0  0  0  0  0  0  0  0  0  0  0
  139.5250   70.3620  222.5180 C   0  0  0  0  0  0  0  0  0  0  0  0
  138.5650   69.6990  223.5000 C   0  0  0  0  0  0  0  0  0  0  0  0
  139.4240   69.2260  224.6310 C   0  0  0  0  0  0  0  0  0  0  0  0
  139.3600   67.9320  225.1000 C   0  0  0  0  0  0  0  0  0  0  0  0
  140.1780   67.5620  226.1440 C   0  0  0  0  0  0  0  0  0  0  0  0
  141.0390   68.4930  226.6930 C   0  0  0  0  0  0  0  0  0  0  0  0
  141.0870   69.7780  226.2100 C   0  0  0  0  0  0  0  0  0  0  0  0
  140.2840   70.1760  225.1690 C   0  0  0  0  0  0  0  0  0  0  0  0
  140.3160   71.5760  224.6190 C   0  0  0  0  0  0  0  0  0  0  0  0
  140.2610   73.7680  222.3680 N   0  0  0  0  0  0  0  0  0  0  0  0
  140.8400   74.6820  221.5460 C   0  0  0  0  0  0  0  0  0  0  0  0
  140.3830   76.0510  221.5300 N   0  0  0  0  0  0  0  0  0  0  0  0
  138.9710   76.3740  221.4860 C   0  0  0  0  0  0  0  0  0  0  0  0
  138.6170   77.1820  222.7160 C   0  0  0  0  0  0  0  0  0  0  0  0
  139.4780   78.4000  222.6750 C   0  0  0  0  0  0  0  0  0  0  0  0
  138.9630   79.5650  223.1970 C   0  0  0  0  0  0  0  0  0  0  0  0
  139.6890   80.7490  223.2040 C   0  0  0  0  0  0  0  0  0  0  0  0
  140.9640   80.7100  222.6580 C   0  0  0  0  0  0  0  0  0  0  0  0
  141.4710   79.5200  222.1320 C   0  0  0  0  0  0  0  0  0  0  0  0
  140.7480   78.3640  222.1310 C   0  0  0  0  0  0  0  0  0  0  0  0
  141.3450   77.1320  221.5570 C   0  0  0  0  0  0  0  0  0  0  0  0
  141.8510   74.3590  220.7200 N   0  0  0  0  0  0  0  0  0  0  0  0
  144.4550   71.8970  220.3920 C   0  0  0  0  0  0  0  0  0  0  0  0
  145.2480   71.3390  219.2530 C   0  0  0  0  0  0  0  0  0  0  0  0
  145.6320   72.3940  218.4280 O   0  0  0  0  0  0  0  0  0  0  0  0
  143.6285   76.0951  217.9563 H   0  0  0  0  0  0  0  0  0  0  0  0
  144.3571   76.8694  216.5085 H   0  0  0  0  0  0  0  0  0  0  0  0
  142.6171   76.4232  216.5085 H   0  0  0  0  0  0  0  0  0  0  0  0
  143.0664   74.1462  216.3232 H   0  0  0  0  0  0  0  0  0  0  0  0
  144.3373   74.9096  215.2808 H   0  0  0  0  0  0  0  0  0  0  0  0
  145.5530   74.7710  217.6680 H   0  0  0  0  0  0  0  0  0  0  0  0
  144.3600   72.1317  216.9398 H   0  0  0  0  0  0  0  0  0  0  0  0
  143.1333   74.2234  218.4546 H   0  0  0  0  0  0  0  0  0  0  0  0
  142.5545   72.5469  217.9764 H   0  0  0  0  0  0  0  0  0  0  0  0
  138.9644   70.7261  221.6444 H   0  0  0  0  0  0  0  0  0  0  0  0
  140.2785   69.6318  222.1877 H   0  0  0  0  0  0  0  0  0  0  0  0
  137.8193   70.4236  223.8590 H   0  0  0  0  0  0  0  0  0  0  0  0
  138.0069   68.8731  223.0348 H   0  0  0  0  0  0  0  0  0  0  0  0
  138.6672   67.2069  224.6481 H   0  0  0  0  0  0  0  0  0  0  0  0
  140.1464   66.5352  226.5372 H   0  0  0  0  0  0  0  0  0  0  0  0
  141.6941   68.2014  227.5272 H   0  0  0  0  0  0  0  0  0  0  0  0
  141.7804   70.5008  226.6647 H   0  0  0  0  0  0  0  0  0  0  0  0
  139.4843   72.1633  225.0353 H   0  0  0  0  0  0  0  0  0  0  0  0
  141.2564   72.0792  224.8881 H   0  0  0  0  0  0  0  0  0  0  0  0
  138.7543   76.9623  220.5822 H   0  0  0  0  0  0  0  0  0  0  0  0
  138.3765   75.4488  221.4627 H   0  0  0  0  0  0  0  0  0  0  0  0
  137.5543   77.4651  222.6936 H   0  0  0  0  0  0  0  0  0  0  0  0
  138.7832   76.6041  223.6371 H   0  0  0  0  0  0  0  0  0  0  0  0
  137.9478   79.5580  223.6205 H   0  0  0  0  0  0  0  0  0  0  0  0
  139.2718   81.6763  223.6236 H   0  0  0  0  0  0  0  0  0  0  0  0
  141.5790   81.6218  222.6394 H   0  0  0  0  0  0  0  0  0  0  0  0
  142.4849   79.5150  221.7053 H   0  0  0  0  0  0  0  0  0  0  0  0
  141.6807   77.3400  220.5303 H   0  0  0  0  0  0  0  0  0  0  0  0
  142.1940   76.8287  222.1872 H   0  0  0  0  0  0  0  0  0  0  0  0
  145.1022   72.5174  221.0294 H   0  0  0  0  0  0  0  0  0  0  0  0
  144.0399   71.0831  221.0046 H   0  0  0  0  0  0  0  0  0  0  0  0
  146.1406   70.8244  219.6383 H   0  0  0  0  0  0  0  0  0  0  0  0
  144.6411   70.6171  218.6868 H   0  0  0  0  0  0  0  0  0  0  0  0
  1  2  1  0
  2  3  1  0
  3  4  1  0
  4  5  1  0
  5  6  1  0
  6  7  1  0
  7  8  2  0
  8  9  1  0
  9 10  1  0
 10 11  1  0
 11 12  1  0
 12 13  1  0
 13 14  2  0
 14 15  1  0
 15 16  2  0
 16 17  1  0
 17 18  2  0
 18 19  1  0
  9 20  2  0
 20 21  1  0
 21 22  1  0
 22 23  1  0
 23 24  1  0
 24 25  1  0
 25 26  2  0
 26 27  1  0
 27 28  2  0
 28 29  1  0
 29 30  2  0
 30 31  1  0
 21 32  2  0
  6 33  1  0
 33 34  1  0
 34 35  1  0
 35  4  1  0
 32  7  1  0
 19 10  1  0
 31 22  1  0
 18 13  1  0
 30 25  1  0
  1 36  1  0
  1 37  1  0
  1 38  1  0
  2 39  1  0
  2 40  1  0
  3 41  1  0
  4 42  1  6
  5 43  1  0
  5 44  1  0
 11 45  1  0
 11 46  1  0
 12 47  1  0
 12 48  1  0
 14 49  1  0
 15 50  1  0
 16 51  1  0
 17 52  1  0
 19 53  1  0
 19 54  1  0
 23 55  1  0
 23 56  1  0
 24 57  1  0
 24 58  1  0
 26 59  1  0
 27 60  1  0
 28 61  1  0
 29 62  1  0
 31 63  1  0
 31 64  1  0
 33 65  1  0
 33 66  1  0
 34 67  1  0
 34 68  1  0
M  END
>  <smiles>  (46) 
CCNC1CN(c2nc(N3CCc4ccccc4C3)nc(N3CCc4ccccc4C3)n2)CCO1

>  <score_type>  (46) 
oracle

>  <origin>  (46) 
autodockgpu

>  <m_score__min__energy>  (46) 
-10.48

>  <m_primary>  (46) 
energy

>  <rmsd>  (46) 
6.661625327046864

>  <m_score__min__rmsd>  (46) 
6.661625327046864

>  <meeko>  (46) 
{"free_energy": -9.8, "intermolecular_energy": -11.29, "internal_energy": -1.04, "cluster_size": 47, "cluster_id": 1, "rank_in_cluster": 39}

>  <energy>  (46) 
-9.56

>  <cluster_rmsd>  (46) 
1.31

>  <cluster>  (46) 
1

$$$$

     RDKit          3D

 68 73  0  0  0  0  0  0  0  0999 V2000
  146.6890   73.3910  222.0390 C   0  0  0  0  0  0  0  0  0  0  0  0
  146.4380   73.6650  220.5850 C   0  0  0  0  0  0  0  0  0  0  0  0
  146.3120   72.4530  219.8330 N   0  0  0  0  0  0  0  0  0  0  0  0
  145.0970   72.3580  219.0640 C   0  0  2  0  0  0  0  0  0  0  0  0
  143.9990   73.0060  219.8390 C   0  0  0  0  0  0  0  0  0  0  0  0
  142.8260   72.1870  220.0230 N   0  0  0  0  0  0  0  0  0  0  0  0
  141.8300   72.6530  220.9380 C   0  0  0  0  0  0  0  0  0  0  0  0
  141.3020   71.8150  221.8720 N   0  0  0  0  0  0  0  0  0  0  0  0
  140.3710   72.1990  222.7510 C   0  0  0  0  0  0  0  0  0  0  0  0
  139.8960   71.2190  223.6820 N   0  0  0  0  0  0  0  0  0  0  0  0
  139.1650   70.0830  223.1610 C   0  0  0  0  0  0  0  0  0  0  0  0
  138.2890   69.5010  224.2660 C   0  0  0  0  0  0  0  0  0  0  0  0
  139.2410   69.0780  225.3410 C   0  0  0  0  0  0  0  0  0  0  0  0
  139.1990   67.8160  225.8930 C   0  0  0  0  0  0  0  0  0  0  0  0
  140.1040   67.4910  226.8790 C   0  0  0  0  0  0  0  0  0  0  0  0
  141.0270   68.4350  227.2890 C   0  0  0  0  0  0  0  0  0  0  0  0
  141.0510   69.6880  226.7240 C   0  0  0  0  0  0  0  0  0  0  0  0
  140.1620   70.0400  225.7380 C   0  0  0  0  0  0  0  0  0  0  0  0
  140.1650   71.4030  225.1030 C   0  0  0  0  0  0  0  0  0  0  0  0
  139.9280   73.4540  222.7260 N   0  0  0  0  0  0  0  0  0  0  0  0
  140.4450   74.3040  221.8010 C   0  0  0  0  0  0  0  0  0  0  0  0
  140.0000   75.6760  221.7320 N   0  0  0  0  0  0  0  0  0  0  0  0
  138.6110   76.0050  221.4840 C   0  0  0  0  0  0  0  0  0  0  0  0
  138.0820   76.8020  222.6570 C   0  0  0  0  0  0  0  0  0  0  0  0
  138.9430   78.0160  222.7560 C   0  0  0  0  0  0  0  0  0  0  0  0
  138.3600   79.1780  223.2100 C   0  0  0  0  0  0  0  0  0  0  0  0
  139.0810   80.3590  223.3360 C   0  0  0  0  0  0  0  0  0  0  0  0
  140.4230   80.3200  222.9840 C   0  0  0  0  0  0  0  0  0  0  0  0
  140.9980   79.1330  222.5260 C   0  0  0  0  0  0  0  0  0  0  0  0
  140.2800   77.9800  222.4060 C   0  0  0  0  0  0  0  0  0  0  0  0
  140.9510   76.7520  221.9130 C   0  0  0  0  0  0  0  0  0  0  0  0
  141.3820   73.9140  220.9180 N   0  0  0  0  0  0  0  0  0  0  0  0
  142.6040   70.9280  219.3390 C   0  0  0  0  0  0  0  0  0  0  0  0
  143.5860   70.8360  218.2150 C   0  0  0  0  0  0  0  0  0  0  0  0
  144.8630   71.0460  218.7300 O   0  0  0  0  0  0  0  0  0  0  0  0
  146.0716   74.0650  222.6510 H   0  0  0  0  0  0  0  0  0  0  0  0
  146.4274   72.3469  222.2659 H   0  0  0  0  0  0  0  0  0  0  0  0
  147.7520   73.5603  222.2659 H   0  0  0  0  0  0  0  0  0  0  0  0
  145.5081   74.2442  220.4865 H   0  0  0  0  0  0  0  0  0  0  0  0
  147.2960   74.2277  220.1884 H   0  0  0  0  0  0  0  0  0  0  0  0
  146.5970   71.5980  220.3230 H   0  0  0  0  0  0  0  0  0  0  0  0
  145.1715   72.8952  218.1070 H   0  0  0  0  0  0  0  0  0  0  0  0
  144.3909   73.2711  220.8320 H   0  0  0  0  0  0  0  0  0  0  0  0
  143.6787   73.8797  219.2525 H   0  0  0  0  0  0  0  0  0  0  0  0
  138.5320   70.4064  222.3215 H   0  0  0  0  0  0  0  0  0  0  0  0
  139.8726   69.3180  222.8087 H   0  0  0  0  0  0  0  0  0  0  0  0
  137.5915   70.2619  224.6462 H   0  0  0  0  0  0  0  0  0  0  0  0
  137.6770   68.6611  223.9055 H   0  0  0  0  0  0  0  0  0  0  0  0
  138.4553   67.0807  225.5519 H   0  0  0  0  0  0  0  0  0  0  0  0
  140.0925   66.4903  227.3357 H   0  0  0  0  0  0  0  0  0  0  0  0
  141.7511   68.1804  228.0770 H   0  0  0  0  0  0  0  0  0  0  0  0
  141.7952   70.4215  227.0676 H   0  0  0  0  0  0  0  0  0  0  0  0
  139.3838   72.0311  225.5559 H   0  0  0  0  0  0  0  0  0  0  0  0
  141.1336   71.9016  225.2549 H   0  0  0  0  0  0  0  0  0  0  0  0
  138.5312   76.6033  220.5644 H   0  0  0  0  0  0  0  0  0  0  0  0
  138.0240   75.0825  221.3635 H   0  0  0  0  0  0  0  0  0  0  0  0
  137.0350   77.0901  222.4814 H   0  0  0  0  0  0  0  0  0  0  0  0
  138.1088   76.2141  223.5863 H   0  0  0  0  0  0  0  0  0  0  0  0
  137.2938   79.1710  223.4805 H   0  0  0  0  0  0  0  0  0  0  0  0
  138.6091   81.2841  223.6987 H   0  0  0  0  0  0  0  0  0  0  0  0
  141.0368   81.2291  223.0663 H   0  0  0  0  0  0  0  0  0  0  0  0
  142.0637   79.1278  222.2534 H   0  0  0  0  0  0  0  0  0  0  0  0
  141.4354   76.9693  220.9496 H   0  0  0  0  0  0  0  0  0  0  0  0
  141.6966   76.4379  222.6582 H   0  0  0  0  0  0  0  0  0  0  0  0
  142.7557   70.0916  220.0372 H   0  0  0  0  0  0  0  0  0  0  0  0
  141.5749   70.8776  218.9537 H   0  0  0  0  0  0  0  0  0  0  0  0
  143.5306   69.8390  217.7537 H   0  0  0  0  0  0  0  0  0  0  0  0
  143.3574   71.5925  217.4499 H   0  0  0  0  0  0  0  0  0  0  0  0
  1  2  1  0
  2  3  1  0
  3  4  1  0
  4  5  1  0
  5  6  1  0
  6  7  1  0
  7  8  2  0
  8  9  1  0
  9 10  1  0
 10 11  1  0
 11 12  1  0
 12 13  1  0
 13 14  2  0
 14 15  1  0
 15 16  2  0
 16 17  1  0
 17 18  2  0
 18 19  1  0
  9 20  2  0
 20 21  1  0
 21 22  1  0
 22 23  1  0
 23 24  1  0
 24 25  1  0
 25 26  2  0
 26 27  1  0
 27 28  2  0
 28 29  1  0
 29 30  2  0
 30 31  1  0
 21 32  2  0
  6 33  1  0
 33 34  1  0
 34 35  1  0
 35  4  1  0
 32  7  1  0
 19 10  1  0
 31 22  1  0
 18 13  1  0
 30 25  1  0
  1 36  1  0
  1 37  1  0
  1 38  1  0
  2 39  1  0
  2 40  1  0
  3 41  1  0
  4 42  1  6
  5 43  1  0
  5 44  1  0
 11 45  1  0
 11 46  1  0
 12 47  1  0
 12 48  1  0
 14 49  1  0
 15 50  1  0
 16 51  1  0
 17 52  1  0
 19 53  1  0
 19 54  1  0
 23 55  1  0
 23 56  1  0
 24 57  1  0
 24 58  1  0
 26 59  1  0
 27 60  1  0
 28 61  1  0
 29 62  1  0
 31 63  1  0
 31 64  1  0
 33 65  1  0
 33 66  1  0
 34 67  1  0
 34 68  1  0
M  END
>  <smiles>  (47) 
CCNC1CN(c2nc(N3CCc4ccccc4C3)nc(N3CCc4ccccc4C3)n2)CCO1

>  <score_type>  (47) 
oracle

>  <origin>  (47) 
autodockgpu

>  <m_score__min__energy>  (47) 
-10.48

>  <m_primary>  (47) 
energy

>  <rmsd>  (47) 
6.586726982410074

>  <m_score__min__rmsd>  (47) 
6.586726982410074

>  <meeko>  (47) 
{"free_energy": -10.46, "intermolecular_energy": -11.95, "internal_energy": -1.02, "cluster_size": 47, "cluster_id": 1, "rank_in_cluster": 5}

>  <energy>  (47) 
-9.26

>  <cluster_rmsd>  (47) 
1.41

>  <cluster>  (47) 
1

$$$$

     RDKit          3D

 68 73  0  0  0  0  0  0  0  0999 V2000
  143.6730   76.1010  217.1600 C   0  0  0  0  0  0  0  0  0  0  0  0
  143.7550   74.7070  216.6120 C   0  0  0  0  0  0  0  0  0  0  0  0
  144.9810   74.0660  216.9790 N   0  0  0  0  0  0  0  0  0  0  0  0
  144.8210   72.9560  217.8830 C   0  0  2  0  0  0  0  0  0  0  0  0
  143.5310   73.1280  218.6130 C   0  0  0  0  0  0  0  0  0  0  0  0
  143.6380   73.0550  220.0510 N   0  0  0  0  0  0  0  0  0  0  0  0
  142.4910   73.4310  220.8190 C   0  0  0  0  0  0  0  0  0  0  0  0
  141.8420   72.5130  221.5860 N   0  0  0  0  0  0  0  0  0  0  0  0
  140.7670   72.8110  222.3240 C   0  0  0  0  0  0  0  0  0  0  0  0
  140.1750   71.7520  223.0870 N   0  0  0  0  0  0  0  0  0  0  0  0
  139.4450   70.7240  222.3750 C   0  0  0  0  0  0  0  0  0  0  0  0
  138.4560   70.0610  223.3280 C   0  0  0  0  0  0  0  0  0  0  0  0
  139.2950   69.4650  224.4150 C   0  0  0  0  0  0  0  0  0  0  0  0
  139.1550   68.1510  224.8030 C   0  0  0  0  0  0  0  0  0  0  0  0
  139.9600   67.6650  225.8100 C   0  0  0  0  0  0  0  0  0  0  0  0
  140.8830   68.5050  226.4030 C   0  0  0  0  0  0  0  0  0  0  0  0
  141.0060   69.8130  226.0000 C   0  0  0  0  0  0  0  0  0  0  0  0
  140.2180   70.3250  224.9980 C   0  0  0  0  0  0  0  0  0  0  0  0
  140.3320   71.7520  224.5370 C   0  0  0  0  0  0  0  0  0  0  0  0
  140.2960   74.0550  222.3180 N   0  0  0  0  0  0  0  0  0  0  0  0
  140.9320   74.9840  221.5580 C   0  0  0  0  0  0  0  0  0  0  0  0
  140.4630   76.3480  221.5170 N   0  0  0  0  0  0  0  0  0  0  0  0
  139.0470   76.6580  221.4960 C   0  0  0  0  0  0  0  0  0  0  0  0
  138.7120   77.4930  222.7120 C   0  0  0  0  0  0  0  0  0  0  0  0
  139.5610   78.7170  222.6220 C   0  0  0  0  0  0  0  0  0  0  0  0
  139.0460   79.8900  223.1260 C   0  0  0  0  0  0  0  0  0  0  0  0
  139.7610   81.0800  223.0880 C   0  0  0  0  0  0  0  0  0  0  0  0
  141.0250   81.0390  222.5150 C   0  0  0  0  0  0  0  0  0  0  0  0
  141.5320   79.8400  222.0090 C   0  0  0  0  0  0  0  0  0  0  0  0
  140.8190   78.6780  222.0520 C   0  0  0  0  0  0  0  0  0  0  0  0
  141.4150   77.4380  221.4970 C   0  0  0  0  0  0  0  0  0  0  0  0
  142.0130   74.6810  220.8170 N   0  0  0  0  0  0  0  0  0  0  0  0
  144.8330   72.6290  220.7520 C   0  0  0  0  0  0  0  0  0  0  0  0
  145.7410   71.9770  219.7580 C   0  0  0  0  0  0  0  0  0  0  0  0
  145.9270   72.8540  218.6920 O   0  0  0  0  0  0  0  0  0  0  0  0
  143.6752   76.0635  218.2594 H   0  0  0  0  0  0  0  0  0  0  0  0
  144.5384   76.6836  216.8112 H   0  0  0  0  0  0  0  0  0  0  0  0
  142.7452   76.5781  216.8112 H   0  0  0  0  0  0  0  0  0  0  0  0
  142.9131   74.1188  217.0061 H   0  0  0  0  0  0  0  0  0  0  0  0
  143.7140   74.7667  215.5144 H   0  0  0  0  0  0  0  0  0  0  0  0
  145.7650   74.6970  217.1830 H   0  0  0  0  0  0  0  0  0  0  0  0
  144.7601   71.9957  217.3501 H   0  0  0  0  0  0  0  0  0  0  0  0
  143.1167   74.1124  218.3496 H   0  0  0  0  0  0  0  0  0  0  0  0
  142.8861   72.2913  218.3062 H   0  0  0  0  0  0  0  0  0  0  0  0
  138.8990   71.1759  221.5338 H   0  0  0  0  0  0  0  0  0  0  0  0
  140.1480   69.9712  221.9889 H   0  0  0  0  0  0  0  0  0  0  0  0
  137.7611   70.8064  223.7423 H   0  0  0  0  0  0  0  0  0  0  0  0
  137.8426   69.3021  222.8202 H   0  0  0  0  0  0  0  0  0  0  0  0
  138.4129   67.5004  224.3171 H   0  0  0  0  0  0  0  0  0  0  0  0
  139.8689   66.6191  226.1385 H   0  0  0  0  0  0  0  0  0  0  0  0
  141.5275   68.1219  227.2079 H   0  0  0  0  0  0  0  0  0  0  0  0
  141.7484   70.4614  226.4883 H   0  0  0  0  0  0  0  0  0  0  0  0
  139.5431   72.3620  225.0013 H   0  0  0  0  0  0  0  0  0  0  0  0
  141.3048   72.1779  224.8239 H   0  0  0  0  0  0  0  0  0  0  0  0
  138.8056   77.2216  220.5827 H   0  0  0  0  0  0  0  0  0  0  0  0
  138.4607   75.7273  221.5090 H   0  0  0  0  0  0  0  0  0  0  0  0
  137.6465   77.7664  222.7053 H   0  0  0  0  0  0  0  0  0  0  0  0
  138.9028   76.9399  223.6435 H   0  0  0  0  0  0  0  0  0  0  0  0
  138.0402   79.8846  223.5712 H   0  0  0  0  0  0  0  0  0  0  0  0
  139.3444   82.0136  223.4939 H   0  0  0  0  0  0  0  0  0  0  0  0
  141.6304   81.9558  222.4592 H   0  0  0  0  0  0  0  0  0  0  0  0
  142.5371   79.8326  221.5621 H   0  0  0  0  0  0  0  0  0  0  0  0
  141.7274   77.6231  220.4587 H   0  0  0  0  0  0  0  0  0  0  0  0
  142.2795   77.1582  222.1169 H   0  0  0  0  0  0  0  0  0  0  0  0
  145.3336   73.4997  221.2007 H   0  0  0  0  0  0  0  0  0  0  0  0
  144.5750   71.9237  221.5557 H   0  0  0  0  0  0  0  0  0  0  0  0
  146.7096   71.7545  220.2295 H   0  0  0  0  0  0  0  0  0  0  0  0
  145.2973   71.0360  219.4007 H   0  0  0  0  0  0  0  0  0  0  0  0
  1  2  1  0
  2  3  1  0
  3  4  1  0
  4  5  1  0
  5  6  1  0
  6  7  1  0
  7  8  2  0
  8  9  1  0
  9 10  1  0
 10 11  1  0
 11 12  1  0
 12 13  1  0
 13 14  2  0
 14 15  1  0
 15 16  2  0
 16 17  1  0
 17 18  2  0
 18 19  1  0
  9 20  2  0
 20 21  1  0
 21 22  1  0
 22 23  1  0
 23 24  1  0
 24 25  1  0
 25 26  2  0
 26 27  1  0
 27 28  2  0
 28 29  1  0
 29 30  2  0
 30 31  1  0
 21 32  2  0
  6 33  1  0
 33 34  1  0
 34 35  1  0
 35  4  1  0
 32  7  1  0
 19 10  1  0
 31 22  1  0
 18 13  1  0
 30 25  1  0
  1 36  1  0
  1 37  1  0
  1 38  1  0
  2 39  1  0
  2 40  1  0
  3 41  1  0
  4 42  1  6
  5 43  1  0
  5 44  1  0
 11 45  1  0
 11 46  1  0
 12 47  1  0
 12 48  1  0
 14 49  1  0
 15 50  1  0
 16 51  1  0
 17 52  1  0
 19 53  1  0
 19 54  1  0
 23 55  1  0
 23 56  1  0
 24 57  1  0
 24 58  1  0
 26 59  1  0
 27 60  1  0
 28 61  1  0
 29 62  1  0
 31 63  1  0
 31 64  1  0
 33 65  1  0
 33 66  1  0
 34 67  1  0
 34 68  1  0
M  END
>  <smiles>  (48) 
CCNC1CN(c2nc(N3CCc4ccccc4C3)nc(N3CCc4ccccc4C3)n2)CCO1

>  <score_type>  (48) 
oracle

>  <origin>  (48) 
autodockgpu

>  <m_score__min__energy>  (48) 
-10.48

>  <m_primary>  (48) 
energy

>  <rmsd>  (48) 
6.630234422443723

>  <m_score__min__rmsd>  (48) 
6.630234422443723

>  <meeko>  (48) 
{"free_energy": -9.88, "intermolecular_energy": -11.37, "internal_energy": -1.1, "cluster_size": 47, "cluster_id": 1, "rank_in_cluster": 28}

>  <energy>  (48) 
-9.7

>  <cluster_rmsd>  (48) 
0.0

>  <cluster>  (48) 
2

$$$$

     RDKit          3D

 68 73  0  0  0  0  0  0  0  0999 V2000
  146.6500   73.3960  222.0690 C   0  0  0  0  0  0  0  0  0  0  0  0
  146.4440   73.7220  220.6190 C   0  0  0  0  0  0  0  0  0  0  0  0
  146.3050   72.5380  219.8260 N   0  0  0  0  0  0  0  0  0  0  0  0
  145.0840   72.4760  219.0640 C   0  0  2  0  0  0  0  0  0  0  0  0
  143.9990   73.1160  219.8630 C   0  0  0  0  0  0  0  0  0  0  0  0
  142.8170   72.3060  220.0340 N   0  0  0  0  0  0  0  0  0  0  0  0
  141.8330   72.7600  220.9680 C   0  0  0  0  0  0  0  0  0  0  0  0
  141.4390   74.0630  220.9810 N   0  0  0  0  0  0  0  0  0  0  0  0
  140.5240   74.5380  221.8300 C   0  0  0  0  0  0  0  0  0  0  0  0
  140.1980   75.9310  221.7410 N   0  0  0  0  0  0  0  0  0  0  0  0
  138.8740   76.3490  222.1490 C   0  0  0  0  0  0  0  0  0  0  0  0
  138.5350   77.6730  221.4730 C   0  0  0  0  0  0  0  0  0  0  0  0
  139.5730   78.6380  221.9540 C   0  0  0  0  0  0  0  0  0  0  0  0
  139.2340   79.8640  222.4840 C   0  0  0  0  0  0  0  0  0  0  0  0
  140.2390   80.7050  222.9080 C   0  0  0  0  0  0  0  0  0  0  0  0
  141.5550   80.3000  222.7930 C   0  0  0  0  0  0  0  0  0  0  0  0
  141.8700   79.0730  222.2630 C   0  0  0  0  0  0  0  0  0  0  0  0
  140.8900   78.2120  221.8310 C   0  0  0  0  0  0  0  0  0  0  0  0
  141.2060   76.8630  221.2470 C   0  0  0  0  0  0  0  0  0  0  0  0
  139.9620   73.7150  222.7120 N   0  0  0  0  0  0  0  0  0  0  0  0
  140.3430   72.4110  222.7140 C   0  0  0  0  0  0  0  0  0  0  0  0
  139.7650   71.4770  223.6500 N   0  0  0  0  0  0  0  0  0  0  0  0
  138.7210   70.5560  223.2480 C   0  0  0  0  0  0  0  0  0  0  0  0
  139.2080   69.1400  223.4670 C   0  0  0  0  0  0  0  0  0  0  0  0
  139.5300   69.0320  224.9200 C   0  0  0  0  0  0  0  0  0  0  0  0
  139.3360   67.8120  225.5280 C   0  0  0  0  0  0  0  0  0  0  0  0
  139.6080   67.6140  226.8760 C   0  0  0  0  0  0  0  0  0  0  0  0
  140.0860   68.7040  227.5900 C   0  0  0  0  0  0  0  0  0  0  0  0
  140.2760   69.9340  226.9570 C   0  0  0  0  0  0  0  0  0  0  0  0
  140.0060   70.1160  225.6330 C   0  0  0  0  0  0  0  0  0  0  0  0
  140.2310   71.4480  225.0200 C   0  0  0  0  0  0  0  0  0  0  0  0
  141.2650   71.9360  221.8570 N   0  0  0  0  0  0  0  0  0  0  0  0
  142.5750   71.0690  219.3190 C   0  0  0  0  0  0  0  0  0  0  0  0
  143.5490   70.9950  218.1850 C   0  0  0  0  0  0  0  0  0  0  0  0
  144.8320   71.1760  218.6970 O   0  0  0  0  0  0  0  0  0  0  0  0
  146.1650   74.1636  222.6899 H   0  0  0  0  0  0  0  0  0  0  0  0
  146.2088   72.4129  222.2901 H   0  0  0  0  0  0  0  0  0  0  0  0
  147.7273   73.3725  222.2901 H   0  0  0  0  0  0  0  0  0  0  0  0
  145.5328   74.3295  220.5159 H   0  0  0  0  0  0  0  0  0  0  0  0
  147.3266   74.2729  220.2620 H   0  0  0  0  0  0  0  0  0  0  0  0
  146.5880   71.6630  220.2840 H   0  0  0  0  0  0  0  0  0  0  0  0
  145.1587   73.0367  218.1206 H   0  0  0  0  0  0  0  0  0  0  0  0
  144.4006   73.3505  220.8599 H   0  0  0  0  0  0  0  0  0  0  0  0
  143.6851   74.0083  219.3014 H   0  0  0  0  0  0  0  0  0  0  0  0
  138.1396   75.5858  221.8521 H   0  0  0  0  0  0  0  0  0  0  0  0
  138.8466   76.4745  223.2415 H   0  0  0  0  0  0  0  0  0  0  0  0
  138.5818   77.5702  220.3788 H   0  0  0  0  0  0  0  0  0  0  0  0
  137.5167   78.0098  221.7174 H   0  0  0  0  0  0  0  0  0  0  0  0
  138.1794   80.1657  222.5670 H   0  0  0  0  0  0  0  0  0  0  0  0
  139.9963   81.6896  223.3341 H   0  0  0  0  0  0  0  0  0  0  0  0
  142.3605   80.9689  223.1302 H   0  0  0  0  0  0  0  0  0  0  0  0
  142.9255   78.7740  222.1828 H   0  0  0  0  0  0  0  0  0  0  0  0
  141.1694   76.9101  220.1486 H   0  0  0  0  0  0  0  0  0  0  0  0
  142.2150   76.5377  221.5402 H   0  0  0  0  0  0  0  0  0  0  0  0
  137.8187   70.7340  223.8514 H   0  0  0  0  0  0  0  0  0  0  0  0
  138.4781   70.7073  222.1859 H   0  0  0  0  0  0  0  0  0  0  0  0
  138.4219   68.4199  223.1958 H   0  0  0  0  0  0  0  0  0  0  0  0
  140.0863   68.9167  222.8435 H   0  0  0  0  0  0  0  0  0  0  0  0
  138.9552   66.9709  224.9300 H   0  0  0  0  0  0  0  0  0  0  0  0
  139.4515   66.6367  227.3561 H   0  0  0  0  0  0  0  0  0  0  0  0
  140.3164   68.5983  228.6604 H   0  0  0  0  0  0  0  0  0  0  0  0
  140.6554   70.7828  227.5449 H   0  0  0  0  0  0  0  0  0  0  0  0
  139.6866   72.2072  225.6007 H   0  0  0  0  0  0  0  0  0  0  0  0
  141.3109   71.6572  225.0260 H   0  0  0  0  0  0  0  0  0  0  0  0
  142.7211   70.2126  219.9937 H   0  0  0  0  0  0  0  0  0  0  0  0
  141.5427   71.0412  218.9399 H   0  0  0  0  0  0  0  0  0  0  0  0
  143.4784   70.0113  217.6978 H   0  0  0  0  0  0  0  0  0  0  0  0
  143.3245   71.7740  217.4415 H   0  0  0  0  0  0  0  0  0  0  0  0
  1  2  1  0
  2  3  1  0
  3  4  1  0
  4  5  1  0
  5  6  1  0
  6  7  1  0
  7  8  2  0
  8  9  1  0
  9 10  1  0
 10 11  1  0
 11 12  1  0
 12 13  1  0
 13 14  2  0
 14 15  1  0
 15 16  2  0
 16 17  1  0
 17 18  2  0
 18 19  1  0
  9 20  2  0
 20 21  1  0
 21 22  1  0
 22 23  1  0
 23 24  1  0
 24 25  1  0
 25 26  2  0
 26 27  1  0
 27 28  2  0
 28 29  1  0
 29 30  2  0
 30 31  1  0
 21 32  2  0
  6 33  1  0
 33 34  1  0
 34 35  1  0
 35  4  1  0
 32  7  1  0
 19 10  1  0
 31 22  1  0
 18 13  1  0
 30 25  1  0
  1 36  1  0
  1 37  1  0
  1 38  1  0
  2 39  1  0
  2 40  1  0
  3 41  1  0
  4 42  1  6
  5 43  1  0
  5 44  1  0
 11 45  1  0
 11 46  1  0
 12 47  1  0
 12 48  1  0
 14 49  1  0
 15 50  1  0
 16 51  1  0
 17 52  1  0
 19 53  1  0
 19 54  1  0
 23 55  1  0
 23 56  1  0
 24 57  1  0
 24 58  1  0
 26 59  1  0
 27 60  1  0
 28 61  1  0
 29 62  1  0
 31 63  1  0
 31 64  1  0
 33 65  1  0
 33 66  1  0
 34 67  1  0
 34 68  1  0
M  END
>  <smiles>  (49) 
CCNC1CN(c2nc(N3CCc4ccccc4C3)nc(N3CCc4ccccc4C3)n2)CCO1

>  <score_type>  (49) 
oracle

>  <origin>  (49) 
autodockgpu

>  <m_score__min__energy>  (49) 
-10.48

>  <m_primary>  (49) 
energy

>  <rmsd>  (49) 
6.515360971303694

>  <m_score__min__rmsd>  (49) 
6.515360971303694

>  <meeko>  (49) 
{"free_energy": -10.28, "intermolecular_energy": -11.78, "internal_energy": -1.04, "cluster_size": 47, "cluster_id": 1, "rank_in_cluster": 12}

>  <energy>  (49) 
-9.64

>  <cluster_rmsd>  (49) 
0.32

>  <cluster>  (49) 
2

$$$$

     RDKit          3D

 68 73  0  0  0  0  0  0  0  0999 V2000
  146.3880   73.1810  221.8470 C   0  0  0  0  0  0  0  0  0  0  0  0
  146.0910   74.0680  220.6730 C   0  0  0  0  0  0  0  0  0  0  0  0
  146.3250   73.3950  219.4310 N   0  0  0  0  0  0  0  0  0  0  0  0
  145.1820   72.6830  218.9190 C   0  0  2  0  0  0  0  0  0  0  0  0
  143.9610   73.2090  219.5950 C   0  0  0  0  0  0  0  0  0  0  0  0
  143.1250   72.2010  220.2010 N   0  0  0  0  0  0  0  0  0  0  0  0
  142.0650   72.6440  221.0520 C   0  0  0  0  0  0  0  0  0  0  0  0
  141.4910   71.7910  221.9450 N   0  0  0  0  0  0  0  0  0  0  0  0
  140.4990   72.1540  222.7640 C   0  0  0  0  0  0  0  0  0  0  0  0
  139.9810   71.1590  223.6570 N   0  0  0  0  0  0  0  0  0  0  0  0
  139.2860   70.0260  223.0850 C   0  0  0  0  0  0  0  0  0  0  0  0
  138.3570   69.4260  224.1350 C   0  0  0  0  0  0  0  0  0  0  0  0
  139.2540   68.9940  225.2530 C   0  0  0  0  0  0  0  0  0  0  0  0
  139.1900   67.7260  225.7870 C   0  0  0  0  0  0  0  0  0  0  0  0
  140.0440   67.3930  226.8150 C   0  0  0  0  0  0  0  0  0  0  0  0
  140.9400   68.3360  227.2840 C   0  0  0  0  0  0  0  0  0  0  0  0
  140.9860   69.5960  226.7370 C   0  0  0  0  0  0  0  0  0  0  0  0
  140.1470   69.9560  225.7100 C   0  0  0  0  0  0  0  0  0  0  0  0
  140.1760   71.3270  225.0920 C   0  0  0  0  0  0  0  0  0  0  0  0
  140.0370   73.4000  222.7180 N   0  0  0  0  0  0  0  0  0  0  0  0
  140.5980   74.2650  221.8330 C   0  0  0  0  0  0  0  0  0  0  0  0
  140.1340   75.6290  221.7420 N   0  0  0  0  0  0  0  0  0  0  0  0
  138.7340   75.9370  221.5270 C   0  0  0  0  0  0  0  0  0  0  0  0
  138.2300   76.7580  222.6940 C   0  0  0  0  0  0  0  0  0  0  0  0
  139.0790   77.9830  222.7370 C   0  0  0  0  0  0  0  0  0  0  0  0
  138.4960   79.1500  223.1780 C   0  0  0  0  0  0  0  0  0  0  0  0
  139.2060   80.3410  223.2530 C   0  0  0  0  0  0  0  0  0  0  0  0
  140.5370   80.3090  222.8630 C   0  0  0  0  0  0  0  0  0  0  0  0
  141.1130   79.1170  222.4180 C   0  0  0  0  0  0  0  0  0  0  0  0
  140.4060   77.9540  222.3490 C   0  0  0  0  0  0  0  0  0  0  0  0
  141.0770   76.7210  221.8680 C   0  0  0  0  0  0  0  0  0  0  0  0
  141.5960   73.8970  221.0100 N   0  0  0  0  0  0  0  0  0  0  0  0
  143.3020   70.7760  219.9990 C   0  0  0  0  0  0  0  0  0  0  0  0
  144.2210   70.5880  218.8330 C   0  0  0  0  0  0  0  0  0  0  0  0
  145.3770   71.3310  219.0620 O   0  0  0  0  0  0  0  0  0  0  0  0
  146.2030   73.7335  222.7800 H   0  0  0  0  0  0  0  0  0  0  0  0
  145.7376   72.2946  221.8106 H   0  0  0  0  0  0  0  0  0  0  0  0
  147.4410   72.8649  221.8106 H   0  0  0  0  0  0  0  0  0  0  0  0
  145.0366   74.3782  220.7178 H   0  0  0  0  0  0  0  0  0  0  0  0
  146.7597   74.9400  220.7230 H   0  0  0  0  0  0  0  0  0  0  0  0
  147.2250   72.9050  219.3560 H   0  0  0  0  0  0  0  0  0  0  0  0
  145.0440   72.8456  217.8399 H   0  0  0  0  0  0  0  0  0  0  0  0
  144.2796   73.9083  220.3821 H   0  0  0  0  0  0  0  0  0  0  0  0
  143.3537   73.6861  218.8117 H   0  0  0  0  0  0  0  0  0  0  0  0
  138.6961   70.3560  222.2172 H   0  0  0  0  0  0  0  0  0  0  0  0
  140.0159   69.2694  222.7614 H   0  0  0  0  0  0  0  0  0  0  0  0
  137.6365   70.1787  224.4876 H   0  0  0  0  0  0  0  0  0  0  0  0
  137.7692   68.5878  223.7326 H   0  0  0  0  0  0  0  0  0  0  0  0
  138.4689   66.9916  225.3989 H   0  0  0  0  0  0  0  0  0  0  0  0
  140.0136   66.3868  227.2585 H   0  0  0  0  0  0  0  0  0  0  0  0
  141.6242   68.0746  228.1047 H   0  0  0  0  0  0  0  0  0  0  0  0
  141.7069   70.3290  227.1281 H   0  0  0  0  0  0  0  0  0  0  0  0
  139.3696   71.9464  225.5116 H   0  0  0  0  0  0  0  0  0  0  0  0
  141.1332   71.8279  225.2993 H   0  0  0  0  0  0  0  0  0  0  0  0
  138.6206   76.5105  220.5952 H   0  0  0  0  0  0  0  0  0  0  0  0
  138.1545   75.0054  221.4477 H   0  0  0  0  0  0  0  0  0  0  0  0
  137.1751   77.0301  222.5417 H   0  0  0  0  0  0  0  0  0  0  0  0
  138.2905   76.1946  223.6368 H   0  0  0  0  0  0  0  0  0  0  0  0
  137.4381   79.1384  223.4793 H   0  0  0  0  0  0  0  0  0  0  0  0
  138.7336   81.2695  223.6063 H   0  0  0  0  0  0  0  0  0  0  0  0
  141.1417   81.2270  222.9045 H   0  0  0  0  0  0  0  0  0  0  0  0
  142.1701   79.1169  222.1138 H   0  0  0  0  0  0  0  0  0  0  0  0
  141.5307   76.9189  220.8857 H   0  0  0  0  0  0  0  0  0  0  0  0
  141.8472   76.4346  222.5993 H   0  0  0  0  0  0  0  0  0  0  0  0
  143.7426   70.3227  220.8992 H   0  0  0  0  0  0  0  0  0  0  0  0
  142.3329   70.2929  219.8052 H   0  0  0  0  0  0  0  0  0  0  0  0
  144.4776   69.5234  218.7297 H   0  0  0  0  0  0  0  0  0  0  0  0
  143.7317   70.9246  217.9071 H   0  0  0  0  0  0  0  0  0  0  0  0
  1  2  1  0
  2  3  1  0
  3  4  1  0
  4  5  1  0
  5  6  1  0
  6  7  1  0
  7  8  2  0
  8  9  1  0
  9 10  1  0
 10 11  1  0
 11 12  1  0
 12 13  1  0
 13 14  2  0
 14 15  1  0
 15 16  2  0
 16 17  1  0
 17 18  2  0
 18 19  1  0
  9 20  2  0
 20 21  1  0
 21 22  1  0
 22 23  1  0
 23 24  1  0
 24 25  1  0
 25 26  2  0
 26 27  1  0
 27 28  2  0
 28 29  1  0
 29 30  2  0
 30 31  1  0
 21 32  2  0
  6 33  1  0
 33 34  1  0
 34 35  1  0
 35  4  1  0
 32  7  1  0
 19 10  1  0
 31 22  1  0
 18 13  1  0
 30 25  1  0
  1 36  1  0
  1 37  1  0
  1 38  1  0
  2 39  1  0
  2 40  1  0
  3 41  1  0
  4 42  1  6
  5 43  1  0
  5 44  1  0
 11 45  1  0
 11 46  1  0
 12 47  1  0
 12 48  1  0
 14 49  1  0
 15 50  1  0
 16 51  1  0
 17 52  1  0
 19 53  1  0
 19 54  1  0
 23 55  1  0
 23 56  1  0
 24 57  1  0
 24 58  1  0
 26 59  1  0
 27 60  1  0
 28 61  1  0
 29 62  1  0
 31 63  1  0
 31 64  1  0
 33 65  1  0
 33 66  1  0
 34 67  1  0
 34 68  1  0
M  END
>  <smiles>  (50) 
CCNC1CN(c2nc(N3CCc4ccccc4C3)nc(N3CCc4ccccc4C3)n2)CCO1

>  <score_type>  (50) 
oracle

>  <origin>  (50) 
autodockgpu

>  <m_score__min__energy>  (50) 
-10.48

>  <m_primary>  (50) 
energy

>  <rmsd>  (50) 
6.700909048031851

>  <m_score__min__rmsd>  (50) 
6.700909048031851

>  <meeko>  (50) 
{"free_energy": -10.15, "intermolecular_energy": -11.64, "internal_energy": -1.13, "cluster_size": 47, "cluster_id": 1, "rank_in_cluster": 15}

>  <energy>  (50) 
-9.48

>  <cluster_rmsd>  (50) 
0.37

>  <cluster>  (50) 
2

$$$$

     RDKit          3D

 68 73  0  0  0  0  0  0  0  0999 V2000
  144.4700   75.3690  216.3080 C   0  0  0  0  0  0  0  0  0  0  0  0
  145.3160   74.2070  215.9050 C   0  0  0  0  0  0  0  0  0  0  0  0
  145.0040   72.9760  216.6050 N   0  0  0  0  0  0  0  0  0  0  0  0
  144.9250   73.3150  218.0130 C   0  0  1  0  0  0  0  0  0  0  0  0
  143.5540   73.0710  218.5800 C   0  0  0  0  0  0  0  0  0  0  0  0
  143.5270   73.0270  220.0060 N   0  0  0  0  0  0  0  0  0  0  0  0
  142.3860   73.2950  220.8090 C   0  0  0  0  0  0  0  0  0  0  0  0
  141.8230   72.3460  221.5770 N   0  0  0  0  0  0  0  0  0  0  0  0
  140.7310   72.5860  222.3490 C   0  0  0  0  0  0  0  0  0  0  0  0
  140.1750   71.5370  223.1480 N   0  0  0  0  0  0  0  0  0  0  0  0
  139.4800   70.4560  222.4690 C   0  0  0  0  0  0  0  0  0  0  0  0
  138.5160   69.7460  223.4020 C   0  0  0  0  0  0  0  0  0  0  0  0
  139.3310   69.2840  224.5830 C   0  0  0  0  0  0  0  0  0  0  0  0
  139.2020   68.0040  225.0710 C   0  0  0  0  0  0  0  0  0  0  0  0
  139.9640   67.6140  226.1520 C   0  0  0  0  0  0  0  0  0  0  0  0
  140.8350   68.5260  226.7100 C   0  0  0  0  0  0  0  0  0  0  0  0
  140.9550   69.8220  226.2040 C   0  0  0  0  0  0  0  0  0  0  0  0
  140.1900   70.2210  225.1140 C   0  0  0  0  0  0  0  0  0  0  0  0
  140.3260   71.6020  224.5870 C   0  0  0  0  0  0  0  0  0  0  0  0
  140.1910   73.8160  222.3480 N   0  0  0  0  0  0  0  0  0  0  0  0
  140.7310   74.7860  221.5900 C   0  0  0  0  0  0  0  0  0  0  0  0
  140.1960   76.1080  221.5530 N   0  0  0  0  0  0  0  0  0  0  0  0
  138.7680   76.3650  221.4260 C   0  0  0  0  0  0  0  0  0  0  0  0
  138.3240   77.0400  222.7050 C   0  0  0  0  0  0  0  0  0  0  0  0
  139.1500   78.2750  222.8500 C   0  0  0  0  0  0  0  0  0  0  0  0
  138.6280   79.3740  223.4920 C   0  0  0  0  0  0  0  0  0  0  0  0
  139.3750   80.5200  223.6340 C   0  0  0  0  0  0  0  0  0  0  0  0
  140.6590   80.6410  223.1560 C   0  0  0  0  0  0  0  0  0  0  0  0
  141.1990   79.5300  222.5030 C   0  0  0  0  0  0  0  0  0  0  0  0
  140.4400   78.3700  222.3610 C   0  0  0  0  0  0  0  0  0  0  0  0
  141.1090   77.2380  221.6460 C   0  0  0  0  0  0  0  0  0  0  0  0
  141.8210   74.5100  220.8310 N   0  0  0  0  0  0  0  0  0  0  0  0
  144.7820   72.6780  220.6880 C   0  0  0  0  0  0  0  0  0  0  0  0
  145.5220   71.8160  219.6580 C   0  0  0  0  0  0  0  0  0  0  0  0
  145.9530   72.7020  218.6720 O   0  0  0  0  0  0  0  0  0  0  0  0
  144.4270   75.4281  217.4056 H   0  0  0  0  0  0  0  0  0  0  0  0
  144.9059   76.2962  215.9077 H   0  0  0  0  0  0  0  0  0  0  0  0
  143.4537   75.2390  215.9077 H   0  0  0  0  0  0  0  0  0  0  0  0
  145.1773   74.0361  214.8272 H   0  0  0  0  0  0  0  0  0  0  0  0
  146.3534   74.4650  216.1644 H   0  0  0  0  0  0  0  0  0  0  0  0
  145.7270   72.2580  216.4480 H   0  0  0  0  0  0  0  0  0  0  0  0
  145.0595   74.3974  218.1557 H   0  0  0  0  0  0  0  0  0  0  0  0
  142.8892   73.8805  218.2441 H   0  0  0  0  0  0  0  0  0  0  0  0
  143.2259   72.0848  218.2198 H   0  0  0  0  0  0  0  0  0  0  0  0
  138.9167   70.8702  221.6198 H   0  0  0  0  0  0  0  0  0  0  0  0
  140.2275   69.7270  222.1228 H   0  0  0  0  0  0  0  0  0  0  0  0
  137.7264   70.4373  223.7315 H   0  0  0  0  0  0  0  0  0  0  0  0
  138.0251   68.8993  222.8999 H   0  0  0  0  0  0  0  0  0  0  0  0
  138.4984   67.2993  224.6037 H   0  0  0  0  0  0  0  0  0  0  0  0
  139.8789   66.5964  226.5608 H   0  0  0  0  0  0  0  0  0  0  0  0
  141.4485   68.2261  227.5724 H   0  0  0  0  0  0  0  0  0  0  0  0
  141.6571   70.5294  226.6694 H   0  0  0  0  0  0  0  0  0  0  0  0
  139.5455   72.2466  225.0176 H   0  0  0  0  0  0  0  0  0  0  0  0
  141.3062   72.0234  224.8545 H   0  0  0  0  0  0  0  0  0  0  0  0
  138.5778   77.0236  220.5657 H   0  0  0  0  0  0  0  0  0  0  0  0
  138.2138   75.4288  221.2637 H   0  0  0  0  0  0  0  0  0  0  0  0
  137.2576   77.3026  222.6441 H   0  0  0  0  0  0  0  0  0  0  0  0
  138.4560   76.3730  223.5697 H   0  0  0  0  0  0  0  0  0  0  0  0
  137.6052   79.3359  223.8949 H   0  0  0  0  0  0  0  0  0  0  0  0
  138.9251   81.3789  224.1535 H   0  0  0  0  0  0  0  0  0  0  0  0
  141.2345   81.5700  223.2820 H   0  0  0  0  0  0  0  0  0  0  0  0
  142.2223   79.5710  222.1014 H   0  0  0  0  0  0  0  0  0  0  0  0
  141.3939   77.5621  220.6342 H   0  0  0  0  0  0  0  0  0  0  0  0
  142.0075   76.9352  222.2037 H   0  0  0  0  0  0  0  0  0  0  0  0
  145.3604   73.5810  220.9332 H   0  0  0  0  0  0  0  0  0  0  0  0
  144.6198   72.1584  221.6439 H   0  0  0  0  0  0  0  0  0  0  0  0
  146.3814   71.3123  220.1246 H   0  0  0  0  0  0  0  0  0  0  0  0
  144.8749   71.0285  219.2445 H   0  0  0  0  0  0  0  0  0  0  0  0
  1  2  1  0
  2  3  1  0
  3  4  1  0
  4  5  1  0
  5  6  1  0
  6  7  1  0
  7  8  2  0
  8  9  1  0
  9 10  1  0
 10 11  1  0
 11 12  1  0
 12 13  1  0
 13 14  2  0
 14 15  1  0
 15 16  2  0
 16 17  1  0
 17 18  2  0
 18 19  1  0
  9 20  2  0
 20 21  1  0
 21 22  1  0
 22 23  1  0
 23 24  1  0
 24 25  1  0
 25 26  2  0
 26 27  1  0
 27 28  2  0
 28 29  1  0
 29 30  2  0
 30 31  1  0
 21 32  2  0
  6 33  1  0
 33 34  1  0
 34 35  1  0
 35  4  1  0
 32  7  1  0
 19 10  1  0
 31 22  1  0
 18 13  1  0
 30 25  1  0
  1 36  1  0
  1 37  1  0
  1 38  1  0
  2 39  1  0
  2 40  1  0
  3 41  1  0
  4 42  1  6
  5 43  1  0
  5 44  1  0
 11 45  1  0
 11 46  1  0
 12 47  1  0
 12 48  1  0
 14 49  1  0
 15 50  1  0
 16 51  1  0
 17 52  1  0
 19 53  1  0
 19 54  1  0
 23 55  1  0
 23 56  1  0
 24 57  1  0
 24 58  1  0
 26 59  1  0
 27 60  1  0
 28 61  1  0
 29 62  1  0
 31 63  1  0
 31 64  1  0
 33 65  1  0
 33 66  1  0
 34 67  1  0
 34 68  1  0
M  END
>  <smiles>  (51) 
CCNC1CN(c2nc(N3CCc4ccccc4C3)nc(N3CCc4ccccc4C3)n2)CCO1

>  <score_type>  (51) 
oracle

>  <origin>  (51) 
autodockgpu

>  <m_score__min__energy>  (51) 
-10.41

>  <m_primary>  (51) 
energy

>  <rmsd>  (51) 
7.359473642003565

>  <m_score__min__rmsd>  (51) 
7.359473642003565

>  <meeko>  (51) 
{"free_energy": -9.71, "intermolecular_energy": -11.2, "internal_energy": -0.97, "cluster_size": 49, "cluster_id": 1, "rank_in_cluster": 49}

>  <energy>  (51) 
-10.41

>  <cluster_rmsd>  (51) 
0.0

>  <cluster>  (51) 
1

$$$$

     RDKit          3D

 68 73  0  0  0  0  0  0  0  0999 V2000
  146.4190   73.8420  216.2840 C   0  0  0  0  0  0  0  0  0  0  0  0
  145.5760   73.3680  217.4210 C   0  0  0  0  0  0  0  0  0  0  0  0
  146.2970   73.2230  218.6720 N   0  0  0  0  0  0  0  0  0  0  0  0
  145.4220   72.4850  219.5640 C   0  0  1  0  0  0  0  0  0  0  0  0
  144.1430   73.2250  219.8440 C   0  0  0  0  0  0  0  0  0  0  0  0
  143.1160   72.3980  220.3910 N   0  0  0  0  0  0  0  0  0  0  0  0
  142.0290   72.8620  221.1790 C   0  0  0  0  0  0  0  0  0  0  0  0
  141.6410   74.1490  221.1600 N   0  0  0  0  0  0  0  0  0  0  0  0
  140.6030   74.6080  221.9080 C   0  0  0  0  0  0  0  0  0  0  0  0
  140.2340   75.9900  221.8470 N   0  0  0  0  0  0  0  0  0  0  0  0
  138.9140   76.3670  222.3270 C   0  0  0  0  0  0  0  0  0  0  0  0
  138.4640   77.6870  221.7280 C   0  0  0  0  0  0  0  0  0  0  0  0
  139.5330   78.6930  222.0690 C   0  0  0  0  0  0  0  0  0  0  0  0
  139.2020   79.9320  222.5660 C   0  0  0  0  0  0  0  0  0  0  0  0
  140.2050   80.8290  222.8690 C   0  0  0  0  0  0  0  0  0  0  0  0
  141.5150   80.4490  222.6630 C   0  0  0  0  0  0  0  0  0  0  0  0
  141.8360   79.1880  222.1580 C   0  0  0  0  0  0  0  0  0  0  0  0
  140.8290   78.2790  221.8500 C   0  0  0  0  0  0  0  0  0  0  0  0
  141.1840   76.9430  221.3130 C   0  0  0  0  0  0  0  0  0  0  0  0
  139.9380   73.7480  222.6970 N   0  0  0  0  0  0  0  0  0  0  0  0
  140.3030   72.4550  222.7360 C   0  0  0  0  0  0  0  0  0  0  0  0
  139.6300   71.5010  223.5570 N   0  0  0  0  0  0  0  0  0  0  0  0
  138.6390   70.5770  223.0220 C   0  0  0  0  0  0  0  0  0  0  0  0
  139.2040   69.1820  223.1820 C   0  0  0  0  0  0  0  0  0  0  0  0
  139.4820   68.9940  224.6360 C   0  0  0  0  0  0  0  0  0  0  0  0
  139.4000   67.7380  225.1900 C   0  0  0  0  0  0  0  0  0  0  0  0
  139.6540   67.5460  226.5280 C   0  0  0  0  0  0  0  0  0  0  0  0
  139.9970   68.5710  227.3800 C   0  0  0  0  0  0  0  0  0  0  0  0
  140.0840   69.8510  226.8270 C   0  0  0  0  0  0  0  0  0  0  0  0
  139.8270   70.0420  225.4710 C   0  0  0  0  0  0  0  0  0  0  0  0
  139.9460   71.4500  224.9770 C   0  0  0  0  0  0  0  0  0  0  0  0
  141.3430   72.0310  221.9770 N   0  0  0  0  0  0  0  0  0  0  0  0
  143.1990   70.9570  220.1130 C   0  0  0  0  0  0  0  0  0  0  0  0
  143.9550   70.8910  218.7800 C   0  0  0  0  0  0  0  0  0  0  0  0
  145.2750   71.2140  219.0840 O   0  0  0  0  0  0  0  0  0  0  0  0
  147.3147   74.3456  216.6766 H   0  0  0  0  0  0  0  0  0  0  0  0
  146.7220   72.9820  215.6687 H   0  0  0  0  0  0  0  0  0  0  0  0
  145.8416   74.5477  215.6687 H   0  0  0  0  0  0  0  0  0  0  0  0
  144.7621   74.0922  217.5731 H   0  0  0  0  0  0  0  0  0  0  0  0
  145.2086   72.3676  217.1484 H   0  0  0  0  0  0  0  0  0  0  0  0
  146.5350   74.1390  219.0800 H   0  0  0  0  0  0  0  0  0  0  0  0
  145.8763   72.3948  220.5617 H   0  0  0  0  0  0  0  0  0  0  0  0
  144.3574   74.0331  220.5589 H   0  0  0  0  0  0  0  0  0  0  0  0
  143.7727   73.6077  218.8815 H   0  0  0  0  0  0  0  0  0  0  0  0
  138.1943   75.5833  222.0480 H   0  0  0  0  0  0  0  0  0  0  0  0
  138.9622   76.4809  223.4200 H   0  0  0  0  0  0  0  0  0  0  0  0
  138.3620   77.5948  220.6366 H   0  0  0  0  0  0  0  0  0  0  0  0
  137.4853   77.9934  222.1259 H   0  0  0  0  0  0  0  0  0  0  0  0
  138.1476   80.2049  222.7203 H   0  0  0  0  0  0  0  0  0  0  0  0
  139.9654   81.8263  223.2665 H   0  0  0  0  0  0  0  0  0  0  0  0
  142.3240   81.1550  222.9018 H   0  0  0  0  0  0  0  0  0  0  0  0
  142.8894   78.9119  222.0030 H   0  0  0  0  0  0  0  0  0  0  0  0
  141.1278   76.9533  220.2145 H   0  0  0  0  0  0  0  0  0  0  0  0
  142.2094   76.6701  221.6030 H   0  0  0  0  0  0  0  0  0  0  0  0
  137.6960   70.6692  223.5807 H   0  0  0  0  0  0  0  0  0  0  0  0
  138.4275   70.7964  221.9651 H   0  0  0  0  0  0  0  0  0  0  0  0
  138.4736   68.4356  222.8364 H   0  0  0  0  0  0  0  0  0  0  0  0
  140.1195   69.0560  222.5854 H   0  0  0  0  0  0  0  0  0  0  0  0
  139.1290   66.8797  224.5577 H   0  0  0  0  0  0  0  0  0  0  0  0
  139.5797   66.5270  226.9356 H   0  0  0  0  0  0  0  0  0  0  0  0
  140.1936   68.3907  228.4472 H   0  0  0  0  0  0  0  0  0  0  0  0
  140.3552   70.7075  227.4617 H   0  0  0  0  0  0  0  0  0  0  0  0
  139.2451   72.0920  225.5307 H   0  0  0  0  0  0  0  0  0  0  0  0
  140.9753   71.8049  225.1337 H   0  0  0  0  0  0  0  0  0  0  0  0
  143.7546   70.4352  220.9061 H   0  0  0  0  0  0  0  0  0  0  0  0
  142.2126   70.4720  220.0700 H   0  0  0  0  0  0  0  0  0  0  0  0
  143.8954   69.8786  218.3540 H   0  0  0  0  0  0  0  0  0  0  0  0
  143.5282   71.5782  218.0346 H   0  0  0  0  0  0  0  0  0  0  0  0
  1  2  1  0
  2  3  1  0
  3  4  1  0
  4  5  1  0
  5  6  1  0
  6  7  1  0
  7  8  2  0
  8  9  1  0
  9 10  1  0
 10 11  1  0
 11 12  1  0
 12 13  1  0
 13 14  2  0
 14 15  1  0
 15 16  2  0
 16 17  1  0
 17 18  2  0
 18 19  1  0
  9 20  2  0
 20 21  1  0
 21 22  1  0
 22 23  1  0
 23 24  1  0
 24 25  1  0
 25 26  2  0
 26 27  1  0
 27 28  2  0
 28 29  1  0
 29 30  2  0
 30 31  1  0
 21 32  2  0
  6 33  1  0
 33 34  1  0
 34 35  1  0
 35  4  1  0
 32  7  1  0
 19 10  1  0
 31 22  1  0
 18 13  1  0
 30 25  1  0
  1 36  1  0
  1 37  1  0
  1 38  1  0
  2 39  1  0
  2 40  1  0
  3 41  1  0
  4 42  1  1
  5 43  1  0
  5 44  1  0
 11 45  1  0
 11 46  1  0
 12 47  1  0
 12 48  1  0
 14 49  1  0
 15 50  1  0
 16 51  1  0
 17 52  1  0
 19 53  1  0
 19 54  1  0
 23 55  1  0
 23 56  1  0
 24 57  1  0
 24 58  1  0
 26 59  1  0
 27 60  1  0
 28 61  1  0
 29 62  1  0
 31 63  1  0
 31 64  1  0
 33 65  1  0
 33 66  1  0
 34 67  1  0
 34 68  1  0
M  END
>  <smiles>  (52) 
CCNC1CN(c2nc(N3CCc4ccccc4C3)nc(N3CCc4ccccc4C3)n2)CCO1

>  <score_type>  (52) 
oracle

>  <origin>  (52) 
autodockgpu

>  <m_score__min__energy>  (52) 
-10.41

>  <m_primary>  (52) 
energy

>  <rmsd>  (52) 
7.352000086811324

>  <m_score__min__rmsd>  (52) 
7.352000086811324

>  <meeko>  (52) 
{"free_energy": -10.07, "intermolecular_energy": -11.56, "internal_energy": -0.98, "cluster_size": 49, "cluster_id": 1, "rank_in_cluster": 44}

>  <energy>  (52) 
-10.4

>  <cluster_rmsd>  (52) 
0.13

>  <cluster>  (52) 
1

$$$$

     RDKit          3D

 68 73  0  0  0  0  0  0  0  0999 V2000
  144.7920   74.8220  216.0640 C   0  0  0  0  0  0  0  0  0  0  0  0
  145.0080   73.4680  216.6530 C   0  0  0  0  0  0  0  0  0  0  0  0
  146.1020   73.4020  217.6030 N   0  0  0  0  0  0  0  0  0  0  0  0
  145.5690   72.7750  218.7970 C   0  0  1  0  0  0  0  0  0  0  0  0
  144.1670   73.2270  219.0980 C   0  0  0  0  0  0  0  0  0  0  0  0
  143.4800   72.3770  220.0160 N   0  0  0  0  0  0  0  0  0  0  0  0
  142.3900   72.7750  220.8360 C   0  0  0  0  0  0  0  0  0  0  0  0
  141.8010   71.9220  221.6920 N   0  0  0  0  0  0  0  0  0  0  0  0
  140.7570   72.2890  222.4820 C   0  0  0  0  0  0  0  0  0  0  0  0
  140.1700   71.3380  223.3770 N   0  0  0  0  0  0  0  0  0  0  0  0
  139.4300   70.2260  222.8040 C   0  0  0  0  0  0  0  0  0  0  0  0
  138.4480   69.6410  223.8030 C   0  0  0  0  0  0  0  0  0  0  0  0
  139.2560   69.2590  225.0170 C   0  0  0  0  0  0  0  0  0  0  0  0
  139.0850   68.0350  225.6220 C   0  0  0  0  0  0  0  0  0  0  0  0
  139.8410   67.7180  226.7310 C   0  0  0  0  0  0  0  0  0  0  0  0
  140.7500   68.6440  227.1980 C   0  0  0  0  0  0  0  0  0  0  0  0
  140.9130   69.8830  226.5740 C   0  0  0  0  0  0  0  0  0  0  0  0
  140.1540   70.2090  225.4560 C   0  0  0  0  0  0  0  0  0  0  0  0
  140.3350   71.5290  224.8030 C   0  0  0  0  0  0  0  0  0  0  0  0
  140.2930   73.5470  222.4070 N   0  0  0  0  0  0  0  0  0  0  0  0
  140.8620   74.4220  221.5600 C   0  0  0  0  0  0  0  0  0  0  0  0
  140.4080   75.7690  221.4410 N   0  0  0  0  0  0  0  0  0  0  0  0
  138.9940   76.1190  221.4790 C   0  0  0  0  0  0  0  0  0  0  0  0
  138.7800   76.9590  222.7200 C   0  0  0  0  0  0  0  0  0  0  0  0
  139.6900   78.1360  222.6060 C   0  0  0  0  0  0  0  0  0  0  0  0
  139.3330   79.3340  223.1810 C   0  0  0  0  0  0  0  0  0  0  0  0
  140.1600   80.4280  223.0870 C   0  0  0  0  0  0  0  0  0  0  0  0
  141.3680   80.4000  222.4290 C   0  0  0  0  0  0  0  0  0  0  0  0
  141.7410   79.1870  221.8420 C   0  0  0  0  0  0  0  0  0  0  0  0
  140.9010   78.0790  221.9400 C   0  0  0  0  0  0  0  0  0  0  0  0
  141.3910   76.8300  221.2780 C   0  0  0  0  0  0  0  0  0  0  0  0
  141.9020   74.0230  220.7860 N   0  0  0  0  0  0  0  0  0  0  0  0
  143.9430   70.9850  220.1140 C   0  0  0  0  0  0  0  0  0  0  0  0
  144.5490   70.7100  218.7320 C   0  0  0  0  0  0  0  0  0  0  0  0
  145.7460   71.4230  218.7020 O   0  0  0  0  0  0  0  0  0  0  0  0
  144.6745   75.5589  216.8722 H   0  0  0  0  0  0  0  0  0  0  0  0
  145.6581   75.0941  215.4428 H   0  0  0  0  0  0  0  0  0  0  0  0
  143.8842   74.8111  215.4428 H   0  0  0  0  0  0  0  0  0  0  0  0
  144.0847   73.1643  217.1681 H   0  0  0  0  0  0  0  0  0  0  0  0
  145.2706   72.7987  215.8205 H   0  0  0  0  0  0  0  0  0  0  0  0
  146.4690   74.3390  217.8230 H   0  0  0  0  0  0  0  0  0  0  0  0
  146.1277   73.1036  219.6857 H   0  0  0  0  0  0  0  0  0  0  0  0
  144.2119   74.2389  219.5270 H   0  0  0  0  0  0  0  0  0  0  0  0
  143.6078   73.2000  218.1511 H   0  0  0  0  0  0  0  0  0  0  0  0
  138.8754   70.5812  221.9230 H   0  0  0  0  0  0  0  0  0  0  0  0
  140.1473   69.4408  222.5231 H   0  0  0  0  0  0  0  0  0  0  0  0
  137.6872   70.3887  224.0717 H   0  0  0  0  0  0  0  0  0  0  0  0
  137.9215   68.7711  223.3834 H   0  0  0  0  0  0  0  0  0  0  0  0
  138.3527   67.3166  225.2250 H   0  0  0  0  0  0  0  0  0  0  0  0
  139.7214   66.7465  227.2328 H   0  0  0  0  0  0  0  0  0  0  0  0
  141.3598   68.4017  228.0809 H   0  0  0  0  0  0  0  0  0  0  0  0
  141.6446   70.6034  226.9687 H   0  0  0  0  0  0  0  0  0  0  0  0
  139.5818   72.2385  225.1761 H   0  0  0  0  0  0  0  0  0  0  0  0
  141.3321   71.9367  225.0255 H   0  0  0  0  0  0  0  0  0  0  0  0
  138.7229   76.6946  220.5817 H   0  0  0  0  0  0  0  0  0  0  0  0
  138.3663   75.2160  221.5027 H   0  0  0  0  0  0  0  0  0  0  0  0
  137.7335   77.2934  222.7752 H   0  0  0  0  0  0  0  0  0  0  0  0
  138.9953   76.3803  223.6303 H   0  0  0  0  0  0  0  0  0  0  0  0
  138.3779   79.4170  223.7204 H   0  0  0  0  0  0  0  0  0  0  0  0
  139.8414   81.3689  223.5595 H   0  0  0  0  0  0  0  0  0  0  0  0
  142.0106   81.2907  222.3676 H   0  0  0  0  0  0  0  0  0  0  0  0
  142.6967   79.1072  221.3032 H   0  0  0  0  0  0  0  0  0  0  0  0
  141.5475   77.0217  220.2062 H   0  0  0  0  0  0  0  0  0  0  0  0
  142.3398   76.5211  221.7409 H   0  0  0  0  0  0  0  0  0  0  0  0
  144.7009   70.8776  220.9039 H   0  0  0  0  0  0  0  0  0  0  0  0
  143.1372   70.2833  220.3754 H   0  0  0  0  0  0  0  0  0  0  0  0
  144.7389   69.6343  218.6026 H   0  0  0  0  0  0  0  0  0  0  0  0
  143.8715   71.0155  217.9211 H   0  0  0  0  0  0  0  0  0  0  0  0
  1  2  1  0
  2  3  1  0
  3  4  1  0
  4  5  1  0
  5  6  1  0
  6  7  1  0
  7  8  2  0
  8  9  1  0
  9 10  1  0
 10 11  1  0
 11 12  1  0
 12 13  1  0
 13 14  2  0
 14 15  1  0
 15 16  2  0
 16 17  1  0
 17 18  2  0
 18 19  1  0
  9 20  2  0
 20 21  1  0
 21 22  1  0
 22 23  1  0
 23 24  1  0
 24 25  1  0
 25 26  2  0
 26 27  1  0
 27 28  2  0
 28 29  1  0
 29 30  2  0
 30 31  1  0
 21 32  2  0
  6 33  1  0
 33 34  1  0
 34 35  1  0
 35  4  1  0
 32  7  1  0
 19 10  1  0
 31 22  1  0
 18 13  1  0
 30 25  1  0
  1 36  1  0
  1 37  1  0
  1 38  1  0
  2 39  1  0
  2 40  1  0
  3 41  1  0
  4 42  1  1
  5 43  1  0
  5 44  1  0
 11 45  1  0
 11 46  1  0
 12 47  1  0
 12 48  1  0
 14 49  1  0
 15 50  1  0
 16 51  1  0
 17 52  1  0
 19 53  1  0
 19 54  1  0
 23 55  1  0
 23 56  1  0
 24 57  1  0
 24 58  1  0
 26 59  1  0
 27 60  1  0
 28 61  1  0
 29 62  1  0
 31 63  1  0
 31 64  1  0
 33 65  1  0
 33 66  1  0
 34 67  1  0
 34 68  1  0
M  END
>  <smiles>  (53) 
CCNC1CN(c2nc(N3CCc4ccccc4C3)nc(N3CCc4ccccc4C3)n2)CCO1

>  <score_type>  (53) 
oracle

>  <origin>  (53) 
autodockgpu

>  <m_score__min__energy>  (53) 
-10.41

>  <m_primary>  (53) 
energy

>  <rmsd>  (53) 
7.277025941122187

>  <m_score__min__rmsd>  (53) 
7.277025941122187

>  <meeko>  (53) 
{"free_energy": -10.32, "intermolecular_energy": -11.81, "internal_energy": -1.0, "cluster_size": 49, "cluster_id": 1, "rank_in_cluster": 13}

>  <energy>  (53) 
-10.4

>  <cluster_rmsd>  (53) 
0.06

>  <cluster>  (53) 
1

$$$$

     RDKit          3D

 68 73  0  0  0  0  0  0  0  0999 V2000
  146.3230   74.0420  216.0750 C   0  0  0  0  0  0  0  0  0  0  0  0
  145.5420   73.4760  217.2140 C   0  0  0  0  0  0  0  0  0  0  0  0
  146.3250   73.2450  218.4130 N   0  0  0  0  0  0  0  0  0  0  0  0
  145.4990   72.4400  219.2920 C   0  0  1  0  0  0  0  0  0  0  0  0
  144.2140   73.1310  219.6540 C   0  0  0  0  0  0  0  0  0  0  0  0
  143.2260   72.2510  220.1900 N   0  0  0  0  0  0  0  0  0  0  0  0
  142.1560   72.6460  221.0370 C   0  0  0  0  0  0  0  0  0  0  0  0
  141.6290   71.8100  221.9470 N   0  0  0  0  0  0  0  0  0  0  0  0
  140.6050   72.1730  222.7640 C   0  0  0  0  0  0  0  0  0  0  0  0
  140.0840   71.2400  223.7160 N   0  0  0  0  0  0  0  0  0  0  0  0
  139.3630   70.0820  223.2150 C   0  0  0  0  0  0  0  0  0  0  0  0
  138.4390   69.5050  224.2710 C   0  0  0  0  0  0  0  0  0  0  0  0
  139.3030   69.1990  225.4680 C   0  0  0  0  0  0  0  0  0  0  0  0
  139.1960   67.9940  226.1250 C   0  0  0  0  0  0  0  0  0  0  0  0
  140.0030   67.7460  227.2150 C   0  0  0  0  0  0  0  0  0  0  0  0
  140.8960   68.7190  227.6120 C   0  0  0  0  0  0  0  0  0  0  0  0
  140.9940   69.9370  226.9360 C   0  0  0  0  0  0  0  0  0  0  0  0
  140.1830   70.1930  225.8350 C   0  0  0  0  0  0  0  0  0  0  0  0
  140.2950   71.4920  225.1270 C   0  0  0  0  0  0  0  0  0  0  0  0
  140.0980   73.4130  222.6610 N   0  0  0  0  0  0  0  0  0  0  0  0
  140.6050   74.2720  221.7600 C   0  0  0  0  0  0  0  0  0  0  0  0
  140.1030   75.5990  221.6100 N   0  0  0  0  0  0  0  0  0  0  0  0
  138.6820   75.8800  221.4530 C   0  0  0  0  0  0  0  0  0  0  0  0
  138.2500   76.6690  222.6700 C   0  0  0  0  0  0  0  0  0  0  0  0
  139.1060   77.8910  222.7170 C   0  0  0  0  0  0  0  0  0  0  0  0
  138.6090   79.0520  223.2630 C   0  0  0  0  0  0  0  0  0  0  0  0
  139.3830   80.1870  223.3150 C   0  0  0  0  0  0  0  0  0  0  0  0
  140.6720   80.2370  222.8360 C   0  0  0  0  0  0  0  0  0  0  0  0
  141.1880   79.0630  222.2800 C   0  0  0  0  0  0  0  0  0  0  0  0
  140.4000   77.9140  222.2300 C   0  0  0  0  0  0  0  0  0  0  0  0
  141.0440   76.7100  221.6150 C   0  0  0  0  0  0  0  0  0  0  0  0
  141.6260   73.8760  220.9610 N   0  0  0  0  0  0  0  0  0  0  0  0
  143.3320   70.8300  219.8320 C   0  0  0  0  0  0  0  0  0  0  0  0
  144.0430   70.8530  218.4730 C   0  0  0  0  0  0  0  0  0  0  0  0
  145.3660   71.1920  218.7510 O   0  0  0  0  0  0  0  0  0  0  0  0
  147.1557   74.6455  216.4654 H   0  0  0  0  0  0  0  0  0  0  0  0
  146.7215   73.2216  215.4601 H   0  0  0  0  0  0  0  0  0  0  0  0
  145.6674   74.6761  215.4601 H   0  0  0  0  0  0  0  0  0  0  0  0
  144.7323   74.1786  217.4604 H   0  0  0  0  0  0  0  0  0  0  0  0
  145.1684   72.4949  216.8856 H   0  0  0  0  0  0  0  0  0  0  0  0
  146.5830   74.1310  218.8740 H   0  0  0  0  0  0  0  0  0  0  0  0
  145.9895   72.3097  220.2679 H   0  0  0  0  0  0  0  0  0  0  0  0
  144.4342   73.9053  220.4037 H   0  0  0  0  0  0  0  0  0  0  0  0
  143.8015   73.5541  218.7262 H   0  0  0  0  0  0  0  0  0  0  0  0
  138.7650   70.3830  222.3422 H   0  0  0  0  0  0  0  0  0  0  0  0
  140.0968   69.3106  222.9386 H   0  0  0  0  0  0  0  0  0  0  0  0
  137.6627   70.2369  224.5388 H   0  0  0  0  0  0  0  0  0  0  0  0
  137.9285   68.6019  223.9052 H   0  0  0  0  0  0  0  0  0  0  0  0
  138.4743   67.2371  225.7840 H   0  0  0  0  0  0  0  0  0  0  0  0
  139.9359   66.7912  227.7571 H   0  0  0  0  0  0  0  0  0  0  0  0
  141.5452   68.5316  228.4800 H   0  0  0  0  0  0  0  0  0  0  0  0
  141.7144   70.6960  227.2750 H   0  0  0  0  0  0  0  0  0  0  0  0
  139.5324   72.1906  225.5016 H   0  0  0  0  0  0  0  0  0  0  0  0
  141.2850   71.9406  225.2960 H   0  0  0  0  0  0  0  0  0  0  0  0
  138.5122   76.4701  220.5404 H   0  0  0  0  0  0  0  0  0  0  0  0
  138.1049   74.9477  221.3644 H   0  0  0  0  0  0  0  0  0  0  0  0
  137.1906   76.9517  222.5817 H   0  0  0  0  0  0  0  0  0  0  0  0
  138.3620   76.0727  223.5875 H   0  0  0  0  0  0  0  0  0  0  0  0
  137.5838   79.0722  223.6612 H   0  0  0  0  0  0  0  0  0  0  0  0
  138.9524   81.0963  223.7596 H   0  0  0  0  0  0  0  0  0  0  0  0
  141.2693   81.1592  222.8883 H   0  0  0  0  0  0  0  0  0  0  0  0
  142.2136   79.0457  221.8827 H   0  0  0  0  0  0  0  0  0  0  0  0
  141.3413   76.9420  220.5817 H   0  0  0  0  0  0  0  0  0  0  0  0
  141.9323   76.4324  222.2014 H   0  0  0  0  0  0  0  0  0  0  0  0
  143.9262   70.2805  220.5770 H   0  0  0  0  0  0  0  0  0  0  0  0
  142.3558   70.3243  219.7954 H   0  0  0  0  0  0  0  0  0  0  0  0
  143.9919   69.8634  217.9955 H   0  0  0  0  0  0  0  0  0  0  0  0
  143.5755   71.5677  217.7797 H   0  0  0  0  0  0  0  0  0  0  0  0
  1  2  1  0
  2  3  1  0
  3  4  1  0
  4  5  1  0
  5  6  1  0
  6  7  1  0
  7  8  2  0
  8  9  1  0
  9 10  1  0
 10 11  1  0
 11 12  1  0
 12 13  1  0
 13 14  2  0
 14 15  1  0
 15 16  2  0
 16 17  1  0
 17 18  2  0
 18 19  1  0
  9 20  2  0
 20 21  1  0
 21 22  1  0
 22 23  1  0
 23 24  1  0
 24 25  1  0
 25 26  2  0
 26 27  1  0
 27 28  2  0
 28 29  1  0
 29 30  2  0
 30 31  1  0
 21 32  2  0
  6 33  1  0
 33 34  1  0
 34 35  1  0
 35  4  1  0
 32  7  1  0
 19 10  1  0
 31 22  1  0
 18 13  1  0
 30 25  1  0
  1 36  1  0
  1 37  1  0
  1 38  1  0
  2 39  1  0
  2 40  1  0
  3 41  1  0
  4 42  1  1
  5 43  1  0
  5 44  1  0
 11 45  1  0
 11 46  1  0
 12 47  1  0
 12 48  1  0
 14 49  1  0
 15 50  1  0
 16 51  1  0
 17 52  1  0
 19 53  1  0
 19 54  1  0
 23 55  1  0
 23 56  1  0
 24 57  1  0
 24 58  1  0
 26 59  1  0
 27 60  1  0
 28 61  1  0
 29 62  1  0
 31 63  1  0
 31 64  1  0
 33 65  1  0
 33 66  1  0
 34 67  1  0
 34 68  1  0
M  END
>  <smiles>  (54) 
CCNC1CN(c2nc(N3CCc4ccccc4C3)nc(N3CCc4ccccc4C3)n2)CCO1

>  <score_type>  (54) 
oracle

>  <origin>  (54) 
autodockgpu

>  <m_score__min__energy>  (54) 
-10.41

>  <m_primary>  (54) 
energy

>  <rmsd>  (54) 
7.400839048004873

>  <m_score__min__rmsd>  (54) 
7.400839048004873

>  <meeko>  (54) 
{"free_energy": -10.39, "intermolecular_energy": -11.88, "internal_energy": -0.95, "cluster_size": 49, "cluster_id": 1, "rank_in_cluster": 4}

>  <energy>  (54) 
-10.39

>  <cluster_rmsd>  (54) 
0.24

>  <cluster>  (54) 
1

$$$$

     RDKit          3D

 68 73  0  0  0  0  0  0  0  0999 V2000
  144.2130   72.3810  215.5730 C   0  0  0  0  0  0  0  0  0  0  0  0
  144.3140   73.6450  216.3590 C   0  0  0  0  0  0  0  0  0  0  0  0
  145.5530   73.7840  217.1000 N   0  0  0  0  0  0  0  0  0  0  0  0
  145.2640   73.3700  218.4600 C   0  0  1  0  0  0  0  0  0  0  0  0
  143.8060   73.5170  218.8000 C   0  0  0  0  0  0  0  0  0  0  0  0
  143.4170   72.7850  219.9620 N   0  0  0  0  0  0  0  0  0  0  0  0
  142.2970   73.0920  220.7810 C   0  0  0  0  0  0  0  0  0  0  0  0
  141.7450   72.1760  221.5960 N   0  0  0  0  0  0  0  0  0  0  0  0
  140.6740   72.4550  222.3860 C   0  0  0  0  0  0  0  0  0  0  0  0
  140.1280   71.4410  223.2350 N   0  0  0  0  0  0  0  0  0  0  0  0
  139.4040   70.3450  222.6130 C   0  0  0  0  0  0  0  0  0  0  0  0
  138.4570   69.6790  223.5950 C   0  0  0  0  0  0  0  0  0  0  0  0
  139.2990   69.2490  224.7690 C   0  0  0  0  0  0  0  0  0  0  0  0
  139.1690   67.9880  225.3050 C   0  0  0  0  0  0  0  0  0  0  0  0
  139.9560   67.6260  226.3790 C   0  0  0  0  0  0  0  0  0  0  0  0
  140.8520   68.5470  226.8810 C   0  0  0  0  0  0  0  0  0  0  0  0
  140.9720   69.8230  226.3270 C   0  0  0  0  0  0  0  0  0  0  0  0
  140.1820   70.1940  225.2440 C   0  0  0  0  0  0  0  0  0  0  0  0
  140.3190   71.5530  224.6660 C   0  0  0  0  0  0  0  0  0  0  0  0
  140.1440   73.6900  222.3520 N   0  0  0  0  0  0  0  0  0  0  0  0
  140.6750   74.6260  221.5470 C   0  0  0  0  0  0  0  0  0  0  0  0
  140.1500   75.9510  221.4750 N   0  0  0  0  0  0  0  0  0  0  0  0
  138.7220   76.2160  221.3670 C   0  0  0  0  0  0  0  0  0  0  0  0
  138.3110   76.9400  222.6310 C   0  0  0  0  0  0  0  0  0  0  0  0
  139.1490   78.1710  222.7160 C   0  0  0  0  0  0  0  0  0  0  0  0
  138.6500   79.2970  223.3290 C   0  0  0  0  0  0  0  0  0  0  0  0
  139.4100   80.4400  223.4170 C   0  0  0  0  0  0  0  0  0  0  0  0
  140.6850   80.5330  222.9090 C   0  0  0  0  0  0  0  0  0  0  0  0
  141.2020   79.3950  222.2840 C   0  0  0  0  0  0  0  0  0  0  0  0
  140.4310   78.2370  222.1980 C   0  0  0  0  0  0  0  0  0  0  0  0
  141.0750   77.0750  221.5100 C   0  0  0  0  0  0  0  0  0  0  0  0
  141.7440   74.3130  220.7730 N   0  0  0  0  0  0  0  0  0  0  0  0
  144.2440   71.6270  220.3320 C   0  0  0  0  0  0  0  0  0  0  0  0
  144.8390   71.1700  218.9950 C   0  0  0  0  0  0  0  0  0  0  0  0
  145.7950   72.1280  218.6650 O   0  0  0  0  0  0  0  0  0  0  0  0
  144.1447   71.5257  216.2613 H   0  0  0  0  0  0  0  0  0  0  0  0
  143.3146   72.4142  214.9391 H   0  0  0  0  0  0  0  0  0  0  0  0
  145.1052   72.2711  214.9391 H   0  0  0  0  0  0  0  0  0  0  0  0
  144.2310   74.4924  215.6626 H   0  0  0  0  0  0  0  0  0  0  0  0
  143.5017   73.6233  217.1004 H   0  0  0  0  0  0  0  0  0  0  0  0
  145.8950   74.7560  217.0860 H   0  0  0  0  0  0  0  0  0  0  0  0
  145.7525   74.0438  219.1792 H   0  0  0  0  0  0  0  0  0  0  0  0
  143.5941   74.5826  218.9723 H   0  0  0  0  0  0  0  0  0  0  0  0
  143.2332   73.1100  217.9537 H   0  0  0  0  0  0  0  0  0  0  0  0
  138.8232   70.7356  221.7645 H   0  0  0  0  0  0  0  0  0  0  0  0
  140.1345   69.5957  222.2740 H   0  0  0  0  0  0  0  0  0  0  0  0
  137.6840   70.3905  223.9209 H   0  0  0  0  0  0  0  0  0  0  0  0
  137.9431   68.8215  223.1361 H   0  0  0  0  0  0  0  0  0  0  0  0
  138.4452   67.2761  224.8815 H   0  0  0  0  0  0  0  0  0  0  0  0
  139.8707   66.6243  226.8254 H   0  0  0  0  0  0  0  0  0  0  0  0
  141.4857   68.2701  227.7364 H   0  0  0  0  0  0  0  0  0  0  0  0
  141.6941   70.5376  226.7487 H   0  0  0  0  0  0  0  0  0  0  0  0
  139.5580   72.2216  225.0949 H   0  0  0  0  0  0  0  0  0  0  0  0
  141.3111   71.9709  224.8920 H   0  0  0  0  0  0  0  0  0  0  0  0
  138.5198   76.8456  220.4880 H   0  0  0  0  0  0  0  0  0  0  0  0
  138.1563   75.2801  221.2483 H   0  0  0  0  0  0  0  0  0  0  0  0
  137.2457   77.2099  222.5832 H   0  0  0  0  0  0  0  0  0  0  0  0
  138.4564   76.3024  223.5155 H   0  0  0  0  0  0  0  0  0  0  0  0
  137.6348   79.2831  223.7522 H   0  0  0  0  0  0  0  0  0  0  0  0
  138.9786   81.3200  223.9165 H   0  0  0  0  0  0  0  0  0  0  0  0
  141.2707   81.4605  222.9910 H   0  0  0  0  0  0  0  0  0  0  0  0
  142.2169   79.4131  221.8601 H   0  0  0  0  0  0  0  0  0  0  0  0
  141.3420   77.3609  220.4819 H   0  0  0  0  0  0  0  0  0  0  0  0
  141.9820   76.7833  222.0597 H   0  0  0  0  0  0  0  0  0  0  0  0
  145.0372   71.9192  221.0359 H   0  0  0  0  0  0  0  0  0  0  0  0
  143.6714   70.8361  220.8387 H   0  0  0  0  0  0  0  0  0  0  0  0
  145.3074   70.1804  219.1011 H   0  0  0  0  0  0  0  0  0  0  0  0
  144.0680   71.0783  218.2158 H   0  0  0  0  0  0  0  0  0  0  0  0
  1  2  1  0
  2  3  1  0
  3  4  1  0
  4  5  1  0
  5  6  1  0
  6  7  1  0
  7  8  2  0
  8  9  1  0
  9 10  1  0
 10 11  1  0
 11 12  1  0
 12 13  1  0
 13 14  2  0
 14 15  1  0
 15 16  2  0
 16 17  1  0
 17 18  2  0
 18 19  1  0
  9 20  2  0
 20 21  1  0
 21 22  1  0
 22 23  1  0
 23 24  1  0
 24 25  1  0
 25 26  2  0
 26 27  1  0
 27 28  2  0
 28 29  1  0
 29 30  2  0
 30 31  1  0
 21 32  2  0
  6 33  1  0
 33 34  1  0
 34 35  1  0
 35  4  1  0
 32  7  1  0
 19 10  1  0
 31 22  1  0
 18 13  1  0
 30 25  1  0
  1 36  1  0
  1 37  1  0
  1 38  1  0
  2 39  1  0
  2 40  1  0
  3 41  1  0
  4 42  1  1
  5 43  1  0
  5 44  1  0
 11 45  1  0
 11 46  1  0
 12 47  1  0
 12 48  1  0
 14 49  1  0
 15 50  1  0
 16 51  1  0
 17 52  1  0
 19 53  1  0
 19 54  1  0
 23 55  1  0
 23 56  1  0
 24 57  1  0
 24 58  1  0
 26 59  1  0
 27 60  1  0
 28 61  1  0
 29 62  1  0
 31 63  1  0
 31 64  1  0
 33 65  1  0
 33 66  1  0
 34 67  1  0
 34 68  1  0
M  END
>  <smiles>  (55) 
CCNC1CN(c2nc(N3CCc4ccccc4C3)nc(N3CCc4ccccc4C3)n2)CCO1

>  <score_type>  (55) 
oracle

>  <origin>  (55) 
autodockgpu

>  <m_score__min__energy>  (55) 
-10.41

>  <m_primary>  (55) 
energy

>  <rmsd>  (55) 
7.843917591420924

>  <m_score__min__rmsd>  (55) 
7.843917591420924

>  <meeko>  (55) 
{"free_energy": -9.92, "intermolecular_energy": -11.41, "internal_energy": -1.04, "cluster_size": 49, "cluster_id": 1, "rank_in_cluster": 47}

>  <energy>  (55) 
-10.38

>  <cluster_rmsd>  (55) 
0.22

>  <cluster>  (55) 
1

$$$$

     RDKit          3D

 68 73  0  0  0  0  0  0  0  0999 V2000
  145.7410   74.3780  215.9510 C   0  0  0  0  0  0  0  0  0  0  0  0
  145.2160   73.6710  217.1560 C   0  0  0  0  0  0  0  0  0  0  0  0
  146.2370   73.3020  218.1180 N   0  0  0  0  0  0  0  0  0  0  0  0
  145.5610   72.5650  219.1690 C   0  0  1  0  0  0  0  0  0  0  0  0
  144.2020   73.1310  219.4740 C   0  0  0  0  0  0  0  0  0  0  0  0
  143.3650   72.2370  220.2090 N   0  0  0  0  0  0  0  0  0  0  0  0
  142.2750   72.6310  221.0310 C   0  0  0  0  0  0  0  0  0  0  0  0
  141.7210   71.7890  221.9200 N   0  0  0  0  0  0  0  0  0  0  0  0
  140.6780   72.1520  222.7130 C   0  0  0  0  0  0  0  0  0  0  0  0
  140.1280   71.2140  223.6450 N   0  0  0  0  0  0  0  0  0  0  0  0
  139.5030   70.0130  223.1160 C   0  0  0  0  0  0  0  0  0  0  0  0
  138.5270   69.4130  224.1120 C   0  0  0  0  0  0  0  0  0  0  0  0
  139.3080   69.1730  225.3790 C   0  0  0  0  0  0  0  0  0  0  0  0
  139.2070   67.9780  226.0540 C   0  0  0  0  0  0  0  0  0  0  0  0
  139.9370   67.7910  227.2090 C   0  0  0  0  0  0  0  0  0  0  0  0
  140.7490   68.8140  227.6500 C   0  0  0  0  0  0  0  0  0  0  0  0
  140.8430   70.0220  226.9540 C   0  0  0  0  0  0  0  0  0  0  0  0
  140.1100   70.2160  225.7890 C   0  0  0  0  0  0  0  0  0  0  0  0
  140.2160   71.5040  225.0600 C   0  0  0  0  0  0  0  0  0  0  0  0
  140.1800   73.3950  222.6070 N   0  0  0  0  0  0  0  0  0  0  0  0
  140.7140   74.2580  221.7260 C   0  0  0  0  0  0  0  0  0  0  0  0
  140.2220   75.5890  221.5730 N   0  0  0  0  0  0  0  0  0  0  0  0
  138.8000   75.8850  221.4660 C   0  0  0  0  0  0  0  0  0  0  0  0
  138.4240   76.6990  222.6840 C   0  0  0  0  0  0  0  0  0  0  0  0
  139.2940   77.9100  222.6790 C   0  0  0  0  0  0  0  0  0  0  0  0
  138.8320   79.0860  223.2240 C   0  0  0  0  0  0  0  0  0  0  0  0
  139.6210   80.2120  223.2280 C   0  0  0  0  0  0  0  0  0  0  0  0
  140.8920   80.2380  222.7000 C   0  0  0  0  0  0  0  0  0  0  0  0
  141.3720   79.0490  222.1450 C   0  0  0  0  0  0  0  0  0  0  0  0
  140.5700   77.9090  222.1430 C   0  0  0  0  0  0  0  0  0  0  0  0
  141.1750   76.6880  221.5240 C   0  0  0  0  0  0  0  0  0  0  0  0
  141.7540   73.8630  220.9500 N   0  0  0  0  0  0  0  0  0  0  0  0
  143.6630   70.8010  220.1000 C   0  0  0  0  0  0  0  0  0  0  0  0
  144.3230   70.6750  218.7210 C   0  0  0  0  0  0  0  0  0  0  0  0
  145.5910   71.2340  218.8620 O   0  0  0  0  0  0  0  0  0  0  0  0
  146.3692   75.2239  216.2669 H   0  0  0  0  0  0  0  0  0  0  0  0
  146.3415   73.6801  215.3490 H   0  0  0  0  0  0  0  0  0  0  0  0
  144.8993   74.7510  215.3490 H   0  0  0  0  0  0  0  0  0  0  0  0
  144.4927   74.3317  217.6563 H   0  0  0  0  0  0  0  0  0  0  0  0
  144.7613   72.7344  216.8011 H   0  0  0  0  0  0  0  0  0  0  0  0
  146.7080   74.1320  218.5080 H   0  0  0  0  0  0  0  0  0  0  0  0
  146.0937   72.6799  220.1245 H   0  0  0  0  0  0  0  0  0  0  0  0
  144.3320   74.0505  220.0636 H   0  0  0  0  0  0  0  0  0  0  0  0
  143.7063   73.3202  218.5104 H   0  0  0  0  0  0  0  0  0  0  0  0
  138.9614   70.2680  222.1931 H   0  0  0  0  0  0  0  0  0  0  0  0
  140.2909   69.2725  222.9137 H   0  0  0  0  0  0  0  0  0  0  0  0
  137.6989   70.1118  224.3018 H   0  0  0  0  0  0  0  0  0  0  0  0
  138.0895   68.4791  223.7295 H   0  0  0  0  0  0  0  0  0  0  0  0
  138.5507   67.1802  225.6762 H   0  0  0  0  0  0  0  0  0  0  0  0
  139.8727   66.8451  227.7668 H   0  0  0  0  0  0  0  0  0  0  0  0
  141.3359   68.6763  228.5701 H   0  0  0  0  0  0  0  0  0  0  0  0
  141.4988   70.8216  227.3290 H   0  0  0  0  0  0  0  0  0  0  0  0
  139.3946   72.1723  225.3578 H   0  0  0  0  0  0  0  0  0  0  0  0
  141.1680   72.0032  225.2937 H   0  0  0  0  0  0  0  0  0  0  0  0
  138.6022   76.4619  220.5505 H   0  0  0  0  0  0  0  0  0  0  0  0
  138.2092   74.9585  221.4158 H   0  0  0  0  0  0  0  0  0  0  0  0
  137.3654   76.9932  222.6307 H   0  0  0  0  0  0  0  0  0  0  0  0
  138.5642   76.1164  223.6064 H   0  0  0  0  0  0  0  0  0  0  0  0
  137.8229   79.1256  223.6601 H   0  0  0  0  0  0  0  0  0  0  0  0
  139.2184   81.1338  223.6733 H   0  0  0  0  0  0  0  0  0  0  0  0
  141.5020   81.1532  222.7144 H   0  0  0  0  0  0  0  0  0  0  0  0
  142.3817   79.0126  221.7101 H   0  0  0  0  0  0  0  0  0  0  0  0
  141.4351   76.8999  220.4764 H   0  0  0  0  0  0  0  0  0  0  0  0
  142.0817   76.4087  222.0808 H   0  0  0  0  0  0  0  0  0  0  0  0
  144.3515   70.4809  220.8960 H   0  0  0  0  0  0  0  0  0  0  0  0
  142.7689   70.1690  220.2061 H   0  0  0  0  0  0  0  0  0  0  0  0
  144.3996   69.6179  218.4268 H   0  0  0  0  0  0  0  0  0  0  0  0
  143.7376   71.1835  217.9408 H   0  0  0  0  0  0  0  0  0  0  0  0
  1  2  1  0
  2  3  1  0
  3  4  1  0
  4  5  1  0
  5  6  1  0
  6  7  1  0
  7  8  2  0
  8  9  1  0
  9 10  1  0
 10 11  1  0
 11 12  1  0
 12 13  1  0
 13 14  2  0
 14 15  1  0
 15 16  2  0
 16 17  1  0
 17 18  2  0
 18 19  1  0
  9 20  2  0
 20 21  1  0
 21 22  1  0
 22 23  1  0
 23 24  1  0
 24 25  1  0
 25 26  2  0
 26 27  1  0
 27 28  2  0
 28 29  1  0
 29 30  2  0
 30 31  1  0
 21 32  2  0
  6 33  1  0
 33 34  1  0
 34 35  1  0
 35  4  1  0
 32  7  1  0
 19 10  1  0
 31 22  1  0
 18 13  1  0
 30 25  1  0
  1 36  1  0
  1 37  1  0
  1 38  1  0
  2 39  1  0
  2 40  1  0
  3 41  1  0
  4 42  1  1
  5 43  1  0
  5 44  1  0
 11 45  1  0
 11 46  1  0
 12 47  1  0
 12 48  1  0
 14 49  1  0
 15 50  1  0
 16 51  1  0
 17 52  1  0
 19 53  1  0
 19 54  1  0
 23 55  1  0
 23 56  1  0
 24 57  1  0
 24 58  1  0
 26 59  1  0
 27 60  1  0
 28 61  1  0
 29 62  1  0
 31 63  1  0
 31 64  1  0
 33 65  1  0
 33 66  1  0
 34 67  1  0
 34 68  1  0
M  END
>  <smiles>  (56) 
CCNC1CN(c2nc(N3CCc4ccccc4C3)nc(N3CCc4ccccc4C3)n2)CCO1

>  <score_type>  (56) 
oracle

>  <origin>  (56) 
autodockgpu

>  <m_score__min__energy>  (56) 
-10.41

>  <m_primary>  (56) 
energy

>  <rmsd>  (56) 
7.379238941181541

>  <m_score__min__rmsd>  (56) 
7.379238941181541

>  <meeko>  (56) 
{"free_energy": -10.41, "intermolecular_energy": -11.9, "internal_energy": -0.99, "cluster_size": 49, "cluster_id": 1, "rank_in_cluster": 1}

>  <energy>  (56) 
-10.38

>  <cluster_rmsd>  (56) 
0.14

>  <cluster>  (56) 
1

$$$$

     RDKit          3D

 68 73  0  0  0  0  0  0  0  0999 V2000
  145.9130   68.3790  219.3140 C   0  0  0  0  0  0  0  0  0  0  0  0
  144.9470   69.4670  218.9800 C   0  0  0  0  0  0  0  0  0  0  0  0
  145.4590   70.4450  218.0390 N   0  0  0  0  0  0  0  0  0  0  0  0
  144.8820   71.7200  218.4210 C   0  0  1  0  0  0  0  0  0  0  0  0
  143.9160   71.5850  219.5650 C   0  0  0  0  0  0  0  0  0  0  0  0
  143.6220   72.8240  220.2110 N   0  0  0  0  0  0  0  0  0  0  0  0
  142.4420   73.0950  220.9550 C   0  0  0  0  0  0  0  0  0  0  0  0
  141.8630   72.1600  221.7270 N   0  0  0  0  0  0  0  0  0  0  0  0
  140.7350   72.4050  222.4450 C   0  0  0  0  0  0  0  0  0  0  0  0
  140.1620   71.3700  223.2520 N   0  0  0  0  0  0  0  0  0  0  0  0
  139.5620   70.2310  222.5770 C   0  0  0  0  0  0  0  0  0  0  0  0
  138.5590   69.5240  223.4710 C   0  0  0  0  0  0  0  0  0  0  0  0
  139.3020   69.1510  224.7280 C   0  0  0  0  0  0  0  0  0  0  0  0
  139.1870   67.8900  225.2670 C   0  0  0  0  0  0  0  0  0  0  0  0
  139.8820   67.5800  226.4180 C   0  0  0  0  0  0  0  0  0  0  0  0
  140.6740   68.5520  226.9920 C   0  0  0  0  0  0  0  0  0  0  0  0
  140.7810   69.8280  226.4340 C   0  0  0  0  0  0  0  0  0  0  0  0
  140.0830   70.1460  225.2740 C   0  0  0  0  0  0  0  0  0  0  0  0
  140.2050   71.5050  224.6930 C   0  0  0  0  0  0  0  0  0  0  0  0
  140.1750   73.6240  222.3830 N   0  0  0  0  0  0  0  0  0  0  0  0
  140.7320   74.5800  221.6200 C   0  0  0  0  0  0  0  0  0  0  0  0
  140.1770   75.8910  221.5190 N   0  0  0  0  0  0  0  0  0  0  0  0
  138.7440   76.1210  221.4000 C   0  0  0  0  0  0  0  0  0  0  0  0
  138.3090   76.8580  222.6480 C   0  0  0  0  0  0  0  0  0  0  0  0
  139.1180   78.1100  222.7130 C   0  0  0  0  0  0  0  0  0  0  0  0
  138.5900   79.2350  223.3030 C   0  0  0  0  0  0  0  0  0  0  0  0
  139.3230   80.3970  223.3720 C   0  0  0  0  0  0  0  0  0  0  0  0
  140.5980   80.5100  222.8680 C   0  0  0  0  0  0  0  0  0  0  0  0
  141.1450   79.3730  222.2680 C   0  0  0  0  0  0  0  0  0  0  0  0
  140.4010   78.1960  222.2000 C   0  0  0  0  0  0  0  0  0  0  0  0
  141.0750   77.0360  221.5380 C   0  0  0  0  0  0  0  0  0  0  0  0
  141.8570   74.3010  220.9170 N   0  0  0  0  0  0  0  0  0  0  0  0
  144.6210   73.8950  220.0890 C   0  0  0  0  0  0  0  0  0  0  0  0
  145.9400   73.1360  219.8990 C   0  0  0  0  0  0  0  0  0  0  0  0
  145.8920   72.6230  218.6050 O   0  0  0  0  0  0  0  0  0  0  0  0
  145.9962   68.2853  220.4068 H   0  0  0  0  0  0  0  0  0  0  0  0
  145.5557   67.4287  218.8906 H   0  0  0  0  0  0  0  0  0  0  0  0
  146.8989   68.6213  218.8906 H   0  0  0  0  0  0  0  0  0  0  0  0
  144.0465   69.0082  218.5457 H   0  0  0  0  0  0  0  0  0  0  0  0
  144.7398   70.0058  219.9163 H   0  0  0  0  0  0  0  0  0  0  0  0
  145.1990   70.2100  217.0700 H   0  0  0  0  0  0  0  0  0  0  0  0
  144.2499   72.1145  217.6118 H   0  0  0  0  0  0  0  0  0  0  0  0
  142.9767   71.1618  219.1795 H   0  0  0  0  0  0  0  0  0  0  0  0
  144.3903   70.9339  220.3141 H   0  0  0  0  0  0  0  0  0  0  0  0
  139.0481   70.5822  221.6700 H   0  0  0  0  0  0  0  0  0  0  0  0
  140.3608   69.5192  222.3215 H   0  0  0  0  0  0  0  0  0  0  0  0
  137.7211   70.1958  223.7090 H   0  0  0  0  0  0  0  0  0  0  0  0
  138.1390   68.6358  222.9763 H   0  0  0  0  0  0  0  0  0  0  0  0
  138.5471   67.1363  224.7848 H   0  0  0  0  0  0  0  0  0  0  0  0
  139.8059   66.5791  226.8680 H   0  0  0  0  0  0  0  0  0  0  0  0
  141.2337   68.3174  227.9094 H   0  0  0  0  0  0  0  0  0  0  0  0
  141.4197   70.5841  226.9139 H   0  0  0  0  0  0  0  0  0  0  0  0
  139.3716   72.1358  225.0358 H   0  0  0  0  0  0  0  0  0  0  0  0
  141.1468   71.9774  225.0090 H   0  0  0  0  0  0  0  0  0  0  0  0
  138.5318   76.7296  220.5086 H   0  0  0  0  0  0  0  0  0  0  0  0
  138.2011   75.1700  221.2964 H   0  0  0  0  0  0  0  0  0  0  0  0
  137.2379   77.1018  222.5899 H   0  0  0  0  0  0  0  0  0  0  0  0
  138.4640   76.2408  223.5452 H   0  0  0  0  0  0  0  0  0  0  0  0
  137.5737   79.2051  223.7229 H   0  0  0  0  0  0  0  0  0  0  0  0
  138.8688   81.2762  223.8522 H   0  0  0  0  0  0  0  0  0  0  0  0
  141.1612   81.4526  222.9344 H   0  0  0  0  0  0  0  0  0  0  0  0
  142.1618   79.4065  221.8497 H   0  0  0  0  0  0  0  0  0  0  0  0
  141.3416   77.3085  220.5062 H   0  0  0  0  0  0  0  0  0  0  0  0
  141.9848   76.7755  222.0987 H   0  0  0  0  0  0  0  0  0  0  0  0
  144.4071   74.5348  219.2202 H   0  0  0  0  0  0  0  0  0  0  0  0
  144.6358   74.5676  220.9593 H   0  0  0  0  0  0  0  0  0  0  0  0
  146.7955   73.8184  220.0104 H   0  0  0  0  0  0  0  0  0  0  0  0
  146.0644   72.3406  220.6486 H   0  0  0  0  0  0  0  0  0  0  0  0
  1  2  1  0
  2  3  1  0
  3  4  1  0
  4  5  1  0
  5  6  1  0
  6  7  1  0
  7  8  2  0
  8  9  1  0
  9 10  1  0
 10 11  1  0
 11 12  1  0
 12 13  1  0
 13 14  2  0
 14 15  1  0
 15 16  2  0
 16 17  1  0
 17 18  2  0
 18 19  1  0
  9 20  2  0
 20 21  1  0
 21 22  1  0
 22 23  1  0
 23 24  1  0
 24 25  1  0
 25 26  2  0
 26 27  1  0
 27 28  2  0
 28 29  1  0
 29 30  2  0
 30 31  1  0
 21 32  2  0
  6 33  1  0
 33 34  1  0
 34 35  1  0
 35  4  1  0
 32  7  1  0
 19 10  1  0
 31 22  1  0
 18 13  1  0
 30 25  1  0
  1 36  1  0
  1 37  1  0
  1 38  1  0
  2 39  1  0
  2 40  1  0
  3 41  1  0
  4 42  1  6
  5 43  1  0
  5 44  1  0
 11 45  1  0
 11 46  1  0
 12 47  1  0
 12 48  1  0
 14 49  1  0
 15 50  1  0
 16 51  1  0
 17 52  1  0
 19 53  1  0
 19 54  1  0
 23 55  1  0
 23 56  1  0
 24 57  1  0
 24 58  1  0
 26 59  1  0
 27 60  1  0
 28 61  1  0
 29 62  1  0
 31 63  1  0
 31 64  1  0
 33 65  1  0
 33 66  1  0
 34 67  1  0
 34 68  1  0
M  END
>  <smiles>  (57) 
CCNC1CN(c2nc(N3CCc4ccccc4C3)nc(N3CCc4ccccc4C3)n2)CCO1

>  <score_type>  (57) 
oracle

>  <origin>  (57) 
autodockgpu

>  <m_score__min__energy>  (57) 
-10.41

>  <m_primary>  (57) 
energy

>  <rmsd>  (57) 
9.008224759408234

>  <m_score__min__rmsd>  (57) 
9.008224759408234

>  <meeko>  (57) 
{"free_energy": -10.28, "intermolecular_energy": -11.77, "internal_energy": -1.01, "cluster_size": 49, "cluster_id": 1, "rank_in_cluster": 28}

>  <energy>  (57) 
-10.38

>  <cluster_rmsd>  (57) 
0.19

>  <cluster>  (57) 
1

$$$$

     RDKit          3D

 68 73  0  0  0  0  0  0  0  0999 V2000
  145.9960   72.7640  216.1680 C   0  0  0  0  0  0  0  0  0  0  0  0
  145.4560   73.4460  217.3810 C   0  0  0  0  0  0  0  0  0  0  0  0
  146.2480   73.2390  218.5790 N   0  0  0  0  0  0  0  0  0  0  0  0
  145.4040   72.5090  219.5050 C   0  0  1  0  0  0  0  0  0  0  0  0
  144.1150   73.2300  219.7880 C   0  0  0  0  0  0  0  0  0  0  0  0
  143.1140   72.3990  220.3750 N   0  0  0  0  0  0  0  0  0  0  0  0
  142.0310   72.8630  221.1680 C   0  0  0  0  0  0  0  0  0  0  0  0
  141.6460   74.1510  221.1550 N   0  0  0  0  0  0  0  0  0  0  0  0
  140.6120   74.6100  221.9080 C   0  0  0  0  0  0  0  0  0  0  0  0
  140.2450   75.9930  221.8530 N   0  0  0  0  0  0  0  0  0  0  0  0
  138.9260   76.3700  222.3340 C   0  0  0  0  0  0  0  0  0  0  0  0
  138.4790   77.6930  221.7400 C   0  0  0  0  0  0  0  0  0  0  0  0
  139.5500   78.6960  222.0850 C   0  0  0  0  0  0  0  0  0  0  0  0
  139.2210   79.9340  222.5870 C   0  0  0  0  0  0  0  0  0  0  0  0
  140.2260   80.8280  222.8940 C   0  0  0  0  0  0  0  0  0  0  0  0
  141.5350   80.4470  222.6860 C   0  0  0  0  0  0  0  0  0  0  0  0
  141.8540   79.1860  222.1760 C   0  0  0  0  0  0  0  0  0  0  0  0
  140.8450   78.2810  221.8650 C   0  0  0  0  0  0  0  0  0  0  0  0
  141.1980   76.9460  221.3220 C   0  0  0  0  0  0  0  0  0  0  0  0
  139.9490   73.7490  222.6980 N   0  0  0  0  0  0  0  0  0  0  0  0
  140.3110   72.4550  222.7320 C   0  0  0  0  0  0  0  0  0  0  0  0
  139.6390   71.5000  223.5520 N   0  0  0  0  0  0  0  0  0  0  0  0
  138.6440   70.5800  223.0190 C   0  0  0  0  0  0  0  0  0  0  0  0
  139.2050   69.1840  223.1720 C   0  0  0  0  0  0  0  0  0  0  0  0
  139.4900   68.9900  224.6240 C   0  0  0  0  0  0  0  0  0  0  0  0
  139.4070   67.7320  225.1740 C   0  0  0  0  0  0  0  0  0  0  0  0
  139.6670   67.5350  226.5100 C   0  0  0  0  0  0  0  0  0  0  0  0
  140.0170   68.5560  227.3640 C   0  0  0  0  0  0  0  0  0  0  0  0
  140.1040   69.8380  226.8150 C   0  0  0  0  0  0  0  0  0  0  0  0
  139.8410   70.0350  225.4600 C   0  0  0  0  0  0  0  0  0  0  0  0
  139.9620   71.4440  224.9710 C   0  0  0  0  0  0  0  0  0  0  0  0
  141.3470   72.0320  221.9670 N   0  0  0  0  0  0  0  0  0  0  0  0
  143.2220   70.9530  220.1350 C   0  0  0  0  0  0  0  0  0  0  0  0
  143.9560   70.8650  218.7910 C   0  0  0  0  0  0  0  0  0  0  0  0
  145.2750   71.2220  219.0640 O   0  0  0  0  0  0  0  0  0  0  0  0
  146.6518   71.9357  216.4744 H   0  0  0  0  0  0  0  0  0  0  0  0
  145.1629   72.3693  215.5678 H   0  0  0  0  0  0  0  0  0  0  0  0
  146.5712   73.4844  215.5678 H   0  0  0  0  0  0  0  0  0  0  0  0
  145.4113   74.5263  217.1788 H   0  0  0  0  0  0  0  0  0  0  0  0
  144.4656   73.0090  217.5761 H   0  0  0  0  0  0  0  0  0  0  0  0
  146.5470   74.1340  218.9940 H   0  0  0  0  0  0  0  0  0  0  0  0
  145.8778   72.4563  220.4963 H   0  0  0  0  0  0  0  0  0  0  0  0
  144.3252   74.0613  220.4771 H   0  0  0  0  0  0  0  0  0  0  0  0
  143.7205   73.5780  218.8219 H   0  0  0  0  0  0  0  0  0  0  0  0
  138.2050   75.5888  222.0516 H   0  0  0  0  0  0  0  0  0  0  0  0
  138.9737   76.4792  223.4275 H   0  0  0  0  0  0  0  0  0  0  0  0
  138.3771   77.6051  220.6483 H   0  0  0  0  0  0  0  0  0  0  0  0
  137.5009   77.9999  222.1390 H   0  0  0  0  0  0  0  0  0  0  0  0
  138.1671   80.2083  222.7421 H   0  0  0  0  0  0  0  0  0  0  0  0
  139.9882   81.8238  223.2962 H   0  0  0  0  0  0  0  0  0  0  0  0
  142.3452   81.1509  222.9268 H   0  0  0  0  0  0  0  0  0  0  0  0
  142.9068   78.9081  222.0199 H   0  0  0  0  0  0  0  0  0  0  0  0
  141.1418   76.9607  220.2235 H   0  0  0  0  0  0  0  0  0  0  0  0
  142.2230   76.6697  221.6101 H   0  0  0  0  0  0  0  0  0  0  0  0
  137.7037   70.6730  223.5821 H   0  0  0  0  0  0  0  0  0  0  0  0
  138.4290   70.8030  221.9635 H   0  0  0  0  0  0  0  0  0  0  0  0
  138.4705   68.4410  222.8278 H   0  0  0  0  0  0  0  0  0  0  0  0
  140.1173   69.0574  222.5706 H   0  0  0  0  0  0  0  0  0  0  0  0
  139.1304   66.8766  224.5401 H   0  0  0  0  0  0  0  0  0  0  0  0
  139.5918   66.5149  226.9145 H   0  0  0  0  0  0  0  0  0  0  0  0
  140.2189   68.3713  228.4294 H   0  0  0  0  0  0  0  0  0  0  0  0
  140.3799   70.6916  227.4517 H   0  0  0  0  0  0  0  0  0  0  0  0
  139.2658   72.0863  225.5302 H   0  0  0  0  0  0  0  0  0  0  0  0
  140.9929   71.7958  225.1243 H   0  0  0  0  0  0  0  0  0  0  0  0
  143.8019   70.4647  220.9320 H   0  0  0  0  0  0  0  0  0  0  0  0
  142.2452   70.4474  220.1228 H   0  0  0  0  0  0  0  0  0  0  0  0
  143.9093   69.8403  218.3937 H   0  0  0  0  0  0  0  0  0  0  0  0
  143.5031   71.5226  218.0344 H   0  0  0  0  0  0  0  0  0  0  0  0
  1  2  1  0
  2  3  1  0
  3  4  1  0
  4  5  1  0
  5  6  1  0
  6  7  1  0
  7  8  2  0
  8  9  1  0
  9 10  1  0
 10 11  1  0
 11 12  1  0
 12 13  1  0
 13 14  2  0
 14 15  1  0
 15 16  2  0
 16 17  1  0
 17 18  2  0
 18 19  1  0
  9 20  2  0
 20 21  1  0
 21 22  1  0
 22 23  1  0
 23 24  1  0
 24 25  1  0
 25 26  2  0
 26 27  1  0
 27 28  2  0
 28 29  1  0
 29 30  2  0
 30 31  1  0
 21 32  2  0
  6 33  1  0
 33 34  1  0
 34 35  1  0
 35  4  1  0
 32  7  1  0
 19 10  1  0
 31 22  1  0
 18 13  1  0
 30 25  1  0
  1 36  1  0
  1 37  1  0
  1 38  1  0
  2 39  1  0
  2 40  1  0
  3 41  1  0
  4 42  1  1
  5 43  1  0
  5 44  1  0
 11 45  1  0
 11 46  1  0
 12 47  1  0
 12 48  1  0
 14 49  1  0
 15 50  1  0
 16 51  1  0
 17 52  1  0
 19 53  1  0
 19 54  1  0
 23 55  1  0
 23 56  1  0
 24 57  1  0
 24 58  1  0
 26 59  1  0
 27 60  1  0
 28 61  1  0
 29 62  1  0
 31 63  1  0
 31 64  1  0
 33 65  1  0
 33 66  1  0
 34 67  1  0
 34 68  1  0
M  END
>  <smiles>  (58) 
CCNC1CN(c2nc(N3CCc4ccccc4C3)nc(N3CCc4ccccc4C3)n2)CCO1

>  <score_type>  (58) 
oracle

>  <origin>  (58) 
autodockgpu

>  <m_score__min__energy>  (58) 
-10.41

>  <m_primary>  (58) 
energy

>  <rmsd>  (58) 
7.618466476436146

>  <m_score__min__rmsd>  (58) 
7.618466476436146

>  <meeko>  (58) 
{"free_energy": -9.98, "intermolecular_energy": -11.47, "internal_energy": -1.0, "cluster_size": 49, "cluster_id": 1, "rank_in_cluster": 46}

>  <energy>  (58) 
-10.37

>  <cluster_rmsd>  (58) 
0.1

>  <cluster>  (58) 
1

$$$$

     RDKit          3D

 68 73  0  0  0  0  0  0  0  0999 V2000
  145.9490   68.4070  219.2990 C   0  0  0  0  0  0  0  0  0  0  0  0
  144.9890   69.5020  218.9740 C   0  0  0  0  0  0  0  0  0  0  0  0
  145.4900   70.4630  218.0100 N   0  0  0  0  0  0  0  0  0  0  0  0
  144.9100   71.7430  218.3700 C   0  0  1  0  0  0  0  0  0  0  0  0
  143.9590   71.6290  219.5280 C   0  0  0  0  0  0  0  0  0  0  0  0
  143.6650   72.8810  220.1490 N   0  0  0  0  0  0  0  0  0  0  0  0
  142.4940   73.1630  220.9020 C   0  0  0  0  0  0  0  0  0  0  0  0
  141.9030   72.2280  221.6660 N   0  0  0  0  0  0  0  0  0  0  0  0
  140.7820   72.4830  222.3920 C   0  0  0  0  0  0  0  0  0  0  0  0
  140.1960   71.4490  223.1900 N   0  0  0  0  0  0  0  0  0  0  0  0
  139.5530   70.3390  222.5060 C   0  0  0  0  0  0  0  0  0  0  0  0
  138.5480   69.6430  223.4050 C   0  0  0  0  0  0  0  0  0  0  0  0
  139.3040   69.2260  224.6410 C   0  0  0  0  0  0  0  0  0  0  0  0
  139.1640   67.9580  225.1580 C   0  0  0  0  0  0  0  0  0  0  0  0
  139.8720   67.6090  226.2900 C   0  0  0  0  0  0  0  0  0  0  0  0
  140.7000   68.5480  226.8670 C   0  0  0  0  0  0  0  0  0  0  0  0
  140.8320   69.8310  226.3310 C   0  0  0  0  0  0  0  0  0  0  0  0
  140.1220   70.1890  225.1900 C   0  0  0  0  0  0  0  0  0  0  0  0
  140.2690   71.5560  224.6320 C   0  0  0  0  0  0  0  0  0  0  0  0
  140.2410   73.7120  222.3450 N   0  0  0  0  0  0  0  0  0  0  0  0
  140.8100   74.6670  221.5900 C   0  0  0  0  0  0  0  0  0  0  0  0
  140.2750   75.9870  221.5050 N   0  0  0  0  0  0  0  0  0  0  0  0
  138.8440   76.2420  221.4220 C   0  0  0  0  0  0  0  0  0  0  0  0
  138.4530   76.9840  222.6820 C   0  0  0  0  0  0  0  0  0  0  0  0
  139.2850   78.2210  222.7290 C   0  0  0  0  0  0  0  0  0  0  0  0
  138.7910   79.3540  223.3340 C   0  0  0  0  0  0  0  0  0  0  0  0
  139.5450   80.5030  223.3880 C   0  0  0  0  0  0  0  0  0  0  0  0
  140.8090   80.5950  222.8530 C   0  0  0  0  0  0  0  0  0  0  0  0
  141.3210   79.4500  222.2370 C   0  0  0  0  0  0  0  0  0  0  0  0
  140.5550   78.2870  222.1850 C   0  0  0  0  0  0  0  0  0  0  0  0
  141.1930   77.1170  221.5040 C   0  0  0  0  0  0  0  0  0  0  0  0
  141.9280   74.3780  220.8780 N   0  0  0  0  0  0  0  0  0  0  0  0
  144.6570   73.9540  219.9900 C   0  0  0  0  0  0  0  0  0  0  0  0
  145.9780   73.1980  219.8020 C   0  0  0  0  0  0  0  0  0  0  0  0
  145.9170   72.6550  218.5210 O   0  0  0  0  0  0  0  0  0  0  0  0
  146.0360   68.3078  220.3911 H   0  0  0  0  0  0  0  0  0  0  0  0
  145.5840   67.4609  218.8728 H   0  0  0  0  0  0  0  0  0  0  0  0
  146.9347   68.6451  218.8728 H   0  0  0  0  0  0  0  0  0  0  0  0
  144.0735   69.0488  218.5660 H   0  0  0  0  0  0  0  0  0  0  0  0
  144.8101   70.0543  219.9083 H   0  0  0  0  0  0  0  0  0  0  0  0
  145.2240   70.2060  217.0470 H   0  0  0  0  0  0  0  0  0  0  0  0
  144.2655   72.1154  217.5601 H   0  0  0  0  0  0  0  0  0  0  0  0
  143.0178   71.1914  219.1638 H   0  0  0  0  0  0  0  0  0  0  0  0
  144.4464   70.9983  220.2861 H   0  0  0  0  0  0  0  0  0  0  0  0
  139.0325   70.7205  221.6152 H   0  0  0  0  0  0  0  0  0  0  0  0
  140.3275   69.6108  222.2232 H   0  0  0  0  0  0  0  0  0  0  0  0
  137.7334   70.3326  223.6712 H   0  0  0  0  0  0  0  0  0  0  0  0
  138.0946   68.7761  222.9020 H   0  0  0  0  0  0  0  0  0  0  0  0
  138.4952   67.2309  224.6742 H   0  0  0  0  0  0  0  0  0  0  0  0
  139.7775   66.6022  226.7230 H   0  0  0  0  0  0  0  0  0  0  0  0
  141.2693   68.2809  227.7695 H   0  0  0  0  0  0  0  0  0  0  0  0
  141.4996   70.5605  226.8128 H   0  0  0  0  0  0  0  0  0  0  0  0
  139.4588   72.2015  225.0020 H   0  0  0  0  0  0  0  0  0  0  0  0
  141.2283   71.9981  224.9391 H   0  0  0  0  0  0  0  0  0  0  0  0
  138.6204   76.8561  220.5372 H   0  0  0  0  0  0  0  0  0  0  0  0
  138.2822   75.3008  221.3303 H   0  0  0  0  0  0  0  0  0  0  0  0
  137.3853   77.2467  222.6510 H   0  0  0  0  0  0  0  0  0  0  0  0
  138.6193   76.3622  223.5741 H   0  0  0  0  0  0  0  0  0  0  0  0
  137.7847   79.3406  223.7781 H   0  0  0  0  0  0  0  0  0  0  0  0
  139.1179   81.3886  223.8814 H   0  0  0  0  0  0  0  0  0  0  0  0
  141.3902   81.5273  222.9076 H   0  0  0  0  0  0  0  0  0  0  0  0
  142.3276   79.4666  221.7936 H   0  0  0  0  0  0  0  0  0  0  0  0
  141.4386   77.3874  220.4664 H   0  0  0  0  0  0  0  0  0  0  0  0
  142.1119   76.8398  222.0414 H   0  0  0  0  0  0  0  0  0  0  0  0
  144.4293   74.5721  219.1091 H   0  0  0  0  0  0  0  0  0  0  0  0
  144.6785   74.6466  220.8443 H   0  0  0  0  0  0  0  0  0  0  0  0
  146.8309   73.8874  219.8871 H   0  0  0  0  0  0  0  0  0  0  0  0
  146.1162   72.4211  220.5684 H   0  0  0  0  0  0  0  0  0  0  0  0
  1  2  1  0
  2  3  1  0
  3  4  1  0
  4  5  1  0
  5  6  1  0
  6  7  1  0
  7  8  2  0
  8  9  1  0
  9 10  1  0
 10 11  1  0
 11 12  1  0
 12 13  1  0
 13 14  2  0
 14 15  1  0
 15 16  2  0
 16 17  1  0
 17 18  2  0
 18 19  1  0
  9 20  2  0
 20 21  1  0
 21 22  1  0
 22 23  1  0
 23 24  1  0
 24 25  1  0
 25 26  2  0
 26 27  1  0
 27 28  2  0
 28 29  1  0
 29 30  2  0
 30 31  1  0
 21 32  2  0
  6 33  1  0
 33 34  1  0
 34 35  1  0
 35  4  1  0
 32  7  1  0
 19 10  1  0
 31 22  1  0
 18 13  1  0
 30 25  1  0
  1 36  1  0
  1 37  1  0
  1 38  1  0
  2 39  1  0
  2 40  1  0
  3 41  1  0
  4 42  1  6
  5 43  1  0
  5 44  1  0
 11 45  1  0
 11 46  1  0
 12 47  1  0
 12 48  1  0
 14 49  1  0
 15 50  1  0
 16 51  1  0
 17 52  1  0
 19 53  1  0
 19 54  1  0
 23 55  1  0
 23 56  1  0
 24 57  1  0
 24 58  1  0
 26 59  1  0
 27 60  1  0
 28 61  1  0
 29 62  1  0
 31 63  1  0
 31 64  1  0
 33 65  1  0
 33 66  1  0
 34 67  1  0
 34 68  1  0
M  END
>  <smiles>  (59) 
CCNC1CN(c2nc(N3CCc4ccccc4C3)nc(N3CCc4ccccc4C3)n2)CCO1

>  <score_type>  (59) 
oracle

>  <origin>  (59) 
autodockgpu

>  <m_score__min__energy>  (59) 
-10.41

>  <m_primary>  (59) 
energy

>  <rmsd>  (59) 
9.000089346853093

>  <m_score__min__rmsd>  (59) 
9.000089346853093

>  <meeko>  (59) 
{"free_energy": -10.28, "intermolecular_energy": -11.78, "internal_energy": -1.01, "cluster_size": 49, "cluster_id": 1, "rank_in_cluster": 25}

>  <energy>  (59) 
-10.36

>  <cluster_rmsd>  (59) 
0.21

>  <cluster>  (59) 
1

$$$$

     RDKit          3D

 68 73  0  0  0  0  0  0  0  0999 V2000
  145.9890   74.1630  215.9690 C   0  0  0  0  0  0  0  0  0  0  0  0
  145.3450   73.6240  217.2030 C   0  0  0  0  0  0  0  0  0  0  0  0
  146.2780   73.3030  218.2660 N   0  0  0  0  0  0  0  0  0  0  0  0
  145.5350   72.5260  219.2410 C   0  0  1  0  0  0  0  0  0  0  0  0
  144.2070   73.1490  219.5690 C   0  0  0  0  0  0  0  0  0  0  0  0
  143.3010   72.2520  220.2120 N   0  0  0  0  0  0  0  0  0  0  0  0
  142.2200   72.6440  221.0460 C   0  0  0  0  0  0  0  0  0  0  0  0
  141.6860   71.8070  221.9530 N   0  0  0  0  0  0  0  0  0  0  0  0
  140.6510   72.1680  222.7570 C   0  0  0  0  0  0  0  0  0  0  0  0
  140.1240   71.2350  223.7060 N   0  0  0  0  0  0  0  0  0  0  0  0
  139.4230   70.0670  223.1990 C   0  0  0  0  0  0  0  0  0  0  0  0
  138.4870   69.4870  224.2430 C   0  0  0  0  0  0  0  0  0  0  0  0
  139.3340   69.1960  225.4560 C   0  0  0  0  0  0  0  0  0  0  0  0
  139.2290   67.9940  226.1180 C   0  0  0  0  0  0  0  0  0  0  0  0
  140.0200   67.7600  227.2230 C   0  0  0  0  0  0  0  0  0  0  0  0
  140.8960   68.7450  227.6290 C   0  0  0  0  0  0  0  0  0  0  0  0
  140.9920   69.9600  226.9470 C   0  0  0  0  0  0  0  0  0  0  0  0
  140.1980   70.2020  225.8320 C   0  0  0  0  0  0  0  0  0  0  0  0
  140.3090   71.4980  225.1180 C   0  0  0  0  0  0  0  0  0  0  0  0
  140.1400   73.4050  222.6440 N   0  0  0  0  0  0  0  0  0  0  0  0
  140.6530   74.2640  221.7460 C   0  0  0  0  0  0  0  0  0  0  0  0
  140.1460   75.5890  221.5870 N   0  0  0  0  0  0  0  0  0  0  0  0
  138.7210   75.8670  221.4720 C   0  0  0  0  0  0  0  0  0  0  0  0
  138.3310   76.6810  222.6870 C   0  0  0  0  0  0  0  0  0  0  0  0
  139.1870   77.9030  222.6810 C   0  0  0  0  0  0  0  0  0  0  0  0
  138.7090   79.0750  223.2190 C   0  0  0  0  0  0  0  0  0  0  0  0
  139.4850   80.2100  223.2230 C   0  0  0  0  0  0  0  0  0  0  0  0
  140.7570   80.2490  222.7000 C   0  0  0  0  0  0  0  0  0  0  0  0
  141.2530   79.0640  222.1510 C   0  0  0  0  0  0  0  0  0  0  0  0
  140.4650   77.9150  222.1500 C   0  0  0  0  0  0  0  0  0  0  0  0
  141.0870   76.6990  221.5380 C   0  0  0  0  0  0  0  0  0  0  0  0
  141.6850   73.8710  220.9600 N   0  0  0  0  0  0  0  0  0  0  0  0
  143.5130   70.8140  219.9900 C   0  0  0  0  0  0  0  0  0  0  0  0
  144.1940   70.7600  218.6160 C   0  0  0  0  0  0  0  0  0  0  0  0
  145.4910   71.2250  218.8250 O   0  0  0  0  0  0  0  0  0  0  0  0
  146.8047   74.8457  216.2494 H   0  0  0  0  0  0  0  0  0  0  0  0
  146.3949   73.3315  215.3741 H   0  0  0  0  0  0  0  0  0  0  0  0
  145.2420   74.7090  215.3741 H   0  0  0  0  0  0  0  0  0  0  0  0
  144.6372   74.3768  217.5803 H   0  0  0  0  0  0  0  0  0  0  0  0
  144.8523   72.6826  216.9184 H   0  0  0  0  0  0  0  0  0  0  0  0
  146.6610   74.1550  218.7030 H   0  0  0  0  0  0  0  0  0  0  0  0
  146.0522   72.5288  220.2118 H   0  0  0  0  0  0  0  0  0  0  0  0
  144.3798   74.0067  220.2356 H   0  0  0  0  0  0  0  0  0  0  0  0
  143.7454   73.4478  218.6163 H   0  0  0  0  0  0  0  0  0  0  0  0
  138.8369   70.3572  222.3145 H   0  0  0  0  0  0  0  0  0  0  0  0
  140.1688   69.3014  222.9389 H   0  0  0  0  0  0  0  0  0  0  0  0
  137.6994   70.2129  224.4937 H   0  0  0  0  0  0  0  0  0  0  0  0
  137.9912   68.5770  223.8740 H   0  0  0  0  0  0  0  0  0  0  0  0
  138.5212   67.2276  225.7691 H   0  0  0  0  0  0  0  0  0  0  0  0
  139.9538   66.8076  227.7693 H   0  0  0  0  0  0  0  0  0  0  0  0
  141.5326   68.5699  228.5088 H   0  0  0  0  0  0  0  0  0  0  0  0
  141.6987   70.7284  227.2936 H   0  0  0  0  0  0  0  0  0  0  0  0
  139.5334   72.1913  225.4756 H   0  0  0  0  0  0  0  0  0  0  0  0
  141.2915   71.9578  225.3007 H   0  0  0  0  0  0  0  0  0  0  0  0
  138.5202   76.4384  220.5538 H   0  0  0  0  0  0  0  0  0  0  0  0
  138.1411   74.9336  221.4214 H   0  0  0  0  0  0  0  0  0  0  0  0
  137.2691   76.9623  222.6292 H   0  0  0  0  0  0  0  0  0  0  0  0
  138.4751   76.1031  223.6118 H   0  0  0  0  0  0  0  0  0  0  0  0
  137.6973   79.1046  223.6497 H   0  0  0  0  0  0  0  0  0  0  0  0
  139.0702   81.1283  223.6643 H   0  0  0  0  0  0  0  0  0  0  0  0
  141.3562   81.1714  222.7135 H   0  0  0  0  0  0  0  0  0  0  0  0
  142.2647   79.0381  221.7199 H   0  0  0  0  0  0  0  0  0  0  0  0
  141.3492   76.9101  220.4908 H   0  0  0  0  0  0  0  0  0  0  0  0
  141.9945   76.4323  222.0994 H   0  0  0  0  0  0  0  0  0  0  0  0
  144.1633   70.3878  220.7681 H   0  0  0  0  0  0  0  0  0  0  0  0
  142.5801   70.2325  220.0288 H   0  0  0  0  0  0  0  0  0  0  0  0
  144.2122   69.7278  218.2362 H   0  0  0  0  0  0  0  0  0  0  0  0
  143.6582   71.3662  217.8707 H   0  0  0  0  0  0  0  0  0  0  0  0
  1  2  1  0
  2  3  1  0
  3  4  1  0
  4  5  1  0
  5  6  1  0
  6  7  1  0
  7  8  2  0
  8  9  1  0
  9 10  1  0
 10 11  1  0
 11 12  1  0
 12 13  1  0
 13 14  2  0
 14 15  1  0
 15 16  2  0
 16 17  1  0
 17 18  2  0
 18 19  1  0
  9 20  2  0
 20 21  1  0
 21 22  1  0
 22 23  1  0
 23 24  1  0
 24 25  1  0
 25 26  2  0
 26 27  1  0
 27 28  2  0
 28 29  1  0
 29 30  2  0
 30 31  1  0
 21 32  2  0
  6 33  1  0
 33 34  1  0
 34 35  1  0
 35  4  1  0
 32  7  1  0
 19 10  1  0
 31 22  1  0
 18 13  1  0
 30 25  1  0
  1 36  1  0
  1 37  1  0
  1 38  1  0
  2 39  1  0
  2 40  1  0
  3 41  1  0
  4 42  1  1
  5 43  1  0
  5 44  1  0
 11 45  1  0
 11 46  1  0
 12 47  1  0
 12 48  1  0
 14 49  1  0
 15 50  1  0
 16 51  1  0
 17 52  1  0
 19 53  1  0
 19 54  1  0
 23 55  1  0
 23 56  1  0
 24 57  1  0
 24 58  1  0
 26 59  1  0
 27 60  1  0
 28 61  1  0
 29 62  1  0
 31 63  1  0
 31 64  1  0
 33 65  1  0
 33 66  1  0
 34 67  1  0
 34 68  1  0
M  END
>  <smiles>  (60) 
CCNC1CN(c2nc(N3CCc4ccccc4C3)nc(N3CCc4ccccc4C3)n2)CCO1

>  <score_type>  (60) 
oracle

>  <origin>  (60) 
autodockgpu

>  <m_score__min__energy>  (60) 
-10.41

>  <m_primary>  (60) 
energy

>  <rmsd>  (60) 
7.398494338966389

>  <m_score__min__rmsd>  (60) 
7.398494338966389

>  <meeko>  (60) 
{"free_energy": -10.4, "intermolecular_energy": -11.89, "internal_energy": -0.98, "cluster_size": 49, "cluster_id": 1, "rank_in_cluster": 2}

>  <energy>  (60) 
-10.34

>  <cluster_rmsd>  (60) 
0.3

>  <cluster>  (60) 
1

$$$$

     RDKit          3D

 68 73  0  0  0  0  0  0  0  0999 V2000
  146.1960   74.1870  216.0070 C   0  0  0  0  0  0  0  0  0  0  0  0
  145.4750   73.5570  217.1520 C   0  0  0  0  0  0  0  0  0  0  0  0
  146.3180   73.2650  218.2960 N   0  0  0  0  0  0  0  0  0  0  0  0
  145.5190   72.4580  219.1980 C   0  0  1  0  0  0  0  0  0  0  0  0
  144.2250   73.1310  219.5650 C   0  0  0  0  0  0  0  0  0  0  0  0
  143.2600   72.2420  220.1270 N   0  0  0  0  0  0  0  0  0  0  0  0
  142.1940   72.6300  220.9810 C   0  0  0  0  0  0  0  0  0  0  0  0
  141.6700   71.7860  221.8870 N   0  0  0  0  0  0  0  0  0  0  0  0
  140.6490   72.1440  222.7110 C   0  0  0  0  0  0  0  0  0  0  0  0
  140.1310   71.2030  223.6580 N   0  0  0  0  0  0  0  0  0  0  0  0
  139.4390   70.0310  223.1480 C   0  0  0  0  0  0  0  0  0  0  0  0
  138.5110   69.4390  224.1920 C   0  0  0  0  0  0  0  0  0  0  0  0
  139.3630   69.1510  225.4020 C   0  0  0  0  0  0  0  0  0  0  0  0
  139.2690   67.9460  226.0600 C   0  0  0  0  0  0  0  0  0  0  0  0
  140.0640   67.7150  227.1630 C   0  0  0  0  0  0  0  0  0  0  0  0
  140.9320   68.7050  227.5700 C   0  0  0  0  0  0  0  0  0  0  0  0
  141.0170   69.9240  226.8930 C   0  0  0  0  0  0  0  0  0  0  0  0
  140.2180   70.1630  225.7800 C   0  0  0  0  0  0  0  0  0  0  0  0
  140.3170   71.4620  225.0700 C   0  0  0  0  0  0  0  0  0  0  0  0
  140.1430   73.3850  222.6200 N   0  0  0  0  0  0  0  0  0  0  0  0
  140.6460   74.2510  221.7240 C   0  0  0  0  0  0  0  0  0  0  0  0
  140.1440   75.5790  221.5870 N   0  0  0  0  0  0  0  0  0  0  0  0
  138.7220   75.8630  221.4540 C   0  0  0  0  0  0  0  0  0  0  0  0
  138.3110   76.6490  222.6800 C   0  0  0  0  0  0  0  0  0  0  0  0
  139.1690   77.8690  222.7180 C   0  0  0  0  0  0  0  0  0  0  0  0
  138.6840   79.0290  223.2760 C   0  0  0  0  0  0  0  0  0  0  0  0
  139.4610   80.1620  223.3190 C   0  0  0  0  0  0  0  0  0  0  0  0
  140.7420   80.2120  222.8200 C   0  0  0  0  0  0  0  0  0  0  0  0
  141.2460   79.0390  222.2520 C   0  0  0  0  0  0  0  0  0  0  0  0
  140.4560   77.8910  222.2100 C   0  0  0  0  0  0  0  0  0  0  0  0
  141.0870   76.6890  221.5810 C   0  0  0  0  0  0  0  0  0  0  0  0
  141.6640   73.8610  220.9170 N   0  0  0  0  0  0  0  0  0  0  0  0
  143.3890   70.8170  219.7900 C   0  0  0  0  0  0  0  0  0  0  0  0
  144.0820   70.8320  218.4220 C   0  0  0  0  0  0  0  0  0  0  0  0
  145.4010   71.2000  218.6770 O   0  0  0  0  0  0  0  0  0  0  0  0
  146.9722   74.8652  216.3910 H   0  0  0  0  0  0  0  0  0  0  0  0
  146.6645   73.4037  215.3931 H   0  0  0  0  0  0  0  0  0  0  0  0
  145.4826   74.7563  215.3931 H   0  0  0  0  0  0  0  0  0  0  0  0
  144.6776   74.2417  217.4766 H   0  0  0  0  0  0  0  0  0  0  0  0
  145.0873   72.5932  216.7902 H   0  0  0  0  0  0  0  0  0  0  0  0
  146.6300   74.1270  218.7660 H   0  0  0  0  0  0  0  0  0  0  0  0
  146.0251   72.3513  220.1688 H   0  0  0  0  0  0  0  0  0  0  0  0
  144.4397   73.9212  220.2995 H   0  0  0  0  0  0  0  0  0  0  0  0
  143.7936   73.5311  218.6356 H   0  0  0  0  0  0  0  0  0  0  0  0
  138.8481   70.3196  222.2662 H   0  0  0  0  0  0  0  0  0  0  0  0
  140.1906   69.2729  222.8827 H   0  0  0  0  0  0  0  0  0  0  0  0
  137.7176   70.1569  224.4471 H   0  0  0  0  0  0  0  0  0  0  0  0
  138.0227   68.5259  223.8207 H   0  0  0  0  0  0  0  0  0  0  0  0
  138.5670   67.1750  225.7098 H   0  0  0  0  0  0  0  0  0  0  0  0
  140.0065   66.7604  227.7066 H   0  0  0  0  0  0  0  0  0  0  0  0
  141.5722   68.5315  228.4475 H   0  0  0  0  0  0  0  0  0  0  0  0
  141.7178   70.6970  227.2412 H   0  0  0  0  0  0  0  0  0  0  0  0
  139.5368   72.1478  225.4317 H   0  0  0  0  0  0  0  0  0  0  0  0
  141.2964   71.9286  225.2520 H   0  0  0  0  0  0  0  0  0  0  0  0
  138.5386   76.4562  220.5460 H   0  0  0  0  0  0  0  0  0  0  0  0
  138.1419   74.9320  221.3720 H   0  0  0  0  0  0  0  0  0  0  0  0
  137.2509   76.9338  222.6093 H   0  0  0  0  0  0  0  0  0  0  0  0
  138.4370   76.0494  223.5936 H   0  0  0  0  0  0  0  0  0  0  0  0
  137.6657   79.0501  223.6914 H   0  0  0  0  0  0  0  0  0  0  0  0
  139.0391   81.0706  223.7733 H   0  0  0  0  0  0  0  0  0  0  0  0
  141.3419   81.1329  222.8660 H   0  0  0  0  0  0  0  0  0  0  0  0
  142.2651   79.0214  221.8384 H   0  0  0  0  0  0  0  0  0  0  0  0
  141.3680   76.9243  220.5438 H   0  0  0  0  0  0  0  0  0  0  0  0
  141.9839   76.4078  222.1523 H   0  0  0  0  0  0  0  0  0  0  0  0
  144.0031   70.2910  220.5357 H   0  0  0  0  0  0  0  0  0  0  0  0
  142.4225   70.2921  219.7741 H   0  0  0  0  0  0  0  0  0  0  0  0
  144.0436   69.8342  217.9606 H   0  0  0  0  0  0  0  0  0  0  0  0
  143.5921   71.5268  217.7240 H   0  0  0  0  0  0  0  0  0  0  0  0
  1  2  1  0
  2  3  1  0
  3  4  1  0
  4  5  1  0
  5  6  1  0
  6  7  1  0
  7  8  2  0
  8  9  1  0
  9 10  1  0
 10 11  1  0
 11 12  1  0
 12 13  1  0
 13 14  2  0
 14 15  1  0
 15 16  2  0
 16 17  1  0
 17 18  2  0
 18 19  1  0
  9 20  2  0
 20 21  1  0
 21 22  1  0
 22 23  1  0
 23 24  1  0
 24 25  1  0
 25 26  2  0
 26 27  1  0
 27 28  2  0
 28 29  1  0
 29 30  2  0
 30 31  1  0
 21 32  2  0
  6 33  1  0
 33 34  1  0
 34 35  1  0
 35  4  1  0
 32  7  1  0
 19 10  1  0
 31 22  1  0
 18 13  1  0
 30 25  1  0
  1 36  1  0
  1 37  1  0
  1 38  1  0
  2 39  1  0
  2 40  1  0
  3 41  1  0
  4 42  1  1
  5 43  1  0
  5 44  1  0
 11 45  1  0
 11 46  1  0
 12 47  1  0
 12 48  1  0
 14 49  1  0
 15 50  1  0
 16 51  1  0
 17 52  1  0
 19 53  1  0
 19 54  1  0
 23 55  1  0
 23 56  1  0
 24 57  1  0
 24 58  1  0
 26 59  1  0
 27 60  1  0
 28 61  1  0
 29 62  1  0
 31 63  1  0
 31 64  1  0
 33 65  1  0
 33 66  1  0
 34 67  1  0
 34 68  1  0
M  END
>  <smiles>  (61) 
CCNC1CN(c2nc(N3CCc4ccccc4C3)nc(N3CCc4ccccc4C3)n2)CCO1

>  <score_type>  (61) 
oracle

>  <origin>  (61) 
autodockgpu

>  <m_score__min__energy>  (61) 
-10.41

>  <m_primary>  (61) 
energy

>  <rmsd>  (61) 
7.384162486419417

>  <m_score__min__rmsd>  (61) 
7.384162486419417

>  <meeko>  (61) 
{"free_energy": -10.38, "intermolecular_energy": -11.87, "internal_energy": -0.97, "cluster_size": 49, "cluster_id": 1, "rank_in_cluster": 7}

>  <energy>  (61) 
-10.32

>  <cluster_rmsd>  (61) 
0.39

>  <cluster>  (61) 
1

$$$$

     RDKit          3D

 68 73  0  0  0  0  0  0  0  0999 V2000
  145.7550   68.0430  219.3800 C   0  0  0  0  0  0  0  0  0  0  0  0
  145.0360   69.3440  219.2540 C   0  0  0  0  0  0  0  0  0  0  0  0
  145.7340   70.3320  218.4540 N   0  0  0  0  0  0  0  0  0  0  0  0
  144.9920   71.5710  218.5940 C   0  0  1  0  0  0  0  0  0  0  0  0
  144.0890   71.5570  219.7960 C   0  0  0  0  0  0  0  0  0  0  0  0
  143.6390   72.8550  220.1840 N   0  0  0  0  0  0  0  0  0  0  0  0
  142.4550   73.1200  220.9240 C   0  0  0  0  0  0  0  0  0  0  0  0
  141.8730   72.1790  221.6870 N   0  0  0  0  0  0  0  0  0  0  0  0
  140.7400   72.4180  222.4000 C   0  0  0  0  0  0  0  0  0  0  0  0
  140.1640   71.3770  223.1960 N   0  0  0  0  0  0  0  0  0  0  0  0
  139.5850   70.2330  222.5110 C   0  0  0  0  0  0  0  0  0  0  0  0
  138.5740   69.5160  223.3880 C   0  0  0  0  0  0  0  0  0  0  0  0
  139.3010   69.1490  224.6570 C   0  0  0  0  0  0  0  0  0  0  0  0
  139.1890   67.8860  225.1930 C   0  0  0  0  0  0  0  0  0  0  0  0
  139.8680   67.5830  226.3550 C   0  0  0  0  0  0  0  0  0  0  0  0
  140.6410   68.5620  226.9430 C   0  0  0  0  0  0  0  0  0  0  0  0
  140.7450   69.8390  226.3880 C   0  0  0  0  0  0  0  0  0  0  0  0
  140.0640   70.1510  225.2170 C   0  0  0  0  0  0  0  0  0  0  0  0
  140.1810   71.5120  224.6380 C   0  0  0  0  0  0  0  0  0  0  0  0
  140.1790   73.6370  222.3420 N   0  0  0  0  0  0  0  0  0  0  0  0
  140.7390   74.5980  221.5880 C   0  0  0  0  0  0  0  0  0  0  0  0
  140.1830   75.9090  221.4930 N   0  0  0  0  0  0  0  0  0  0  0  0
  138.7490   76.1380  221.3740 C   0  0  0  0  0  0  0  0  0  0  0  0
  138.3140   76.8710  222.6250 C   0  0  0  0  0  0  0  0  0  0  0  0
  139.1230   78.1230  222.6950 C   0  0  0  0  0  0  0  0  0  0  0  0
  138.5940   79.2450  223.2890 C   0  0  0  0  0  0  0  0  0  0  0  0
  139.3250   80.4070  223.3630 C   0  0  0  0  0  0  0  0  0  0  0  0
  140.6000   80.5230  222.8600 C   0  0  0  0  0  0  0  0  0  0  0  0
  141.1480   79.3890  222.2550 C   0  0  0  0  0  0  0  0  0  0  0  0
  140.4050   78.2120  222.1820 C   0  0  0  0  0  0  0  0  0  0  0  0
  141.0800   77.0550  221.5150 C   0  0  0  0  0  0  0  0  0  0  0  0
  141.8690   74.3250  220.8900 N   0  0  0  0  0  0  0  0  0  0  0  0
  144.4710   73.9990  219.7830 C   0  0  0  0  0  0  0  0  0  0  0  0
  145.8790   73.4000  219.6790 C   0  0  0  0  0  0  0  0  0  0  0  0
  145.8670   72.6180  218.5260 O   0  0  0  0  0  0  0  0  0  0  0  0
  145.8894   67.7999  220.4444 H   0  0  0  0  0  0  0  0  0  0  0  0
  145.1668   67.2505  218.8943 H   0  0  0  0  0  0  0  0  0  0  0  0
  146.7390   68.1193  218.8943 H   0  0  0  0  0  0  0  0  0  0  0  0
  144.0566   69.1538  218.7906 H   0  0  0  0  0  0  0  0  0  0  0  0
  144.9527   69.7596  220.2690 H   0  0  0  0  0  0  0  0  0  0  0  0
  145.7810   70.0520  217.4630 H   0  0  0  0  0  0  0  0  0  0  0  0
  144.2871   71.6949  217.7587 H   0  0  0  0  0  0  0  0  0  0  0  0
  143.2096   70.9383  219.5639 H   0  0  0  0  0  0  0  0  0  0  0  0
  144.6733   71.1522  220.6355 H   0  0  0  0  0  0  0  0  0  0  0  0
  139.0827   70.5802  221.5961 H   0  0  0  0  0  0  0  0  0  0  0  0
  140.3943   69.5286  222.2684 H   0  0  0  0  0  0  0  0  0  0  0  0
  137.7261   70.1797  223.6129 H   0  0  0  0  0  0  0  0  0  0  0  0
  138.1699   68.6245  222.8861 H   0  0  0  0  0  0  0  0  0  0  0  0
  138.5646   67.1264  224.6999 H   0  0  0  0  0  0  0  0  0  0  0  0
  139.7943   66.5812  226.8033 H   0  0  0  0  0  0  0  0  0  0  0  0
  141.1876   68.3319  227.8694 H   0  0  0  0  0  0  0  0  0  0  0  0
  141.3681   70.6009  226.8792 H   0  0  0  0  0  0  0  0  0  0  0  0
  139.3350   72.1335  224.9666 H   0  0  0  0  0  0  0  0  0  0  0  0
  141.1121   71.9945  224.9700 H   0  0  0  0  0  0  0  0  0  0  0  0
  138.5363   76.7492  220.4845 H   0  0  0  0  0  0  0  0  0  0  0  0
  138.2066   75.1871  221.2668 H   0  0  0  0  0  0  0  0  0  0  0  0
  137.2429   77.1150  222.5677 H   0  0  0  0  0  0  0  0  0  0  0  0
  138.4692   76.2505  223.5199 H   0  0  0  0  0  0  0  0  0  0  0  0
  137.5776   79.2124  223.7083 H   0  0  0  0  0  0  0  0  0  0  0  0
  138.8696   81.2838  223.8465 H   0  0  0  0  0  0  0  0  0  0  0  0
  141.1626   81.4656  222.9308 H   0  0  0  0  0  0  0  0  0  0  0  0
  142.1647   79.4251  221.8368 H   0  0  0  0  0  0  0  0  0  0  0  0
  141.3452   77.3314  220.4839 H   0  0  0  0  0  0  0  0  0  0  0  0
  141.9908   76.7936  222.0736 H   0  0  0  0  0  0  0  0  0  0  0  0
  144.1431   74.4028  218.8138 H   0  0  0  0  0  0  0  0  0  0  0  0
  144.4143   74.8387  220.4914 H   0  0  0  0  0  0  0  0  0  0  0  0
  146.6310   74.1983  219.5942 H   0  0  0  0  0  0  0  0  0  0  0  0
  146.1378   72.8091  220.5700 H   0  0  0  0  0  0  0  0  0  0  0  0
  1  2  1  0
  2  3  1  0
  3  4  1  0
  4  5  1  0
  5  6  1  0
  6  7  1  0
  7  8  2  0
  8  9  1  0
  9 10  1  0
 10 11  1  0
 11 12  1  0
 12 13  1  0
 13 14  2  0
 14 15  1  0
 15 16  2  0
 16 17  1  0
 17 18  2  0
 18 19  1  0
  9 20  2  0
 20 21  1  0
 21 22  1  0
 22 23  1  0
 23 24  1  0
 24 25  1  0
 25 26  2  0
 26 27  1  0
 27 28  2  0
 28 29  1  0
 29 30  2  0
 30 31  1  0
 21 32  2  0
  6 33  1  0
 33 34  1  0
 34 35  1  0
 35  4  1  0
 32  7  1  0
 19 10  1  0
 31 22  1  0
 18 13  1  0
 30 25  1  0
  1 36  1  0
  1 37  1  0
  1 38  1  0
  2 39  1  0
  2 40  1  0
  3 41  1  0
  4 42  1  6
  5 43  1  0
  5 44  1  0
 11 45  1  0
 11 46  1  0
 12 47  1  0
 12 48  1  0
 14 49  1  0
 15 50  1  0
 16 51  1  0
 17 52  1  0
 19 53  1  0
 19 54  1  0
 23 55  1  0
 23 56  1  0
 24 57  1  0
 24 58  1  0
 26 59  1  0
 27 60  1  0
 28 61  1  0
 29 62  1  0
 31 63  1  0
 31 64  1  0
 33 65  1  0
 33 66  1  0
 34 67  1  0
 34 68  1  0
M  END
>  <smiles>  (62) 
CCNC1CN(c2nc(N3CCc4ccccc4C3)nc(N3CCc4ccccc4C3)n2)CCO1

>  <score_type>  (62) 
oracle

>  <origin>  (62) 
autodockgpu

>  <m_score__min__energy>  (62) 
-10.41

>  <m_primary>  (62) 
energy

>  <rmsd>  (62) 
9.060693202678118

>  <m_score__min__rmsd>  (62) 
9.060693202678118

>  <meeko>  (62) 
{"free_energy": -10.3, "intermolecular_energy": -11.79, "internal_energy": -1.0, "cluster_size": 49, "cluster_id": 1, "rank_in_cluster": 19}

>  <energy>  (62) 
-10.32

>  <cluster_rmsd>  (62) 
0.54

>  <cluster>  (62) 
1

$$$$

     RDKit          3D

 68 73  0  0  0  0  0  0  0  0999 V2000
  145.6770   68.1330  219.3660 C   0  0  0  0  0  0  0  0  0  0  0  0
  144.8840   69.3470  219.0150 C   0  0  0  0  0  0  0  0  0  0  0  0
  145.6330   70.3540  218.2880 N   0  0  0  0  0  0  0  0  0  0  0  0
  144.9620   71.6170  218.5320 C   0  0  1  0  0  0  0  0  0  0  0  0
  144.0290   71.5450  219.7090 C   0  0  0  0  0  0  0  0  0  0  0  0
  143.6470   72.8260  220.2110 N   0  0  0  0  0  0  0  0  0  0  0  0
  142.4620   73.0920  220.9490 C   0  0  0  0  0  0  0  0  0  0  0  0
  141.8800   72.1520  221.7140 N   0  0  0  0  0  0  0  0  0  0  0  0
  140.7470   72.3920  222.4250 C   0  0  0  0  0  0  0  0  0  0  0  0
  140.1700   71.3530  223.2240 N   0  0  0  0  0  0  0  0  0  0  0  0
  139.5760   70.2160  222.5410 C   0  0  0  0  0  0  0  0  0  0  0  0
  138.5690   69.5040  223.4260 C   0  0  0  0  0  0  0  0  0  0  0  0
  139.3050   69.1260  224.6860 C   0  0  0  0  0  0  0  0  0  0  0  0
  139.1890   67.8630  225.2190 C   0  0  0  0  0  0  0  0  0  0  0  0
  139.8770   67.5490  226.3720 C   0  0  0  0  0  0  0  0  0  0  0  0
  140.6650   68.5200  226.9550 C   0  0  0  0  0  0  0  0  0  0  0  0
  140.7730   69.7990  226.4040 C   0  0  0  0  0  0  0  0  0  0  0  0
  140.0820   70.1200  225.2410 C   0  0  0  0  0  0  0  0  0  0  0  0
  140.2040   71.4820  224.6660 C   0  0  0  0  0  0  0  0  0  0  0  0
  140.1850   73.6110  222.3640 N   0  0  0  0  0  0  0  0  0  0  0  0
  140.7440   74.5700  221.6080 C   0  0  0  0  0  0  0  0  0  0  0  0
  140.1880   75.8800  221.5090 N   0  0  0  0  0  0  0  0  0  0  0  0
  138.7540   76.1080  221.3860 C   0  0  0  0  0  0  0  0  0  0  0  0
  138.3150   76.8420  222.6350 C   0  0  0  0  0  0  0  0  0  0  0  0
  139.1220   78.0950  222.7050 C   0  0  0  0  0  0  0  0  0  0  0  0
  138.5900   79.2180  223.2960 C   0  0  0  0  0  0  0  0  0  0  0  0
  139.3200   80.3810  223.3700 C   0  0  0  0  0  0  0  0  0  0  0  0
  140.5960   80.4970  222.8700 C   0  0  0  0  0  0  0  0  0  0  0  0
  141.1470   79.3620  222.2690 C   0  0  0  0  0  0  0  0  0  0  0  0
  140.4050   78.1850  222.1960 C   0  0  0  0  0  0  0  0  0  0  0  0
  141.0840   77.0280  221.5330 C   0  0  0  0  0  0  0  0  0  0  0  0
  141.8750   74.2970  220.9110 N   0  0  0  0  0  0  0  0  0  0  0  0
  144.5550   73.9490  219.9380 C   0  0  0  0  0  0  0  0  0  0  0  0
  145.9270   73.2770  219.8050 C   0  0  0  0  0  0  0  0  0  0  0  0
  145.8990   72.6110  218.5820 O   0  0  0  0  0  0  0  0  0  0  0  0
  145.7385   68.0389  220.4602 H   0  0  0  0  0  0  0  0  0  0  0  0
  145.1867   67.2413  218.9483 H   0  0  0  0  0  0  0  0  0  0  0  0
  146.6906   68.2237  218.9483 H   0  0  0  0  0  0  0  0  0  0  0  0
  144.0315   69.0350  218.3937 H   0  0  0  0  0  0  0  0  0  0  0  0
  144.5721   69.8074  219.9641 H   0  0  0  0  0  0  0  0  0  0  0  0
  145.6580   70.1510  217.2780 H   0  0  0  0  0  0  0  0  0  0  0  0
  144.2870   71.8617  217.6987 H   0  0  0  0  0  0  0  0  0  0  0  0
  143.1206   71.0065  219.4010 H   0  0  0  0  0  0  0  0  0  0  0  0
  144.5664   71.0274  220.5172 H   0  0  0  0  0  0  0  0  0  0  0  0
  139.0670   70.5700  221.6324 H   0  0  0  0  0  0  0  0  0  0  0  0
  140.3774   69.5065  222.2875 H   0  0  0  0  0  0  0  0  0  0  0  0
  137.7289   70.1738  223.6621 H   0  0  0  0  0  0  0  0  0  0  0  0
  138.1532   68.6174  222.9249 H   0  0  0  0  0  0  0  0  0  0  0  0
  138.5531   67.1104  224.7298 H   0  0  0  0  0  0  0  0  0  0  0  0
  139.7993   66.5462  226.8173 H   0  0  0  0  0  0  0  0  0  0  0  0
  141.2205   68.2816  227.8740 H   0  0  0  0  0  0  0  0  0  0  0  0
  141.4066   70.5545  226.8917 H   0  0  0  0  0  0  0  0  0  0  0  0
  139.3669   72.1092  225.0063 H   0  0  0  0  0  0  0  0  0  0  0  0
  141.1427   71.9553  224.9896 H   0  0  0  0  0  0  0  0  0  0  0  0
  138.5433   76.7181  220.4953 H   0  0  0  0  0  0  0  0  0  0  0  0
  138.2125   75.1565  221.2785 H   0  0  0  0  0  0  0  0  0  0  0  0
  137.2437   77.0844  222.5749 H   0  0  0  0  0  0  0  0  0  0  0  0
  138.4689   76.2229  223.5311 H   0  0  0  0  0  0  0  0  0  0  0  0
  137.5725   79.1852  223.7127 H   0  0  0  0  0  0  0  0  0  0  0  0
  138.8627   81.2583  223.8509 H   0  0  0  0  0  0  0  0  0  0  0  0
  141.1574   81.4404  222.9400 H   0  0  0  0  0  0  0  0  0  0  0  0
  142.1651   79.3978  221.8541 H   0  0  0  0  0  0  0  0  0  0  0  0
  141.3527   77.3035  220.5025 H   0  0  0  0  0  0  0  0  0  0  0  0
  141.9930   76.7685  222.0954 H   0  0  0  0  0  0  0  0  0  0  0  0
  144.2765   74.4619  219.0056 H   0  0  0  0  0  0  0  0  0  0  0  0
  144.5302   74.7200  220.7222 H   0  0  0  0  0  0  0  0  0  0  0  0
  146.7271   74.0319  219.8133 H   0  0  0  0  0  0  0  0  0  0  0  0
  146.1266   72.5888  220.6396 H   0  0  0  0  0  0  0  0  0  0  0  0
  1  2  1  0
  2  3  1  0
  3  4  1  0
  4  5  1  0
  5  6  1  0
  6  7  1  0
  7  8  2  0
  8  9  1  0
  9 10  1  0
 10 11  1  0
 11 12  1  0
 12 13  1  0
 13 14  2  0
 14 15  1  0
 15 16  2  0
 16 17  1  0
 17 18  2  0
 18 19  1  0
  9 20  2  0
 20 21  1  0
 21 22  1  0
 22 23  1  0
 23 24  1  0
 24 25  1  0
 25 26  2  0
 26 27  1  0
 27 28  2  0
 28 29  1  0
 29 30  2  0
 30 31  1  0
 21 32  2  0
  6 33  1  0
 33 34  1  0
 34 35  1  0
 35  4  1  0
 32  7  1  0
 19 10  1  0
 31 22  1  0
 18 13  1  0
 30 25  1  0
  1 36  1  0
  1 37  1  0
  1 38  1  0
  2 39  1  0
  2 40  1  0
  3 41  1  0
  4 42  1  6
  5 43  1  0
  5 44  1  0
 11 45  1  0
 11 46  1  0
 12 47  1  0
 12 48  1  0
 14 49  1  0
 15 50  1  0
 16 51  1  0
 17 52  1  0
 19 53  1  0
 19 54  1  0
 23 55  1  0
 23 56  1  0
 24 57  1  0
 24 58  1  0
 26 59  1  0
 27 60  1  0
 28 61  1  0
 29 62  1  0
 31 63  1  0
 31 64  1  0
 33 65  1  0
 33 66  1  0
 34 67  1  0
 34 68  1  0
M  END
>  <smiles>  (63) 
CCNC1CN(c2nc(N3CCc4ccccc4C3)nc(N3CCc4ccccc4C3)n2)CCO1

>  <score_type>  (63) 
oracle

>  <origin>  (63) 
autodockgpu

>  <m_score__min__energy>  (63) 
-10.41

>  <m_primary>  (63) 
energy

>  <rmsd>  (63) 
9.063227953051573

>  <m_score__min__rmsd>  (63) 
9.063227953051573

>  <meeko>  (63) 
{"free_energy": -10.29, "intermolecular_energy": -11.78, "internal_energy": -1.0, "cluster_size": 49, "cluster_id": 1, "rank_in_cluster": 23}

>  <energy>  (63) 
-10.32

>  <cluster_rmsd>  (63) 
0.45

>  <cluster>  (63) 
1

$$$$

     RDKit          3D

 68 73  0  0  0  0  0  0  0  0999 V2000
  145.9060   68.1310  219.2880 C   0  0  0  0  0  0  0  0  0  0  0  0
  145.1710   69.4300  219.2720 C   0  0  0  0  0  0  0  0  0  0  0  0
  145.5890   70.3350  218.2180 N   0  0  0  0  0  0  0  0  0  0  0  0
  144.9290   71.6000  218.4810 C   0  0  1  0  0  0  0  0  0  0  0  0
  143.9980   71.5200  219.6580 C   0  0  0  0  0  0  0  0  0  0  0  0
  143.6270   72.7970  220.1780 N   0  0  0  0  0  0  0  0  0  0  0  0
  142.4460   73.0630  220.9220 C   0  0  0  0  0  0  0  0  0  0  0  0
  141.8670   72.1230  221.6890 N   0  0  0  0  0  0  0  0  0  0  0  0
  140.7370   72.3620  222.4060 C   0  0  0  0  0  0  0  0  0  0  0  0
  140.1650   71.3230  223.2070 N   0  0  0  0  0  0  0  0  0  0  0  0
  139.6050   70.1670  222.5280 C   0  0  0  0  0  0  0  0  0  0  0  0
  138.5940   69.4470  223.4020 C   0  0  0  0  0  0  0  0  0  0  0  0
  139.3120   69.1000  224.6810 C   0  0  0  0  0  0  0  0  0  0  0  0
  139.2080   67.8410  225.2280 C   0  0  0  0  0  0  0  0  0  0  0  0
  139.8790   67.5560  226.3990 C   0  0  0  0  0  0  0  0  0  0  0  0
  140.6370   68.5490  226.9850 C   0  0  0  0  0  0  0  0  0  0  0  0
  140.7330   69.8220  226.4180 C   0  0  0  0  0  0  0  0  0  0  0  0
  140.0590   70.1150  225.2380 C   0  0  0  0  0  0  0  0  0  0  0  0
  140.1670   71.4720  224.6470 C   0  0  0  0  0  0  0  0  0  0  0  0
  140.1750   73.5810  222.3480 N   0  0  0  0  0  0  0  0  0  0  0  0
  140.7320   74.5410  221.5900 C   0  0  0  0  0  0  0  0  0  0  0  0
  140.1750   75.8510  221.4940 N   0  0  0  0  0  0  0  0  0  0  0  0
  138.7400   76.0800  221.3790 C   0  0  0  0  0  0  0  0  0  0  0  0
  138.3090   76.8140  222.6300 C   0  0  0  0  0  0  0  0  0  0  0  0
  139.1160   78.0670  222.6950 C   0  0  0  0  0  0  0  0  0  0  0  0
  138.5880   79.1900  223.2890 C   0  0  0  0  0  0  0  0  0  0  0  0
  139.3190   80.3520  223.3580 C   0  0  0  0  0  0  0  0  0  0  0  0
  140.5930   80.4680  222.8520 C   0  0  0  0  0  0  0  0  0  0  0  0
  141.1390   79.3330  222.2470 C   0  0  0  0  0  0  0  0  0  0  0  0
  140.3970   78.1550  222.1790 C   0  0  0  0  0  0  0  0  0  0  0  0
  141.0710   76.9980  221.5120 C   0  0  0  0  0  0  0  0  0  0  0  0
  141.8590   74.2670  220.8870 N   0  0  0  0  0  0  0  0  0  0  0  0
  144.5440   73.9160  219.9190 C   0  0  0  0  0  0  0  0  0  0  0  0
  145.9110   73.2340  219.7740 C   0  0  0  0  0  0  0  0  0  0  0  0
  145.8750   72.5850  218.5420 O   0  0  0  0  0  0  0  0  0  0  0  0
  146.0811   67.8216  220.3290 H   0  0  0  0  0  0  0  0  0  0  0  0
  145.3076   67.3648  218.7734 H   0  0  0  0  0  0  0  0  0  0  0  0
  146.8710   68.2493  218.7734 H   0  0  0  0  0  0  0  0  0  0  0  0
  144.0994   69.2188  219.1410 H   0  0  0  0  0  0  0  0  0  0  0  0
  145.3922   69.9310  220.2260 H   0  0  0  0  0  0  0  0  0  0  0  0
  145.3250   69.9790  217.2880 H   0  0  0  0  0  0  0  0  0  0  0  0
  144.2537   71.8620  217.6532 H   0  0  0  0  0  0  0  0  0  0  0  0
  143.0848   70.9929  219.3445 H   0  0  0  0  0  0  0  0  0  0  0  0
  144.5328   70.9875  220.4583 H   0  0  0  0  0  0  0  0  0  0  0  0
  139.1074   70.5002  221.6053 H   0  0  0  0  0  0  0  0  0  0  0  0
  140.4242   69.4693  222.2997 H   0  0  0  0  0  0  0  0  0  0  0  0
  137.7366   70.1032  223.6124 H   0  0  0  0  0  0  0  0  0  0  0  0
  138.2051   68.5462  222.9047 H   0  0  0  0  0  0  0  0  0  0  0  0
  138.5962   67.0703  224.7364 H   0  0  0  0  0  0  0  0  0  0  0  0
  139.8112   66.5578  226.8562 H   0  0  0  0  0  0  0  0  0  0  0  0
  141.1772   68.3335  227.9187 H   0  0  0  0  0  0  0  0  0  0  0  0
  141.3440   70.5952  226.9068 H   0  0  0  0  0  0  0  0  0  0  0  0
  139.3114   72.0875  224.9617 H   0  0  0  0  0  0  0  0  0  0  0  0
  141.0897   71.9677  224.9831 H   0  0  0  0  0  0  0  0  0  0  0  0
  138.5247   76.6903  220.4895 H   0  0  0  0  0  0  0  0  0  0  0  0
  138.1972   75.1290  221.2745 H   0  0  0  0  0  0  0  0  0  0  0  0
  137.2373   77.0563  222.5765 H   0  0  0  0  0  0  0  0  0  0  0  0
  138.4688   76.1951  223.5252 H   0  0  0  0  0  0  0  0  0  0  0  0
  137.5731   79.1577  223.7119 H   0  0  0  0  0  0  0  0  0  0  0  0
  138.8642   81.2299  223.8402 H   0  0  0  0  0  0  0  0  0  0  0  0
  141.1558   81.4106  222.9205 H   0  0  0  0  0  0  0  0  0  0  0  0
  142.1540   79.3691  221.8245 H   0  0  0  0  0  0  0  0  0  0  0  0
  141.3331   77.2732  220.4797 H   0  0  0  0  0  0  0  0  0  0  0  0
  141.9836   76.7382  222.0686 H   0  0  0  0  0  0  0  0  0  0  0  0
  144.2682   74.4442  218.9944 H   0  0  0  0  0  0  0  0  0  0  0  0
  144.5270   74.6761  220.7139 H   0  0  0  0  0  0  0  0  0  0  0  0
  146.7174   73.9820  219.7909 H   0  0  0  0  0  0  0  0  0  0  0  0
  146.1065   72.5329  220.5987 H   0  0  0  0  0  0  0  0  0  0  0  0
  1  2  1  0
  2  3  1  0
  3  4  1  0
  4  5  1  0
  5  6  1  0
  6  7  1  0
  7  8  2  0
  8  9  1  0
  9 10  1  0
 10 11  1  0
 11 12  1  0
 12 13  1  0
 13 14  2  0
 14 15  1  0
 15 16  2  0
 16 17  1  0
 17 18  2  0
 18 19  1  0
  9 20  2  0
 20 21  1  0
 21 22  1  0
 22 23  1  0
 23 24  1  0
 24 25  1  0
 25 26  2  0
 26 27  1  0
 27 28  2  0
 28 29  1  0
 29 30  2  0
 30 31  1  0
 21 32  2  0
  6 33  1  0
 33 34  1  0
 34 35  1  0
 35  4  1  0
 32  7  1  0
 19 10  1  0
 31 22  1  0
 18 13  1  0
 30 25  1  0
  1 36  1  0
  1 37  1  0
  1 38  1  0
  2 39  1  0
  2 40  1  0
  3 41  1  0
  4 42  1  6
  5 43  1  0
  5 44  1  0
 11 45  1  0
 11 46  1  0
 12 47  1  0
 12 48  1  0
 14 49  1  0
 15 50  1  0
 16 51  1  0
 17 52  1  0
 19 53  1  0
 19 54  1  0
 23 55  1  0
 23 56  1  0
 24 57  1  0
 24 58  1  0
 26 59  1  0
 27 60  1  0
 28 61  1  0
 29 62  1  0
 31 63  1  0
 31 64  1  0
 33 65  1  0
 33 66  1  0
 34 67  1  0
 34 68  1  0
M  END
>  <smiles>  (64) 
CCNC1CN(c2nc(N3CCc4ccccc4C3)nc(N3CCc4ccccc4C3)n2)CCO1

>  <score_type>  (64) 
oracle

>  <origin>  (64) 
autodockgpu

>  <m_score__min__energy>  (64) 
-10.41

>  <m_primary>  (64) 
energy

>  <rmsd>  (64) 
9.069598413633022

>  <m_score__min__rmsd>  (64) 
9.069598413633022

>  <meeko>  (64) 
{"free_energy": -10.28, "intermolecular_energy": -11.77, "internal_energy": -1.0, "cluster_size": 49, "cluster_id": 1, "rank_in_cluster": 29}

>  <energy>  (64) 
-10.32

>  <cluster_rmsd>  (64) 
0.39

>  <cluster>  (64) 
1

$$$$

     RDKit          3D

 68 73  0  0  0  0  0  0  0  0999 V2000
  142.5060   79.9720  223.1330 C   0  0  0  0  0  0  0  0  0  0  0  0
  141.4810   79.0770  222.5190 C   0  0  0  0  0  0  0  0  0  0  0  0
  141.5920   78.9500  221.0780 N   0  0  0  0  0  0  0  0  0  0  0  0
  140.8810   77.7380  220.7180 C   0  0  1  0  0  0  0  0  0  0  0  0
  141.3370   76.5530  221.5230 C   0  0  0  0  0  0  0  0  0  0  0  0
  140.4300   75.4510  221.4780 N   0  0  0  0  0  0  0  0  0  0  0  0
  140.7820   74.0950  221.7080 C   0  0  0  0  0  0  0  0  0  0  0  0
  141.6820   73.4580  220.9390 N   0  0  0  0  0  0  0  0  0  0  0  0
  142.0300   72.1600  221.1470 C   0  0  0  0  0  0  0  0  0  0  0  0
  142.9950   71.5330  220.2960 N   0  0  0  0  0  0  0  0  0  0  0  0
  144.2810   72.1870  220.1230 C   0  0  0  0  0  0  0  0  0  0  0  0
  144.9610   71.7410  218.8420 C   0  0  0  0  0  0  0  0  0  0  0  0
  145.0600   70.2380  218.9160 C   0  0  0  0  0  0  0  0  0  0  0  0
  146.2340   69.5930  218.6030 C   0  0  0  0  0  0  0  0  0  0  0  0
  146.2910   68.2170  218.6820 C   0  0  0  0  0  0  0  0  0  0  0  0
  145.1610   67.5310  219.0760 C   0  0  0  0  0  0  0  0  0  0  0  0
  143.9760   68.2000  219.3920 C   0  0  0  0  0  0  0  0  0  0  0  0
  143.9130   69.5870  219.3130 C   0  0  0  0  0  0  0  0  0  0  0  0
  142.6470   70.2850  219.6490 C   0  0  0  0  0  0  0  0  0  0  0  0
  141.4550   71.4860  222.1570 N   0  0  0  0  0  0  0  0  0  0  0  0
  140.5520   72.0960  222.9430 C   0  0  0  0  0  0  0  0  0  0  0  0
  139.9130   71.4250  224.0280 N   0  0  0  0  0  0  0  0  0  0  0  0
  138.7530   70.5650  223.8350 C   0  0  0  0  0  0  0  0  0  0  0  0
  139.1750   69.1620  224.2140 C   0  0  0  0  0  0  0  0  0  0  0  0
  139.6540   69.2220  225.6250 C   0  0  0  0  0  0  0  0  0  0  0  0
  139.5190   68.1220  226.4400 C   0  0  0  0  0  0  0  0  0  0  0  0
  139.9560   68.1600  227.7430 C   0  0  0  0  0  0  0  0  0  0  0  0
  140.5400   69.2710  228.3060 C   0  0  0  0  0  0  0  0  0  0  0  0
  140.6830   70.3940  227.4870 C   0  0  0  0  0  0  0  0  0  0  0  0
  140.2410   70.3530  226.1660 C   0  0  0  0  0  0  0  0  0  0  0  0
  140.4390   71.6060  225.3730 C   0  0  0  0  0  0  0  0  0  0  0  0
  140.2290   73.3920  222.7070 N   0  0  0  0  0  0  0  0  0  0  0  0
  139.0250   75.7550  221.1700 C   0  0  0  0  0  0  0  0  0  0  0  0
  138.8520   77.1960  221.6650 C   0  0  0  0  0  0  0  0  0  0  0  0
  139.5380   77.9900  220.7490 O   0  0  0  0  0  0  0  0  0  0  0  0
  142.4364   79.9113  224.2291 H   0  0  0  0  0  0  0  0  0  0  0  0
  143.5091   79.6556  222.8111 H   0  0  0  0  0  0  0  0  0  0  0  0
  142.3277   81.0086  222.8111 H   0  0  0  0  0  0  0  0  0  0  0  0
  141.5859   78.0761  222.9630 H   0  0  0  0  0  0  0  0  0  0  0  0
  140.5003   79.5316  222.7226 H   0  0  0  0  0  0  0  0  0  0  0  0
  142.5770   78.8910  220.7780 H   0  0  0  0  0  0  0  0  0  0  0  0
  141.1229   77.4416  219.6867 H   0  0  0  0  0  0  0  0  0  0  0  0
  142.3096   76.2197  221.1318 H   0  0  0  0  0  0  0  0  0  0  0  0
  141.3988   76.8787  222.5719 H   0  0  0  0  0  0  0  0  0  0  0  0
  144.1269   73.2755  220.0861 H   0  0  0  0  0  0  0  0  0  0  0  0
  144.9258   71.9126  220.9709 H   0  0  0  0  0  0  0  0  0  0  0  0
  144.3626   72.0407  217.9690 H   0  0  0  0  0  0  0  0  0  0  0  0
  145.9539   72.2021  218.7352 H   0  0  0  0  0  0  0  0  0  0  0  0
  147.1185   70.1687  218.2928 H   0  0  0  0  0  0  0  0  0  0  0  0
  147.2179   67.6782  218.4360 H   0  0  0  0  0  0  0  0  0  0  0  0
  145.1936   66.4335  219.1428 H   0  0  0  0  0  0  0  0  0  0  0  0
  143.0899   67.6278  219.7043 H   0  0  0  0  0  0  0  0  0  0  0  0
  142.0737   70.4849  218.7317 H   0  0  0  0  0  0  0  0  0  0  0  0
  142.0276   69.6644  220.3132 H   0  0  0  0  0  0  0  0  0  0  0  0
  137.9250   70.8973  224.4784 H   0  0  0  0  0  0  0  0  0  0  0  0
  138.4056   70.6024  222.7920 H   0  0  0  0  0  0  0  0  0  0  0  0
  138.3200   68.4747  224.1333 H   0  0  0  0  0  0  0  0  0  0  0  0
  139.9659   68.7934  223.5442 H   0  0  0  0  0  0  0  0  0  0  0  0
  139.0576   67.2045  226.0459 H   0  0  0  0  0  0  0  0  0  0  0  0
  139.8330   67.2604  228.3640 H   0  0  0  0  0  0  0  0  0  0  0  0
  140.8787   69.2751  229.3525 H   0  0  0  0  0  0  0  0  0  0  0  0
  141.1442   71.3100  227.8847 H   0  0  0  0  0  0  0  0  0  0  0  0
  139.9100   72.4364  225.8636 H   0  0  0  0  0  0  0  0  0  0  0  0
  141.5135   71.8343  225.3157 H   0  0  0  0  0  0  0  0  0  0  0  0
  138.8359   75.6857  220.0886 H   0  0  0  0  0  0  0  0  0  0  0  0
  138.3220   75.0531  221.6423 H   0  0  0  0  0  0  0  0  0  0  0  0
  137.7867   77.4691  221.6882 H   0  0  0  0  0  0  0  0  0  0  0  0
  139.2387   77.3253  222.6866 H   0  0  0  0  0  0  0  0  0  0  0  0
  1  2  1  0
  2  3  1  0
  3  4  1  0
  4  5  1  0
  5  6  1  0
  6  7  1  0
  7  8  2  0
  8  9  1  0
  9 10  1  0
 10 11  1  0
 11 12  1  0
 12 13  1  0
 13 14  2  0
 14 15  1  0
 15 16  2  0
 16 17  1  0
 17 18  2  0
 18 19  1  0
  9 20  2  0
 20 21  1  0
 21 22  1  0
 22 23  1  0
 23 24  1  0
 24 25  1  0
 25 26  2  0
 26 27  1  0
 27 28  2  0
 28 29  1  0
 29 30  2  0
 30 31  1  0
 21 32  2  0
  6 33  1  0
 33 34  1  0
 34 35  1  0
 35  4  1  0
 32  7  1  0
 19 10  1  0
 31 22  1  0
 18 13  1  0
 30 25  1  0
  1 36  1  0
  1 37  1  0
  1 38  1  0
  2 39  1  0
  2 40  1  0
  3 41  1  0
  4 42  1  6
  5 43  1  0
  5 44  1  0
 11 45  1  0
 11 46  1  0
 12 47  1  0
 12 48  1  0
 14 49  1  0
 15 50  1  0
 16 51  1  0
 17 52  1  0
 19 53  1  0
 19 54  1  0
 23 55  1  0
 23 56  1  0
 24 57  1  0
 24 58  1  0
 26 59  1  0
 27 60  1  0
 28 61  1  0
 29 62  1  0
 31 63  1  0
 31 64  1  0
 33 65  1  0
 33 66  1  0
 34 67  1  0
 34 68  1  0
M  END
>  <smiles>  (65) 
CCNC1CN(c2nc(N3CCc4ccccc4C3)nc(N3CCc4ccccc4C3)n2)CCO1

>  <score_type>  (65) 
oracle

>  <origin>  (65) 
autodockgpu

>  <m_score__min__energy>  (65) 
-10.41

>  <m_primary>  (65) 
energy

>  <rmsd>  (65) 
2.238145499775959

>  <m_score__min__rmsd>  (65) 
2.238145499775959

>  <meeko>  (65) 
{"free_energy": -9.65, "intermolecular_energy": -11.14, "internal_energy": -0.97, "cluster_size": 1, "cluster_id": 2, "rank_in_cluster": 1}

>  <energy>  (65) 
-10.32

>  <cluster_rmsd>  (65) 
0.37

>  <cluster>  (65) 
1

$$$$

     RDKit          3D

 68 73  0  0  0  0  0  0  0  0999 V2000
  145.8230   68.1200  219.5450 C   0  0  0  0  0  0  0  0  0  0  0  0
  144.9210   69.2230  219.1000 C   0  0  0  0  0  0  0  0  0  0  0  0
  145.5550   70.1880  218.2220 N   0  0  0  0  0  0  0  0  0  0  0  0
  144.9150   71.4630  218.4860 C   0  0  1  0  0  0  0  0  0  0  0  0
  143.9840   71.3960  219.6650 C   0  0  0  0  0  0  0  0  0  0  0  0
  143.6340   72.6780  220.1870 N   0  0  0  0  0  0  0  0  0  0  0  0
  142.4580   72.9610  220.9330 C   0  0  0  0  0  0  0  0  0  0  0  0
  141.8790   72.0360  221.7170 N   0  0  0  0  0  0  0  0  0  0  0  0
  140.7540   72.2910  222.4360 C   0  0  0  0  0  0  0  0  0  0  0  0
  140.1810   71.2670  223.2550 N   0  0  0  0  0  0  0  0  0  0  0  0
  139.5700   70.1250  222.5950 C   0  0  0  0  0  0  0  0  0  0  0  0
  138.5690   69.4320  223.5010 C   0  0  0  0  0  0  0  0  0  0  0  0
  139.3180   69.0650  224.7570 C   0  0  0  0  0  0  0  0  0  0  0  0
  139.1990   67.8100  225.3070 C   0  0  0  0  0  0  0  0  0  0  0  0
  139.8990   67.5070  226.4570 C   0  0  0  0  0  0  0  0  0  0  0  0
  140.7000   68.4800  227.0180 C   0  0  0  0  0  0  0  0  0  0  0  0
  140.8100   69.7500  226.4480 C   0  0  0  0  0  0  0  0  0  0  0  0
  140.1070   70.0610  225.2890 C   0  0  0  0  0  0  0  0  0  0  0  0
  140.2320   71.4150  224.6950 C   0  0  0  0  0  0  0  0  0  0  0  0
  140.1980   73.5120  222.3640 N   0  0  0  0  0  0  0  0  0  0  0  0
  140.7560   74.4580  221.5890 C   0  0  0  0  0  0  0  0  0  0  0  0
  140.2050   75.7700  221.4770 N   0  0  0  0  0  0  0  0  0  0  0  0
  138.7710   76.0050  221.3730 C   0  0  0  0  0  0  0  0  0  0  0  0
  138.3560   76.7610  222.6160 C   0  0  0  0  0  0  0  0  0  0  0  0
  139.1710   78.0100  222.6530 C   0  0  0  0  0  0  0  0  0  0  0  0
  138.6550   79.1460  223.2340 C   0  0  0  0  0  0  0  0  0  0  0  0
  139.3930   80.3050  223.2780 C   0  0  0  0  0  0  0  0  0  0  0  0
  140.6620   80.4060  222.7570 C   0  0  0  0  0  0  0  0  0  0  0  0
  141.1970   79.2580  222.1660 C   0  0  0  0  0  0  0  0  0  0  0  0
  140.4470   78.0840  222.1230 C   0  0  0  0  0  0  0  0  0  0  0  0
  141.1080   76.9120  221.4690 C   0  0  0  0  0  0  0  0  0  0  0  0
  141.8780   74.1690  220.8840 N   0  0  0  0  0  0  0  0  0  0  0  0
  144.5670   73.7840  219.9250 C   0  0  0  0  0  0  0  0  0  0  0  0
  145.9220   73.0830  219.7780 C   0  0  0  0  0  0  0  0  0  0  0  0
  145.8740   72.4340  218.5460 O   0  0  0  0  0  0  0  0  0  0  0  0
  145.8488   68.0884  220.6442 H   0  0  0  0  0  0  0  0  0  0  0  0
  145.4472   67.1608  219.1593 H   0  0  0  0  0  0  0  0  0  0  0  0
  146.8377   68.2980  219.1593 H   0  0  0  0  0  0  0  0  0  0  0  0
  144.0684   68.7780  218.5661 H   0  0  0  0  0  0  0  0  0  0  0  0
  144.6170   69.7691  220.0052 H   0  0  0  0  0  0  0  0  0  0  0  0
  145.4430   69.9290  217.2310 H   0  0  0  0  0  0  0  0  0  0  0  0
  144.2436   71.7353  217.6583 H   0  0  0  0  0  0  0  0  0  0  0  0
  143.0622   70.8838  219.3522 H   0  0  0  0  0  0  0  0  0  0  0  0
  144.5115   70.8541  220.4638 H   0  0  0  0  0  0  0  0  0  0  0  0
  139.0524   70.4706  221.6880 H   0  0  0  0  0  0  0  0  0  0  0  0
  140.3633   69.4062  222.3419 H   0  0  0  0  0  0  0  0  0  0  0  0
  137.7367   70.1108  223.7385 H   0  0  0  0  0  0  0  0  0  0  0  0
  138.1406   68.5421  223.0166 H   0  0  0  0  0  0  0  0  0  0  0  0
  138.5525   67.0555  224.8350 H   0  0  0  0  0  0  0  0  0  0  0  0
  139.8200   66.5108  226.9166 H   0  0  0  0  0  0  0  0  0  0  0  0
  141.2641   68.2505  227.9340 H   0  0  0  0  0  0  0  0  0  0  0  0
  141.4551   70.5073  226.9174 H   0  0  0  0  0  0  0  0  0  0  0  0
  139.4031   72.0525  225.0363 H   0  0  0  0  0  0  0  0  0  0  0  0
  141.1773   71.8862  225.0021 H   0  0  0  0  0  0  0  0  0  0  0  0
  138.5500   76.6022  220.4761 H   0  0  0  0  0  0  0  0  0  0  0  0
  138.2224   75.0553  221.2894 H   0  0  0  0  0  0  0  0  0  0  0  0
  137.2853   77.0087  222.5688 H   0  0  0  0  0  0  0  0  0  0  0  0
  138.5204   76.1555  223.5195 H   0  0  0  0  0  0  0  0  0  0  0  0
  137.6438   79.1264  223.6666 H   0  0  0  0  0  0  0  0  0  0  0  0
  138.9482   81.1925  223.7517 H   0  0  0  0  0  0  0  0  0  0  0  0
  141.2297   81.3471  222.8034 H   0  0  0  0  0  0  0  0  0  0  0  0
  142.2089   79.2810  221.7353 H   0  0  0  0  0  0  0  0  0  0  0  0
  141.3629   77.1690  220.4302 H   0  0  0  0  0  0  0  0  0  0  0  0
  142.0236   76.6555  222.0221 H   0  0  0  0  0  0  0  0  0  0  0  0
  144.2970   74.3153  219.0004 H   0  0  0  0  0  0  0  0  0  0  0  0
  144.5626   74.5450  220.7193 H   0  0  0  0  0  0  0  0  0  0  0  0
  146.7392   73.8191  219.7931 H   0  0  0  0  0  0  0  0  0  0  0  0
  146.1089   72.3795  220.6027 H   0  0  0  0  0  0  0  0  0  0  0  0
  1  2  1  0
  2  3  1  0
  3  4  1  0
  4  5  1  0
  5  6  1  0
  6  7  1  0
  7  8  2  0
  8  9  1  0
  9 10  1  0
 10 11  1  0
 11 12  1  0
 12 13  1  0
 13 14  2  0
 14 15  1  0
 15 16  2  0
 16 17  1  0
 17 18  2  0
 18 19  1  0
  9 20  2  0
 20 21  1  0
 21 22  1  0
 22 23  1  0
 23 24  1  0
 24 25  1  0
 25 26  2  0
 26 27  1  0
 27 28  2  0
 28 29  1  0
 29 30  2  0
 30 31  1  0
 21 32  2  0
  6 33  1  0
 33 34  1  0
 34 35  1  0
 35  4  1  0
 32  7  1  0
 19 10  1  0
 31 22  1  0
 18 13  1  0
 30 25  1  0
  1 36  1  0
  1 37  1  0
  1 38  1  0
  2 39  1  0
  2 40  1  0
  3 41  1  0
  4 42  1  6
  5 43  1  0
  5 44  1  0
 11 45  1  0
 11 46  1  0
 12 47  1  0
 12 48  1  0
 14 49  1  0
 15 50  1  0
 16 51  1  0
 17 52  1  0
 19 53  1  0
 19 54  1  0
 23 55  1  0
 23 56  1  0
 24 57  1  0
 24 58  1  0
 26 59  1  0
 27 60  1  0
 28 61  1  0
 29 62  1  0
 31 63  1  0
 31 64  1  0
 33 65  1  0
 33 66  1  0
 34 67  1  0
 34 68  1  0
M  END
>  <smiles>  (66) 
CCNC1CN(c2nc(N3CCc4ccccc4C3)nc(N3CCc4ccccc4C3)n2)CCO1

>  <score_type>  (66) 
oracle

>  <origin>  (66) 
autodockgpu

>  <m_score__min__energy>  (66) 
-10.41

>  <m_primary>  (66) 
energy

>  <rmsd>  (66) 
9.114828158131587

>  <m_score__min__rmsd>  (66) 
9.114828158131587

>  <meeko>  (66) 
{"free_energy": -10.25, "intermolecular_energy": -11.74, "internal_energy": -1.01, "cluster_size": 49, "cluster_id": 1, "rank_in_cluster": 41}

>  <energy>  (66) 
-10.31

>  <cluster_rmsd>  (66) 
0.23

>  <cluster>  (66) 
1

$$$$

     RDKit          3D

 68 73  0  0  0  0  0  0  0  0999 V2000
  146.1670   73.8270  215.9300 C   0  0  0  0  0  0  0  0  0  0  0  0
  145.4430   73.6140  217.2180 C   0  0  0  0  0  0  0  0  0  0  0  0
  146.3050   73.2710  218.3330 N   0  0  0  0  0  0  0  0  0  0  0  0
  145.5030   72.4700  219.2390 C   0  0  1  0  0  0  0  0  0  0  0  0
  144.2110   73.1480  219.6010 C   0  0  0  0  0  0  0  0  0  0  0  0
  143.2440   72.2640  220.1670 N   0  0  0  0  0  0  0  0  0  0  0  0
  142.1770   72.6590  221.0180 C   0  0  0  0  0  0  0  0  0  0  0  0
  141.6520   71.8220  221.9290 N   0  0  0  0  0  0  0  0  0  0  0  0
  140.6320   72.1860  222.7500 C   0  0  0  0  0  0  0  0  0  0  0  0
  140.1120   71.2520  223.7030 N   0  0  0  0  0  0  0  0  0  0  0  0
  139.3910   70.0940  223.2020 C   0  0  0  0  0  0  0  0  0  0  0  0
  138.4690   69.5160  224.2610 C   0  0  0  0  0  0  0  0  0  0  0  0
  139.3360   69.2100  225.4560 C   0  0  0  0  0  0  0  0  0  0  0  0
  139.2310   68.0050  226.1120 C   0  0  0  0  0  0  0  0  0  0  0  0
  140.0400   67.7570  227.2020 C   0  0  0  0  0  0  0  0  0  0  0  0
  140.9320   68.7310  227.5970 C   0  0  0  0  0  0  0  0  0  0  0  0
  141.0280   69.9490  226.9210 C   0  0  0  0  0  0  0  0  0  0  0  0
  140.2150   70.2050  225.8220 C   0  0  0  0  0  0  0  0  0  0  0  0
  140.3260   71.5040  225.1130 C   0  0  0  0  0  0  0  0  0  0  0  0
  140.1260   73.4270  222.6500 N   0  0  0  0  0  0  0  0  0  0  0  0
  140.6310   74.2860  221.7490 C   0  0  0  0  0  0  0  0  0  0  0  0
  140.1300   75.6140  221.6020 N   0  0  0  0  0  0  0  0  0  0  0  0
  138.7070   75.8980  221.4670 C   0  0  0  0  0  0  0  0  0  0  0  0
  138.2970   76.6930  222.6880 C   0  0  0  0  0  0  0  0  0  0  0  0
  139.1560   77.9120  222.7160 C   0  0  0  0  0  0  0  0  0  0  0  0
  138.6710   79.0770  223.2660 C   0  0  0  0  0  0  0  0  0  0  0  0
  139.4500   80.2090  223.3020 C   0  0  0  0  0  0  0  0  0  0  0  0
  140.7310   80.2540  222.8020 C   0  0  0  0  0  0  0  0  0  0  0  0
  141.2340   79.0770  222.2430 C   0  0  0  0  0  0  0  0  0  0  0  0
  140.4430   77.9300  222.2090 C   0  0  0  0  0  0  0  0  0  0  0  0
  141.0740   76.7230  221.5880 C   0  0  0  0  0  0  0  0  0  0  0  0
  141.6490   73.8890  220.9450 N   0  0  0  0  0  0  0  0  0  0  0  0
  143.3700   70.8370  219.8380 C   0  0  0  0  0  0  0  0  0  0  0  0
  144.0650   70.8430  218.4710 C   0  0  0  0  0  0  0  0  0  0  0  0
  145.3840   71.2100  218.7250 O   0  0  0  0  0  0  0  0  0  0  0  0
  147.2033   74.1319  216.1379 H   0  0  0  0  0  0  0  0  0  0  0  0
  146.1691   72.8914  215.3515 H   0  0  0  0  0  0  0  0  0  0  0  0
  145.6621   74.6147  215.3515 H   0  0  0  0  0  0  0  0  0  0  0  0
  144.9055   74.5403  217.4693 H   0  0  0  0  0  0  0  0  0  0  0  0
  144.7681   72.7590  217.0645 H   0  0  0  0  0  0  0  0  0  0  0  0
  146.6570   74.1130  218.8120 H   0  0  0  0  0  0  0  0  0  0  0  0
  146.0070   72.3669  220.2113 H   0  0  0  0  0  0  0  0  0  0  0  0
  144.4269   73.9418  220.3313 H   0  0  0  0  0  0  0  0  0  0  0  0
  143.7812   73.5445  218.6693 H   0  0  0  0  0  0  0  0  0  0  0  0
  138.7911   70.3952  222.3306 H   0  0  0  0  0  0  0  0  0  0  0  0
  140.1244   69.3232  222.9227 H   0  0  0  0  0  0  0  0  0  0  0  0
  137.6931   70.2475  224.5308 H   0  0  0  0  0  0  0  0  0  0  0  0
  137.9579   68.6128  223.8962 H   0  0  0  0  0  0  0  0  0  0  0  0
  138.5099   67.2475  225.7712 H   0  0  0  0  0  0  0  0  0  0  0  0
  139.9745   66.8022  227.7443 H   0  0  0  0  0  0  0  0  0  0  0  0
  141.5827   68.5445  228.4641 H   0  0  0  0  0  0  0  0  0  0  0  0
  141.7488   70.7083  227.2587 H   0  0  0  0  0  0  0  0  0  0  0  0
  139.5645   72.2030  225.4891 H   0  0  0  0  0  0  0  0  0  0  0  0
  141.3167   71.9521  225.2797 H   0  0  0  0  0  0  0  0  0  0  0  0
  138.5237   76.4850  220.5549 H   0  0  0  0  0  0  0  0  0  0  0  0
  138.1262   74.9669  221.3914 H   0  0  0  0  0  0  0  0  0  0  0  0
  137.2370   76.9781  222.6161 H   0  0  0  0  0  0  0  0  0  0  0  0
  138.4226   76.1000  223.6059 H   0  0  0  0  0  0  0  0  0  0  0  0
  137.6522   79.1023  223.6799 H   0  0  0  0  0  0  0  0  0  0  0  0
  139.0298   81.1209  223.7513 H   0  0  0  0  0  0  0  0  0  0  0  0
  141.3315   81.1748  222.8407 H   0  0  0  0  0  0  0  0  0  0  0  0
  142.2533   79.0553  221.8300 H   0  0  0  0  0  0  0  0  0  0  0  0
  141.3551   76.9509  220.5492 H   0  0  0  0  0  0  0  0  0  0  0  0
  141.9711   76.4453  222.1608 H   0  0  0  0  0  0  0  0  0  0  0  0
  143.9818   70.3135  220.5875 H   0  0  0  0  0  0  0  0  0  0  0  0
  142.4022   70.3143  219.8235 H   0  0  0  0  0  0  0  0  0  0  0  0
  144.0254   69.8426  218.0154 H   0  0  0  0  0  0  0  0  0  0  0  0
  143.5773   71.5350  217.7686 H   0  0  0  0  0  0  0  0  0  0  0  0
  1  2  1  0
  2  3  1  0
  3  4  1  0
  4  5  1  0
  5  6  1  0
  6  7  1  0
  7  8  2  0
  8  9  1  0
  9 10  1  0
 10 11  1  0
 11 12  1  0
 12 13  1  0
 13 14  2  0
 14 15  1  0
 15 16  2  0
 16 17  1  0
 17 18  2  0
 18 19  1  0
  9 20  2  0
 20 21  1  0
 21 22  1  0
 22 23  1  0
 23 24  1  0
 24 25  1  0
 25 26  2  0
 26 27  1  0
 27 28  2  0
 28 29  1  0
 29 30  2  0
 30 31  1  0
 21 32  2  0
  6 33  1  0
 33 34  1  0
 34 35  1  0
 35  4  1  0
 32  7  1  0
 19 10  1  0
 31 22  1  0
 18 13  1  0
 30 25  1  0
  1 36  1  0
  1 37  1  0
  1 38  1  0
  2 39  1  0
  2 40  1  0
  3 41  1  0
  4 42  1  1
  5 43  1  0
  5 44  1  0
 11 45  1  0
 11 46  1  0
 12 47  1  0
 12 48  1  0
 14 49  1  0
 15 50  1  0
 16 51  1  0
 17 52  1  0
 19 53  1  0
 19 54  1  0
 23 55  1  0
 23 56  1  0
 24 57  1  0
 24 58  1  0
 26 59  1  0
 27 60  1  0
 28 61  1  0
 29 62  1  0
 31 63  1  0
 31 64  1  0
 33 65  1  0
 33 66  1  0
 34 67  1  0
 34 68  1  0
M  END
>  <smiles>  (67) 
CCNC1CN(c2nc(N3CCc4ccccc4C3)nc(N3CCc4ccccc4C3)n2)CCO1

>  <score_type>  (67) 
oracle

>  <origin>  (67) 
autodockgpu

>  <m_score__min__energy>  (67) 
-10.41

>  <m_primary>  (67) 
energy

>  <rmsd>  (67) 
7.465607621617595

>  <m_score__min__rmsd>  (67) 
7.465607621617595

>  <meeko>  (67) 
{"free_energy": -10.36, "intermolecular_energy": -11.85, "internal_energy": -0.98, "cluster_size": 49, "cluster_id": 1, "rank_in_cluster": 9}

>  <energy>  (67) 
-10.31

>  <cluster_rmsd>  (67) 
0.3

>  <cluster>  (67) 
1

$$$$

     RDKit          3D

 68 73  0  0  0  0  0  0  0  0999 V2000
  145.5560   67.7400  219.7400 C   0  0  0  0  0  0  0  0  0  0  0  0
  144.8290   68.9530  219.2640 C   0  0  0  0  0  0  0  0  0  0  0  0
  145.6920   69.9890  218.7290 N   0  0  0  0  0  0  0  0  0  0  0  0
  144.9510   71.2320  218.8330 C   0  0  1  0  0  0  0  0  0  0  0  0
  144.0560   71.2590  220.0410 C   0  0  0  0  0  0  0  0  0  0  0  0
  143.6090   72.5700  220.3880 N   0  0  0  0  0  0  0  0  0  0  0  0
  142.4300   72.8590  221.1270 C   0  0  0  0  0  0  0  0  0  0  0  0
  141.8600   71.9490  221.9340 N   0  0  0  0  0  0  0  0  0  0  0  0
  140.7320   72.2110  222.6470 C   0  0  0  0  0  0  0  0  0  0  0  0
  140.1690   71.2030  223.4930 N   0  0  0  0  0  0  0  0  0  0  0  0
  139.5520   70.0480  222.8620 C   0  0  0  0  0  0  0  0  0  0  0  0
  138.5620   69.3720  223.7930 C   0  0  0  0  0  0  0  0  0  0  0  0
  139.3260   69.0310  225.0470 C   0  0  0  0  0  0  0  0  0  0  0  0
  139.2150   67.7860  225.6230 C   0  0  0  0  0  0  0  0  0  0  0  0
  139.9290   67.5060  226.7700 C   0  0  0  0  0  0  0  0  0  0  0  0
  140.7350   68.4900  227.3020 C   0  0  0  0  0  0  0  0  0  0  0  0
  140.8380   69.7490  226.7060 C   0  0  0  0  0  0  0  0  0  0  0  0
  140.1210   70.0370  225.5500 C   0  0  0  0  0  0  0  0  0  0  0  0
  140.2380   71.3790  224.9280 C   0  0  0  0  0  0  0  0  0  0  0  0
  140.1640   73.4240  222.5420 N   0  0  0  0  0  0  0  0  0  0  0  0
  140.7110   74.3550  221.7430 C   0  0  0  0  0  0  0  0  0  0  0  0
  140.1470   75.6570  221.5970 N   0  0  0  0  0  0  0  0  0  0  0  0
  138.7100   75.8750  221.4940 C   0  0  0  0  0  0  0  0  0  0  0  0
  138.2940   76.6630  222.7170 C   0  0  0  0  0  0  0  0  0  0  0  0
  139.0970   77.9210  222.7140 C   0  0  0  0  0  0  0  0  0  0  0  0
  138.5730   79.0670  223.2640 C   0  0  0  0  0  0  0  0  0  0  0  0
  139.2990   80.2350  223.2700 C   0  0  0  0  0  0  0  0  0  0  0  0
  140.5640   80.3330  222.7390 C   0  0  0  0  0  0  0  0  0  0  0  0
  141.1070   79.1740  222.1780 C   0  0  0  0  0  0  0  0  0  0  0  0
  140.3690   77.9910  222.1740 C   0  0  0  0  0  0  0  0  0  0  0  0
  141.0380   76.8080  221.5490 C   0  0  0  0  0  0  0  0  0  0  0  0
  141.8360   74.0590  221.0460 N   0  0  0  0  0  0  0  0  0  0  0  0
  144.4380   73.6990  219.9430 C   0  0  0  0  0  0  0  0  0  0  0  0
  145.8450   73.0960  219.8490 C   0  0  0  0  0  0  0  0  0  0  0  0
  145.8250   72.2770  218.7230 O   0  0  0  0  0  0  0  0  0  0  0  0
  145.5646   67.7257  220.8399 H   0  0  0  0  0  0  0  0  0  0  0  0
  145.0493   66.8383  219.3655 H   0  0  0  0  0  0  0  0  0  0  0  0
  146.5901   67.7618  219.3655 H   0  0  0  0  0  0  0  0  0  0  0  0
  144.1264   68.6471  218.4749 H   0  0  0  0  0  0  0  0  0  0  0  0
  144.3225   69.3835  220.1404 H   0  0  0  0  0  0  0  0  0  0  0  0
  145.9430   69.8020  217.7470 H   0  0  0  0  0  0  0  0  0  0  0  0
  144.2402   71.3270  217.9989 H   0  0  0  0  0  0  0  0  0  0  0  0
  143.1748   70.6334  219.8358 H   0  0  0  0  0  0  0  0  0  0  0  0
  144.6457   70.8824  220.8898 H   0  0  0  0  0  0  0  0  0  0  0  0
  139.0238   70.3755  221.9544 H   0  0  0  0  0  0  0  0  0  0  0  0
  140.3431   69.3252  222.6135 H   0  0  0  0  0  0  0  0  0  0  0  0
  137.7316   70.0545  224.0266 H   0  0  0  0  0  0  0  0  0  0  0  0
  138.1290   68.4723  223.3314 H   0  0  0  0  0  0  0  0  0  0  0  0
  138.5637   67.0219  225.1735 H   0  0  0  0  0  0  0  0  0  0  0  0
  139.8567   66.5188  227.2497 H   0  0  0  0  0  0  0  0  0  0  0  0
  141.3096   68.2789  228.2159 H   0  0  0  0  0  0  0  0  0  0  0  0
  141.4886   70.5153  227.1527 H   0  0  0  0  0  0  0  0  0  0  0  0
  139.4132   72.0230  225.2671 H   0  0  0  0  0  0  0  0  0  0  0  0
  141.1870   71.8562  225.2138 H   0  0  0  0  0  0  0  0  0  0  0  0
  138.4785   76.4437  220.5813 H   0  0  0  0  0  0  0  0  0  0  0  0
  138.1703   74.9180  221.4410 H   0  0  0  0  0  0  0  0  0  0  0  0
  137.2207   76.8989  222.6683 H   0  0  0  0  0  0  0  0  0  0  0  0
  138.4692   76.0855  223.6367 H   0  0  0  0  0  0  0  0  0  0  0  0
  137.5645   79.0495  223.7030 H   0  0  0  0  0  0  0  0  0  0  0  0
  138.8475   81.1315  223.7199 H   0  0  0  0  0  0  0  0  0  0  0  0
  141.1227   81.2804  222.7552 H   0  0  0  0  0  0  0  0  0  0  0  0
  142.1158   79.1950  221.7399 H   0  0  0  0  0  0  0  0  0  0  0  0
  141.2824   77.0376  220.5013 H   0  0  0  0  0  0  0  0  0  0  0  0
  141.9605   76.5774  222.1020 H   0  0  0  0  0  0  0  0  0  0  0  0
  144.1032   74.0702  218.9631 H   0  0  0  0  0  0  0  0  0  0  0  0
  144.3867   74.5620  220.6231 H   0  0  0  0  0  0  0  0  0  0  0  0
  146.5967   73.8906  219.7329 H   0  0  0  0  0  0  0  0  0  0  0  0
  146.1095   72.5344  220.7571 H   0  0  0  0  0  0  0  0  0  0  0  0
  1  2  1  0
  2  3  1  0
  3  4  1  0
  4  5  1  0
  5  6  1  0
  6  7  1  0
  7  8  2  0
  8  9  1  0
  9 10  1  0
 10 11  1  0
 11 12  1  0
 12 13  1  0
 13 14  2  0
 14 15  1  0
 15 16  2  0
 16 17  1  0
 17 18  2  0
 18 19  1  0
  9 20  2  0
 20 21  1  0
 21 22  1  0
 22 23  1  0
 23 24  1  0
 24 25  1  0
 25 26  2  0
 26 27  1  0
 27 28  2  0
 28 29  1  0
 29 30  2  0
 30 31  1  0
 21 32  2  0
  6 33  1  0
 33 34  1  0
 34 35  1  0
 35  4  1  0
 32  7  1  0
 19 10  1  0
 31 22  1  0
 18 13  1  0
 30 25  1  0
  1 36  1  0
  1 37  1  0
  1 38  1  0
  2 39  1  0
  2 40  1  0
  3 41  1  0
  4 42  1  6
  5 43  1  0
  5 44  1  0
 11 45  1  0
 11 46  1  0
 12 47  1  0
 12 48  1  0
 14 49  1  0
 15 50  1  0
 16 51  1  0
 17 52  1  0
 19 53  1  0
 19 54  1  0
 23 55  1  0
 23 56  1  0
 24 57  1  0
 24 58  1  0
 26 59  1  0
 27 60  1  0
 28 61  1  0
 29 62  1  0
 31 63  1  0
 31 64  1  0
 33 65  1  0
 33 66  1  0
 34 67  1  0
 34 68  1  0
M  END
>  <smiles>  (68) 
CCNC1CN(c2nc(N3CCc4ccccc4C3)nc(N3CCc4ccccc4C3)n2)CCO1

>  <score_type>  (68) 
oracle

>  <origin>  (68) 
autodockgpu

>  <m_score__min__energy>  (68) 
-10.41

>  <m_primary>  (68) 
energy

>  <rmsd>  (68) 
9.223640214093729

>  <m_score__min__rmsd>  (68) 
9.223640214093729

>  <meeko>  (68) 
{"free_energy": -10.27, "intermolecular_energy": -11.76, "internal_energy": -0.99, "cluster_size": 49, "cluster_id": 1, "rank_in_cluster": 34}

>  <energy>  (68) 
-10.3

>  <cluster_rmsd>  (68) 
0.46

>  <cluster>  (68) 
1

$$$$

     RDKit          3D

 68 73  0  0  0  0  0  0  0  0999 V2000
  145.5690   68.4120  219.0130 C   0  0  0  0  0  0  0  0  0  0  0  0
  145.9200   69.8610  218.9360 C   0  0  0  0  0  0  0  0  0  0  0  0
  145.3380   70.5520  217.8010 N   0  0  0  0  0  0  0  0  0  0  0  0
  144.8430   71.8190  218.3040 C   0  0  1  0  0  0  0  0  0  0  0  0
  143.8420   71.6380  219.4110 C   0  0  0  0  0  0  0  0  0  0  0  0
  143.6200   72.8220  220.1760 N   0  0  0  0  0  0  0  0  0  0  0  0
  142.4450   73.1000  220.9250 C   0  0  0  0  0  0  0  0  0  0  0  0
  141.8640   72.1680  221.7000 N   0  0  0  0  0  0  0  0  0  0  0  0
  140.7390   72.4190  222.4220 C   0  0  0  0  0  0  0  0  0  0  0  0
  140.1640   71.3890  223.2310 N   0  0  0  0  0  0  0  0  0  0  0  0
  139.5320   70.2650  222.5600 C   0  0  0  0  0  0  0  0  0  0  0  0
  138.5340   69.5680  223.4670 C   0  0  0  0  0  0  0  0  0  0  0  0
  139.2940   69.1730  224.7080 C   0  0  0  0  0  0  0  0  0  0  0  0
  139.1670   67.9100  225.2390 C   0  0  0  0  0  0  0  0  0  0  0  0
  139.8780   67.5810  226.3750 C   0  0  0  0  0  0  0  0  0  0  0  0
  140.6960   68.5350  226.9410 C   0  0  0  0  0  0  0  0  0  0  0  0
  140.8150   69.8130  226.3910 C   0  0  0  0  0  0  0  0  0  0  0  0
  140.1010   70.1510  225.2460 C   0  0  0  0  0  0  0  0  0  0  0  0
  140.2350   71.5130  224.6720 C   0  0  0  0  0  0  0  0  0  0  0  0
  140.1850   73.6420  222.3610 N   0  0  0  0  0  0  0  0  0  0  0  0
  140.7440   74.5940  221.5940 C   0  0  0  0  0  0  0  0  0  0  0  0
  140.1960   75.9070  221.4940 N   0  0  0  0  0  0  0  0  0  0  0  0
  138.7630   76.1450  221.3750 C   0  0  0  0  0  0  0  0  0  0  0  0
  138.3320   76.8840  222.6230 C   0  0  0  0  0  0  0  0  0  0  0  0
  139.1480   78.1310  222.6890 C   0  0  0  0  0  0  0  0  0  0  0  0
  138.6250   79.2590  223.2790 C   0  0  0  0  0  0  0  0  0  0  0  0
  139.3630   80.4170  223.3490 C   0  0  0  0  0  0  0  0  0  0  0  0
  140.6390   80.5240  222.8460 C   0  0  0  0  0  0  0  0  0  0  0  0
  141.1800   79.3840  222.2450 C   0  0  0  0  0  0  0  0  0  0  0  0
  140.4300   78.2110  222.1760 C   0  0  0  0  0  0  0  0  0  0  0  0
  141.0990   77.0490  221.5130 C   0  0  0  0  0  0  0  0  0  0  0  0
  141.8660   74.3090  220.8870 N   0  0  0  0  0  0  0  0  0  0  0  0
  144.6940   73.8250  220.1840 C   0  0  0  0  0  0  0  0  0  0  0  0
  145.9610   72.9960  219.9390 C   0  0  0  0  0  0  0  0  0  0  0  0
  145.9090   72.6230  218.5980 O   0  0  0  0  0  0  0  0  0  0  0  0
  145.4954   68.1081  220.0676 H   0  0  0  0  0  0  0  0  0  0  0  0
  144.6036   68.2416  218.5141 H   0  0  0  0  0  0  0  0  0  0  0  0
  146.3494   67.8187  218.5141 H   0  0  0  0  0  0  0  0  0  0  0  0
  145.5685   70.3509  219.8560 H   0  0  0  0  0  0  0  0  0  0  0  0
  147.0119   69.9168  218.8154 H   0  0  0  0  0  0  0  0  0  0  0  0
  144.5710   70.0080  217.3800 H   0  0  0  0  0  0  0  0  0  0  0  0
  144.2599   72.3390  217.5296 H   0  0  0  0  0  0  0  0  0  0  0  0
  142.8851   71.3253  218.9676 H   0  0  0  0  0  0  0  0  0  0  0  0
  144.2508   70.8812  220.0967 H   0  0  0  0  0  0  0  0  0  0  0  0
  139.0073   70.6314  221.6653 H   0  0  0  0  0  0  0  0  0  0  0  0
  140.3139   69.5417  222.2854 H   0  0  0  0  0  0  0  0  0  0  0  0
  137.7119   70.2517  223.7253 H   0  0  0  0  0  0  0  0  0  0  0  0
  138.0903   68.6906  222.9737 H   0  0  0  0  0  0  0  0  0  0  0  0
  138.5060   67.1707  224.7632 H   0  0  0  0  0  0  0  0  0  0  0  0
  139.7937   66.5784  226.8195 H   0  0  0  0  0  0  0  0  0  0  0  0
  141.2680   68.2840  227.8464 H   0  0  0  0  0  0  0  0  0  0  0  0
  141.4752   70.5546  226.8645 H   0  0  0  0  0  0  0  0  0  0  0  0
  139.4183   72.1548  225.0341 H   0  0  0  0  0  0  0  0  0  0  0  0
  141.1899   71.9677  224.9743 H   0  0  0  0  0  0  0  0  0  0  0  0
  138.5541   76.7549  220.4837 H   0  0  0  0  0  0  0  0  0  0  0  0
  138.2150   75.1969  221.2713 H   0  0  0  0  0  0  0  0  0  0  0  0
  137.2624   77.1340  222.5647 H   0  0  0  0  0  0  0  0  0  0  0  0
  138.4832   76.2655  223.5200 H   0  0  0  0  0  0  0  0  0  0  0  0
  137.6082   79.2340  223.6980 H   0  0  0  0  0  0  0  0  0  0  0  0
  138.9126   81.2982  223.8292 H   0  0  0  0  0  0  0  0  0  0  0  0
  141.2073   81.4634  222.9137 H   0  0  0  0  0  0  0  0  0  0  0  0
  142.1970   79.4124  221.8267 H   0  0  0  0  0  0  0  0  0  0  0  0
  141.3660   77.3210  220.4811 H   0  0  0  0  0  0  0  0  0  0  0  0
  142.0082   76.7847  222.0729 H   0  0  0  0  0  0  0  0  0  0  0  0
  144.5472   74.5645  219.3830 H   0  0  0  0  0  0  0  0  0  0  0  0
  144.7341   74.4019  221.1198 H   0  0  0  0  0  0  0  0  0  0  0  0
  146.8593   73.5998  220.1354 H   0  0  0  0  0  0  0  0  0  0  0  0
  146.0108   72.1212  220.6040 H   0  0  0  0  0  0  0  0  0  0  0  0
  1  2  1  0
  2  3  1  0
  3  4  1  0
  4  5  1  0
  5  6  1  0
  6  7  1  0
  7  8  2  0
  8  9  1  0
  9 10  1  0
 10 11  1  0
 11 12  1  0
 12 13  1  0
 13 14  2  0
 14 15  1  0
 15 16  2  0
 16 17  1  0
 17 18  2  0
 18 19  1  0
  9 20  2  0
 20 21  1  0
 21 22  1  0
 22 23  1  0
 23 24  1  0
 24 25  1  0
 25 26  2  0
 26 27  1  0
 27 28  2  0
 28 29  1  0
 29 30  2  0
 30 31  1  0
 21 32  2  0
  6 33  1  0
 33 34  1  0
 34 35  1  0
 35  4  1  0
 32  7  1  0
 19 10  1  0
 31 22  1  0
 18 13  1  0
 30 25  1  0
  1 36  1  0
  1 37  1  0
  1 38  1  0
  2 39  1  0
  2 40  1  0
  3 41  1  0
  4 42  1  6
  5 43  1  0
  5 44  1  0
 11 45  1  0
 11 46  1  0
 12 47  1  0
 12 48  1  0
 14 49  1  0
 15 50  1  0
 16 51  1  0
 17 52  1  0
 19 53  1  0
 19 54  1  0
 23 55  1  0
 23 56  1  0
 24 57  1  0
 24 58  1  0
 26 59  1  0
 27 60  1  0
 28 61  1  0
 29 62  1  0
 31 63  1  0
 31 64  1  0
 33 65  1  0
 33 66  1  0
 34 67  1  0
 34 68  1  0
M  END
>  <smiles>  (69) 
CCNC1CN(c2nc(N3CCc4ccccc4C3)nc(N3CCc4ccccc4C3)n2)CCO1

>  <score_type>  (69) 
oracle

>  <origin>  (69) 
autodockgpu

>  <m_score__min__energy>  (69) 
-10.41

>  <m_primary>  (69) 
energy

>  <rmsd>  (69) 
8.956039934101602

>  <m_score__min__rmsd>  (69) 
8.956039934101602

>  <meeko>  (69) 
{"free_energy": -10.25, "intermolecular_energy": -11.74, "internal_energy": -0.97, "cluster_size": 49, "cluster_id": 1, "rank_in_cluster": 39}

>  <energy>  (69) 
-10.3

>  <cluster_rmsd>  (69) 
1.22

>  <cluster>  (69) 
1

$$$$

     RDKit          3D

 68 73  0  0  0  0  0  0  0  0999 V2000
  145.9520   68.3230  219.2670 C   0  0  0  0  0  0  0  0  0  0  0  0
  145.0400   69.4810  219.0370 C   0  0  0  0  0  0  0  0  0  0  0  0
  145.5260   70.4340  218.0580 N   0  0  0  0  0  0  0  0  0  0  0  0
  144.9270   71.7110  218.3970 C   0  0  1  0  0  0  0  0  0  0  0  0
  143.9830   71.6030  219.5620 C   0  0  0  0  0  0  0  0  0  0  0  0
  143.6710   72.8610  220.1600 N   0  0  0  0  0  0  0  0  0  0  0  0
  142.4980   73.1360  220.9130 C   0  0  0  0  0  0  0  0  0  0  0  0
  141.9130   72.1990  221.6790 N   0  0  0  0  0  0  0  0  0  0  0  0
  140.7910   72.4490  222.4050 C   0  0  0  0  0  0  0  0  0  0  0  0
  140.2110   71.4120  223.2040 N   0  0  0  0  0  0  0  0  0  0  0  0
  139.5490   70.3130  222.5220 C   0  0  0  0  0  0  0  0  0  0  0  0
  138.5540   69.6160  223.4330 C   0  0  0  0  0  0  0  0  0  0  0  0
  139.3270   69.1830  224.6520 C   0  0  0  0  0  0  0  0  0  0  0  0
  139.1880   67.9130  225.1620 C   0  0  0  0  0  0  0  0  0  0  0  0
  139.9110   67.5490  226.2790 C   0  0  0  0  0  0  0  0  0  0  0  0
  140.7550   68.4790  226.8500 C   0  0  0  0  0  0  0  0  0  0  0  0
  140.8870   69.7650  226.3220 C   0  0  0  0  0  0  0  0  0  0  0  0
  140.1600   70.1370  225.1960 C   0  0  0  0  0  0  0  0  0  0  0  0
  140.3080   71.5070  224.6460 C   0  0  0  0  0  0  0  0  0  0  0  0
  140.2430   73.6740  222.3570 N   0  0  0  0  0  0  0  0  0  0  0  0
  140.8060   74.6320  221.6010 C   0  0  0  0  0  0  0  0  0  0  0  0
  140.2640   75.9490  221.5150 N   0  0  0  0  0  0  0  0  0  0  0  0
  138.8310   76.1970  221.4390 C   0  0  0  0  0  0  0  0  0  0  0  0
  138.4430   76.9400  222.6990 C   0  0  0  0  0  0  0  0  0  0  0  0
  139.2690   78.1820  222.7380 C   0  0  0  0  0  0  0  0  0  0  0  0
  138.7720   79.3140  223.3420 C   0  0  0  0  0  0  0  0  0  0  0  0
  139.5200   80.4670  223.3870 C   0  0  0  0  0  0  0  0  0  0  0  0
  140.7810   80.5640  222.8460 C   0  0  0  0  0  0  0  0  0  0  0  0
  141.2960   79.4200  222.2300 C   0  0  0  0  0  0  0  0  0  0  0  0
  140.5360   78.2520  222.1860 C   0  0  0  0  0  0  0  0  0  0  0  0
  141.1760   77.0840  221.5050 C   0  0  0  0  0  0  0  0  0  0  0  0
  141.9250   74.3480  220.8890 N   0  0  0  0  0  0  0  0  0  0  0  0
  144.6440   73.9470  219.9780 C   0  0  0  0  0  0  0  0  0  0  0  0
  145.9760   73.2100  219.7970 C   0  0  0  0  0  0  0  0  0  0  0  0
  145.9190   72.6420  218.5260 O   0  0  0  0  0  0  0  0  0  0  0  0
  146.0772   68.1640  220.3482 H   0  0  0  0  0  0  0  0  0  0  0  0
  145.5200   67.4199  218.8112 H   0  0  0  0  0  0  0  0  0  0  0  0
  146.9312   68.5313  218.8112 H   0  0  0  0  0  0  0  0  0  0  0  0
  144.0708   69.0934  218.6898 H   0  0  0  0  0  0  0  0  0  0  0  0
  144.9652   70.0198  219.9931 H   0  0  0  0  0  0  0  0  0  0  0  0
  145.2650   70.1580  217.1000 H   0  0  0  0  0  0  0  0  0  0  0  0
  144.2730   72.0577  217.5833 H   0  0  0  0  0  0  0  0  0  0  0  0
  143.0476   71.1428  219.2108 H   0  0  0  0  0  0  0  0  0  0  0  0
  144.4843   70.9951  220.3296 H   0  0  0  0  0  0  0  0  0  0  0  0
  139.0161   70.7057  221.6435 H   0  0  0  0  0  0  0  0  0  0  0  0
  140.3133   69.5820  222.2196 H   0  0  0  0  0  0  0  0  0  0  0  0
  137.7491   70.3091  223.7189 H   0  0  0  0  0  0  0  0  0  0  0  0
  138.0862   68.7566  222.9305 H   0  0  0  0  0  0  0  0  0  0  0  0
  138.5065   67.1943  224.6835 H   0  0  0  0  0  0  0  0  0  0  0  0
  139.8166   66.5393  226.7051 H   0  0  0  0  0  0  0  0  0  0  0  0
  141.3370   68.2013  227.7411 H   0  0  0  0  0  0  0  0  0  0  0  0
  141.5679   70.4860  226.7980 H   0  0  0  0  0  0  0  0  0  0  0  0
  139.5086   72.1555  225.0339 H   0  0  0  0  0  0  0  0  0  0  0  0
  141.2755   71.9396  224.9408 H   0  0  0  0  0  0  0  0  0  0  0  0
  138.5998   76.8078  220.5539 H   0  0  0  0  0  0  0  0  0  0  0  0
  138.2733   75.2528  221.3526 H   0  0  0  0  0  0  0  0  0  0  0  0
  137.3737   77.1969  222.6732 H   0  0  0  0  0  0  0  0  0  0  0  0
  138.6174   76.3215  223.5918 H   0  0  0  0  0  0  0  0  0  0  0  0
  137.7686   79.2965  223.7923 H   0  0  0  0  0  0  0  0  0  0  0  0
  139.0902   81.3525  223.8782 H   0  0  0  0  0  0  0  0  0  0  0  0
  141.3578   81.4993  222.8959 H   0  0  0  0  0  0  0  0  0  0  0  0
  142.2997   79.4411  221.7804 H   0  0  0  0  0  0  0  0  0  0  0  0
  141.4139   77.3525  220.4652 H   0  0  0  0  0  0  0  0  0  0  0  0
  142.0996   76.8134  222.0376 H   0  0  0  0  0  0  0  0  0  0  0  0
  144.4022   74.5459  219.0876 H   0  0  0  0  0  0  0  0  0  0  0  0
  144.6577   74.6546  220.8201 H   0  0  0  0  0  0  0  0  0  0  0  0
  146.8176   73.9151  219.8653 H   0  0  0  0  0  0  0  0  0  0  0  0
  146.1301   72.4495  220.5767 H   0  0  0  0  0  0  0  0  0  0  0  0
  1  2  1  0
  2  3  1  0
  3  4  1  0
  4  5  1  0
  5  6  1  0
  6  7  1  0
  7  8  2  0
  8  9  1  0
  9 10  1  0
 10 11  1  0
 11 12  1  0
 12 13  1  0
 13 14  2  0
 14 15  1  0
 15 16  2  0
 16 17  1  0
 17 18  2  0
 18 19  1  0
  9 20  2  0
 20 21  1  0
 21 22  1  0
 22 23  1  0
 23 24  1  0
 24 25  1  0
 25 26  2  0
 26 27  1  0
 27 28  2  0
 28 29  1  0
 29 30  2  0
 30 31  1  0
 21 32  2  0
  6 33  1  0
 33 34  1  0
 34 35  1  0
 35  4  1  0
 32  7  1  0
 19 10  1  0
 31 22  1  0
 18 13  1  0
 30 25  1  0
  1 36  1  0
  1 37  1  0
  1 38  1  0
  2 39  1  0
  2 40  1  0
  3 41  1  0
  4 42  1  6
  5 43  1  0
  5 44  1  0
 11 45  1  0
 11 46  1  0
 12 47  1  0
 12 48  1  0
 14 49  1  0
 15 50  1  0
 16 51  1  0
 17 52  1  0
 19 53  1  0
 19 54  1  0
 23 55  1  0
 23 56  1  0
 24 57  1  0
 24 58  1  0
 26 59  1  0
 27 60  1  0
 28 61  1  0
 29 62  1  0
 31 63  1  0
 31 64  1  0
 33 65  1  0
 33 66  1  0
 34 67  1  0
 34 68  1  0
M  END
>  <smiles>  (70) 
CCNC1CN(c2nc(N3CCc4ccccc4C3)nc(N3CCc4ccccc4C3)n2)CCO1

>  <score_type>  (70) 
oracle

>  <origin>  (70) 
autodockgpu

>  <m_score__min__energy>  (70) 
-10.41

>  <m_primary>  (70) 
energy

>  <rmsd>  (70) 
9.031055069958676

>  <m_score__min__rmsd>  (70) 
9.031055069958676

>  <meeko>  (70) 
{"free_energy": -10.29, "intermolecular_energy": -11.78, "internal_energy": -1.01, "cluster_size": 49, "cluster_id": 1, "rank_in_cluster": 24}

>  <energy>  (70) 
-10.3

>  <cluster_rmsd>  (70) 
1.21

>  <cluster>  (70) 
1

$$$$

     RDKit          3D

 68 73  0  0  0  0  0  0  0  0999 V2000
  146.4580   73.8950  216.0870 C   0  0  0  0  0  0  0  0  0  0  0  0
  145.6090   73.3920  217.2060 C   0  0  0  0  0  0  0  0  0  0  0  0
  146.3220   73.2110  218.4560 N   0  0  0  0  0  0  0  0  0  0  0  0
  145.4620   72.4070  219.3040 C   0  0  1  0  0  0  0  0  0  0  0  0
  144.1990   73.1320  219.6800 C   0  0  0  0  0  0  0  0  0  0  0  0
  143.1770   72.2710  220.1810 N   0  0  0  0  0  0  0  0  0  0  0  0
  142.1150   72.6760  221.0330 C   0  0  0  0  0  0  0  0  0  0  0  0
  141.5850   71.8450  221.9470 N   0  0  0  0  0  0  0  0  0  0  0  0
  140.5690   72.2190  222.7690 C   0  0  0  0  0  0  0  0  0  0  0  0
  140.0440   71.2910  223.7250 N   0  0  0  0  0  0  0  0  0  0  0  0
  139.2310   70.1910  223.2330 C   0  0  0  0  0  0  0  0  0  0  0  0
  138.3300   69.6380  224.3230 C   0  0  0  0  0  0  0  0  0  0  0  0
  139.2360   69.2500  225.4640 C   0  0  0  0  0  0  0  0  0  0  0  0
  139.0930   68.0360  226.0960 C   0  0  0  0  0  0  0  0  0  0  0  0
  139.9390   67.7120  227.1360 C   0  0  0  0  0  0  0  0  0  0  0  0
  140.9070   68.6220  227.5080 C   0  0  0  0  0  0  0  0  0  0  0  0
  141.0400   69.8500  226.8580 C   0  0  0  0  0  0  0  0  0  0  0  0
  140.1900   70.1830  225.8090 C   0  0  0  0  0  0  0  0  0  0  0  0
  140.3420   71.4920  225.1270 C   0  0  0  0  0  0  0  0  0  0  0  0
  140.0730   73.4640  222.6680 N   0  0  0  0  0  0  0  0  0  0  0  0
  140.5840   74.3170  221.7640 C   0  0  0  0  0  0  0  0  0  0  0  0
  140.0940   75.6490  221.6160 N   0  0  0  0  0  0  0  0  0  0  0  0
  138.6760   75.9420  221.4470 C   0  0  0  0  0  0  0  0  0  0  0  0
  138.2400   76.7290  222.6640 C   0  0  0  0  0  0  0  0  0  0  0  0
  139.1040   77.9430  222.7240 C   0  0  0  0  0  0  0  0  0  0  0  0
  138.6120   79.1060  223.2710 C   0  0  0  0  0  0  0  0  0  0  0  0
  139.3950   80.2340  223.3360 C   0  0  0  0  0  0  0  0  0  0  0  0
  140.6880   80.2760  222.8690 C   0  0  0  0  0  0  0  0  0  0  0  0
  141.1990   79.1010  222.3130 C   0  0  0  0  0  0  0  0  0  0  0  0
  140.4040   77.9580  222.2490 C   0  0  0  0  0  0  0  0  0  0  0  0
  141.0430   76.7530  221.6350 C   0  0  0  0  0  0  0  0  0  0  0  0
  141.5970   73.9110  220.9590 N   0  0  0  0  0  0  0  0  0  0  0  0
  143.2360   70.8580  219.7790 C   0  0  0  0  0  0  0  0  0  0  0  0
  143.9580   70.8990  218.4270 C   0  0  0  0  0  0  0  0  0  0  0  0
  145.2890   71.1830  218.7230 O   0  0  0  0  0  0  0  0  0  0  0  0
  147.3358   74.4151  216.4980 H   0  0  0  0  0  0  0  0  0  0  0  0
  146.7898   73.0477  215.4690 H   0  0  0  0  0  0  0  0  0  0  0  0
  145.8742   74.5931  215.4690 H   0  0  0  0  0  0  0  0  0  0  0  0
  144.7957   74.1135  217.3737 H   0  0  0  0  0  0  0  0  0  0  0  0
  145.2419   72.4000  216.9041 H   0  0  0  0  0  0  0  0  0  0  0  0
  146.5300   74.1130  218.9070 H   0  0  0  0  0  0  0  0  0  0  0  0
  145.9409   72.2275  220.2779 H   0  0  0  0  0  0  0  0  0  0  0  0
  144.4408   73.8737  220.4555 H   0  0  0  0  0  0  0  0  0  0  0  0
  143.8087   73.5992  218.7638 H   0  0  0  0  0  0  0  0  0  0  0  0
  138.6074   70.5508  222.4013 H   0  0  0  0  0  0  0  0  0  0  0  0
  139.9025   69.3869  222.8975 H   0  0  0  0  0  0  0  0  0  0  0  0
  137.6127   70.4052  224.6500 H   0  0  0  0  0  0  0  0  0  0  0  0
  137.7490   68.7762  223.9627 H   0  0  0  0  0  0  0  0  0  0  0  0
  138.3119   67.3311  225.7750 H   0  0  0  0  0  0  0  0  0  0  0  0
  139.8439   66.7484  227.6579 H   0  0  0  0  0  0  0  0  0  0  0  0
  141.5888   68.3743  228.3349 H   0  0  0  0  0  0  0  0  0  0  0  0
  141.8201   70.5570  227.1767 H   0  0  0  0  0  0  0  0  0  0  0  0
  139.6426   72.2233  225.5582 H   0  0  0  0  0  0  0  0  0  0  0  0
  141.3643   71.8777  225.2537 H   0  0  0  0  0  0  0  0  0  0  0  0
  138.5191   76.5376  220.5356 H   0  0  0  0  0  0  0  0  0  0  0  0
  138.0921   75.0150  221.3484 H   0  0  0  0  0  0  0  0  0  0  0  0
  137.1836   77.0203  222.5681 H   0  0  0  0  0  0  0  0  0  0  0  0
  138.3400   76.1277  223.5796 H   0  0  0  0  0  0  0  0  0  0  0  0
  137.5833   79.1332  223.6596 H   0  0  0  0  0  0  0  0  0  0  0  0
  138.9680   81.1445  223.7818 H   0  0  0  0  0  0  0  0  0  0  0  0
  141.2922   81.1932  222.9306 H   0  0  0  0  0  0  0  0  0  0  0  0
  142.2284   79.0777  221.9258 H   0  0  0  0  0  0  0  0  0  0  0  0
  141.3515   76.9875  220.6055 H   0  0  0  0  0  0  0  0  0  0  0  0
  141.9234   76.4658  222.2286 H   0  0  0  0  0  0  0  0  0  0  0  0
  143.8046   70.2648  220.5103 H   0  0  0  0  0  0  0  0  0  0  0  0
  142.2432   70.3881  219.7199 H   0  0  0  0  0  0  0  0  0  0  0  0
  143.8765   69.9271  217.9183 H   0  0  0  0  0  0  0  0  0  0  0  0
  143.5207   71.6513  217.7541 H   0  0  0  0  0  0  0  0  0  0  0  0
  1  2  1  0
  2  3  1  0
  3  4  1  0
  4  5  1  0
  5  6  1  0
  6  7  1  0
  7  8  2  0
  8  9  1  0
  9 10  1  0
 10 11  1  0
 11 12  1  0
 12 13  1  0
 13 14  2  0
 14 15  1  0
 15 16  2  0
 16 17  1  0
 17 18  2  0
 18 19  1  0
  9 20  2  0
 20 21  1  0
 21 22  1  0
 22 23  1  0
 23 24  1  0
 24 25  1  0
 25 26  2  0
 26 27  1  0
 27 28  2  0
 28 29  1  0
 29 30  2  0
 30 31  1  0
 21 32  2  0
  6 33  1  0
 33 34  1  0
 34 35  1  0
 35  4  1  0
 32  7  1  0
 19 10  1  0
 31 22  1  0
 18 13  1  0
 30 25  1  0
  1 36  1  0
  1 37  1  0
  1 38  1  0
  2 39  1  0
  2 40  1  0
  3 41  1  0
  4 42  1  1
  5 43  1  0
  5 44  1  0
 11 45  1  0
 11 46  1  0
 12 47  1  0
 12 48  1  0
 14 49  1  0
 15 50  1  0
 16 51  1  0
 17 52  1  0
 19 53  1  0
 19 54  1  0
 23 55  1  0
 23 56  1  0
 24 57  1  0
 24 58  1  0
 26 59  1  0
 27 60  1  0
 28 61  1  0
 29 62  1  0
 31 63  1  0
 31 64  1  0
 33 65  1  0
 33 66  1  0
 34 67  1  0
 34 68  1  0
M  END
>  <smiles>  (71) 
CCNC1CN(c2nc(N3CCc4ccccc4C3)nc(N3CCc4ccccc4C3)n2)CCO1

>  <score_type>  (71) 
oracle

>  <origin>  (71) 
autodockgpu

>  <m_score__min__energy>  (71) 
-10.41

>  <m_primary>  (71) 
energy

>  <rmsd>  (71) 
7.425931979799105

>  <m_score__min__rmsd>  (71) 
7.425931979799105

>  <meeko>  (71) 
{"free_energy": -10.34, "intermolecular_energy": -11.84, "internal_energy": -0.94, "cluster_size": 49, "cluster_id": 1, "rank_in_cluster": 10}

>  <energy>  (71) 
-10.29

>  <cluster_rmsd>  (71) 
1.21

>  <cluster>  (71) 
1

$$$$

     RDKit          3D

 68 73  0  0  0  0  0  0  0  0999 V2000
  144.1430   75.6540  216.1820 C   0  0  0  0  0  0  0  0  0  0  0  0
  144.2650   74.1960  216.4800 C   0  0  0  0  0  0  0  0  0  0  0  0
  145.5360   73.8150  217.0670 N   0  0  0  0  0  0  0  0  0  0  0  0
  145.2460   73.3710  218.4170 C   0  0  1  0  0  0  0  0  0  0  0  0
  143.7960   73.5480  218.7730 C   0  0  0  0  0  0  0  0  0  0  0  0
  143.3950   72.7950  219.9180 N   0  0  0  0  0  0  0  0  0  0  0  0
  142.2900   73.1100  220.7540 C   0  0  0  0  0  0  0  0  0  0  0  0
  141.7390   72.1960  221.5710 N   0  0  0  0  0  0  0  0  0  0  0  0
  140.6820   72.4820  222.3770 C   0  0  0  0  0  0  0  0  0  0  0  0
  140.1360   71.4680  223.2270 N   0  0  0  0  0  0  0  0  0  0  0  0
  139.3870   70.3870  222.6080 C   0  0  0  0  0  0  0  0  0  0  0  0
  138.4470   69.7260  223.6000 C   0  0  0  0  0  0  0  0  0  0  0  0
  139.3010   69.2750  224.7570 C   0  0  0  0  0  0  0  0  0  0  0  0
  139.1630   68.0120  225.2850 C   0  0  0  0  0  0  0  0  0  0  0  0
  139.9620   67.6320  226.3440 C   0  0  0  0  0  0  0  0  0  0  0  0
  140.8780   68.5360  226.8390 C   0  0  0  0  0  0  0  0  0  0  0  0
  141.0070   69.8150  226.2930 C   0  0  0  0  0  0  0  0  0  0  0  0
  140.2050   70.2040  225.2260 C   0  0  0  0  0  0  0  0  0  0  0  0
  140.3510   71.5670  224.6560 C   0  0  0  0  0  0  0  0  0  0  0  0
  140.1670   73.7220  222.3590 N   0  0  0  0  0  0  0  0  0  0  0  0
  140.6970   74.6580  221.5530 C   0  0  0  0  0  0  0  0  0  0  0  0
  140.1880   75.9890  221.4960 N   0  0  0  0  0  0  0  0  0  0  0  0
  138.7610   76.2720  221.4120 C   0  0  0  0  0  0  0  0  0  0  0  0
  138.3770   76.9920  222.6860 C   0  0  0  0  0  0  0  0  0  0  0  0
  139.2310   78.2130  222.7660 C   0  0  0  0  0  0  0  0  0  0  0  0
  138.7550   79.3400  223.3940 C   0  0  0  0  0  0  0  0  0  0  0  0
  139.5290   80.4730  223.4780 C   0  0  0  0  0  0  0  0  0  0  0  0
  140.7970   80.5550  222.9520 C   0  0  0  0  0  0  0  0  0  0  0  0
  141.2920   79.4150  222.3130 C   0  0  0  0  0  0  0  0  0  0  0  0
  140.5060   78.2670  222.2300 C   0  0  0  0  0  0  0  0  0  0  0  0
  141.1260   77.1020  221.5250 C   0  0  0  0  0  0  0  0  0  0  0  0
  141.7510   74.3370  220.7620 N   0  0  0  0  0  0  0  0  0  0  0  0
  144.1930   71.6060  220.2480 C   0  0  0  0  0  0  0  0  0  0  0  0
  144.7650   71.1690  218.8940 C   0  0  0  0  0  0  0  0  0  0  0  0
  145.7440   72.1100  218.5830 O   0  0  0  0  0  0  0  0  0  0  0  0
  144.0958   76.2183  217.1251 H   0  0  0  0  0  0  0  0  0  0  0  0
  145.0167   75.9838  215.6007 H   0  0  0  0  0  0  0  0  0  0  0  0
  143.2267   75.8340  215.6007 H   0  0  0  0  0  0  0  0  0  0  0  0
  143.4639   73.9186  217.1809 H   0  0  0  0  0  0  0  0  0  0  0  0
  144.1895   73.6685  215.5177 H   0  0  0  0  0  0  0  0  0  0  0  0
  146.1970   74.6050  217.0820 H   0  0  0  0  0  0  0  0  0  0  0  0
  145.7584   74.0109  219.1505 H   0  0  0  0  0  0  0  0  0  0  0  0
  143.6149   74.6138  218.9762 H   0  0  0  0  0  0  0  0  0  0  0  0
  143.2061   73.1799  217.9206 H   0  0  0  0  0  0  0  0  0  0  0  0
  138.7979   70.7925  221.7722 H   0  0  0  0  0  0  0  0  0  0  0  0
  140.1015   69.6307  222.2510 H   0  0  0  0  0  0  0  0  0  0  0  0
  137.6891   70.4453  223.9438 H   0  0  0  0  0  0  0  0  0  0  0  0
  137.9145   68.8792  223.1425 H   0  0  0  0  0  0  0  0  0  0  0  0
  138.4237   67.3126  224.8675 H   0  0  0  0  0  0  0  0  0  0  0  0
  139.8700   66.6282  226.7844 H   0  0  0  0  0  0  0  0  0  0  0  0
  141.5211   68.2435  227.6822 H   0  0  0  0  0  0  0  0  0  0  0  0
  141.7453   70.5167  226.7084 H   0  0  0  0  0  0  0  0  0  0  0  0
  139.6057   72.2421  225.1018 H   0  0  0  0  0  0  0  0  0  0  0  0
  141.3517   71.9706  224.8696 H   0  0  0  0  0  0  0  0  0  0  0  0
  138.5531   76.9098  220.5403 H   0  0  0  0  0  0  0  0  0  0  0  0
  138.1828   75.3434  221.2964 H   0  0  0  0  0  0  0  0  0  0  0  0
  137.3143   77.2746  222.6556 H   0  0  0  0  0  0  0  0  0  0  0  0
  138.5276   76.3471  223.5643 H   0  0  0  0  0  0  0  0  0  0  0  0
  137.7463   79.3349  223.8328 H   0  0  0  0  0  0  0  0  0  0  0  0
  139.1151   81.3545  223.9895 H   0  0  0  0  0  0  0  0  0  0  0  0
  141.3941   81.4755  223.0306 H   0  0  0  0  0  0  0  0  0  0  0  0
  142.3014   79.4237  221.8758 H   0  0  0  0  0  0  0  0  0  0  0  0
  141.3813   77.3918  220.4950 H   0  0  0  0  0  0  0  0  0  0  0  0
  142.0373   76.7960  222.0597 H   0  0  0  0  0  0  0  0  0  0  0  0
  144.9995   71.8574  220.9525 H   0  0  0  0  0  0  0  0  0  0  0  0
  143.6028   70.8173  220.7375 H   0  0  0  0  0  0  0  0  0  0  0  0
  145.2072   70.1646  218.9695 H   0  0  0  0  0  0  0  0  0  0  0  0
  143.9862   71.1186  218.1188 H   0  0  0  0  0  0  0  0  0  0  0  0
  1  2  1  0
  2  3  1  0
  3  4  1  0
  4  5  1  0
  5  6  1  0
  6  7  1  0
  7  8  2  0
  8  9  1  0
  9 10  1  0
 10 11  1  0
 11 12  1  0
 12 13  1  0
 13 14  2  0
 14 15  1  0
 15 16  2  0
 16 17  1  0
 17 18  2  0
 18 19  1  0
  9 20  2  0
 20 21  1  0
 21 22  1  0
 22 23  1  0
 23 24  1  0
 24 25  1  0
 25 26  2  0
 26 27  1  0
 27 28  2  0
 28 29  1  0
 29 30  2  0
 30 31  1  0
 21 32  2  0
  6 33  1  0
 33 34  1  0
 34 35  1  0
 35  4  1  0
 32  7  1  0
 19 10  1  0
 31 22  1  0
 18 13  1  0
 30 25  1  0
  1 36  1  0
  1 37  1  0
  1 38  1  0
  2 39  1  0
  2 40  1  0
  3 41  1  0
  4 42  1  1
  5 43  1  0
  5 44  1  0
 11 45  1  0
 11 46  1  0
 12 47  1  0
 12 48  1  0
 14 49  1  0
 15 50  1  0
 16 51  1  0
 17 52  1  0
 19 53  1  0
 19 54  1  0
 23 55  1  0
 23 56  1  0
 24 57  1  0
 24 58  1  0
 26 59  1  0
 27 60  1  0
 28 61  1  0
 29 62  1  0
 31 63  1  0
 31 64  1  0
 33 65  1  0
 33 66  1  0
 34 67  1  0
 34 68  1  0
M  END
>  <smiles>  (72) 
CCNC1CN(c2nc(N3CCc4ccccc4C3)nc(N3CCc4ccccc4C3)n2)CCO1

>  <score_type>  (72) 
oracle

>  <origin>  (72) 
autodockgpu

>  <m_score__min__energy>  (72) 
-10.41

>  <m_primary>  (72) 
energy

>  <rmsd>  (72) 
6.891005365504654

>  <m_score__min__rmsd>  (72) 
6.891005365504654

>  <meeko>  (72) 
{"free_energy": -10.1, "intermolecular_energy": -11.59, "internal_energy": -1.01, "cluster_size": 49, "cluster_id": 1, "rank_in_cluster": 42}

>  <energy>  (72) 
-10.29

>  <cluster_rmsd>  (72) 
1.22

>  <cluster>  (72) 
1

$$$$

     RDKit          3D

 68 73  0  0  0  0  0  0  0  0999 V2000
  145.5730   74.5080  215.9490 C   0  0  0  0  0  0  0  0  0  0  0  0
  145.1010   73.7130  217.1210 C   0  0  0  0  0  0  0  0  0  0  0  0
  146.1560   73.3340  218.0430 N   0  0  0  0  0  0  0  0  0  0  0  0
  145.5130   72.6120  219.1240 C   0  0  1  0  0  0  0  0  0  0  0  0
  144.1430   73.1510  219.4310 C   0  0  0  0  0  0  0  0  0  0  0  0
  143.3400   72.2590  220.2030 N   0  0  0  0  0  0  0  0  0  0  0  0
  142.2510   72.6490  221.0280 C   0  0  0  0  0  0  0  0  0  0  0  0
  141.7100   71.8100  221.9280 N   0  0  0  0  0  0  0  0  0  0  0  0
  140.6680   72.1690  222.7240 C   0  0  0  0  0  0  0  0  0  0  0  0
  140.1330   71.2340  223.6670 N   0  0  0  0  0  0  0  0  0  0  0  0
  139.4530   70.0570  223.1510 C   0  0  0  0  0  0  0  0  0  0  0  0
  138.5040   69.4710  224.1800 C   0  0  0  0  0  0  0  0  0  0  0  0
  139.3320   69.1920  225.4090 C   0  0  0  0  0  0  0  0  0  0  0  0
  139.2260   67.9920  226.0730 C   0  0  0  0  0  0  0  0  0  0  0  0
  139.9990   67.7690  227.1930 C   0  0  0  0  0  0  0  0  0  0  0  0
  140.8580   68.7630  227.6110 C   0  0  0  0  0  0  0  0  0  0  0  0
  140.9550   69.9770  226.9270 C   0  0  0  0  0  0  0  0  0  0  0  0
  140.1780   70.2080  225.7970 C   0  0  0  0  0  0  0  0  0  0  0  0
  140.2900   71.5020  225.0810 C   0  0  0  0  0  0  0  0  0  0  0  0
  140.1570   73.4060  222.6100 N   0  0  0  0  0  0  0  0  0  0  0  0
  140.6780   74.2670  221.7190 C   0  0  0  0  0  0  0  0  0  0  0  0
  140.1720   75.5920  221.5580 N   0  0  0  0  0  0  0  0  0  0  0  0
  138.7590   75.8620  221.3280 C   0  0  0  0  0  0  0  0  0  0  0  0
  138.2550   76.6320  222.5290 C   0  0  0  0  0  0  0  0  0  0  0  0
  139.0950   77.8610  222.6360 C   0  0  0  0  0  0  0  0  0  0  0  0
  138.5590   79.0110  223.1680 C   0  0  0  0  0  0  0  0  0  0  0  0
  139.3190   80.1510  223.2750 C   0  0  0  0  0  0  0  0  0  0  0  0
  140.6310   80.2190  222.8680 C   0  0  0  0  0  0  0  0  0  0  0  0
  141.1860   79.0560  222.3270 C   0  0  0  0  0  0  0  0  0  0  0  0
  140.4140   77.9010  222.2200 C   0  0  0  0  0  0  0  0  0  0  0  0
  141.1010   76.7110  221.6270 C   0  0  0  0  0  0  0  0  0  0  0  0
  141.7170   73.8760  220.9410 N   0  0  0  0  0  0  0  0  0  0  0  0
  143.6740   70.8290  220.1330 C   0  0  0  0  0  0  0  0  0  0  0  0
  144.3190   70.6780  218.7500 C   0  0  0  0  0  0  0  0  0  0  0  0
  145.5730   71.2730  218.8570 O   0  0  0  0  0  0  0  0  0  0  0  0
  146.1046   75.4034  216.3035 H   0  0  0  0  0  0  0  0  0  0  0  0
  146.2534   73.8947  215.3400 H   0  0  0  0  0  0  0  0  0  0  0  0
  144.7088   74.8117  215.3400 H   0  0  0  0  0  0  0  0  0  0  0  0
  144.3611   74.3135  217.6705 H   0  0  0  0  0  0  0  0  0  0  0  0
  144.6779   72.7794  216.7217 H   0  0  0  0  0  0  0  0  0  0  0  0
  146.6540   74.1590  218.4080 H   0  0  0  0  0  0  0  0  0  0  0  0
  146.0558   72.7702  220.0676 H   0  0  0  0  0  0  0  0  0  0  0  0
  144.2562   74.0909  219.9912 H   0  0  0  0  0  0  0  0  0  0  0  0
  143.6301   73.2977  218.4690 H   0  0  0  0  0  0  0  0  0  0  0  0
  138.8802   70.3384  222.2551 H   0  0  0  0  0  0  0  0  0  0  0  0
  140.2110   69.2981  222.9069 H   0  0  0  0  0  0  0  0  0  0  0  0
  137.7050   70.1899  224.4142 H   0  0  0  0  0  0  0  0  0  0  0  0
  138.0238   68.5551  223.8051 H   0  0  0  0  0  0  0  0  0  0  0  0
  138.5316   67.2180  225.7142 H   0  0  0  0  0  0  0  0  0  0  0  0
  139.9316   66.8179  227.7414 H   0  0  0  0  0  0  0  0  0  0  0  0
  141.4805   68.5964  228.5025 H   0  0  0  0  0  0  0  0  0  0  0  0
  141.6484   70.7530  227.2834 H   0  0  0  0  0  0  0  0  0  0  0  0
  139.5019   72.1892  225.4224 H   0  0  0  0  0  0  0  0  0  0  0  0
  141.2651   71.9707  225.2798 H   0  0  0  0  0  0  0  0  0  0  0  0
  138.6327   76.4617  220.4145 H   0  0  0  0  0  0  0  0  0  0  0  0
  138.1965   74.9258  221.1974 H   0  0  0  0  0  0  0  0  0  0  0  0
  137.1991   76.9060  222.3875 H   0  0  0  0  0  0  0  0  0  0  0  0
  138.3238   76.0257  223.4442 H   0  0  0  0  0  0  0  0  0  0  0  0
  137.5137   79.0180  223.5105 H   0  0  0  0  0  0  0  0  0  0  0  0
  138.8564   81.0510  223.7062 H   0  0  0  0  0  0  0  0  0  0  0  0
  141.2162   81.1455  222.9638 H   0  0  0  0  0  0  0  0  0  0  0  0
  142.2318   79.0525  221.9858 H   0  0  0  0  0  0  0  0  0  0  0  0
  141.4515   76.9582  220.6141 H   0  0  0  0  0  0  0  0  0  0  0  0
  141.9589   76.4340  222.2573 H   0  0  0  0  0  0  0  0  0  0  0  0
  144.3808   70.5511  220.9287 H   0  0  0  0  0  0  0  0  0  0  0  0
  142.7982   70.1778  220.2701 H   0  0  0  0  0  0  0  0  0  0  0  0
  144.4193   69.6147  218.4867 H   0  0  0  0  0  0  0  0  0  0  0  0
  143.7107   71.1473  217.9628 H   0  0  0  0  0  0  0  0  0  0  0  0
  1  2  1  0
  2  3  1  0
  3  4  1  0
  4  5  1  0
  5  6  1  0
  6  7  1  0
  7  8  2  0
  8  9  1  0
  9 10  1  0
 10 11  1  0
 11 12  1  0
 12 13  1  0
 13 14  2  0
 14 15  1  0
 15 16  2  0
 16 17  1  0
 17 18  2  0
 18 19  1  0
  9 20  2  0
 20 21  1  0
 21 22  1  0
 22 23  1  0
 23 24  1  0
 24 25  1  0
 25 26  2  0
 26 27  1  0
 27 28  2  0
 28 29  1  0
 29 30  2  0
 30 31  1  0
 21 32  2  0
  6 33  1  0
 33 34  1  0
 34 35  1  0
 35  4  1  0
 32  7  1  0
 19 10  1  0
 31 22  1  0
 18 13  1  0
 30 25  1  0
  1 36  1  0
  1 37  1  0
  1 38  1  0
  2 39  1  0
  2 40  1  0
  3 41  1  0
  4 42  1  1
  5 43  1  0
  5 44  1  0
 11 45  1  0
 11 46  1  0
 12 47  1  0
 12 48  1  0
 14 49  1  0
 15 50  1  0
 16 51  1  0
 17 52  1  0
 19 53  1  0
 19 54  1  0
 23 55  1  0
 23 56  1  0
 24 57  1  0
 24 58  1  0
 26 59  1  0
 27 60  1  0
 28 61  1  0
 29 62  1  0
 31 63  1  0
 31 64  1  0
 33 65  1  0
 33 66  1  0
 34 67  1  0
 34 68  1  0
M  END
>  <smiles>  (73) 
CCNC1CN(c2nc(N3CCc4ccccc4C3)nc(N3CCc4ccccc4C3)n2)CCO1

>  <score_type>  (73) 
oracle

>  <origin>  (73) 
autodockgpu

>  <m_score__min__energy>  (73) 
-10.41

>  <m_primary>  (73) 
energy

>  <rmsd>  (73) 
7.3215559108353965

>  <m_score__min__rmsd>  (73) 
7.3215559108353965

>  <meeko>  (73) 
{"free_energy": -10.38, "intermolecular_energy": -11.87, "internal_energy": -0.99, "cluster_size": 49, "cluster_id": 1, "rank_in_cluster": 6}

>  <energy>  (73) 
-10.29

>  <cluster_rmsd>  (73) 
1.2

>  <cluster>  (73) 
1

$$$$

     RDKit          3D

 68 73  0  0  0  0  0  0  0  0999 V2000
  145.8410   68.2530  219.3260 C   0  0  0  0  0  0  0  0  0  0  0  0
  144.9900   69.4540  219.0800 C   0  0  0  0  0  0  0  0  0  0  0  0
  145.5850   70.4290  218.1850 N   0  0  0  0  0  0  0  0  0  0  0  0
  144.9530   71.6990  218.4860 C   0  0  1  0  0  0  0  0  0  0  0  0
  144.0040   71.6000  219.6480 C   0  0  0  0  0  0  0  0  0  0  0  0
  143.6580   72.8650  220.2100 N   0  0  0  0  0  0  0  0  0  0  0  0
  142.4740   73.1330  220.9480 C   0  0  0  0  0  0  0  0  0  0  0  0
  141.8900   72.1930  221.7110 N   0  0  0  0  0  0  0  0  0  0  0  0
  140.7570   72.4340  222.4240 C   0  0  0  0  0  0  0  0  0  0  0  0
  140.1780   71.3950  223.2200 N   0  0  0  0  0  0  0  0  0  0  0  0
  139.5660   70.2690  222.5350 C   0  0  0  0  0  0  0  0  0  0  0  0
  138.5610   69.5600  223.4250 C   0  0  0  0  0  0  0  0  0  0  0  0
  139.3050   69.1670  224.6750 C   0  0  0  0  0  0  0  0  0  0  0  0
  139.1820   67.9010  225.2000 C   0  0  0  0  0  0  0  0  0  0  0  0
  139.8780   67.5730  226.3440 C   0  0  0  0  0  0  0  0  0  0  0  0
  140.6800   68.5320  226.9270 C   0  0  0  0  0  0  0  0  0  0  0  0
  140.7960   69.8130  226.3830 C   0  0  0  0  0  0  0  0  0  0  0  0
  140.0970   70.1490  225.2290 C   0  0  0  0  0  0  0  0  0  0  0  0
  140.2270   71.5140  224.6630 C   0  0  0  0  0  0  0  0  0  0  0  0
  140.1980   73.6550  222.3650 N   0  0  0  0  0  0  0  0  0  0  0  0
  140.7600   74.6140  221.6110 C   0  0  0  0  0  0  0  0  0  0  0  0
  140.2060   75.9260  221.5140 N   0  0  0  0  0  0  0  0  0  0  0  0
  138.7730   76.1580  221.3990 C   0  0  0  0  0  0  0  0  0  0  0  0
  138.3420   76.8940  222.6490 C   0  0  0  0  0  0  0  0  0  0  0  0
  139.1530   78.1440  222.7140 C   0  0  0  0  0  0  0  0  0  0  0  0
  138.6280   79.2690  223.3070 C   0  0  0  0  0  0  0  0  0  0  0  0
  139.3610   80.4300  223.3770 C   0  0  0  0  0  0  0  0  0  0  0  0
  140.6360   80.5420  222.8710 C   0  0  0  0  0  0  0  0  0  0  0  0
  141.1800   79.4050  222.2670 C   0  0  0  0  0  0  0  0  0  0  0  0
  140.4340   78.2300  222.1990 C   0  0  0  0  0  0  0  0  0  0  0  0
  141.1060   77.0710  221.5320 C   0  0  0  0  0  0  0  0  0  0  0  0
  141.8900   74.3390  220.9130 N   0  0  0  0  0  0  0  0  0  0  0  0
  144.6050   73.9710  220.0020 C   0  0  0  0  0  0  0  0  0  0  0  0
  145.9560   73.2620  219.8490 C   0  0  0  0  0  0  0  0  0  0  0  0
  145.9200   72.6580  218.5940 O   0  0  0  0  0  0  0  0  0  0  0  0
  145.9513   68.0974  220.4093 H   0  0  0  0  0  0  0  0  0  0  0  0
  145.3667   67.3689  218.8750 H   0  0  0  0  0  0  0  0  0  0  0  0
  146.8323   68.4074  218.8750 H   0  0  0  0  0  0  0  0  0  0  0  0
  144.0381   69.1190  218.6422 H   0  0  0  0  0  0  0  0  0  0  0  0
  144.8587   69.9538  220.0511 H   0  0  0  0  0  0  0  0  0  0  0  0
  145.4340   70.1770  217.1970 H   0  0  0  0  0  0  0  0  0  0  0  0
  144.2956   72.0064  217.6594 H   0  0  0  0  0  0  0  0  0  0  0  0
  143.0823   71.1082  219.3037 H   0  0  0  0  0  0  0  0  0  0  0  0
  144.5148   71.0254  220.4347 H   0  0  0  0  0  0  0  0  0  0  0  0
  139.0512   70.6347  221.6343 H   0  0  0  0  0  0  0  0  0  0  0  0
  140.3579   69.5537  222.2682 H   0  0  0  0  0  0  0  0  0  0  0  0
  137.7293   70.2357  223.6735 H   0  0  0  0  0  0  0  0  0  0  0  0
  138.1326   68.6805  222.9220 H   0  0  0  0  0  0  0  0  0  0  0  0
  138.5346   67.1578  224.7116 H   0  0  0  0  0  0  0  0  0  0  0  0
  139.7955   66.5676  226.7826 H   0  0  0  0  0  0  0  0  0  0  0  0
  141.2403   68.2824  227.8401 H   0  0  0  0  0  0  0  0  0  0  0  0
  141.4425   70.5586  226.8690 H   0  0  0  0  0  0  0  0  0  0  0  0
  139.3994   72.1470  225.0157 H   0  0  0  0  0  0  0  0  0  0  0  0
  141.1731   71.9762  224.9811 H   0  0  0  0  0  0  0  0  0  0  0  0
  138.5593   76.7680  220.5089 H   0  0  0  0  0  0  0  0  0  0  0  0
  138.2286   75.2077  221.2957 H   0  0  0  0  0  0  0  0  0  0  0  0
  137.2712   77.1397  222.5936 H   0  0  0  0  0  0  0  0  0  0  0  0
  138.4978   76.2752  223.5450 H   0  0  0  0  0  0  0  0  0  0  0  0
  137.6126   79.2393  223.7289 H   0  0  0  0  0  0  0  0  0  0  0  0
  138.9081   81.3089  223.8591 H   0  0  0  0  0  0  0  0  0  0  0  0
  141.2011   81.4833  222.9388 H   0  0  0  0  0  0  0  0  0  0  0  0
  142.1957   79.4377  221.8459 H   0  0  0  0  0  0  0  0  0  0  0  0
  141.3693   77.3454  220.4998 H   0  0  0  0  0  0  0  0  0  0  0  0
  142.0180   76.8090  222.0885 H   0  0  0  0  0  0  0  0  0  0  0  0
  144.3536   74.5382  219.0937 H   0  0  0  0  0  0  0  0  0  0  0  0
  144.5959   74.7028  220.8232 H   0  0  0  0  0  0  0  0  0  0  0  0
  146.7798   73.9890  219.9021 H   0  0  0  0  0  0  0  0  0  0  0  0
  146.1242   72.5275  220.6504 H   0  0  0  0  0  0  0  0  0  0  0  0
  1  2  1  0
  2  3  1  0
  3  4  1  0
  4  5  1  0
  5  6  1  0
  6  7  1  0
  7  8  2  0
  8  9  1  0
  9 10  1  0
 10 11  1  0
 11 12  1  0
 12 13  1  0
 13 14  2  0
 14 15  1  0
 15 16  2  0
 16 17  1  0
 17 18  2  0
 18 19  1  0
  9 20  2  0
 20 21  1  0
 21 22  1  0
 22 23  1  0
 23 24  1  0
 24 25  1  0
 25 26  2  0
 26 27  1  0
 27 28  2  0
 28 29  1  0
 29 30  2  0
 30 31  1  0
 21 32  2  0
  6 33  1  0
 33 34  1  0
 34 35  1  0
 35  4  1  0
 32  7  1  0
 19 10  1  0
 31 22  1  0
 18 13  1  0
 30 25  1  0
  1 36  1  0
  1 37  1  0
  1 38  1  0
  2 39  1  0
  2 40  1  0
  3 41  1  0
  4 42  1  6
  5 43  1  0
  5 44  1  0
 11 45  1  0
 11 46  1  0
 12 47  1  0
 12 48  1  0
 14 49  1  0
 15 50  1  0
 16 51  1  0
 17 52  1  0
 19 53  1  0
 19 54  1  0
 23 55  1  0
 23 56  1  0
 24 57  1  0
 24 58  1  0
 26 59  1  0
 27 60  1  0
 28 61  1  0
 29 62  1  0
 31 63  1  0
 31 64  1  0
 33 65  1  0
 33 66  1  0
 34 67  1  0
 34 68  1  0
M  END
>  <smiles>  (74) 
CCNC1CN(c2nc(N3CCc4ccccc4C3)nc(N3CCc4ccccc4C3)n2)CCO1

>  <score_type>  (74) 
oracle

>  <origin>  (74) 
autodockgpu

>  <m_score__min__energy>  (74) 
-10.41

>  <m_primary>  (74) 
energy

>  <rmsd>  (74) 
9.02880744409757

>  <m_score__min__rmsd>  (74) 
9.02880744409757

>  <meeko>  (74) 
{"free_energy": -10.3, "intermolecular_energy": -11.79, "internal_energy": -1.01, "cluster_size": 49, "cluster_id": 1, "rank_in_cluster": 20}

>  <energy>  (74) 
-10.29

>  <cluster_rmsd>  (74) 
1.22

>  <cluster>  (74) 
1

$$$$

     RDKit          3D

 68 73  0  0  0  0  0  0  0  0999 V2000
  144.9510   74.8900  215.9550 C   0  0  0  0  0  0  0  0  0  0  0  0
  144.9660   73.5890  216.6880 C   0  0  0  0  0  0  0  0  0  0  0  0
  146.0930   73.4280  217.5870 N   0  0  0  0  0  0  0  0  0  0  0  0
  145.5720   72.7970  218.7850 C   0  0  1  0  0  0  0  0  0  0  0  0
  144.1670   73.2360  219.0920 C   0  0  0  0  0  0  0  0  0  0  0  0
  143.4930   72.3800  220.0150 N   0  0  0  0  0  0  0  0  0  0  0  0
  142.4030   72.7680  220.8400 C   0  0  0  0  0  0  0  0  0  0  0  0
  141.8290   71.9110  221.7020 N   0  0  0  0  0  0  0  0  0  0  0  0
  140.7860   72.2680  222.4970 C   0  0  0  0  0  0  0  0  0  0  0  0
  140.2140   71.3140  223.3980 N   0  0  0  0  0  0  0  0  0  0  0  0
  139.5410   70.1570  222.8320 C   0  0  0  0  0  0  0  0  0  0  0  0
  138.5570   69.5530  223.8170 C   0  0  0  0  0  0  0  0  0  0  0  0
  139.3450   69.2350  225.0620 C   0  0  0  0  0  0  0  0  0  0  0  0
  139.2090   68.0190  225.6920 C   0  0  0  0  0  0  0  0  0  0  0  0
  139.9460   67.7610  226.8290 C   0  0  0  0  0  0  0  0  0  0  0  0
  140.8000   68.7370  227.2980 C   0  0  0  0  0  0  0  0  0  0  0  0
  140.9270   69.9670  226.6490 C   0  0  0  0  0  0  0  0  0  0  0  0
  140.1870   70.2330  225.5020 C   0  0  0  0  0  0  0  0  0  0  0  0
  140.3300   71.5450  224.8230 C   0  0  0  0  0  0  0  0  0  0  0  0
  140.3080   73.5210  222.4210 N   0  0  0  0  0  0  0  0  0  0  0  0
  140.8620   74.4000  221.5680 C   0  0  0  0  0  0  0  0  0  0  0  0
  140.3910   75.7420  221.4490 N   0  0  0  0  0  0  0  0  0  0  0  0
  138.9720   76.0710  221.4480 C   0  0  0  0  0  0  0  0  0  0  0  0
  138.7090   76.8960  222.6890 C   0  0  0  0  0  0  0  0  0  0  0  0
  139.6050   78.0860  222.6130 C   0  0  0  0  0  0  0  0  0  0  0  0
  139.2140   79.2740  223.1880 C   0  0  0  0  0  0  0  0  0  0  0  0
  140.0280   80.3800  223.1280 C   0  0  0  0  0  0  0  0  0  0  0  0
  141.2550   80.3760  222.5060 C   0  0  0  0  0  0  0  0  0  0  0  0
  141.6630   79.1750  221.9200 C   0  0  0  0  0  0  0  0  0  0  0  0
  140.8360   78.0540  221.9820 C   0  0  0  0  0  0  0  0  0  0  0  0
  141.3640   76.8180  221.3240 C   0  0  0  0  0  0  0  0  0  0  0  0
  141.9010   74.0100  220.7890 N   0  0  0  0  0  0  0  0  0  0  0  0
  143.9700   70.9930  220.1120 C   0  0  0  0  0  0  0  0  0  0  0  0
  144.5720   70.7230  218.7270 C   0  0  0  0  0  0  0  0  0  0  0  0
  145.7610   71.4470  218.6890 O   0  0  0  0  0  0  0  0  0  0  0  0
  144.9415   75.7184  216.6786 H   0  0  0  0  0  0  0  0  0  0  0  0
  145.8483   74.9653  215.3232 H   0  0  0  0  0  0  0  0  0  0  0  0
  144.0522   74.9446  215.3232 H   0  0  0  0  0  0  0  0  0  0  0  0
  144.0404   73.5142  217.2777 H   0  0  0  0  0  0  0  0  0  0  0  0
  145.0512   72.7981  215.9282 H   0  0  0  0  0  0  0  0  0  0  0  0
  146.5250   74.3350  217.8180 H   0  0  0  0  0  0  0  0  0  0  0  0
  146.1316   73.1313  219.6711 H   0  0  0  0  0  0  0  0  0  0  0  0
  144.2040   74.2489  219.5193 H   0  0  0  0  0  0  0  0  0  0  0  0
  143.6034   73.2026  218.1480 H   0  0  0  0  0  0  0  0  0  0  0  0
  138.9975   70.4661  221.9270 H   0  0  0  0  0  0  0  0  0  0  0  0
  140.3000   69.3982  222.5910 H   0  0  0  0  0  0  0  0  0  0  0  0
  137.7572   70.2727  224.0460 H   0  0  0  0  0  0  0  0  0  0  0  0
  138.0810   68.6513  223.4042 H   0  0  0  0  0  0  0  0  0  0  0  0
  138.5195   67.2605  225.2928 H   0  0  0  0  0  0  0  0  0  0  0  0
  139.8545   66.7969  227.3507 H   0  0  0  0  0  0  0  0  0  0  0  0
  141.3941   68.5424  228.2031 H   0  0  0  0  0  0  0  0  0  0  0  0
  141.6147   70.7280  227.0464 H   0  0  0  0  0  0  0  0  0  0  0  0
  139.5368   72.2295  225.1581 H   0  0  0  0  0  0  0  0  0  0  0  0
  141.3018   72.0010  225.0632 H   0  0  0  0  0  0  0  0  0  0  0  0
  138.7192   76.6509  220.5481 H   0  0  0  0  0  0  0  0  0  0  0  0
  138.3572   75.1588  221.4451 H   0  0  0  0  0  0  0  0  0  0  0  0
  137.6567   77.2153  222.7155 H   0  0  0  0  0  0  0  0  0  0  0  0
  138.9049   76.3118  223.6002 H   0  0  0  0  0  0  0  0  0  0  0  0
  138.2424   79.3388  223.6996 H   0  0  0  0  0  0  0  0  0  0  0  0
  139.6821   81.3118  223.5994 H   0  0  0  0  0  0  0  0  0  0  0  0
  141.8857   81.2766  222.4716 H   0  0  0  0  0  0  0  0  0  0  0  0
  142.6358   79.1139  221.4102 H   0  0  0  0  0  0  0  0  0  0  0  0
  141.5495   77.0214  220.2590 H   0  0  0  0  0  0  0  0  0  0  0  0
  142.3033   76.5184  221.8118 H   0  0  0  0  0  0  0  0  0  0  0  0
  144.7328   70.8937  220.8983 H   0  0  0  0  0  0  0  0  0  0  0  0
  143.1726   70.2835  220.3780 H   0  0  0  0  0  0  0  0  0  0  0  0
  144.7719   69.6491  218.5977 H   0  0  0  0  0  0  0  0  0  0  0  0
  143.8871   71.0217  217.9197 H   0  0  0  0  0  0  0  0  0  0  0  0
  1  2  1  0
  2  3  1  0
  3  4  1  0
  4  5  1  0
  5  6  1  0
  6  7  1  0
  7  8  2  0
  8  9  1  0
  9 10  1  0
 10 11  1  0
 11 12  1  0
 12 13  1  0
 13 14  2  0
 14 15  1  0
 15 16  2  0
 16 17  1  0
 17 18  2  0
 18 19  1  0
  9 20  2  0
 20 21  1  0
 21 22  1  0
 22 23  1  0
 23 24  1  0
 24 25  1  0
 25 26  2  0
 26 27  1  0
 27 28  2  0
 28 29  1  0
 29 30  2  0
 30 31  1  0
 21 32  2  0
  6 33  1  0
 33 34  1  0
 34 35  1  0
 35  4  1  0
 32  7  1  0
 19 10  1  0
 31 22  1  0
 18 13  1  0
 30 25  1  0
  1 36  1  0
  1 37  1  0
  1 38  1  0
  2 39  1  0
  2 40  1  0
  3 41  1  0
  4 42  1  1
  5 43  1  0
  5 44  1  0
 11 45  1  0
 11 46  1  0
 12 47  1  0
 12 48  1  0
 14 49  1  0
 15 50  1  0
 16 51  1  0
 17 52  1  0
 19 53  1  0
 19 54  1  0
 23 55  1  0
 23 56  1  0
 24 57  1  0
 24 58  1  0
 26 59  1  0
 27 60  1  0
 28 61  1  0
 29 62  1  0
 31 63  1  0
 31 64  1  0
 33 65  1  0
 33 66  1  0
 34 67  1  0
 34 68  1  0
M  END
>  <smiles>  (75) 
CCNC1CN(c2nc(N3CCc4ccccc4C3)nc(N3CCc4ccccc4C3)n2)CCO1

>  <score_type>  (75) 
oracle

>  <origin>  (75) 
autodockgpu

>  <m_score__min__energy>  (75) 
-10.41

>  <m_primary>  (75) 
energy

>  <rmsd>  (75) 
7.283697335293682

>  <m_score__min__rmsd>  (75) 
7.283697335293682

>  <meeko>  (75) 
{"free_energy": -10.32, "intermolecular_energy": -11.81, "internal_energy": -1.0, "cluster_size": 49, "cluster_id": 1, "rank_in_cluster": 14}

>  <energy>  (75) 
-10.28

>  <cluster_rmsd>  (75) 
1.22

>  <cluster>  (75) 
1

$$$$

     RDKit          3D

 68 73  0  0  0  0  0  0  0  0999 V2000
  145.9180   68.3490  219.0510 C   0  0  0  0  0  0  0  0  0  0  0  0
  145.0500   69.5600  218.9610 C   0  0  0  0  0  0  0  0  0  0  0  0
  145.4760   70.5220  217.9620 N   0  0  0  0  0  0  0  0  0  0  0  0
  144.9140   71.7990  218.3590 C   0  0  1  0  0  0  0  0  0  0  0  0
  143.9470   71.6630  219.5020 C   0  0  0  0  0  0  0  0  0  0  0  0
  143.6670   72.8980  220.1610 N   0  0  0  0  0  0  0  0  0  0  0  0
  142.4920   73.1740  220.9100 C   0  0  0  0  0  0  0  0  0  0  0  0
  141.9050   72.2380  221.6750 N   0  0  0  0  0  0  0  0  0  0  0  0
  140.7800   72.4870  222.3960 C   0  0  0  0  0  0  0  0  0  0  0  0
  140.1970   71.4510  223.1950 N   0  0  0  0  0  0  0  0  0  0  0  0
  139.5440   70.3470  222.5110 C   0  0  0  0  0  0  0  0  0  0  0  0
  138.5450   69.6490  223.4160 C   0  0  0  0  0  0  0  0  0  0  0  0
  139.3110   69.2240  224.6430 C   0  0  0  0  0  0  0  0  0  0  0  0
  139.1720   67.9550  225.1560 C   0  0  0  0  0  0  0  0  0  0  0  0
  139.8880   67.5980  226.2800 C   0  0  0  0  0  0  0  0  0  0  0  0
  140.7250   68.5320  226.8540 C   0  0  0  0  0  0  0  0  0  0  0  0
  140.8560   69.8170  226.3220 C   0  0  0  0  0  0  0  0  0  0  0  0
  140.1370   70.1820  225.1900 C   0  0  0  0  0  0  0  0  0  0  0  0
  140.2830   71.5510  224.6370 C   0  0  0  0  0  0  0  0  0  0  0  0
  140.2320   73.7130  222.3460 N   0  0  0  0  0  0  0  0  0  0  0  0
  140.7970   74.6690  221.5900 C   0  0  0  0  0  0  0  0  0  0  0  0
  140.2550   75.9860  221.5010 N   0  0  0  0  0  0  0  0  0  0  0  0
  138.8230   76.2320  221.4010 C   0  0  0  0  0  0  0  0  0  0  0  0
  138.4110   76.9690  222.6570 C   0  0  0  0  0  0  0  0  0  0  0  0
  139.2350   78.2120  222.7170 C   0  0  0  0  0  0  0  0  0  0  0  0
  138.7260   79.3400  223.3170 C   0  0  0  0  0  0  0  0  0  0  0  0
  139.4720   80.4940  223.3820 C   0  0  0  0  0  0  0  0  0  0  0  0
  140.7420   80.5950  222.8630 C   0  0  0  0  0  0  0  0  0  0  0  0
  141.2690   79.4550  222.2520 C   0  0  0  0  0  0  0  0  0  0  0  0
  140.5110   78.2860  222.1880 C   0  0  0  0  0  0  0  0  0  0  0  0
  141.1650   77.1220  221.5130 C   0  0  0  0  0  0  0  0  0  0  0  0
  141.9190   74.3860  220.8830 N   0  0  0  0  0  0  0  0  0  0  0  0
  144.6790   73.9590  220.0500 C   0  0  0  0  0  0  0  0  0  0  0  0
  145.9890   73.1870  219.8510 C   0  0  0  0  0  0  0  0  0  0  0  0
  145.9340   72.6880  218.5520 O   0  0  0  0  0  0  0  0  0  0  0  0
  146.0948   68.1023  220.1083 H   0  0  0  0  0  0  0  0  0  0  0  0
  145.4194   67.5029  218.5555 H   0  0  0  0  0  0  0  0  0  0  0  0
  146.8794   68.5493  218.5555 H   0  0  0  0  0  0  0  0  0  0  0  0
  144.0285   69.2351  218.7140 H   0  0  0  0  0  0  0  0  0  0  0  0
  145.1111   70.0668  219.9354 H   0  0  0  0  0  0  0  0  0  0  0  0
  145.1460   70.2610  217.0210 H   0  0  0  0  0  0  0  0  0  0  0  0
  144.2857   72.2094  217.5547 H   0  0  0  0  0  0  0  0  0  0  0  0
  143.0029   71.2543  219.1126 H   0  0  0  0  0  0  0  0  0  0  0  0
  144.4145   70.9990  220.2440 H   0  0  0  0  0  0  0  0  0  0  0  0
  139.0163   70.7352  221.6273 H   0  0  0  0  0  0  0  0  0  0  0  0
  140.3134   69.6180  222.2167 H   0  0  0  0  0  0  0  0  0  0  0  0
  137.7347   70.3394  223.6930 H   0  0  0  0  0  0  0  0  0  0  0  0
  138.0847   68.7858  222.9130 H   0  0  0  0  0  0  0  0  0  0  0  0
  138.4967   67.2322  224.6748 H   0  0  0  0  0  0  0  0  0  0  0  0
  139.7933   66.5897  226.7093 H   0  0  0  0  0  0  0  0  0  0  0  0
  141.3018   68.2591  227.7500 H   0  0  0  0  0  0  0  0  0  0  0  0
  141.5304   70.5423  226.8006 H   0  0  0  0  0  0  0  0  0  0  0  0
  139.4780   72.1971  225.0171 H   0  0  0  0  0  0  0  0  0  0  0  0
  141.2463   71.9889  224.9376 H   0  0  0  0  0  0  0  0  0  0  0  0
  138.6064   76.8462  220.5145 H   0  0  0  0  0  0  0  0  0  0  0  0
  138.2688   75.2871  221.3011 H   0  0  0  0  0  0  0  0  0  0  0  0
  137.3421   77.2249  222.6126 H   0  0  0  0  0  0  0  0  0  0  0  0
  138.5696   76.3466  223.5500 H   0  0  0  0  0  0  0  0  0  0  0  0
  137.7143   79.3193  223.7484 H   0  0  0  0  0  0  0  0  0  0  0  0
  139.0331   81.3761  223.8712 H   0  0  0  0  0  0  0  0  0  0  0  0
  141.3163   81.5310  222.9264 H   0  0  0  0  0  0  0  0  0  0  0  0
  142.2810   79.4791  221.8216 H   0  0  0  0  0  0  0  0  0  0  0  0
  141.4213   77.3959  220.4789 H   0  0  0  0  0  0  0  0  0  0  0  0
  142.0792   76.8502  222.0610 H   0  0  0  0  0  0  0  0  0  0  0  0
  144.4722   74.6107  219.1883 H   0  0  0  0  0  0  0  0  0  0  0  0
  144.7021   74.6217  220.9276 H   0  0  0  0  0  0  0  0  0  0  0  0
  146.8524   73.8584  219.9685 H   0  0  0  0  0  0  0  0  0  0  0  0
  146.1049   72.3826  220.5923 H   0  0  0  0  0  0  0  0  0  0  0  0
  1  2  1  0
  2  3  1  0
  3  4  1  0
  4  5  1  0
  5  6  1  0
  6  7  1  0
  7  8  2  0
  8  9  1  0
  9 10  1  0
 10 11  1  0
 11 12  1  0
 12 13  1  0
 13 14  2  0
 14 15  1  0
 15 16  2  0
 16 17  1  0
 17 18  2  0
 18 19  1  0
  9 20  2  0
 20 21  1  0
 21 22  1  0
 22 23  1  0
 23 24  1  0
 24 25  1  0
 25 26  2  0
 26 27  1  0
 27 28  2  0
 28 29  1  0
 29 30  2  0
 30 31  1  0
 21 32  2  0
  6 33  1  0
 33 34  1  0
 34 35  1  0
 35  4  1  0
 32  7  1  0
 19 10  1  0
 31 22  1  0
 18 13  1  0
 30 25  1  0
  1 36  1  0
  1 37  1  0
  1 38  1  0
  2 39  1  0
  2 40  1  0
  3 41  1  0
  4 42  1  6
  5 43  1  0
  5 44  1  0
 11 45  1  0
 11 46  1  0
 12 47  1  0
 12 48  1  0
 14 49  1  0
 15 50  1  0
 16 51  1  0
 17 52  1  0
 19 53  1  0
 19 54  1  0
 23 55  1  0
 23 56  1  0
 24 57  1  0
 24 58  1  0
 26 59  1  0
 27 60  1  0
 28 61  1  0
 29 62  1  0
 31 63  1  0
 31 64  1  0
 33 65  1  0
 33 66  1  0
 34 67  1  0
 34 68  1  0
M  END
>  <smiles>  (76) 
CCNC1CN(c2nc(N3CCc4ccccc4C3)nc(N3CCc4ccccc4C3)n2)CCO1

>  <score_type>  (76) 
oracle

>  <origin>  (76) 
autodockgpu

>  <m_score__min__energy>  (76) 
-10.41

>  <m_primary>  (76) 
energy

>  <rmsd>  (76) 
9.028761045931379

>  <m_score__min__rmsd>  (76) 
9.028761045931379

>  <meeko>  (76) 
{"free_energy": -10.28, "intermolecular_energy": -11.77, "internal_energy": -1.01, "cluster_size": 49, "cluster_id": 1, "rank_in_cluster": 26}

>  <energy>  (76) 
-10.28

>  <cluster_rmsd>  (76) 
1.22

>  <cluster>  (76) 
1

$$$$

     RDKit          3D

 68 73  0  0  0  0  0  0  0  0999 V2000
  145.5600   67.8110  219.6560 C   0  0  0  0  0  0  0  0  0  0  0  0
  144.8340   69.0740  219.3320 C   0  0  0  0  0  0  0  0  0  0  0  0
  145.5820   69.9890  218.4910 N   0  0  0  0  0  0  0  0  0  0  0  0
  144.9390   71.2830  218.6210 C   0  0  1  0  0  0  0  0  0  0  0  0
  144.0370   71.3490  219.8220 C   0  0  0  0  0  0  0  0  0  0  0  0
  143.6890   72.6820  220.1990 N   0  0  0  0  0  0  0  0  0  0  0  0
  142.5290   73.0440  220.9350 C   0  0  0  0  0  0  0  0  0  0  0  0
  141.8890   72.1630  221.7240 N   0  0  0  0  0  0  0  0  0  0  0  0
  140.7780   72.4950  222.4340 C   0  0  0  0  0  0  0  0  0  0  0  0
  140.1380   71.5160  223.2590 N   0  0  0  0  0  0  0  0  0  0  0  0
  139.3300   70.4970  222.6100 C   0  0  0  0  0  0  0  0  0  0  0  0
  138.3180   69.8980  223.5700 C   0  0  0  0  0  0  0  0  0  0  0  0
  139.1070   69.3760  224.7440 C   0  0  0  0  0  0  0  0  0  0  0  0
  138.8640   68.1220  225.2550 C   0  0  0  0  0  0  0  0  0  0  0  0
  139.6050   67.6750  226.3300 C   0  0  0  0  0  0  0  0  0  0  0  0
  140.5700   68.5070  226.8580 C   0  0  0  0  0  0  0  0  0  0  0  0
  140.8060   69.7780  226.3290 C   0  0  0  0  0  0  0  0  0  0  0  0
  140.0620   70.2340  225.2460 C   0  0  0  0  0  0  0  0  0  0  0  0
  140.3210   71.5870  224.6940 C   0  0  0  0  0  0  0  0  0  0  0  0
  140.2990   73.7470  222.3470 N   0  0  0  0  0  0  0  0  0  0  0  0
  140.9180   74.6490  221.5660 C   0  0  0  0  0  0  0  0  0  0  0  0
  140.4500   75.9910  221.4380 N   0  0  0  0  0  0  0  0  0  0  0  0
  139.0330   76.3290  221.4890 C   0  0  0  0  0  0  0  0  0  0  0  0
  138.8260   77.1800  222.7230 C   0  0  0  0  0  0  0  0  0  0  0  0
  139.7240   78.3640  222.5860 C   0  0  0  0  0  0  0  0  0  0  0  0
  139.3630   79.5650  223.1510 C   0  0  0  0  0  0  0  0  0  0  0  0
  140.1790   80.6650  223.0350 C   0  0  0  0  0  0  0  0  0  0  0  0
  141.3790   80.6400  222.3620 C   0  0  0  0  0  0  0  0  0  0  0  0
  141.7570   79.4250  221.7850 C   0  0  0  0  0  0  0  0  0  0  0  0
  140.9280   78.3110  221.9050 C   0  0  0  0  0  0  0  0  0  0  0  0
  141.4220   77.0590  221.2510 C   0  0  0  0  0  0  0  0  0  0  0  0
  142.0230   74.2840  220.8710 N   0  0  0  0  0  0  0  0  0  0  0  0
  144.6070   73.7540  219.7890 C   0  0  0  0  0  0  0  0  0  0  0  0
  145.9640   73.0460  219.6910 C   0  0  0  0  0  0  0  0  0  0  0  0
  145.8920   72.2590  218.5450 O   0  0  0  0  0  0  0  0  0  0  0  0
  145.6262   67.6959  220.7480 H   0  0  0  0  0  0  0  0  0  0  0  0
  145.0158   66.9555  219.2294 H   0  0  0  0  0  0  0  0  0  0  0  0
  146.5731   67.8507  219.2294 H   0  0  0  0  0  0  0  0  0  0  0  0
  143.9005   68.8121  218.8123 H   0  0  0  0  0  0  0  0  0  0  0  0
  144.6586   69.5923  220.2863 H   0  0  0  0  0  0  0  0  0  0  0  0
  145.5820   69.6850  217.5070 H   0  0  0  0  0  0  0  0  0  0  0  0
  144.2463   71.4542  217.7838 H   0  0  0  0  0  0  0  0  0  0  0  0
  143.1122   70.7987  219.5939 H   0  0  0  0  0  0  0  0  0  0  0  0
  144.5875   70.9068  220.6655 H   0  0  0  0  0  0  0  0  0  0  0  0
  138.7947   70.9506  221.7628 H   0  0  0  0  0  0  0  0  0  0  0  0
  139.9975   69.6937  222.2650 H   0  0  0  0  0  0  0  0  0  0  0  0
  137.6056   70.6677  223.9017 H   0  0  0  0  0  0  0  0  0  0  0  0
  137.7370   69.0966  223.0902 H   0  0  0  0  0  0  0  0  0  0  0  0
  138.0870   67.4822  224.8113 H   0  0  0  0  0  0  0  0  0  0  0  0
  139.4297   66.6764  226.7567 H   0  0  0  0  0  0  0  0  0  0  0  0
  141.1672   68.1619  227.7149 H   0  0  0  0  0  0  0  0  0  0  0  0
  141.5825   70.4201  226.7702 H   0  0  0  0  0  0  0  0  0  0  0  0
  139.6146   72.3105  225.1270 H   0  0  0  0  0  0  0  0  0  0  0  0
  141.3422   71.9151  224.9378 H   0  0  0  0  0  0  0  0  0  0  0  0
  138.7463   76.8926  220.5889 H   0  0  0  0  0  0  0  0  0  0  0  0
  138.4137   75.4208  221.5297 H   0  0  0  0  0  0  0  0  0  0  0  0
  137.7772   77.5056  222.7869 H   0  0  0  0  0  0  0  0  0  0  0  0
  139.0572   76.6130  223.6368 H   0  0  0  0  0  0  0  0  0  0  0  0
  138.4134   79.6458  223.7002 H   0  0  0  0  0  0  0  0  0  0  0  0
  139.8582   81.6082  223.5014 H   0  0  0  0  0  0  0  0  0  0  0  0
  142.0120   81.5360  222.2819 H   0  0  0  0  0  0  0  0  0  0  0  0
  142.7075   79.3477  221.2368 H   0  0  0  0  0  0  0  0  0  0  0  0
  141.5640   77.2399  220.1753 H   0  0  0  0  0  0  0  0  0  0  0  0
  142.3792   76.7640  221.7056 H   0  0  0  0  0  0  0  0  0  0  0  0
  144.3115   74.1739  218.8162 H   0  0  0  0  0  0  0  0  0  0  0  0
  144.6159   74.6016  220.4900 H   0  0  0  0  0  0  0  0  0  0  0  0
  146.7761   73.7825  219.6010 H   0  0  0  0  0  0  0  0  0  0  0  0
  146.1751   72.4435  220.5867 H   0  0  0  0  0  0  0  0  0  0  0  0
  1  2  1  0
  2  3  1  0
  3  4  1  0
  4  5  1  0
  5  6  1  0
  6  7  1  0
  7  8  2  0
  8  9  1  0
  9 10  1  0
 10 11  1  0
 11 12  1  0
 12 13  1  0
 13 14  2  0
 14 15  1  0
 15 16  2  0
 16 17  1  0
 17 18  2  0
 18 19  1  0
  9 20  2  0
 20 21  1  0
 21 22  1  0
 22 23  1  0
 23 24  1  0
 24 25  1  0
 25 26  2  0
 26 27  1  0
 27 28  2  0
 28 29  1  0
 29 30  2  0
 30 31  1  0
 21 32  2  0
  6 33  1  0
 33 34  1  0
 34 35  1  0
 35  4  1  0
 32  7  1  0
 19 10  1  0
 31 22  1  0
 18 13  1  0
 30 25  1  0
  1 36  1  0
  1 37  1  0
  1 38  1  0
  2 39  1  0
  2 40  1  0
  3 41  1  0
  4 42  1  6
  5 43  1  0
  5 44  1  0
 11 45  1  0
 11 46  1  0
 12 47  1  0
 12 48  1  0
 14 49  1  0
 15 50  1  0
 16 51  1  0
 17 52  1  0
 19 53  1  0
 19 54  1  0
 23 55  1  0
 23 56  1  0
 24 57  1  0
 24 58  1  0
 26 59  1  0
 27 60  1  0
 28 61  1  0
 29 62  1  0
 31 63  1  0
 31 64  1  0
 33 65  1  0
 33 66  1  0
 34 67  1  0
 34 68  1  0
M  END
>  <smiles>  (77) 
CCNC1CN(c2nc(N3CCc4ccccc4C3)nc(N3CCc4ccccc4C3)n2)CCO1

>  <score_type>  (77) 
oracle

>  <origin>  (77) 
autodockgpu

>  <m_score__min__energy>  (77) 
-10.41

>  <m_primary>  (77) 
energy

>  <rmsd>  (77) 
9.203028649065752

>  <m_score__min__rmsd>  (77) 
9.203028649065752

>  <meeko>  (77) 
{"free_energy": -10.26, "intermolecular_energy": -11.76, "internal_energy": -1.0, "cluster_size": 49, "cluster_id": 1, "rank_in_cluster": 35}

>  <energy>  (77) 
-10.28

>  <cluster_rmsd>  (77) 
1.21

>  <cluster>  (77) 
1

$$$$

     RDKit          3D

 68 73  0  0  0  0  0  0  0  0999 V2000
  144.6310   74.1730  215.9280 C   0  0  0  0  0  0  0  0  0  0  0  0
  145.1950   73.0200  216.6890 C   0  0  0  0  0  0  0  0  0  0  0  0
  145.9910   73.4030  217.8400 N   0  0  0  0  0  0  0  0  0  0  0  0
  145.4210   72.7090  218.9800 C   0  0  1  0  0  0  0  0  0  0  0  0
  144.0330   73.1900  219.3000 C   0  0  0  0  0  0  0  0  0  0  0  0
  143.3040   72.3000  220.1460 N   0  0  0  0  0  0  0  0  0  0  0  0
  142.2190   72.6760  220.9830 C   0  0  0  0  0  0  0  0  0  0  0  0
  141.6800   71.8210  221.8690 N   0  0  0  0  0  0  0  0  0  0  0  0
  140.6420   72.1670  222.6760 C   0  0  0  0  0  0  0  0  0  0  0  0
  140.1080   71.2150  223.6020 N   0  0  0  0  0  0  0  0  0  0  0  0
  139.4840   70.0160  223.0670 C   0  0  0  0  0  0  0  0  0  0  0  0
  138.5230   69.3990  224.0660 C   0  0  0  0  0  0  0  0  0  0  0  0
  139.3210   69.1480  225.3210 C   0  0  0  0  0  0  0  0  0  0  0  0
  139.2340   67.9440  225.9820 C   0  0  0  0  0  0  0  0  0  0  0  0
  139.9790   67.7470  227.1270 C   0  0  0  0  0  0  0  0  0  0  0  0
  140.7900   68.7700  227.5710 C   0  0  0  0  0  0  0  0  0  0  0  0
  140.8690   69.9860  226.8890 C   0  0  0  0  0  0  0  0  0  0  0  0
  140.1210   70.1910  225.7350 C   0  0  0  0  0  0  0  0  0  0  0  0
  140.2120   71.4880  225.0200 C   0  0  0  0  0  0  0  0  0  0  0  0
  140.1340   73.4070  222.5880 N   0  0  0  0  0  0  0  0  0  0  0  0
  140.6530   74.2840  221.7120 C   0  0  0  0  0  0  0  0  0  0  0  0
  140.1490   75.6130  221.5790 N   0  0  0  0  0  0  0  0  0  0  0  0
  138.7240   75.8980  221.4850 C   0  0  0  0  0  0  0  0  0  0  0  0
  138.3500   76.6950  222.7160 C   0  0  0  0  0  0  0  0  0  0  0  0
  139.2110   77.9130  222.7200 C   0  0  0  0  0  0  0  0  0  0  0  0
  138.7440   79.0780  223.2820 C   0  0  0  0  0  0  0  0  0  0  0  0
  139.5250   80.2100  223.2950 C   0  0  0  0  0  0  0  0  0  0  0  0
  140.7910   80.2530  222.7580 C   0  0  0  0  0  0  0  0  0  0  0  0
  141.2760   79.0750  222.1850 C   0  0  0  0  0  0  0  0  0  0  0  0
  140.4830   77.9280  222.1750 C   0  0  0  0  0  0  0  0  0  0  0  0
  141.0940   76.7200  221.5370 C   0  0  0  0  0  0  0  0  0  0  0  0
  141.6880   73.9060  220.9220 N   0  0  0  0  0  0  0  0  0  0  0  0
  143.7150   70.8880  220.1440 C   0  0  0  0  0  0  0  0  0  0  0  0
  144.3260   70.6950  218.7510 C   0  0  0  0  0  0  0  0  0  0  0  0
  145.5480   71.3620  218.7840 O   0  0  0  0  0  0  0  0  0  0  0  0
  144.2600   74.9314  216.6331 H   0  0  0  0  0  0  0  0  0  0  0  0
  145.4154   74.6134  215.2950 H   0  0  0  0  0  0  0  0  0  0  0  0
  143.8018   73.8241  215.2950 H   0  0  0  0  0  0  0  0  0  0  0  0
  144.3600   72.3952  217.0388 H   0  0  0  0  0  0  0  0  0  0  0  0
  145.8671   72.4847  216.0022 H   0  0  0  0  0  0  0  0  0  0  0  0
  145.9690   74.4220  217.9930 H   0  0  0  0  0  0  0  0  0  0  0  0
  145.9808   72.9484  219.8961 H   0  0  0  0  0  0  0  0  0  0  0  0
  144.1096   74.1650  219.8035 H   0  0  0  0  0  0  0  0  0  0  0  0
  143.4849   73.2546  218.3485 H   0  0  0  0  0  0  0  0  0  0  0  0
  138.9308   70.2779  222.1530 H   0  0  0  0  0  0  0  0  0  0  0  0
  140.2742   69.2826  222.8485 H   0  0  0  0  0  0  0  0  0  0  0  0
  137.6935   70.0909  224.2740 H   0  0  0  0  0  0  0  0  0  0  0  0
  138.0854   68.4676  223.6773 H   0  0  0  0  0  0  0  0  0  0  0  0
  138.5777   67.1473  225.6018 H   0  0  0  0  0  0  0  0  0  0  0  0
  139.9269   66.7940  227.6739 H   0  0  0  0  0  0  0  0  0  0  0  0
  141.3881   68.6250  228.4828 H   0  0  0  0  0  0  0  0  0  0  0  0
  141.5252   70.7843  227.2660 H   0  0  0  0  0  0  0  0  0  0  0  0
  139.3912   72.1487  225.3359 H   0  0  0  0  0  0  0  0  0  0  0  0
  141.1646   71.9885  225.2480 H   0  0  0  0  0  0  0  0  0  0  0  0
  138.5150   76.4839  220.5778 H   0  0  0  0  0  0  0  0  0  0  0  0
  138.1405   74.9673  221.4277 H   0  0  0  0  0  0  0  0  0  0  0  0
  137.2889   76.9817  222.6734 H   0  0  0  0  0  0  0  0  0  0  0  0
  138.5010   76.1024  223.6303 H   0  0  0  0  0  0  0  0  0  0  0  0
  137.7374   79.1047  223.7248 H   0  0  0  0  0  0  0  0  0  0  0  0
  139.1190   81.1226  223.7557 H   0  0  0  0  0  0  0  0  0  0  0  0
  141.3937   81.1730  222.7789 H   0  0  0  0  0  0  0  0  0  0  0  0
  142.2826   79.0522  221.7420 H   0  0  0  0  0  0  0  0  0  0  0  0
  141.3455   76.9468  220.4904 H   0  0  0  0  0  0  0  0  0  0  0  0
  142.0069   76.4412  222.0837 H   0  0  0  0  0  0  0  0  0  0  0  0
  144.4595   70.6941  220.9302 H   0  0  0  0  0  0  0  0  0  0  0  0
  142.8816   70.1989  220.3455 H   0  0  0  0  0  0  0  0  0  0  0  0
  144.4775   69.6256  218.5427 H   0  0  0  0  0  0  0  0  0  0  0  0
  143.6693   71.0862  217.9600 H   0  0  0  0  0  0  0  0  0  0  0  0
  1  2  1  0
  2  3  1  0
  3  4  1  0
  4  5  1  0
  5  6  1  0
  6  7  1  0
  7  8  2  0
  8  9  1  0
  9 10  1  0
 10 11  1  0
 11 12  1  0
 12 13  1  0
 13 14  2  0
 14 15  1  0
 15 16  2  0
 16 17  1  0
 17 18  2  0
 18 19  1  0
  9 20  2  0
 20 21  1  0
 21 22  1  0
 22 23  1  0
 23 24  1  0
 24 25  1  0
 25 26  2  0
 26 27  1  0
 27 28  2  0
 28 29  1  0
 29 30  2  0
 30 31  1  0
 21 32  2  0
  6 33  1  0
 33 34  1  0
 34 35  1  0
 35  4  1  0
 32  7  1  0
 19 10  1  0
 31 22  1  0
 18 13  1  0
 30 25  1  0
  1 36  1  0
  1 37  1  0
  1 38  1  0
  2 39  1  0
  2 40  1  0
  3 41  1  0
  4 42  1  1
  5 43  1  0
  5 44  1  0
 11 45  1  0
 11 46  1  0
 12 47  1  0
 12 48  1  0
 14 49  1  0
 15 50  1  0
 16 51  1  0
 17 52  1  0
 19 53  1  0
 19 54  1  0
 23 55  1  0
 23 56  1  0
 24 57  1  0
 24 58  1  0
 26 59  1  0
 27 60  1  0
 28 61  1  0
 29 62  1  0
 31 63  1  0
 31 64  1  0
 33 65  1  0
 33 66  1  0
 34 67  1  0
 34 68  1  0
M  END
>  <smiles>  (78) 
CCNC1CN(c2nc(N3CCc4ccccc4C3)nc(N3CCc4ccccc4C3)n2)CCO1

>  <score_type>  (78) 
oracle

>  <origin>  (78) 
autodockgpu

>  <m_score__min__energy>  (78) 
-10.41

>  <m_primary>  (78) 
energy

>  <rmsd>  (78) 
7.40771182998176

>  <m_score__min__rmsd>  (78) 
7.40771182998176

>  <meeko>  (78) 
{"free_energy": -10.31, "intermolecular_energy": -11.8, "internal_energy": -0.97, "cluster_size": 49, "cluster_id": 1, "rank_in_cluster": 17}

>  <energy>  (78) 
-10.28

>  <cluster_rmsd>  (78) 
1.2

>  <cluster>  (78) 
1

$$$$

     RDKit          3D

 68 73  0  0  0  0  0  0  0  0999 V2000
  145.7120   67.9390  219.3730 C   0  0  0  0  0  0  0  0  0  0  0  0
  145.0170   69.2550  219.2600 C   0  0  0  0  0  0  0  0  0  0  0  0
  145.7700   70.2630  218.5390 N   0  0  0  0  0  0  0  0  0  0  0  0
  145.0060   71.4920  218.6380 C   0  0  1  0  0  0  0  0  0  0  0  0
  144.1140   71.5090  219.8480 C   0  0  0  0  0  0  0  0  0  0  0  0
  143.6420   72.8130  220.1890 N   0  0  0  0  0  0  0  0  0  0  0  0
  142.4600   73.0840  220.9290 C   0  0  0  0  0  0  0  0  0  0  0  0
  141.8770   72.1480  221.6980 N   0  0  0  0  0  0  0  0  0  0  0  0
  140.7450   72.3940  222.4110 C   0  0  0  0  0  0  0  0  0  0  0  0
  140.1680   71.3590  223.2130 N   0  0  0  0  0  0  0  0  0  0  0  0
  139.5790   70.2160  222.5350 C   0  0  0  0  0  0  0  0  0  0  0  0
  138.5690   69.5070  223.4200 C   0  0  0  0  0  0  0  0  0  0  0  0
  139.3000   69.1390  224.6860 C   0  0  0  0  0  0  0  0  0  0  0  0
  139.1840   67.8790  225.2260 C   0  0  0  0  0  0  0  0  0  0  0  0
  139.8670   67.5750  226.3850 C   0  0  0  0  0  0  0  0  0  0  0  0
  140.6490   68.5520  226.9660 C   0  0  0  0  0  0  0  0  0  0  0  0
  140.7580   69.8260  226.4060 C   0  0  0  0  0  0  0  0  0  0  0  0
  140.0710   70.1390  225.2380 C   0  0  0  0  0  0  0  0  0  0  0  0
  140.1940   71.4980  224.6540 C   0  0  0  0  0  0  0  0  0  0  0  0
  140.1870   73.6140  222.3480 N   0  0  0  0  0  0  0  0  0  0  0  0
  140.7490   74.5700  221.5880 C   0  0  0  0  0  0  0  0  0  0  0  0
  140.1960   75.8810  221.4870 N   0  0  0  0  0  0  0  0  0  0  0  0
  138.7630   76.1140  221.3660 C   0  0  0  0  0  0  0  0  0  0  0  0
  138.3280   76.8520  222.6130 C   0  0  0  0  0  0  0  0  0  0  0  0
  139.1390   78.1030  222.6790 C   0  0  0  0  0  0  0  0  0  0  0  0
  138.6120   79.2290  223.2680 C   0  0  0  0  0  0  0  0  0  0  0  0
  139.3460   80.3890  223.3380 C   0  0  0  0  0  0  0  0  0  0  0  0
  140.6220   80.5000  222.8360 C   0  0  0  0  0  0  0  0  0  0  0  0
  141.1680   79.3620  222.2360 C   0  0  0  0  0  0  0  0  0  0  0  0
  140.4220   78.1870  222.1670 C   0  0  0  0  0  0  0  0  0  0  0  0
  141.0960   77.0260  221.5060 C   0  0  0  0  0  0  0  0  0  0  0  0
  141.8770   74.2910  220.8890 N   0  0  0  0  0  0  0  0  0  0  0  0
  144.4490   73.9550  219.7360 C   0  0  0  0  0  0  0  0  0  0  0  0
  145.8670   73.3780  219.6420 C   0  0  0  0  0  0  0  0  0  0  0  0
  145.8600   72.5520  218.5200 O   0  0  0  0  0  0  0  0  0  0  0  0
  145.8461   67.6851  220.4349 H   0  0  0  0  0  0  0  0  0  0  0  0
  145.1069   67.1616  218.8837 H   0  0  0  0  0  0  0  0  0  0  0  0
  146.6953   68.0004  218.8837 H   0  0  0  0  0  0  0  0  0  0  0  0
  144.0622   69.0975  218.7370 H   0  0  0  0  0  0  0  0  0  0  0  0
  144.8834   69.6319  220.2848 H   0  0  0  0  0  0  0  0  0  0  0  0
  145.9030   70.0010  217.5510 H   0  0  0  0  0  0  0  0  0  0  0  0
  144.2911   71.5690  217.8055 H   0  0  0  0  0  0  0  0  0  0  0  0
  143.2447   70.8650  219.6489 H   0  0  0  0  0  0  0  0  0  0  0  0
  144.7135   71.1494  220.6973 H   0  0  0  0  0  0  0  0  0  0  0  0
  139.0733   70.5631  221.6218 H   0  0  0  0  0  0  0  0  0  0  0  0
  140.3831   69.5065  222.2902 H   0  0  0  0  0  0  0  0  0  0  0  0
  137.7262   70.1762  223.6477 H   0  0  0  0  0  0  0  0  0  0  0  0
  138.1576   68.6162  222.9227 H   0  0  0  0  0  0  0  0  0  0  0  0
  138.5528   67.1216  224.7383 H   0  0  0  0  0  0  0  0  0  0  0  0
  139.7899   66.5749  226.8365 H   0  0  0  0  0  0  0  0  0  0  0  0
  141.1986   68.3220  227.8907 H   0  0  0  0  0  0  0  0  0  0  0  0
  141.3896   70.5852  226.8904 H   0  0  0  0  0  0  0  0  0  0  0  0
  139.3541   72.1262  224.9855 H   0  0  0  0  0  0  0  0  0  0  0  0
  141.1302   71.9751  224.9794 H   0  0  0  0  0  0  0  0  0  0  0  0
  138.5532   76.7228  220.4742 H   0  0  0  0  0  0  0  0  0  0  0  0
  138.2182   75.1640  221.2619 H   0  0  0  0  0  0  0  0  0  0  0  0
  137.2574   77.0975  222.5536 H   0  0  0  0  0  0  0  0  0  0  0  0
  138.4811   76.2347  223.5105 H   0  0  0  0  0  0  0  0  0  0  0  0
  137.5950   79.2008  223.6863 H   0  0  0  0  0  0  0  0  0  0  0  0
  138.8923   81.2690  223.8174 H   0  0  0  0  0  0  0  0  0  0  0  0
  141.1868   81.4415  222.9038 H   0  0  0  0  0  0  0  0  0  0  0  0
  142.1853   79.3938  221.8187 H   0  0  0  0  0  0  0  0  0  0  0  0
  141.3637   77.2977  220.4742 H   0  0  0  0  0  0  0  0  0  0  0  0
  142.0053   76.7651  222.0673 H   0  0  0  0  0  0  0  0  0  0  0  0
  144.1052   74.3146  218.7549 H   0  0  0  0  0  0  0  0  0  0  0  0
  144.3830   74.8205  220.4117 H   0  0  0  0  0  0  0  0  0  0  0  0
  146.6033   74.1860  219.5198 H   0  0  0  0  0  0  0  0  0  0  0  0
  146.1440   72.8265  220.5526 H   0  0  0  0  0  0  0  0  0  0  0  0
  1  2  1  0
  2  3  1  0
  3  4  1  0
  4  5  1  0
  5  6  1  0
  6  7  1  0
  7  8  2  0
  8  9  1  0
  9 10  1  0
 10 11  1  0
 11 12  1  0
 12 13  1  0
 13 14  2  0
 14 15  1  0
 15 16  2  0
 16 17  1  0
 17 18  2  0
 18 19  1  0
  9 20  2  0
 20 21  1  0
 21 22  1  0
 22 23  1  0
 23 24  1  0
 24 25  1  0
 25 26  2  0
 26 27  1  0
 27 28  2  0
 28 29  1  0
 29 30  2  0
 30 31  1  0
 21 32  2  0
  6 33  1  0
 33 34  1  0
 34 35  1  0
 35  4  1  0
 32  7  1  0
 19 10  1  0
 31 22  1  0
 18 13  1  0
 30 25  1  0
  1 36  1  0
  1 37  1  0
  1 38  1  0
  2 39  1  0
  2 40  1  0
  3 41  1  0
  4 42  1  6
  5 43  1  0
  5 44  1  0
 11 45  1  0
 11 46  1  0
 12 47  1  0
 12 48  1  0
 14 49  1  0
 15 50  1  0
 16 51  1  0
 17 52  1  0
 19 53  1  0
 19 54  1  0
 23 55  1  0
 23 56  1  0
 24 57  1  0
 24 58  1  0
 26 59  1  0
 27 60  1  0
 28 61  1  0
 29 62  1  0
 31 63  1  0
 31 64  1  0
 33 65  1  0
 33 66  1  0
 34 67  1  0
 34 68  1  0
M  END
>  <smiles>  (79) 
CCNC1CN(c2nc(N3CCc4ccccc4C3)nc(N3CCc4ccccc4C3)n2)CCO1

>  <score_type>  (79) 
oracle

>  <origin>  (79) 
autodockgpu

>  <m_score__min__energy>  (79) 
-10.41

>  <m_primary>  (79) 
energy

>  <rmsd>  (79) 
9.107206761673748

>  <m_score__min__rmsd>  (79) 
9.107206761673748

>  <meeko>  (79) 
{"free_energy": -10.29, "intermolecular_energy": -11.78, "internal_energy": -0.99, "cluster_size": 49, "cluster_id": 1, "rank_in_cluster": 22}

>  <energy>  (79) 
-10.28

>  <cluster_rmsd>  (79) 
1.23

>  <cluster>  (79) 
1

$$$$

     RDKit          3D

 68 73  0  0  0  0  0  0  0  0999 V2000
  146.3290   69.5730  218.9790 C   0  0  0  0  0  0  0  0  0  0  0  0
  145.1930   70.1840  218.2280 C   0  0  0  0  0  0  0  0  0  0  0  0
  145.5590   71.3460  217.4400 N   0  0  0  0  0  0  0  0  0  0  0  0
  145.1910   72.5070  218.2280 C   0  0  1  0  0  0  0  0  0  0  0  0
  144.0500   72.2180  219.1630 C   0  0  0  0  0  0  0  0  0  0  0  0
  143.9060   73.1880  220.2020 N   0  0  0  0  0  0  0  0  0  0  0  0
  142.7010   73.4570  220.9040 C   0  0  0  0  0  0  0  0  0  0  0  0
  142.0610   72.5030  221.6020 N   0  0  0  0  0  0  0  0  0  0  0  0
  140.9070   72.7450  222.2780 C   0  0  0  0  0  0  0  0  0  0  0  0
  140.2680   71.6900  223.0050 N   0  0  0  0  0  0  0  0  0  0  0  0
  139.5900   70.6520  222.2480 C   0  0  0  0  0  0  0  0  0  0  0  0
  138.5450   69.9440  223.0920 C   0  0  0  0  0  0  0  0  0  0  0  0
  139.2670   69.4220  224.3090 C   0  0  0  0  0  0  0  0  0  0  0  0
  139.0690   68.1330  224.7460 C   0  0  0  0  0  0  0  0  0  0  0  0
  139.7460   67.6870  225.8620 C   0  0  0  0  0  0  0  0  0  0  0  0
  140.6040   68.5540  226.5040 C   0  0  0  0  0  0  0  0  0  0  0  0
  140.7950   69.8610  226.0490 C   0  0  0  0  0  0  0  0  0  0  0  0
  140.1160   70.3160  224.9250 C   0  0  0  0  0  0  0  0  0  0  0  0
  140.3260   71.7070  224.4520 C   0  0  0  0  0  0  0  0  0  0  0  0
  140.3840   73.9830  222.2510 N   0  0  0  0  0  0  0  0  0  0  0  0
  141.0020   74.9570  221.5630 C   0  0  0  0  0  0  0  0  0  0  0  0
  140.4880   76.2870  221.5020 N   0  0  0  0  0  0  0  0  0  0  0  0
  139.0590   76.5670  221.4390 C   0  0  0  0  0  0  0  0  0  0  0  0
  138.6950   77.2980  222.7130 C   0  0  0  0  0  0  0  0  0  0  0  0
  139.5480   78.5210  222.7670 C   0  0  0  0  0  0  0  0  0  0  0  0
  139.0800   79.6530  223.3920 C   0  0  0  0  0  0  0  0  0  0  0  0
  139.8530   80.7890  223.4520 C   0  0  0  0  0  0  0  0  0  0  0  0
  141.1120   80.8680  222.9040 C   0  0  0  0  0  0  0  0  0  0  0  0
  141.5980   79.7230  222.2670 C   0  0  0  0  0  0  0  0  0  0  0  0
  140.8130   78.5730  222.2080 C   0  0  0  0  0  0  0  0  0  0  0  0
  141.4240   77.4020  221.5050 C   0  0  0  0  0  0  0  0  0  0  0  0
  142.1510   74.6800  220.8990 N   0  0  0  0  0  0  0  0  0  0  0  0
  145.1020   73.9620  220.5640 C   0  0  0  0  0  0  0  0  0  0  0  0
  146.2600   73.0240  220.2020 C   0  0  0  0  0  0  0  0  0  0  0  0
  146.3160   73.0200  218.8100 O   0  0  0  0  0  0  0  0  0  0  0  0
  146.1485   69.6701  220.0597 H   0  0  0  0  0  0  0  0  0  0  0  0
  146.4124   68.5083  218.7154 H   0  0  0  0  0  0  0  0  0  0  0  0
  147.2633   70.0903  218.7154 H   0  0  0  0  0  0  0  0  0  0  0  0
  144.7788   69.4235  217.5497 H   0  0  0  0  0  0  0  0  0  0  0  0
  144.4653   70.5267  218.9783 H   0  0  0  0  0  0  0  0  0  0  0  0
  145.0700   71.3570  216.5330 H   0  0  0  0  0  0  0  0  0  0  0  0
  144.7836   73.2980  217.5812 H   0  0  0  0  0  0  0  0  0  0  0  0
  143.1185   72.1928  218.5785 H   0  0  0  0  0  0  0  0  0  0  0  0
  144.2643   71.2539  219.6473 H   0  0  0  0  0  0  0  0  0  0  0  0
  139.0973   71.1083  221.3768 H   0  0  0  0  0  0  0  0  0  0  0  0
  140.3380   69.9110  221.9296 H   0  0  0  0  0  0  0  0  0  0  0  0
  137.7552   70.6489  223.3908 H   0  0  0  0  0  0  0  0  0  0  0  0
  138.0640   69.1286  222.5319 H   0  0  0  0  0  0  0  0  0  0  0  0
  138.3780   67.4648  224.2112 H   0  0  0  0  0  0  0  0  0  0  0  0
  139.6041   66.6608  226.2319 H   0  0  0  0  0  0  0  0  0  0  0  0
  141.1504   68.2092  227.3943 H   0  0  0  0  0  0  0  0  0  0  0  0
  141.4848   70.5319  226.5819 H   0  0  0  0  0  0  0  0  0  0  0  0
  139.5379   72.3622  224.8515 H   0  0  0  0  0  0  0  0  0  0  0  0
  141.2984   72.0896  224.7956 H   0  0  0  0  0  0  0  0  0  0  0  0
  138.8356   77.1966  220.5651 H   0  0  0  0  0  0  0  0  0  0  0  0
  138.4805   75.6365  221.3412 H   0  0  0  0  0  0  0  0  0  0  0  0
  137.6315   77.5784  222.6980 H   0  0  0  0  0  0  0  0  0  0  0  0
  138.8614   76.6615  223.5946 H   0  0  0  0  0  0  0  0  0  0  0  0
  138.0789   79.6499  223.8478 H   0  0  0  0  0  0  0  0  0  0  0  0
  139.4457   81.6748  223.9615 H   0  0  0  0  0  0  0  0  0  0  0  0
  141.7089   81.7900  222.9644 H   0  0  0  0  0  0  0  0  0  0  0  0
  142.5997   79.7294  221.8124 H   0  0  0  0  0  0  0  0  0  0  0  0
  141.6623   77.6818  220.4682 H   0  0  0  0  0  0  0  0  0  0  0  0
  142.3442   77.1031  222.0284 H   0  0  0  0  0  0  0  0  0  0  0  0
  145.1564   74.8953  219.9844 H   0  0  0  0  0  0  0  0  0  0  0  0
  145.1116   74.2655  221.6212 H   0  0  0  0  0  0  0  0  0  0  0  0
  147.2043   73.3990  220.6234 H   0  0  0  0  0  0  0  0  0  0  0  0
  146.1071   72.0126  220.6067 H   0  0  0  0  0  0  0  0  0  0  0  0
  1  2  1  0
  2  3  1  0
  3  4  1  0
  4  5  1  0
  5  6  1  0
  6  7  1  0
  7  8  2  0
  8  9  1  0
  9 10  1  0
 10 11  1  0
 11 12  1  0
 12 13  1  0
 13 14  2  0
 14 15  1  0
 15 16  2  0
 16 17  1  0
 17 18  2  0
 18 19  1  0
  9 20  2  0
 20 21  1  0
 21 22  1  0
 22 23  1  0
 23 24  1  0
 24 25  1  0
 25 26  2  0
 26 27  1  0
 27 28  2  0
 28 29  1  0
 29 30  2  0
 30 31  1  0
 21 32  2  0
  6 33  1  0
 33 34  1  0
 34 35  1  0
 35  4  1  0
 32  7  1  0
 19 10  1  0
 31 22  1  0
 18 13  1  0
 30 25  1  0
  1 36  1  0
  1 37  1  0
  1 38  1  0
  2 39  1  0
  2 40  1  0
  3 41  1  0
  4 42  1  6
  5 43  1  0
  5 44  1  0
 11 45  1  0
 11 46  1  0
 12 47  1  0
 12 48  1  0
 14 49  1  0
 15 50  1  0
 16 51  1  0
 17 52  1  0
 19 53  1  0
 19 54  1  0
 23 55  1  0
 23 56  1  0
 24 57  1  0
 24 58  1  0
 26 59  1  0
 27 60  1  0
 28 61  1  0
 29 62  1  0
 31 63  1  0
 31 64  1  0
 33 65  1  0
 33 66  1  0
 34 67  1  0
 34 68  1  0
M  END
>  <smiles>  (80) 
CCNC1CN(c2nc(N3CCc4ccccc4C3)nc(N3CCc4ccccc4C3)n2)CCO1

>  <score_type>  (80) 
oracle

>  <origin>  (80) 
autodockgpu

>  <m_score__min__energy>  (80) 
-10.41

>  <m_primary>  (80) 
energy

>  <rmsd>  (80) 
8.741585657126407

>  <m_score__min__rmsd>  (80) 
8.741585657126407

>  <meeko>  (80) 
{"free_energy": -10.07, "intermolecular_energy": -11.56, "internal_energy": -1.03, "cluster_size": 49, "cluster_id": 1, "rank_in_cluster": 45}

>  <energy>  (80) 
-10.28

>  <cluster_rmsd>  (80) 
1.22

>  <cluster>  (80) 
1

$$$$

     RDKit          3D

 68 73  0  0  0  0  0  0  0  0999 V2000
  145.9590   68.4000  219.2940 C   0  0  0  0  0  0  0  0  0  0  0  0
  144.9590   69.4480  218.9380 C   0  0  0  0  0  0  0  0  0  0  0  0
  145.4440   70.4330  217.9890 N   0  0  0  0  0  0  0  0  0  0  0  0
  144.8750   71.7040  218.3930 C   0  0  1  0  0  0  0  0  0  0  0  0
  143.9030   71.5550  219.5300 C   0  0  0  0  0  0  0  0  0  0  0  0
  143.6140   72.7840  220.1980 N   0  0  0  0  0  0  0  0  0  0  0  0
  142.4340   73.0490  220.9420 C   0  0  0  0  0  0  0  0  0  0  0  0
  141.8580   72.1110  221.7130 N   0  0  0  0  0  0  0  0  0  0  0  0
  140.7280   72.3500  222.4300 C   0  0  0  0  0  0  0  0  0  0  0  0
  140.1590   71.3120  223.2350 N   0  0  0  0  0  0  0  0  0  0  0  0
  139.5650   70.1710  222.5590 C   0  0  0  0  0  0  0  0  0  0  0  0
  138.5640   69.4580  223.4500 C   0  0  0  0  0  0  0  0  0  0  0  0
  139.3060   69.0880  224.7090 C   0  0  0  0  0  0  0  0  0  0  0  0
  139.1960   67.8260  225.2470 C   0  0  0  0  0  0  0  0  0  0  0  0
  139.8900   67.5200  226.3990 C   0  0  0  0  0  0  0  0  0  0  0  0
  140.6760   68.4960  226.9750 C   0  0  0  0  0  0  0  0  0  0  0  0
  140.7780   69.7720  226.4180 C   0  0  0  0  0  0  0  0  0  0  0  0
  140.0810   70.0870  225.2570 C   0  0  0  0  0  0  0  0  0  0  0  0
  140.1970   71.4470  224.6760 C   0  0  0  0  0  0  0  0  0  0  0  0
  140.1640   73.5680  222.3700 N   0  0  0  0  0  0  0  0  0  0  0  0
  140.7180   74.5260  221.6080 C   0  0  0  0  0  0  0  0  0  0  0  0
  140.1580   75.8350  221.5090 N   0  0  0  0  0  0  0  0  0  0  0  0
  138.7230   76.0610  221.3900 C   0  0  0  0  0  0  0  0  0  0  0  0
  138.2870   76.7950  222.6390 C   0  0  0  0  0  0  0  0  0  0  0  0
  139.0920   78.0500  222.7050 C   0  0  0  0  0  0  0  0  0  0  0  0
  138.5600   79.1730  223.2960 C   0  0  0  0  0  0  0  0  0  0  0  0
  139.2880   80.3370  223.3660 C   0  0  0  0  0  0  0  0  0  0  0  0
  140.5630   80.4550  222.8620 C   0  0  0  0  0  0  0  0  0  0  0  0
  141.1130   79.3200  222.2600 C   0  0  0  0  0  0  0  0  0  0  0  0
  140.3730   78.1410  222.1910 C   0  0  0  0  0  0  0  0  0  0  0  0
  141.0520   76.9840  221.5280 C   0  0  0  0  0  0  0  0  0  0  0  0
  141.8440   74.2530  220.9050 N   0  0  0  0  0  0  0  0  0  0  0  0
  144.6220   73.8490  220.1010 C   0  0  0  0  0  0  0  0  0  0  0  0
  145.9360   73.0840  219.9030 C   0  0  0  0  0  0  0  0  0  0  0  0
  145.8910   72.5960  218.5990 O   0  0  0  0  0  0  0  0  0  0  0  0
  146.0339   68.3215  220.3886 H   0  0  0  0  0  0  0  0  0  0  0  0
  145.6405   67.4328  218.8780 H   0  0  0  0  0  0  0  0  0  0  0  0
  146.9400   68.6729  218.8780 H   0  0  0  0  0  0  0  0  0  0  0  0
  144.0795   68.9520  218.5017 H   0  0  0  0  0  0  0  0  0  0  0  0
  144.7247   69.9905  219.8658 H   0  0  0  0  0  0  0  0  0  0  0  0
  145.1600   70.2020  217.0260 H   0  0  0  0  0  0  0  0  0  0  0  0
  144.2493   72.1181  217.5886 H   0  0  0  0  0  0  0  0  0  0  0  0
  142.9626   71.1454  219.1326 H   0  0  0  0  0  0  0  0  0  0  0  0
  144.3699   70.8873  220.2691 H   0  0  0  0  0  0  0  0  0  0  0  0
  139.0508   70.5206  221.6516 H   0  0  0  0  0  0  0  0  0  0  0  0
  140.3677   69.4631  222.3050 H   0  0  0  0  0  0  0  0  0  0  0  0
  137.7218   70.1250  223.6864 H   0  0  0  0  0  0  0  0  0  0  0  0
  138.1503   68.5678  222.9537 H   0  0  0  0  0  0  0  0  0  0  0  0
  138.5611   67.0691  224.7632 H   0  0  0  0  0  0  0  0  0  0  0  0
  139.8181   66.5187  226.8488 H   0  0  0  0  0  0  0  0  0  0  0  0
  141.2348   68.2639  227.8936 H   0  0  0  0  0  0  0  0  0  0  0  0
  141.4122   70.5310  226.8994 H   0  0  0  0  0  0  0  0  0  0  0  0
  139.3590   72.0730  225.0163 H   0  0  0  0  0  0  0  0  0  0  0  0
  141.1353   71.9245  224.9947 H   0  0  0  0  0  0  0  0  0  0  0  0
  138.5089   76.6701  220.4994 H   0  0  0  0  0  0  0  0  0  0  0  0
  138.1825   75.1087  221.2848 H   0  0  0  0  0  0  0  0  0  0  0  0
  137.2151   77.0353  222.5823 H   0  0  0  0  0  0  0  0  0  0  0  0
  138.4451   76.1772  223.5353 H   0  0  0  0  0  0  0  0  0  0  0  0
  137.5439   79.1390  223.7159 H   0  0  0  0  0  0  0  0  0  0  0  0
  138.8304   81.2141  223.8469 H   0  0  0  0  0  0  0  0  0  0  0  0
  141.1234   81.3991  222.9298 H   0  0  0  0  0  0  0  0  0  0  0  0
  142.1294   79.3572  221.8409 H   0  0  0  0  0  0  0  0  0  0  0  0
  141.3171   77.2580  220.4962 H   0  0  0  0  0  0  0  0  0  0  0  0
  141.9633   76.7271  222.0879 H   0  0  0  0  0  0  0  0  0  0  0  0
  144.4173   74.5067  219.2434 H   0  0  0  0  0  0  0  0  0  0  0  0
  144.6377   74.5046  220.9841 H   0  0  0  0  0  0  0  0  0  0  0  0
  146.7960   73.7577  220.0317 H   0  0  0  0  0  0  0  0  0  0  0  0
  146.0505   72.2735  220.6378 H   0  0  0  0  0  0  0  0  0  0  0  0
  1  2  1  0
  2  3  1  0
  3  4  1  0
  4  5  1  0
  5  6  1  0
  6  7  1  0
  7  8  2  0
  8  9  1  0
  9 10  1  0
 10 11  1  0
 11 12  1  0
 12 13  1  0
 13 14  2  0
 14 15  1  0
 15 16  2  0
 16 17  1  0
 17 18  2  0
 18 19  1  0
  9 20  2  0
 20 21  1  0
 21 22  1  0
 22 23  1  0
 23 24  1  0
 24 25  1  0
 25 26  2  0
 26 27  1  0
 27 28  2  0
 28 29  1  0
 29 30  2  0
 30 31  1  0
 21 32  2  0
  6 33  1  0
 33 34  1  0
 34 35  1  0
 35  4  1  0
 32  7  1  0
 19 10  1  0
 31 22  1  0
 18 13  1  0
 30 25  1  0
  1 36  1  0
  1 37  1  0
  1 38  1  0
  2 39  1  0
  2 40  1  0
  3 41  1  0
  4 42  1  6
  5 43  1  0
  5 44  1  0
 11 45  1  0
 11 46  1  0
 12 47  1  0
 12 48  1  0
 14 49  1  0
 15 50  1  0
 16 51  1  0
 17 52  1  0
 19 53  1  0
 19 54  1  0
 23 55  1  0
 23 56  1  0
 24 57  1  0
 24 58  1  0
 26 59  1  0
 27 60  1  0
 28 61  1  0
 29 62  1  0
 31 63  1  0
 31 64  1  0
 33 65  1  0
 33 66  1  0
 34 67  1  0
 34 68  1  0
M  END
>  <smiles>  (81) 
CCNC1CN(c2nc(N3CCc4ccccc4C3)nc(N3CCc4ccccc4C3)n2)CCO1

>  <score_type>  (81) 
oracle

>  <origin>  (81) 
autodockgpu

>  <m_score__min__energy>  (81) 
-10.41

>  <m_primary>  (81) 
energy

>  <rmsd>  (81) 
9.021908455173648

>  <m_score__min__rmsd>  (81) 
9.021908455173648

>  <meeko>  (81) 
{"free_energy": -10.26, "intermolecular_energy": -11.75, "internal_energy": -1.02, "cluster_size": 49, "cluster_id": 1, "rank_in_cluster": 36}

>  <energy>  (81) 
-10.28

>  <cluster_rmsd>  (81) 
1.31

>  <cluster>  (81) 
1

$$$$

     RDKit          3D

 68 73  0  0  0  0  0  0  0  0999 V2000
  144.5960   74.4300  215.9770 C   0  0  0  0  0  0  0  0  0  0  0  0
  145.1380   73.1760  216.5780 C   0  0  0  0  0  0  0  0  0  0  0  0
  146.0760   73.3960  217.6630 N   0  0  0  0  0  0  0  0  0  0  0  0
  145.5210   72.7290  218.8250 C   0  0  1  0  0  0  0  0  0  0  0  0
  144.1320   73.2080  219.1440 C   0  0  0  0  0  0  0  0  0  0  0  0
  143.4160   72.3360  220.0190 N   0  0  0  0  0  0  0  0  0  0  0  0
  142.3350   72.7260  220.8540 C   0  0  0  0  0  0  0  0  0  0  0  0
  141.7690   71.8720  221.7240 N   0  0  0  0  0  0  0  0  0  0  0  0
  140.7350   72.2310  222.5290 C   0  0  0  0  0  0  0  0  0  0  0  0
  140.1710   71.2790  223.4370 N   0  0  0  0  0  0  0  0  0  0  0  0
  139.5030   70.1150  222.8800 C   0  0  0  0  0  0  0  0  0  0  0  0
  138.5250   69.5110  223.8710 C   0  0  0  0  0  0  0  0  0  0  0  0
  139.3180   69.2060  225.1160 C   0  0  0  0  0  0  0  0  0  0  0  0
  139.1910   67.9920  225.7520 C   0  0  0  0  0  0  0  0  0  0  0  0
  139.9330   67.7450  226.8890 C   0  0  0  0  0  0  0  0  0  0  0  0
  140.7820   68.7290  227.3500 C   0  0  0  0  0  0  0  0  0  0  0  0
  140.9000   69.9560  226.6940 C   0  0  0  0  0  0  0  0  0  0  0  0
  140.1560   70.2110  225.5480 C   0  0  0  0  0  0  0  0  0  0  0  0
  140.2900   71.5190  224.8600 C   0  0  0  0  0  0  0  0  0  0  0  0
  140.2570   73.4850  222.4560 N   0  0  0  0  0  0  0  0  0  0  0  0
  140.8040   74.3620  221.5960 C   0  0  0  0  0  0  0  0  0  0  0  0
  140.3340   75.7040  221.4790 N   0  0  0  0  0  0  0  0  0  0  0  0
  138.9150   76.0300  221.4370 C   0  0  0  0  0  0  0  0  0  0  0  0
  138.6090   76.8380  222.6800 C   0  0  0  0  0  0  0  0  0  0  0  0
  139.5050   78.0310  222.6500 C   0  0  0  0  0  0  0  0  0  0  0  0
  139.0920   79.2090  223.2270 C   0  0  0  0  0  0  0  0  0  0  0  0
  139.9040   80.3190  223.2090 C   0  0  0  0  0  0  0  0  0  0  0  0
  141.1510   80.3250  222.6270 C   0  0  0  0  0  0  0  0  0  0  0  0
  141.5810   79.1330  222.0380 C   0  0  0  0  0  0  0  0  0  0  0  0
  140.7550   78.0100  222.0590 C   0  0  0  0  0  0  0  0  0  0  0  0
  141.3070   76.7840  221.4010 C   0  0  0  0  0  0  0  0  0  0  0  0
  141.8350   73.9690  220.8070 N   0  0  0  0  0  0  0  0  0  0  0  0
  143.8380   70.9280  220.0510 C   0  0  0  0  0  0  0  0  0  0  0  0
  144.4400   70.7010  218.6590 C   0  0  0  0  0  0  0  0  0  0  0  0
  145.6570   71.3790  218.6650 O   0  0  0  0  0  0  0  0  0  0  0  0
  144.2971   75.1214  216.7786 H   0  0  0  0  0  0  0  0  0  0  0  0
  145.3701   74.9027  215.3547 H   0  0  0  0  0  0  0  0  0  0  0  0
  143.7212   74.1901  215.3547 H   0  0  0  0  0  0  0  0  0  0  0  0
  144.2943   72.5858  216.9652 H   0  0  0  0  0  0  0  0  0  0  0  0
  145.6906   72.6558  215.7817 H   0  0  0  0  0  0  0  0  0  0  0  0
  146.2050   74.4010  217.8530 H   0  0  0  0  0  0  0  0  0  0  0  0
  146.0866   72.9974  219.7295 H   0  0  0  0  0  0  0  0  0  0  0  0
  144.2055   74.1965  219.6210 H   0  0  0  0  0  0  0  0  0  0  0  0
  143.5759   73.2429  218.1956 H   0  0  0  0  0  0  0  0  0  0  0  0
  138.9554   70.4157  221.9747 H   0  0  0  0  0  0  0  0  0  0  0  0
  140.2657   69.3591  222.6417 H   0  0  0  0  0  0  0  0  0  0  0  0
  137.7212   70.2270  224.0973 H   0  0  0  0  0  0  0  0  0  0  0  0
  138.0537   68.6038  223.4651 H   0  0  0  0  0  0  0  0  0  0  0  0
  138.5056   67.2270  225.3583 H   0  0  0  0  0  0  0  0  0  0  0  0
  139.8490   66.7834  227.4165 H   0  0  0  0  0  0  0  0  0  0  0  0
  141.3796   68.5432  228.2546 H   0  0  0  0  0  0  0  0  0  0  0  0
  141.5840   70.7233  227.0855 H   0  0  0  0  0  0  0  0  0  0  0  0
  139.4942   72.2014  225.1932 H   0  0  0  0  0  0  0  0  0  0  0  0
  141.2603   71.9812  225.0942 H   0  0  0  0  0  0  0  0  0  0  0  0
  138.6898   76.6213  220.5372 H   0  0  0  0  0  0  0  0  0  0  0  0
  138.3034   75.1164  221.4025 H   0  0  0  0  0  0  0  0  0  0  0  0
  137.5557   77.1552  222.6757 H   0  0  0  0  0  0  0  0  0  0  0  0
  138.7757   76.2419  223.5893 H   0  0  0  0  0  0  0  0  0  0  0  0
  138.1038   79.2640  223.7070 H   0  0  0  0  0  0  0  0  0  0  0  0
  139.5403   81.2436  223.6811 H   0  0  0  0  0  0  0  0  0  0  0  0
  141.7806   81.2270  222.6255 H   0  0  0  0  0  0  0  0  0  0  0  0
  142.5696   79.0808  221.5585 H   0  0  0  0  0  0  0  0  0  0  0  0
  141.5262   77.0029  220.3455 H   0  0  0  0  0  0  0  0  0  0  0  0
  142.2306   76.4796  221.9151 H   0  0  0  0  0  0  0  0  0  0  0  0
  144.5900   70.7610  220.8362 H   0  0  0  0  0  0  0  0  0  0  0  0
  143.0111   70.2387  220.2769 H   0  0  0  0  0  0  0  0  0  0  0  0
  144.5988   69.6275  218.4792 H   0  0  0  0  0  0  0  0  0  0  0  0
  143.7743   71.0642  217.8622 H   0  0  0  0  0  0  0  0  0  0  0  0
  1  2  1  0
  2  3  1  0
  3  4  1  0
  4  5  1  0
  5  6  1  0
  6  7  1  0
  7  8  2  0
  8  9  1  0
  9 10  1  0
 10 11  1  0
 11 12  1  0
 12 13  1  0
 13 14  2  0
 14 15  1  0
 15 16  2  0
 16 17  1  0
 17 18  2  0
 18 19  1  0
  9 20  2  0
 20 21  1  0
 21 22  1  0
 22 23  1  0
 23 24  1  0
 24 25  1  0
 25 26  2  0
 26 27  1  0
 27 28  2  0
 28 29  1  0
 29 30  2  0
 30 31  1  0
 21 32  2  0
  6 33  1  0
 33 34  1  0
 34 35  1  0
 35  4  1  0
 32  7  1  0
 19 10  1  0
 31 22  1  0
 18 13  1  0
 30 25  1  0
  1 36  1  0
  1 37  1  0
  1 38  1  0
  2 39  1  0
  2 40  1  0
  3 41  1  0
  4 42  1  1
  5 43  1  0
  5 44  1  0
 11 45  1  0
 11 46  1  0
 12 47  1  0
 12 48  1  0
 14 49  1  0
 15 50  1  0
 16 51  1  0
 17 52  1  0
 19 53  1  0
 19 54  1  0
 23 55  1  0
 23 56  1  0
 24 57  1  0
 24 58  1  0
 26 59  1  0
 27 60  1  0
 28 61  1  0
 29 62  1  0
 31 63  1  0
 31 64  1  0
 33 65  1  0
 33 66  1  0
 34 67  1  0
 34 68  1  0
M  END
>  <smiles>  (82) 
CCNC1CN(c2nc(N3CCc4ccccc4C3)nc(N3CCc4ccccc4C3)n2)CCO1

>  <score_type>  (82) 
oracle

>  <origin>  (82) 
autodockgpu

>  <m_score__min__energy>  (82) 
-10.41

>  <m_primary>  (82) 
energy

>  <rmsd>  (82) 
7.375035363358722

>  <m_score__min__rmsd>  (82) 
7.375035363358722

>  <meeko>  (82) 
{"free_energy": -10.32, "intermolecular_energy": -11.81, "internal_energy": -0.99, "cluster_size": 49, "cluster_id": 1, "rank_in_cluster": 15}

>  <energy>  (82) 
-10.27

>  <cluster_rmsd>  (82) 
1.3

>  <cluster>  (82) 
1

$$$$

     RDKit          3D

 68 73  0  0  0  0  0  0  0  0999 V2000
  145.9320   67.6160  219.3820 C   0  0  0  0  0  0  0  0  0  0  0  0
  145.1870   68.9090  219.3320 C   0  0  0  0  0  0  0  0  0  0  0  0
  146.0140   70.0570  219.0110 N   0  0  0  0  0  0  0  0  0  0  0  0
  145.1100   71.1800  218.8510 C   0  0  1  0  0  0  0  0  0  0  0  0
  144.3140   71.4490  220.0980 C   0  0  0  0  0  0  0  0  0  0  0  0
  143.7080   72.7410  220.1190 N   0  0  0  0  0  0  0  0  0  0  0  0
  142.5580   73.0900  220.8780 C   0  0  0  0  0  0  0  0  0  0  0  0
  141.9360   72.1990  221.6690 N   0  0  0  0  0  0  0  0  0  0  0  0
  140.8360   72.5190  222.4010 C   0  0  0  0  0  0  0  0  0  0  0  0
  140.2140   71.5290  223.2270 N   0  0  0  0  0  0  0  0  0  0  0  0
  139.5010   70.4430  222.5750 C   0  0  0  0  0  0  0  0  0  0  0  0
  138.4800   69.8130  223.5050 C   0  0  0  0  0  0  0  0  0  0  0  0
  139.2390   69.3770  224.7320 C   0  0  0  0  0  0  0  0  0  0  0  0
  139.0460   68.1270  225.2730 C   0  0  0  0  0  0  0  0  0  0  0  0
  139.7570   67.7590  226.3960 C   0  0  0  0  0  0  0  0  0  0  0  0
  140.6450   68.6630  226.9410 C   0  0  0  0  0  0  0  0  0  0  0  0
  140.8310   69.9290  226.3820 C   0  0  0  0  0  0  0  0  0  0  0  0
  140.1160   70.3060  225.2500 C   0  0  0  0  0  0  0  0  0  0  0  0
  140.3220   71.6540  224.6660 C   0  0  0  0  0  0  0  0  0  0  0  0
  140.3490   73.7690  222.3330 N   0  0  0  0  0  0  0  0  0  0  0  0
  140.9500   74.6810  221.5510 C   0  0  0  0  0  0  0  0  0  0  0  0
  140.4740   76.0220  221.4440 N   0  0  0  0  0  0  0  0  0  0  0  0
  139.0540   76.3480  221.4800 C   0  0  0  0  0  0  0  0  0  0  0  0
  138.8210   77.1710  222.7270 C   0  0  0  0  0  0  0  0  0  0  0  0
  139.7110   78.3640  222.6290 C   0  0  0  0  0  0  0  0  0  0  0  0
  139.3320   79.5510  223.2130 C   0  0  0  0  0  0  0  0  0  0  0  0
  140.1410   80.6590  223.1330 C   0  0  0  0  0  0  0  0  0  0  0  0
  141.3510   80.6580  222.4790 C   0  0  0  0  0  0  0  0  0  0  0  0
  141.7470   79.4580  221.8820 C   0  0  0  0  0  0  0  0  0  0  0  0
  140.9260   78.3350  221.9660 C   0  0  0  0  0  0  0  0  0  0  0  0
  141.4400   77.1010  221.2940 C   0  0  0  0  0  0  0  0  0  0  0  0
  142.0460   74.3280  220.8340 N   0  0  0  0  0  0  0  0  0  0  0  0
  144.3270   73.7830  219.2880 C   0  0  0  0  0  0  0  0  0  0  0  0
  145.7960   73.3510  219.2050 C   0  0  0  0  0  0  0  0  0  0  0  0
  145.8110   72.2440  218.3590 O   0  0  0  0  0  0  0  0  0  0  0  0
  146.0976   67.3286  220.4308 H   0  0  0  0  0  0  0  0  0  0  0  0
  145.3454   66.8350  218.8760 H   0  0  0  0  0  0  0  0  0  0  0  0
  146.9018   67.7318  218.8760 H   0  0  0  0  0  0  0  0  0  0  0  0
  144.4005   68.8252  218.5675 H   0  0  0  0  0  0  0  0  0  0  0  0
  144.7826   69.0813  220.3404 H   0  0  0  0  0  0  0  0  0  0  0  0
  146.5540   69.9050  218.1460 H   0  0  0  0  0  0  0  0  0  0  0  0
  144.3327   70.9448  218.1091 H   0  0  0  0  0  0  0  0  0  0  0  0
  143.5206   70.6910  220.1749 H   0  0  0  0  0  0  0  0  0  0  0  0
  145.0149   71.4066  220.9447 H   0  0  0  0  0  0  0  0  0  0  0  0
  138.9824   70.8368  221.6884 H   0  0  0  0  0  0  0  0  0  0  0  0
  140.2315   69.6716  222.2897 H   0  0  0  0  0  0  0  0  0  0  0  0
  137.7072   70.5474  223.7760 H   0  0  0  0  0  0  0  0  0  0  0  0
  137.9726   68.9630  223.0253 H   0  0  0  0  0  0  0  0  0  0  0  0
  138.3315   67.4277  224.8143 H   0  0  0  0  0  0  0  0  0  0  0  0
  139.6189   66.7655  226.8476 H   0  0  0  0  0  0  0  0  0  0  0  0
  141.2192   68.3804  227.8356 H   0  0  0  0  0  0  0  0  0  0  0  0
  141.5451   70.6303  226.8383 H   0  0  0  0  0  0  0  0  0  0  0  0
  139.5541   72.3466  225.0410 H   0  0  0  0  0  0  0  0  0  0  0  0
  141.3093   72.0497  224.9464 H   0  0  0  0  0  0  0  0  0  0  0  0
  138.7768   76.9279  220.5873 H   0  0  0  0  0  0  0  0  0  0  0  0
  138.4416   75.4343  221.4925 H   0  0  0  0  0  0  0  0  0  0  0  0
  137.7688   77.4870  222.7809 H   0  0  0  0  0  0  0  0  0  0  0  0
  139.0425   76.5868  223.6324 H   0  0  0  0  0  0  0  0  0  0  0  0
  138.3732   79.6135  223.7485 H   0  0  0  0  0  0  0  0  0  0  0  0
  139.8054   81.5895  223.6141 H   0  0  0  0  0  0  0  0  0  0  0  0
  141.9782   81.5602  222.4282 H   0  0  0  0  0  0  0  0  0  0  0  0
  142.7059   79.3999  221.3462 H   0  0  0  0  0  0  0  0  0  0  0  0
  141.5968   77.3053  220.2246 H   0  0  0  0  0  0  0  0  0  0  0  0
  142.3927   76.8040  221.7569 H   0  0  0  0  0  0  0  0  0  0  0  0
  143.8689   73.8121  218.2883 H   0  0  0  0  0  0  0  0  0  0  0  0
  144.2010   74.7933  219.7043 H   0  0  0  0  0  0  0  0  0  0  0  0
  146.4122   74.1615  218.7886 H   0  0  0  0  0  0  0  0  0  0  0  0
  146.2080   73.1125  220.1967 H   0  0  0  0  0  0  0  0  0  0  0  0
  1  2  1  0
  2  3  1  0
  3  4  1  0
  4  5  1  0
  5  6  1  0
  6  7  1  0
  7  8  2  0
  8  9  1  0
  9 10  1  0
 10 11  1  0
 11 12  1  0
 12 13  1  0
 13 14  2  0
 14 15  1  0
 15 16  2  0
 16 17  1  0
 17 18  2  0
 18 19  1  0
  9 20  2  0
 20 21  1  0
 21 22  1  0
 22 23  1  0
 23 24  1  0
 24 25  1  0
 25 26  2  0
 26 27  1  0
 27 28  2  0
 28 29  1  0
 29 30  2  0
 30 31  1  0
 21 32  2  0
  6 33  1  0
 33 34  1  0
 34 35  1  0
 35  4  1  0
 32  7  1  0
 19 10  1  0
 31 22  1  0
 18 13  1  0
 30 25  1  0
  1 36  1  0
  1 37  1  0
  1 38  1  0
  2 39  1  0
  2 40  1  0
  3 41  1  0
  4 42  1  6
  5 43  1  0
  5 44  1  0
 11 45  1  0
 11 46  1  0
 12 47  1  0
 12 48  1  0
 14 49  1  0
 15 50  1  0
 16 51  1  0
 17 52  1  0
 19 53  1  0
 19 54  1  0
 23 55  1  0
 23 56  1  0
 24 57  1  0
 24 58  1  0
 26 59  1  0
 27 60  1  0
 28 61  1  0
 29 62  1  0
 31 63  1  0
 31 64  1  0
 33 65  1  0
 33 66  1  0
 34 67  1  0
 34 68  1  0
M  END
>  <smiles>  (83) 
CCNC1CN(c2nc(N3CCc4ccccc4C3)nc(N3CCc4ccccc4C3)n2)CCO1

>  <score_type>  (83) 
oracle

>  <origin>  (83) 
autodockgpu

>  <m_score__min__energy>  (83) 
-10.41

>  <m_primary>  (83) 
energy

>  <rmsd>  (83) 
9.271799936077494

>  <m_score__min__rmsd>  (83) 
9.271799936077494

>  <meeko>  (83) 
{"free_energy": -10.25, "intermolecular_energy": -11.74, "internal_energy": -0.97, "cluster_size": 49, "cluster_id": 1, "rank_in_cluster": 40}

>  <energy>  (83) 
-10.27

>  <cluster_rmsd>  (83) 
1.3

>  <cluster>  (83) 
1

$$$$

     RDKit          3D

 68 73  0  0  0  0  0  0  0  0999 V2000
  145.4630   74.6000  215.9450 C   0  0  0  0  0  0  0  0  0  0  0  0
  145.0370   73.7470  217.0930 C   0  0  0  0  0  0  0  0  0  0  0  0
  146.1240   73.3360  217.9610 N   0  0  0  0  0  0  0  0  0  0  0  0
  145.5150   72.6350  219.0750 C   0  0  1  0  0  0  0  0  0  0  0  0
  144.1380   73.1520  219.3860 C   0  0  0  0  0  0  0  0  0  0  0  0
  143.3670   72.2670  220.1990 N   0  0  0  0  0  0  0  0  0  0  0  0
  142.2820   72.6590  221.0290 C   0  0  0  0  0  0  0  0  0  0  0  0
  141.7320   71.8140  221.9180 N   0  0  0  0  0  0  0  0  0  0  0  0
  140.6930   72.1750  222.7180 C   0  0  0  0  0  0  0  0  0  0  0  0
  140.1470   71.2340  223.6480 N   0  0  0  0  0  0  0  0  0  0  0  0
  139.4990   70.0460  223.1180 C   0  0  0  0  0  0  0  0  0  0  0  0
  138.5320   69.4480  224.1240 C   0  0  0  0  0  0  0  0  0  0  0  0
  139.3320   69.1840  225.3740 C   0  0  0  0  0  0  0  0  0  0  0  0
  139.2260   67.9840  226.0390 C   0  0  0  0  0  0  0  0  0  0  0  0
  139.9730   67.7750  227.1790 C   0  0  0  0  0  0  0  0  0  0  0  0
  140.8060   68.7830  227.6170 C   0  0  0  0  0  0  0  0  0  0  0  0
  140.9030   69.9970  226.9330 C   0  0  0  0  0  0  0  0  0  0  0  0
  140.1530   70.2130  225.7820 C   0  0  0  0  0  0  0  0  0  0  0  0
  140.2630   71.5080  225.0660 C   0  0  0  0  0  0  0  0  0  0  0  0
  140.1960   73.4190  222.6190 N   0  0  0  0  0  0  0  0  0  0  0  0
  140.7260   74.2850  221.7390 C   0  0  0  0  0  0  0  0  0  0  0  0
  140.2350   75.6170  221.5940 N   0  0  0  0  0  0  0  0  0  0  0  0
  138.8120   75.9150  221.5060 C   0  0  0  0  0  0  0  0  0  0  0  0
  138.4540   76.7290  222.7310 C   0  0  0  0  0  0  0  0  0  0  0  0
  139.3270   77.9390  222.7140 C   0  0  0  0  0  0  0  0  0  0  0  0
  138.8750   79.1150  223.2670 C   0  0  0  0  0  0  0  0  0  0  0  0
  139.6660   80.2390  223.2610 C   0  0  0  0  0  0  0  0  0  0  0  0
  140.9290   80.2640  222.7160 C   0  0  0  0  0  0  0  0  0  0  0  0
  141.3990   79.0740  222.1530 C   0  0  0  0  0  0  0  0  0  0  0  0
  140.5950   77.9360  222.1610 C   0  0  0  0  0  0  0  0  0  0  0  0
  141.1890   76.7140  221.5330 C   0  0  0  0  0  0  0  0  0  0  0  0
  141.7610   73.8920  220.9560 N   0  0  0  0  0  0  0  0  0  0  0  0
  143.7330   70.8430  220.1690 C   0  0  0  0  0  0  0  0  0  0  0  0
  144.3600   70.6630  218.7810 C   0  0  0  0  0  0  0  0  0  0  0  0
  145.6020   71.2900  218.8490 O   0  0  0  0  0  0  0  0  0  0  0  0
  145.9241   75.5233  216.3256 H   0  0  0  0  0  0  0  0  0  0  0  0
  146.1930   74.0514  215.3316 H   0  0  0  0  0  0  0  0  0  0  0  0
  144.5859   74.8540  215.3316 H   0  0  0  0  0  0  0  0  0  0  0  0
  144.3107   74.3140  217.6938 H   0  0  0  0  0  0  0  0  0  0  0  0
  144.6091   72.8288  216.6642 H   0  0  0  0  0  0  0  0  0  0  0  0
  146.6650   74.1460  218.3000 H   0  0  0  0  0  0  0  0  0  0  0  0
  146.0680   72.8357  220.0044 H   0  0  0  0  0  0  0  0  0  0  0  0
  144.2376   74.1118  219.9140 H   0  0  0  0  0  0  0  0  0  0  0  0
  143.6075   73.2556  218.4279 H   0  0  0  0  0  0  0  0  0  0  0  0
  138.9457   70.3164  222.2066 H   0  0  0  0  0  0  0  0  0  0  0  0
  140.2745   69.2981  222.8959 H   0  0  0  0  0  0  0  0  0  0  0  0
  137.7168   70.1555  224.3358 H   0  0  0  0  0  0  0  0  0  0  0  0
  138.0749   68.5244  223.7392 H   0  0  0  0  0  0  0  0  0  0  0  0
  138.5520   67.1993  225.6649 H   0  0  0  0  0  0  0  0  0  0  0  0
  139.9059   66.8240  227.7277 H   0  0  0  0  0  0  0  0  0  0  0  0
  141.4072   68.6276  228.5249 H   0  0  0  0  0  0  0  0  0  0  0  0
  141.5745   70.7844  227.3058 H   0  0  0  0  0  0  0  0  0  0  0  0
  139.4554   72.1832  225.3852 H   0  0  0  0  0  0  0  0  0  0  0  0
  141.2248   71.9930  225.2890 H   0  0  0  0  0  0  0  0  0  0  0  0
  138.6028   76.4931  220.5938 H   0  0  0  0  0  0  0  0  0  0  0  0
  138.2190   74.9896  221.4624 H   0  0  0  0  0  0  0  0  0  0  0  0
  137.3953   77.0252  222.6929 H   0  0  0  0  0  0  0  0  0  0  0  0
  138.6056   76.1455  223.6511 H   0  0  0  0  0  0  0  0  0  0  0  0
  137.8724   79.1560  223.7176 H   0  0  0  0  0  0  0  0  0  0  0  0
  139.2711   81.1610  223.7127 H   0  0  0  0  0  0  0  0  0  0  0  0
  141.5407   81.1782  222.7230 H   0  0  0  0  0  0  0  0  0  0  0  0
  142.4025   79.0360  221.7041 H   0  0  0  0  0  0  0  0  0  0  0  0
  141.4353   76.9261  220.4821 H   0  0  0  0  0  0  0  0  0  0  0  0
  142.1024   76.4325  222.0775 H   0  0  0  0  0  0  0  0  0  0  0  0
  144.4583   70.6068  220.9616 H   0  0  0  0  0  0  0  0  0  0  0  0
  142.8749   70.1766  220.3409 H   0  0  0  0  0  0  0  0  0  0  0  0
  144.4810   69.5945  218.5496 H   0  0  0  0  0  0  0  0  0  0  0  0
  143.7288   71.0931  217.9894 H   0  0  0  0  0  0  0  0  0  0  0  0
  1  2  1  0
  2  3  1  0
  3  4  1  0
  4  5  1  0
  5  6  1  0
  6  7  1  0
  7  8  2  0
  8  9  1  0
  9 10  1  0
 10 11  1  0
 11 12  1  0
 12 13  1  0
 13 14  2  0
 14 15  1  0
 15 16  2  0
 16 17  1  0
 17 18  2  0
 18 19  1  0
  9 20  2  0
 20 21  1  0
 21 22  1  0
 22 23  1  0
 23 24  1  0
 24 25  1  0
 25 26  2  0
 26 27  1  0
 27 28  2  0
 28 29  1  0
 29 30  2  0
 30 31  1  0
 21 32  2  0
  6 33  1  0
 33 34  1  0
 34 35  1  0
 35  4  1  0
 32  7  1  0
 19 10  1  0
 31 22  1  0
 18 13  1  0
 30 25  1  0
  1 36  1  0
  1 37  1  0
  1 38  1  0
  2 39  1  0
  2 40  1  0
  3 41  1  0
  4 42  1  1
  5 43  1  0
  5 44  1  0
 11 45  1  0
 11 46  1  0
 12 47  1  0
 12 48  1  0
 14 49  1  0
 15 50  1  0
 16 51  1  0
 17 52  1  0
 19 53  1  0
 19 54  1  0
 23 55  1  0
 23 56  1  0
 24 57  1  0
 24 58  1  0
 26 59  1  0
 27 60  1  0
 28 61  1  0
 29 62  1  0
 31 63  1  0
 31 64  1  0
 33 65  1  0
 33 66  1  0
 34 67  1  0
 34 68  1  0
M  END
>  <smiles>  (84) 
CCNC1CN(c2nc(N3CCc4ccccc4C3)nc(N3CCc4ccccc4C3)n2)CCO1

>  <score_type>  (84) 
oracle

>  <origin>  (84) 
autodockgpu

>  <m_score__min__energy>  (84) 
-10.41

>  <m_primary>  (84) 
energy

>  <rmsd>  (84) 
7.307969480551464

>  <m_score__min__rmsd>  (84) 
7.307969480551464

>  <meeko>  (84) 
{"free_energy": -10.37, "intermolecular_energy": -11.86, "internal_energy": -1.0, "cluster_size": 49, "cluster_id": 1, "rank_in_cluster": 8}

>  <energy>  (84) 
-10.27

>  <cluster_rmsd>  (84) 
1.2

>  <cluster>  (84) 
1

$$$$

     RDKit          3D

 68 73  0  0  0  0  0  0  0  0999 V2000
  145.9390   68.3800  219.1000 C   0  0  0  0  0  0  0  0  0  0  0  0
  144.9770   69.5030  218.8900 C   0  0  0  0  0  0  0  0  0  0  0  0
  145.4150   70.4830  217.9150 N   0  0  0  0  0  0  0  0  0  0  0  0
  144.8620   71.7550  218.3380 C   0  0  1  0  0  0  0  0  0  0  0  0
  143.8880   71.6010  219.4730 C   0  0  0  0  0  0  0  0  0  0  0  0
  143.6150   72.8230  220.1590 N   0  0  0  0  0  0  0  0  0  0  0  0
  142.4380   73.0920  220.9080 C   0  0  0  0  0  0  0  0  0  0  0  0
  141.8660   72.1560  221.6850 N   0  0  0  0  0  0  0  0  0  0  0  0
  140.7390   72.3990  222.4070 C   0  0  0  0  0  0  0  0  0  0  0  0
  140.1740   71.3640  223.2190 N   0  0  0  0  0  0  0  0  0  0  0  0
  139.5540   70.2320  222.5500 C   0  0  0  0  0  0  0  0  0  0  0  0
  138.5630   69.5280  223.4580 C   0  0  0  0  0  0  0  0  0  0  0  0
  139.3250   69.1440  224.7010 C   0  0  0  0  0  0  0  0  0  0  0  0
  139.2110   67.8820  225.2360 C   0  0  0  0  0  0  0  0  0  0  0  0
  139.9230   67.5630  226.3740 C   0  0  0  0  0  0  0  0  0  0  0  0
  140.7310   68.5280  226.9390 C   0  0  0  0  0  0  0  0  0  0  0  0
  140.8370   69.8050  226.3840 C   0  0  0  0  0  0  0  0  0  0  0  0
  140.1220   70.1320  225.2380 C   0  0  0  0  0  0  0  0  0  0  0  0
  140.2420   71.4930  224.6600 C   0  0  0  0  0  0  0  0  0  0  0  0
  140.1750   73.6160  222.3440 N   0  0  0  0  0  0  0  0  0  0  0  0
  140.7250   74.5710  221.5760 C   0  0  0  0  0  0  0  0  0  0  0  0
  140.1650   75.8800  221.4740 N   0  0  0  0  0  0  0  0  0  0  0  0
  138.7300   76.1050  221.3620 C   0  0  0  0  0  0  0  0  0  0  0  0
  138.2990   76.8450  222.6090 C   0  0  0  0  0  0  0  0  0  0  0  0
  139.1050   78.1000  222.6650 C   0  0  0  0  0  0  0  0  0  0  0  0
  138.5760   79.2250  223.2540 C   0  0  0  0  0  0  0  0  0  0  0  0
  139.3040   80.3900  223.3150 C   0  0  0  0  0  0  0  0  0  0  0  0
  140.5760   80.5060  222.8040 C   0  0  0  0  0  0  0  0  0  0  0  0
  141.1240   79.3680  222.2050 C   0  0  0  0  0  0  0  0  0  0  0  0
  140.3840   78.1890  222.1450 C   0  0  0  0  0  0  0  0  0  0  0  0
  141.0590   77.0290  221.4830 C   0  0  0  0  0  0  0  0  0  0  0  0
  141.8480   74.2950  220.8680 N   0  0  0  0  0  0  0  0  0  0  0  0
  144.6360   73.8770  220.0780 C   0  0  0  0  0  0  0  0  0  0  0  0
  145.9400   73.0990  219.8680 C   0  0  0  0  0  0  0  0  0  0  0  0
  145.8880   72.6310  218.5570 O   0  0  0  0  0  0  0  0  0  0  0  0
  146.0803   68.2150  220.1784 H   0  0  0  0  0  0  0  0  0  0  0  0
  145.5405   67.4646  218.6382 H   0  0  0  0  0  0  0  0  0  0  0  0
  146.9047   68.6332  218.6382 H   0  0  0  0  0  0  0  0  0  0  0  0
  144.0208   69.0796  218.5487 H   0  0  0  0  0  0  0  0  0  0  0  0
  144.8892   70.0296  219.8518 H   0  0  0  0  0  0  0  0  0  0  0  0
  145.0870   70.2460  216.9670 H   0  0  0  0  0  0  0  0  0  0  0  0
  144.2419   72.1887  217.5397 H   0  0  0  0  0  0  0  0  0  0  0  0
  142.9425   71.2094  219.0697 H   0  0  0  0  0  0  0  0  0  0  0  0
  144.3461   70.9162  220.2018 H   0  0  0  0  0  0  0  0  0  0  0  0
  139.0263   70.5908  221.6540 H   0  0  0  0  0  0  0  0  0  0  0  0
  140.3433   69.5160  222.2773 H   0  0  0  0  0  0  0  0  0  0  0  0
  137.7339   70.2042  223.7134 H   0  0  0  0  0  0  0  0  0  0  0  0
  138.1291   68.6446  222.9667 H   0  0  0  0  0  0  0  0  0  0  0  0
  138.5586   67.1344  224.7612 H   0  0  0  0  0  0  0  0  0  0  0  0
  139.8480   66.5608  226.8211 H   0  0  0  0  0  0  0  0  0  0  0  0
  141.3041   68.2863  227.8463 H   0  0  0  0  0  0  0  0  0  0  0  0
  141.4889   70.5550  226.8557 H   0  0  0  0  0  0  0  0  0  0  0  0
  139.4181   72.1271  225.0192 H   0  0  0  0  0  0  0  0  0  0  0  0
  141.1917   71.9587  224.9619 H   0  0  0  0  0  0  0  0  0  0  0  0
  138.5111   76.7095  220.4695 H   0  0  0  0  0  0  0  0  0  0  0  0
  138.1898   75.1517  221.2652 H   0  0  0  0  0  0  0  0  0  0  0  0
  137.2269   77.0854  222.5554 H   0  0  0  0  0  0  0  0  0  0  0  0
  138.4600   76.2317  223.5078 H   0  0  0  0  0  0  0  0  0  0  0  0
  137.5622   79.1924  223.6797 H   0  0  0  0  0  0  0  0  0  0  0  0
  138.8486   81.2692  223.7942 H   0  0  0  0  0  0  0  0  0  0  0  0
  141.1361   81.4508  222.8640 H   0  0  0  0  0  0  0  0  0  0  0  0
  142.1385   79.4033  221.7814 H   0  0  0  0  0  0  0  0  0  0  0  0
  141.3181   77.2986  220.4485 H   0  0  0  0  0  0  0  0  0  0  0  0
  141.9734   76.7743  222.0388 H   0  0  0  0  0  0  0  0  0  0  0  0
  144.4393   74.5502  219.2306 H   0  0  0  0  0  0  0  0  0  0  0  0
  144.6599   74.5189  220.9709 H   0  0  0  0  0  0  0  0  0  0  0  0
  146.8084   73.7600  220.0059 H   0  0  0  0  0  0  0  0  0  0  0  0
  146.0450   72.2764  220.5907 H   0  0  0  0  0  0  0  0  0  0  0  0
  1  2  1  0
  2  3  1  0
  3  4  1  0
  4  5  1  0
  5  6  1  0
  6  7  1  0
  7  8  2  0
  8  9  1  0
  9 10  1  0
 10 11  1  0
 11 12  1  0
 12 13  1  0
 13 14  2  0
 14 15  1  0
 15 16  2  0
 16 17  1  0
 17 18  2  0
 18 19  1  0
  9 20  2  0
 20 21  1  0
 21 22  1  0
 22 23  1  0
 23 24  1  0
 24 25  1  0
 25 26  2  0
 26 27  1  0
 27 28  2  0
 28 29  1  0
 29 30  2  0
 30 31  1  0
 21 32  2  0
  6 33  1  0
 33 34  1  0
 34 35  1  0
 35  4  1  0
 32  7  1  0
 19 10  1  0
 31 22  1  0
 18 13  1  0
 30 25  1  0
  1 36  1  0
  1 37  1  0
  1 38  1  0
  2 39  1  0
  2 40  1  0
  3 41  1  0
  4 42  1  6
  5 43  1  0
  5 44  1  0
 11 45  1  0
 11 46  1  0
 12 47  1  0
 12 48  1  0
 14 49  1  0
 15 50  1  0
 16 51  1  0
 17 52  1  0
 19 53  1  0
 19 54  1  0
 23 55  1  0
 23 56  1  0
 24 57  1  0
 24 58  1  0
 26 59  1  0
 27 60  1  0
 28 61  1  0
 29 62  1  0
 31 63  1  0
 31 64  1  0
 33 65  1  0
 33 66  1  0
 34 67  1  0
 34 68  1  0
M  END
>  <smiles>  (85) 
CCNC1CN(c2nc(N3CCc4ccccc4C3)nc(N3CCc4ccccc4C3)n2)CCO1

>  <score_type>  (85) 
oracle

>  <origin>  (85) 
autodockgpu

>  <m_score__min__energy>  (85) 
-10.41

>  <m_primary>  (85) 
energy

>  <rmsd>  (85) 
9.030046413577598

>  <m_score__min__rmsd>  (85) 
9.030046413577598

>  <meeko>  (85) 
{"free_energy": -10.26, "intermolecular_energy": -11.75, "internal_energy": -1.01, "cluster_size": 49, "cluster_id": 1, "rank_in_cluster": 37}

>  <energy>  (85) 
-10.26

>  <cluster_rmsd>  (85) 
1.31

>  <cluster>  (85) 
1

$$$$

     RDKit          3D

 68 73  0  0  0  0  0  0  0  0999 V2000
  145.3300   74.7850  215.8570 C   0  0  0  0  0  0  0  0  0  0  0  0
  144.9530   73.8700  216.9740 C   0  0  0  0  0  0  0  0  0  0  0  0
  146.0780   73.3970  217.7580 N   0  0  0  0  0  0  0  0  0  0  0  0
  145.5170   72.7190  218.9110 C   0  0  1  0  0  0  0  0  0  0  0  0
  144.1200   73.1840  219.2180 C   0  0  0  0  0  0  0  0  0  0  0  0
  143.4030   72.3010  220.0800 N   0  0  0  0  0  0  0  0  0  0  0  0
  142.3100   72.6780  220.9060 C   0  0  0  0  0  0  0  0  0  0  0  0
  141.7490   71.8170  221.7730 N   0  0  0  0  0  0  0  0  0  0  0  0
  140.7030   72.1630  222.5690 C   0  0  0  0  0  0  0  0  0  0  0  0
  140.1450   71.2040  223.4740 N   0  0  0  0  0  0  0  0  0  0  0  0
  139.4940   70.0320  222.9130 C   0  0  0  0  0  0  0  0  0  0  0  0
  138.5170   69.4170  223.8990 C   0  0  0  0  0  0  0  0  0  0  0  0
  139.3070   69.1210  225.1480 C   0  0  0  0  0  0  0  0  0  0  0  0
  139.1910   67.9060  225.7840 C   0  0  0  0  0  0  0  0  0  0  0  0
  139.9290   67.6680  226.9250 C   0  0  0  0  0  0  0  0  0  0  0  0
  140.7640   68.6610  227.3910 C   0  0  0  0  0  0  0  0  0  0  0  0
  140.8720   69.8890  226.7350 C   0  0  0  0  0  0  0  0  0  0  0  0
  140.1310   70.1360  225.5850 C   0  0  0  0  0  0  0  0  0  0  0  0
  140.2530   71.4450  224.8980 C   0  0  0  0  0  0  0  0  0  0  0  0
  140.2090   73.4100  222.4900 N   0  0  0  0  0  0  0  0  0  0  0  0
  140.7500   74.2920  221.6330 C   0  0  0  0  0  0  0  0  0  0  0  0
  140.2620   75.6280  221.5110 N   0  0  0  0  0  0  0  0  0  0  0  0
  138.8390   75.9330  221.4370 C   0  0  0  0  0  0  0  0  0  0  0  0
  138.4940   76.7300  222.6760 C   0  0  0  0  0  0  0  0  0  0  0  0
  139.3710   77.9370  222.6700 C   0  0  0  0  0  0  0  0  0  0  0  0
  138.9270   79.1070  223.2420 C   0  0  0  0  0  0  0  0  0  0  0  0
  139.7220   80.2290  223.2460 C   0  0  0  0  0  0  0  0  0  0  0  0
  140.9820   80.2560  222.6920 C   0  0  0  0  0  0  0  0  0  0  0  0
  141.4430   79.0730  222.1090 C   0  0  0  0  0  0  0  0  0  0  0  0
  140.6350   77.9370  222.1070 C   0  0  0  0  0  0  0  0  0  0  0  0
  141.2200   76.7230  221.4580 C   0  0  0  0  0  0  0  0  0  0  0  0
  141.7920   73.9130  220.8530 N   0  0  0  0  0  0  0  0  0  0  0  0
  143.8360   70.8970  220.1090 C   0  0  0  0  0  0  0  0  0  0  0  0
  144.4550   70.6830  218.7220 C   0  0  0  0  0  0  0  0  0  0  0  0
  145.6660   71.3710  218.7450 O   0  0  0  0  0  0  0  0  0  0  0  0
  145.7183   75.7275  216.2703 H   0  0  0  0  0  0  0  0  0  0  0  0
  146.1052   74.3088  215.2387 H   0  0  0  0  0  0  0  0  0  0  0  0
  144.4444   74.9931  215.2387 H   0  0  0  0  0  0  0  0  0  0  0  0
  144.2667   74.4080  217.6445 H   0  0  0  0  0  0  0  0  0  0  0  0
  144.4911   72.9833  216.5153 H   0  0  0  0  0  0  0  0  0  0  0  0
  146.6830   74.1760  218.0590 H   0  0  0  0  0  0  0  0  0  0  0  0
  146.0711   72.9877  219.8225 H   0  0  0  0  0  0  0  0  0  0  0  0
  144.1796   74.1703  219.7013 H   0  0  0  0  0  0  0  0  0  0  0  0
  143.5736   73.2195  218.2639 H   0  0  0  0  0  0  0  0  0  0  0  0
  138.9483   70.3261  222.0043 H   0  0  0  0  0  0  0  0  0  0  0  0
  140.2668   69.2849  222.6791 H   0  0  0  0  0  0  0  0  0  0  0  0
  137.7041   70.1240  224.1210 H   0  0  0  0  0  0  0  0  0  0  0  0
  138.0577   68.5047  223.4907 H   0  0  0  0  0  0  0  0  0  0  0  0
  138.5169   67.1328  225.3867 H   0  0  0  0  0  0  0  0  0  0  0  0
  139.8527   66.7056  227.4522 H   0  0  0  0  0  0  0  0  0  0  0  0
  141.3581   68.4821  228.2993 H   0  0  0  0  0  0  0  0  0  0  0  0
  141.5458   70.6637  227.1296 H   0  0  0  0  0  0  0  0  0  0  0  0
  139.4471   72.1177  225.2267 H   0  0  0  0  0  0  0  0  0  0  0  0
  141.2164   71.9187  225.1376 H   0  0  0  0  0  0  0  0  0  0  0  0
  138.6257   76.5253  220.5349 H   0  0  0  0  0  0  0  0  0  0  0  0
  138.2415   75.0110  221.3836 H   0  0  0  0  0  0  0  0  0  0  0  0
  137.4361   77.0304  222.6507 H   0  0  0  0  0  0  0  0  0  0  0  0
  138.6510   76.1325  223.5861 H   0  0  0  0  0  0  0  0  0  0  0  0
  137.9276   79.1452  223.7000 H   0  0  0  0  0  0  0  0  0  0  0  0
  139.3337   81.1462  223.7129 H   0  0  0  0  0  0  0  0  0  0  0  0
  141.5977   81.1674  222.7077 H   0  0  0  0  0  0  0  0  0  0  0  0
  142.4429   79.0380  221.6518 H   0  0  0  0  0  0  0  0  0  0  0  0
  141.4592   76.9490  220.4084 H   0  0  0  0  0  0  0  0  0  0  0  0
  142.1367   76.4310  221.9913 H   0  0  0  0  0  0  0  0  0  0  0  0
  144.5808   70.7318  220.9014 H   0  0  0  0  0  0  0  0  0  0  0  0
  143.0125   70.1996  220.3223 H   0  0  0  0  0  0  0  0  0  0  0  0
  144.6248   69.6119  218.5378 H   0  0  0  0  0  0  0  0  0  0  0  0
  143.7949   71.0452  217.9201 H   0  0  0  0  0  0  0  0  0  0  0  0
  1  2  1  0
  2  3  1  0
  3  4  1  0
  4  5  1  0
  5  6  1  0
  6  7  1  0
  7  8  2  0
  8  9  1  0
  9 10  1  0
 10 11  1  0
 11 12  1  0
 12 13  1  0
 13 14  2  0
 14 15  1  0
 15 16  2  0
 16 17  1  0
 17 18  2  0
 18 19  1  0
  9 20  2  0
 20 21  1  0
 21 22  1  0
 22 23  1  0
 23 24  1  0
 24 25  1  0
 25 26  2  0
 26 27  1  0
 27 28  2  0
 28 29  1  0
 29 30  2  0
 30 31  1  0
 21 32  2  0
  6 33  1  0
 33 34  1  0
 34 35  1  0
 35  4  1  0
 32  7  1  0
 19 10  1  0
 31 22  1  0
 18 13  1  0
 30 25  1  0
  1 36  1  0
  1 37  1  0
  1 38  1  0
  2 39  1  0
  2 40  1  0
  3 41  1  0
  4 42  1  1
  5 43  1  0
  5 44  1  0
 11 45  1  0
 11 46  1  0
 12 47  1  0
 12 48  1  0
 14 49  1  0
 15 50  1  0
 16 51  1  0
 17 52  1  0
 19 53  1  0
 19 54  1  0
 23 55  1  0
 23 56  1  0
 24 57  1  0
 24 58  1  0
 26 59  1  0
 27 60  1  0
 28 61  1  0
 29 62  1  0
 31 63  1  0
 31 64  1  0
 33 65  1  0
 33 66  1  0
 34 67  1  0
 34 68  1  0
M  END
>  <smiles>  (86) 
CCNC1CN(c2nc(N3CCc4ccccc4C3)nc(N3CCc4ccccc4C3)n2)CCO1

>  <score_type>  (86) 
oracle

>  <origin>  (86) 
autodockgpu

>  <m_score__min__energy>  (86) 
-10.41

>  <m_primary>  (86) 
energy

>  <rmsd>  (86) 
7.293422270925745

>  <m_score__min__rmsd>  (86) 
7.293422270925745

>  <meeko>  (86) 
{"free_energy": -10.31, "intermolecular_energy": -11.81, "internal_energy": -1.0, "cluster_size": 49, "cluster_id": 1, "rank_in_cluster": 16}

>  <energy>  (86) 
-10.26

>  <cluster_rmsd>  (86) 
1.2

>  <cluster>  (86) 
1

$$$$

     RDKit          3D

 68 73  0  0  0  0  0  0  0  0999 V2000
  145.8200   67.6170  219.3870 C   0  0  0  0  0  0  0  0  0  0  0  0
  145.1260   68.9360  219.3290 C   0  0  0  0  0  0  0  0  0  0  0  0
  145.9920   70.0470  218.9820 N   0  0  0  0  0  0  0  0  0  0  0  0
  145.1350   71.2110  218.8610 C   0  0  1  0  0  0  0  0  0  0  0  0
  144.3050   71.4350  220.0940 C   0  0  0  0  0  0  0  0  0  0  0  0
  143.7450   72.7460  220.1730 N   0  0  0  0  0  0  0  0  0  0  0  0
  142.5830   73.0930  220.9130 C   0  0  0  0  0  0  0  0  0  0  0  0
  141.9540   72.2020  221.6990 N   0  0  0  0  0  0  0  0  0  0  0  0
  140.8400   72.5200  222.4120 C   0  0  0  0  0  0  0  0  0  0  0  0
  140.2120   71.5310  223.2340 N   0  0  0  0  0  0  0  0  0  0  0  0
  139.4740   70.4640  222.5770 C   0  0  0  0  0  0  0  0  0  0  0  0
  138.4530   69.8400  223.5120 C   0  0  0  0  0  0  0  0  0  0  0  0
  139.2180   69.3780  224.7260 C   0  0  0  0  0  0  0  0  0  0  0  0
  139.0100   68.1250  225.2550 C   0  0  0  0  0  0  0  0  0  0  0  0
  139.7270   67.7330  226.3660 C   0  0  0  0  0  0  0  0  0  0  0  0
  140.6350   68.6170  226.9120 C   0  0  0  0  0  0  0  0  0  0  0  0
  140.8350   69.8860  226.3640 C   0  0  0  0  0  0  0  0  0  0  0  0
  140.1150   70.2870  225.2440 C   0  0  0  0  0  0  0  0  0  0  0  0
  140.3360   71.6380  224.6730 C   0  0  0  0  0  0  0  0  0  0  0  0
  140.3480   73.7670  222.3310 N   0  0  0  0  0  0  0  0  0  0  0  0
  140.9560   74.6790  221.5530 C   0  0  0  0  0  0  0  0  0  0  0  0
  140.4740   76.0160  221.4320 N   0  0  0  0  0  0  0  0  0  0  0  0
  139.0540   76.3370  221.4750 C   0  0  0  0  0  0  0  0  0  0  0  0
  138.8280   77.1770  222.7130 C   0  0  0  0  0  0  0  0  0  0  0  0
  139.7140   78.3720  222.5910 C   0  0  0  0  0  0  0  0  0  0  0  0
  139.3350   79.5650  223.1630 C   0  0  0  0  0  0  0  0  0  0  0  0
  140.1390   80.6750  223.0610 C   0  0  0  0  0  0  0  0  0  0  0  0
  141.3450   80.6690  222.3970 C   0  0  0  0  0  0  0  0  0  0  0  0
  141.7400   79.4620  221.8130 C   0  0  0  0  0  0  0  0  0  0  0  0
  140.9230   78.3380  221.9190 C   0  0  0  0  0  0  0  0  0  0  0  0
  141.4350   77.0960  221.2600 C   0  0  0  0  0  0  0  0  0  0  0  0
  142.0650   74.3280  220.8550 N   0  0  0  0  0  0  0  0  0  0  0  0
  144.4320   73.8120  219.4290 C   0  0  0  0  0  0  0  0  0  0  0  0
  145.8860   73.3290  219.3690 C   0  0  0  0  0  0  0  0  0  0  0  0
  145.8920   72.2750  218.4580 O   0  0  0  0  0  0  0  0  0  0  0  0
  145.9718   67.3284  220.4376 H   0  0  0  0  0  0  0  0  0  0  0  0
  145.2052   66.8567  218.8831 H   0  0  0  0  0  0  0  0  0  0  0  0
  146.7948   67.6931  218.8831 H   0  0  0  0  0  0  0  0  0  0  0  0
  144.3268   68.8728  218.5758 H   0  0  0  0  0  0  0  0  0  0  0  0
  144.7425   69.1370  220.3402 H   0  0  0  0  0  0  0  0  0  0  0  0
  146.4910   69.8750  218.0970 H   0  0  0  0  0  0  0  0  0  0  0  0
  144.3759   71.0507  218.0811 H   0  0  0  0  0  0  0  0  0  0  0  0
  143.4827   70.7043  220.0977 H   0  0  0  0  0  0  0  0  0  0  0  0
  144.9729   71.3157  220.9598 H   0  0  0  0  0  0  0  0  0  0  0  0
  138.9521   70.8765  221.7010 H   0  0  0  0  0  0  0  0  0  0  0  0
  140.1884   69.6843  222.2741 H   0  0  0  0  0  0  0  0  0  0  0  0
  137.6953   70.5837  223.7995 H   0  0  0  0  0  0  0  0  0  0  0  0
  137.9269   69.0036  223.0287 H   0  0  0  0  0  0  0  0  0  0  0  0
  138.2791   67.4427  224.7964 H   0  0  0  0  0  0  0  0  0  0  0  0
  139.5782   66.7366  226.8076 H   0  0  0  0  0  0  0  0  0  0  0  0
  141.2136   68.3158  227.7977 H   0  0  0  0  0  0  0  0  0  0  0  0
  141.5649   70.5709  226.8202 H   0  0  0  0  0  0  0  0  0  0  0  0
  139.5826   72.3380  225.0634 H   0  0  0  0  0  0  0  0  0  0  0  0
  141.3320   72.0153  224.9479 H   0  0  0  0  0  0  0  0  0  0  0  0
  138.7673   76.9033  220.5766 H   0  0  0  0  0  0  0  0  0  0  0  0
  138.4452   75.4214  221.5052 H   0  0  0  0  0  0  0  0  0  0  0  0
  137.7752   77.4905  222.7709 H   0  0  0  0  0  0  0  0  0  0  0  0
  139.0584   76.6063  223.6247 H   0  0  0  0  0  0  0  0  0  0  0  0
  138.3808   79.6307  223.7063 H   0  0  0  0  0  0  0  0  0  0  0  0
  139.8036   81.6110  223.5314 H   0  0  0  0  0  0  0  0  0  0  0  0
  141.9690   81.5724  222.3292 H   0  0  0  0  0  0  0  0  0  0  0  0
  142.6948   79.3994  221.2703 H   0  0  0  0  0  0  0  0  0  0  0  0
  141.5828   77.2862  220.1867 H   0  0  0  0  0  0  0  0  0  0  0  0
  142.3919   76.8082  221.7199 H   0  0  0  0  0  0  0  0  0  0  0  0
  144.0116   73.9194  218.4182 H   0  0  0  0  0  0  0  0  0  0  0  0
  144.3284   74.7994  219.9026 H   0  0  0  0  0  0  0  0  0  0  0  0
  146.5459   74.1387  219.0241 H   0  0  0  0  0  0  0  0  0  0  0  0
  146.2524   73.0153  220.3576 H   0  0  0  0  0  0  0  0  0  0  0  0
  1  2  1  0
  2  3  1  0
  3  4  1  0
  4  5  1  0
  5  6  1  0
  6  7  1  0
  7  8  2  0
  8  9  1  0
  9 10  1  0
 10 11  1  0
 11 12  1  0
 12 13  1  0
 13 14  2  0
 14 15  1  0
 15 16  2  0
 16 17  1  0
 17 18  2  0
 18 19  1  0
  9 20  2  0
 20 21  1  0
 21 22  1  0
 22 23  1  0
 23 24  1  0
 24 25  1  0
 25 26  2  0
 26 27  1  0
 27 28  2  0
 28 29  1  0
 29 30  2  0
 30 31  1  0
 21 32  2  0
  6 33  1  0
 33 34  1  0
 34 35  1  0
 35  4  1  0
 32  7  1  0
 19 10  1  0
 31 22  1  0
 18 13  1  0
 30 25  1  0
  1 36  1  0
  1 37  1  0
  1 38  1  0
  2 39  1  0
  2 40  1  0
  3 41  1  0
  4 42  1  6
  5 43  1  0
  5 44  1  0
 11 45  1  0
 11 46  1  0
 12 47  1  0
 12 48  1  0
 14 49  1  0
 15 50  1  0
 16 51  1  0
 17 52  1  0
 19 53  1  0
 19 54  1  0
 23 55  1  0
 23 56  1  0
 24 57  1  0
 24 58  1  0
 26 59  1  0
 27 60  1  0
 28 61  1  0
 29 62  1  0
 31 63  1  0
 31 64  1  0
 33 65  1  0
 33 66  1  0
 34 67  1  0
 34 68  1  0
M  END
>  <smiles>  (87) 
CCNC1CN(c2nc(N3CCc4ccccc4C3)nc(N3CCc4ccccc4C3)n2)CCO1

>  <score_type>  (87) 
oracle

>  <origin>  (87) 
autodockgpu

>  <m_score__min__energy>  (87) 
-10.41

>  <m_primary>  (87) 
energy

>  <rmsd>  (87) 
9.283402512329133

>  <m_score__min__rmsd>  (87) 
9.283402512329133

>  <meeko>  (87) 
{"free_energy": -10.27, "intermolecular_energy": -11.76, "internal_energy": -0.97, "cluster_size": 49, "cluster_id": 1, "rank_in_cluster": 33}

>  <energy>  (87) 
-10.26

>  <cluster_rmsd>  (87) 
1.21

>  <cluster>  (87) 
1

$$$$

     RDKit          3D

 68 73  0  0  0  0  0  0  0  0999 V2000
  146.2890   73.9890  216.0220 C   0  0  0  0  0  0  0  0  0  0  0  0
  145.5160   73.5130  217.2070 C   0  0  0  0  0  0  0  0  0  0  0  0
  146.3280   73.2710  218.3850 N   0  0  0  0  0  0  0  0  0  0  0  0
  145.5160   72.4720  219.2830 C   0  0  1  0  0  0  0  0  0  0  0  0
  144.2260   73.1560  219.6420 C   0  0  0  0  0  0  0  0  0  0  0  0
  143.2500   72.2750  220.1990 N   0  0  0  0  0  0  0  0  0  0  0  0
  142.1820   72.6740  221.0460 C   0  0  0  0  0  0  0  0  0  0  0  0
  141.6540   71.8400  221.9590 N   0  0  0  0  0  0  0  0  0  0  0  0
  140.6320   72.2070  222.7760 C   0  0  0  0  0  0  0  0  0  0  0  0
  140.1090   71.2760  223.7300 N   0  0  0  0  0  0  0  0  0  0  0  0
  139.3580   70.1360  223.2320 C   0  0  0  0  0  0  0  0  0  0  0  0
  138.4420   69.5680  224.3010 C   0  0  0  0  0  0  0  0  0  0  0  0
  139.3210   69.2360  225.4800 C   0  0  0  0  0  0  0  0  0  0  0  0
  139.2030   68.0280  226.1290 C   0  0  0  0  0  0  0  0  0  0  0  0
  140.0230   67.7560  227.2030 C   0  0  0  0  0  0  0  0  0  0  0  0
  140.9410   68.7090  227.5920 C   0  0  0  0  0  0  0  0  0  0  0  0
  141.0500   69.9310  226.9230 C   0  0  0  0  0  0  0  0  0  0  0  0
  140.2250   70.2110  225.8390 C   0  0  0  0  0  0  0  0  0  0  0  0
  140.3500   71.5130  225.1380 C   0  0  0  0  0  0  0  0  0  0  0  0
  140.1270   73.4470  222.6710 N   0  0  0  0  0  0  0  0  0  0  0  0
  140.6350   74.3040  221.7680 C   0  0  0  0  0  0  0  0  0  0  0  0
  140.1350   75.6320  221.6170 N   0  0  0  0  0  0  0  0  0  0  0  0
  138.7140   75.9160  221.4710 C   0  0  0  0  0  0  0  0  0  0  0  0
  138.2950   76.7120  222.6880 C   0  0  0  0  0  0  0  0  0  0  0  0
  139.1540   77.9310  222.7220 C   0  0  0  0  0  0  0  0  0  0  0  0
  138.6650   79.0960  223.2670 C   0  0  0  0  0  0  0  0  0  0  0  0
  139.4430   80.2290  223.3070 C   0  0  0  0  0  0  0  0  0  0  0  0
  140.7280   80.2730  222.8180 C   0  0  0  0  0  0  0  0  0  0  0  0
  141.2350   79.0950  222.2630 C   0  0  0  0  0  0  0  0  0  0  0  0
  140.4450   77.9480  222.2240 C   0  0  0  0  0  0  0  0  0  0  0  0
  141.0790   76.7400  221.6090 C   0  0  0  0  0  0  0  0  0  0  0  0
  141.6550   73.9040  220.9690 N   0  0  0  0  0  0  0  0  0  0  0  0
  143.3690   70.8490  219.8650 C   0  0  0  0  0  0  0  0  0  0  0  0
  144.0710   70.8570  218.5010 C   0  0  0  0  0  0  0  0  0  0  0  0
  145.3920   71.2140  218.7640 O   0  0  0  0  0  0  0  0  0  0  0  0
  147.1799   74.5376  216.3616 H   0  0  0  0  0  0  0  0  0  0  0  0
  146.5993   73.1253  215.4156 H   0  0  0  0  0  0  0  0  0  0  0  0
  145.6574   74.6549  215.4156 H   0  0  0  0  0  0  0  0  0  0  0  0
  144.7628   74.2747  217.4570 H   0  0  0  0  0  0  0  0  0  0  0  0
  145.0675   72.5484  216.9269 H   0  0  0  0  0  0  0  0  0  0  0  0
  146.6060   74.1520  218.8410 H   0  0  0  0  0  0  0  0  0  0  0  0
  146.0146   72.3629  220.2574 H   0  0  0  0  0  0  0  0  0  0  0  0
  144.4430   73.9448  220.3773 H   0  0  0  0  0  0  0  0  0  0  0  0
  143.8034   73.5594  218.7100 H   0  0  0  0  0  0  0  0  0  0  0  0
  138.7504   70.4553  222.3724 H   0  0  0  0  0  0  0  0  0  0  0  0
  140.0718   69.3534  222.9354 H   0  0  0  0  0  0  0  0  0  0  0  0
  137.6848   70.3124  224.5883 H   0  0  0  0  0  0  0  0  0  0  0  0
  137.9081   68.6776  223.9376 H   0  0  0  0  0  0  0  0  0  0  0  0
  138.4620   67.2873  225.7940 H   0  0  0  0  0  0  0  0  0  0  0  0
  139.9468   66.7984  227.7389 H   0  0  0  0  0  0  0  0  0  0  0  0
  141.6015   68.5027  228.4471 H   0  0  0  0  0  0  0  0  0  0  0  0
  141.7905   70.6737  227.2548 H   0  0  0  0  0  0  0  0  0  0  0  0
  139.6082   72.2237  225.5313 H   0  0  0  0  0  0  0  0  0  0  0  0
  141.3517   71.9407  225.2923 H   0  0  0  0  0  0  0  0  0  0  0  0
  138.5378   76.5022  220.5570 H   0  0  0  0  0  0  0  0  0  0  0  0
  138.1335   74.9850  221.3917 H   0  0  0  0  0  0  0  0  0  0  0  0
  137.2357   76.9973  222.6077 H   0  0  0  0  0  0  0  0  0  0  0  0
  138.4136   76.1196  223.6073 H   0  0  0  0  0  0  0  0  0  0  0  0
  137.6434   79.1211  223.6740 H   0  0  0  0  0  0  0  0  0  0  0  0
  139.0185   81.1419  223.7503 H   0  0  0  0  0  0  0  0  0  0  0  0
  141.3289   81.1933  222.8618 H   0  0  0  0  0  0  0  0  0  0  0  0
  142.2572   79.0733  221.8572 H   0  0  0  0  0  0  0  0  0  0  0  0
  141.3678   76.9667  220.5721 H   0  0  0  0  0  0  0  0  0  0  0  0
  141.9714   76.4621  222.1890 H   0  0  0  0  0  0  0  0  0  0  0  0
  143.9740   70.3188  220.6153 H   0  0  0  0  0  0  0  0  0  0  0  0
  142.3984   70.3319  219.8438 H   0  0  0  0  0  0  0  0  0  0  0  0
  144.0269   69.8592  218.0402 H   0  0  0  0  0  0  0  0  0  0  0  0
  143.5915   71.5556  217.7995 H   0  0  0  0  0  0  0  0  0  0  0  0
  1  2  1  0
  2  3  1  0
  3  4  1  0
  4  5  1  0
  5  6  1  0
  6  7  1  0
  7  8  2  0
  8  9  1  0
  9 10  1  0
 10 11  1  0
 11 12  1  0
 12 13  1  0
 13 14  2  0
 14 15  1  0
 15 16  2  0
 16 17  1  0
 17 18  2  0
 18 19  1  0
  9 20  2  0
 20 21  1  0
 21 22  1  0
 22 23  1  0
 23 24  1  0
 24 25  1  0
 25 26  2  0
 26 27  1  0
 27 28  2  0
 28 29  1  0
 29 30  2  0
 30 31  1  0
 21 32  2  0
  6 33  1  0
 33 34  1  0
 34 35  1  0
 35  4  1  0
 32  7  1  0
 19 10  1  0
 31 22  1  0
 18 13  1  0
 30 25  1  0
  1 36  1  0
  1 37  1  0
  1 38  1  0
  2 39  1  0
  2 40  1  0
  3 41  1  0
  4 42  1  1
  5 43  1  0
  5 44  1  0
 11 45  1  0
 11 46  1  0
 12 47  1  0
 12 48  1  0
 14 49  1  0
 15 50  1  0
 16 51  1  0
 17 52  1  0
 19 53  1  0
 19 54  1  0
 23 55  1  0
 23 56  1  0
 24 57  1  0
 24 58  1  0
 26 59  1  0
 27 60  1  0
 28 61  1  0
 29 62  1  0
 31 63  1  0
 31 64  1  0
 33 65  1  0
 33 66  1  0
 34 67  1  0
 34 68  1  0
M  END
>  <smiles>  (88) 
CCNC1CN(c2nc(N3CCc4ccccc4C3)nc(N3CCc4ccccc4C3)n2)CCO1

>  <score_type>  (88) 
oracle

>  <origin>  (88) 
autodockgpu

>  <m_score__min__energy>  (88) 
-10.41

>  <m_primary>  (88) 
energy

>  <rmsd>  (88) 
7.4235262593108295

>  <m_score__min__rmsd>  (88) 
7.4235262593108295

>  <meeko>  (88) 
{"free_energy": -10.38, "intermolecular_energy": -11.87, "internal_energy": -0.96, "cluster_size": 49, "cluster_id": 1, "rank_in_cluster": 5}

>  <energy>  (88) 
-10.26

>  <cluster_rmsd>  (88) 
1.22

>  <cluster>  (88) 
1

$$$$

     RDKit          3D

 68 73  0  0  0  0  0  0  0  0999 V2000
  144.1340   72.4300  215.4310 C   0  0  0  0  0  0  0  0  0  0  0  0
  144.2290   73.6160  216.3320 C   0  0  0  0  0  0  0  0  0  0  0  0
  145.5120   73.7570  216.9940 N   0  0  0  0  0  0  0  0  0  0  0  0
  145.2830   73.4610  218.3960 C   0  0  1  0  0  0  0  0  0  0  0  0
  143.8230   73.5100  218.7550 C   0  0  0  0  0  0  0  0  0  0  0  0
  143.5210   72.8710  219.9950 N   0  0  0  0  0  0  0  0  0  0  0  0
  142.3900   73.1590  220.8060 C   0  0  0  0  0  0  0  0  0  0  0  0
  141.8370   72.2280  221.6030 N   0  0  0  0  0  0  0  0  0  0  0  0
  140.7550   72.4890  222.3840 C   0  0  0  0  0  0  0  0  0  0  0  0
  140.2070   71.4600  223.2140 N   0  0  0  0  0  0  0  0  0  0  0  0
  139.5240   70.3520  222.5680 C   0  0  0  0  0  0  0  0  0  0  0  0
  138.5640   69.6620  223.5210 C   0  0  0  0  0  0  0  0  0  0  0  0
  139.3830   69.2440  224.7160 C   0  0  0  0  0  0  0  0  0  0  0  0
  139.2650   67.9780  225.2430 C   0  0  0  0  0  0  0  0  0  0  0  0
  140.0300   67.6280  226.3360 C   0  0  0  0  0  0  0  0  0  0  0  0
  140.8910   68.5650  226.8670 C   0  0  0  0  0  0  0  0  0  0  0  0
  141.0000   69.8460  226.3210 C   0  0  0  0  0  0  0  0  0  0  0  0
  140.2330   70.2050  225.2190 C   0  0  0  0  0  0  0  0  0  0  0  0
  140.3560   71.5700  224.6500 C   0  0  0  0  0  0  0  0  0  0  0  0
  140.2160   73.7200  222.3610 N   0  0  0  0  0  0  0  0  0  0  0  0
  140.7480   74.6700  221.5740 C   0  0  0  0  0  0  0  0  0  0  0  0
  140.2150   75.9920  221.5130 N   0  0  0  0  0  0  0  0  0  0  0  0
  138.7860   76.2490  221.3910 C   0  0  0  0  0  0  0  0  0  0  0  0
  138.3530   76.9510  222.6590 C   0  0  0  0  0  0  0  0  0  0  0  0
  139.1810   78.1870  222.7720 C   0  0  0  0  0  0  0  0  0  0  0  0
  138.6650   79.3000  223.3950 C   0  0  0  0  0  0  0  0  0  0  0  0
  139.4150   80.4480  223.5080 C   0  0  0  0  0  0  0  0  0  0  0  0
  140.6960   80.5570  223.0180 C   0  0  0  0  0  0  0  0  0  0  0  0
  141.2300   79.4320  222.3840 C   0  0  0  0  0  0  0  0  0  0  0  0
  140.4680   78.2700  222.2720 C   0  0  0  0  0  0  0  0  0  0  0  0
  141.1300   77.1230  221.5760 C   0  0  0  0  0  0  0  0  0  0  0  0
  141.8280   74.3760  220.8070 N   0  0  0  0  0  0  0  0  0  0  0  0
  144.4570   71.8370  220.4600 C   0  0  0  0  0  0  0  0  0  0  0  0
  145.0710   71.2990  219.1620 C   0  0  0  0  0  0  0  0  0  0  0  0
  145.9300   72.3000  218.7130 O   0  0  0  0  0  0  0  0  0  0  0  0
  144.0607   71.5145  216.0364 H   0  0  0  0  0  0  0  0  0  0  0  0
  143.2404   72.5224  214.7963 H   0  0  0  0  0  0  0  0  0  0  0  0
  145.0309   72.3790  214.7963 H   0  0  0  0  0  0  0  0  0  0  0  0
  144.0487   74.5204  215.7324 H   0  0  0  0  0  0  0  0  0  0  0  0
  143.4783   73.4735  217.1233 H   0  0  0  0  0  0  0  0  0  0  0  0
  145.8910   74.7080  216.8850 H   0  0  0  0  0  0  0  0  0  0  0  0
  145.7178   74.2469  219.0311 H   0  0  0  0  0  0  0  0  0  0  0  0
  143.5160   74.5641  218.8224 H   0  0  0  0  0  0  0  0  0  0  0  0
  143.2776   72.9667  217.9692 H   0  0  0  0  0  0  0  0  0  0  0  0
  138.9589   70.7340  221.7050 H   0  0  0  0  0  0  0  0  0  0  0  0
  140.2792   69.6196  222.2466 H   0  0  0  0  0  0  0  0  0  0  0  0
  137.7678   70.3559  223.8286 H   0  0  0  0  0  0  0  0  0  0  0  0
  138.0803   68.7964  223.0448 H   0  0  0  0  0  0  0  0  0  0  0  0
  138.5680   67.2531  224.7972 H   0  0  0  0  0  0  0  0  0  0  0  0
  139.9548   66.6222  226.7750 H   0  0  0  0  0  0  0  0  0  0  0  0
  141.5053   68.2979  227.7395 H   0  0  0  0  0  0  0  0  0  0  0  0
  141.6955   70.5735  226.7649 H   0  0  0  0  0  0  0  0  0  0  0  0
  139.5690   72.2198  225.0602 H   0  0  0  0  0  0  0  0  0  0  0  0
  141.3320   72.0086  224.9049 H   0  0  0  0  0  0  0  0  0  0  0  0
  138.5906   76.8901  220.5187 H   0  0  0  0  0  0  0  0  0  0  0  0
  138.2289   75.3108  221.2519 H   0  0  0  0  0  0  0  0  0  0  0  0
  137.2864   77.2137  222.6010 H   0  0  0  0  0  0  0  0  0  0  0  0
  138.4912   76.3019  223.5363 H   0  0  0  0  0  0  0  0  0  0  0  0
  137.6450   79.2718  223.8059 H   0  0  0  0  0  0  0  0  0  0  0  0
  138.9702   81.3181  224.0130 H   0  0  0  0  0  0  0  0  0  0  0  0
  141.2736   81.4875  223.1207 H   0  0  0  0  0  0  0  0  0  0  0  0
  142.2502   79.4633  221.9739 H   0  0  0  0  0  0  0  0  0  0  0  0
  141.4077   77.4257  220.5556 H   0  0  0  0  0  0  0  0  0  0  0  0
  142.0321   76.8307  222.1334 H   0  0  0  0  0  0  0  0  0  0  0  0
  145.2307   72.2710  221.1104 H   0  0  0  0  0  0  0  0  0  0  0  0
  143.9677   71.0545  221.0586 H   0  0  0  0  0  0  0  0  0  0  0  0
  145.6299   70.3718  219.3567 H   0  0  0  0  0  0  0  0  0  0  0  0
  144.3000   71.0580  218.4154 H   0  0  0  0  0  0  0  0  0  0  0  0
  1  2  1  0
  2  3  1  0
  3  4  1  0
  4  5  1  0
  5  6  1  0
  6  7  1  0
  7  8  2  0
  8  9  1  0
  9 10  1  0
 10 11  1  0
 11 12  1  0
 12 13  1  0
 13 14  2  0
 14 15  1  0
 15 16  2  0
 16 17  1  0
 17 18  2  0
 18 19  1  0
  9 20  2  0
 20 21  1  0
 21 22  1  0
 22 23  1  0
 23 24  1  0
 24 25  1  0
 25 26  2  0
 26 27  1  0
 27 28  2  0
 28 29  1  0
 29 30  2  0
 30 31  1  0
 21 32  2  0
  6 33  1  0
 33 34  1  0
 34 35  1  0
 35  4  1  0
 32  7  1  0
 19 10  1  0
 31 22  1  0
 18 13  1  0
 30 25  1  0
  1 36  1  0
  1 37  1  0
  1 38  1  0
  2 39  1  0
  2 40  1  0
  3 41  1  0
  4 42  1  1
  5 43  1  0
  5 44  1  0
 11 45  1  0
 11 46  1  0
 12 47  1  0
 12 48  1  0
 14 49  1  0
 15 50  1  0
 16 51  1  0
 17 52  1  0
 19 53  1  0
 19 54  1  0
 23 55  1  0
 23 56  1  0
 24 57  1  0
 24 58  1  0
 26 59  1  0
 27 60  1  0
 28 61  1  0
 29 62  1  0
 31 63  1  0
 31 64  1  0
 33 65  1  0
 33 66  1  0
 34 67  1  0
 34 68  1  0
M  END
>  <smiles>  (89) 
CCNC1CN(c2nc(N3CCc4ccccc4C3)nc(N3CCc4ccccc4C3)n2)CCO1

>  <score_type>  (89) 
oracle

>  <origin>  (89) 
autodockgpu

>  <m_score__min__energy>  (89) 
-10.41

>  <m_primary>  (89) 
energy

>  <rmsd>  (89) 
7.898920452982374

>  <m_score__min__rmsd>  (89) 
7.898920452982374

>  <meeko>  (89) 
{"free_energy": -9.85, "intermolecular_energy": -11.34, "internal_energy": -1.03, "cluster_size": 49, "cluster_id": 1, "rank_in_cluster": 48}

>  <energy>  (89) 
-10.25

>  <cluster_rmsd>  (89) 
1.24

>  <cluster>  (89) 
1

$$$$

     RDKit          3D

 68 73  0  0  0  0  0  0  0  0999 V2000
  144.8330   74.6240  215.9630 C   0  0  0  0  0  0  0  0  0  0  0  0
  145.1270   73.3180  216.6220 C   0  0  0  0  0  0  0  0  0  0  0  0
  146.1480   73.3900  217.6500 N   0  0  0  0  0  0  0  0  0  0  0  0
  145.5830   72.7650  218.8310 C   0  0  1  0  0  0  0  0  0  0  0  0
  144.1920   73.2550  219.1210 C   0  0  0  0  0  0  0  0  0  0  0  0
  143.4690   72.4150  220.0210 N   0  0  0  0  0  0  0  0  0  0  0  0
  142.3810   72.8360  220.8330 C   0  0  0  0  0  0  0  0  0  0  0  0
  141.7720   71.9980  221.6890 N   0  0  0  0  0  0  0  0  0  0  0  0
  140.7300   72.3860  222.4710 C   0  0  0  0  0  0  0  0  0  0  0  0
  140.1200   71.4500  223.3660 N   0  0  0  0  0  0  0  0  0  0  0  0
  139.2100   70.4640  222.8070 C   0  0  0  0  0  0  0  0  0  0  0  0
  138.2610   69.9260  223.8630 C   0  0  0  0  0  0  0  0  0  0  0  0
  139.1250   69.3810  224.9710 C   0  0  0  0  0  0  0  0  0  0  0  0
  138.8690   68.1470  225.5220 C   0  0  0  0  0  0  0  0  0  0  0  0
  139.6800   67.6780  226.5350 C   0  0  0  0  0  0  0  0  0  0  0  0
  140.7270   68.4680  226.9620 C   0  0  0  0  0  0  0  0  0  0  0  0
  140.9750   69.7190  226.3930 C   0  0  0  0  0  0  0  0  0  0  0  0
  140.1610   70.1970  225.3720 C   0  0  0  0  0  0  0  0  0  0  0  0
  140.4330   71.5290  224.7770 C   0  0  0  0  0  0  0  0  0  0  0  0
  140.2900   73.6530  222.3890 N   0  0  0  0  0  0  0  0  0  0  0  0
  140.8800   74.5140  221.5420 C   0  0  0  0  0  0  0  0  0  0  0  0
  140.4510   75.8690  221.4160 N   0  0  0  0  0  0  0  0  0  0  0  0
  139.0450   76.2470  221.4660 C   0  0  0  0  0  0  0  0  0  0  0  0
  138.8600   77.1020  222.7010 C   0  0  0  0  0  0  0  0  0  0  0  0
  139.7930   78.2590  222.5680 C   0  0  0  0  0  0  0  0  0  0  0  0
  139.4650   79.4690  223.1350 C   0  0  0  0  0  0  0  0  0  0  0  0
  140.3130   80.5450  223.0230 C   0  0  0  0  0  0  0  0  0  0  0  0
  141.5130   80.4870  222.3520 C   0  0  0  0  0  0  0  0  0  0  0  0
  141.8560   79.2630  221.7730 C   0  0  0  0  0  0  0  0  0  0  0  0
  140.9950   78.1730  221.8890 C   0  0  0  0  0  0  0  0  0  0  0  0
  141.4540   76.9080  221.2340 C   0  0  0  0  0  0  0  0  0  0  0  0
  141.9170   74.0930  220.7760 N   0  0  0  0  0  0  0  0  0  0  0  0
  143.8900   71.0100  220.1090 C   0  0  0  0  0  0  0  0  0  0  0  0
  144.5040   70.7330  218.7310 C   0  0  0  0  0  0  0  0  0  0  0  0
  145.7210   71.4100  218.7220 O   0  0  0  0  0  0  0  0  0  0  0  0
  144.6601   75.3918  216.7315 H   0  0  0  0  0  0  0  0  0  0  0  0
  145.6873   74.9188  215.3358 H   0  0  0  0  0  0  0  0  0  0  0  0
  143.9348   74.5243  215.3358 H   0  0  0  0  0  0  0  0  0  0  0  0
  144.1993   72.9465  217.0818 H   0  0  0  0  0  0  0  0  0  0  0  0
  145.5114   72.6473  215.8395 H   0  0  0  0  0  0  0  0  0  0  0  0
  146.4140   74.3650  217.8520 H   0  0  0  0  0  0  0  0  0  0  0  0
  146.1409   73.0662  219.7299 H   0  0  0  0  0  0  0  0  0  0  0  0
  144.2618   74.2600  219.5626 H   0  0  0  0  0  0  0  0  0  0  0  0
  143.6436   73.2558  218.1675 H   0  0  0  0  0  0  0  0  0  0  0  0
  138.6230   70.9333  222.0037 H   0  0  0  0  0  0  0  0  0  0  0  0
  139.8050   69.6254  222.4162 H   0  0  0  0  0  0  0  0  0  0  0  0
  137.6179   70.7331  224.2437 H   0  0  0  0  0  0  0  0  0  0  0  0
  137.6032   69.1473  223.4495 H   0  0  0  0  0  0  0  0  0  0  0  0
  138.0264   67.5403  225.1588 H   0  0  0  0  0  0  0  0  0  0  0  0
  139.4955   66.6948  226.9924 H   0  0  0  0  0  0  0  0  0  0  0  0
  141.3810   68.1046  227.7684 H   0  0  0  0  0  0  0  0  0  0  0  0
  141.8169   70.3282  226.7536 H   0  0  0  0  0  0  0  0  0  0  0  0
  139.8028   72.2909  225.2590 H   0  0  0  0  0  0  0  0  0  0  0  0
  141.4863   71.8101  224.9240 H   0  0  0  0  0  0  0  0  0  0  0  0
  138.7756   76.8197  220.5663 H   0  0  0  0  0  0  0  0  0  0  0  0
  138.4004   75.3565  221.5050 H   0  0  0  0  0  0  0  0  0  0  0  0
  137.8212   77.4584  222.7628 H   0  0  0  0  0  0  0  0  0  0  0  0
  139.0719   76.5270  223.6145 H   0  0  0  0  0  0  0  0  0  0  0  0
  138.5168   79.5761  223.6822 H   0  0  0  0  0  0  0  0  0  0  0  0
  140.0189   81.4960  223.4912 H   0  0  0  0  0  0  0  0  0  0  0  0
  142.1720   81.3644  222.2751 H   0  0  0  0  0  0  0  0  0  0  0  0
  142.8047   79.1594  221.2260 H   0  0  0  0  0  0  0  0  0  0  0  0
  141.6044   77.0866  220.1591 H   0  0  0  0  0  0  0  0  0  0  0  0
  142.4008   76.5842  221.6909 H   0  0  0  0  0  0  0  0  0  0  0  0
  144.6351   70.8721  220.9063 H   0  0  0  0  0  0  0  0  0  0  0  0
  143.0614   70.3291  220.3535 H   0  0  0  0  0  0  0  0  0  0  0  0
  144.6637   69.6536  218.5914 H   0  0  0  0  0  0  0  0  0  0  0  0
  143.8451   71.0679  217.9163 H   0  0  0  0  0  0  0  0  0  0  0  0
  1  2  1  0
  2  3  1  0
  3  4  1  0
  4  5  1  0
  5  6  1  0
  6  7  1  0
  7  8  2  0
  8  9  1  0
  9 10  1  0
 10 11  1  0
 11 12  1  0
 12 13  1  0
 13 14  2  0
 14 15  1  0
 15 16  2  0
 16 17  1  0
 17 18  2  0
 18 19  1  0
  9 20  2  0
 20 21  1  0
 21 22  1  0
 22 23  1  0
 23 24  1  0
 24 25  1  0
 25 26  2  0
 26 27  1  0
 27 28  2  0
 28 29  1  0
 29 30  2  0
 30 31  1  0
 21 32  2  0
  6 33  1  0
 33 34  1  0
 34 35  1  0
 35  4  1  0
 32  7  1  0
 19 10  1  0
 31 22  1  0
 18 13  1  0
 30 25  1  0
  1 36  1  0
  1 37  1  0
  1 38  1  0
  2 39  1  0
  2 40  1  0
  3 41  1  0
  4 42  1  1
  5 43  1  0
  5 44  1  0
 11 45  1  0
 11 46  1  0
 12 47  1  0
 12 48  1  0
 14 49  1  0
 15 50  1  0
 16 51  1  0
 17 52  1  0
 19 53  1  0
 19 54  1  0
 23 55  1  0
 23 56  1  0
 24 57  1  0
 24 58  1  0
 26 59  1  0
 27 60  1  0
 28 61  1  0
 29 62  1  0
 31 63  1  0
 31 64  1  0
 33 65  1  0
 33 66  1  0
 34 67  1  0
 34 68  1  0
M  END
>  <smiles>  (90) 
CCNC1CN(c2nc(N3CCc4ccccc4C3)nc(N3CCc4ccccc4C3)n2)CCO1

>  <score_type>  (90) 
oracle

>  <origin>  (90) 
autodockgpu

>  <m_score__min__energy>  (90) 
-10.41

>  <m_primary>  (90) 
energy

>  <rmsd>  (90) 
7.343888681695366

>  <m_score__min__rmsd>  (90) 
7.343888681695366

>  <meeko>  (90) 
{"free_energy": -10.32, "intermolecular_energy": -11.82, "internal_energy": -1.0, "cluster_size": 49, "cluster_id": 1, "rank_in_cluster": 12}

>  <energy>  (90) 
-10.25

>  <cluster_rmsd>  (90) 
1.29

>  <cluster>  (90) 
1

$$$$

     RDKit          3D

 68 73  0  0  0  0  0  0  0  0999 V2000
  145.7760   67.6310  219.4500 C   0  0  0  0  0  0  0  0  0  0  0  0
  145.0840   68.9450  219.3080 C   0  0  0  0  0  0  0  0  0  0  0  0
  145.9640   70.0420  218.9510 N   0  0  0  0  0  0  0  0  0  0  0  0
  145.1240   71.2210  218.8450 C   0  0  1  0  0  0  0  0  0  0  0  0
  144.2870   71.4330  220.0750 C   0  0  0  0  0  0  0  0  0  0  0  0
  143.7450   72.7500  220.1750 N   0  0  0  0  0  0  0  0  0  0  0  0
  142.5810   73.0990  220.9110 C   0  0  0  0  0  0  0  0  0  0  0  0
  141.9450   72.2090  221.6910 N   0  0  0  0  0  0  0  0  0  0  0  0
  140.8300   72.5280  222.4010 C   0  0  0  0  0  0  0  0  0  0  0  0
  140.1940   71.5390  223.2170 N   0  0  0  0  0  0  0  0  0  0  0  0
  139.4420   70.4860  222.5530 C   0  0  0  0  0  0  0  0  0  0  0  0
  138.4180   69.8650  223.4860 C   0  0  0  0  0  0  0  0  0  0  0  0
  139.1820   69.3850  224.6940 C   0  0  0  0  0  0  0  0  0  0  0  0
  138.9630   68.1290  225.2130 C   0  0  0  0  0  0  0  0  0  0  0  0
  139.6790   67.7210  226.3180 C   0  0  0  0  0  0  0  0  0  0  0  0
  140.5980   68.5900  226.8680 C   0  0  0  0  0  0  0  0  0  0  0  0
  140.8100   69.8610  226.3300 C   0  0  0  0  0  0  0  0  0  0  0  0
  140.0910   70.2790  225.2160 C   0  0  0  0  0  0  0  0  0  0  0  0
  140.3250   71.6330  224.6560 C   0  0  0  0  0  0  0  0  0  0  0  0
  140.3440   73.7780  222.3220 N   0  0  0  0  0  0  0  0  0  0  0  0
  140.9590   74.6900  221.5510 C   0  0  0  0  0  0  0  0  0  0  0  0
  140.4830   76.0300  221.4320 N   0  0  0  0  0  0  0  0  0  0  0  0
  139.0650   76.3580  221.4770 C   0  0  0  0  0  0  0  0  0  0  0  0
  138.8430   77.1970  222.7170 C   0  0  0  0  0  0  0  0  0  0  0  0
  139.7350   78.3870  222.5970 C   0  0  0  0  0  0  0  0  0  0  0  0
  139.3620   79.5800  223.1710 C   0  0  0  0  0  0  0  0  0  0  0  0
  140.1720   80.6870  223.0720 C   0  0  0  0  0  0  0  0  0  0  0  0
  141.3770   80.6760  222.4070 C   0  0  0  0  0  0  0  0  0  0  0  0
  141.7660   79.4690  221.8210 C   0  0  0  0  0  0  0  0  0  0  0  0
  140.9430   78.3480  221.9250 C   0  0  0  0  0  0  0  0  0  0  0  0
  141.4500   77.1060  221.2620 C   0  0  0  0  0  0  0  0  0  0  0  0
  142.0690   74.3370  220.8560 N   0  0  0  0  0  0  0  0  0  0  0  0
  144.4530   73.8200  219.4560 C   0  0  0  0  0  0  0  0  0  0  0  0
  145.9010   73.3180  219.4000 C   0  0  0  0  0  0  0  0  0  0  0  0
  145.9000   72.2810  218.4690 O   0  0  0  0  0  0  0  0  0  0  0  0
  145.9001   67.3954  220.5173 H   0  0  0  0  0  0  0  0  0  0  0  0
  145.1744   66.8459  218.9687 H   0  0  0  0  0  0  0  0  0  0  0  0
  146.7638   67.6829  218.9687 H   0  0  0  0  0  0  0  0  0  0  0  0
  144.3169   68.8487  218.5255 H   0  0  0  0  0  0  0  0  0  0  0  0
  144.6580   69.1874  220.2928 H   0  0  0  0  0  0  0  0  0  0  0  0
  146.4470   69.8640  218.0580 H   0  0  0  0  0  0  0  0  0  0  0  0
  144.3692   71.0872  218.0561 H   0  0  0  0  0  0  0  0  0  0  0  0
  143.4545   70.7143  220.0577 H   0  0  0  0  0  0  0  0  0  0  0  0
  144.9459   71.2875  220.9437 H   0  0  0  0  0  0  0  0  0  0  0  0
  138.9214   70.9121  221.6827 H   0  0  0  0  0  0  0  0  0  0  0  0
  140.1467   69.7014  222.2403 H   0  0  0  0  0  0  0  0  0  0  0  0
  137.6689   70.6141  223.7821 H   0  0  0  0  0  0  0  0  0  0  0  0
  137.8819   69.0379  222.9975 H   0  0  0  0  0  0  0  0  0  0  0  0
  138.2242   67.4578  224.7507 H   0  0  0  0  0  0  0  0  0  0  0  0
  139.5207   66.7228  226.7522 H   0  0  0  0  0  0  0  0  0  0  0  0
  141.1763   68.2751  227.7492 H   0  0  0  0  0  0  0  0  0  0  0  0
  141.5488   70.5341  226.7894 H   0  0  0  0  0  0  0  0  0  0  0  0
  139.5810   72.3380  225.0553 H   0  0  0  0  0  0  0  0  0  0  0  0
  141.3260   71.9974  224.9303 H   0  0  0  0  0  0  0  0  0  0  0  0
  138.7805   76.9274  220.5799 H   0  0  0  0  0  0  0  0  0  0  0  0
  138.4521   75.4451  221.5063 H   0  0  0  0  0  0  0  0  0  0  0  0
  137.7919   77.5159  222.7754 H   0  0  0  0  0  0  0  0  0  0  0  0
  139.0701   76.6235  223.6278 H   0  0  0  0  0  0  0  0  0  0  0  0
  138.4078   79.6492  223.7138 H   0  0  0  0  0  0  0  0  0  0  0  0
  139.8420   81.6234  223.5456 H   0  0  0  0  0  0  0  0  0  0  0  0
  142.0051   81.5766  222.3400 H   0  0  0  0  0  0  0  0  0  0  0  0
  142.7204   79.4029  221.2781 H   0  0  0  0  0  0  0  0  0  0  0  0
  141.5982   77.2985  220.1892 H   0  0  0  0  0  0  0  0  0  0  0  0
  142.4062   76.8126  221.7198 H   0  0  0  0  0  0  0  0  0  0  0  0
  144.0431   73.9511  218.4437 H   0  0  0  0  0  0  0  0  0  0  0  0
  144.3585   74.8002  219.9462 H   0  0  0  0  0  0  0  0  0  0  0  0
  146.5752   74.1246  219.0762 H   0  0  0  0  0  0  0  0  0  0  0  0
  146.2544   72.9811  220.3857 H   0  0  0  0  0  0  0  0  0  0  0  0
  1  2  1  0
  2  3  1  0
  3  4  1  0
  4  5  1  0
  5  6  1  0
  6  7  1  0
  7  8  2  0
  8  9  1  0
  9 10  1  0
 10 11  1  0
 11 12  1  0
 12 13  1  0
 13 14  2  0
 14 15  1  0
 15 16  2  0
 16 17  1  0
 17 18  2  0
 18 19  1  0
  9 20  2  0
 20 21  1  0
 21 22  1  0
 22 23  1  0
 23 24  1  0
 24 25  1  0
 25 26  2  0
 26 27  1  0
 27 28  2  0
 28 29  1  0
 29 30  2  0
 30 31  1  0
 21 32  2  0
  6 33  1  0
 33 34  1  0
 34 35  1  0
 35  4  1  0
 32  7  1  0
 19 10  1  0
 31 22  1  0
 18 13  1  0
 30 25  1  0
  1 36  1  0
  1 37  1  0
  1 38  1  0
  2 39  1  0
  2 40  1  0
  3 41  1  0
  4 42  1  6
  5 43  1  0
  5 44  1  0
 11 45  1  0
 11 46  1  0
 12 47  1  0
 12 48  1  0
 14 49  1  0
 15 50  1  0
 16 51  1  0
 17 52  1  0
 19 53  1  0
 19 54  1  0
 23 55  1  0
 23 56  1  0
 24 57  1  0
 24 58  1  0
 26 59  1  0
 27 60  1  0
 28 61  1  0
 29 62  1  0
 31 63  1  0
 31 64  1  0
 33 65  1  0
 33 66  1  0
 34 67  1  0
 34 68  1  0
M  END
>  <smiles>  (91) 
CCNC1CN(c2nc(N3CCc4ccccc4C3)nc(N3CCc4ccccc4C3)n2)CCO1

>  <score_type>  (91) 
oracle

>  <origin>  (91) 
autodockgpu

>  <m_score__min__energy>  (91) 
-10.41

>  <m_primary>  (91) 
energy

>  <rmsd>  (91) 
9.274448425340065

>  <m_score__min__rmsd>  (91) 
9.274448425340065

>  <meeko>  (91) 
{"free_energy": -10.27, "intermolecular_energy": -11.77, "internal_energy": -0.97, "cluster_size": 49, "cluster_id": 1, "rank_in_cluster": 32}

>  <energy>  (91) 
-10.25

>  <cluster_rmsd>  (91) 
1.21

>  <cluster>  (91) 
1

$$$$

     RDKit          3D

 68 73  0  0  0  0  0  0  0  0999 V2000
  145.7380   68.0770  219.4110 C   0  0  0  0  0  0  0  0  0  0  0  0
  144.9880   69.3520  219.2130 C   0  0  0  0  0  0  0  0  0  0  0  0
  145.7000   70.3430  218.4290 N   0  0  0  0  0  0  0  0  0  0  0  0
  144.9780   71.5910  218.5940 C   0  0  1  0  0  0  0  0  0  0  0  0
  144.0680   71.5650  219.7910 C   0  0  0  0  0  0  0  0  0  0  0  0
  143.6380   72.8620  220.2060 N   0  0  0  0  0  0  0  0  0  0  0  0
  142.4550   73.1300  220.9460 C   0  0  0  0  0  0  0  0  0  0  0  0
  141.8710   72.1900  221.7100 N   0  0  0  0  0  0  0  0  0  0  0  0
  140.7390   72.4320  222.4230 C   0  0  0  0  0  0  0  0  0  0  0  0
  140.1610   71.3930  223.2210 N   0  0  0  0  0  0  0  0  0  0  0  0
  139.5690   70.2560  222.5370 C   0  0  0  0  0  0  0  0  0  0  0  0
  138.5600   69.5440  223.4200 C   0  0  0  0  0  0  0  0  0  0  0  0
  139.2930   69.1670  224.6820 C   0  0  0  0  0  0  0  0  0  0  0  0
  139.1760   67.9040  225.2150 C   0  0  0  0  0  0  0  0  0  0  0  0
  139.8610   67.5920  226.3710 C   0  0  0  0  0  0  0  0  0  0  0  0
  140.6460   68.5640  226.9560 C   0  0  0  0  0  0  0  0  0  0  0  0
  140.7560   69.8420  226.4030 C   0  0  0  0  0  0  0  0  0  0  0  0
  140.0670   70.1620  225.2380 C   0  0  0  0  0  0  0  0  0  0  0  0
  140.1910   71.5240  224.6630 C   0  0  0  0  0  0  0  0  0  0  0  0
  140.1800   73.6520  222.3640 N   0  0  0  0  0  0  0  0  0  0  0  0
  140.7420   74.6110  221.6090 C   0  0  0  0  0  0  0  0  0  0  0  0
  140.1880   75.9230  221.5130 N   0  0  0  0  0  0  0  0  0  0  0  0
  138.7550   76.1560  221.3950 C   0  0  0  0  0  0  0  0  0  0  0  0
  138.3230   76.8900  222.6460 C   0  0  0  0  0  0  0  0  0  0  0  0
  139.1330   78.1410  222.7130 C   0  0  0  0  0  0  0  0  0  0  0  0
  138.6070   79.2650  223.3060 C   0  0  0  0  0  0  0  0  0  0  0  0
  139.3410   80.4260  223.3780 C   0  0  0  0  0  0  0  0  0  0  0  0
  140.6160   80.5380  222.8740 C   0  0  0  0  0  0  0  0  0  0  0  0
  141.1610   79.4020  222.2700 C   0  0  0  0  0  0  0  0  0  0  0  0
  140.4150   78.2270  222.1990 C   0  0  0  0  0  0  0  0  0  0  0  0
  141.0880   77.0680  221.5330 C   0  0  0  0  0  0  0  0  0  0  0  0
  141.8710   74.3360  220.9100 N   0  0  0  0  0  0  0  0  0  0  0  0
  144.4900   74.0000  219.8340 C   0  0  0  0  0  0  0  0  0  0  0  0
  145.8890   73.3800  219.7230 C   0  0  0  0  0  0  0  0  0  0  0  0
  145.8700   72.6250  218.5530 O   0  0  0  0  0  0  0  0  0  0  0  0
  145.8525   67.8824  220.4876 H   0  0  0  0  0  0  0  0  0  0  0  0
  145.1830   67.2491  218.9457 H   0  0  0  0  0  0  0  0  0  0  0  0
  146.7313   68.1598  218.9457 H   0  0  0  0  0  0  0  0  0  0  0  0
  144.0426   69.1205  218.7006 H   0  0  0  0  0  0  0  0  0  0  0  0
  144.8350   69.7879  220.2113 H   0  0  0  0  0  0  0  0  0  0  0  0
  145.7400   70.0810  217.4330 H   0  0  0  0  0  0  0  0  0  0  0  0
  144.2794   71.7453  217.7584 H   0  0  0  0  0  0  0  0  0  0  0  0
  143.1795   70.9669  219.5403 H   0  0  0  0  0  0  0  0  0  0  0  0
  144.6404   71.1311  220.6241 H   0  0  0  0  0  0  0  0  0  0  0  0
  139.0620   70.6097  221.6271 H   0  0  0  0  0  0  0  0  0  0  0  0
  140.3711   69.5466  222.2854 H   0  0  0  0  0  0  0  0  0  0  0  0
  137.7191   70.2135  223.6536 H   0  0  0  0  0  0  0  0  0  0  0  0
  138.1458   68.6570  222.9184 H   0  0  0  0  0  0  0  0  0  0  0  0
  138.5425   67.1505  224.7242 H   0  0  0  0  0  0  0  0  0  0  0  0
  139.7830   66.5895  226.8169 H   0  0  0  0  0  0  0  0  0  0  0  0
  141.1973   68.3275  227.8780 H   0  0  0  0  0  0  0  0  0  0  0  0
  141.3895   70.5977  226.8904 H   0  0  0  0  0  0  0  0  0  0  0  0
  139.3531   72.1517  225.0004 H   0  0  0  0  0  0  0  0  0  0  0  0
  141.1285   71.9980  224.9892 H   0  0  0  0  0  0  0  0  0  0  0  0
  138.5435   76.7678  220.5057 H   0  0  0  0  0  0  0  0  0  0  0  0
  138.2098   75.2066  221.2882 H   0  0  0  0  0  0  0  0  0  0  0  0
  137.2520   77.1348  222.5907 H   0  0  0  0  0  0  0  0  0  0  0  0
  138.4792   76.2701  223.5412 H   0  0  0  0  0  0  0  0  0  0  0  0
  137.5908   79.2352  223.7262 H   0  0  0  0  0  0  0  0  0  0  0  0
  138.8880   81.3046  223.8604 H   0  0  0  0  0  0  0  0  0  0  0  0
  141.1810   81.4793  222.9433 H   0  0  0  0  0  0  0  0  0  0  0  0
  142.1776   79.4351  221.8511 H   0  0  0  0  0  0  0  0  0  0  0  0
  141.3532   77.3427  220.5014 H   0  0  0  0  0  0  0  0  0  0  0  0
  141.9988   76.8057  222.0912 H   0  0  0  0  0  0  0  0  0  0  0  0
  144.1734   74.4302  218.8724 H   0  0  0  0  0  0  0  0  0  0  0  0
  144.4437   74.8248  220.5603 H   0  0  0  0  0  0  0  0  0  0  0  0
  146.6545   74.1674  219.6599 H   0  0  0  0  0  0  0  0  0  0  0  0
  146.1335   72.7648  220.6015 H   0  0  0  0  0  0  0  0  0  0  0  0
  1  2  1  0
  2  3  1  0
  3  4  1  0
  4  5  1  0
  5  6  1  0
  6  7  1  0
  7  8  2  0
  8  9  1  0
  9 10  1  0
 10 11  1  0
 11 12  1  0
 12 13  1  0
 13 14  2  0
 14 15  1  0
 15 16  2  0
 16 17  1  0
 17 18  2  0
 18 19  1  0
  9 20  2  0
 20 21  1  0
 21 22  1  0
 22 23  1  0
 23 24  1  0
 24 25  1  0
 25 26  2  0
 26 27  1  0
 27 28  2  0
 28 29  1  0
 29 30  2  0
 30 31  1  0
 21 32  2  0
  6 33  1  0
 33 34  1  0
 34 35  1  0
 35  4  1  0
 32  7  1  0
 19 10  1  0
 31 22  1  0
 18 13  1  0
 30 25  1  0
  1 36  1  0
  1 37  1  0
  1 38  1  0
  2 39  1  0
  2 40  1  0
  3 41  1  0
  4 42  1  6
  5 43  1  0
  5 44  1  0
 11 45  1  0
 11 46  1  0
 12 47  1  0
 12 48  1  0
 14 49  1  0
 15 50  1  0
 16 51  1  0
 17 52  1  0
 19 53  1  0
 19 54  1  0
 23 55  1  0
 23 56  1  0
 24 57  1  0
 24 58  1  0
 26 59  1  0
 27 60  1  0
 28 61  1  0
 29 62  1  0
 31 63  1  0
 31 64  1  0
 33 65  1  0
 33 66  1  0
 34 67  1  0
 34 68  1  0
M  END
>  <smiles>  (92) 
CCNC1CN(c2nc(N3CCc4ccccc4C3)nc(N3CCc4ccccc4C3)n2)CCO1

>  <score_type>  (92) 
oracle

>  <origin>  (92) 
autodockgpu

>  <m_score__min__energy>  (92) 
-10.41

>  <m_primary>  (92) 
energy

>  <rmsd>  (92) 
9.049182064601613

>  <m_score__min__rmsd>  (92) 
9.049182064601613

>  <meeko>  (92) 
{"free_energy": -10.29, "intermolecular_energy": -11.78, "internal_energy": -1.0, "cluster_size": 49, "cluster_id": 1, "rank_in_cluster": 21}

>  <energy>  (92) 
-10.1

>  <cluster_rmsd>  (92) 
0.79

>  <cluster>  (92) 
1

$$$$

     RDKit          3D

 68 73  0  0  0  0  0  0  0  0999 V2000
  145.6080   67.6810  219.7090 C   0  0  0  0  0  0  0  0  0  0  0  0
  144.9310   68.9580  219.3350 C   0  0  0  0  0  0  0  0  0  0  0  0
  145.8300   69.9830  218.8400 N   0  0  0  0  0  0  0  0  0  0  0  0
  145.0660   71.2160  218.8080 C   0  0  1  0  0  0  0  0  0  0  0  0
  144.1980   71.3760  220.0250 C   0  0  0  0  0  0  0  0  0  0  0  0
  143.7320   72.7110  220.2190 N   0  0  0  0  0  0  0  0  0  0  0  0
  142.5640   73.0700  220.9450 C   0  0  0  0  0  0  0  0  0  0  0  0
  141.9170   72.1860  221.7240 N   0  0  0  0  0  0  0  0  0  0  0  0
  140.7990   72.5140  222.4240 C   0  0  0  0  0  0  0  0  0  0  0  0
  140.1510   71.5310  223.2400 N   0  0  0  0  0  0  0  0  0  0  0  0
  139.3390   70.5230  222.5790 C   0  0  0  0  0  0  0  0  0  0  0  0
  138.3220   69.9200  223.5320 C   0  0  0  0  0  0  0  0  0  0  0  0
  139.1050   69.3840  224.7030 C   0  0  0  0  0  0  0  0  0  0  0  0
  138.8550   68.1270  225.2020 C   0  0  0  0  0  0  0  0  0  0  0  0
  139.5910   67.6660  226.2740 C   0  0  0  0  0  0  0  0  0  0  0  0
  140.5590   68.4880  226.8120 C   0  0  0  0  0  0  0  0  0  0  0  0
  140.8030   69.7620  226.2940 C   0  0  0  0  0  0  0  0  0  0  0  0
  140.0650   70.2320  225.2140 C   0  0  0  0  0  0  0  0  0  0  0  0
  140.3320   71.5880  224.6750 C   0  0  0  0  0  0  0  0  0  0  0  0
  140.3190   73.7660  222.3360 N   0  0  0  0  0  0  0  0  0  0  0  0
  140.9450   74.6710  221.5650 C   0  0  0  0  0  0  0  0  0  0  0  0
  140.4770   76.0130  221.4380 N   0  0  0  0  0  0  0  0  0  0  0  0
  139.0600   76.3500  221.4820 C   0  0  0  0  0  0  0  0  0  0  0  0
  138.8460   77.1990  222.7160 C   0  0  0  0  0  0  0  0  0  0  0  0
  139.7440   78.3830  222.5860 C   0  0  0  0  0  0  0  0  0  0  0  0
  139.3790   79.5830  223.1510 C   0  0  0  0  0  0  0  0  0  0  0  0
  140.1950   80.6840  223.0420 C   0  0  0  0  0  0  0  0  0  0  0  0
  141.3990   80.6610  222.3760 C   0  0  0  0  0  0  0  0  0  0  0  0
  141.7800   79.4470  221.7980 C   0  0  0  0  0  0  0  0  0  0  0  0
  140.9510   78.3320  221.9120 C   0  0  0  0  0  0  0  0  0  0  0  0
  141.4490   77.0820  221.2580 C   0  0  0  0  0  0  0  0  0  0  0  0
  142.0580   74.3100  220.8800 N   0  0  0  0  0  0  0  0  0  0  0  0
  144.5270   73.7910  219.6180 C   0  0  0  0  0  0  0  0  0  0  0  0
  145.9440   73.2070  219.5650 C   0  0  0  0  0  0  0  0  0  0  0  0
  145.9160   72.2540  218.5490 O   0  0  0  0  0  0  0  0  0  0  0  0
  145.6526   67.5969  220.8049 H   0  0  0  0  0  0  0  0  0  0  0  0
  145.0416   66.8319  219.2988 H   0  0  0  0  0  0  0  0  0  0  0  0
  146.6286   67.6733  219.2988 H   0  0  0  0  0  0  0  0  0  0  0  0
  144.1910   68.7397  218.5509 H   0  0  0  0  0  0  0  0  0  0  0  0
  144.4733   69.3546  220.2533 H   0  0  0  0  0  0  0  0  0  0  0  0
  146.1820   69.7540  217.8990 H   0  0  0  0  0  0  0  0  0  0  0  0
  144.3349   71.1952  217.9864 H   0  0  0  0  0  0  0  0  0  0  0  0
  143.3256   70.7142  219.9202 H   0  0  0  0  0  0  0  0  0  0  0  0
  144.8142   71.1176  220.8988 H   0  0  0  0  0  0  0  0  0  0  0  0
  138.8076   70.9879  221.7355 H   0  0  0  0  0  0  0  0  0  0  0  0
  140.0027   69.7197  222.2265 H   0  0  0  0  0  0  0  0  0  0  0  0
  137.6124   70.6901  223.8688 H   0  0  0  0  0  0  0  0  0  0  0  0
  137.7389   69.1253  223.0437 H   0  0  0  0  0  0  0  0  0  0  0  0
  138.0757   67.4953  224.7507 H   0  0  0  0  0  0  0  0  0  0  0  0
  139.4097   66.6643  226.6907 H   0  0  0  0  0  0  0  0  0  0  0  0
  141.1518   68.1325  227.6677 H   0  0  0  0  0  0  0  0  0  0  0  0
  141.5822   70.3958  226.7425 H   0  0  0  0  0  0  0  0  0  0  0  0
  139.6288   72.3113  225.1135 H   0  0  0  0  0  0  0  0  0  0  0  0
  141.3546   71.9084  224.9234 H   0  0  0  0  0  0  0  0  0  0  0  0
  138.7777   76.9147  220.5812 H   0  0  0  0  0  0  0  0  0  0  0  0
  138.4411   75.4414  221.5181 H   0  0  0  0  0  0  0  0  0  0  0  0
  137.7968   77.5242  222.7746 H   0  0  0  0  0  0  0  0  0  0  0  0
  139.0724   76.6306  223.6301 H   0  0  0  0  0  0  0  0  0  0  0  0
  138.4260   79.6623  223.6947 H   0  0  0  0  0  0  0  0  0  0  0  0
  139.8708   81.6261  223.5083 H   0  0  0  0  0  0  0  0  0  0  0  0
  142.0326   81.5572  222.3020 H   0  0  0  0  0  0  0  0  0  0  0  0
  142.7329   79.3713  221.2537 H   0  0  0  0  0  0  0  0  0  0  0  0
  141.5961   77.2653  220.1834 H   0  0  0  0  0  0  0  0  0  0  0  0
  142.4042   76.7867  221.7166 H   0  0  0  0  0  0  0  0  0  0  0  0
  144.1631   74.0317  218.6082 H   0  0  0  0  0  0  0  0  0  0  0  0
  144.4723   74.7306  220.1874 H   0  0  0  0  0  0  0  0  0  0  0  0
  146.6760   73.9947  219.3332 H   0  0  0  0  0  0  0  0  0  0  0  0
  146.2406   72.7675  220.5288 H   0  0  0  0  0  0  0  0  0  0  0  0
  1  2  1  0
  2  3  1  0
  3  4  1  0
  4  5  1  0
  5  6  1  0
  6  7  1  0
  7  8  2  0
  8  9  1  0
  9 10  1  0
 10 11  1  0
 11 12  1  0
 12 13  1  0
 13 14  2  0
 14 15  1  0
 15 16  2  0
 16 17  1  0
 17 18  2  0
 18 19  1  0
  9 20  2  0
 20 21  1  0
 21 22  1  0
 22 23  1  0
 23 24  1  0
 24 25  1  0
 25 26  2  0
 26 27  1  0
 27 28  2  0
 28 29  1  0
 29 30  2  0
 30 31  1  0
 21 32  2  0
  6 33  1  0
 33 34  1  0
 34 35  1  0
 35  4  1  0
 32  7  1  0
 19 10  1  0
 31 22  1  0
 18 13  1  0
 30 25  1  0
  1 36  1  0
  1 37  1  0
  1 38  1  0
  2 39  1  0
  2 40  1  0
  3 41  1  0
  4 42  1  6
  5 43  1  0
  5 44  1  0
 11 45  1  0
 11 46  1  0
 12 47  1  0
 12 48  1  0
 14 49  1  0
 15 50  1  0
 16 51  1  0
 17 52  1  0
 19 53  1  0
 19 54  1  0
 23 55  1  0
 23 56  1  0
 24 57  1  0
 24 58  1  0
 26 59  1  0
 27 60  1  0
 28 61  1  0
 29 62  1  0
 31 63  1  0
 31 64  1  0
 33 65  1  0
 33 66  1  0
 34 67  1  0
 34 68  1  0
M  END
>  <smiles>  (93) 
CCNC1CN(c2nc(N3CCc4ccccc4C3)nc(N3CCc4ccccc4C3)n2)CCO1

>  <score_type>  (93) 
oracle

>  <origin>  (93) 
autodockgpu

>  <m_score__min__energy>  (93) 
-10.41

>  <m_primary>  (93) 
energy

>  <rmsd>  (93) 
9.24685780346723

>  <m_score__min__rmsd>  (93) 
9.24685780346723

>  <meeko>  (93) 
{"free_energy": -10.28, "intermolecular_energy": -11.77, "internal_energy": -0.99, "cluster_size": 49, "cluster_id": 1, "rank_in_cluster": 31}

>  <energy>  (93) 
-10.07

>  <cluster_rmsd>  (93) 
0.65

>  <cluster>  (93) 
1

$$$$

     RDKit          3D

 68 73  0  0  0  0  0  0  0  0999 V2000
  146.2060   74.1210  216.3060 C   0  0  0  0  0  0  0  0  0  0  0  0
  145.5430   73.2670  217.3340 C   0  0  0  0  0  0  0  0  0  0  0  0
  146.2510   73.2050  218.5990 N   0  0  0  0  0  0  0  0  0  0  0  0
  145.3910   72.4770  219.5130 C   0  0  1  0  0  0  0  0  0  0  0  0
  144.1150   73.2170  219.8030 C   0  0  0  0  0  0  0  0  0  0  0  0
  143.0970   72.3950  220.3750 N   0  0  0  0  0  0  0  0  0  0  0  0
  142.0210   72.8680  221.1730 C   0  0  0  0  0  0  0  0  0  0  0  0
  141.6440   74.1580  221.1590 N   0  0  0  0  0  0  0  0  0  0  0  0
  140.6160   74.6250  221.9170 C   0  0  0  0  0  0  0  0  0  0  0  0
  140.2580   76.0100  221.8620 N   0  0  0  0  0  0  0  0  0  0  0  0
  138.9420   76.3950  222.3450 C   0  0  0  0  0  0  0  0  0  0  0  0
  138.5010   77.7210  221.7510 C   0  0  0  0  0  0  0  0  0  0  0  0
  139.5800   78.7170  222.0940 C   0  0  0  0  0  0  0  0  0  0  0  0
  139.2590   79.9580  222.5950 C   0  0  0  0  0  0  0  0  0  0  0  0
  140.2700   80.8450  222.8990 C   0  0  0  0  0  0  0  0  0  0  0  0
  141.5770   80.4560  222.6890 C   0  0  0  0  0  0  0  0  0  0  0  0
  141.8870   79.1930  222.1790 C   0  0  0  0  0  0  0  0  0  0  0  0
  140.8720   78.2940  221.8710 C   0  0  0  0  0  0  0  0  0  0  0  0
  141.2150   76.9560  221.3280 C   0  0  0  0  0  0  0  0  0  0  0  0
  139.9510   73.7690  222.7100 N   0  0  0  0  0  0  0  0  0  0  0  0
  140.3050   72.4730  222.7450 C   0  0  0  0  0  0  0  0  0  0  0  0
  139.6310   71.5230  223.5690 N   0  0  0  0  0  0  0  0  0  0  0  0
  138.6370   70.6000  223.0390 C   0  0  0  0  0  0  0  0  0  0  0  0
  139.1980   69.2040  223.2030 C   0  0  0  0  0  0  0  0  0  0  0  0
  139.4790   69.0200  224.6560 C   0  0  0  0  0  0  0  0  0  0  0  0
  139.3950   67.7650  225.2150 C   0  0  0  0  0  0  0  0  0  0  0  0
  139.6510   67.5770  226.5530 C   0  0  0  0  0  0  0  0  0  0  0  0
  139.9980   68.6040  227.4010 C   0  0  0  0  0  0  0  0  0  0  0  0
  140.0870   69.8820  226.8440 C   0  0  0  0  0  0  0  0  0  0  0  0
  139.8280   70.0700  225.4870 C   0  0  0  0  0  0  0  0  0  0  0  0
  139.9500   71.4760  224.9890 C   0  0  0  0  0  0  0  0  0  0  0  0
  141.3350   72.0410  221.9760 N   0  0  0  0  0  0  0  0  0  0  0  0
  143.1790   70.9510  220.1140 C   0  0  0  0  0  0  0  0  0  0  0  0
  143.9160   70.8700  218.7710 C   0  0  0  0  0  0  0  0  0  0  0  0
  145.2400   71.1990  219.0520 O   0  0  0  0  0  0  0  0  0  0  0  0
  146.8072   74.8954  216.8049 H   0  0  0  0  0  0  0  0  0  0  0  0
  146.8593   73.4979  215.6776 H   0  0  0  0  0  0  0  0  0  0  0  0
  145.4404   74.5994  215.6776 H   0  0  0  0  0  0  0  0  0  0  0  0
  144.5366   73.6698  217.5208 H   0  0  0  0  0  0  0  0  0  0  0  0
  145.5231   72.2436  216.9312 H   0  0  0  0  0  0  0  0  0  0  0  0
  146.4500   74.1470  218.9670 H   0  0  0  0  0  0  0  0  0  0  0  0
  145.8605   72.4013  220.5049 H   0  0  0  0  0  0  0  0  0  0  0  0
  144.3382   74.0339  220.5050 H   0  0  0  0  0  0  0  0  0  0  0  0
  143.7298   73.5868  218.8413 H   0  0  0  0  0  0  0  0  0  0  0  0
  138.2160   75.6177  222.0642 H   0  0  0  0  0  0  0  0  0  0  0  0
  138.9925   76.5046  223.4384 H   0  0  0  0  0  0  0  0  0  0  0  0
  138.3962   77.6335  220.6595 H   0  0  0  0  0  0  0  0  0  0  0  0
  137.5254   78.0341  222.1513 H   0  0  0  0  0  0  0  0  0  0  0  0
  138.2071   80.2393  222.7513 H   0  0  0  0  0  0  0  0  0  0  0  0
  140.0392   81.8426  223.3008 H   0  0  0  0  0  0  0  0  0  0  0  0
  142.3919   81.1550  222.9282 H   0  0  0  0  0  0  0  0  0  0  0  0
  142.9377   78.9087  222.0205 H   0  0  0  0  0  0  0  0  0  0  0  0
  141.1559   76.9702  220.2297 H   0  0  0  0  0  0  0  0  0  0  0  0
  142.2390   76.6734  221.6136 H   0  0  0  0  0  0  0  0  0  0  0  0
  137.6951   70.6968  223.5988 H   0  0  0  0  0  0  0  0  0  0  0  0
  138.4248   70.8162  221.9815 H   0  0  0  0  0  0  0  0  0  0  0  0
  138.4644   68.4587  222.8619 H   0  0  0  0  0  0  0  0  0  0  0  0
  140.1118   69.0733  222.6048 H   0  0  0  0  0  0  0  0  0  0  0  0
  139.1208   66.9051  224.5861 H   0  0  0  0  0  0  0  0  0  0  0  0
  139.5750   66.5596  226.9642 H   0  0  0  0  0  0  0  0  0  0  0  0
  140.1962   68.4266  228.4684 H   0  0  0  0  0  0  0  0  0  0  0  0
  140.3613   70.7397  227.4758 H   0  0  0  0  0  0  0  0  0  0  0  0
  139.2521   72.1217  225.5421 H   0  0  0  0  0  0  0  0  0  0  0  0
  140.9805   71.8289  225.1428 H   0  0  0  0  0  0  0  0  0  0  0  0
  143.7471   70.4402  220.9055 H   0  0  0  0  0  0  0  0  0  0  0  0
  142.1932   70.4635  220.0913 H   0  0  0  0  0  0  0  0  0  0  0  0
  143.8521   69.8524  218.3583 H   0  0  0  0  0  0  0  0  0  0  0  0
  143.4773   71.5473  218.0235 H   0  0  0  0  0  0  0  0  0  0  0  0
  1  2  1  0
  2  3  1  0
  3  4  1  0
  4  5  1  0
  5  6  1  0
  6  7  1  0
  7  8  2  0
  8  9  1  0
  9 10  1  0
 10 11  1  0
 11 12  1  0
 12 13  1  0
 13 14  2  0
 14 15  1  0
 15 16  2  0
 16 17  1  0
 17 18  2  0
 18 19  1  0
  9 20  2  0
 20 21  1  0
 21 22  1  0
 22 23  1  0
 23 24  1  0
 24 25  1  0
 25 26  2  0
 26 27  1  0
 27 28  2  0
 28 29  1  0
 29 30  2  0
 30 31  1  0
 21 32  2  0
  6 33  1  0
 33 34  1  0
 34 35  1  0
 35  4  1  0
 32  7  1  0
 19 10  1  0
 31 22  1  0
 18 13  1  0
 30 25  1  0
  1 36  1  0
  1 37  1  0
  1 38  1  0
  2 39  1  0
  2 40  1  0
  3 41  1  0
  4 42  1  1
  5 43  1  0
  5 44  1  0
 11 45  1  0
 11 46  1  0
 12 47  1  0
 12 48  1  0
 14 49  1  0
 15 50  1  0
 16 51  1  0
 17 52  1  0
 19 53  1  0
 19 54  1  0
 23 55  1  0
 23 56  1  0
 24 57  1  0
 24 58  1  0
 26 59  1  0
 27 60  1  0
 28 61  1  0
 29 62  1  0
 31 63  1  0
 31 64  1  0
 33 65  1  0
 33 66  1  0
 34 67  1  0
 34 68  1  0
M  END
>  <smiles>  (94) 
CCNC1CN(c2nc(N3CCc4ccccc4C3)nc(N3CCc4ccccc4C3)n2)CCO1

>  <score_type>  (94) 
oracle

>  <origin>  (94) 
autodockgpu

>  <m_score__min__energy>  (94) 
-10.41

>  <m_primary>  (94) 
energy

>  <rmsd>  (94) 
7.26680686368882

>  <m_score__min__rmsd>  (94) 
7.26680686368882

>  <meeko>  (94) 
{"free_energy": -10.07, "intermolecular_energy": -11.56, "internal_energy": -0.97, "cluster_size": 49, "cluster_id": 1, "rank_in_cluster": 43}

>  <energy>  (94) 
-10.07

>  <cluster_rmsd>  (94) 
0.67

>  <cluster>  (94) 
1

$$$$

     RDKit          3D

 68 73  0  0  0  0  0  0  0  0999 V2000
  145.7540   67.9350  219.4450 C   0  0  0  0  0  0  0  0  0  0  0  0
  145.0190   69.2210  219.2610 C   0  0  0  0  0  0  0  0  0  0  0  0
  145.7630   70.2290  218.5290 N   0  0  0  0  0  0  0  0  0  0  0  0
  144.9990   71.4570  218.6340 C   0  0  1  0  0  0  0  0  0  0  0  0
  144.1100   71.4690  219.8470 C   0  0  0  0  0  0  0  0  0  0  0  0
  143.6390   72.7720  220.1940 N   0  0  0  0  0  0  0  0  0  0  0  0
  142.4580   73.0400  220.9380 C   0  0  0  0  0  0  0  0  0  0  0  0
  141.8820   72.1040  221.7110 N   0  0  0  0  0  0  0  0  0  0  0  0
  140.7520   72.3460  222.4280 C   0  0  0  0  0  0  0  0  0  0  0  0
  140.1820   71.3110  223.2350 N   0  0  0  0  0  0  0  0  0  0  0  0
  139.5960   70.1640  222.5620 C   0  0  0  0  0  0  0  0  0  0  0  0
  138.5930   69.4530  223.4520 C   0  0  0  0  0  0  0  0  0  0  0  0
  139.3290   69.0920  224.7160 C   0  0  0  0  0  0  0  0  0  0  0  0
  139.2210   67.8330  225.2600 C   0  0  0  0  0  0  0  0  0  0  0  0
  139.9090   67.5350  226.4180 C   0  0  0  0  0  0  0  0  0  0  0  0
  140.6890   68.5160  226.9930 C   0  0  0  0  0  0  0  0  0  0  0  0
  140.7900   69.7900  226.4300 C   0  0  0  0  0  0  0  0  0  0  0  0
  140.0980   70.0960  225.2630 C   0  0  0  0  0  0  0  0  0  0  0  0
  140.2120   71.4540  224.6760 C   0  0  0  0  0  0  0  0  0  0  0  0
  140.1890   73.5640  222.3640 N   0  0  0  0  0  0  0  0  0  0  0  0
  140.7430   74.5200  221.6000 C   0  0  0  0  0  0  0  0  0  0  0  0
  140.1850   75.8300  221.4970 N   0  0  0  0  0  0  0  0  0  0  0  0
  138.7480   76.0580  221.4180 C   0  0  0  0  0  0  0  0  0  0  0  0
  138.3510   76.8130  222.6680 C   0  0  0  0  0  0  0  0  0  0  0  0
  139.1610   78.0650  222.6910 C   0  0  0  0  0  0  0  0  0  0  0  0
  138.6500   79.1990  223.2800 C   0  0  0  0  0  0  0  0  0  0  0  0
  139.3830   80.3610  223.3110 C   0  0  0  0  0  0  0  0  0  0  0  0
  140.6430   80.4680  222.7680 C   0  0  0  0  0  0  0  0  0  0  0  0
  141.1720   79.3220  222.1680 C   0  0  0  0  0  0  0  0  0  0  0  0
  140.4270   78.1440  222.1390 C   0  0  0  0  0  0  0  0  0  0  0  0
  141.0820   76.9760  221.4730 C   0  0  0  0  0  0  0  0  0  0  0  0
  141.8700   74.2440  220.8970 N   0  0  0  0  0  0  0  0  0  0  0  0
  144.4440   73.9160  219.7420 C   0  0  0  0  0  0  0  0  0  0  0  0
  145.8620   73.3400  219.6430 C   0  0  0  0  0  0  0  0  0  0  0  0
  145.8520   72.5180  218.5180 O   0  0  0  0  0  0  0  0  0  0  0  0
  145.8711   67.7301  220.5194 H   0  0  0  0  0  0  0  0  0  0  0  0
  145.1865   67.1179  218.9756 H   0  0  0  0  0  0  0  0  0  0  0  0
  146.7460   68.0093  218.9756 H   0  0  0  0  0  0  0  0  0  0  0  0
  144.0888   69.0118  218.7123 H   0  0  0  0  0  0  0  0  0  0  0  0
  144.8367   69.6289  220.2662 H   0  0  0  0  0  0  0  0  0  0  0  0
  145.8850   69.9650  217.5400 H   0  0  0  0  0  0  0  0  0  0  0  0
  144.2824   71.5368  217.8033 H   0  0  0  0  0  0  0  0  0  0  0  0
  143.2402   70.8257  219.6478 H   0  0  0  0  0  0  0  0  0  0  0  0
  144.7116   71.1059  220.6933 H   0  0  0  0  0  0  0  0  0  0  0  0
  139.0855   70.5065  221.6498 H   0  0  0  0  0  0  0  0  0  0  0  0
  140.4025   69.4576  222.3159 H   0  0  0  0  0  0  0  0  0  0  0  0
  137.7478   70.1188  223.6806 H   0  0  0  0  0  0  0  0  0  0  0  0
  138.1846   68.5588  222.9584 H   0  0  0  0  0  0  0  0  0  0  0  0
  138.5920   67.0712  224.7762 H   0  0  0  0  0  0  0  0  0  0  0  0
  139.8369   66.5361  226.8730 H   0  0  0  0  0  0  0  0  0  0  0  0
  141.2439   68.2901  227.9155 H   0  0  0  0  0  0  0  0  0  0  0  0
  141.4187   70.5538  226.9110 H   0  0  0  0  0  0  0  0  0  0  0  0
  139.3699   72.0786  225.0088 H   0  0  0  0  0  0  0  0  0  0  0  0
  141.1466   71.9371  224.9974 H   0  0  0  0  0  0  0  0  0  0  0  0
  138.5084   76.6536  220.5247 H   0  0  0  0  0  0  0  0  0  0  0  0
  138.2026   75.1055  221.3446 H   0  0  0  0  0  0  0  0  0  0  0  0
  137.2786   77.0563  222.6389 H   0  0  0  0  0  0  0  0  0  0  0  0
  138.5333   76.2085  223.5687 H   0  0  0  0  0  0  0  0  0  0  0  0
  137.6464   79.1751  223.7297 H   0  0  0  0  0  0  0  0  0  0  0  0
  138.9422   81.2466  223.7921 H   0  0  0  0  0  0  0  0  0  0  0  0
  141.2074   81.4115  222.8045 H   0  0  0  0  0  0  0  0  0  0  0  0
  142.1757   79.3495  221.7188 H   0  0  0  0  0  0  0  0  0  0  0  0
  141.3169   77.2345  220.4299 H   0  0  0  0  0  0  0  0  0  0  0  0
  142.0088   76.7240  222.0093 H   0  0  0  0  0  0  0  0  0  0  0  0
  144.0975   74.2780  218.7628 H   0  0  0  0  0  0  0  0  0  0  0  0
  144.3791   74.7798  220.4200 H   0  0  0  0  0  0  0  0  0  0  0  0
  146.5978   74.1486  219.5218 H   0  0  0  0  0  0  0  0  0  0  0  0
  146.1417   72.7857  220.5510 H   0  0  0  0  0  0  0  0  0  0  0  0
  1  2  1  0
  2  3  1  0
  3  4  1  0
  4  5  1  0
  5  6  1  0
  6  7  1  0
  7  8  2  0
  8  9  1  0
  9 10  1  0
 10 11  1  0
 11 12  1  0
 12 13  1  0
 13 14  2  0
 14 15  1  0
 15 16  2  0
 16 17  1  0
 17 18  2  0
 18 19  1  0
  9 20  2  0
 20 21  1  0
 21 22  1  0
 22 23  1  0
 23 24  1  0
 24 25  1  0
 25 26  2  0
 26 27  1  0
 27 28  2  0
 28 29  1  0
 29 30  2  0
 30 31  1  0
 21 32  2  0
  6 33  1  0
 33 34  1  0
 34 35  1  0
 35  4  1  0
 32  7  1  0
 19 10  1  0
 31 22  1  0
 18 13  1  0
 30 25  1  0
  1 36  1  0
  1 37  1  0
  1 38  1  0
  2 39  1  0
  2 40  1  0
  3 41  1  0
  4 42  1  6
  5 43  1  0
  5 44  1  0
 11 45  1  0
 11 46  1  0
 12 47  1  0
 12 48  1  0
 14 49  1  0
 15 50  1  0
 16 51  1  0
 17 52  1  0
 19 53  1  0
 19 54  1  0
 23 55  1  0
 23 56  1  0
 24 57  1  0
 24 58  1  0
 26 59  1  0
 27 60  1  0
 28 61  1  0
 29 62  1  0
 31 63  1  0
 31 64  1  0
 33 65  1  0
 33 66  1  0
 34 67  1  0
 34 68  1  0
M  END
>  <smiles>  (95) 
CCNC1CN(c2nc(N3CCc4ccccc4C3)nc(N3CCc4ccccc4C3)n2)CCO1

>  <score_type>  (95) 
oracle

>  <origin>  (95) 
autodockgpu

>  <m_score__min__energy>  (95) 
-10.41

>  <m_primary>  (95) 
energy

>  <rmsd>  (95) 
9.119531046046813

>  <m_score__min__rmsd>  (95) 
9.119531046046813

>  <meeko>  (95) 
{"free_energy": -10.28, "intermolecular_energy": -11.77, "internal_energy": -1.0, "cluster_size": 49, "cluster_id": 1, "rank_in_cluster": 27}

>  <energy>  (95) 
-10.07

>  <cluster_rmsd>  (95) 
1.24

>  <cluster>  (95) 
1

$$$$

     RDKit          3D

 68 73  0  0  0  0  0  0  0  0999 V2000
  144.8780   74.9600  216.0100 C   0  0  0  0  0  0  0  0  0  0  0  0
  144.9280   73.6150  216.6560 C   0  0  0  0  0  0  0  0  0  0  0  0
  146.0750   73.4150  217.5210 N   0  0  0  0  0  0  0  0  0  0  0  0
  145.5700   72.8000  218.7340 C   0  0  1  0  0  0  0  0  0  0  0  0
  144.1620   73.2270  219.0420 C   0  0  0  0  0  0  0  0  0  0  0  0
  143.5040   72.3800  219.9850 N   0  0  0  0  0  0  0  0  0  0  0  0
  142.4140   72.7710  220.8090 C   0  0  0  0  0  0  0  0  0  0  0  0
  141.8280   71.9110  221.6600 N   0  0  0  0  0  0  0  0  0  0  0  0
  140.7850   72.2700  222.4540 C   0  0  0  0  0  0  0  0  0  0  0  0
  140.2000   71.3120  223.3430 N   0  0  0  0  0  0  0  0  0  0  0  0
  139.4900   70.1850  222.7620 C   0  0  0  0  0  0  0  0  0  0  0  0
  138.5030   69.5860  223.7470 C   0  0  0  0  0  0  0  0  0  0  0  0
  139.2980   69.2220  224.9750 C   0  0  0  0  0  0  0  0  0  0  0  0
  139.1390   67.9970  225.5810 C   0  0  0  0  0  0  0  0  0  0  0  0
  139.8830   67.6950  226.7020 C   0  0  0  0  0  0  0  0  0  0  0  0
  140.7680   68.6390  227.1800 C   0  0  0  0  0  0  0  0  0  0  0  0
  140.9200   69.8780  226.5550 C   0  0  0  0  0  0  0  0  0  0  0  0
  140.1720   70.1880  225.4240 C   0  0  0  0  0  0  0  0  0  0  0  0
  140.3410   71.5090  224.7710 C   0  0  0  0  0  0  0  0  0  0  0  0
  140.3190   73.5280  222.3890 N   0  0  0  0  0  0  0  0  0  0  0  0
  140.8850   74.4100  221.5470 C   0  0  0  0  0  0  0  0  0  0  0  0
  140.4280   75.7570  221.4400 N   0  0  0  0  0  0  0  0  0  0  0  0
  139.0140   76.1040  221.4740 C   0  0  0  0  0  0  0  0  0  0  0  0
  138.7920   76.9310  222.7220 C   0  0  0  0  0  0  0  0  0  0  0  0
  139.7000   78.1110  222.6240 C   0  0  0  0  0  0  0  0  0  0  0  0
  139.3380   79.3030  223.2080 C   0  0  0  0  0  0  0  0  0  0  0  0
  140.1630   80.3990  223.1280 C   0  0  0  0  0  0  0  0  0  0  0  0
  141.3740   80.3800  222.4750 C   0  0  0  0  0  0  0  0  0  0  0  0
  141.7530   79.1740  221.8790 C   0  0  0  0  0  0  0  0  0  0  0  0
  140.9140   78.0640  221.9620 C   0  0  0  0  0  0  0  0  0  0  0  0
  141.4110   76.8220  221.2910 C   0  0  0  0  0  0  0  0  0  0  0  0
  141.9240   74.0180  220.7690 N   0  0  0  0  0  0  0  0  0  0  0  0
  144.0000   71.0020  220.1060 C   0  0  0  0  0  0  0  0  0  0  0  0
  144.5960   70.7120  218.7230 C   0  0  0  0  0  0  0  0  0  0  0  0
  145.7760   71.4510  218.6630 O   0  0  0  0  0  0  0  0  0  0  0  0
  144.8491   75.7388  216.7863 H   0  0  0  0  0  0  0  0  0  0  0  0
  145.7716   75.0995  215.3838 H   0  0  0  0  0  0  0  0  0  0  0  0
  143.9765   75.0328  215.3838 H   0  0  0  0  0  0  0  0  0  0  0  0
  144.0157   73.4865  217.2570 H   0  0  0  0  0  0  0  0  0  0  0  0
  145.0103   72.8767  215.8448 H   0  0  0  0  0  0  0  0  0  0  0  0
  146.5450   74.3060  217.7380 H   0  0  0  0  0  0  0  0  0  0  0  0
  146.1312   73.1579  219.6097 H   0  0  0  0  0  0  0  0  0  0  0  0
  144.1891   74.2480  219.4505 H   0  0  0  0  0  0  0  0  0  0  0  0
  143.5931   73.1690  218.1024 H   0  0  0  0  0  0  0  0  0  0  0  0
  138.9435   70.5271  221.8708 H   0  0  0  0  0  0  0  0  0  0  0  0
  140.2258   69.4121  222.4954 H   0  0  0  0  0  0  0  0  0  0  0  0
  137.7250   70.3210  224.0011 H   0  0  0  0  0  0  0  0  0  0  0  0
  137.9988   68.7056  223.3220 H   0  0  0  0  0  0  0  0  0  0  0  0
  138.4250   67.2653  225.1750 H   0  0  0  0  0  0  0  0  0  0  0  0
  139.7732   66.7225  227.2042 H   0  0  0  0  0  0  0  0  0  0  0  0
  141.3674   68.4104  228.0736 H   0  0  0  0  0  0  0  0  0  0  0  0
  141.6336   70.6115  226.9583 H   0  0  0  0  0  0  0  0  0  0  0  0
  139.5709   72.2070  225.1313 H   0  0  0  0  0  0  0  0  0  0  0  0
  141.3279   71.9336  225.0071 H   0  0  0  0  0  0  0  0  0  0  0  0
  138.7467   76.6881  220.5811 H   0  0  0  0  0  0  0  0  0  0  0  0
  138.3877   75.1998  221.4853 H   0  0  0  0  0  0  0  0  0  0  0  0
  137.7445   77.2625  222.7753 H   0  0  0  0  0  0  0  0  0  0  0  0
  139.0040   76.3438  223.6277 H   0  0  0  0  0  0  0  0  0  0  0  0
  138.3801   79.3793  223.7434 H   0  0  0  0  0  0  0  0  0  0  0  0
  139.8404   81.3347  223.6081 H   0  0  0  0  0  0  0  0  0  0  0  0
  142.0144   81.2729  222.4244 H   0  0  0  0  0  0  0  0  0  0  0  0
  142.7120   79.1009  221.3452 H   0  0  0  0  0  0  0  0  0  0  0  0
  141.5726   77.0236  220.2218 H   0  0  0  0  0  0  0  0  0  0  0  0
  142.3585   76.5111  221.7553 H   0  0  0  0  0  0  0  0  0  0  0  0
  144.7694   70.9286  220.8887 H   0  0  0  0  0  0  0  0  0  0  0  0
  143.2137   70.2877  220.3915 H   0  0  0  0  0  0  0  0  0  0  0  0
  144.8089   69.6384  218.6137 H   0  0  0  0  0  0  0  0  0  0  0  0
  143.9021   70.9853  217.9144 H   0  0  0  0  0  0  0  0  0  0  0  0
  1  2  1  0
  2  3  1  0
  3  4  1  0
  4  5  1  0
  5  6  1  0
  6  7  1  0
  7  8  2  0
  8  9  1  0
  9 10  1  0
 10 11  1  0
 11 12  1  0
 12 13  1  0
 13 14  2  0
 14 15  1  0
 15 16  2  0
 16 17  1  0
 17 18  2  0
 18 19  1  0
  9 20  2  0
 20 21  1  0
 21 22  1  0
 22 23  1  0
 23 24  1  0
 24 25  1  0
 25 26  2  0
 26 27  1  0
 27 28  2  0
 28 29  1  0
 29 30  2  0
 30 31  1  0
 21 32  2  0
  6 33  1  0
 33 34  1  0
 34 35  1  0
 35  4  1  0
 32  7  1  0
 19 10  1  0
 31 22  1  0
 18 13  1  0
 30 25  1  0
  1 36  1  0
  1 37  1  0
  1 38  1  0
  2 39  1  0
  2 40  1  0
  3 41  1  0
  4 42  1  1
  5 43  1  0
  5 44  1  0
 11 45  1  0
 11 46  1  0
 12 47  1  0
 12 48  1  0
 14 49  1  0
 15 50  1  0
 16 51  1  0
 17 52  1  0
 19 53  1  0
 19 54  1  0
 23 55  1  0
 23 56  1  0
 24 57  1  0
 24 58  1  0
 26 59  1  0
 27 60  1  0
 28 61  1  0
 29 62  1  0
 31 63  1  0
 31 64  1  0
 33 65  1  0
 33 66  1  0
 34 67  1  0
 34 68  1  0
M  END
>  <smiles>  (96) 
CCNC1CN(c2nc(N3CCc4ccccc4C3)nc(N3CCc4ccccc4C3)n2)CCO1

>  <score_type>  (96) 
oracle

>  <origin>  (96) 
autodockgpu

>  <m_score__min__energy>  (96) 
-10.41

>  <m_primary>  (96) 
energy

>  <rmsd>  (96) 
7.265373288272823

>  <m_score__min__rmsd>  (96) 
7.265373288272823

>  <meeko>  (96) 
{"free_energy": -10.3, "intermolecular_energy": -11.8, "internal_energy": -1.01, "cluster_size": 49, "cluster_id": 1, "rank_in_cluster": 18}

>  <energy>  (96) 
-9.98

>  <cluster_rmsd>  (96) 
0.69

>  <cluster>  (96) 
1

$$$$

     RDKit          3D

 68 73  0  0  0  0  0  0  0  0999 V2000
  145.6620   67.5970  219.4200 C   0  0  0  0  0  0  0  0  0  0  0  0
  144.9820   68.9220  219.3220 C   0  0  0  0  0  0  0  0  0  0  0  0
  145.8310   69.9880  218.8260 N   0  0  0  0  0  0  0  0  0  0  0  0
  145.0220   71.1920  218.8350 C   0  0  1  0  0  0  0  0  0  0  0  0
  144.1480   71.2790  220.0550 C   0  0  0  0  0  0  0  0  0  0  0  0
  143.6320   72.5890  220.2930 N   0  0  0  0  0  0  0  0  0  0  0  0
  142.4510   72.8790  221.0290 C   0  0  0  0  0  0  0  0  0  0  0  0
  141.8720   71.9640  221.8250 N   0  0  0  0  0  0  0  0  0  0  0  0
  140.7430   72.2270  222.5350 C   0  0  0  0  0  0  0  0  0  0  0  0
  140.1700   71.2140  223.3690 N   0  0  0  0  0  0  0  0  0  0  0  0
  139.5710   70.0560  222.7250 C   0  0  0  0  0  0  0  0  0  0  0  0
  138.5690   69.3730  223.6360 C   0  0  0  0  0  0  0  0  0  0  0  0
  139.3110   69.0340  224.9040 C   0  0  0  0  0  0  0  0  0  0  0  0
  139.1970   67.7880  225.4760 C   0  0  0  0  0  0  0  0  0  0  0  0
  139.8910   67.5110  226.6350 C   0  0  0  0  0  0  0  0  0  0  0  0
  140.6820   68.4980  227.1840 C   0  0  0  0  0  0  0  0  0  0  0  0
  140.7880   69.7590  226.5920 C   0  0  0  0  0  0  0  0  0  0  0  0
  140.0910   70.0440  225.4230 C   0  0  0  0  0  0  0  0  0  0  0  0
  140.2120   71.3880  224.8060 C   0  0  0  0  0  0  0  0  0  0  0  0
  140.1820   73.4430  222.4390 N   0  0  0  0  0  0  0  0  0  0  0  0
  140.7380   74.3790  221.6510 C   0  0  0  0  0  0  0  0  0  0  0  0
  140.1820   75.6860  221.5140 N   0  0  0  0  0  0  0  0  0  0  0  0
  138.7470   75.9130  221.4140 C   0  0  0  0  0  0  0  0  0  0  0  0
  138.3370   76.6950  222.6430 C   0  0  0  0  0  0  0  0  0  0  0  0
  139.1470   77.9470  222.6480 C   0  0  0  0  0  0  0  0  0  0  0  0
  138.6310   79.0940  223.2070 C   0  0  0  0  0  0  0  0  0  0  0  0
  139.3650   80.2560  223.2200 C   0  0  0  0  0  0  0  0  0  0  0  0
  140.6300   80.3500  222.6890 C   0  0  0  0  0  0  0  0  0  0  0  0
  141.1650   79.1910  222.1190 C   0  0  0  0  0  0  0  0  0  0  0  0
  140.4200   78.0140  222.1070 C   0  0  0  0  0  0  0  0  0  0  0  0
  141.0810   76.8300  221.4740 C   0  0  0  0  0  0  0  0  0  0  0  0
  141.8650   74.0820  220.9570 N   0  0  0  0  0  0  0  0  0  0  0  0
  144.3860   73.7170  219.7290 C   0  0  0  0  0  0  0  0  0  0  0  0
  145.8240   73.1880  219.6580 C   0  0  0  0  0  0  0  0  0  0  0  0
  145.8320   72.2690  218.6110 O   0  0  0  0  0  0  0  0  0  0  0  0
  145.7980   67.3321  220.4789 H   0  0  0  0  0  0  0  0  0  0  0  0
  145.0455   66.8311  218.9266 H   0  0  0  0  0  0  0  0  0  0  0  0
  146.6437   67.6513  218.9266 H   0  0  0  0  0  0  0  0  0  0  0  0
  144.1230   68.8200  218.6425 H   0  0  0  0  0  0  0  0  0  0  0  0
  144.6849   69.2023  220.3433 H   0  0  0  0  0  0  0  0  0  0  0  0
  146.1700   69.7900  217.8730 H   0  0  0  0  0  0  0  0  0  0  0  0
  144.2920   71.1712  218.0124 H   0  0  0  0  0  0  0  0  0  0  0  0
  143.3010   70.5890  219.9265 H   0  0  0  0  0  0  0  0  0  0  0  0
  144.7731   71.0149  220.9207 H   0  0  0  0  0  0  0  0  0  0  0  0
  139.0574   70.3819  221.8085 H   0  0  0  0  0  0  0  0  0  0  0  0
  140.3707   69.3382  222.4900 H   0  0  0  0  0  0  0  0  0  0  0  0
  137.7303   70.0502  223.8551 H   0  0  0  0  0  0  0  0  0  0  0  0
  138.1506   68.4714  223.1648 H   0  0  0  0  0  0  0  0  0  0  0  0
  138.5588   67.0206  225.0136 H   0  0  0  0  0  0  0  0  0  0  0  0
  139.8151   66.5227  227.1119 H   0  0  0  0  0  0  0  0  0  0  0  0
  141.2414   68.2881  228.1076 H   0  0  0  0  0  0  0  0  0  0  0  0
  141.4249   70.5289  227.0521 H   0  0  0  0  0  0  0  0  0  0  0  0
  139.3777   72.0268  225.1313 H   0  0  0  0  0  0  0  0  0  0  0  0
  141.1529   71.8700  225.1100 H   0  0  0  0  0  0  0  0  0  0  0  0
  138.5179   76.4894  220.5055 H   0  0  0  0  0  0  0  0  0  0  0  0
  138.2015   74.9596  221.3548 H   0  0  0  0  0  0  0  0  0  0  0  0
  137.2651   76.9378  222.5971 H   0  0  0  0  0  0  0  0  0  0  0  0
  138.5096   76.1100  223.5584 H   0  0  0  0  0  0  0  0  0  0  0  0
  137.6229   79.0806  223.6470 H   0  0  0  0  0  0  0  0  0  0  0  0
  138.9199   81.1524  223.6764 H   0  0  0  0  0  0  0  0  0  0  0  0
  141.1949   81.2936  222.7117 H   0  0  0  0  0  0  0  0  0  0  0  0
  142.1736   79.2085  221.6803 H   0  0  0  0  0  0  0  0  0  0  0  0
  141.3275   77.0648  220.4280 H   0  0  0  0  0  0  0  0  0  0  0  0
  142.0017   76.5890  222.0256 H   0  0  0  0  0  0  0  0  0  0  0  0
  144.0131   73.9774  218.7274 H   0  0  0  0  0  0  0  0  0  0  0  0
  144.2966   74.6345  220.3292 H   0  0  0  0  0  0  0  0  0  0  0  0
  146.5261   74.0097  219.4535 H   0  0  0  0  0  0  0  0  0  0  0  0
  146.1365   72.7278  220.6070 H   0  0  0  0  0  0  0  0  0  0  0  0
  1  2  1  0
  2  3  1  0
  3  4  1  0
  4  5  1  0
  5  6  1  0
  6  7  1  0
  7  8  2  0
  8  9  1  0
  9 10  1  0
 10 11  1  0
 11 12  1  0
 12 13  1  0
 13 14  2  0
 14 15  1  0
 15 16  2  0
 16 17  1  0
 17 18  2  0
 18 19  1  0
  9 20  2  0
 20 21  1  0
 21 22  1  0
 22 23  1  0
 23 24  1  0
 24 25  1  0
 25 26  2  0
 26 27  1  0
 27 28  2  0
 28 29  1  0
 29 30  2  0
 30 31  1  0
 21 32  2  0
  6 33  1  0
 33 34  1  0
 34 35  1  0
 35  4  1  0
 32  7  1  0
 19 10  1  0
 31 22  1  0
 18 13  1  0
 30 25  1  0
  1 36  1  0
  1 37  1  0
  1 38  1  0
  2 39  1  0
  2 40  1  0
  3 41  1  0
  4 42  1  6
  5 43  1  0
  5 44  1  0
 11 45  1  0
 11 46  1  0
 12 47  1  0
 12 48  1  0
 14 49  1  0
 15 50  1  0
 16 51  1  0
 17 52  1  0
 19 53  1  0
 19 54  1  0
 23 55  1  0
 23 56  1  0
 24 57  1  0
 24 58  1  0
 26 59  1  0
 27 60  1  0
 28 61  1  0
 29 62  1  0
 31 63  1  0
 31 64  1  0
 33 65  1  0
 33 66  1  0
 34 67  1  0
 34 68  1  0
M  END
>  <smiles>  (97) 
CCNC1CN(c2nc(N3CCc4ccccc4C3)nc(N3CCc4ccccc4C3)n2)CCO1

>  <score_type>  (97) 
oracle

>  <origin>  (97) 
autodockgpu

>  <m_score__min__energy>  (97) 
-10.41

>  <m_primary>  (97) 
energy

>  <rmsd>  (97) 
9.28773278218014

>  <m_score__min__rmsd>  (97) 
9.28773278218014

>  <meeko>  (97) 
{"free_energy": -10.28, "intermolecular_energy": -11.77, "internal_energy": -0.98, "cluster_size": 49, "cluster_id": 1, "rank_in_cluster": 30}

>  <energy>  (97) 
-9.92

>  <cluster_rmsd>  (97) 
0.8

>  <cluster>  (97) 
1

$$$$

     RDKit          3D

 68 73  0  0  0  0  0  0  0  0999 V2000
  145.7320   74.4480  215.9550 C   0  0  0  0  0  0  0  0  0  0  0  0
  145.2070   73.7840  217.1840 C   0  0  0  0  0  0  0  0  0  0  0  0
  146.2380   73.3510  218.1100 N   0  0  0  0  0  0  0  0  0  0  0  0
  145.5620   72.6040  219.1530 C   0  0  1  0  0  0  0  0  0  0  0  0
  144.2060   73.1710  219.4700 C   0  0  0  0  0  0  0  0  0  0  0  0
  143.3690   72.2720  220.1960 N   0  0  0  0  0  0  0  0  0  0  0  0
  142.2830   72.6600  221.0280 C   0  0  0  0  0  0  0  0  0  0  0  0
  141.7420   71.8160  221.9230 N   0  0  0  0  0  0  0  0  0  0  0  0
  140.7040   72.1730  222.7250 C   0  0  0  0  0  0  0  0  0  0  0  0
  140.1680   71.2330  223.6620 N   0  0  0  0  0  0  0  0  0  0  0  0
  139.5020   70.0510  223.1400 C   0  0  0  0  0  0  0  0  0  0  0  0
  138.5490   69.4560  224.1610 C   0  0  0  0  0  0  0  0  0  0  0  0
  139.3690   69.1830  225.3960 C   0  0  0  0  0  0  0  0  0  0  0  0
  139.2680   67.9820  226.0590 C   0  0  0  0  0  0  0  0  0  0  0  0
  140.0330   67.7640  227.1850 C   0  0  0  0  0  0  0  0  0  0  0  0
  140.8800   68.7660  227.6110 C   0  0  0  0  0  0  0  0  0  0  0  0
  140.9730   69.9810  226.9290 C   0  0  0  0  0  0  0  0  0  0  0  0
  140.2040   70.2060  225.7930 C   0  0  0  0  0  0  0  0  0  0  0  0
  140.3110   71.5010  225.0780 C   0  0  0  0  0  0  0  0  0  0  0  0
  140.1970   73.4130  222.6210 N   0  0  0  0  0  0  0  0  0  0  0  0
  140.7180   74.2780  221.7350 C   0  0  0  0  0  0  0  0  0  0  0  0
  140.2160   75.6060  221.5850 N   0  0  0  0  0  0  0  0  0  0  0  0
  138.7920   75.8910  221.4790 C   0  0  0  0  0  0  0  0  0  0  0  0
  138.4110   76.7000  222.7000 C   0  0  0  0  0  0  0  0  0  0  0  0
  139.2730   77.9180  222.6960 C   0  0  0  0  0  0  0  0  0  0  0  0
  138.8030   79.0900  223.2430 C   0  0  0  0  0  0  0  0  0  0  0  0
  139.5840   80.2210  223.2480 C   0  0  0  0  0  0  0  0  0  0  0  0
  140.8540   80.2580  222.7190 C   0  0  0  0  0  0  0  0  0  0  0  0
  141.3420   79.0730  222.1610 C   0  0  0  0  0  0  0  0  0  0  0  0
  140.5480   77.9270  222.1580 C   0  0  0  0  0  0  0  0  0  0  0  0
  141.1620   76.7120  221.5370 C   0  0  0  0  0  0  0  0  0  0  0  0
  141.7530   73.8890  220.9510 N   0  0  0  0  0  0  0  0  0  0  0  0
  143.6590   70.8360  220.0680 C   0  0  0  0  0  0  0  0  0  0  0  0
  144.3130   70.7250  218.6860 C   0  0  0  0  0  0  0  0  0  0  0  0
  145.5850   71.2760  218.8290 O   0  0  0  0  0  0  0  0  0  0  0  0
  146.3907   75.2811  216.2413 H   0  0  0  0  0  0  0  0  0  0  0  0
  146.3007   73.7191  215.3589 H   0  0  0  0  0  0  0  0  0  0  0  0
  144.8916   74.8332  215.3589 H   0  0  0  0  0  0  0  0  0  0  0  0
  144.5496   74.4945  217.7065 H   0  0  0  0  0  0  0  0  0  0  0  0
  144.6767   72.8787  216.8536 H   0  0  0  0  0  0  0  0  0  0  0  0
  146.7440   74.1530  218.5130 H   0  0  0  0  0  0  0  0  0  0  0  0
  146.0986   72.7054  220.1079 H   0  0  0  0  0  0  0  0  0  0  0  0
  144.3414   74.0826  220.0706 H   0  0  0  0  0  0  0  0  0  0  0  0
  143.7076   73.3739  218.5106 H   0  0  0  0  0  0  0  0  0  0  0  0
  138.9343   70.3284  222.2396 H   0  0  0  0  0  0  0  0  0  0  0  0
  140.2683   69.2986  222.9019 H   0  0  0  0  0  0  0  0  0  0  0  0
  137.7421   70.1680  224.3892 H   0  0  0  0  0  0  0  0  0  0  0  0
  138.0794   68.5365  223.7814 H   0  0  0  0  0  0  0  0  0  0  0  0
  138.5830   67.2025  225.6940 H   0  0  0  0  0  0  0  0  0  0  0  0
  139.9694   66.8117  227.7319 H   0  0  0  0  0  0  0  0  0  0  0  0
  141.4959   68.6043  228.5079 H   0  0  0  0  0  0  0  0  0  0  0  0
  141.6569   70.7625  227.2918 H   0  0  0  0  0  0  0  0  0  0  0  0
  139.5143   72.1814  225.4132 H   0  0  0  0  0  0  0  0  0  0  0  0
  141.2807   71.9773  225.2848 H   0  0  0  0  0  0  0  0  0  0  0  0
  138.5892   76.4683  220.5649 H   0  0  0  0  0  0  0  0  0  0  0  0
  138.2081   74.9603  221.4267 H   0  0  0  0  0  0  0  0  0  0  0  0
  137.3502   76.9866  222.6486 H   0  0  0  0  0  0  0  0  0  0  0  0
  138.5561   76.1166  223.6212 H   0  0  0  0  0  0  0  0  0  0  0  0
  137.7940   79.1219  223.6798 H   0  0  0  0  0  0  0  0  0  0  0  0
  139.1751   81.1389  223.6955 H   0  0  0  0  0  0  0  0  0  0  0  0
  141.4572   81.1777  222.7346 H   0  0  0  0  0  0  0  0  0  0  0  0
  142.3514   79.0446  221.7247 H   0  0  0  0  0  0  0  0  0  0  0  0
  141.4202   76.9273  220.4896 H   0  0  0  0  0  0  0  0  0  0  0  0
  142.0712   76.4385  222.0924 H   0  0  0  0  0  0  0  0  0  0  0  0
  144.3486   70.5022  220.8573 H   0  0  0  0  0  0  0  0  0  0  0  0
  142.7623   70.2070  220.1695 H   0  0  0  0  0  0  0  0  0  0  0  0
  144.3832   69.6714  218.3777 H   0  0  0  0  0  0  0  0  0  0  0  0
  143.7272   71.2469  217.9150 H   0  0  0  0  0  0  0  0  0  0  0  0
  1  2  1  0
  2  3  1  0
  3  4  1  0
  4  5  1  0
  5  6  1  0
  6  7  1  0
  7  8  2  0
  8  9  1  0
  9 10  1  0
 10 11  1  0
 11 12  1  0
 12 13  1  0
 13 14  2  0
 14 15  1  0
 15 16  2  0
 16 17  1  0
 17 18  2  0
 18 19  1  0
  9 20  2  0
 20 21  1  0
 21 22  1  0
 22 23  1  0
 23 24  1  0
 24 25  1  0
 25 26  2  0
 26 27  1  0
 27 28  2  0
 28 29  1  0
 29 30  2  0
 30 31  1  0
 21 32  2  0
  6 33  1  0
 33 34  1  0
 34 35  1  0
 35  4  1  0
 32  7  1  0
 19 10  1  0
 31 22  1  0
 18 13  1  0
 30 25  1  0
  1 36  1  0
  1 37  1  0
  1 38  1  0
  2 39  1  0
  2 40  1  0
  3 41  1  0
  4 42  1  1
  5 43  1  0
  5 44  1  0
 11 45  1  0
 11 46  1  0
 12 47  1  0
 12 48  1  0
 14 49  1  0
 15 50  1  0
 16 51  1  0
 17 52  1  0
 19 53  1  0
 19 54  1  0
 23 55  1  0
 23 56  1  0
 24 57  1  0
 24 58  1  0
 26 59  1  0
 27 60  1  0
 28 61  1  0
 29 62  1  0
 31 63  1  0
 31 64  1  0
 33 65  1  0
 33 66  1  0
 34 67  1  0
 34 68  1  0
M  END
>  <smiles>  (98) 
CCNC1CN(c2nc(N3CCc4ccccc4C3)nc(N3CCc4ccccc4C3)n2)CCO1

>  <score_type>  (98) 
oracle

>  <origin>  (98) 
autodockgpu

>  <m_score__min__energy>  (98) 
-10.41

>  <m_primary>  (98) 
energy

>  <rmsd>  (98) 
7.33997202717846

>  <m_score__min__rmsd>  (98) 
7.33997202717846

>  <meeko>  (98) 
{"free_energy": -10.4, "intermolecular_energy": -11.89, "internal_energy": -1.0, "cluster_size": 49, "cluster_id": 1, "rank_in_cluster": 3}

>  <energy>  (98) 
-9.85

>  <cluster_rmsd>  (98) 
0.88

>  <cluster>  (98) 
1

$$$$

     RDKit          3D

 68 73  0  0  0  0  0  0  0  0999 V2000
  144.8040   74.5580  215.8940 C   0  0  0  0  0  0  0  0  0  0  0  0
  145.1190   73.2840  216.6050 C   0  0  0  0  0  0  0  0  0  0  0  0
  146.1230   73.4180  217.6440 N   0  0  0  0  0  0  0  0  0  0  0  0
  145.5800   72.7670  218.8210 C   0  0  1  0  0  0  0  0  0  0  0  0
  144.1800   73.2210  219.1250 C   0  0  0  0  0  0  0  0  0  0  0  0
  143.4820   72.3550  220.0210 N   0  0  0  0  0  0  0  0  0  0  0  0
  142.3910   72.7410  220.8440 C   0  0  0  0  0  0  0  0  0  0  0  0
  141.8140   71.8820  221.7020 N   0  0  0  0  0  0  0  0  0  0  0  0
  140.7690   72.2370  222.4960 C   0  0  0  0  0  0  0  0  0  0  0  0
  140.1940   71.2800  223.3920 N   0  0  0  0  0  0  0  0  0  0  0  0
  139.5200   70.1260  222.8200 C   0  0  0  0  0  0  0  0  0  0  0  0
  138.5330   69.5200  223.8010 C   0  0  0  0  0  0  0  0  0  0  0  0
  139.3180   69.1970  225.0460 C   0  0  0  0  0  0  0  0  0  0  0  0
  139.1800   67.9780  225.6710 C   0  0  0  0  0  0  0  0  0  0  0  0
  139.9140   67.7150  226.8080 C   0  0  0  0  0  0  0  0  0  0  0  0
  140.7680   68.6880  227.2830 C   0  0  0  0  0  0  0  0  0  0  0  0
  140.8990   69.9200  226.6390 C   0  0  0  0  0  0  0  0  0  0  0  0
  140.1610   70.1920  225.4920 C   0  0  0  0  0  0  0  0  0  0  0  0
  140.3080   71.5050  224.8180 C   0  0  0  0  0  0  0  0  0  0  0  0
  140.2920   73.4910  222.4220 N   0  0  0  0  0  0  0  0  0  0  0  0
  140.8480   74.3720  221.5740 C   0  0  0  0  0  0  0  0  0  0  0  0
  140.3800   75.7140  221.4570 N   0  0  0  0  0  0  0  0  0  0  0  0
  138.9610   76.0450  221.4550 C   0  0  0  0  0  0  0  0  0  0  0  0
  138.6960   76.8660  222.6980 C   0  0  0  0  0  0  0  0  0  0  0  0
  139.5930   78.0560  222.6280 C   0  0  0  0  0  0  0  0  0  0  0  0
  139.2020   79.2420  223.2050 C   0  0  0  0  0  0  0  0  0  0  0  0
  140.0160   80.3480  223.1510 C   0  0  0  0  0  0  0  0  0  0  0  0
  141.2450   80.3440  222.5310 C   0  0  0  0  0  0  0  0  0  0  0  0
  141.6530   79.1440  221.9420 C   0  0  0  0  0  0  0  0  0  0  0  0
  140.8250   78.0240  221.9990 C   0  0  0  0  0  0  0  0  0  0  0  0
  141.3530   76.7900  221.3380 C   0  0  0  0  0  0  0  0  0  0  0  0
  141.8900   73.9840  220.7970 N   0  0  0  0  0  0  0  0  0  0  0  0
  143.9370   70.9580  220.0900 C   0  0  0  0  0  0  0  0  0  0  0  0
  144.5480   70.7110  218.7050 C   0  0  0  0  0  0  0  0  0  0  0  0
  145.7490   71.4170  218.6960 O   0  0  0  0  0  0  0  0  0  0  0  0
  144.6080   75.3505  216.6312 H   0  0  0  0  0  0  0  0  0  0  0  0
  145.6578   74.8468  215.2634 H   0  0  0  0  0  0  0  0  0  0  0  0
  143.9140   74.4156  215.2634 H   0  0  0  0  0  0  0  0  0  0  0  0
  144.1937   72.9074  217.0653 H   0  0  0  0  0  0  0  0  0  0  0  0
  145.5306   72.5946  215.8532 H   0  0  0  0  0  0  0  0  0  0  0  0
  146.3310   74.4070  217.8440 H   0  0  0  0  0  0  0  0  0  0  0  0
  146.1362   73.0713  219.7199 H   0  0  0  0  0  0  0  0  0  0  0  0
  144.2292   74.2228  219.5766 H   0  0  0  0  0  0  0  0  0  0  0  0
  143.6256   73.2184  218.1749 H   0  0  0  0  0  0  0  0  0  0  0  0
  138.9788   70.4395  221.9151 H   0  0  0  0  0  0  0  0  0  0  0  0
  140.2781   69.3668  222.5774 H   0  0  0  0  0  0  0  0  0  0  0  0
  137.7337   70.2400  224.0308 H   0  0  0  0  0  0  0  0  0  0  0  0
  138.0565   68.6204  223.3843 H   0  0  0  0  0  0  0  0  0  0  0  0
  138.4910   67.2215  225.2672 H   0  0  0  0  0  0  0  0  0  0  0  0
  139.8204   66.7489  227.3256 H   0  0  0  0  0  0  0  0  0  0  0  0
  141.3590   68.4892  228.1892 H   0  0  0  0  0  0  0  0  0  0  0  0
  141.5881   70.6778  227.0401 H   0  0  0  0  0  0  0  0  0  0  0  0
  139.5158   72.1901  225.1542 H   0  0  0  0  0  0  0  0  0  0  0  0
  141.2806   71.9575  225.0613 H   0  0  0  0  0  0  0  0  0  0  0  0
  138.7105   76.6282  220.5566 H   0  0  0  0  0  0  0  0  0  0  0  0
  138.3455   75.1334  221.4483 H   0  0  0  0  0  0  0  0  0  0  0  0
  137.6438   77.1859  222.7233 H   0  0  0  0  0  0  0  0  0  0  0  0
  138.8898   76.2787  223.6077 H   0  0  0  0  0  0  0  0  0  0  0  0
  138.2290   79.3057  223.7142 H   0  0  0  0  0  0  0  0  0  0  0  0
  139.6698   81.2785  223.6246 H   0  0  0  0  0  0  0  0  0  0  0  0
  141.8769   81.2439  222.5005 H   0  0  0  0  0  0  0  0  0  0  0  0
  142.6267   79.0834  221.4339 H   0  0  0  0  0  0  0  0  0  0  0  0
  141.5406   76.9971  220.2741 H   0  0  0  0  0  0  0  0  0  0  0  0
  142.2909   76.4882  221.8271 H   0  0  0  0  0  0  0  0  0  0  0  0
  144.6906   70.8286  220.8808 H   0  0  0  0  0  0  0  0  0  0  0  0
  143.1262   70.2550  220.3319 H   0  0  0  0  0  0  0  0  0  0  0  0
  144.7322   69.6374  218.5521 H   0  0  0  0  0  0  0  0  0  0  0  0
  143.8760   71.0392  217.8984 H   0  0  0  0  0  0  0  0  0  0  0  0
  1  2  1  0
  2  3  1  0
  3  4  1  0
  4  5  1  0
  5  6  1  0
  6  7  1  0
  7  8  2  0
  8  9  1  0
  9 10  1  0
 10 11  1  0
 11 12  1  0
 12 13  1  0
 13 14  2  0
 14 15  1  0
 15 16  2  0
 16 17  1  0
 17 18  2  0
 18 19  1  0
  9 20  2  0
 20 21  1  0
 21 22  1  0
 22 23  1  0
 23 24  1  0
 24 25  1  0
 25 26  2  0
 26 27  1  0
 27 28  2  0
 28 29  1  0
 29 30  2  0
 30 31  1  0
 21 32  2  0
  6 33  1  0
 33 34  1  0
 34 35  1  0
 35  4  1  0
 32  7  1  0
 19 10  1  0
 31 22  1  0
 18 13  1  0
 30 25  1  0
  1 36  1  0
  1 37  1  0
  1 38  1  0
  2 39  1  0
  2 40  1  0
  3 41  1  0
  4 42  1  1
  5 43  1  0
  5 44  1  0
 11 45  1  0
 11 46  1  0
 12 47  1  0
 12 48  1  0
 14 49  1  0
 15 50  1  0
 16 51  1  0
 17 52  1  0
 19 53  1  0
 19 54  1  0
 23 55  1  0
 23 56  1  0
 24 57  1  0
 24 58  1  0
 26 59  1  0
 27 60  1  0
 28 61  1  0
 29 62  1  0
 31 63  1  0
 31 64  1  0
 33 65  1  0
 33 66  1  0
 34 67  1  0
 34 68  1  0
M  END
>  <smiles>  (99) 
CCNC1CN(c2nc(N3CCc4ccccc4C3)nc(N3CCc4ccccc4C3)n2)CCO1

>  <score_type>  (99) 
oracle

>  <origin>  (99) 
autodockgpu

>  <m_score__min__energy>  (99) 
-10.41

>  <m_primary>  (99) 
energy

>  <rmsd>  (99) 
7.3881747999451655

>  <m_score__min__rmsd>  (99) 
7.3881747999451655

>  <meeko>  (99) 
{"free_energy": -10.32, "intermolecular_energy": -11.82, "internal_energy": -0.99, "cluster_size": 49, "cluster_id": 1, "rank_in_cluster": 11}

>  <energy>  (99) 
-9.71

>  <cluster_rmsd>  (99) 
0.98

>  <cluster>  (99) 
1

$$$$

     RDKit          3D

 68 73  0  0  0  0  0  0  0  0999 V2000
  145.8470   67.9330  219.4210 C   0  0  0  0  0  0  0  0  0  0  0  0
  144.9750   69.1360  219.2840 C   0  0  0  0  0  0  0  0  0  0  0  0
  145.4060   70.0660  218.2570 N   0  0  0  0  0  0  0  0  0  0  0  0
  144.8400   71.3540  218.6090 C   0  0  1  0  0  0  0  0  0  0  0  0
  143.8810   71.2560  219.7630 C   0  0  0  0  0  0  0  0  0  0  0  0
  143.5990   72.5140  220.3770 N   0  0  0  0  0  0  0  0  0  0  0  0
  142.4270   72.8120  221.1220 C   0  0  0  0  0  0  0  0  0  0  0  0
  141.8560   71.9070  221.9350 N   0  0  0  0  0  0  0  0  0  0  0  0
  140.7340   72.1780  222.6540 C   0  0  0  0  0  0  0  0  0  0  0  0
  140.1700   71.1740  223.5050 N   0  0  0  0  0  0  0  0  0  0  0  0
  139.5400   70.0230  222.8800 C   0  0  0  0  0  0  0  0  0  0  0  0
  138.5520   69.3550  223.8180 C   0  0  0  0  0  0  0  0  0  0  0  0
  139.3230   69.0090  225.0680 C   0  0  0  0  0  0  0  0  0  0  0  0
  139.2070   67.7660  225.6460 C   0  0  0  0  0  0  0  0  0  0  0  0
  139.9270   67.4830  226.7880 C   0  0  0  0  0  0  0  0  0  0  0  0
  140.7440   68.4620  227.3140 C   0  0  0  0  0  0  0  0  0  0  0  0
  140.8510   69.7190  226.7160 C   0  0  0  0  0  0  0  0  0  0  0  0
  140.1280   70.0110  225.5640 C   0  0  0  0  0  0  0  0  0  0  0  0
  140.2500   71.3510  224.9400 C   0  0  0  0  0  0  0  0  0  0  0  0
  140.1730   73.3940  222.5510 N   0  0  0  0  0  0  0  0  0  0  0  0
  140.7210   74.3200  221.7470 C   0  0  0  0  0  0  0  0  0  0  0  0
  140.1640   75.6250  221.6010 N   0  0  0  0  0  0  0  0  0  0  0  0
  138.7300   75.8500  221.4790 C   0  0  0  0  0  0  0  0  0  0  0  0
  138.2990   76.6300  222.7020 C   0  0  0  0  0  0  0  0  0  0  0  0
  139.1060   77.8850  222.7190 C   0  0  0  0  0  0  0  0  0  0  0  0
  138.5790   79.0290  223.2710 C   0  0  0  0  0  0  0  0  0  0  0  0
  139.3090   80.1940  223.2960 C   0  0  0  0  0  0  0  0  0  0  0  0
  140.5830   80.2900  222.7840 C   0  0  0  0  0  0  0  0  0  0  0  0
  141.1290   79.1330  222.2230 C   0  0  0  0  0  0  0  0  0  0  0  0
  140.3870   77.9540  222.1990 C   0  0  0  0  0  0  0  0  0  0  0  0
  141.0610   76.7720  221.5760 C   0  0  0  0  0  0  0  0  0  0  0  0
  141.8400   74.0150  221.0440 N   0  0  0  0  0  0  0  0  0  0  0  0
  144.6040   73.5750  220.2200 C   0  0  0  0  0  0  0  0  0  0  0  0
  145.9170   72.8020  220.0420 C   0  0  0  0  0  0  0  0  0  0  0  0
  145.8570   72.2550  218.7620 O   0  0  0  0  0  0  0  0  0  0  0  0
  146.0054   67.7145  220.4874 H   0  0  0  0  0  0  0  0  0  0  0  0
  145.3620   67.0717  218.9383 H   0  0  0  0  0  0  0  0  0  0  0  0
  146.8164   68.1259  218.9383 H   0  0  0  0  0  0  0  0  0  0  0  0
  143.9570   68.7987  219.0394 H   0  0  0  0  0  0  0  0  0  0  0  0
  145.0253   69.6751  220.2415 H   0  0  0  0  0  0  0  0  0  0  0  0
  145.0810   69.7750  217.3230 H   0  0  0  0  0  0  0  0  0  0  0  0
  144.2046   71.7308  217.7939 H   0  0  0  0  0  0  0  0  0  0  0  0
  142.9365   70.8283  219.3956 H   0  0  0  0  0  0  0  0  0  0  0  0
  144.3565   70.6225  220.5263 H   0  0  0  0  0  0  0  0  0  0  0  0
  139.0077   70.3535  221.9759 H   0  0  0  0  0  0  0  0  0  0  0  0
  140.3241   69.2942  222.6271 H   0  0  0  0  0  0  0  0  0  0  0  0
  137.7282   70.0436  224.0569 H   0  0  0  0  0  0  0  0  0  0  0  0
  138.1093   68.4582  223.3600 H   0  0  0  0  0  0  0  0  0  0  0  0
  138.5472   67.0060  225.2022 H   0  0  0  0  0  0  0  0  0  0  0  0
  139.8512   66.4968  227.2694 H   0  0  0  0  0  0  0  0  0  0  0  0
  141.3236   68.2478  228.2240 H   0  0  0  0  0  0  0  0  0  0  0  0
  141.5096   70.4815  227.1575 H   0  0  0  0  0  0  0  0  0  0  0  0
  139.4320   72.0010  225.2841 H   0  0  0  0  0  0  0  0  0  0  0  0
  141.2042   71.8219  225.2188 H   0  0  0  0  0  0  0  0  0  0  0  0
  138.5143   76.4269  220.5676 H   0  0  0  0  0  0  0  0  0  0  0  0
  138.1873   74.8956  221.4107 H   0  0  0  0  0  0  0  0  0  0  0  0
  137.2272   76.8697  222.6400 H   0  0  0  0  0  0  0  0  0  0  0  0
  138.4590   76.0452  223.6199 H   0  0  0  0  0  0  0  0  0  0  0  0
  137.5647   79.0120  223.6962 H   0  0  0  0  0  0  0  0  0  0  0  0
  138.8545   81.0893  223.7453 H   0  0  0  0  0  0  0  0  0  0  0  0
  141.1456   81.2347  222.8151 H   0  0  0  0  0  0  0  0  0  0  0  0
  142.1444   79.1528  221.8004 H   0  0  0  0  0  0  0  0  0  0  0  0
  141.3236   77.0081  220.5342 H   0  0  0  0  0  0  0  0  0  0  0  0
  141.9733   76.5330  222.1422 H   0  0  0  0  0  0  0  0  0  0  0  0
  144.3886   74.1927  219.3357 H   0  0  0  0  0  0  0  0  0  0  0  0
  144.6288   74.2707  221.0717 H   0  0  0  0  0  0  0  0  0  0  0  0
  146.7778   73.4812  220.1297 H   0  0  0  0  0  0  0  0  0  0  0  0
  146.0410   72.0260  220.8117 H   0  0  0  0  0  0  0  0  0  0  0  0
  1  2  1  0
  2  3  1  0
  3  4  1  0
  4  5  1  0
  5  6  1  0
  6  7  1  0
  7  8  2  0
  8  9  1  0
  9 10  1  0
 10 11  1  0
 11 12  1  0
 12 13  1  0
 13 14  2  0
 14 15  1  0
 15 16  2  0
 16 17  1  0
 17 18  2  0
 18 19  1  0
  9 20  2  0
 20 21  1  0
 21 22  1  0
 22 23  1  0
 23 24  1  0
 24 25  1  0
 25 26  2  0
 26 27  1  0
 27 28  2  0
 28 29  1  0
 29 30  2  0
 30 31  1  0
 21 32  2  0
  6 33  1  0
 33 34  1  0
 34 35  1  0
 35  4  1  0
 32  7  1  0
 19 10  1  0
 31 22  1  0
 18 13  1  0
 30 25  1  0
  1 36  1  0
  1 37  1  0
  1 38  1  0
  2 39  1  0
  2 40  1  0
  3 41  1  0
  4 42  1  6
  5 43  1  0
  5 44  1  0
 11 45  1  0
 11 46  1  0
 12 47  1  0
 12 48  1  0
 14 49  1  0
 15 50  1  0
 16 51  1  0
 17 52  1  0
 19 53  1  0
 19 54  1  0
 23 55  1  0
 23 56  1  0
 24 57  1  0
 24 58  1  0
 26 59  1  0
 27 60  1  0
 28 61  1  0
 29 62  1  0
 31 63  1  0
 31 64  1  0
 33 65  1  0
 33 66  1  0
 34 67  1  0
 34 68  1  0
M  END
>  <smiles>  (100) 
CCNC1CN(c2nc(N3CCc4ccccc4C3)nc(N3CCc4ccccc4C3)n2)CCO1

>  <score_type>  (100) 
oracle

>  <origin>  (100) 
autodockgpu

>  <m_score__min__energy>  (100) 
-10.41

>  <m_primary>  (100) 
energy

>  <rmsd>  (100) 
9.22879505361227

>  <m_score__min__rmsd>  (100) 
9.22879505361227

>  <meeko>  (100) 
{"free_energy": -10.26, "intermolecular_energy": -11.75, "internal_energy": -1.01, "cluster_size": 49, "cluster_id": 1, "rank_in_cluster": 38}

>  <energy>  (100) 
-9.65

>  <cluster_rmsd>  (100) 
0.0

>  <cluster>  (100) 
2

$$$$
