
     RDKit          3D

 56 59  0  0  0  0  0  0  0  0999 V2000
  138.2940   71.3860  221.1670 O   0  0  0  0  0  0  0  0  0  0  0  0
  138.8210   71.8960  222.1850 C   0  0  0  0  0  0  0  0  0  0  0  0
  139.1130   73.2820  222.3140 N   0  0  0  0  0  0  0  0  0  0  0  0
  138.7780   74.1420  221.2040 C   0  0  0  0  0  0  0  0  0  0  0  0
  138.9000   75.5370  221.6390 C   0  0  0  0  0  0  0  0  0  0  0  0
  139.8050   75.9080  222.4400 O   0  0  0  0  0  0  0  0  0  0  0  0
  138.0110   76.5510  221.1850 N   0  0  0  0  0  0  0  0  0  0  0  0
  136.5870   76.2780  221.0920 C   0  0  0  0  0  0  0  0  0  0  0  0
  136.2760   76.1610  219.6180 C   0  0  0  0  0  0  0  0  0  0  0  0
  137.2040   77.0890  218.8670 C   0  0  0  0  0  0  0  0  0  0  0  0
  137.5320   78.3240  219.6900 C   0  0  0  0  0  0  0  0  0  0  0  0
  138.4500   77.8780  220.8000 C   0  0  1  0  0  0  0  0  0  0  0  0
  138.3790   78.8240  221.9910 C   0  0  0  0  0  0  0  0  0  0  0  0
  139.3540   78.4680  223.0010 N   0  0  0  0  0  0  0  0  0  0  0  0
  140.5160   79.2630  223.1800 C   0  0  0  0  0  0  0  0  0  0  0  0
  141.7580   78.7370  222.8480 C   0  0  0  0  0  0  0  0  0  0  0  0
  142.9150   79.4860  223.0110 C   0  0  0  0  0  0  0  0  0  0  0  0
  142.8160   80.7780  223.5120 C   0  0  0  0  0  0  0  0  0  0  0  0
  141.5730   81.3100  223.8460 C   0  0  0  0  0  0  0  0  0  0  0  0
  140.4460   80.5380  223.6720 C   0  0  0  0  0  0  0  0  0  0  0  0
  139.1580   71.0190  223.3080 C   0  0  0  0  0  0  0  0  0  0  0  0
  138.8590   69.6670  223.2780 C   0  0  0  0  0  0  0  0  0  0  0  0
  139.1790   68.8250  224.3470 C   0  0  0  0  0  0  0  0  0  0  0  0
  139.8070   69.3290  225.4690 C   0  0  0  0  0  0  0  0  0  0  0  0
  140.1420   68.5330  226.5520 C   0  0  0  0  0  0  0  0  0  0  0  0
  140.7720   69.1270  227.6360 C   0  0  0  0  0  0  0  0  0  0  0  0
  141.2210   68.1700  229.0340 Cl  0  0  0  0  0  0  0  0  0  0  0  0
  141.0710   70.4790  227.6660 C   0  0  0  0  0  0  0  0  0  0  0  0
  140.7280   71.2600  226.5750 C   0  0  0  0  0  0  0  0  0  0  0  0
  140.0940   70.6850  225.4700 C   0  0  0  0  0  0  0  0  0  0  0  0
  139.7700   71.4680  224.4200 N   0  0  0  0  0  0  0  0  0  0  0  0
  139.5550   73.6620  223.1890 H   0  0  0  0  0  0  0  0  0  0  0  0
  139.4672   73.9531  220.3678 H   0  0  0  0  0  0  0  0  0  0  0  0
  137.7492   73.9412  220.8704 H   0  0  0  0  0  0  0  0  0  0  0  0
  136.3444   75.3378  221.6088 H   0  0  0  0  0  0  0  0  0  0  0  0
  135.9942   77.0748  221.5649 H   0  0  0  0  0  0  0  0  0  0  0  0
  136.4348   75.1249  219.2845 H   0  0  0  0  0  0  0  0  0  0  0  0
  135.2276   76.4338  219.4269 H   0  0  0  0  0  0  0  0  0  0  0  0
  138.1368   76.5537  218.6361 H   0  0  0  0  0  0  0  0  0  0  0  0
  136.7017   77.4102  217.9426 H   0  0  0  0  0  0  0  0  0  0  0  0
  138.0342   79.0748  219.0622 H   0  0  0  0  0  0  0  0  0  0  0  0
  136.6176   78.7823  220.0948 H   0  0  0  0  0  0  0  0  0  0  0  0
  139.4961   77.8761  220.4598 H   0  0  0  0  0  0  0  0  0  0  0  0
  138.5770   79.8498  221.6468 H   0  0  0  0  0  0  0  0  0  0  0  0
  137.3751   78.7510  222.4347 H   0  0  0  0  0  0  0  0  0  0  0  0
  139.2260   77.6230  223.6190 H   0  0  0  0  0  0  0  0  0  0  0  0
  141.8254   77.7135  222.4507 H   0  0  0  0  0  0  0  0  0  0  0  0
  143.8956   79.0630  222.7475 H   0  0  0  0  0  0  0  0  0  0  0  0
  143.7242   81.3840  223.6456 H   0  0  0  0  0  0  0  0  0  0  0  0
  141.4926   82.3326  224.2432 H   0  0  0  0  0  0  0  0  0  0  0  0
  139.4637   80.9572  223.9354 H   0  0  0  0  0  0  0  0  0  0  0  0
  138.3586   69.2464  222.3933 H   0  0  0  0  0  0  0  0  0  0  0  0
  138.9292   67.7550  224.2942 H   0  0  0  0  0  0  0  0  0  0  0  0
  139.9142   67.4568  226.5526 H   0  0  0  0  0  0  0  0  0  0  0  0
  141.5710   70.9236  228.5391 H   0  0  0  0  0  0  0  0  0  0  0  0
  140.9552   72.3363  226.5781 H   0  0  0  0  0  0  0  0  0  0  0  0
  1  2  2  0
  2  3  1  0
  3  4  1  0
  4  5  1  0
  5  6  2  0
  5  7  1  0
  7  8  1  0
  8  9  1  0
  9 10  1  0
 10 11  1  0
 11 12  1  0
 12 13  1  0
 13 14  1  0
 14 15  1  0
 15 16  2  0
 16 17  1  0
 17 18  2  0
 18 19  1  0
 19 20  2  0
  2 21  1  0
 21 22  2  0
 22 23  1  0
 23 24  2  0
 24 25  1  0
 25 26  2  0
 26 27  1  0
 26 28  1  0
 28 29  2  0
 29 30  1  0
 30 31  2  0
 12  7  1  0
 20 15  1  0
 31 21  1  0
 30 24  1  0
  3 32  1  0
  4 33  1  0
  4 34  1  0
  8 35  1  0
  8 36  1  0
  9 37  1  0
  9 38  1  0
 10 39  1  0
 10 40  1  0
 11 41  1  0
 11 42  1  0
 12 43  1  6
 13 44  1  0
 13 45  1  0
 14 46  1  0
 16 47  1  0
 17 48  1  0
 18 49  1  0
 19 50  1  0
 20 51  1  0
 22 52  1  0
 23 53  1  0
 25 54  1  0
 28 55  1  0
 29 56  1  0
M  END
>  <smiles>  (1) 
O=C(NCC(=O)N1CCCC[C@H]1CNc1ccccc1)c1ccc2cc(Cl)ccc2n1

>  <score_type>  (1) 
oracle

>  <origin>  (1) 
autodockgpu

>  <m_score__min__energy>  (1) 
-8.9800000000000004

>  <m_primary>  (1) 
energy

>  <rmsd>  (1) 
2.741227307165238

>  <m_score__min__rmsd>  (1) 
2.741227307165238

>  <meeko>  (1) 
{"free_energy": -7.83, "intermolecular_energy": -9.92, "internal_energy": -2.62, "cluster_size": 27, "cluster_id": 2, "rank_in_cluster": 23}

>  <energy>  (1) 
-8.98

>  <cluster_rmsd>  (1) 
0.0

>  <cluster>  (1) 
1

$$$$

     RDKit          3D

 56 59  0  0  0  0  0  0  0  0999 V2000
  138.7280   73.5480  220.3430 O   0  0  0  0  0  0  0  0  0  0  0  0
  138.5330   74.2380  221.3730 C   0  0  0  0  0  0  0  0  0  0  0  0
  137.5390   73.9410  222.3470 N   0  0  0  0  0  0  0  0  0  0  0  0
  136.7130   72.7790  222.1260 C   0  0  0  0  0  0  0  0  0  0  0  0
  137.0230   71.7820  223.1560 C   0  0  0  0  0  0  0  0  0  0  0  0
  136.2620   71.5920  224.1490 O   0  0  0  0  0  0  0  0  0  0  0  0
  138.1910   70.9730  223.0990 N   0  0  0  0  0  0  0  0  0  0  0  0
  139.4300   71.4470  223.6910 C   0  0  0  0  0  0  0  0  0  0  0  0
  140.3350   71.8140  222.5380 C   0  0  0  0  0  0  0  0  0  0  0  0
  140.0270   70.8870  221.3840 C   0  0  0  0  0  0  0  0  0  0  0  0
  139.6040   69.5140  221.8800 C   0  0  0  0  0  0  0  0  0  0  0  0
  138.2240   69.6670  222.4680 C   0  0  1  0  0  0  0  0  0  0  0  0
  137.9340   68.5790  223.4920 C   0  0  0  0  0  0  0  0  0  0  0  0
  137.9000   69.1200  224.8350 N   0  0  0  0  0  0  0  0  0  0  0  0
  138.9430   68.8190  225.7490 C   0  0  0  0  0  0  0  0  0  0  0  0
  139.2390   69.7220  226.7630 C   0  0  0  0  0  0  0  0  0  0  0  0
  140.2530   69.4610  227.6750 C   0  0  0  0  0  0  0  0  0  0  0  0
  140.9730   68.2780  227.5610 C   0  0  0  0  0  0  0  0  0  0  0  0
  140.6790   67.3700  226.5460 C   0  0  0  0  0  0  0  0  0  0  0  0
  139.6670   67.6620  225.6600 C   0  0  0  0  0  0  0  0  0  0  0  0
  139.3750   75.4160  221.5920 C   0  0  0  0  0  0  0  0  0  0  0  0
  140.6410   75.5060  221.0380 C   0  0  0  0  0  0  0  0  0  0  0  0
  141.4490   76.6280  221.2430 C   0  0  0  0  0  0  0  0  0  0  0  0
  140.9960   77.6840  222.0120 C   0  0  0  0  0  0  0  0  0  0  0  0
  141.7610   78.8150  222.2430 C   0  0  0  0  0  0  0  0  0  0  0  0
  141.2230   79.8240  223.0280 C   0  0  0  0  0  0  0  0  0  0  0  0
  142.1440   81.2790  223.3530 Cl  0  0  0  0  0  0  0  0  0  0  0  0
  139.9570   79.7340  223.5820 C   0  0  0  0  0  0  0  0  0  0  0  0
  139.2060   78.5950  223.3410 C   0  0  0  0  0  0  0  0  0  0  0  0
  139.7250   77.5640  222.5530 C   0  0  0  0  0  0  0  0  0  0  0  0
  138.9740   76.4660  222.3340 N   0  0  0  0  0  0  0  0  0  0  0  0
  137.4150   74.5510  223.1950 H   0  0  0  0  0  0  0  0  0  0  0  0
  135.6517   73.0610  222.1907 H   0  0  0  0  0  0  0  0  0  0  0  0
  136.9105   72.3618  221.1275 H   0  0  0  0  0  0  0  0  0  0  0  0
  139.2389   72.3281  224.3211 H   0  0  0  0  0  0  0  0  0  0  0  0
  139.8880   70.6785  224.3311 H   0  0  0  0  0  0  0  0  0  0  0  0
  140.1520   72.8563  222.2378 H   0  0  0  0  0  0  0  0  0  0  0  0
  141.3894   71.7144  222.8352 H   0  0  0  0  0  0  0  0  0  0  0  0
  139.2120   71.3188  220.7846 H   0  0  0  0  0  0  0  0  0  0  0  0
  140.9368   70.7729  220.7764 H   0  0  0  0  0  0  0  0  0  0  0  0
  139.5818   68.7999  221.0436 H   0  0  0  0  0  0  0  0  0  0  0  0
  140.3115   69.1311  222.6302 H   0  0  0  0  0  0  0  0  0  0  0  0
  137.4576   69.5754  221.6843 H   0  0  0  0  0  0  0  0  0  0  0  0
  136.9595   68.1224  223.2643 H   0  0  0  0  0  0  0  0  0  0  0  0
  138.7359   67.8279  223.4391 H   0  0  0  0  0  0  0  0  0  0  0  0
  137.1120   69.7400  225.1620 H   0  0  0  0  0  0  0  0  0  0  0  0
  138.6627   70.6554  226.8442 H   0  0  0  0  0  0  0  0  0  0  0  0
  140.4828   70.1797  228.4754 H   0  0  0  0  0  0  0  0  0  0  0  0
  141.7794   68.0572  228.2759 H   0  0  0  0  0  0  0  0  0  0  0  0
  141.2477   66.4329  226.4540 H   0  0  0  0  0  0  0  0  0  0  0  0
  139.4342   66.9454  224.8586 H   0  0  0  0  0  0  0  0  0  0  0  0
  141.0191   74.6761  220.4230 H   0  0  0  0  0  0  0  0  0  0  0  0
  142.4505   76.6711  220.7901 H   0  0  0  0  0  0  0  0  0  0  0  0
  142.7697   78.9107  221.8148 H   0  0  0  0  0  0  0  0  0  0  0  0
  139.5559   80.5502  224.2008 H   0  0  0  0  0  0  0  0  0  0  0  0
  138.1979   78.5018  223.7713 H   0  0  0  0  0  0  0  0  0  0  0  0
  1  2  2  0
  2  3  1  0
  3  4  1  0
  4  5  1  0
  5  6  2  0
  5  7  1  0
  7  8  1  0
  8  9  1  0
  9 10  1  0
 10 11  1  0
 11 12  1  0
 12 13  1  0
 13 14  1  0
 14 15  1  0
 15 16  2  0
 16 17  1  0
 17 18  2  0
 18 19  1  0
 19 20  2  0
  2 21  1  0
 21 22  2  0
 22 23  1  0
 23 24  2  0
 24 25  1  0
 25 26  2  0
 26 27  1  0
 26 28  1  0
 28 29  2  0
 29 30  1  0
 30 31  2  0
 12  7  1  0
 20 15  1  0
 31 21  1  0
 30 24  1  0
  3 32  1  0
  4 33  1  0
  4 34  1  0
  8 35  1  0
  8 36  1  0
  9 37  1  0
  9 38  1  0
 10 39  1  0
 10 40  1  0
 11 41  1  0
 11 42  1  0
 12 43  1  6
 13 44  1  0
 13 45  1  0
 14 46  1  0
 16 47  1  0
 17 48  1  0
 18 49  1  0
 19 50  1  0
 20 51  1  0
 22 52  1  0
 23 53  1  0
 25 54  1  0
 28 55  1  0
 29 56  1  0
M  END
>  <smiles>  (2) 
O=C(NCC(=O)N1CCCC[C@H]1CNc1ccccc1)c1ccc2cc(Cl)ccc2n1

>  <score_type>  (2) 
oracle

>  <origin>  (2) 
autodockgpu

>  <m_score__min__energy>  (2) 
-8.9800000000000004

>  <m_primary>  (2) 
energy

>  <rmsd>  (2) 
9.329355897632546

>  <m_score__min__rmsd>  (2) 
9.329355897632546

>  <meeko>  (2) 
{"free_energy": -7.58, "intermolecular_energy": -9.67, "internal_energy": -2.83, "cluster_size": 6, "cluster_id": 4, "rank_in_cluster": 4}

>  <energy>  (2) 
-8.95

>  <cluster_rmsd>  (2) 
0.9

>  <cluster>  (2) 
1

$$$$

     RDKit          3D

 56 59  0  0  0  0  0  0  0  0999 V2000
  140.4170   73.1450  222.4120 O   0  0  0  0  0  0  0  0  0  0  0  0
  139.8120   73.9430  221.6560 C   0  0  0  0  0  0  0  0  0  0  0  0
  138.6860   73.5830  220.8640 N   0  0  0  0  0  0  0  0  0  0  0  0
  138.2210   72.2190  220.9440 C   0  0  0  0  0  0  0  0  0  0  0  0
  137.4460   72.0600  222.1780 C   0  0  0  0  0  0  0  0  0  0  0  0
  136.7900   73.0180  222.6810 O   0  0  0  0  0  0  0  0  0  0  0  0
  137.3860   70.8240  222.8790 N   0  0  0  0  0  0  0  0  0  0  0  0
  136.5240   69.7590  222.3980 C   0  0  0  0  0  0  0  0  0  0  0  0
  135.3590   69.6910  223.3590 C   0  0  0  0  0  0  0  0  0  0  0  0
  135.8610   70.0780  224.7320 C   0  0  0  0  0  0  0  0  0  0  0  0
  137.3050   69.6450  224.9320 C   0  0  0  0  0  0  0  0  0  0  0  0
  138.1550   70.5520  224.0790 C   0  0  1  0  0  0  0  0  0  0  0  0
  139.4790   69.8940  223.7200 C   0  0  0  0  0  0  0  0  0  0  0  0
  140.1400   69.3700  224.8970 N   0  0  0  0  0  0  0  0  0  0  0  0
  140.3670   70.2090  226.0190 C   0  0  0  0  0  0  0  0  0  0  0  0
  141.1220   71.3640  225.8610 C   0  0  0  0  0  0  0  0  0  0  0  0
  141.3640   72.2080  226.9370 C   0  0  0  0  0  0  0  0  0  0  0  0
  140.8380   71.8820  228.1810 C   0  0  0  0  0  0  0  0  0  0  0  0
  140.0800   70.7240  228.3430 C   0  0  0  0  0  0  0  0  0  0  0  0
  139.8610   69.9110  227.2550 C   0  0  0  0  0  0  0  0  0  0  0  0
  140.2880   75.3260  221.5800 C   0  0  0  0  0  0  0  0  0  0  0  0
  141.3180   75.6840  220.7270 C   0  0  0  0  0  0  0  0  0  0  0  0
  141.7760   77.0020  220.6490 C   0  0  0  0  0  0  0  0  0  0  0  0
  141.2040   77.9880  221.4320 C   0  0  0  0  0  0  0  0  0  0  0  0
  141.6260   79.3060  221.3890 C   0  0  0  0  0  0  0  0  0  0  0  0
  140.9920   80.2260  222.2120 C   0  0  0  0  0  0  0  0  0  0  0  0
  141.4820   81.9090  222.2010 Cl  0  0  0  0  0  0  0  0  0  0  0  0
  139.9620   79.8680  223.0650 C   0  0  0  0  0  0  0  0  0  0  0  0
  139.5540   78.5440  223.0950 C   0  0  0  0  0  0  0  0  0  0  0  0
  140.1760   77.5980  222.2760 C   0  0  0  0  0  0  0  0  0  0  0  0
  139.7600   76.3160  222.3240 N   0  0  0  0  0  0  0  0  0  0  0  0
  138.2130   74.2900  220.2460 H   0  0  0  0  0  0  0  0  0  0  0  0
  137.5850   71.9929  220.0754 H   0  0  0  0  0  0  0  0  0  0  0  0
  139.0782   71.5297  220.9475 H   0  0  0  0  0  0  0  0  0  0  0  0
  136.1676   69.9865  221.3825 H   0  0  0  0  0  0  0  0  0  0  0  0
  137.0607   68.8000  222.3511 H   0  0  0  0  0  0  0  0  0  0  0  0
  134.5707   70.3886  223.0396 H   0  0  0  0  0  0  0  0  0  0  0  0
  134.9393   68.6744  223.3787 H   0  0  0  0  0  0  0  0  0  0  0  0
  135.7953   71.1704  224.8433 H   0  0  0  0  0  0  0  0  0  0  0  0
  135.2385   69.5732  225.4854 H   0  0  0  0  0  0  0  0  0  0  0  0
  137.5874   69.7465  225.9903 H   0  0  0  0  0  0  0  0  0  0  0  0
  137.4438   68.5916  224.6471 H   0  0  0  0  0  0  0  0  0  0  0  0
  138.3992   71.4769  224.6221 H   0  0  0  0  0  0  0  0  0  0  0  0
  139.2907   69.0690  223.0172 H   0  0  0  0  0  0  0  0  0  0  0  0
  140.1318   70.6521  223.2626 H   0  0  0  0  0  0  0  0  0  0  0  0
  140.4630   68.3670  224.9490 H   0  0  0  0  0  0  0  0  0  0  0  0
  141.5332   71.6133  224.8717 H   0  0  0  0  0  0  0  0  0  0  0  0
  141.9633   73.1211  226.8063 H   0  0  0  0  0  0  0  0  0  0  0  0
  141.0208   72.5413  229.0423 H   0  0  0  0  0  0  0  0  0  0  0  0
  139.6627   70.4636  229.3269 H   0  0  0  0  0  0  0  0  0  0  0  0
  139.2629   68.9966  227.3821 H   0  0  0  0  0  0  0  0  0  0  0  0
  141.7863   74.9138  220.0966 H   0  0  0  0  0  0  0  0  0  0  0  0
  142.5958   77.2565  219.9612 H   0  0  0  0  0  0  0  0  0  0  0  0
  142.4424   79.6157  220.7200 H   0  0  0  0  0  0  0  0  0  0  0  0
  139.4774   80.6192  223.7059 H   0  0  0  0  0  0  0  0  0  0  0  0
  138.7380   78.2368  223.7656 H   0  0  0  0  0  0  0  0  0  0  0  0
  1  2  2  0
  2  3  1  0
  3  4  1  0
  4  5  1  0
  5  6  2  0
  5  7  1  0
  7  8  1  0
  8  9  1  0
  9 10  1  0
 10 11  1  0
 11 12  1  0
 12 13  1  0
 13 14  1  0
 14 15  1  0
 15 16  2  0
 16 17  1  0
 17 18  2  0
 18 19  1  0
 19 20  2  0
  2 21  1  0
 21 22  2  0
 22 23  1  0
 23 24  2  0
 24 25  1  0
 25 26  2  0
 26 27  1  0
 26 28  1  0
 28 29  2  0
 29 30  1  0
 30 31  2  0
 12  7  1  0
 20 15  1  0
 31 21  1  0
 30 24  1  0
  3 32  1  0
  4 33  1  0
  4 34  1  0
  8 35  1  0
  8 36  1  0
  9 37  1  0
  9 38  1  0
 10 39  1  0
 10 40  1  0
 11 41  1  0
 11 42  1  0
 12 43  1  1
 13 44  1  0
 13 45  1  0
 14 46  1  0
 16 47  1  0
 17 48  1  0
 18 49  1  0
 19 50  1  0
 20 51  1  0
 22 52  1  0
 23 53  1  0
 25 54  1  0
 28 55  1  0
 29 56  1  0
M  END
>  <smiles>  (3) 
O=C(NCC(=O)N1CCCC[C@H]1CNc1ccccc1)c1ccc2cc(Cl)ccc2n1

>  <score_type>  (3) 
oracle

>  <origin>  (3) 
autodockgpu

>  <m_score__min__energy>  (3) 
-8.9800000000000004

>  <m_primary>  (3) 
energy

>  <rmsd>  (3) 
9.146528756913831

>  <m_score__min__rmsd>  (3) 
9.146528756913831

>  <meeko>  (3) 
{"free_energy": -7.97, "intermolecular_energy": -10.06, "internal_energy": -1.77, "cluster_size": 6, "cluster_id": 4, "rank_in_cluster": 3}

>  <energy>  (3) 
-8.77

>  <cluster_rmsd>  (3) 
0.67

>  <cluster>  (3) 
1

$$$$

     RDKit          3D

 56 59  0  0  0  0  0  0  0  0999 V2000
  139.6040   72.0320  220.6220 O   0  0  0  0  0  0  0  0  0  0  0  0
  139.5420   72.4760  221.7940 C   0  0  0  0  0  0  0  0  0  0  0  0
  139.3370   73.8480  222.1090 N   0  0  0  0  0  0  0  0  0  0  0  0
  139.1910   74.7720  221.0100 C   0  0  0  0  0  0  0  0  0  0  0  0
  139.1230   76.1340  221.5490 C   0  0  0  0  0  0  0  0  0  0  0  0
  138.8760   76.3550  222.7710 O   0  0  0  0  0  0  0  0  0  0  0  0
  139.3280   77.2810  220.7340 N   0  0  0  0  0  0  0  0  0  0  0  0
  138.7340   78.5520  221.1080 C   0  0  0  0  0  0  0  0  0  0  0  0
  137.5980   78.7880  220.1390 C   0  0  0  0  0  0  0  0  0  0  0  0
  137.9780   78.1730  218.8110 C   0  0  0  0  0  0  0  0  0  0  0  0
  139.4780   78.2510  218.5790 C   0  0  0  0  0  0  0  0  0  0  0  0
  140.1180   77.2600  219.5180 C   0  0  1  0  0  0  0  0  0  0  0  0
  141.5620   77.6360  219.8190 C   0  0  0  0  0  0  0  0  0  0  0  0
  141.8140   77.6440  221.2460 N   0  0  0  0  0  0  0  0  0  0  0  0
  141.8930   78.8750  221.9470 C   0  0  0  0  0  0  0  0  0  0  0  0
  142.0570   78.8620  223.3270 C   0  0  0  0  0  0  0  0  0  0  0  0
  142.1370   80.0480  224.0450 C   0  0  0  0  0  0  0  0  0  0  0  0
  142.0520   81.2550  223.3630 C   0  0  0  0  0  0  0  0  0  0  0  0
  141.8880   81.2730  221.9800 C   0  0  0  0  0  0  0  0  0  0  0  0
  141.8120   80.0780  221.3000 C   0  0  0  0  0  0  0  0  0  0  0  0
  139.6900   71.5340  222.9050 C   0  0  0  0  0  0  0  0  0  0  0  0
  139.2960   70.2120  222.7810 C   0  0  0  0  0  0  0  0  0  0  0  0
  139.4340   69.3070  223.8370 C   0  0  0  0  0  0  0  0  0  0  0  0
  139.9730   69.7180  225.0420 C   0  0  0  0  0  0  0  0  0  0  0  0
  140.1290   68.8570  226.1160 C   0  0  0  0  0  0  0  0  0  0  0  0
  140.6800   69.3590  227.2870 C   0  0  0  0  0  0  0  0  0  0  0  0
  140.9020   68.3170  228.6780 Cl  0  0  0  0  0  0  0  0  0  0  0  0
  141.0730   70.6810  227.4110 C   0  0  0  0  0  0  0  0  0  0  0  0
  140.9090   71.5270  226.3260 C   0  0  0  0  0  0  0  0  0  0  0  0
  140.3570   71.0460  225.1350 C   0  0  0  0  0  0  0  0  0  0  0  0
  140.2090   71.8910  224.0940 N   0  0  0  0  0  0  0  0  0  0  0  0
  139.2920   74.1710  223.1090 H   0  0  0  0  0  0  0  0  0  0  0  0
  140.0546   74.6836  220.3344 H   0  0  0  0  0  0  0  0  0  0  0  0
  138.2735   74.5445  220.4475 H   0  0  0  0  0  0  0  0  0  0  0  0
  138.3526   78.5061  222.1388 H   0  0  0  0  0  0  0  0  0  0  0  0
  139.4718   79.3668  221.0668 H   0  0  0  0  0  0  0  0  0  0  0  0
  136.6797   78.3166  220.5191 H   0  0  0  0  0  0  0  0  0  0  0  0
  137.4153   79.8663  220.0213 H   0  0  0  0  0  0  0  0  0  0  0  0
  137.6679   77.1177  218.8024 H   0  0  0  0  0  0  0  0  0  0  0  0
  137.4719   78.7322  218.0103 H   0  0  0  0  0  0  0  0  0  0  0  0
  139.7136   77.9910  217.5365 H   0  0  0  0  0  0  0  0  0  0  0  0
  139.8530   79.2683  218.7645 H   0  0  0  0  0  0  0  0  0  0  0  0
  140.1405   76.2571  219.0667 H   0  0  0  0  0  0  0  0  0  0  0  0
  142.2305   76.9051  219.3405 H   0  0  0  0  0  0  0  0  0  0  0  0
  141.7483   78.6465  219.4263 H   0  0  0  0  0  0  0  0  0  0  0  0
  141.9440   76.7500  221.7890 H   0  0  0  0  0  0  0  0  0  0  0  0
  142.1243   77.9005  223.8570 H   0  0  0  0  0  0  0  0  0  0  0  0
  142.2657   80.0318  225.1373 H   0  0  0  0  0  0  0  0  0  0  0  0
  142.1146   82.2024  223.9185 H   0  0  0  0  0  0  0  0  0  0  0  0
  141.8202   82.2282  221.4387 H   0  0  0  0  0  0  0  0  0  0  0  0
  141.6827   80.0908  220.2077 H   0  0  0  0  0  0  0  0  0  0  0  0
  138.8647   69.8665  221.8299 H   0  0  0  0  0  0  0  0  0  0  0  0
  139.1123   68.2629  223.7088 H   0  0  0  0  0  0  0  0  0  0  0  0
  139.8241   67.8027  226.0427 H   0  0  0  0  0  0  0  0  0  0  0  0
  141.5065   71.0519  228.3515 H   0  0  0  0  0  0  0  0  0  0  0  0
  141.2143   72.5811  226.4020 H   0  0  0  0  0  0  0  0  0  0  0  0
  1  2  2  0
  2  3  1  0
  3  4  1  0
  4  5  1  0
  5  6  2  0
  5  7  1  0
  7  8  1  0
  8  9  1  0
  9 10  1  0
 10 11  1  0
 11 12  1  0
 12 13  1  0
 13 14  1  0
 14 15  1  0
 15 16  2  0
 16 17  1  0
 17 18  2  0
 18 19  1  0
 19 20  2  0
  2 21  1  0
 21 22  2  0
 22 23  1  0
 23 24  2  0
 24 25  1  0
 25 26  2  0
 26 27  1  0
 26 28  1  0
 28 29  2  0
 29 30  1  0
 30 31  2  0
 12  7  1  0
 20 15  1  0
 31 21  1  0
 30 24  1  0
  3 32  1  0
  4 33  1  0
  4 34  1  0
  8 35  1  0
  8 36  1  0
  9 37  1  0
  9 38  1  0
 10 39  1  0
 10 40  1  0
 11 41  1  0
 11 42  1  0
 12 43  1  6
 13 44  1  0
 13 45  1  0
 14 46  1  0
 16 47  1  0
 17 48  1  0
 18 49  1  0
 19 50  1  0
 20 51  1  0
 22 52  1  0
 23 53  1  0
 25 54  1  0
 28 55  1  0
 29 56  1  0
M  END
>  <smiles>  (4) 
O=C(NCC(=O)N1CCCC[C@H]1CNc1ccccc1)c1ccc2cc(Cl)ccc2n1

>  <score_type>  (4) 
oracle

>  <origin>  (4) 
autodockgpu

>  <m_score__min__energy>  (4) 
-8.9800000000000004

>  <m_primary>  (4) 
energy

>  <rmsd>  (4) 
2.653591743530042

>  <m_score__min__rmsd>  (4) 
2.653591743530042

>  <meeko>  (4) 
{"free_energy": -8.38, "intermolecular_energy": -10.46, "internal_energy": -2.47, "cluster_size": 27, "cluster_id": 2, "rank_in_cluster": 11}

>  <energy>  (4) 
-8.52

>  <cluster_rmsd>  (4) 
1.16

>  <cluster>  (4) 
1

$$$$

     RDKit          3D

 56 59  0  0  0  0  0  0  0  0999 V2000
  136.6690   71.3640  221.5060 O   0  0  0  0  0  0  0  0  0  0  0  0
  137.4420   71.8920  222.3420 C   0  0  0  0  0  0  0  0  0  0  0  0
  137.8240   73.2620  222.3110 N   0  0  0  0  0  0  0  0  0  0  0  0
  137.2840   74.0830  221.2530 C   0  0  0  0  0  0  0  0  0  0  0  0
  138.3970   74.6270  220.4690 C   0  0  0  0  0  0  0  0  0  0  0  0
  138.2670   75.6710  219.7650 O   0  0  0  0  0  0  0  0  0  0  0  0
  139.6820   74.0170  220.4540 N   0  0  0  0  0  0  0  0  0  0  0  0
  140.0690   73.1700  219.3400 C   0  0  0  0  0  0  0  0  0  0  0  0
  140.0450   71.7510  219.8600 C   0  0  0  0  0  0  0  0  0  0  0  0
  140.4300   71.7810  221.3220 C   0  0  0  0  0  0  0  0  0  0  0  0
  141.4210   72.8970  221.6070 C   0  0  0  0  0  0  0  0  0  0  0  0
  140.6570   74.1940  221.5130 C   0  0  1  0  0  0  0  0  0  0  0  0
  141.5820   75.3590  221.1890 C   0  0  0  0  0  0  0  0  0  0  0  0
  140.8360   76.5900  221.0260 N   0  0  0  0  0  0  0  0  0  0  0  0
  141.2260   77.7570  221.7330 C   0  0  0  0  0  0  0  0  0  0  0  0
  141.7570   78.8320  221.0310 C   0  0  0  0  0  0  0  0  0  0  0  0
  142.1490   79.9890  221.6900 C   0  0  0  0  0  0  0  0  0  0  0  0
  142.0020   80.0600  223.0700 C   0  0  0  0  0  0  0  0  0  0  0  0
  141.4700   78.9850  223.7780 C   0  0  0  0  0  0  0  0  0  0  0  0
  141.0930   77.8540  223.0910 C   0  0  0  0  0  0  0  0  0  0  0  0
  137.9860   71.0550  223.4130 C   0  0  0  0  0  0  0  0  0  0  0  0
  137.5400   69.7580  223.6070 C   0  0  0  0  0  0  0  0  0  0  0  0
  138.0550   68.9540  224.6270 C   0  0  0  0  0  0  0  0  0  0  0  0
  139.0320   69.4420  225.4750 C   0  0  0  0  0  0  0  0  0  0  0  0
  139.5720   68.6820  226.4990 C   0  0  0  0  0  0  0  0  0  0  0  0
  140.5490   69.2560  227.3000 C   0  0  0  0  0  0  0  0  0  0  0  0
  141.2690   68.3420  228.6110 Cl  0  0  0  0  0  0  0  0  0  0  0  0
  140.9950   70.5520  227.1060 C   0  0  0  0  0  0  0  0  0  0  0  0
  140.4440   71.2980  226.0760 C   0  0  0  0  0  0  0  0  0  0  0  0
  139.4580   70.7420  225.2560 C   0  0  0  0  0  0  0  0  0  0  0  0
  138.9380   71.4890  224.2610 N   0  0  0  0  0  0  0  0  0  0  0  0
  138.4750   73.6580  223.0350 H   0  0  0  0  0  0  0  0  0  0  0  0
  136.6369   73.4738  220.6048 H   0  0  0  0  0  0  0  0  0  0  0  0
  136.6889   74.9035  221.6804 H   0  0  0  0  0  0  0  0  0  0  0  0
  139.3569   73.2837  218.5093 H   0  0  0  0  0  0  0  0  0  0  0  0
  141.0648   73.4400  218.9586 H   0  0  0  0  0  0  0  0  0  0  0  0
  139.0349   71.3300  219.7488 H   0  0  0  0  0  0  0  0  0  0  0  0
  140.7494   71.1248  219.2928 H   0  0  0  0  0  0  0  0  0  0  0  0
  139.5259   71.9408  221.9278 H   0  0  0  0  0  0  0  0  0  0  0  0
  140.9035   70.8214  221.5770 H   0  0  0  0  0  0  0  0  0  0  0  0
  141.8441   72.7791  222.6155 H   0  0  0  0  0  0  0  0  0  0  0  0
  142.2542   72.8773  220.8891 H   0  0  0  0  0  0  0  0  0  0  0  0
  140.1752   74.4304  222.4732 H   0  0  0  0  0  0  0  0  0  0  0  0
  142.3041   75.4829  222.0095 H   0  0  0  0  0  0  0  0  0  0  0  0
  142.1020   75.1390  220.2450 H   0  0  0  0  0  0  0  0  0  0  0  0
  139.9990   76.6480  220.3880 H   0  0  0  0  0  0  0  0  0  0  0  0
  141.8682   78.7653  219.9387 H   0  0  0  0  0  0  0  0  0  0  0  0
  142.5694   80.8364  221.1287 H   0  0  0  0  0  0  0  0  0  0  0  0
  142.3076   80.9705  223.6063 H   0  0  0  0  0  0  0  0  0  0  0  0
  141.3529   79.0394  224.8704 H   0  0  0  0  0  0  0  0  0  0  0  0
  140.6730   77.0043  223.6493 H   0  0  0  0  0  0  0  0  0  0  0  0
  136.7628   69.3518  222.9430 H   0  0  0  0  0  0  0  0  0  0  0  0
  137.6813   67.9275  224.7561 H   0  0  0  0  0  0  0  0  0  0  0  0
  139.2350   67.6494  226.6730 H   0  0  0  0  0  0  0  0  0  0  0  0
  141.7713   70.9813  227.7564 H   0  0  0  0  0  0  0  0  0  0  0  0
  140.7834   72.3300  225.9035 H   0  0  0  0  0  0  0  0  0  0  0  0
  1  2  2  0
  2  3  1  0
  3  4  1  0
  4  5  1  0
  5  6  2  0
  5  7  1  0
  7  8  1  0
  8  9  1  0
  9 10  1  0
 10 11  1  0
 11 12  1  0
 12 13  1  0
 13 14  1  0
 14 15  1  0
 15 16  2  0
 16 17  1  0
 17 18  2  0
 18 19  1  0
 19 20  2  0
  2 21  1  0
 21 22  2  0
 22 23  1  0
 23 24  2  0
 24 25  1  0
 25 26  2  0
 26 27  1  0
 26 28  1  0
 28 29  2  0
 29 30  1  0
 30 31  2  0
 12  7  1  0
 20 15  1  0
 31 21  1  0
 30 24  1  0
  3 32  1  0
  4 33  1  0
  4 34  1  0
  8 35  1  0
  8 36  1  0
  9 37  1  0
  9 38  1  0
 10 39  1  0
 10 40  1  0
 11 41  1  0
 11 42  1  0
 12 43  1  1
 13 44  1  0
 13 45  1  0
 14 46  1  0
 16 47  1  0
 17 48  1  0
 18 49  1  0
 19 50  1  0
 20 51  1  0
 22 52  1  0
 23 53  1  0
 25 54  1  0
 28 55  1  0
 29 56  1  0
M  END
>  <smiles>  (5) 
O=C(NCC(=O)N1CCCC[C@H]1CNc1ccccc1)c1ccc2cc(Cl)ccc2n1

>  <score_type>  (5) 
oracle

>  <origin>  (5) 
autodockgpu

>  <m_score__min__energy>  (5) 
-8.9800000000000004

>  <m_primary>  (5) 
energy

>  <rmsd>  (5) 
2.8901051457335787

>  <m_score__min__rmsd>  (5) 
2.8901051457335787

>  <meeko>  (5) 
{"free_energy": -7.22, "intermolecular_energy": -9.31, "internal_energy": -2.98, "cluster_size": 27, "cluster_id": 2, "rank_in_cluster": 27}

>  <energy>  (5) 
-8.5

>  <cluster_rmsd>  (5) 
1.03

>  <cluster>  (5) 
1

$$$$

     RDKit          3D

 56 59  0  0  0  0  0  0  0  0999 V2000
  136.8580   77.5220  222.2680 O   0  0  0  0  0  0  0  0  0  0  0  0
  136.9580   76.3540  222.7160 C   0  0  0  0  0  0  0  0  0  0  0  0
  138.0220   75.4700  222.3870 N   0  0  0  0  0  0  0  0  0  0  0  0
  139.0400   75.9550  221.4860 C   0  0  0  0  0  0  0  0  0  0  0  0
  140.1450   74.9910  221.4650 C   0  0  0  0  0  0  0  0  0  0  0  0
  140.2350   74.0620  222.3190 O   0  0  0  0  0  0  0  0  0  0  0  0
  141.1760   75.0440  220.4860 N   0  0  0  0  0  0  0  0  0  0  0  0
  141.2390   74.0340  219.4450 C   0  0  0  0  0  0  0  0  0  0  0  0
  142.4120   73.1460  219.7880 C   0  0  0  0  0  0  0  0  0  0  0  0
  143.4600   73.9950  220.4730 C   0  0  0  0  0  0  0  0  0  0  0  0
  143.4490   75.4180  219.9380 C   0  0  0  0  0  0  0  0  0  0  0  0
  142.1970   76.0730  220.4640 C   0  0  1  0  0  0  0  0  0  0  0  0
  141.7620   77.2290  219.5740 C   0  0  0  0  0  0  0  0  0  0  0  0
  140.9100   78.1520  220.2950 N   0  0  0  0  0  0  0  0  0  0  0  0
  141.3630   78.7440  221.5030 C   0  0  0  0  0  0  0  0  0  0  0  0
  142.1170   79.9100  221.4470 C   0  0  0  0  0  0  0  0  0  0  0  0
  142.5770   80.5160  222.6080 C   0  0  0  0  0  0  0  0  0  0  0  0
  142.2720   79.9400  223.8350 C   0  0  0  0  0  0  0  0  0  0  0  0
  141.5160   78.7710  223.8950 C   0  0  0  0  0  0  0  0  0  0  0  0
  141.0770   78.1970  222.7240 C   0  0  0  0  0  0  0  0  0  0  0  0
  135.9220   75.8680  223.6300 C   0  0  0  0  0  0  0  0  0  0  0  0
  135.0370   76.7400  224.2400 C   0  0  0  0  0  0  0  0  0  0  0  0
  134.0460   76.2820  225.1130 C   0  0  0  0  0  0  0  0  0  0  0  0
  133.9280   74.9330  225.3900 C   0  0  0  0  0  0  0  0  0  0  0  0
  132.9630   74.4340  226.2480 C   0  0  0  0  0  0  0  0  0  0  0  0
  132.9200   73.0640  226.4650 C   0  0  0  0  0  0  0  0  0  0  0  0
  131.7200   72.3750  227.5400 Cl  0  0  0  0  0  0  0  0  0  0  0  0
  133.8060   72.1920  225.8550 C   0  0  0  0  0  0  0  0  0  0  0  0
  134.7650   72.7090  225.0000 C   0  0  0  0  0  0  0  0  0  0  0  0
  134.8280   74.0860  224.7640 C   0  0  0  0  0  0  0  0  0  0  0  0
  135.7720   74.5630  223.9270 N   0  0  0  0  0  0  0  0  0  0  0  0
  138.0620   74.4990  222.7890 H   0  0  0  0  0  0  0  0  0  0  0  0
  138.6203   76.0595  220.4746 H   0  0  0  0  0  0  0  0  0  0  0  0
  139.4042   76.9363  221.8241 H   0  0  0  0  0  0  0  0  0  0  0  0
  140.3090   73.4468  219.4269 H   0  0  0  0  0  0  0  0  0  0  0  0
  141.3594   74.4902  218.4513 H   0  0  0  0  0  0  0  0  0  0  0  0
  142.0853   72.3408  220.4625 H   0  0  0  0  0  0  0  0  0  0  0  0
  142.8261   72.6924  218.8754 H   0  0  0  0  0  0  0  0  0  0  0  0
  143.2548   74.0161  221.5535 H   0  0  0  0  0  0  0  0  0  0  0  0
  144.4488   73.5556  220.2750 H   0  0  0  0  0  0  0  0  0  0  0  0
  144.3376   75.9619  220.2910 H   0  0  0  0  0  0  0  0  0  0  0  0
  143.4655   75.4257  218.8382 H   0  0  0  0  0  0  0  0  0  0  0  0
  142.3711   76.4928  221.4657 H   0  0  0  0  0  0  0  0  0  0  0  0
  142.6548   77.7658  219.2207 H   0  0  0  0  0  0  0  0  0  0  0  0
  141.1941   76.8209  218.7249 H   0  0  0  0  0  0  0  0  0  0  0  0
  139.9470   78.4030  219.9460 H   0  0  0  0  0  0  0  0  0  0  0  0
  142.3522   80.3583  220.4704 H   0  0  0  0  0  0  0  0  0  0  0  0
  143.1741   81.4385  222.5574 H   0  0  0  0  0  0  0  0  0  0  0  0
  142.6291   80.4091  224.7637 H   0  0  0  0  0  0  0  0  0  0  0  0
  141.2734   78.3132  224.8654 H   0  0  0  0  0  0  0  0  0  0  0  0
  140.4804   77.2740  222.7708 H   0  0  0  0  0  0  0  0  0  0  0  0
  135.1152   77.8175  224.0332 H   0  0  0  0  0  0  0  0  0  0  0  0
  133.3563   76.9991  225.5821 H   0  0  0  0  0  0  0  0  0  0  0  0
  132.2484   75.1064  226.7452 H   0  0  0  0  0  0  0  0  0  0  0  0
  133.7492   71.1102  226.0457 H   0  0  0  0  0  0  0  0  0  0  0  0
  135.4793   72.0346  224.5051 H   0  0  0  0  0  0  0  0  0  0  0  0
  1  2  2  0
  2  3  1  0
  3  4  1  0
  4  5  1  0
  5  6  2  0
  5  7  1  0
  7  8  1  0
  8  9  1  0
  9 10  1  0
 10 11  1  0
 11 12  1  0
 12 13  1  0
 13 14  1  0
 14 15  1  0
 15 16  2  0
 16 17  1  0
 17 18  2  0
 18 19  1  0
 19 20  2  0
  2 21  1  0
 21 22  2  0
 22 23  1  0
 23 24  2  0
 24 25  1  0
 25 26  2  0
 26 27  1  0
 26 28  1  0
 28 29  2  0
 29 30  1  0
 30 31  2  0
 12  7  1  0
 20 15  1  0
 31 21  1  0
 30 24  1  0
  3 32  1  0
  4 33  1  0
  4 34  1  0
  8 35  1  0
  8 36  1  0
  9 37  1  0
  9 38  1  0
 10 39  1  0
 10 40  1  0
 11 41  1  0
 11 42  1  0
 12 43  1  1
 13 44  1  0
 13 45  1  0
 14 46  1  0
 16 47  1  0
 17 48  1  0
 18 49  1  0
 19 50  1  0
 20 51  1  0
 22 52  1  0
 23 53  1  0
 25 54  1  0
 28 55  1  0
 29 56  1  0
M  END
>  <smiles>  (6) 
O=C(NCC(=O)N1CCCC[C@H]1CNc1ccccc1)c1ccc2cc(Cl)ccc2n1

>  <score_type>  (6) 
oracle

>  <origin>  (6) 
autodockgpu

>  <m_score__min__energy>  (6) 
-8.9800000000000004

>  <m_primary>  (6) 
energy

>  <rmsd>  (6) 
5.449298424505303

>  <m_score__min__rmsd>  (6) 
5.449298424505303

>  <meeko>  (6) 
{"free_energy": -7.72, "intermolecular_energy": -9.8, "internal_energy": -2.44, "cluster_size": 1, "cluster_id": 5, "rank_in_cluster": 1}

>  <energy>  (6) 
-8.41

>  <cluster_rmsd>  (6) 
1.27

>  <cluster>  (6) 
1

$$$$

     RDKit          3D

 56 59  0  0  0  0  0  0  0  0999 V2000
  138.3270   71.5540  221.0440 O   0  0  0  0  0  0  0  0  0  0  0  0
  138.8750   72.0300  222.0670 C   0  0  0  0  0  0  0  0  0  0  0  0
  139.2120   73.4040  222.2170 N   0  0  0  0  0  0  0  0  0  0  0  0
  138.9030   74.2910  221.1220 C   0  0  0  0  0  0  0  0  0  0  0  0
  139.9160   75.3500  221.0760 C   0  0  0  0  0  0  0  0  0  0  0  0
  140.7960   75.4690  221.9770 O   0  0  0  0  0  0  0  0  0  0  0  0
  139.9670   76.3020  220.0200 N   0  0  0  0  0  0  0  0  0  0  0  0
  138.7500   76.9520  219.5690 C   0  0  0  0  0  0  0  0  0  0  0  0
  138.4210   76.3470  218.2240 C   0  0  0  0  0  0  0  0  0  0  0  0
  139.7210   75.9930  217.5380 C   0  0  0  0  0  0  0  0  0  0  0  0
  140.8250   76.9680  217.9150 C   0  0  0  0  0  0  0  0  0  0  0  0
  141.1970   76.6750  219.3470 C   0  0  1  0  0  0  0  0  0  0  0  0
  141.8180   77.8920  220.0170 C   0  0  0  0  0  0  0  0  0  0  0  0
  141.8140   77.7550  221.4590 N   0  0  0  0  0  0  0  0  0  0  0  0
  141.7880   78.9100  222.2840 C   0  0  0  0  0  0  0  0  0  0  0  0
  140.5650   79.4590  222.6470 C   0  0  0  0  0  0  0  0  0  0  0  0
  140.5030   80.5880  223.4520 C   0  0  0  0  0  0  0  0  0  0  0  0
  141.6870   81.1660  223.8940 C   0  0  0  0  0  0  0  0  0  0  0  0
  142.9150   80.6180  223.5320 C   0  0  0  0  0  0  0  0  0  0  0  0
  142.9390   79.4980  222.7330 C   0  0  0  0  0  0  0  0  0  0  0  0
  139.1860   71.1250  223.1750 C   0  0  0  0  0  0  0  0  0  0  0  0
  138.8520   69.7820  223.1200 C   0  0  0  0  0  0  0  0  0  0  0  0
  139.1470   68.9130  224.1750 C   0  0  0  0  0  0  0  0  0  0  0  0
  139.7860   69.3810  225.3080 C   0  0  0  0  0  0  0  0  0  0  0  0
  140.0970   68.5570  226.3760 C   0  0  0  0  0  0  0  0  0  0  0  0
  140.7390   69.1160  227.4720 C   0  0  0  0  0  0  0  0  0  0  0  0
  141.1590   68.1230  228.8540 Cl  0  0  0  0  0  0  0  0  0  0  0  0
  141.0730   70.4580  227.5270 C   0  0  0  0  0  0  0  0  0  0  0  0
  140.7530   71.2680  226.4490 C   0  0  0  0  0  0  0  0  0  0  0  0
  140.1070   70.7290  225.3330 C   0  0  0  0  0  0  0  0  0  0  0  0
  139.8060   71.5380  224.2970 N   0  0  0  0  0  0  0  0  0  0  0  0
  139.6710   73.7550  223.0960 H   0  0  0  0  0  0  0  0  0  0  0  0
  138.9115   73.7290  220.1764 H   0  0  0  0  0  0  0  0  0  0  0  0
  137.9056   74.7318  221.2662 H   0  0  0  0  0  0  0  0  0  0  0  0
  137.9323   76.7660  220.2809 H   0  0  0  0  0  0  0  0  0  0  0  0
  138.8814   78.0417  219.4964 H   0  0  0  0  0  0  0  0  0  0  0  0
  137.8130   75.4407  218.3614 H   0  0  0  0  0  0  0  0  0  0  0  0
  137.8502   77.0623  217.6136 H   0  0  0  0  0  0  0  0  0  0  0  0
  140.0205   74.9781  217.8386 H   0  0  0  0  0  0  0  0  0  0  0  0
  139.5663   76.0456  216.4502 H   0  0  0  0  0  0  0  0  0  0  0  0
  141.6971   76.8237  217.2603 H   0  0  0  0  0  0  0  0  0  0  0  0
  140.4877   78.0087  217.8005 H   0  0  0  0  0  0  0  0  0  0  0  0
  141.9459   75.8709  219.3964 H   0  0  0  0  0  0  0  0  0  0  0  0
  142.8560   78.0021  219.6699 H   0  0  0  0  0  0  0  0  0  0  0  0
  141.2236   78.7781  219.7496 H   0  0  0  0  0  0  0  0  0  0  0  0
  141.8290   76.8080  221.9240 H   0  0  0  0  0  0  0  0  0  0  0  0
  139.6338   78.9932  222.2921 H   0  0  0  0  0  0  0  0  0  0  0  0
  139.5314   81.0187  223.7358 H   0  0  0  0  0  0  0  0  0  0  0  0
  141.6540   82.0608  224.5330 H   0  0  0  0  0  0  0  0  0  0  0  0
  143.8533   81.0744  223.8802 H   0  0  0  0  0  0  0  0  0  0  0  0
  143.9087   79.0641  222.4478 H   0  0  0  0  0  0  0  0  0  0  0  0
  138.3435   69.3903  222.2267 H   0  0  0  0  0  0  0  0  0  0  0  0
  138.8691   67.8511  224.1030 H   0  0  0  0  0  0  0  0  0  0  0  0
  139.8419   67.4872  226.3564 H   0  0  0  0  0  0  0  0  0  0  0  0
  141.5824   70.8735  228.4090 H   0  0  0  0  0  0  0  0  0  0  0  0
  141.0081   72.3378  226.4718 H   0  0  0  0  0  0  0  0  0  0  0  0
  1  2  2  0
  2  3  1  0
  3  4  1  0
  4  5  1  0
  5  6  2  0
  5  7  1  0
  7  8  1  0
  8  9  1  0
  9 10  1  0
 10 11  1  0
 11 12  1  0
 12 13  1  0
 13 14  1  0
 14 15  1  0
 15 16  2  0
 16 17  1  0
 17 18  2  0
 18 19  1  0
 19 20  2  0
  2 21  1  0
 21 22  2  0
 22 23  1  0
 23 24  2  0
 24 25  1  0
 25 26  2  0
 26 27  1  0
 26 28  1  0
 28 29  2  0
 29 30  1  0
 30 31  2  0
 12  7  1  0
 20 15  1  0
 31 21  1  0
 30 24  1  0
  3 32  1  0
  4 33  1  0
  4 34  1  0
  8 35  1  0
  8 36  1  0
  9 37  1  0
  9 38  1  0
 10 39  1  0
 10 40  1  0
 11 41  1  0
 11 42  1  0
 12 43  1  6
 13 44  1  0
 13 45  1  0
 14 46  1  0
 16 47  1  0
 17 48  1  0
 18 49  1  0
 19 50  1  0
 20 51  1  0
 22 52  1  0
 23 53  1  0
 25 54  1  0
 28 55  1  0
 29 56  1  0
M  END
>  <smiles>  (7) 
O=C(NCC(=O)N1CCCC[C@H]1CNc1ccccc1)c1ccc2cc(Cl)ccc2n1

>  <score_type>  (7) 
oracle

>  <origin>  (7) 
autodockgpu

>  <m_score__min__energy>  (7) 
-8.9800000000000004

>  <m_primary>  (7) 
energy

>  <rmsd>  (7) 
1.9616910646224288

>  <m_score__min__rmsd>  (7) 
1.9616910646224288

>  <meeko>  (7) 
{"free_energy": -8.51, "intermolecular_energy": -10.59, "internal_energy": -2.7, "cluster_size": 27, "cluster_id": 2, "rank_in_cluster": 9}

>  <energy>  (7) 
-8.32

>  <cluster_rmsd>  (7) 
0.77

>  <cluster>  (7) 
1

$$$$

     RDKit          3D

 56 59  0  0  0  0  0  0  0  0999 V2000
  139.5580   71.9580  220.6370 O   0  0  0  0  0  0  0  0  0  0  0  0
  139.5730   72.4210  221.8040 C   0  0  0  0  0  0  0  0  0  0  0  0
  139.4980   73.8090  222.1040 N   0  0  0  0  0  0  0  0  0  0  0  0
  139.4000   74.7290  220.9960 C   0  0  0  0  0  0  0  0  0  0  0  0
  139.8070   76.0600  221.4550 C   0  0  0  0  0  0  0  0  0  0  0  0
  140.4110   76.2300  222.5540 O   0  0  0  0  0  0  0  0  0  0  0  0
  139.5490   77.2340  220.6940 N   0  0  0  0  0  0  0  0  0  0  0  0
  138.4700   78.1260  221.0820 C   0  0  0  0  0  0  0  0  0  0  0  0
  137.3720   77.9290  220.0620 C   0  0  0  0  0  0  0  0  0  0  0  0
  138.0170   77.5980  218.7350 C   0  0  0  0  0  0  0  0  0  0  0  0
  139.3580   78.2970  218.5860 C   0  0  0  0  0  0  0  0  0  0  0  0
  140.3180   77.6070  219.5220 C   0  0  1  0  0  0  0  0  0  0  0  0
  141.4670   78.5240  219.9140 C   0  0  0  0  0  0  0  0  0  0  0  0
  141.8420   78.3320  221.3000 N   0  0  0  0  0  0  0  0  0  0  0  0
  141.9330   79.4470  222.1730 C   0  0  0  0  0  0  0  0  0  0  0  0
  140.9470   80.4250  222.1320 C   0  0  0  0  0  0  0  0  0  0  0  0
  141.0040   81.5290  222.9720 C   0  0  0  0  0  0  0  0  0  0  0  0
  142.0660   81.6440  223.8610 C   0  0  0  0  0  0  0  0  0  0  0  0
  143.0560   80.6660  223.9060 C   0  0  0  0  0  0  0  0  0  0  0  0
  142.9670   79.5850  223.0580 C   0  0  0  0  0  0  0  0  0  0  0  0
  139.6720   71.4830  222.9240 C   0  0  0  0  0  0  0  0  0  0  0  0
  139.1870   70.1900  222.8220 C   0  0  0  0  0  0  0  0  0  0  0  0
  139.2790   69.2900  223.8880 C   0  0  0  0  0  0  0  0  0  0  0  0
  139.8640   69.6760  225.0790 C   0  0  0  0  0  0  0  0  0  0  0  0
  139.9770   68.8190  226.1610 C   0  0  0  0  0  0  0  0  0  0  0  0
  140.5790   69.2950  227.3170 C   0  0  0  0  0  0  0  0  0  0  0  0
  140.7510   68.2560  228.7180 Cl  0  0  0  0  0  0  0  0  0  0  0  0
  141.0650   70.5880  227.4180 C   0  0  0  0  0  0  0  0  0  0  0  0
  140.9430   71.4310  226.3260 C   0  0  0  0  0  0  0  0  0  0  0  0
  140.3400   70.9760  225.1500 C   0  0  0  0  0  0  0  0  0  0  0  0
  140.2340   71.8170  224.1010 N   0  0  0  0  0  0  0  0  0  0  0  0
  139.5140   74.1480  223.0990 H   0  0  0  0  0  0  0  0  0  0  0  0
  140.0618   74.3997  220.1814 H   0  0  0  0  0  0  0  0  0  0  0  0
  138.3652   74.7602  220.6243 H   0  0  0  0  0  0  0  0  0  0  0  0
  138.1064   77.8695  222.0880 H   0  0  0  0  0  0  0  0  0  0  0  0
  138.8065   79.1728  221.1113 H   0  0  0  0  0  0  0  0  0  0  0  0
  136.7168   77.1025  220.3745 H   0  0  0  0  0  0  0  0  0  0  0  0
  136.7658   78.8426  219.9736 H   0  0  0  0  0  0  0  0  0  0  0  0
  138.1703   76.5106  218.6720 H   0  0  0  0  0  0  0  0  0  0  0  0
  137.3528   77.9436  217.9292 H   0  0  0  0  0  0  0  0  0  0  0  0
  139.7150   78.2134  217.5489 H   0  0  0  0  0  0  0  0  0  0  0  0
  139.2733   79.3669  218.8272 H   0  0  0  0  0  0  0  0  0  0  0  0
  140.7679   76.7289  219.0356 H   0  0  0  0  0  0  0  0  0  0  0  0
  142.3346   78.3055  219.2741 H   0  0  0  0  0  0  0  0  0  0  0  0
  141.1407   79.5663  219.7830 H   0  0  0  0  0  0  0  0  0  0  0  0
  142.0530   77.3740  221.6870 H   0  0  0  0  0  0  0  0  0  0  0  0
  140.1105   80.3233  221.4250 H   0  0  0  0  0  0  0  0  0  0  0  0
  140.2209   82.3005  222.9344 H   0  0  0  0  0  0  0  0  0  0  0  0
  142.1248   82.5128  224.5331 H   0  0  0  0  0  0  0  0  0  0  0  0
  143.8972   80.7557  224.6090 H   0  0  0  0  0  0  0  0  0  0  0  0
  143.7483   78.8115  223.0930 H   0  0  0  0  0  0  0  0  0  0  0  0
  138.7190   69.8637  221.8815 H   0  0  0  0  0  0  0  0  0  0  0  0
  138.8837   68.2694  223.7781 H   0  0  0  0  0  0  0  0  0  0  0  0
  139.5992   67.7874  226.1054 H   0  0  0  0  0  0  0  0  0  0  0  0
  141.5385   70.9384  228.3470 H   0  0  0  0  0  0  0  0  0  0  0  0
  141.3219   72.4620  226.3844 H   0  0  0  0  0  0  0  0  0  0  0  0
  1  2  2  0
  2  3  1  0
  3  4  1  0
  4  5  1  0
  5  6  2  0
  5  7  1  0
  7  8  1  0
  8  9  1  0
  9 10  1  0
 10 11  1  0
 11 12  1  0
 12 13  1  0
 13 14  1  0
 14 15  1  0
 15 16  2  0
 16 17  1  0
 17 18  2  0
 18 19  1  0
 19 20  2  0
  2 21  1  0
 21 22  2  0
 22 23  1  0
 23 24  2  0
 24 25  1  0
 25 26  2  0
 26 27  1  0
 26 28  1  0
 28 29  2  0
 29 30  1  0
 30 31  2  0
 12  7  1  0
 20 15  1  0
 31 21  1  0
 30 24  1  0
  3 32  1  0
  4 33  1  0
  4 34  1  0
  8 35  1  0
  8 36  1  0
  9 37  1  0
  9 38  1  0
 10 39  1  0
 10 40  1  0
 11 41  1  0
 11 42  1  0
 12 43  1  6
 13 44  1  0
 13 45  1  0
 14 46  1  0
 16 47  1  0
 17 48  1  0
 18 49  1  0
 19 50  1  0
 20 51  1  0
 22 52  1  0
 23 53  1  0
 25 54  1  0
 28 55  1  0
 29 56  1  0
M  END
>  <smiles>  (8) 
O=C(NCC(=O)N1CCCC[C@H]1CNc1ccccc1)c1ccc2cc(Cl)ccc2n1

>  <score_type>  (8) 
oracle

>  <origin>  (8) 
autodockgpu

>  <m_score__min__energy>  (8) 
-8.9800000000000004

>  <m_primary>  (8) 
energy

>  <rmsd>  (8) 
2.495258533204694

>  <m_score__min__rmsd>  (8) 
2.495258533204694

>  <meeko>  (8) 
{"free_energy": -8.54, "intermolecular_energy": -10.63, "internal_energy": -2.8, "cluster_size": 27, "cluster_id": 2, "rank_in_cluster": 6}

>  <energy>  (8) 
-8.02

>  <cluster_rmsd>  (8) 
1.17

>  <cluster>  (8) 
1

$$$$

     RDKit          3D

 56 59  0  0  0  0  0  0  0  0999 V2000
  138.8300   71.8470  220.6950 O   0  0  0  0  0  0  0  0  0  0  0  0
  139.0220   72.3440  221.8310 C   0  0  0  0  0  0  0  0  0  0  0  0
  138.9940   73.7410  222.0980 N   0  0  0  0  0  0  0  0  0  0  0  0
  138.7300   74.6280  220.9910 C   0  0  0  0  0  0  0  0  0  0  0  0
  139.4150   75.9010  221.2360 C   0  0  0  0  0  0  0  0  0  0  0  0
  139.7510   76.2620  222.4010 O   0  0  0  0  0  0  0  0  0  0  0  0
  139.7400   76.8000  220.1830 N   0  0  0  0  0  0  0  0  0  0  0  0
  138.8400   77.8920  219.8580 C   0  0  0  0  0  0  0  0  0  0  0  0
  138.1800   77.5190  218.5500 C   0  0  0  0  0  0  0  0  0  0  0  0
  139.1690   76.7150  217.7380 C   0  0  0  0  0  0  0  0  0  0  0  0
  140.5960   77.1650  218.0050 C   0  0  0  0  0  0  0  0  0  0  0  0
  140.9510   76.6910  219.3920 C   0  0  1  0  0  0  0  0  0  0  0  0
  142.0580   77.5400  220.0010 C   0  0  0  0  0  0  0  0  0  0  0  0
  141.8400   77.7470  221.4180 N   0  0  0  0  0  0  0  0  0  0  0  0
  141.8170   79.0630  221.9490 C   0  0  0  0  0  0  0  0  0  0  0  0
  142.1580   79.2640  223.2810 C   0  0  0  0  0  0  0  0  0  0  0  0
  142.1470   80.5370  223.8340 C   0  0  0  0  0  0  0  0  0  0  0  0
  141.7890   81.6160  223.0340 C   0  0  0  0  0  0  0  0  0  0  0  0
  141.4470   81.4190  221.6980 C   0  0  0  0  0  0  0  0  0  0  0  0
  141.4690   80.1420  221.1840 C   0  0  0  0  0  0  0  0  0  0  0  0
  139.2890   71.4390  222.9510 C   0  0  0  0  0  0  0  0  0  0  0  0
  138.9130   70.1070  222.9020 C   0  0  0  0  0  0  0  0  0  0  0  0
  139.1650   69.2380  223.9680 C   0  0  0  0  0  0  0  0  0  0  0  0
  139.8030   69.6950  225.1060 C   0  0  0  0  0  0  0  0  0  0  0  0
  140.0730   68.8710  226.1850 C   0  0  0  0  0  0  0  0  0  0  0  0
  140.7170   69.4190  227.2860 C   0  0  0  0  0  0  0  0  0  0  0  0
  141.0870   68.4250  228.6810 Cl  0  0  0  0  0  0  0  0  0  0  0  0
  141.0930   70.7510  227.3340 C   0  0  0  0  0  0  0  0  0  0  0  0
  140.8140   71.5600  226.2450 C   0  0  0  0  0  0  0  0  0  0  0  0
  140.1660   71.0320  225.1240 C   0  0  0  0  0  0  0  0  0  0  0  0
  139.9060   71.8420  224.0770 N   0  0  0  0  0  0  0  0  0  0  0  0
  139.1600   74.1090  223.0690 H   0  0  0  0  0  0  0  0  0  0  0  0
  139.1048   74.1791  220.0593 H   0  0  0  0  0  0  0  0  0  0  0  0
  137.6472   74.7969  220.8956 H   0  0  0  0  0  0  0  0  0  0  0  0
  138.0829   78.0100  220.6472 H   0  0  0  0  0  0  0  0  0  0  0  0
  139.3806   78.8465  219.7765 H   0  0  0  0  0  0  0  0  0  0  0  0
  137.2804   76.9167  218.7447 H   0  0  0  0  0  0  0  0  0  0  0  0
  137.8829   78.4247  218.0010 H   0  0  0  0  0  0  0  0  0  0  0  0
  139.0723   75.6523  218.0051 H   0  0  0  0  0  0  0  0  0  0  0  0
  138.9497   76.8690  216.6712 H   0  0  0  0  0  0  0  0  0  0  0  0
  141.2781   76.7188  217.2663 H   0  0  0  0  0  0  0  0  0  0  0  0
  140.6857   78.2586  217.9270 H   0  0  0  0  0  0  0  0  0  0  0  0
  141.3254   75.6571  219.3639 H   0  0  0  0  0  0  0  0  0  0  0  0
  143.0219   77.0298  219.8570 H   0  0  0  0  0  0  0  0  0  0  0  0
  142.0597   78.5203  219.5020 H   0  0  0  0  0  0  0  0  0  0  0  0
  141.6940   76.9380  222.0790 H   0  0  0  0  0  0  0  0  0  0  0  0
  142.4403   78.4033  223.9051 H   0  0  0  0  0  0  0  0  0  0  0  0
  142.4175   80.6897  224.8892 H   0  0  0  0  0  0  0  0  0  0  0  0
  141.7757   82.6308  223.4582 H   0  0  0  0  0  0  0  0  0  0  0  0
  141.1635   82.2713  221.0630 H   0  0  0  0  0  0  0  0  0  0  0  0
  141.1993   79.9852  220.1292 H   0  0  0  0  0  0  0  0  0  0  0  0
  138.4049   69.7242  222.0046 H   0  0  0  0  0  0  0  0  0  0  0  0
  138.8539   68.1851  223.9007 H   0  0  0  0  0  0  0  0  0  0  0  0
  139.7848   67.8095  226.1704 H   0  0  0  0  0  0  0  0  0  0  0  0
  141.6031   71.1583  228.2194 H   0  0  0  0  0  0  0  0  0  0  0  0
  141.1031   72.6212  226.2620 H   0  0  0  0  0  0  0  0  0  0  0  0
  1  2  2  0
  2  3  1  0
  3  4  1  0
  4  5  1  0
  5  6  2  0
  5  7  1  0
  7  8  1  0
  8  9  1  0
  9 10  1  0
 10 11  1  0
 11 12  1  0
 12 13  1  0
 13 14  1  0
 14 15  1  0
 15 16  2  0
 16 17  1  0
 17 18  2  0
 18 19  1  0
 19 20  2  0
  2 21  1  0
 21 22  2  0
 22 23  1  0
 23 24  2  0
 24 25  1  0
 25 26  2  0
 26 27  1  0
 26 28  1  0
 28 29  2  0
 29 30  1  0
 30 31  2  0
 12  7  1  0
 20 15  1  0
 31 21  1  0
 30 24  1  0
  3 32  1  0
  4 33  1  0
  4 34  1  0
  8 35  1  0
  8 36  1  0
  9 37  1  0
  9 38  1  0
 10 39  1  0
 10 40  1  0
 11 41  1  0
 11 42  1  0
 12 43  1  6
 13 44  1  0
 13 45  1  0
 14 46  1  0
 16 47  1  0
 17 48  1  0
 18 49  1  0
 19 50  1  0
 20 51  1  0
 22 52  1  0
 23 53  1  0
 25 54  1  0
 28 55  1  0
 29 56  1  0
M  END
>  <smiles>  (9) 
O=C(NCC(=O)N1CCCC[C@H]1CNc1ccccc1)c1ccc2cc(Cl)ccc2n1

>  <score_type>  (9) 
oracle

>  <origin>  (9) 
autodockgpu

>  <m_score__min__energy>  (9) 
-8.9800000000000004

>  <m_primary>  (9) 
energy

>  <rmsd>  (9) 
2.1323437955744744

>  <m_score__min__rmsd>  (9) 
2.1323437955744744

>  <meeko>  (9) 
{"free_energy": -8.13, "intermolecular_energy": -10.22, "internal_energy": -2.86, "cluster_size": 27, "cluster_id": 2, "rank_in_cluster": 19}

>  <energy>  (9) 
-7.73

>  <cluster_rmsd>  (9) 
1.33

>  <cluster>  (9) 
1

$$$$

     RDKit          3D

 56 59  0  0  0  0  0  0  0  0999 V2000
  137.8720   76.5160  220.1340 O   0  0  0  0  0  0  0  0  0  0  0  0
  137.8820   76.3560  221.3780 C   0  0  0  0  0  0  0  0  0  0  0  0
  138.4110   75.2020  222.0220 N   0  0  0  0  0  0  0  0  0  0  0  0
  138.9640   74.1650  221.1850 C   0  0  0  0  0  0  0  0  0  0  0  0
  140.4250   74.1860  221.3170 C   0  0  0  0  0  0  0  0  0  0  0  0
  141.0110   73.6720  222.3140 O   0  0  0  0  0  0  0  0  0  0  0  0
  141.2640   74.7830  220.3360 N   0  0  0  0  0  0  0  0  0  0  0  0
  141.5920   74.0560  219.1230 C   0  0  0  0  0  0  0  0  0  0  0  0
  143.0370   73.6350  219.2610 C   0  0  0  0  0  0  0  0  0  0  0  0
  143.7600   74.6950  220.0610 C   0  0  0  0  0  0  0  0  0  0  0  0
  143.1770   76.0740  219.8020 C   0  0  0  0  0  0  0  0  0  0  0  0
  141.8290   76.1120  220.4760 C   0  0  1  0  0  0  0  0  0  0  0  0
  140.9150   77.1440  219.8320 C   0  0  0  0  0  0  0  0  0  0  0  0
  140.2520   77.9550  220.8320 N   0  0  0  0  0  0  0  0  0  0  0  0
  141.0170   78.6550  221.8010 C   0  0  0  0  0  0  0  0  0  0  0  0
  141.6980   79.8070  221.4270 C   0  0  0  0  0  0  0  0  0  0  0  0
  142.4560   80.5170  222.3480 C   0  0  0  0  0  0  0  0  0  0  0  0
  142.5250   80.0590  223.6580 C   0  0  0  0  0  0  0  0  0  0  0  0
  141.8440   78.9050  224.0380 C   0  0  0  0  0  0  0  0  0  0  0  0
  141.1020   78.2270  223.0970 C   0  0  0  0  0  0  0  0  0  0  0  0
  137.3190   77.4120  222.2220 C   0  0  0  0  0  0  0  0  0  0  0  0
  135.9750   77.4250  222.5530 C   0  0  0  0  0  0  0  0  0  0  0  0
  135.4320   78.4310  223.3580 C   0  0  0  0  0  0  0  0  0  0  0  0
  136.2350   79.4450  223.8460 C   0  0  0  0  0  0  0  0  0  0  0  0
  135.7410   80.4610  224.6460 C   0  0  0  0  0  0  0  0  0  0  0  0
  136.6220   81.4360  225.0900 C   0  0  0  0  0  0  0  0  0  0  0  0
  136.0550   82.7470  226.1060 Cl  0  0  0  0  0  0  0  0  0  0  0  0
  137.9670   81.4230  224.7590 C   0  0  0  0  0  0  0  0  0  0  0  0
  138.4430   80.3980  223.9570 C   0  0  0  0  0  0  0  0  0  0  0  0
  137.5750   79.4030  223.4970 C   0  0  0  0  0  0  0  0  0  0  0  0
  138.0640   78.4170  222.7180 N   0  0  0  0  0  0  0  0  0  0  0  0
  138.3960   75.1140  223.0690 H   0  0  0  0  0  0  0  0  0  0  0  0
  138.5772   73.1859  221.5038 H   0  0  0  0  0  0  0  0  0  0  0  0
  138.6790   74.3366  220.1365 H   0  0  0  0  0  0  0  0  0  0  0  0
  140.9453   73.1719  219.0217 H   0  0  0  0  0  0  0  0  0  0  0  0
  141.4397   74.6786  218.2291 H   0  0  0  0  0  0  0  0  0  0  0  0
  143.0957   72.6687  219.7833 H   0  0  0  0  0  0  0  0  0  0  0  0
  143.4987   73.5250  218.2686 H   0  0  0  0  0  0  0  0  0  0  0  0
  143.6668   74.4617  221.1319 H   0  0  0  0  0  0  0  0  0  0  0  0
  144.8166   74.7012  219.7551 H   0  0  0  0  0  0  0  0  0  0  0  0
  143.8338   76.8482  220.2254 H   0  0  0  0  0  0  0  0  0  0  0  0
  143.0837   76.2662  218.7229 H   0  0  0  0  0  0  0  0  0  0  0  0
  141.9339   76.3994  221.5326 H   0  0  0  0  0  0  0  0  0  0  0  0
  141.5144   77.7970  219.1806 H   0  0  0  0  0  0  0  0  0  0  0  0
  140.1472   76.6134  219.2498 H   0  0  0  0  0  0  0  0  0  0  0  0
  139.2020   78.0440  220.8640 H   0  0  0  0  0  0  0  0  0  0  0  0
  141.6356   80.1610  220.3874 H   0  0  0  0  0  0  0  0  0  0  0  0
  142.9935   81.4278  222.0455 H   0  0  0  0  0  0  0  0  0  0  0  0
  143.1211   80.6112  224.3995 H   0  0  0  0  0  0  0  0  0  0  0  0
  141.8981   78.5407  225.0745 H   0  0  0  0  0  0  0  0  0  0  0  0
  140.5628   77.3160  223.3959 H   0  0  0  0  0  0  0  0  0  0  0  0
  135.3199   76.6265  222.1745 H   0  0  0  0  0  0  0  0  0  0  0  0
  134.3601   78.4155  223.6044 H   0  0  0  0  0  0  0  0  0  0  0  0
  134.6768   80.4943  224.9225 H   0  0  0  0  0  0  0  0  0  0  0  0
  138.6430   82.2097  225.1251 H   0  0  0  0  0  0  0  0  0  0  0  0
  139.5074   80.3671  223.6813 H   0  0  0  0  0  0  0  0  0  0  0  0
  1  2  2  0
  2  3  1  0
  3  4  1  0
  4  5  1  0
  5  6  2  0
  5  7  1  0
  7  8  1  0
  8  9  1  0
  9 10  1  0
 10 11  1  0
 11 12  1  0
 12 13  1  0
 13 14  1  0
 14 15  1  0
 15 16  2  0
 16 17  1  0
 17 18  2  0
 18 19  1  0
 19 20  2  0
  2 21  1  0
 21 22  2  0
 22 23  1  0
 23 24  2  0
 24 25  1  0
 25 26  2  0
 26 27  1  0
 26 28  1  0
 28 29  2  0
 29 30  1  0
 30 31  2  0
 12  7  1  0
 20 15  1  0
 31 21  1  0
 30 24  1  0
  3 32  1  0
  4 33  1  0
  4 34  1  0
  8 35  1  0
  8 36  1  0
  9 37  1  0
  9 38  1  0
 10 39  1  0
 10 40  1  0
 11 41  1  0
 11 42  1  0
 12 43  1  1
 13 44  1  0
 13 45  1  0
 14 46  1  0
 16 47  1  0
 17 48  1  0
 18 49  1  0
 19 50  1  0
 20 51  1  0
 22 52  1  0
 23 53  1  0
 25 54  1  0
 28 55  1  0
 29 56  1  0
M  END
>  <smiles>  (10) 
O=C(NCC(=O)N1CCCC[C@H]1CNc1ccccc1)c1ccc2cc(Cl)ccc2n1

>  <score_type>  (10) 
oracle

>  <origin>  (10) 
autodockgpu

>  <m_score__min__energy>  (10) 
-8.9800000000000004

>  <m_primary>  (10) 
energy

>  <rmsd>  (10) 
6.540382181447593

>  <m_score__min__rmsd>  (10) 
6.540382181447593

>  <meeko>  (10) 
{"free_energy": -6.72, "intermolecular_energy": -8.81, "internal_energy": -3.81, "cluster_size": 2, "cluster_id": 7, "rank_in_cluster": 1}

>  <energy>  (10) 
-7.73

>  <cluster_rmsd>  (10) 
1.12

>  <cluster>  (10) 
1

$$$$

     RDKit          3D

 56 59  0  0  0  0  0  0  0  0999 V2000
  140.7720   72.6840  220.8980 O   0  0  0  0  0  0  0  0  0  0  0  0
  140.0730   72.9260  221.9120 C   0  0  0  0  0  0  0  0  0  0  0  0
  139.2900   74.1030  222.0690 N   0  0  0  0  0  0  0  0  0  0  0  0
  139.3070   75.0660  220.9950 C   0  0  0  0  0  0  0  0  0  0  0  0
  140.4650   75.9480  221.1750 C   0  0  0  0  0  0  0  0  0  0  0  0
  141.1270   75.9660  222.2530 O   0  0  0  0  0  0  0  0  0  0  0  0
  140.9090   76.8320  220.1520 N   0  0  0  0  0  0  0  0  0  0  0  0
  140.8350   78.2680  220.3520 C   0  0  0  0  0  0  0  0  0  0  0  0
  139.7050   78.7580  219.4750 C   0  0  0  0  0  0  0  0  0  0  0  0
  139.6490   77.8780  218.2470 C   0  0  0  0  0  0  0  0  0  0  0  0
  141.0350   77.3920  217.8550 C   0  0  0  0  0  0  0  0  0  0  0  0
  141.4490   76.3730  218.8860 C   0  0  1  0  0  0  0  0  0  0  0  0
  142.9640   76.2540  218.9700 C   0  0  0  0  0  0  0  0  0  0  0  0
  143.3720   75.6230  220.2080 N   0  0  0  0  0  0  0  0  0  0  0  0
  144.2570   74.5140  220.1840 C   0  0  0  0  0  0  0  0  0  0  0  0
  143.9000   73.3760  219.4730 C   0  0  0  0  0  0  0  0  0  0  0  0
  144.7410   72.2720  219.4280 C   0  0  0  0  0  0  0  0  0  0  0  0
  145.9530   72.3210  220.1070 C   0  0  0  0  0  0  0  0  0  0  0  0
  146.3140   73.4600  220.8210 C   0  0  0  0  0  0  0  0  0  0  0  0
  145.4550   74.5350  220.8440 C   0  0  0  0  0  0  0  0  0  0  0  0
  140.0590   71.9450  222.9990 C   0  0  0  0  0  0  0  0  0  0  0  0
  139.5610   70.6680  222.8050 C   0  0  0  0  0  0  0  0  0  0  0  0
  139.5440   69.7260  223.8390 C   0  0  0  0  0  0  0  0  0  0  0  0
  140.0310   70.0550  225.0900 C   0  0  0  0  0  0  0  0  0  0  0  0
  140.0340   69.1560  226.1430 C   0  0  0  0  0  0  0  0  0  0  0  0
  140.5430   69.5750  227.3640 C   0  0  0  0  0  0  0  0  0  0  0  0
  140.5750   68.4810  228.7330 Cl  0  0  0  0  0  0  0  0  0  0  0  0
  141.0410   70.8520  227.5580 C   0  0  0  0  0  0  0  0  0  0  0  0
  141.0290   71.7390  226.4930 C   0  0  0  0  0  0  0  0  0  0  0  0
  140.5220   71.3400  225.2520 C   0  0  0  0  0  0  0  0  0  0  0  0
  140.5220   72.2220  224.2320 N   0  0  0  0  0  0  0  0  0  0  0  0
  138.7200   74.2610  222.9390 H   0  0  0  0  0  0  0  0  0  0  0  0
  139.3856   74.5436  220.0302 H   0  0  0  0  0  0  0  0  0  0  0  0
  138.3794   75.6571  221.0058 H   0  0  0  0  0  0  0  0  0  0  0  0
  140.6249   78.4957  221.4075 H   0  0  0  0  0  0  0  0  0  0  0  0
  141.7850   78.7584  220.0932 H   0  0  0  0  0  0  0  0  0  0  0  0
  138.7533   78.6947  220.0229 H   0  0  0  0  0  0  0  0  0  0  0  0
  139.8734   79.8059  219.1859 H   0  0  0  0  0  0  0  0  0  0  0  0
  139.0101   77.0078  218.4581 H   0  0  0  0  0  0  0  0  0  0  0  0
  139.2384   78.4679  217.4143 H   0  0  0  0  0  0  0  0  0  0  0  0
  141.0058   76.9302  216.8571 H   0  0  0  0  0  0  0  0  0  0  0  0
  141.7495   78.2275  217.8178 H   0  0  0  0  0  0  0  0  0  0  0  0
  141.0687   75.3757  218.6199 H   0  0  0  0  0  0  0  0  0  0  0  0
  143.3239   75.6502  218.1239 H   0  0  0  0  0  0  0  0  0  0  0  0
  143.3952   77.2654  218.9360 H   0  0  0  0  0  0  0  0  0  0  0  0
  143.0270   75.9680  221.1440 H   0  0  0  0  0  0  0  0  0  0  0  0
  142.9389   73.3487  218.9387 H   0  0  0  0  0  0  0  0  0  0  0  0
  144.4527   71.3728  218.8639 H   0  0  0  0  0  0  0  0  0  0  0  0
  146.6305   71.4549  220.0799 H   0  0  0  0  0  0  0  0  0  0  0  0
  147.2724   73.5003  221.3593 H   0  0  0  0  0  0  0  0  0  0  0  0
  145.7394   75.4354  221.4083 H   0  0  0  0  0  0  0  0  0  0  0  0
  139.1700   70.3878  221.8158 H   0  0  0  0  0  0  0  0  0  0  0  0
  139.1413   68.7189  223.6557 H   0  0  0  0  0  0  0  0  0  0  0  0
  139.6429   68.1359  226.0150 H   0  0  0  0  0  0  0  0  0  0  0  0
  141.4382   71.1566  228.5375 H   0  0  0  0  0  0  0  0  0  0  0  0
  141.4191   72.7591  226.6241 H   0  0  0  0  0  0  0  0  0  0  0  0
  1  2  2  0
  2  3  1  0
  3  4  1  0
  4  5  1  0
  5  6  2  0
  5  7  1  0
  7  8  1  0
  8  9  1  0
  9 10  1  0
 10 11  1  0
 11 12  1  0
 12 13  1  0
 13 14  1  0
 14 15  1  0
 15 16  2  0
 16 17  1  0
 17 18  2  0
 18 19  1  0
 19 20  2  0
  2 21  1  0
 21 22  2  0
 22 23  1  0
 23 24  2  0
 24 25  1  0
 25 26  2  0
 26 27  1  0
 26 28  1  0
 28 29  2  0
 29 30  1  0
 30 31  2  0
 12  7  1  0
 20 15  1  0
 31 21  1  0
 30 24  1  0
  3 32  1  0
  4 33  1  0
  4 34  1  0
  8 35  1  0
  8 36  1  0
  9 37  1  0
  9 38  1  0
 10 39  1  0
 10 40  1  0
 11 41  1  0
 11 42  1  0
 12 43  1  6
 13 44  1  0
 13 45  1  0
 14 46  1  0
 16 47  1  0
 17 48  1  0
 18 49  1  0
 19 50  1  0
 20 51  1  0
 22 52  1  0
 23 53  1  0
 25 54  1  0
 28 55  1  0
 29 56  1  0
M  END
>  <smiles>  (11) 
O=C(NCC(=O)N1CCCC[C@H]1CNc1ccccc1)c1ccc2cc(Cl)ccc2n1

>  <score_type>  (11) 
oracle

>  <origin>  (11) 
autodockgpu

>  <m_score__min__energy>  (11) 
-8.9800000000000004

>  <m_primary>  (11) 
energy

>  <rmsd>  (11) 
4.646721389799386

>  <m_score__min__rmsd>  (11) 
4.646721389799386

>  <meeko>  (11) 
{"free_energy": -8.52, "intermolecular_energy": -10.61, "internal_energy": -2.52, "cluster_size": 11, "cluster_id": 1, "rank_in_cluster": 4}

>  <energy>  (11) 
-7.73

>  <cluster_rmsd>  (11) 
1.26

>  <cluster>  (11) 
1

$$$$

     RDKit          3D

 56 59  0  0  0  0  0  0  0  0999 V2000
  140.6550   73.5440  222.2910 O   0  0  0  0  0  0  0  0  0  0  0  0
  139.7180   74.2080  221.7840 C   0  0  0  0  0  0  0  0  0  0  0  0
  138.7850   73.6730  220.8520 N   0  0  0  0  0  0  0  0  0  0  0  0
  138.9350   72.2880  220.4760 C   0  0  0  0  0  0  0  0  0  0  0  0
  137.7930   71.5340  221.0030 C   0  0  0  0  0  0  0  0  0  0  0  0
  136.6320   71.6570  220.5150 O   0  0  0  0  0  0  0  0  0  0  0  0
  137.9230   70.6220  222.0870 N   0  0  0  0  0  0  0  0  0  0  0  0
  137.5160   69.2380  221.9230 C   0  0  0  0  0  0  0  0  0  0  0  0
  136.2330   69.0790  222.7060 C   0  0  0  0  0  0  0  0  0  0  0  0
  136.2940   70.0070  223.8990 C   0  0  0  0  0  0  0  0  0  0  0  0
  137.7190   70.1640  224.4020 C   0  0  0  0  0  0  0  0  0  0  0  0
  138.4530   71.0000  223.3830 C   0  0  1  0  0  0  0  0  0  0  0  0
  139.9520   70.7470  223.4350 C   0  0  0  0  0  0  0  0  0  0  0  0
  140.5910   71.5830  224.4310 N   0  0  0  0  0  0  0  0  0  0  0  0
  140.7410   71.1140  225.7620 C   0  0  0  0  0  0  0  0  0  0  0  0
  140.6880   69.7480  226.0120 C   0  0  0  0  0  0  0  0  0  0  0  0
  140.8310   69.2550  227.3020 C   0  0  0  0  0  0  0  0  0  0  0  0
  141.0300   70.1490  228.3470 C   0  0  0  0  0  0  0  0  0  0  0  0
  141.0840   71.5190  228.1000 C   0  0  0  0  0  0  0  0  0  0  0  0
  140.9380   71.9720  226.8090 C   0  0  0  0  0  0  0  0  0  0  0  0
  139.5710   75.6120  222.1690 C   0  0  0  0  0  0  0  0  0  0  0  0
  140.6760   76.4240  222.3560 C   0  0  0  0  0  0  0  0  0  0  0  0
  140.5420   77.7670  222.7240 C   0  0  0  0  0  0  0  0  0  0  0  0
  139.2890   78.3170  222.9110 C   0  0  0  0  0  0  0  0  0  0  0  0
  139.1080   79.6410  223.2750 C   0  0  0  0  0  0  0  0  0  0  0  0
  137.8110   80.1070  223.4400 C   0  0  0  0  0  0  0  0  0  0  0  0
  137.5200   81.7730  223.9000 Cl  0  0  0  0  0  0  0  0  0  0  0  0
  136.7050   79.2950  223.2530 C   0  0  0  0  0  0  0  0  0  0  0  0
  136.9060   77.9730  222.8890 C   0  0  0  0  0  0  0  0  0  0  0  0
  138.2020   77.4800  222.7160 C   0  0  0  0  0  0  0  0  0  0  0  0
  138.3690   76.1890  222.3620 N   0  0  0  0  0  0  0  0  0  0  0  0
  138.0160   74.2700  220.4550 H   0  0  0  0  0  0  0  0  0  0  0  0
  138.9615   72.2024  219.3797 H   0  0  0  0  0  0  0  0  0  0  0  0
  139.8727   71.8863  220.8874 H   0  0  0  0  0  0  0  0  0  0  0  0
  137.3438   69.0148  220.8597 H   0  0  0  0  0  0  0  0  0  0  0  0
  138.2927   68.5470  222.2825 H   0  0  0  0  0  0  0  0  0  0  0  0
  135.3738   69.3427  222.0718 H   0  0  0  0  0  0  0  0  0  0  0  0
  136.1155   68.0371  223.0386 H   0  0  0  0  0  0  0  0  0  0  0  0
  135.9064   70.9938  223.6059 H   0  0  0  0  0  0  0  0  0  0  0  0
  135.6855   69.5751  224.7072 H   0  0  0  0  0  0  0  0  0  0  0  0
  137.7219   70.6694  225.3790 H   0  0  0  0  0  0  0  0  0  0  0  0
  138.2021   69.1840  224.5294 H   0  0  0  0  0  0  0  0  0  0  0  0
  138.3072   72.0716  223.5839 H   0  0  0  0  0  0  0  0  0  0  0  0
  140.1290   69.6908  223.6863 H   0  0  0  0  0  0  0  0  0  0  0  0
  140.3801   70.9890  222.4510 H   0  0  0  0  0  0  0  0  0  0  0  0
  140.9540   72.5440  224.1950 H   0  0  0  0  0  0  0  0  0  0  0  0
  140.5308   69.0487  225.1775 H   0  0  0  0  0  0  0  0  0  0  0  0
  140.7874   68.1728  227.4940 H   0  0  0  0  0  0  0  0  0  0  0  0
  141.1455   69.7731  229.3743 H   0  0  0  0  0  0  0  0  0  0  0  0
  141.2412   72.2287  228.9256 H   0  0  0  0  0  0  0  0  0  0  0  0
  140.9809   73.0536  226.6135 H   0  0  0  0  0  0  0  0  0  0  0  0
  141.6824   76.0039  222.2120 H   0  0  0  0  0  0  0  0  0  0  0  0
  141.4389   78.3880  222.8651 H   0  0  0  0  0  0  0  0  0  0  0  0
  139.9702   80.3064  223.4294 H   0  0  0  0  0  0  0  0  0  0  0  0
  135.6880   79.6911  223.3905 H   0  0  0  0  0  0  0  0  0  0  0  0
  136.0422   77.3094  222.7357 H   0  0  0  0  0  0  0  0  0  0  0  0
  1  2  2  0
  2  3  1  0
  3  4  1  0
  4  5  1  0
  5  6  2  0
  5  7  1  0
  7  8  1  0
  8  9  1  0
  9 10  1  0
 10 11  1  0
 11 12  1  0
 12 13  1  0
 13 14  1  0
 14 15  1  0
 15 16  2  0
 16 17  1  0
 17 18  2  0
 18 19  1  0
 19 20  2  0
  2 21  1  0
 21 22  2  0
 22 23  1  0
 23 24  2  0
 24 25  1  0
 25 26  2  0
 26 27  1  0
 26 28  1  0
 28 29  2  0
 29 30  1  0
 30 31  2  0
 12  7  1  0
 20 15  1  0
 31 21  1  0
 30 24  1  0
  3 32  1  0
  4 33  1  0
  4 34  1  0
  8 35  1  0
  8 36  1  0
  9 37  1  0
  9 38  1  0
 10 39  1  0
 10 40  1  0
 11 41  1  0
 11 42  1  0
 12 43  1  1
 13 44  1  0
 13 45  1  0
 14 46  1  0
 16 47  1  0
 17 48  1  0
 18 49  1  0
 19 50  1  0
 20 51  1  0
 22 52  1  0
 23 53  1  0
 25 54  1  0
 28 55  1  0
 29 56  1  0
M  END
>  <smiles>  (12) 
O=C(NCC(=O)N1CCCC[C@H]1CNc1ccccc1)c1ccc2cc(Cl)ccc2n1

>  <score_type>  (12) 
oracle

>  <origin>  (12) 
autodockgpu

>  <m_score__min__energy>  (12) 
-8.9800000000000004

>  <m_primary>  (12) 
energy

>  <rmsd>  (12) 
9.065232070516842

>  <m_score__min__rmsd>  (12) 
9.065232070516842

>  <meeko>  (12) 
{"free_energy": -7.17, "intermolecular_energy": -9.25, "internal_energy": -2.52, "cluster_size": 6, "cluster_id": 4, "rank_in_cluster": 6}

>  <energy>  (12) 
-8.96

>  <cluster_rmsd>  (12) 
0.0

>  <cluster>  (12) 
2

$$$$

     RDKit          3D

 56 59  0  0  0  0  0  0  0  0999 V2000
  138.0170   71.7280  221.3940 O   0  0  0  0  0  0  0  0  0  0  0  0
  138.7710   72.1440  222.3060 C   0  0  0  0  0  0  0  0  0  0  0  0
  139.3100   73.4600  222.3460 N   0  0  0  0  0  0  0  0  0  0  0  0
  138.9610   74.3590  221.2720 C   0  0  0  0  0  0  0  0  0  0  0  0
  140.0960   75.2530  221.0220 C   0  0  0  0  0  0  0  0  0  0  0  0
  141.1820   75.1470  221.6640 O   0  0  0  0  0  0  0  0  0  0  0  0
  140.0440   76.2880  220.0480 N   0  0  0  0  0  0  0  0  0  0  0  0
  138.7880   76.9640  219.7760 C   0  0  0  0  0  0  0  0  0  0  0  0
  138.3250   76.4680  218.4260 C   0  0  0  0  0  0  0  0  0  0  0  0
  139.5490   76.1790  217.5860 C   0  0  0  0  0  0  0  0  0  0  0  0
  140.6860   77.1270  217.9280 C   0  0  0  0  0  0  0  0  0  0  0  0
  141.2000   76.7220  219.2870 C   0  0  1  0  0  0  0  0  0  0  0  0
  141.8880   77.8840  219.9890 C   0  0  0  0  0  0  0  0  0  0  0  0
  141.8060   77.7490  221.4280 N   0  0  0  0  0  0  0  0  0  0  0  0
  141.7130   78.9050  222.2470 C   0  0  0  0  0  0  0  0  0  0  0  0
  140.4600   79.3760  222.6180 C   0  0  0  0  0  0  0  0  0  0  0  0
  140.3320   80.5040  223.4170 C   0  0  0  0  0  0  0  0  0  0  0  0
  141.4790   81.1600  223.8450 C   0  0  0  0  0  0  0  0  0  0  0  0
  142.7380   80.6900  223.4760 C   0  0  0  0  0  0  0  0  0  0  0  0
  142.8270   79.5690  222.6820 C   0  0  0  0  0  0  0  0  0  0  0  0
  139.1210   71.2280  223.3930 C   0  0  0  0  0  0  0  0  0  0  0  0
  138.8240   69.8780  223.3160 C   0  0  0  0  0  0  0  0  0  0  0  0
  139.1560   68.9980  224.3510 C   0  0  0  0  0  0  0  0  0  0  0  0
  139.7940   69.4630  225.4850 C   0  0  0  0  0  0  0  0  0  0  0  0
  140.1420   68.6290  226.5350 C   0  0  0  0  0  0  0  0  0  0  0  0
  140.7810   69.1850  227.6330 C   0  0  0  0  0  0  0  0  0  0  0  0
  141.2450   68.1790  228.9910 Cl  0  0  0  0  0  0  0  0  0  0  0  0
  141.0780   70.5350  227.7100 C   0  0  0  0  0  0  0  0  0  0  0  0
  140.7220   71.3550  226.6500 C   0  0  0  0  0  0  0  0  0  0  0  0
  140.0780   70.8190  225.5320 C   0  0  0  0  0  0  0  0  0  0  0  0
  139.7430   71.6380  224.5140 N   0  0  0  0  0  0  0  0  0  0  0  0
  139.9390   73.7620  223.1330 H   0  0  0  0  0  0  0  0  0  0  0  0
  138.7373   73.7812  220.3631 H   0  0  0  0  0  0  0  0  0  0  0  0
  138.0734   74.9472  221.5481 H   0  0  0  0  0  0  0  0  0  0  0  0
  138.0458   76.7147  220.5487 H   0  0  0  0  0  0  0  0  0  0  0  0
  138.9124   78.0569  219.7800 H   0  0  0  0  0  0  0  0  0  0  0  0
  137.7323   75.5496  218.5495 H   0  0  0  0  0  0  0  0  0  0  0  0
  137.6974   77.2270  217.9361 H   0  0  0  0  0  0  0  0  0  0  0  0
  139.8756   75.1451  217.7715 H   0  0  0  0  0  0  0  0  0  0  0  0
  139.2857   76.3183  216.5271 H   0  0  0  0  0  0  0  0  0  0  0  0
  141.4876   77.0419  217.1796 H   0  0  0  0  0  0  0  0  0  0  0  0
  140.3402   78.1712  217.9328 H   0  0  0  0  0  0  0  0  0  0  0  0
  141.9489   75.9217  219.1943 H   0  0  0  0  0  0  0  0  0  0  0  0
  142.9465   77.9075  219.6906 H   0  0  0  0  0  0  0  0  0  0  0  0
  141.3819   78.8161  219.6972 H   0  0  0  0  0  0  0  0  0  0  0  0
  141.8130   76.8040  221.8960 H   0  0  0  0  0  0  0  0  0  0  0  0
  139.5579   78.8486  222.2744 H   0  0  0  0  0  0  0  0  0  0  0  0
  139.3370   80.8728  223.7068 H   0  0  0  0  0  0  0  0  0  0  0  0
  141.3932   82.0552  224.4785 H   0  0  0  0  0  0  0  0  0  0  0  0
  143.6478   81.2075  223.8144 H   0  0  0  0  0  0  0  0  0  0  0  0
  143.8202   79.1974  222.3896 H   0  0  0  0  0  0  0  0  0  0  0  0
  138.3158   69.4891  222.4213 H   0  0  0  0  0  0  0  0  0  0  0  0
  138.9079   67.9301  224.2618 H   0  0  0  0  0  0  0  0  0  0  0  0
  139.9171   67.5528  226.4987 H   0  0  0  0  0  0  0  0  0  0  0  0
  141.5859   70.9486  228.5938 H   0  0  0  0  0  0  0  0  0  0  0  0
  140.9473   72.4309  226.6895 H   0  0  0  0  0  0  0  0  0  0  0  0
  1  2  2  0
  2  3  1  0
  3  4  1  0
  4  5  1  0
  5  6  2  0
  5  7  1  0
  7  8  1  0
  8  9  1  0
  9 10  1  0
 10 11  1  0
 11 12  1  0
 12 13  1  0
 13 14  1  0
 14 15  1  0
 15 16  2  0
 16 17  1  0
 17 18  2  0
 18 19  1  0
 19 20  2  0
  2 21  1  0
 21 22  2  0
 22 23  1  0
 23 24  2  0
 24 25  1  0
 25 26  2  0
 26 27  1  0
 26 28  1  0
 28 29  2  0
 29 30  1  0
 30 31  2  0
 12  7  1  0
 20 15  1  0
 31 21  1  0
 30 24  1  0
  3 32  1  0
  4 33  1  0
  4 34  1  0
  8 35  1  0
  8 36  1  0
  9 37  1  0
  9 38  1  0
 10 39  1  0
 10 40  1  0
 11 41  1  0
 11 42  1  0
 12 43  1  6
 13 44  1  0
 13 45  1  0
 14 46  1  0
 16 47  1  0
 17 48  1  0
 18 49  1  0
 19 50  1  0
 20 51  1  0
 22 52  1  0
 23 53  1  0
 25 54  1  0
 28 55  1  0
 29 56  1  0
M  END
>  <smiles>  (13) 
O=C(NCC(=O)N1CCCC[C@H]1CNc1ccccc1)c1ccc2cc(Cl)ccc2n1

>  <score_type>  (13) 
oracle

>  <origin>  (13) 
autodockgpu

>  <m_score__min__energy>  (13) 
-8.9800000000000004

>  <m_primary>  (13) 
energy

>  <rmsd>  (13) 
1.986778115759201

>  <m_score__min__rmsd>  (13) 
1.986778115759201

>  <meeko>  (13) 
{"free_energy": -8.18, "intermolecular_energy": -10.26, "internal_energy": -2.74, "cluster_size": 27, "cluster_id": 2, "rank_in_cluster": 17}

>  <energy>  (13) 
-8.83

>  <cluster_rmsd>  (13) 
0.92

>  <cluster>  (13) 
2

$$$$

     RDKit          3D

 56 59  0  0  0  0  0  0  0  0999 V2000
  140.2660   74.1570  222.0590 O   0  0  0  0  0  0  0  0  0  0  0  0
  140.3920   72.9370  221.7960 C   0  0  0  0  0  0  0  0  0  0  0  0
  140.6590   72.4320  220.4930 N   0  0  0  0  0  0  0  0  0  0  0  0
  140.7900   73.3880  219.4200 C   0  0  0  0  0  0  0  0  0  0  0  0
  141.8380   72.9240  218.5050 C   0  0  0  0  0  0  0  0  0  0  0  0
  141.5610   72.4130  217.3810 O   0  0  0  0  0  0  0  0  0  0  0  0
  143.2200   73.0210  218.8250 N   0  0  0  0  0  0  0  0  0  0  0  0
  144.2210   72.7600  217.8060 C   0  0  0  0  0  0  0  0  0  0  0  0
  144.8330   71.4220  218.1490 C   0  0  0  0  0  0  0  0  0  0  0  0
  144.8240   71.2720  219.6530 C   0  0  0  0  0  0  0  0  0  0  0  0
  144.9950   72.6170  220.3410 C   0  0  0  0  0  0  0  0  0  0  0  0
  143.7060   73.3750  220.1460 C   0  0  1  0  0  0  0  0  0  0  0  0
  143.9270   74.8780  220.2410 C   0  0  0  0  0  0  0  0  0  0  0  0
  142.6800   75.5770  220.4730 N   0  0  0  0  0  0  0  0  0  0  0  0
  142.4630   76.8550  219.8950 C   0  0  0  0  0  0  0  0  0  0  0  0
  142.9150   77.1030  218.6050 C   0  0  0  0  0  0  0  0  0  0  0  0
  142.7210   78.3420  218.0090 C   0  0  0  0  0  0  0  0  0  0  0  0
  142.0640   79.3370  218.7230 C   0  0  0  0  0  0  0  0  0  0  0  0
  141.6090   79.0920  220.0160 C   0  0  0  0  0  0  0  0  0  0  0  0
  141.8200   77.8520  220.5760 C   0  0  0  0  0  0  0  0  0  0  0  0
  140.2590   71.9720  222.8890 C   0  0  0  0  0  0  0  0  0  0  0  0
  139.6720   70.7340  222.6860 C   0  0  0  0  0  0  0  0  0  0  0  0
  139.5420   69.8080  223.7250 C   0  0  0  0  0  0  0  0  0  0  0  0
  140.0020   70.1130  224.9930 C   0  0  0  0  0  0  0  0  0  0  0  0
  139.8940   69.2270  226.0520 C   0  0  0  0  0  0  0  0  0  0  0  0
  140.3840   69.6200  227.2900 C   0  0  0  0  0  0  0  0  0  0  0  0
  140.2760   68.5420  228.6670 Cl  0  0  0  0  0  0  0  0  0  0  0  0
  140.9700   70.8570  227.4930 C   0  0  0  0  0  0  0  0  0  0  0  0
  141.0690   71.7300  226.4210 C   0  0  0  0  0  0  0  0  0  0  0  0
  140.5840   71.3580  225.1650 C   0  0  0  0  0  0  0  0  0  0  0  0
  140.6920   72.2260  224.1380 N   0  0  0  0  0  0  0  0  0  0  0  0
  140.7570   71.3990  220.3240 H   0  0  0  0  0  0  0  0  0  0  0  0
  139.8358   73.4709  218.8790 H   0  0  0  0  0  0  0  0  0  0  0  0
  141.0561   74.3749  219.8265 H   0  0  0  0  0  0  0  0  0  0  0  0
  143.7519   72.7211  216.8118 H   0  0  0  0  0  0  0  0  0  0  0  0
  144.9821   73.5538  217.7792 H   0  0  0  0  0  0  0  0  0  0  0  0
  144.2438   70.6142  217.6904 H   0  0  0  0  0  0  0  0  0  0  0  0
  145.8630   71.3654  217.7670 H   0  0  0  0  0  0  0  0  0  0  0  0
  143.8661   70.8293  219.9637 H   0  0  0  0  0  0  0  0  0  0  0  0
  145.6635   70.6232  219.9432 H   0  0  0  0  0  0  0  0  0  0  0  0
  145.1897   72.4712  221.4138 H   0  0  0  0  0  0  0  0  0  0  0  0
  145.8458   73.1709  219.9175 H   0  0  0  0  0  0  0  0  0  0  0  0
  142.9803   73.1122  220.9298 H   0  0  0  0  0  0  0  0  0  0  0  0
  144.6159   75.0875  221.0726 H   0  0  0  0  0  0  0  0  0  0  0  0
  144.3509   75.2287  219.2885 H   0  0  0  0  0  0  0  0  0  0  0  0
  141.9150   75.1600  221.0670 H   0  0  0  0  0  0  0  0  0  0  0  0
  143.4330   76.3079  218.0488 H   0  0  0  0  0  0  0  0  0  0  0  0
  143.0817   78.5331  216.9875 H   0  0  0  0  0  0  0  0  0  0  0  0
  141.9025   80.3236  218.2641 H   0  0  0  0  0  0  0  0  0  0  0  0
  141.0882   79.8782  220.5822 H   0  0  0  0  0  0  0  0  0  0  0  0
  141.4621   77.6580  221.5979 H   0  0  0  0  0  0  0  0  0  0  0  0
  139.2996   70.4736  221.6843 H   0  0  0  0  0  0  0  0  0  0  0  0
  139.0717   68.8323  223.5332 H   0  0  0  0  0  0  0  0  0  0  0  0
  139.4321   68.2380  225.9157 H   0  0  0  0  0  0  0  0  0  0  0  0
  141.3497   71.1418  228.4853 H   0  0  0  0  0  0  0  0  0  0  0  0
  141.5308   72.7187  226.5597 H   0  0  0  0  0  0  0  0  0  0  0  0
  1  2  2  0
  2  3  1  0
  3  4  1  0
  4  5  1  0
  5  6  2  0
  5  7  1  0
  7  8  1  0
  8  9  1  0
  9 10  1  0
 10 11  1  0
 11 12  1  0
 12 13  1  0
 13 14  1  0
 14 15  1  0
 15 16  2  0
 16 17  1  0
 17 18  2  0
 18 19  1  0
 19 20  2  0
  2 21  1  0
 21 22  2  0
 22 23  1  0
 23 24  2  0
 24 25  1  0
 25 26  2  0
 26 27  1  0
 26 28  1  0
 28 29  2  0
 29 30  1  0
 30 31  2  0
 12  7  1  0
 20 15  1  0
 31 21  1  0
 30 24  1  0
  3 32  1  0
  4 33  1  0
  4 34  1  0
  8 35  1  0
  8 36  1  0
  9 37  1  0
  9 38  1  0
 10 39  1  0
 10 40  1  0
 11 41  1  0
 11 42  1  0
 12 43  1  1
 13 44  1  0
 13 45  1  0
 14 46  1  0
 16 47  1  0
 17 48  1  0
 18 49  1  0
 19 50  1  0
 20 51  1  0
 22 52  1  0
 23 53  1  0
 25 54  1  0
 28 55  1  0
 29 56  1  0
M  END
>  <smiles>  (14) 
O=C(NCC(=O)N1CCCC[C@H]1CNc1ccccc1)c1ccc2cc(Cl)ccc2n1

>  <score_type>  (14) 
oracle

>  <origin>  (14) 
autodockgpu

>  <m_score__min__energy>  (14) 
-8.9800000000000004

>  <m_primary>  (14) 
energy

>  <rmsd>  (14) 
3.907407858222199

>  <m_score__min__rmsd>  (14) 
3.907407858222199

>  <meeko>  (14) 
{"free_energy": -7.38, "intermolecular_energy": -9.47, "internal_energy": -2.51, "cluster_size": 2, "cluster_id": 3, "rank_in_cluster": 2}

>  <energy>  (14) 
-8.83

>  <cluster_rmsd>  (14) 
1.7

>  <cluster>  (14) 
2

$$$$

     RDKit          3D

 56 59  0  0  0  0  0  0  0  0999 V2000
  138.7070   71.4080  221.0650 O   0  0  0  0  0  0  0  0  0  0  0  0
  139.0680   71.9230  222.1510 C   0  0  0  0  0  0  0  0  0  0  0  0
  139.2350   73.3220  222.3460 N   0  0  0  0  0  0  0  0  0  0  0  0
  138.9730   74.1890  221.2230 C   0  0  0  0  0  0  0  0  0  0  0  0
  139.6670   75.4620  221.4420 C   0  0  0  0  0  0  0  0  0  0  0  0
  140.8900   75.5070  221.7640 O   0  0  0  0  0  0  0  0  0  0  0  0
  139.0100   76.7160  221.3050 N   0  0  0  0  0  0  0  0  0  0  0  0
  138.3970   77.3430  222.4630 C   0  0  0  0  0  0  0  0  0  0  0  0
  136.9040   77.1990  222.2800 C   0  0  0  0  0  0  0  0  0  0  0  0
  136.6050   77.2440  220.7990 C   0  0  0  0  0  0  0  0  0  0  0  0
  137.5850   78.1470  220.0680 C   0  0  0  0  0  0  0  0  0  0  0  0
  138.9100   77.4280  220.0450 C   0  0  1  0  0  0  0  0  0  0  0  0
  140.0680   78.4040  219.8970 C   0  0  0  0  0  0  0  0  0  0  0  0
  141.1850   78.0230  220.7380 N   0  0  0  0  0  0  0  0  0  0  0  0
  141.6000   78.8720  221.7970 C   0  0  0  0  0  0  0  0  0  0  0  0
  141.4650   78.4370  223.1090 C   0  0  0  0  0  0  0  0  0  0  0  0
  141.8600   79.2410  224.1700 C   0  0  0  0  0  0  0  0  0  0  0  0
  142.3960   80.4940  223.9010 C   0  0  0  0  0  0  0  0  0  0  0  0
  142.5330   80.9340  222.5870 C   0  0  0  0  0  0  0  0  0  0  0  0
  142.1310   80.1110  221.5600 C   0  0  0  0  0  0  0  0  0  0  0  0
  139.3320   71.0380  223.2870 C   0  0  0  0  0  0  0  0  0  0  0  0
  138.9820   69.6990  223.2500 C   0  0  0  0  0  0  0  0  0  0  0  0
  139.2310   68.8480  224.3310 C   0  0  0  0  0  0  0  0  0  0  0  0
  139.8410   69.3320  225.4730 C   0  0  0  0  0  0  0  0  0  0  0  0
  140.1070   68.5270  226.5680 C   0  0  0  0  0  0  0  0  0  0  0  0
  140.7230   69.1010  227.6720 C   0  0  0  0  0  0  0  0  0  0  0  0
  141.0860   68.1320  229.0870 Cl  0  0  0  0  0  0  0  0  0  0  0  0
  141.0730   70.4400  227.7100 C   0  0  0  0  0  0  0  0  0  0  0  0
  140.7980   71.2300  226.6050 C   0  0  0  0  0  0  0  0  0  0  0  0
  140.1790   70.6760  225.4810 C   0  0  0  0  0  0  0  0  0  0  0  0
  139.9230   71.4670  224.4190 N   0  0  0  0  0  0  0  0  0  0  0  0
  139.5390   73.7050  223.2770 H   0  0  0  0  0  0  0  0  0  0  0  0
  139.3421   73.7201  220.2989 H   0  0  0  0  0  0  0  0  0  0  0  0
  137.8911   74.3628  221.1272 H   0  0  0  0  0  0  0  0  0  0  0  0
  138.7186   76.8372  223.3853 H   0  0  0  0  0  0  0  0  0  0  0  0
  138.6901   78.3998  222.5485 H   0  0  0  0  0  0  0  0  0  0  0  0
  136.5680   76.2390  222.6990 H   0  0  0  0  0  0  0  0  0  0  0  0
  136.3765   78.0124  222.7998 H   0  0  0  0  0  0  0  0  0  0  0  0
  136.6784   76.2267  220.3870 H   0  0  0  0  0  0  0  0  0  0  0  0
  135.5906   77.6461  220.6603 H   0  0  0  0  0  0  0  0  0  0  0  0
  137.2364   78.3305  219.0410 H   0  0  0  0  0  0  0  0  0  0  0  0
  137.6742   79.1207  220.5720 H   0  0  0  0  0  0  0  0  0  0  0  0
  138.9634   76.7428  219.1861 H   0  0  0  0  0  0  0  0  0  0  0  0
  140.3964   78.4146  218.8472 H   0  0  0  0  0  0  0  0  0  0  0  0
  139.7240   79.4022  220.2058 H   0  0  0  0  0  0  0  0  0  0  0  0
  141.7080   77.1210  220.5860 H   0  0  0  0  0  0  0  0  0  0  0  0
  141.0397   77.4427  223.3103 H   0  0  0  0  0  0  0  0  0  0  0  0
  141.7502   78.8912  225.2071 H   0  0  0  0  0  0  0  0  0  0  0  0
  142.7140   81.1423  224.7308 H   0  0  0  0  0  0  0  0  0  0  0  0
  142.9569   81.9262  222.3728 H   0  0  0  0  0  0  0  0  0  0  0  0
  142.2392   80.4579  220.5217 H   0  0  0  0  0  0  0  0  0  0  0  0
  138.4967   69.2953  222.3492 H   0  0  0  0  0  0  0  0  0  0  0  0
  138.9402   67.7887  224.2724 H   0  0  0  0  0  0  0  0  0  0  0  0
  139.8373   67.4606  226.5632 H   0  0  0  0  0  0  0  0  0  0  0  0
  141.5593   70.8680  228.5990 H   0  0  0  0  0  0  0  0  0  0  0  0
  141.0678   72.2964  226.6126 H   0  0  0  0  0  0  0  0  0  0  0  0
  1  2  2  0
  2  3  1  0
  3  4  1  0
  4  5  1  0
  5  6  2  0
  5  7  1  0
  7  8  1  0
  8  9  1  0
  9 10  1  0
 10 11  1  0
 11 12  1  0
 12 13  1  0
 13 14  1  0
 14 15  1  0
 15 16  2  0
 16 17  1  0
 17 18  2  0
 18 19  1  0
 19 20  2  0
  2 21  1  0
 21 22  2  0
 22 23  1  0
 23 24  2  0
 24 25  1  0
 25 26  2  0
 26 27  1  0
 26 28  1  0
 28 29  2  0
 29 30  1  0
 30 31  2  0
 12  7  1  0
 20 15  1  0
 31 21  1  0
 30 24  1  0
  3 32  1  0
  4 33  1  0
  4 34  1  0
  8 35  1  0
  8 36  1  0
  9 37  1  0
  9 38  1  0
 10 39  1  0
 10 40  1  0
 11 41  1  0
 11 42  1  0
 12 43  1  6
 13 44  1  0
 13 45  1  0
 14 46  1  0
 16 47  1  0
 17 48  1  0
 18 49  1  0
 19 50  1  0
 20 51  1  0
 22 52  1  0
 23 53  1  0
 25 54  1  0
 28 55  1  0
 29 56  1  0
M  END
>  <smiles>  (15) 
O=C(NCC(=O)N1CCCC[C@H]1CNc1ccccc1)c1ccc2cc(Cl)ccc2n1

>  <score_type>  (15) 
oracle

>  <origin>  (15) 
autodockgpu

>  <m_score__min__energy>  (15) 
-8.9800000000000004

>  <m_primary>  (15) 
energy

>  <rmsd>  (15) 
3.015679572079005

>  <m_score__min__rmsd>  (15) 
3.015679572079005

>  <meeko>  (15) 
{"free_energy": -8.25, "intermolecular_energy": -10.34, "internal_energy": -2.61, "cluster_size": 27, "cluster_id": 2, "rank_in_cluster": 14}

>  <energy>  (15) 
-8.65

>  <cluster_rmsd>  (15) 
1.66

>  <cluster>  (15) 
2

$$$$

     RDKit          3D

 56 59  0  0  0  0  0  0  0  0999 V2000
  138.0850   71.4940  221.3160 O   0  0  0  0  0  0  0  0  0  0  0  0
  138.7300   71.9680  222.2830 C   0  0  0  0  0  0  0  0  0  0  0  0
  139.1420   73.3270  222.3670 N   0  0  0  0  0  0  0  0  0  0  0  0
  138.7940   74.2000  221.2730 C   0  0  0  0  0  0  0  0  0  0  0  0
  139.9050   75.1300  221.0440 C   0  0  0  0  0  0  0  0  0  0  0  0
  140.9600   75.0910  221.7410 O   0  0  0  0  0  0  0  0  0  0  0  0
  139.8610   76.1240  220.0280 N   0  0  0  0  0  0  0  0  0  0  0  0
  138.6360   76.8670  219.7930 C   0  0  0  0  0  0  0  0  0  0  0  0
  138.0680   76.3460  218.4930 C   0  0  0  0  0  0  0  0  0  0  0  0
  139.2240   75.9460  217.6040 C   0  0  0  0  0  0  0  0  0  0  0  0
  140.4350   76.8330  217.8420 C   0  0  0  0  0  0  0  0  0  0  0  0
  140.9970   76.4530  219.1880 C   0  0  1  0  0  0  0  0  0  0  0  0
  141.7930   77.5970  219.8000 C   0  0  0  0  0  0  0  0  0  0  0  0
  141.8130   77.5070  221.2450 N   0  0  0  0  0  0  0  0  0  0  0  0
  141.8160   78.6890  222.0310 C   0  0  0  0  0  0  0  0  0  0  0  0
  141.7100   78.5870  223.4120 C   0  0  0  0  0  0  0  0  0  0  0  0
  141.7100   79.7220  224.2120 C   0  0  0  0  0  0  0  0  0  0  0  0
  141.8190   80.9690  223.6100 C   0  0  0  0  0  0  0  0  0  0  0  0
  141.9250   81.0760  222.2250 C   0  0  0  0  0  0  0  0  0  0  0  0
  141.9220   79.9300  221.4640 C   0  0  0  0  0  0  0  0  0  0  0  0
  139.0800   71.0760  223.3910 C   0  0  0  0  0  0  0  0  0  0  0  0
  138.7800   69.7250  223.3460 C   0  0  0  0  0  0  0  0  0  0  0  0
  139.1120   68.8690  224.4000 C   0  0  0  0  0  0  0  0  0  0  0  0
  139.7530   69.3590  225.5220 C   0  0  0  0  0  0  0  0  0  0  0  0
  140.1010   68.5490  226.5900 C   0  0  0  0  0  0  0  0  0  0  0  0
  140.7430   69.1300  227.6750 C   0  0  0  0  0  0  0  0  0  0  0  0
  141.2080   68.1550  229.0550 Cl  0  0  0  0  0  0  0  0  0  0  0  0
  141.0430   70.4810  227.7190 C   0  0  0  0  0  0  0  0  0  0  0  0
  140.6870   71.2760  226.6420 C   0  0  0  0  0  0  0  0  0  0  0  0
  140.0400   70.7150  225.5370 C   0  0  0  0  0  0  0  0  0  0  0  0
  139.7040   71.5110  224.5010 N   0  0  0  0  0  0  0  0  0  0  0  0
  139.6810   73.6760  223.2000 H   0  0  0  0  0  0  0  0  0  0  0  0
  138.6166   73.6041  220.3655 H   0  0  0  0  0  0  0  0  0  0  0  0
  137.8792   74.7604  221.5161 H   0  0  0  0  0  0  0  0  0  0  0  0
  137.9243   76.6982  220.6146 H   0  0  0  0  0  0  0  0  0  0  0  0
  138.8278   77.9489  219.7409 H   0  0  0  0  0  0  0  0  0  0  0  0
  137.4282   75.4728  218.6887 H   0  0  0  0  0  0  0  0  0  0  0  0
  137.4607   77.1217  218.0036 H   0  0  0  0  0  0  0  0  0  0  0  0
  139.4966   74.9021  217.8183 H   0  0  0  0  0  0  0  0  0  0  0  0
  138.9113   76.0586  216.5554 H   0  0  0  0  0  0  0  0  0  0  0  0
  141.1870   76.6654  217.0569 H   0  0  0  0  0  0  0  0  0  0  0  0
  140.1554   77.8966  217.8176 H   0  0  0  0  0  0  0  0  0  0  0  0
  141.6892   75.6035  219.0916 H   0  0  0  0  0  0  0  0  0  0  0  0
  142.8259   77.5570  219.4237 H   0  0  0  0  0  0  0  0  0  0  0  0
  141.3134   78.5456  219.5168 H   0  0  0  0  0  0  0  0  0  0  0  0
  141.8250   76.5770  221.7410 H   0  0  0  0  0  0  0  0  0  0  0  0
  141.6250   77.5943  223.8781 H   0  0  0  0  0  0  0  0  0  0  0  0
  141.6250   79.6349  225.3053 H   0  0  0  0  0  0  0  0  0  0  0  0
  141.8216   81.8773  224.2304 H   0  0  0  0  0  0  0  0  0  0  0  0
  142.0099   82.0629  221.7467 H   0  0  0  0  0  0  0  0  0  0  0  0
  142.0071   80.0134  220.3705 H   0  0  0  0  0  0  0  0  0  0  0  0
  138.2693   69.3165  222.4615 H   0  0  0  0  0  0  0  0  0  0  0  0
  138.8617   67.7998  224.3360 H   0  0  0  0  0  0  0  0  0  0  0  0
  139.8744   67.4726  226.5788 H   0  0  0  0  0  0  0  0  0  0  0  0
  141.5537   70.9142  228.5916 H   0  0  0  0  0  0  0  0  0  0  0  0
  140.9141   72.3522  226.6562 H   0  0  0  0  0  0  0  0  0  0  0  0
  1  2  2  0
  2  3  1  0
  3  4  1  0
  4  5  1  0
  5  6  2  0
  5  7  1  0
  7  8  1  0
  8  9  1  0
  9 10  1  0
 10 11  1  0
 11 12  1  0
 12 13  1  0
 13 14  1  0
 14 15  1  0
 15 16  2  0
 16 17  1  0
 17 18  2  0
 18 19  1  0
 19 20  2  0
  2 21  1  0
 21 22  2  0
 22 23  1  0
 23 24  2  0
 24 25  1  0
 25 26  2  0
 26 27  1  0
 26 28  1  0
 28 29  2  0
 29 30  1  0
 30 31  2  0
 12  7  1  0
 20 15  1  0
 31 21  1  0
 30 24  1  0
  3 32  1  0
  4 33  1  0
  4 34  1  0
  8 35  1  0
  8 36  1  0
  9 37  1  0
  9 38  1  0
 10 39  1  0
 10 40  1  0
 11 41  1  0
 11 42  1  0
 12 43  1  6
 13 44  1  0
 13 45  1  0
 14 46  1  0
 16 47  1  0
 17 48  1  0
 18 49  1  0
 19 50  1  0
 20 51  1  0
 22 52  1  0
 23 53  1  0
 25 54  1  0
 28 55  1  0
 29 56  1  0
M  END
>  <smiles>  (16) 
O=C(NCC(=O)N1CCCC[C@H]1CNc1ccccc1)c1ccc2cc(Cl)ccc2n1

>  <score_type>  (16) 
oracle

>  <origin>  (16) 
autodockgpu

>  <m_score__min__energy>  (16) 
-8.9800000000000004

>  <m_primary>  (16) 
energy

>  <rmsd>  (16) 
2.077788011270544

>  <m_score__min__rmsd>  (16) 
2.077788011270544

>  <meeko>  (16) 
{"free_energy": -8.22, "intermolecular_energy": -10.31, "internal_energy": -2.68, "cluster_size": 27, "cluster_id": 2, "rank_in_cluster": 15}

>  <energy>  (16) 
-8.63

>  <cluster_rmsd>  (16) 
0.83

>  <cluster>  (16) 
2

$$$$

     RDKit          3D

 56 59  0  0  0  0  0  0  0  0999 V2000
  139.4300   72.0720  220.6810 O   0  0  0  0  0  0  0  0  0  0  0  0
  138.9190   72.3340  221.7970 C   0  0  0  0  0  0  0  0  0  0  0  0
  138.0640   73.4460  222.0330 N   0  0  0  0  0  0  0  0  0  0  0  0
  137.7740   74.3150  220.9190 C   0  0  0  0  0  0  0  0  0  0  0  0
  138.2330   75.6680  221.2480 C   0  0  0  0  0  0  0  0  0  0  0  0
  137.4910   76.4940  221.8540 O   0  0  0  0  0  0  0  0  0  0  0  0
  139.5340   76.1290  220.9060 N   0  0  0  0  0  0  0  0  0  0  0  0
  139.7030   77.0950  219.8340 C   0  0  0  0  0  0  0  0  0  0  0  0
  140.3020   76.3350  218.6730 C   0  0  0  0  0  0  0  0  0  0  0  0
  141.1860   75.2430  219.2320 C   0  0  0  0  0  0  0  0  0  0  0  0
  141.8290   75.6720  220.5410 C   0  0  0  0  0  0  0  0  0  0  0  0
  140.7380   75.6830  221.5810 C   0  0  1  0  0  0  0  0  0  0  0  0
  141.0780   76.6220  222.7300 C   0  0  0  0  0  0  0  0  0  0  0  0
  140.2360   77.8000  222.7110 N   0  0  0  0  0  0  0  0  0  0  0  0
  140.8030   79.0830  222.9220 C   0  0  0  0  0  0  0  0  0  0  0  0
  140.0980   80.2120  222.5220 C   0  0  0  0  0  0  0  0  0  0  0  0
  140.6230   81.4830  222.7130 C   0  0  0  0  0  0  0  0  0  0  0  0
  141.8690   81.6140  223.3140 C   0  0  0  0  0  0  0  0  0  0  0  0
  142.5790   80.4850  223.7160 C   0  0  0  0  0  0  0  0  0  0  0  0
  142.0280   79.2410  223.5110 C   0  0  0  0  0  0  0  0  0  0  0  0
  139.2160   71.4480  222.9240 C   0  0  0  0  0  0  0  0  0  0  0  0
  138.8890   70.1030  222.8850 C   0  0  0  0  0  0  0  0  0  0  0  0
  139.1700   69.2520  223.9580 C   0  0  0  0  0  0  0  0  0  0  0  0
  139.7890   69.7410  225.0930 C   0  0  0  0  0  0  0  0  0  0  0  0
  140.0870   68.9360  226.1800 C   0  0  0  0  0  0  0  0  0  0  0  0
  140.7090   69.5150  227.2770 C   0  0  0  0  0  0  0  0  0  0  0  0
  141.1110   68.5460  228.6800 Cl  0  0  0  0  0  0  0  0  0  0  0  0
  141.0370   70.8600  227.3160 C   0  0  0  0  0  0  0  0  0  0  0  0
  140.7310   71.6500  226.2190 C   0  0  0  0  0  0  0  0  0  0  0  0
  140.1040   71.0900  225.1020 C   0  0  0  0  0  0  0  0  0  0  0  0
  139.8170   71.8820  224.0480 N   0  0  0  0  0  0  0  0  0  0  0  0
  137.6600   73.6230  222.9880 H   0  0  0  0  0  0  0  0  0  0  0  0
  138.2979   73.9541  220.0216 H   0  0  0  0  0  0  0  0  0  0  0  0
  136.6919   74.3234  220.7213 H   0  0  0  0  0  0  0  0  0  0  0  0
  138.7304   77.5225  219.5489 H   0  0  0  0  0  0  0  0  0  0  0  0
  140.3498   77.9290  220.1439 H   0  0  0  0  0  0  0  0  0  0  0  0
  139.5002   75.8908  218.0648 H   0  0  0  0  0  0  0  0  0  0  0  0
  140.8900   77.0128  218.0367 H   0  0  0  0  0  0  0  0  0  0  0  0
  140.5773   74.3440  219.4090 H   0  0  0  0  0  0  0  0  0  0  0  0
  141.9839   75.0342  218.5041 H   0  0  0  0  0  0  0  0  0  0  0  0
  142.6170   74.9597  220.8268 H   0  0  0  0  0  0  0  0  0  0  0  0
  142.2923   76.6651  220.4455 H   0  0  0  0  0  0  0  0  0  0  0  0
  140.6101   74.6818  222.0183 H   0  0  0  0  0  0  0  0  0  0  0  0
  140.9311   76.0914  223.6823 H   0  0  0  0  0  0  0  0  0  0  0  0
  142.1251   76.9408  222.6208 H   0  0  0  0  0  0  0  0  0  0  0  0
  139.1970   77.7340  222.5420 H   0  0  0  0  0  0  0  0  0  0  0  0
  139.1119   80.0971  222.0483 H   0  0  0  0  0  0  0  0  0  0  0  0
  140.0610   82.3730  222.3934 H   0  0  0  0  0  0  0  0  0  0  0  0
  142.2970   82.6147  223.4732 H   0  0  0  0  0  0  0  0  0  0  0  0
  143.5661   80.5865  224.1906 H   0  0  0  0  0  0  0  0  0  0  0  0
  142.5876   78.3490  223.8293 H   0  0  0  0  0  0  0  0  0  0  0  0
  138.3971   69.6950  221.9897 H   0  0  0  0  0  0  0  0  0  0  0  0
  138.8971   68.1880  223.8987 H   0  0  0  0  0  0  0  0  0  0  0  0
  139.8369   67.8648  226.1738 H   0  0  0  0  0  0  0  0  0  0  0  0
  141.5301   71.2923  228.1992 H   0  0  0  0  0  0  0  0  0  0  0  0
  140.9823   72.7209  226.2273 H   0  0  0  0  0  0  0  0  0  0  0  0
  1  2  2  0
  2  3  1  0
  3  4  1  0
  4  5  1  0
  5  6  2  0
  5  7  1  0
  7  8  1  0
  8  9  1  0
  9 10  1  0
 10 11  1  0
 11 12  1  0
 12 13  1  0
 13 14  1  0
 14 15  1  0
 15 16  2  0
 16 17  1  0
 17 18  2  0
 18 19  1  0
 19 20  2  0
  2 21  1  0
 21 22  2  0
 22 23  1  0
 23 24  2  0
 24 25  1  0
 25 26  2  0
 26 27  1  0
 26 28  1  0
 28 29  2  0
 29 30  1  0
 30 31  2  0
 12  7  1  0
 20 15  1  0
 31 21  1  0
 30 24  1  0
  3 32  1  0
  4 33  1  0
  4 34  1  0
  8 35  1  0
  8 36  1  0
  9 37  1  0
  9 38  1  0
 10 39  1  0
 10 40  1  0
 11 41  1  0
 11 42  1  0
 12 43  1  1
 13 44  1  0
 13 45  1  0
 14 46  1  0
 16 47  1  0
 17 48  1  0
 18 49  1  0
 19 50  1  0
 20 51  1  0
 22 52  1  0
 23 53  1  0
 25 54  1  0
 28 55  1  0
 29 56  1  0
M  END
>  <smiles>  (17) 
O=C(NCC(=O)N1CCCC[C@H]1CNc1ccccc1)c1ccc2cc(Cl)ccc2n1

>  <score_type>  (17) 
oracle

>  <origin>  (17) 
autodockgpu

>  <m_score__min__energy>  (17) 
-8.9800000000000004

>  <m_primary>  (17) 
energy

>  <rmsd>  (17) 
2.1785371840617125

>  <m_score__min__rmsd>  (17) 
2.1785371840617125

>  <meeko>  (17) 
{"free_energy": -7.84, "intermolecular_energy": -9.92, "internal_energy": -2.55, "cluster_size": 27, "cluster_id": 2, "rank_in_cluster": 22}

>  <energy>  (17) 
-8.54

>  <cluster_rmsd>  (17) 
0.72

>  <cluster>  (17) 
2

$$$$

     RDKit          3D

 56 59  0  0  0  0  0  0  0  0999 V2000
  141.5350   72.6720  221.1350 O   0  0  0  0  0  0  0  0  0  0  0  0
  140.7360   73.5100  221.6190 C   0  0  0  0  0  0  0  0  0  0  0  0
  139.5590   73.1570  222.3360 N   0  0  0  0  0  0  0  0  0  0  0  0
  139.2800   71.7520  222.5110 C   0  0  0  0  0  0  0  0  0  0  0  0
  137.8910   71.6030  222.9590 C   0  0  0  0  0  0  0  0  0  0  0  0
  137.1120   72.5950  223.0540 O   0  0  0  0  0  0  0  0  0  0  0  0
  137.3410   70.3390  223.3090 N   0  0  0  0  0  0  0  0  0  0  0  0
  136.6600   69.5410  222.3060 C   0  0  0  0  0  0  0  0  0  0  0  0
  135.1860   69.6190  222.6330 C   0  0  0  0  0  0  0  0  0  0  0  0
  135.0450   69.7370  224.1340 C   0  0  0  0  0  0  0  0  0  0  0  0
  136.1560   68.9880  224.8520 C   0  0  0  0  0  0  0  0  0  0  0  0
  137.4220   69.7810  224.6460 C   0  0  1  0  0  0  0  0  0  0  0  0
  138.6550   68.8990  224.7770 C   0  0  0  0  0  0  0  0  0  0  0  0
  139.1920   68.9450  226.1210 N   0  0  0  0  0  0  0  0  0  0  0  0
  139.9590   70.0610  226.5430 C   0  0  0  0  0  0  0  0  0  0  0  0
  139.9550   70.4200  227.8850 C   0  0  0  0  0  0  0  0  0  0  0  0
  140.6940   71.5070  228.3330 C   0  0  0  0  0  0  0  0  0  0  0  0
  141.4440   72.2350  227.4170 C   0  0  0  0  0  0  0  0  0  0  0  0
  141.4510   71.8780  226.0710 C   0  0  0  0  0  0  0  0  0  0  0  0
  140.7060   70.7950  225.6630 C   0  0  0  0  0  0  0  0  0  0  0  0
  141.0250   74.9340  221.4380 C   0  0  0  0  0  0  0  0  0  0  0  0
  141.8540   75.3740  220.4200 C   0  0  0  0  0  0  0  0  0  0  0  0
  142.1340   76.7320  220.2420 C   0  0  0  0  0  0  0  0  0  0  0  0
  141.5820   77.6750  221.0880 C   0  0  0  0  0  0  0  0  0  0  0  0
  141.8320   79.0300  220.9500 C   0  0  0  0  0  0  0  0  0  0  0  0
  141.2340   79.9040  221.8480 C   0  0  0  0  0  0  0  0  0  0  0  0
  141.5110   81.6300  221.7230 Cl  0  0  0  0  0  0  0  0  0  0  0  0
  140.4050   79.4640  222.8660 C   0  0  0  0  0  0  0  0  0  0  0  0
  140.1670   78.1040  222.9890 C   0  0  0  0  0  0  0  0  0  0  0  0
  140.7570   77.2040  222.0970 C   0  0  0  0  0  0  0  0  0  0  0  0
  140.5100   75.8860  222.2390 N   0  0  0  0  0  0  0  0  0  0  0  0
  138.9200   73.8970  222.7230 H   0  0  0  0  0  0  0  0  0  0  0  0
  139.4199   71.2246  221.5559 H   0  0  0  0  0  0  0  0  0  0  0  0
  139.9640   71.3232  223.2582 H   0  0  0  0  0  0  0  0  0  0  0  0
  136.8497   69.9480  221.3018 H   0  0  0  0  0  0  0  0  0  0  0  0
  137.0170   68.5006  222.3119 H   0  0  0  0  0  0  0  0  0  0  0  0
  134.7419   70.4997  222.1461 H   0  0  0  0  0  0  0  0  0  0  0  0
  134.6664   68.7199  222.2703 H   0  0  0  0  0  0  0  0  0  0  0  0
  135.0884   70.7994  224.4159 H   0  0  0  0  0  0  0  0  0  0  0  0
  134.0813   69.2961  224.4287 H   0  0  0  0  0  0  0  0  0  0  0  0
  135.9282   68.9110  225.9254 H   0  0  0  0  0  0  0  0  0  0  0  0
  136.2620   67.9668  224.4571 H   0  0  0  0  0  0  0  0  0  0  0  0
  137.5148   70.5681  225.4088 H   0  0  0  0  0  0  0  0  0  0  0  0
  138.3811   67.8614  224.5355 H   0  0  0  0  0  0  0  0  0  0  0  0
  139.4233   69.2694  224.0823 H   0  0  0  0  0  0  0  0  0  0  0  0
  139.0280   68.1620  226.8090 H   0  0  0  0  0  0  0  0  0  0  0  0
  139.3590   69.8359  228.6017 H   0  0  0  0  0  0  0  0  0  0  0  0
  140.6859   71.7876  229.3966 H   0  0  0  0  0  0  0  0  0  0  0  0
  142.0353   73.0979  227.7571 H   0  0  0  0  0  0  0  0  0  0  0  0
  142.0434   72.4533  225.3443 H   0  0  0  0  0  0  0  0  0  0  0  0
  140.7114   70.5119  224.6001 H   0  0  0  0  0  0  0  0  0  0  0  0
  142.3024   74.6384  219.7359 H   0  0  0  0  0  0  0  0  0  0  0  0
  142.7970   77.0515  219.4245 H   0  0  0  0  0  0  0  0  0  0  0  0
  142.4873   79.4042  220.1497 H   0  0  0  0  0  0  0  0  0  0  0  0
  139.9445   80.1794  223.5632 H   0  0  0  0  0  0  0  0  0  0  0  0
  139.5121   77.7320  223.7907 H   0  0  0  0  0  0  0  0  0  0  0  0
  1  2  2  0
  2  3  1  0
  3  4  1  0
  4  5  1  0
  5  6  2  0
  5  7  1  0
  7  8  1  0
  8  9  1  0
  9 10  1  0
 10 11  1  0
 11 12  1  0
 12 13  1  0
 13 14  1  0
 14 15  1  0
 15 16  2  0
 16 17  1  0
 17 18  2  0
 18 19  1  0
 19 20  2  0
  2 21  1  0
 21 22  2  0
 22 23  1  0
 23 24  2  0
 24 25  1  0
 25 26  2  0
 26 27  1  0
 26 28  1  0
 28 29  2  0
 29 30  1  0
 30 31  2  0
 12  7  1  0
 20 15  1  0
 31 21  1  0
 30 24  1  0
  3 32  1  0
  4 33  1  0
  4 34  1  0
  8 35  1  0
  8 36  1  0
  9 37  1  0
  9 38  1  0
 10 39  1  0
 10 40  1  0
 11 41  1  0
 11 42  1  0
 12 43  1  1
 13 44  1  0
 13 45  1  0
 14 46  1  0
 16 47  1  0
 17 48  1  0
 18 49  1  0
 19 50  1  0
 20 51  1  0
 22 52  1  0
 23 53  1  0
 25 54  1  0
 28 55  1  0
 29 56  1  0
M  END
>  <smiles>  (18) 
O=C(NCC(=O)N1CCCC[C@H]1CNc1ccccc1)c1ccc2cc(Cl)ccc2n1

>  <score_type>  (18) 
oracle

>  <origin>  (18) 
autodockgpu

>  <m_score__min__energy>  (18) 
-8.9800000000000004

>  <m_primary>  (18) 
energy

>  <rmsd>  (18) 
9.271986478074032

>  <m_score__min__rmsd>  (18) 
9.271986478074032

>  <meeko>  (18) 
{"free_energy": -8.09, "intermolecular_energy": -10.18, "internal_energy": -2.36, "cluster_size": 6, "cluster_id": 4, "rank_in_cluster": 2}

>  <energy>  (18) 
-8.52

>  <cluster_rmsd>  (18) 
1.39

>  <cluster>  (18) 
2

$$$$

     RDKit          3D

 56 59  0  0  0  0  0  0  0  0999 V2000
  138.0760   71.9720  221.3060 O   0  0  0  0  0  0  0  0  0  0  0  0
  139.0930   72.1500  222.0190 C   0  0  0  0  0  0  0  0  0  0  0  0
  140.0360   73.1930  221.8050 N   0  0  0  0  0  0  0  0  0  0  0  0
  139.7990   74.0930  220.7020 C   0  0  0  0  0  0  0  0  0  0  0  0
  140.9240   75.0290  220.6110 C   0  0  0  0  0  0  0  0  0  0  0  0
  141.8220   75.0800  221.5010 O   0  0  0  0  0  0  0  0  0  0  0  0
  141.0710   75.9310  219.5210 N   0  0  0  0  0  0  0  0  0  0  0  0
  140.0760   75.9580  218.4640 C   0  0  0  0  0  0  0  0  0  0  0  0
  140.7220   75.3140  217.2590 C   0  0  0  0  0  0  0  0  0  0  0  0
  142.2020   75.6240  217.2980 C   0  0  0  0  0  0  0  0  0  0  0  0
  142.4620   76.9860  217.9200 C   0  0  0  0  0  0  0  0  0  0  0  0
  142.1850   76.8520  219.3960 C   0  0  1  0  0  0  0  0  0  0  0  0
  141.8310   78.1950  220.0180 C   0  0  0  0  0  0  0  0  0  0  0  0
  141.8350   78.1210  221.4640 N   0  0  0  0  0  0  0  0  0  0  0  0
  141.8750   79.3100  222.2380 C   0  0  0  0  0  0  0  0  0  0  0  0
  141.3120   80.4720  221.7270 C   0  0  0  0  0  0  0  0  0  0  0  0
  141.3330   81.6540  222.4560 C   0  0  0  0  0  0  0  0  0  0  0  0
  141.9290   81.6590  223.7110 C   0  0  0  0  0  0  0  0  0  0  0  0
  142.4950   80.4960  224.2270 C   0  0  0  0  0  0  0  0  0  0  0  0
  142.4550   79.3430  223.4770 C   0  0  0  0  0  0  0  0  0  0  0  0
  139.3280   71.2340  223.1380 C   0  0  0  0  0  0  0  0  0  0  0  0
  138.9080   69.9160  223.0850 C   0  0  0  0  0  0  0  0  0  0  0  0
  139.1290   69.0370  224.1500 C   0  0  0  0  0  0  0  0  0  0  0  0
  139.7800   69.4710  225.2900 C   0  0  0  0  0  0  0  0  0  0  0  0
  140.0210   68.6360  226.3680 C   0  0  0  0  0  0  0  0  0  0  0  0
  140.6810   69.1600  227.4700 C   0  0  0  0  0  0  0  0  0  0  0  0
  141.0150   68.1510  228.8640 Cl  0  0  0  0  0  0  0  0  0  0  0  0
  141.1010   70.4780  227.5230 C   0  0  0  0  0  0  0  0  0  0  0  0
  140.8510   71.2980  226.4340 C   0  0  0  0  0  0  0  0  0  0  0  0
  140.1880   70.7950  225.3120 C   0  0  0  0  0  0  0  0  0  0  0  0
  139.9570   71.6140  224.2660 N   0  0  0  0  0  0  0  0  0  0  0  0
  140.8740   73.3010  222.4320 H   0  0  0  0  0  0  0  0  0  0  0  0
  139.7177   73.5195  219.7668 H   0  0  0  0  0  0  0  0  0  0  0  0
  138.8622   74.6465  220.8636 H   0  0  0  0  0  0  0  0  0  0  0  0
  139.1832   75.3911  218.7664 H   0  0  0  0  0  0  0  0  0  0  0  0
  139.7535   76.9863  218.2438 H   0  0  0  0  0  0  0  0  0  0  0  0
  140.5681   74.2253  217.2906 H   0  0  0  0  0  0  0  0  0  0  0  0
  140.2750   75.7041  216.3327 H   0  0  0  0  0  0  0  0  0  0  0  0
  142.7143   74.8539  217.8934 H   0  0  0  0  0  0  0  0  0  0  0  0
  142.5831   75.6338  216.2662 H   0  0  0  0  0  0  0  0  0  0  0  0
  143.5085   77.2831  217.7567 H   0  0  0  0  0  0  0  0  0  0  0  0
  141.8200   77.7556  217.4666 H   0  0  0  0  0  0  0  0  0  0  0  0
  143.0769   76.4845  219.9246 H   0  0  0  0  0  0  0  0  0  0  0  0
  142.5681   78.9451  219.6953 H   0  0  0  0  0  0  0  0  0  0  0  0
  140.8203   78.4760  219.6870 H   0  0  0  0  0  0  0  0  0  0  0  0
  141.8080   77.1960  221.9700 H   0  0  0  0  0  0  0  0  0  0  0  0
  140.8433   80.4561  220.7320 H   0  0  0  0  0  0  0  0  0  0  0  0
  140.8850   82.5713  222.0464 H   0  0  0  0  0  0  0  0  0  0  0  0
  141.9539   82.5873  224.3006 H   0  0  0  0  0  0  0  0  0  0  0  0
  142.9675   80.4990  225.2204 H   0  0  0  0  0  0  0  0  0  0  0  0
  142.9010   78.4236  223.8842 H   0  0  0  0  0  0  0  0  0  0  0  0
  138.3892   69.5523  222.1858 H   0  0  0  0  0  0  0  0  0  0  0  0
  138.7832   67.9951  224.0804 H   0  0  0  0  0  0  0  0  0  0  0  0
  139.6976   67.5848  226.3510 H   0  0  0  0  0  0  0  0  0  0  0  0
  141.6221   70.8662  228.4106 H   0  0  0  0  0  0  0  0  0  0  0  0
  141.1758   72.3488  226.4533 H   0  0  0  0  0  0  0  0  0  0  0  0
  1  2  2  0
  2  3  1  0
  3  4  1  0
  4  5  1  0
  5  6  2  0
  5  7  1  0
  7  8  1  0
  8  9  1  0
  9 10  1  0
 10 11  1  0
 11 12  1  0
 12 13  1  0
 13 14  1  0
 14 15  1  0
 15 16  2  0
 16 17  1  0
 17 18  2  0
 18 19  1  0
 19 20  2  0
  2 21  1  0
 21 22  2  0
 22 23  1  0
 23 24  2  0
 24 25  1  0
 25 26  2  0
 26 27  1  0
 26 28  1  0
 28 29  2  0
 29 30  1  0
 30 31  2  0
 12  7  1  0
 20 15  1  0
 31 21  1  0
 30 24  1  0
  3 32  1  0
  4 33  1  0
  4 34  1  0
  8 35  1  0
  8 36  1  0
  9 37  1  0
  9 38  1  0
 10 39  1  0
 10 40  1  0
 11 41  1  0
 11 42  1  0
 12 43  1  1
 13 44  1  0
 13 45  1  0
 14 46  1  0
 16 47  1  0
 17 48  1  0
 18 49  1  0
 19 50  1  0
 20 51  1  0
 22 52  1  0
 23 53  1  0
 25 54  1  0
 28 55  1  0
 29 56  1  0
M  END
>  <smiles>  (19) 
O=C(NCC(=O)N1CCCC[C@H]1CNc1ccccc1)c1ccc2cc(Cl)ccc2n1

>  <score_type>  (19) 
oracle

>  <origin>  (19) 
autodockgpu

>  <m_score__min__energy>  (19) 
-8.9800000000000004

>  <m_primary>  (19) 
energy

>  <rmsd>  (19) 
1.8551378693331746

>  <m_score__min__rmsd>  (19) 
1.8551378693331746

>  <meeko>  (19) 
{"free_energy": -8.08, "intermolecular_energy": -10.16, "internal_energy": -2.67, "cluster_size": 27, "cluster_id": 2, "rank_in_cluster": 20}

>  <energy>  (19) 
-8.51

>  <cluster_rmsd>  (19) 
1.05

>  <cluster>  (19) 
2

$$$$

     RDKit          3D

 56 59  0  0  0  0  0  0  0  0999 V2000
  141.0700   73.6250  221.9460 O   0  0  0  0  0  0  0  0  0  0  0  0
  140.0090   73.0070  222.2080 C   0  0  0  0  0  0  0  0  0  0  0  0
  138.7680   73.2590  221.5610 N   0  0  0  0  0  0  0  0  0  0  0  0
  138.7380   74.2870  220.5480 C   0  0  0  0  0  0  0  0  0  0  0  0
  139.0210   75.5780  221.1830 C   0  0  0  0  0  0  0  0  0  0  0  0
  138.1240   76.2330  221.7890 O   0  0  0  0  0  0  0  0  0  0  0  0
  140.3150   76.1680  221.1540 N   0  0  0  0  0  0  0  0  0  0  0  0
  140.9830   76.5090  222.3970 C   0  0  0  0  0  0  0  0  0  0  0  0
  140.9380   78.0160  222.5010 C   0  0  0  0  0  0  0  0  0  0  0  0
  141.0000   78.5850  221.1010 C   0  0  0  0  0  0  0  0  0  0  0  0
  141.8350   77.7040  220.1860 C   0  0  0  0  0  0  0  0  0  0  0  0
  141.0290   76.4570  219.9250 C   0  0  1  0  0  0  0  0  0  0  0  0
  141.9260   75.2870  219.5480 C   0  0  0  0  0  0  0  0  0  0  0  0
  142.7660   74.8910  220.6600 N   0  0  0  0  0  0  0  0  0  0  0  0
  143.8820   74.0410  220.4410 C   0  0  0  0  0  0  0  0  0  0  0  0
  145.1640   74.5380  220.6400 C   0  0  0  0  0  0  0  0  0  0  0  0
  146.2780   73.7350  220.4350 C   0  0  0  0  0  0  0  0  0  0  0  0
  146.0940   72.4190  220.0270 C   0  0  0  0  0  0  0  0  0  0  0  0
  144.8100   71.9170  219.8270 C   0  0  0  0  0  0  0  0  0  0  0  0
  143.7290   72.7420  220.0390 C   0  0  0  0  0  0  0  0  0  0  0  0
  140.0460   71.9650  223.2360 C   0  0  0  0  0  0  0  0  0  0  0  0
  139.5420   70.6990  222.9920 C   0  0  0  0  0  0  0  0  0  0  0  0
  139.5740   69.7000  223.9690 C   0  0  0  0  0  0  0  0  0  0  0  0
  140.1170   69.9580  225.2140 C   0  0  0  0  0  0  0  0  0  0  0  0
  140.1700   68.9990  226.2120 C   0  0  0  0  0  0  0  0  0  0  0  0
  140.7330   69.3500  227.4310 C   0  0  0  0  0  0  0  0  0  0  0  0
  140.8280   68.1790  228.7320 Cl  0  0  0  0  0  0  0  0  0  0  0  0
  141.2370   70.6160  227.6750 C   0  0  0  0  0  0  0  0  0  0  0  0
  141.1750   71.5620  226.6640 C   0  0  0  0  0  0  0  0  0  0  0  0
  140.6130   71.2340  225.4270 C   0  0  0  0  0  0  0  0  0  0  0  0
  140.5650   72.1730  224.4610 N   0  0  0  0  0  0  0  0  0  0  0  0
  137.9060   72.7130  221.8150 H   0  0  0  0  0  0  0  0  0  0  0  0
  139.4995   74.0756  219.7828 H   0  0  0  0  0  0  0  0  0  0  0  0
  137.7485   74.3131  220.0683 H   0  0  0  0  0  0  0  0  0  0  0  0
  140.4586   76.0523  223.2493 H   0  0  0  0  0  0  0  0  0  0  0  0
  142.0182   76.1373  222.4105 H   0  0  0  0  0  0  0  0  0  0  0  0
  140.0032   78.3284  222.9895 H   0  0  0  0  0  0  0  0  0  0  0  0
  141.7851   78.3824  223.0995 H   0  0  0  0  0  0  0  0  0  0  0  0
  139.9793   78.6561  220.6971 H   0  0  0  0  0  0  0  0  0  0  0  0
  141.4681   79.5792  221.1495 H   0  0  0  0  0  0  0  0  0  0  0  0
  142.0396   78.2272  219.2403 H   0  0  0  0  0  0  0  0  0  0  0  0
  142.8017   77.4585  220.6499 H   0  0  0  0  0  0  0  0  0  0  0  0
  140.3395   76.6108  219.0818 H   0  0  0  0  0  0  0  0  0  0  0  0
  141.2976   74.4342  219.2515 H   0  0  0  0  0  0  0  0  0  0  0  0
  142.5741   75.5991  218.7159 H   0  0  0  0  0  0  0  0  0  0  0  0
  142.5730   75.2200  221.6430 H   0  0  0  0  0  0  0  0  0  0  0  0
  145.2982   75.5806  220.9640 H   0  0  0  0  0  0  0  0  0  0  0  0
  147.2908   74.1342  220.5931 H   0  0  0  0  0  0  0  0  0  0  0  0
  146.9669   71.7705  219.8612 H   0  0  0  0  0  0  0  0  0  0  0  0
  144.6622   70.8759  219.5042 H   0  0  0  0  0  0  0  0  0  0  0  0
  142.7148   72.3465  219.8811 H   0  0  0  0  0  0  0  0  0  0  0  0
  139.1066   70.4742  222.0072 H   0  0  0  0  0  0  0  0  0  0  0  0
  139.1651   68.7034  223.7462 H   0  0  0  0  0  0  0  0  0  0  0  0
  139.7762   67.9859  226.0429 H   0  0  0  0  0  0  0  0  0  0  0  0
  141.6777   70.8661  228.6514 H   0  0  0  0  0  0  0  0  0  0  0  0
  141.5694   72.5744  226.8357 H   0  0  0  0  0  0  0  0  0  0  0  0
  1  2  2  0
  2  3  1  0
  3  4  1  0
  4  5  1  0
  5  6  2  0
  5  7  1  0
  7  8  1  0
  8  9  1  0
  9 10  1  0
 10 11  1  0
 11 12  1  0
 12 13  1  0
 13 14  1  0
 14 15  1  0
 15 16  2  0
 16 17  1  0
 17 18  2  0
 18 19  1  0
 19 20  2  0
  2 21  1  0
 21 22  2  0
 22 23  1  0
 23 24  2  0
 24 25  1  0
 25 26  2  0
 26 27  1  0
 26 28  1  0
 28 29  2  0
 29 30  1  0
 30 31  2  0
 12  7  1  0
 20 15  1  0
 31 21  1  0
 30 24  1  0
  3 32  1  0
  4 33  1  0
  4 34  1  0
  8 35  1  0
  8 36  1  0
  9 37  1  0
  9 38  1  0
 10 39  1  0
 10 40  1  0
 11 41  1  0
 11 42  1  0
 12 43  1  6
 13 44  1  0
 13 45  1  0
 14 46  1  0
 16 47  1  0
 17 48  1  0
 18 49  1  0
 19 50  1  0
 20 51  1  0
 22 52  1  0
 23 53  1  0
 25 54  1  0
 28 55  1  0
 29 56  1  0
M  END
>  <smiles>  (20) 
O=C(NCC(=O)N1CCCC[C@H]1CNc1ccccc1)c1ccc2cc(Cl)ccc2n1

>  <score_type>  (20) 
oracle

>  <origin>  (20) 
autodockgpu

>  <m_score__min__energy>  (20) 
-8.9800000000000004

>  <m_primary>  (20) 
energy

>  <rmsd>  (20) 
4.879153239319703

>  <m_score__min__rmsd>  (20) 
4.879153239319703

>  <meeko>  (20) 
{"free_energy": -8.77, "intermolecular_energy": -10.86, "internal_energy": -2.25, "cluster_size": 11, "cluster_id": 1, "rank_in_cluster": 3}

>  <energy>  (20) 
-8.51

>  <cluster_rmsd>  (20) 
1.19

>  <cluster>  (20) 
2

$$$$

     RDKit          3D

 56 59  0  0  0  0  0  0  0  0999 V2000
  140.2680   72.4400  220.7320 O   0  0  0  0  0  0  0  0  0  0  0  0
  139.9400   72.8150  221.8840 C   0  0  0  0  0  0  0  0  0  0  0  0
  139.5260   74.1400  222.1960 N   0  0  0  0  0  0  0  0  0  0  0  0
  139.4860   75.0990  221.1180 C   0  0  0  0  0  0  0  0  0  0  0  0
  140.6520   75.9810  221.2330 C   0  0  0  0  0  0  0  0  0  0  0  0
  141.2370   76.1710  222.3380 O   0  0  0  0  0  0  0  0  0  0  0  0
  141.1910   76.6720  220.1120 N   0  0  0  0  0  0  0  0  0  0  0  0
  142.1370   77.7550  220.3140 C   0  0  0  0  0  0  0  0  0  0  0  0
  141.3900   79.0310  220.0050 C   0  0  0  0  0  0  0  0  0  0  0  0
  140.3740   78.7310  218.9250 C   0  0  0  0  0  0  0  0  0  0  0  0
  140.8790   77.6540  217.9790 C   0  0  0  0  0  0  0  0  0  0  0  0
  140.8440   76.3530  218.7400 C   0  0  1  0  0  0  0  0  0  0  0  0
  141.8330   75.3480  218.1660 C   0  0  0  0  0  0  0  0  0  0  0  0
  141.8840   74.1450  218.9700 N   0  0  0  0  0  0  0  0  0  0  0  0
  143.0680   73.8130  219.6790 C   0  0  0  0  0  0  0  0  0  0  0  0
  144.0220   74.7960  219.9070 C   0  0  0  0  0  0  0  0  0  0  0  0
  145.1920   74.5070  220.5970 C   0  0  0  0  0  0  0  0  0  0  0  0
  145.3970   73.2140  221.0600 C   0  0  0  0  0  0  0  0  0  0  0  0
  144.4430   72.2240  220.8340 C   0  0  0  0  0  0  0  0  0  0  0  0
  143.2950   72.5470  220.1460 C   0  0  0  0  0  0  0  0  0  0  0  0
  139.9820   71.8370  222.9730 C   0  0  0  0  0  0  0  0  0  0  0  0
  139.5360   70.5390  222.7890 C   0  0  0  0  0  0  0  0  0  0  0  0
  139.5730   69.6010  223.8250 C   0  0  0  0  0  0  0  0  0  0  0  0
  140.0630   69.9540  225.0690 C   0  0  0  0  0  0  0  0  0  0  0  0
  140.1190   69.0580  226.1240 C   0  0  0  0  0  0  0  0  0  0  0  0
  140.6260   69.5020  227.3370 C   0  0  0  0  0  0  0  0  0  0  0  0
  140.7230   68.4140  228.7070 Cl  0  0  0  0  0  0  0  0  0  0  0  0
  141.0730   70.8000  227.5200 C   0  0  0  0  0  0  0  0  0  0  0  0
  141.0080   71.6820  226.4530 C   0  0  0  0  0  0  0  0  0  0  0  0
  140.5020   71.2590  225.2210 C   0  0  0  0  0  0  0  0  0  0  0  0
  140.4500   72.1370  224.1990 N   0  0  0  0  0  0  0  0  0  0  0  0
  139.2600   74.4050  223.1780 H   0  0  0  0  0  0  0  0  0  0  0  0
  139.5133   74.5726  220.1525 H   0  0  0  0  0  0  0  0  0  0  0  0
  138.5603   75.6904  221.1753 H   0  0  0  0  0  0  0  0  0  0  0  0
  142.4906   77.7630  221.3556 H   0  0  0  0  0  0  0  0  0  0  0  0
  143.0200   77.6413  219.6680 H   0  0  0  0  0  0  0  0  0  0  0  0
  140.8776   79.3914  220.9092 H   0  0  0  0  0  0  0  0  0  0  0  0
  142.0892   79.8091  219.6649 H   0  0  0  0  0  0  0  0  0  0  0  0
  139.4413   78.3866  219.3956 H   0  0  0  0  0  0  0  0  0  0  0  0
  140.2000   79.6497  218.3457 H   0  0  0  0  0  0  0  0  0  0  0  0
  140.2287   77.5924  217.0939 H   0  0  0  0  0  0  0  0  0  0  0  0
  141.8979   77.8804  217.6318 H   0  0  0  0  0  0  0  0  0  0  0  0
  139.8480   75.8914  218.6702 H   0  0  0  0  0  0  0  0  0  0  0  0
  141.5234   75.0836  217.1441 H   0  0  0  0  0  0  0  0  0  0  0  0
  142.8328   75.8068  218.1622 H   0  0  0  0  0  0  0  0  0  0  0  0
  141.0560   73.4960  219.0480 H   0  0  0  0  0  0  0  0  0  0  0  0
  143.8487   75.8170  219.5362 H   0  0  0  0  0  0  0  0  0  0  0  0
  145.9443   75.2898  220.7739 H   0  0  0  0  0  0  0  0  0  0  0  0
  146.3185   72.9697  221.6087 H   0  0  0  0  0  0  0  0  0  0  0  0
  144.6046   71.1993  221.1999 H   0  0  0  0  0  0  0  0  0  0  0  0
  142.5405   71.7668  219.9670 H   0  0  0  0  0  0  0  0  0  0  0  0
  139.1439   70.2393  221.8059 H   0  0  0  0  0  0  0  0  0  0  0  0
  139.2106   68.5773  223.6497 H   0  0  0  0  0  0  0  0  0  0  0  0
  139.7707   68.0216  226.0033 H   0  0  0  0  0  0  0  0  0  0  0  0
  141.4716   71.1243  228.4926 H   0  0  0  0  0  0  0  0  0  0  0  0
  141.3558   72.7183  226.5763 H   0  0  0  0  0  0  0  0  0  0  0  0
  1  2  2  0
  2  3  1  0
  3  4  1  0
  4  5  1  0
  5  6  2  0
  5  7  1  0
  7  8  1  0
  8  9  1  0
  9 10  1  0
 10 11  1  0
 11 12  1  0
 12 13  1  0
 13 14  1  0
 14 15  1  0
 15 16  2  0
 16 17  1  0
 17 18  2  0
 18 19  1  0
 19 20  2  0
  2 21  1  0
 21 22  2  0
 22 23  1  0
 23 24  2  0
 24 25  1  0
 25 26  2  0
 26 27  1  0
 26 28  1  0
 28 29  2  0
 29 30  1  0
 30 31  2  0
 12  7  1  0
 20 15  1  0
 31 21  1  0
 30 24  1  0
  3 32  1  0
  4 33  1  0
  4 34  1  0
  8 35  1  0
  8 36  1  0
  9 37  1  0
  9 38  1  0
 10 39  1  0
 10 40  1  0
 11 41  1  0
 11 42  1  0
 12 43  1  1
 13 44  1  0
 13 45  1  0
 14 46  1  0
 16 47  1  0
 17 48  1  0
 18 49  1  0
 19 50  1  0
 20 51  1  0
 22 52  1  0
 23 53  1  0
 25 54  1  0
 28 55  1  0
 29 56  1  0
M  END
>  <smiles>  (21) 
O=C(NCC(=O)N1CCCC[C@H]1CNc1ccccc1)c1ccc2cc(Cl)ccc2n1

>  <score_type>  (21) 
oracle

>  <origin>  (21) 
autodockgpu

>  <m_score__min__energy>  (21) 
-8.9800000000000004

>  <m_primary>  (21) 
energy

>  <rmsd>  (21) 
4.605467634933034

>  <m_score__min__rmsd>  (21) 
4.605467634933034

>  <meeko>  (21) 
{"free_energy": -7.73, "intermolecular_energy": -9.82, "internal_energy": -3.11, "cluster_size": 11, "cluster_id": 1, "rank_in_cluster": 9}

>  <energy>  (21) 
-8.38

>  <cluster_rmsd>  (21) 
0.78

>  <cluster>  (21) 
2

$$$$

     RDKit          3D

 56 59  0  0  0  0  0  0  0  0999 V2000
  138.2430   71.5380  221.5330 O   0  0  0  0  0  0  0  0  0  0  0  0
  139.0750   71.8820  222.4080 C   0  0  0  0  0  0  0  0  0  0  0  0
  139.7660   73.1250  222.3950 N   0  0  0  0  0  0  0  0  0  0  0  0
  139.4880   74.0340  221.3090 C   0  0  0  0  0  0  0  0  0  0  0  0
  140.2250   75.2800  221.5410 C   0  0  0  0  0  0  0  0  0  0  0  0
  141.4460   75.2800  221.8730 O   0  0  0  0  0  0  0  0  0  0  0  0
  139.6120   76.5570  221.4060 N   0  0  0  0  0  0  0  0  0  0  0  0
  139.0490   77.2170  222.5700 C   0  0  0  0  0  0  0  0  0  0  0  0
  137.5480   77.1290  222.4210 C   0  0  0  0  0  0  0  0  0  0  0  0
  137.2200   77.1720  220.9460 C   0  0  0  0  0  0  0  0  0  0  0  0
  138.2170   78.0300  220.1850 C   0  0  0  0  0  0  0  0  0  0  0  0
  139.5120   77.2610  220.1410 C   0  0  1  0  0  0  0  0  0  0  0  0
  140.7030   78.1900  219.9590 C   0  0  0  0  0  0  0  0  0  0  0  0
  141.6370   78.0680  221.0600 N   0  0  0  0  0  0  0  0  0  0  0  0
  141.8080   79.1420  221.9710 C   0  0  0  0  0  0  0  0  0  0  0  0
  141.7200   80.4480  221.5050 C   0  0  0  0  0  0  0  0  0  0  0  0
  141.8820   81.5240  222.3680 C   0  0  0  0  0  0  0  0  0  0  0  0
  142.1340   81.2770  223.7120 C   0  0  0  0  0  0  0  0  0  0  0  0
  142.2220   79.9690  224.1830 C   0  0  0  0  0  0  0  0  0  0  0  0
  142.0570   78.9270  223.2990 C   0  0  0  0  0  0  0  0  0  0  0  0
  139.3520   70.9560  223.5080 C   0  0  0  0  0  0  0  0  0  0  0  0
  138.9460   69.6340  223.4520 C   0  0  0  0  0  0  0  0  0  0  0  0
  139.2080   68.7450  224.4980 C   0  0  0  0  0  0  0  0  0  0  0  0
  139.8870   69.1720  225.6240 C   0  0  0  0  0  0  0  0  0  0  0  0
  140.1680   68.3280  226.6850 C   0  0  0  0  0  0  0  0  0  0  0  0
  140.8550   68.8460  227.7740 C   0  0  0  0  0  0  0  0  0  0  0  0
  141.2400   67.8250  229.1450 Cl  0  0  0  0  0  0  0  0  0  0  0  0
  141.2610   70.1680  227.8300 C   0  0  0  0  0  0  0  0  0  0  0  0
  140.9700   70.9990  226.7590 C   0  0  0  0  0  0  0  0  0  0  0  0
  140.2800   70.5010  225.6500 C   0  0  0  0  0  0  0  0  0  0  0  0
  140.0090   71.3300  224.6220 N   0  0  0  0  0  0  0  0  0  0  0  0
  140.4540   73.3680  223.1520 H   0  0  0  0  0  0  0  0  0  0  0  0
  139.8101   73.5846  220.3581 H   0  0  0  0  0  0  0  0  0  0  0  0
  138.4086   74.2399  221.2585 H   0  0  0  0  0  0  0  0  0  0  0  0
  139.3712   76.7075  223.4901 H   0  0  0  0  0  0  0  0  0  0  0  0
  139.3839   78.2625  222.6385 H   0  0  0  0  0  0  0  0  0  0  0  0
  137.1846   76.1866  222.8566 H   0  0  0  0  0  0  0  0  0  0  0  0
  137.0630   77.9663  222.9442 H   0  0  0  0  0  0  0  0  0  0  0  0
  137.2462   76.1489  220.5428 H   0  0  0  0  0  0  0  0  0  0  0  0
  136.2190   77.6117  220.8249 H   0  0  0  0  0  0  0  0  0  0  0  0
  137.8532   78.2171  219.1639 H   0  0  0  0  0  0  0  0  0  0  0  0
  138.3541   79.0044  220.6767 H   0  0  0  0  0  0  0  0  0  0  0  0
  139.5204   76.5667  219.2879 H   0  0  0  0  0  0  0  0  0  0  0  0
  141.2181   77.9332  219.0216 H   0  0  0  0  0  0  0  0  0  0  0  0
  140.3346   79.2260  219.9285 H   0  0  0  0  0  0  0  0  0  0  0  0
  142.2040   77.1910  221.2090 H   0  0  0  0  0  0  0  0  0  0  0  0
  141.5195   80.6320  220.4392 H   0  0  0  0  0  0  0  0  0  0  0  0
  141.8119   82.5559  221.9934 H   0  0  0  0  0  0  0  0  0  0  0  0
  142.2647   82.1189  224.4078 H   0  0  0  0  0  0  0  0  0  0  0  0
  142.4206   79.7716  225.2468 H   0  0  0  0  0  0  0  0  0  0  0  0
  142.1272   77.8939  223.6701 H   0  0  0  0  0  0  0  0  0  0  0  0
  138.4049   69.2750  222.5641 H   0  0  0  0  0  0  0  0  0  0  0  0
  138.8722   67.7001  224.4250 H   0  0  0  0  0  0  0  0  0  0  0  0
  139.8547   67.2737  226.6653 H   0  0  0  0  0  0  0  0  0  0  0  0
  141.8036   70.5516  228.7066 H   0  0  0  0  0  0  0  0  0  0  0  0
  141.2830   72.0533  226.7821 H   0  0  0  0  0  0  0  0  0  0  0  0
  1  2  2  0
  2  3  1  0
  3  4  1  0
  4  5  1  0
  5  6  2  0
  5  7  1  0
  7  8  1  0
  8  9  1  0
  9 10  1  0
 10 11  1  0
 11 12  1  0
 12 13  1  0
 13 14  1  0
 14 15  1  0
 15 16  2  0
 16 17  1  0
 17 18  2  0
 18 19  1  0
 19 20  2  0
  2 21  1  0
 21 22  2  0
 22 23  1  0
 23 24  2  0
 24 25  1  0
 25 26  2  0
 26 27  1  0
 26 28  1  0
 28 29  2  0
 29 30  1  0
 30 31  2  0
 12  7  1  0
 20 15  1  0
 31 21  1  0
 30 24  1  0
  3 32  1  0
  4 33  1  0
  4 34  1  0
  8 35  1  0
  8 36  1  0
  9 37  1  0
  9 38  1  0
 10 39  1  0
 10 40  1  0
 11 41  1  0
 11 42  1  0
 12 43  1  6
 13 44  1  0
 13 45  1  0
 14 46  1  0
 16 47  1  0
 17 48  1  0
 18 49  1  0
 19 50  1  0
 20 51  1  0
 22 52  1  0
 23 53  1  0
 25 54  1  0
 28 55  1  0
 29 56  1  0
M  END
>  <smiles>  (22) 
O=C(NCC(=O)N1CCCC[C@H]1CNc1ccccc1)c1ccc2cc(Cl)ccc2n1

>  <score_type>  (22) 
oracle

>  <origin>  (22) 
autodockgpu

>  <m_score__min__energy>  (22) 
-8.9800000000000004

>  <m_primary>  (22) 
energy

>  <rmsd>  (22) 
2.7764165075765774

>  <m_score__min__rmsd>  (22) 
2.7764165075765774

>  <meeko>  (22) 
{"free_energy": -8.14, "intermolecular_energy": -10.23, "internal_energy": -2.81, "cluster_size": 27, "cluster_id": 2, "rank_in_cluster": 18}

>  <energy>  (22) 
-8.38

>  <cluster_rmsd>  (22) 
0.72

>  <cluster>  (22) 
2

$$$$

     RDKit          3D

 56 59  0  0  0  0  0  0  0  0999 V2000
  140.6280   72.3510  221.1580 O   0  0  0  0  0  0  0  0  0  0  0  0
  139.8350   72.4920  222.1210 C   0  0  0  0  0  0  0  0  0  0  0  0
  138.8790   73.5420  222.2120 N   0  0  0  0  0  0  0  0  0  0  0  0
  138.8270   74.4930  221.1280 C   0  0  0  0  0  0  0  0  0  0  0  0
  140.0230   75.3390  221.1890 C   0  0  0  0  0  0  0  0  0  0  0  0
  140.4260   75.8450  222.2770 O   0  0  0  0  0  0  0  0  0  0  0  0
  140.7970   75.6400  220.0340 N   0  0  0  0  0  0  0  0  0  0  0  0
  140.2270   75.4530  218.7110 C   0  0  0  0  0  0  0  0  0  0  0  0
  140.9020   74.2320  218.1300 C   0  0  0  0  0  0  0  0  0  0  0  0
  142.3150   74.1760  218.6680 C   0  0  0  0  0  0  0  0  0  0  0  0
  142.8720   75.5710  218.8950 C   0  0  0  0  0  0  0  0  0  0  0  0
  142.1580   76.1360  220.0970 C   0  0  1  0  0  0  0  0  0  0  0  0
  142.1660   77.6580  220.0810 C   0  0  0  0  0  0  0  0  0  0  0  0
  141.8760   78.1980  221.3930 N   0  0  0  0  0  0  0  0  0  0  0  0
  141.7280   79.5980  221.5700 C   0  0  0  0  0  0  0  0  0  0  0  0
  141.8600   80.1400  222.8430 C   0  0  0  0  0  0  0  0  0  0  0  0
  141.7210   81.5050  223.0520 C   0  0  0  0  0  0  0  0  0  0  0  0
  141.4480   82.3290  221.9670 C   0  0  0  0  0  0  0  0  0  0  0  0
  141.3150   81.7890  220.6900 C   0  0  0  0  0  0  0  0  0  0  0  0
  141.4590   80.4310  220.5190 C   0  0  0  0  0  0  0  0  0  0  0  0
  139.8930   71.5230  223.2180 C   0  0  0  0  0  0  0  0  0  0  0  0
  139.4570   70.2200  223.0470 C   0  0  0  0  0  0  0  0  0  0  0  0
  139.5100   69.2900  224.0890 C   0  0  0  0  0  0  0  0  0  0  0  0
  140.0040   69.6570  225.3270 C   0  0  0  0  0  0  0  0  0  0  0  0
  140.0750   68.7700  226.3890 C   0  0  0  0  0  0  0  0  0  0  0  0
  140.5850   69.2280  227.5950 C   0  0  0  0  0  0  0  0  0  0  0  0
  140.7000   68.1520  228.9730 Cl  0  0  0  0  0  0  0  0  0  0  0  0
  141.0210   70.5310  227.7660 C   0  0  0  0  0  0  0  0  0  0  0  0
  140.9420   71.4040  226.6930 C   0  0  0  0  0  0  0  0  0  0  0  0
  140.4320   70.9670  225.4670 C   0  0  0  0  0  0  0  0  0  0  0  0
  140.3660   71.8370  224.4380 N   0  0  0  0  0  0  0  0  0  0  0  0
  138.2360   73.6170  223.0400 H   0  0  0  0  0  0  0  0  0  0  0  0
  138.8001   73.9583  220.1671 H   0  0  0  0  0  0  0  0  0  0  0  0
  137.9232   75.1137  221.2162 H   0  0  0  0  0  0  0  0  0  0  0  0
  139.1414   75.2907  218.7829 H   0  0  0  0  0  0  0  0  0  0  0  0
  140.3853   76.3382  218.0775 H   0  0  0  0  0  0  0  0  0  0  0  0
  140.3536   73.3259  218.4271 H   0  0  0  0  0  0  0  0  0  0  0  0
  140.9142   74.2895  217.0316 H   0  0  0  0  0  0  0  0  0  0  0  0
  142.3139   73.6303  219.6231 H   0  0  0  0  0  0  0  0  0  0  0  0
  142.9490   73.6637  217.9293 H   0  0  0  0  0  0  0  0  0  0  0  0
  143.9539   75.5200  219.0868 H   0  0  0  0  0  0  0  0  0  0  0  0
  142.7176   76.2060  218.0102 H   0  0  0  0  0  0  0  0  0  0  0  0
  142.6599   75.8270  221.0258 H   0  0  0  0  0  0  0  0  0  0  0  0
  143.1583   78.0081  219.7604 H   0  0  0  0  0  0  0  0  0  0  0  0
  141.3885   78.0027  219.3833 H   0  0  0  0  0  0  0  0  0  0  0  0
  141.7700   77.5730  222.2360 H   0  0  0  0  0  0  0  0  0  0  0  0
  142.0773   79.4792  223.6951 H   0  0  0  0  0  0  0  0  0  0  0  0
  141.8254   81.9284  224.0619 H   0  0  0  0  0  0  0  0  0  0  0  0
  141.3364   83.4130  222.1173 H   0  0  0  0  0  0  0  0  0  0  0  0
  141.0978   82.4392  219.8297 H   0  0  0  0  0  0  0  0  0  0  0  0
  141.3550   80.0043  219.5105 H   0  0  0  0  0  0  0  0  0  0  0  0
  139.0600   69.9098  222.0691 H   0  0  0  0  0  0  0  0  0  0  0  0
  139.1571   68.2614  223.9233 H   0  0  0  0  0  0  0  0  0  0  0  0
  139.7357   67.7295  226.2787 H   0  0  0  0  0  0  0  0  0  0  0  0
  141.4219   70.8662  228.7339 H   0  0  0  0  0  0  0  0  0  0  0  0
  141.2816   72.4441  226.8062 H   0  0  0  0  0  0  0  0  0  0  0  0
  1  2  2  0
  2  3  1  0
  3  4  1  0
  4  5  1  0
  5  6  2  0
  5  7  1  0
  7  8  1  0
  8  9  1  0
  9 10  1  0
 10 11  1  0
 11 12  1  0
 12 13  1  0
 13 14  1  0
 14 15  1  0
 15 16  2  0
 16 17  1  0
 17 18  2  0
 18 19  1  0
 19 20  2  0
  2 21  1  0
 21 22  2  0
 22 23  1  0
 23 24  2  0
 24 25  1  0
 25 26  2  0
 26 27  1  0
 26 28  1  0
 28 29  2  0
 29 30  1  0
 30 31  2  0
 12  7  1  0
 20 15  1  0
 31 21  1  0
 30 24  1  0
  3 32  1  0
  4 33  1  0
  4 34  1  0
  8 35  1  0
  8 36  1  0
  9 37  1  0
  9 38  1  0
 10 39  1  0
 10 40  1  0
 11 41  1  0
 11 42  1  0
 12 43  1  1
 13 44  1  0
 13 45  1  0
 14 46  1  0
 16 47  1  0
 17 48  1  0
 18 49  1  0
 19 50  1  0
 20 51  1  0
 22 52  1  0
 23 53  1  0
 25 54  1  0
 28 55  1  0
 29 56  1  0
M  END
>  <smiles>  (23) 
O=C(NCC(=O)N1CCCC[C@H]1CNc1ccccc1)c1ccc2cc(Cl)ccc2n1

>  <score_type>  (23) 
oracle

>  <origin>  (23) 
autodockgpu

>  <m_score__min__energy>  (23) 
-8.9800000000000004

>  <m_primary>  (23) 
energy

>  <rmsd>  (23) 
1.8551699865918363

>  <m_score__min__rmsd>  (23) 
1.8551699865918363

>  <meeko>  (23) 
{"free_energy": -8.52, "intermolecular_energy": -10.61, "internal_energy": -2.26, "cluster_size": 27, "cluster_id": 2, "rank_in_cluster": 7}

>  <energy>  (23) 
-8.36

>  <cluster_rmsd>  (23) 
0.87

>  <cluster>  (23) 
2

$$$$

     RDKit          3D

 56 59  0  0  0  0  0  0  0  0999 V2000
  139.3080   72.8230  220.2310 O   0  0  0  0  0  0  0  0  0  0  0  0
  140.2100   72.7970  221.1020 C   0  0  0  0  0  0  0  0  0  0  0  0
  141.4400   73.5040  220.9880 N   0  0  0  0  0  0  0  0  0  0  0  0
  141.6490   74.2930  219.7980 C   0  0  0  0  0  0  0  0  0  0  0  0
  141.9260   75.6770  220.1960 C   0  0  0  0  0  0  0  0  0  0  0  0
  143.0820   76.1810  220.0910 O   0  0  0  0  0  0  0  0  0  0  0  0
  140.9160   76.5300  220.7200 N   0  0  0  0  0  0  0  0  0  0  0  0
  140.6730   76.5700  222.1510 C   0  0  0  0  0  0  0  0  0  0  0  0
  139.3640   75.8500  222.3770 C   0  0  0  0  0  0  0  0  0  0  0  0
  138.4840   76.0840  221.1700 C   0  0  0  0  0  0  0  0  0  0  0  0
  138.7400   77.4520  220.5600 C   0  0  0  0  0  0  0  0  0  0  0  0
  140.0900   77.3860  219.8900 C   0  0  1  0  0  0  0  0  0  0  0  0
  140.7170   78.7680  219.7700 C   0  0  0  0  0  0  0  0  0  0  0  0
  141.9190   78.8690  220.5710 N   0  0  0  0  0  0  0  0  0  0  0  0
  141.9640   79.7570  221.6770 C   0  0  0  0  0  0  0  0  0  0  0  0
  141.3760   81.0110  221.5670 C   0  0  0  0  0  0  0  0  0  0  0  0
  141.4010   81.9050  222.6290 C   0  0  0  0  0  0  0  0  0  0  0  0
  142.0250   81.5270  223.8120 C   0  0  0  0  0  0  0  0  0  0  0  0
  142.6160   80.2710  223.9270 C   0  0  0  0  0  0  0  0  0  0  0  0
  142.5710   79.4110  222.8530 C   0  0  0  0  0  0  0  0  0  0  0  0
  139.9920   71.9960  222.3080 C   0  0  0  0  0  0  0  0  0  0  0  0
  139.1070   70.9310  222.3100 C   0  0  0  0  0  0  0  0  0  0  0  0
  138.8940   70.1620  223.4580 C   0  0  0  0  0  0  0  0  0  0  0  0
  139.5700   70.4520  224.6280 C   0  0  0  0  0  0  0  0  0  0  0  0
  139.3910   69.7180  225.7890 C   0  0  0  0  0  0  0  0  0  0  0  0
  140.1130   70.0830  226.9160 C   0  0  0  0  0  0  0  0  0  0  0  0
  139.9290   69.1910  228.4140 Cl  0  0  0  0  0  0  0  0  0  0  0  0
  140.9980   71.1480  226.9140 C   0  0  0  0  0  0  0  0  0  0  0  0
  141.1640   71.8710  225.7430 C   0  0  0  0  0  0  0  0  0  0  0  0
  140.4480   71.5230  224.5940 C   0  0  0  0  0  0  0  0  0  0  0  0
  140.6280   72.2430  223.4680 N   0  0  0  0  0  0  0  0  0  0  0  0
  142.1660   73.4510  221.7470 H   0  0  0  0  0  0  0  0  0  0  0  0
  142.5034   73.8920  219.2330 H   0  0  0  0  0  0  0  0  0  0  0  0
  140.7524   74.2576  219.1618 H   0  0  0  0  0  0  0  0  0  0  0  0
  141.4859   76.0614  222.6901 H   0  0  0  0  0  0  0  0  0  0  0  0
  140.6302   77.6049  222.5214 H   0  0  0  0  0  0  0  0  0  0  0  0
  139.5478   74.7726  222.5010 H   0  0  0  0  0  0  0  0  0  0  0  0
  138.8729   76.2288  223.2855 H   0  0  0  0  0  0  0  0  0  0  0  0
  138.6946   75.3103  220.4170 H   0  0  0  0  0  0  0  0  0  0  0  0
  137.4329   76.0370  221.4910 H   0  0  0  0  0  0  0  0  0  0  0  0
  137.9613   77.6881  219.8198 H   0  0  0  0  0  0  0  0  0  0  0  0
  138.7201   78.2371  221.3302 H   0  0  0  0  0  0  0  0  0  0  0  0
  139.9957   76.9918  218.8674 H   0  0  0  0  0  0  0  0  0  0  0  0
  140.9710   78.9565  218.7165 H   0  0  0  0  0  0  0  0  0  0  0  0
  139.9927   79.5118  220.1335 H   0  0  0  0  0  0  0  0  0  0  0  0
  142.7770   78.2950  220.3550 H   0  0  0  0  0  0  0  0  0  0  0  0
  140.8842   81.2993  220.6262 H   0  0  0  0  0  0  0  0  0  0  0  0
  140.9344   82.8967  222.5356 H   0  0  0  0  0  0  0  0  0  0  0  0
  142.0523   82.2240  224.6626 H   0  0  0  0  0  0  0  0  0  0  0  0
  143.1113   79.9707  224.8621 H   0  0  0  0  0  0  0  0  0  0  0  0
  143.0360   78.4182  222.9430 H   0  0  0  0  0  0  0  0  0  0  0  0
  138.5596   70.6846  221.3882 H   0  0  0  0  0  0  0  0  0  0  0  0
  138.1846   69.3217  223.4298 H   0  0  0  0  0  0  0  0  0  0  0  0
  138.6941   68.8674  225.8167 H   0  0  0  0  0  0  0  0  0  0  0  0
  141.5576   71.4147  227.8227 H   0  0  0  0  0  0  0  0  0  0  0  0
  141.8614   72.7213  225.7179 H   0  0  0  0  0  0  0  0  0  0  0  0
  1  2  2  0
  2  3  1  0
  3  4  1  0
  4  5  1  0
  5  6  2  0
  5  7  1  0
  7  8  1  0
  8  9  1  0
  9 10  1  0
 10 11  1  0
 11 12  1  0
 12 13  1  0
 13 14  1  0
 14 15  1  0
 15 16  2  0
 16 17  1  0
 17 18  2  0
 18 19  1  0
 19 20  2  0
  2 21  1  0
 21 22  2  0
 22 23  1  0
 23 24  2  0
 24 25  1  0
 25 26  2  0
 26 27  1  0
 26 28  1  0
 28 29  2  0
 29 30  1  0
 30 31  2  0
 12  7  1  0
 20 15  1  0
 31 21  1  0
 30 24  1  0
  3 32  1  0
  4 33  1  0
  4 34  1  0
  8 35  1  0
  8 36  1  0
  9 37  1  0
  9 38  1  0
 10 39  1  0
 10 40  1  0
 11 41  1  0
 11 42  1  0
 12 43  1  6
 13 44  1  0
 13 45  1  0
 14 46  1  0
 16 47  1  0
 17 48  1  0
 18 49  1  0
 19 50  1  0
 20 51  1  0
 22 52  1  0
 23 53  1  0
 25 54  1  0
 28 55  1  0
 29 56  1  0
M  END
>  <smiles>  (24) 
O=C(NCC(=O)N1CCCC[C@H]1CNc1ccccc1)c1ccc2cc(Cl)ccc2n1

>  <score_type>  (24) 
oracle

>  <origin>  (24) 
autodockgpu

>  <m_score__min__energy>  (24) 
-8.9800000000000004

>  <m_primary>  (24) 
energy

>  <rmsd>  (24) 
3.076567039712711

>  <m_score__min__rmsd>  (24) 
3.076567039712711

>  <meeko>  (24) 
{"free_energy": -7.97, "intermolecular_energy": -10.06, "internal_energy": -2.98, "cluster_size": 27, "cluster_id": 2, "rank_in_cluster": 21}

>  <energy>  (24) 
-8.31

>  <cluster_rmsd>  (24) 
0.85

>  <cluster>  (24) 
2

$$$$

     RDKit          3D

 56 59  0  0  0  0  0  0  0  0999 V2000
  139.5710   72.0790  220.8180 O   0  0  0  0  0  0  0  0  0  0  0  0
  139.6080   72.5010  221.9990 C   0  0  0  0  0  0  0  0  0  0  0  0
  139.5160   73.8760  222.3510 N   0  0  0  0  0  0  0  0  0  0  0  0
  139.3730   74.8320  221.2800 C   0  0  0  0  0  0  0  0  0  0  0  0
  140.5190   75.7450  221.3100 C   0  0  0  0  0  0  0  0  0  0  0  0
  140.8520   76.3630  222.3630 O   0  0  0  0  0  0  0  0  0  0  0  0
  141.3220   75.9890  220.1610 N   0  0  0  0  0  0  0  0  0  0  0  0
  141.3430   75.0270  219.0740 C   0  0  0  0  0  0  0  0  0  0  0  0
  142.6850   74.3370  219.1460 C   0  0  0  0  0  0  0  0  0  0  0  0
  143.6970   75.3320  219.6680 C   0  0  0  0  0  0  0  0  0  0  0  0
  143.3610   76.7450  219.2210 C   0  0  0  0  0  0  0  0  0  0  0  0
  142.1450   77.1730  220.0040 C   0  0  1  0  0  0  0  0  0  0  0  0
  141.3710   78.2610  219.2740 C   0  0  0  0  0  0  0  0  0  0  0  0
  141.3910   79.5060  220.0160 N   0  0  0  0  0  0  0  0  0  0  0  0
  141.4260   79.4880  221.4340 C   0  0  0  0  0  0  0  0  0  0  0  0
  140.2650   79.2000  222.1400 C   0  0  0  0  0  0  0  0  0  0  0  0
  140.2630   79.1740  223.5280 C   0  0  0  0  0  0  0  0  0  0  0  0
  141.4450   79.4410  224.2080 C   0  0  0  0  0  0  0  0  0  0  0  0
  142.6120   79.7310  223.5040 C   0  0  0  0  0  0  0  0  0  0  0  0
  142.5760   79.7470  222.1280 C   0  0  0  0  0  0  0  0  0  0  0  0
  139.7540   71.5260  223.0820 C   0  0  0  0  0  0  0  0  0  0  0  0
  139.3860   70.2020  222.9090 C   0  0  0  0  0  0  0  0  0  0  0  0
  139.5220   69.2670  223.9390 C   0  0  0  0  0  0  0  0  0  0  0  0
  140.0340   69.6480  225.1650 C   0  0  0  0  0  0  0  0  0  0  0  0
  140.1870   68.7560  226.2140 C   0  0  0  0  0  0  0  0  0  0  0  0
  140.7090   69.2290  227.4090 C   0  0  0  0  0  0  0  0  0  0  0  0
  140.9260   68.1470  228.7700 Cl  0  0  0  0  0  0  0  0  0  0  0  0
  141.0770   70.5530  227.5810 C   0  0  0  0  0  0  0  0  0  0  0  0
  140.9160   71.4310  226.5210 C   0  0  0  0  0  0  0  0  0  0  0  0
  140.3930   70.9780  225.3070 C   0  0  0  0  0  0  0  0  0  0  0  0
  140.2470   71.8530  224.2910 N   0  0  0  0  0  0  0  0  0  0  0  0
  139.5520   74.1790  223.3570 H   0  0  0  0  0  0  0  0  0  0  0  0
  139.3444   74.3052  220.3148 H   0  0  0  0  0  0  0  0  0  0  0  0
  138.4386   75.3987  221.4053 H   0  0  0  0  0  0  0  0  0  0  0  0
  140.5311   74.2951  219.1971 H   0  0  0  0  0  0  0  0  0  0  0  0
  141.1976   75.5191  218.1010 H   0  0  0  0  0  0  0  0  0  0  0  0
  142.6249   73.4746  219.8261 H   0  0  0  0  0  0  0  0  0  0  0  0
  142.9827   73.9773  218.1500 H   0  0  0  0  0  0  0  0  0  0  0  0
  143.7019   75.2953  220.7674 H   0  0  0  0  0  0  0  0  0  0  0  0
  144.6858   75.0659  219.2661 H   0  0  0  0  0  0  0  0  0  0  0  0
  144.2039   77.4194  219.4322 H   0  0  0  0  0  0  0  0  0  0  0  0
  143.1660   76.7805  218.1390 H   0  0  0  0  0  0  0  0  0  0  0  0
  142.4397   77.5936  220.9767 H   0  0  0  0  0  0  0  0  0  0  0  0
  141.8269   78.4245  218.2864 H   0  0  0  0  0  0  0  0  0  0  0  0
  140.3258   77.9345  219.1694 H   0  0  0  0  0  0  0  0  0  0  0  0
  141.3790   80.4400  219.5270 H   0  0  0  0  0  0  0  0  0  0  0  0
  139.3347   78.9897  221.5920 H   0  0  0  0  0  0  0  0  0  0  0  0
  139.3399   78.9456  224.0810 H   0  0  0  0  0  0  0  0  0  0  0  0
  141.4595   79.4233  225.3078 H   0  0  0  0  0  0  0  0  0  0  0  0
  143.5486   79.9441  224.0401 H   0  0  0  0  0  0  0  0  0  0  0  0
  143.4971   79.9743  221.5713 H   0  0  0  0  0  0  0  0  0  0  0  0
  138.9778   69.8793  221.9399 H   0  0  0  0  0  0  0  0  0  0  0  0
  139.2200   68.2224  223.7730 H   0  0  0  0  0  0  0  0  0  0  0  0
  139.9018   67.6995  226.1021 H   0  0  0  0  0  0  0  0  0  0  0  0
  141.4889   70.9007  228.5399 H   0  0  0  0  0  0  0  0  0  0  0  0
  141.2007   72.4873  226.6356 H   0  0  0  0  0  0  0  0  0  0  0  0
  1  2  2  0
  2  3  1  0
  3  4  1  0
  4  5  1  0
  5  6  2  0
  5  7  1  0
  7  8  1  0
  8  9  1  0
  9 10  1  0
 10 11  1  0
 11 12  1  0
 12 13  1  0
 13 14  1  0
 14 15  1  0
 15 16  2  0
 16 17  1  0
 17 18  2  0
 18 19  1  0
 19 20  2  0
  2 21  1  0
 21 22  2  0
 22 23  1  0
 23 24  2  0
 24 25  1  0
 25 26  2  0
 26 27  1  0
 26 28  1  0
 28 29  2  0
 29 30  1  0
 30 31  2  0
 12  7  1  0
 20 15  1  0
 31 21  1  0
 30 24  1  0
  3 32  1  0
  4 33  1  0
  4 34  1  0
  8 35  1  0
  8 36  1  0
  9 37  1  0
  9 38  1  0
 10 39  1  0
 10 40  1  0
 11 41  1  0
 11 42  1  0
 12 43  1  1
 13 44  1  0
 13 45  1  0
 14 46  1  0
 16 47  1  0
 17 48  1  0
 18 49  1  0
 19 50  1  0
 20 51  1  0
 22 52  1  0
 23 53  1  0
 25 54  1  0
 28 55  1  0
 29 56  1  0
M  END
>  <smiles>  (25) 
O=C(NCC(=O)N1CCCC[C@H]1CNc1ccccc1)c1ccc2cc(Cl)ccc2n1

>  <score_type>  (25) 
oracle

>  <origin>  (25) 
autodockgpu

>  <m_score__min__energy>  (25) 
-8.9800000000000004

>  <m_primary>  (25) 
energy

>  <rmsd>  (25) 
2.5028708074028954

>  <m_score__min__rmsd>  (25) 
2.5028708074028954

>  <meeko>  (25) 
{"free_energy": -8.65, "intermolecular_energy": -10.74, "internal_energy": -2.19, "cluster_size": 27, "cluster_id": 2, "rank_in_cluster": 4}

>  <energy>  (25) 
-8.25

>  <cluster_rmsd>  (25) 
0.9

>  <cluster>  (25) 
2

$$$$

     RDKit          3D

 56 59  0  0  0  0  0  0  0  0999 V2000
  138.7770   73.6410  220.2450 O   0  0  0  0  0  0  0  0  0  0  0  0
  138.5840   74.3040  221.2930 C   0  0  0  0  0  0  0  0  0  0  0  0
  137.6020   73.9740  222.2680 N   0  0  0  0  0  0  0  0  0  0  0  0
  136.7870   72.8080  222.0270 C   0  0  0  0  0  0  0  0  0  0  0  0
  137.0280   71.8380  223.0990 C   0  0  0  0  0  0  0  0  0  0  0  0
  136.2430   71.7260  224.0860 O   0  0  0  0  0  0  0  0  0  0  0  0
  138.1540   70.9690  223.0940 N   0  0  0  0  0  0  0  0  0  0  0  0
  139.4900   71.5150  222.9330 C   0  0  0  0  0  0  0  0  0  0  0  0
  139.9320   71.1450  221.5360 C   0  0  0  0  0  0  0  0  0  0  0  0
  139.3070   69.8140  221.1830 C   0  0  0  0  0  0  0  0  0  0  0  0
  139.1560   68.9340  222.4130 C   0  0  0  0  0  0  0  0  0  0  0  0
  138.0480   69.5300  223.2440 C   0  0  1  0  0  0  0  0  0  0  0  0
  138.1830   69.1400  224.7090 C   0  0  0  0  0  0  0  0  0  0  0  0
  139.5730   69.0870  225.1110 N   0  0  0  0  0  0  0  0  0  0  0  0
  140.0720   70.0040  226.0720 C   0  0  0  0  0  0  0  0  0  0  0  0
  140.9730   70.9830  225.6740 C   0  0  0  0  0  0  0  0  0  0  0  0
  141.4810   71.8970  226.5880 C   0  0  0  0  0  0  0  0  0  0  0  0
  141.0750   71.8190  227.9140 C   0  0  0  0  0  0  0  0  0  0  0  0
  140.1710   70.8390  228.3180 C   0  0  0  0  0  0  0  0  0  0  0  0
  139.6880   69.9500  227.3840 C   0  0  0  0  0  0  0  0  0  0  0  0
  139.4150   75.4860  221.5330 C   0  0  0  0  0  0  0  0  0  0  0  0
  140.6640   75.6150  220.9500 C   0  0  0  0  0  0  0  0  0  0  0  0
  141.4610   76.7410  221.1740 C   0  0  0  0  0  0  0  0  0  0  0  0
  141.0140   77.7610  221.9920 C   0  0  0  0  0  0  0  0  0  0  0  0
  141.7700   78.8950  222.2430 C   0  0  0  0  0  0  0  0  0  0  0  0
  141.2380   79.8680  223.0770 C   0  0  0  0  0  0  0  0  0  0  0  0
  142.1470   81.3240  223.4310 Cl  0  0  0  0  0  0  0  0  0  0  0  0
  139.9890   79.7390  223.6600 C   0  0  0  0  0  0  0  0  0  0  0  0
  139.2480   78.5980  223.3980 C   0  0  0  0  0  0  0  0  0  0  0  0
  139.7600   77.6040  222.5600 C   0  0  0  0  0  0  0  0  0  0  0  0
  139.0190   76.5030  222.3210 N   0  0  0  0  0  0  0  0  0  0  0  0
  137.4790   74.5620  223.1310 H   0  0  0  0  0  0  0  0  0  0  0  0
  135.7249   73.0939  222.0181 H   0  0  0  0  0  0  0  0  0  0  0  0
  137.0452   72.3642  221.0542 H   0  0  0  0  0  0  0  0  0  0  0  0
  139.4715   72.6086  223.0498 H   0  0  0  0  0  0  0  0  0  0  0  0
  140.1801   71.1151  223.6905 H   0  0  0  0  0  0  0  0  0  0  0  0
  139.5989   71.9140  220.8235 H   0  0  0  0  0  0  0  0  0  0  0  0
  141.0288   71.0756  221.4890 H   0  0  0  0  0  0  0  0  0  0  0  0
  138.3141   69.9893  220.7432 H   0  0  0  0  0  0  0  0  0  0  0  0
  139.9639   69.3002  220.4657 H   0  0  0  0  0  0  0  0  0  0  0  0
  138.8950   67.9080  222.1144 H   0  0  0  0  0  0  0  0  0  0  0  0
  140.0956   68.8893  222.9831 H   0  0  0  0  0  0  0  0  0  0  0  0
  137.0689   69.1582  222.9077 H   0  0  0  0  0  0  0  0  0  0  0  0
  137.6586   69.8830  225.3278 H   0  0  0  0  0  0  0  0  0  0  0  0
  137.7427   68.1412  224.8455 H   0  0  0  0  0  0  0  0  0  0  0  0
  140.2390   68.3760  224.7050 H   0  0  0  0  0  0  0  0  0  0  0  0
  141.2883   71.0352  224.6215 H   0  0  0  0  0  0  0  0  0  0  0  0
  142.1939   72.6707  226.2667 H   0  0  0  0  0  0  0  0  0  0  0  0
  141.4696   72.5354  228.6496 H   0  0  0  0  0  0  0  0  0  0  0  0
  139.8479   70.7763  229.3676 H   0  0  0  0  0  0  0  0  0  0  0  0
  138.9742   69.1755  227.7013 H   0  0  0  0  0  0  0  0  0  0  0  0
  141.0375   74.8134  220.2959 H   0  0  0  0  0  0  0  0  0  0  0  0
  142.4492   76.8156  220.6967 H   0  0  0  0  0  0  0  0  0  0  0  0
  142.7658   79.0205  221.7928 H   0  0  0  0  0  0  0  0  0  0  0  0
  139.5929   80.5265  224.3180 H   0  0  0  0  0  0  0  0  0  0  0  0
  138.2534   78.4742  223.8512 H   0  0  0  0  0  0  0  0  0  0  0  0
  1  2  2  0
  2  3  1  0
  3  4  1  0
  4  5  1  0
  5  6  2  0
  5  7  1  0
  7  8  1  0
  8  9  1  0
  9 10  1  0
 10 11  1  0
 11 12  1  0
 12 13  1  0
 13 14  1  0
 14 15  1  0
 15 16  2  0
 16 17  1  0
 17 18  2  0
 18 19  1  0
 19 20  2  0
  2 21  1  0
 21 22  2  0
 22 23  1  0
 23 24  2  0
 24 25  1  0
 25 26  2  0
 26 27  1  0
 26 28  1  0
 28 29  2  0
 29 30  1  0
 30 31  2  0
 12  7  1  0
 20 15  1  0
 31 21  1  0
 30 24  1  0
  3 32  1  0
  4 33  1  0
  4 34  1  0
  8 35  1  0
  8 36  1  0
  9 37  1  0
  9 38  1  0
 10 39  1  0
 10 40  1  0
 11 41  1  0
 11 42  1  0
 12 43  1  6
 13 44  1  0
 13 45  1  0
 14 46  1  0
 16 47  1  0
 17 48  1  0
 18 49  1  0
 19 50  1  0
 20 51  1  0
 22 52  1  0
 23 53  1  0
 25 54  1  0
 28 55  1  0
 29 56  1  0
M  END
>  <smiles>  (26) 
O=C(NCC(=O)N1CCCC[C@H]1CNc1ccccc1)c1ccc2cc(Cl)ccc2n1

>  <score_type>  (26) 
oracle

>  <origin>  (26) 
autodockgpu

>  <m_score__min__energy>  (26) 
-8.9800000000000004

>  <m_primary>  (26) 
energy

>  <rmsd>  (26) 
8.748371471306795

>  <m_score__min__rmsd>  (26) 
8.748371471306795

>  <meeko>  (26) 
{"free_energy": -8.12, "intermolecular_energy": -10.2, "internal_energy": -2.13, "cluster_size": 6, "cluster_id": 4, "rank_in_cluster": 1}

>  <energy>  (26) 
-8.22

>  <cluster_rmsd>  (26) 
1.14

>  <cluster>  (26) 
2

$$$$

     RDKit          3D

 56 59  0  0  0  0  0  0  0  0999 V2000
  140.3420   74.1730  222.2860 O   0  0  0  0  0  0  0  0  0  0  0  0
  140.1210   72.9770  221.9750 C   0  0  0  0  0  0  0  0  0  0  0  0
  139.8840   72.5380  220.6420 N   0  0  0  0  0  0  0  0  0  0  0  0
  139.9010   73.5330  219.5980 C   0  0  0  0  0  0  0  0  0  0  0  0
  141.0900   73.3190  218.7660 C   0  0  0  0  0  0  0  0  0  0  0  0
  141.0930   72.4920  217.8090 O   0  0  0  0  0  0  0  0  0  0  0  0
  142.3040   74.0270  218.9870 N   0  0  0  0  0  0  0  0  0  0  0  0
  143.3480   74.0070  217.9780 C   0  0  0  0  0  0  0  0  0  0  0  0
  144.4450   73.1230  218.5230 C   0  0  0  0  0  0  0  0  0  0  0  0
  144.4610   73.2690  220.0280 C   0  0  0  0  0  0  0  0  0  0  0  0
  144.0520   74.6710  220.4490 C   0  0  0  0  0  0  0  0  0  0  0  0
  142.5710   74.7900  220.1910 C   0  0  1  0  0  0  0  0  0  0  0  0
  142.1570   76.2420  219.9990 C   0  0  0  0  0  0  0  0  0  0  0  0
  141.2410   76.6670  221.0370 N   0  0  0  0  0  0  0  0  0  0  0  0
  141.4670   77.8830  221.7320 C   0  0  0  0  0  0  0  0  0  0  0  0
  141.3420   77.9090  223.1150 C   0  0  0  0  0  0  0  0  0  0  0  0
  141.5560   79.0820  223.8270 C   0  0  0  0  0  0  0  0  0  0  0  0
  141.9000   80.2370  223.1350 C   0  0  0  0  0  0  0  0  0  0  0  0
  142.0270   80.2150  221.7480 C   0  0  0  0  0  0  0  0  0  0  0  0
  141.8070   79.0340  221.0750 C   0  0  0  0  0  0  0  0  0  0  0  0
  140.1050   71.9720  223.0390 C   0  0  0  0  0  0  0  0  0  0  0  0
  139.6020   70.7010  222.8180 C   0  0  0  0  0  0  0  0  0  0  0  0
  139.5850   69.7370  223.8300 C   0  0  0  0  0  0  0  0  0  0  0  0
  140.0750   70.0360  225.0880 C   0  0  0  0  0  0  0  0  0  0  0  0
  140.0780   69.1130  226.1200 C   0  0  0  0  0  0  0  0  0  0  0  0
  140.5910   69.5030  227.3490 C   0  0  0  0  0  0  0  0  0  0  0  0
  140.6220   68.3790  228.6930 Cl  0  0  0  0  0  0  0  0  0  0  0  0
  141.0940   70.7740  227.5700 C   0  0  0  0  0  0  0  0  0  0  0  0
  141.0830   71.6840  226.5250 C   0  0  0  0  0  0  0  0  0  0  0  0
  140.5720   71.3150  225.2780 C   0  0  0  0  0  0  0  0  0  0  0  0
  140.5720   72.2200  224.2770 N   0  0  0  0  0  0  0  0  0  0  0  0
  139.7030   71.5230  220.4320 H   0  0  0  0  0  0  0  0  0  0  0  0
  138.9952   73.4382  218.9811 H   0  0  0  0  0  0  0  0  0  0  0  0
  139.9279   74.5401  220.0395 H   0  0  0  0  0  0  0  0  0  0  0  0
  142.9592   73.5946  217.0353 H   0  0  0  0  0  0  0  0  0  0  0  0
  143.7189   75.0205  217.7653 H   0  0  0  0  0  0  0  0  0  0  0  0
  144.2488   72.0751  218.2520 H   0  0  0  0  0  0  0  0  0  0  0  0
  145.4172   73.4176  218.1009 H   0  0  0  0  0  0  0  0  0  0  0  0
  143.7595   72.5439  220.4662 H   0  0  0  0  0  0  0  0  0  0  0  0
  145.4847   73.0830  220.3850 H   0  0  0  0  0  0  0  0  0  0  0  0
  144.2633   74.8220  221.5179 H   0  0  0  0  0  0  0  0  0  0  0  0
  144.6127   75.4312  219.8854 H   0  0  0  0  0  0  0  0  0  0  0  0
  141.9967   74.4090  221.0484 H   0  0  0  0  0  0  0  0  0  0  0  0
  143.0540   76.8779  220.0296 H   0  0  0  0  0  0  0  0  0  0  0  0
  141.6494   76.3339  219.0275 H   0  0  0  0  0  0  0  0  0  0  0  0
  140.3960   76.0910  221.2980 H   0  0  0  0  0  0  0  0  0  0  0  0
  141.0701   76.9890  223.6531 H   0  0  0  0  0  0  0  0  0  0  0  0
  141.4547   79.0966  224.9222 H   0  0  0  0  0  0  0  0  0  0  0  0
  142.0729   81.1735  223.6854 H   0  0  0  0  0  0  0  0  0  0  0  0
  142.2991   81.1280  221.1982 H   0  0  0  0  0  0  0  0  0  0  0  0
  141.9073   79.0154  219.9797 H   0  0  0  0  0  0  0  0  0  0  0  0
  139.2070   70.4442  221.8240 H   0  0  0  0  0  0  0  0  0  0  0  0
  139.1797   68.7352  223.6246 H   0  0  0  0  0  0  0  0  0  0  0  0
  139.6840   68.0970  225.9696 H   0  0  0  0  0  0  0  0  0  0  0  0
  141.4942   71.0556  228.5552 H   0  0  0  0  0  0  0  0  0  0  0  0
  141.4775   72.6994  226.6776 H   0  0  0  0  0  0  0  0  0  0  0  0
  1  2  2  0
  2  3  1  0
  3  4  1  0
  4  5  1  0
  5  6  2  0
  5  7  1  0
  7  8  1  0
  8  9  1  0
  9 10  1  0
 10 11  1  0
 11 12  1  0
 12 13  1  0
 13 14  1  0
 14 15  1  0
 15 16  2  0
 16 17  1  0
 17 18  2  0
 18 19  1  0
 19 20  2  0
  2 21  1  0
 21 22  2  0
 22 23  1  0
 23 24  2  0
 24 25  1  0
 25 26  2  0
 26 27  1  0
 26 28  1  0
 28 29  2  0
 29 30  1  0
 30 31  2  0
 12  7  1  0
 20 15  1  0
 31 21  1  0
 30 24  1  0
  3 32  1  0
  4 33  1  0
  4 34  1  0
  8 35  1  0
  8 36  1  0
  9 37  1  0
  9 38  1  0
 10 39  1  0
 10 40  1  0
 11 41  1  0
 11 42  1  0
 12 43  1  1
 13 44  1  0
 13 45  1  0
 14 46  1  0
 16 47  1  0
 17 48  1  0
 18 49  1  0
 19 50  1  0
 20 51  1  0
 22 52  1  0
 23 53  1  0
 25 54  1  0
 28 55  1  0
 29 56  1  0
M  END
>  <smiles>  (27) 
O=C(NCC(=O)N1CCCC[C@H]1CNc1ccccc1)c1ccc2cc(Cl)ccc2n1

>  <score_type>  (27) 
oracle

>  <origin>  (27) 
autodockgpu

>  <m_score__min__energy>  (27) 
-8.9800000000000004

>  <m_primary>  (27) 
energy

>  <rmsd>  (27) 
3.1984896428314826

>  <m_score__min__rmsd>  (27) 
3.1984896428314826

>  <meeko>  (27) 
{"free_energy": -8.4, "intermolecular_energy": -10.49, "internal_energy": -2.37, "cluster_size": 2, "cluster_id": 3, "rank_in_cluster": 1}

>  <energy>  (27) 
-8.21

>  <cluster_rmsd>  (27) 
0.89

>  <cluster>  (27) 
2

$$$$

     RDKit          3D

 56 59  0  0  0  0  0  0  0  0999 V2000
  139.1210   71.8530  220.6970 O   0  0  0  0  0  0  0  0  0  0  0  0
  139.2380   72.3340  221.8510 C   0  0  0  0  0  0  0  0  0  0  0  0
  139.1900   73.7280  222.1340 N   0  0  0  0  0  0  0  0  0  0  0  0
  138.9940   74.6290  221.0250 C   0  0  0  0  0  0  0  0  0  0  0  0
  139.5410   75.9410  221.3850 C   0  0  0  0  0  0  0  0  0  0  0  0
  139.9520   76.1930  222.5550 O   0  0  0  0  0  0  0  0  0  0  0  0
  139.6430   77.0030  220.4430 N   0  0  0  0  0  0  0  0  0  0  0  0
  138.6810   78.0900  220.4700 C   0  0  0  0  0  0  0  0  0  0  0  0
  137.7850   77.8900  219.2700 C   0  0  0  0  0  0  0  0  0  0  0  0
  138.6090   77.2630  218.1680 C   0  0  0  0  0  0  0  0  0  0  0  0
  140.0530   77.7310  218.2270 C   0  0  0  0  0  0  0  0  0  0  0  0
  140.6780   77.0690  219.4290 C   0  0  1  0  0  0  0  0  0  0  0  0
  141.8700   77.8640  219.9430 C   0  0  0  0  0  0  0  0  0  0  0  0
  141.8760   77.9240  221.3900 N   0  0  0  0  0  0  0  0  0  0  0  0
  141.9010   79.1800  222.0500 C   0  0  0  0  0  0  0  0  0  0  0  0
  141.3000   80.2770  221.4450 C   0  0  0  0  0  0  0  0  0  0  0  0
  141.3050   81.5210  222.0620 C   0  0  0  0  0  0  0  0  0  0  0  0
  141.9220   81.6560  223.3000 C   0  0  0  0  0  0  0  0  0  0  0  0
  142.5260   80.5580  223.9090 C   0  0  0  0  0  0  0  0  0  0  0  0
  142.5010   79.3410  223.2680 C   0  0  0  0  0  0  0  0  0  0  0  0
  139.4360   71.4140  222.9720 C   0  0  0  0  0  0  0  0  0  0  0  0
  139.0200   70.0960  222.9010 C   0  0  0  0  0  0  0  0  0  0  0  0
  139.2060   69.2130  223.9680 C   0  0  0  0  0  0  0  0  0  0  0  0
  139.8180   69.6420  225.1310 C   0  0  0  0  0  0  0  0  0  0  0  0
  140.0230   68.8030  226.2130 C   0  0  0  0  0  0  0  0  0  0  0  0
  140.6460   69.3230  227.3390 C   0  0  0  0  0  0  0  0  0  0  0  0
  140.9340   68.3090  228.7390 Cl  0  0  0  0  0  0  0  0  0  0  0  0
  141.0630   70.6410  227.4110 C   0  0  0  0  0  0  0  0  0  0  0  0
  140.8480   71.4660  226.3180 C   0  0  0  0  0  0  0  0  0  0  0  0
  140.2240   70.9660  225.1720 C   0  0  0  0  0  0  0  0  0  0  0  0
  140.0270   71.7900  224.1220 N   0  0  0  0  0  0  0  0  0  0  0  0
  139.2940   74.0820  223.1190 H   0  0  0  0  0  0  0  0  0  0  0  0
  139.5144   74.2417  220.1366 H   0  0  0  0  0  0  0  0  0  0  0  0
  137.9212   74.7186  220.7990 H   0  0  0  0  0  0  0  0  0  0  0  0
  138.0903   78.0535  221.3972 H   0  0  0  0  0  0  0  0  0  0  0  0
  139.1815   79.0690  220.4378 H   0  0  0  0  0  0  0  0  0  0  0  0
  136.9495   77.2254  219.5351 H   0  0  0  0  0  0  0  0  0  0  0  0
  137.3734   78.8541  218.9367 H   0  0  0  0  0  0  0  0  0  0  0  0
  138.5817   76.1688  218.2779 H   0  0  0  0  0  0  0  0  0  0  0  0
  138.1840   77.5665  217.1999 H   0  0  0  0  0  0  0  0  0  0  0  0
  140.5851   77.4331  217.3115 H   0  0  0  0  0  0  0  0  0  0  0  0
  140.1093   78.8267  218.3066 H   0  0  0  0  0  0  0  0  0  0  0  0
  141.0546   76.0692  219.1674 H   0  0  0  0  0  0  0  0  0  0  0  0
  142.7974   77.3818  219.6002 H   0  0  0  0  0  0  0  0  0  0  0  0
  141.7984   78.8899  219.5525 H   0  0  0  0  0  0  0  0  0  0  0  0
  141.8630   77.0490  221.9790 H   0  0  0  0  0  0  0  0  0  0  0  0
  140.8143   80.1586  220.4652 H   0  0  0  0  0  0  0  0  0  0  0  0
  140.8280   82.3862  221.5784 H   0  0  0  0  0  0  0  0  0  0  0  0
  141.9335   82.6349  223.8017 H   0  0  0  0  0  0  0  0  0  0  0  0
  143.0158   80.6627  224.8883 H   0  0  0  0  0  0  0  0  0  0  0  0
  142.9769   78.4735  223.7486 H   0  0  0  0  0  0  0  0  0  0  0  0
  138.5318   69.7352  221.9837 H   0  0  0  0  0  0  0  0  0  0  0  0
  138.8637   68.1712  223.8821 H   0  0  0  0  0  0  0  0  0  0  0  0
  139.7006   67.7518  226.1811 H   0  0  0  0  0  0  0  0  0  0  0  0
  141.5547   71.0256  228.3167 H   0  0  0  0  0  0  0  0  0  0  0  0
  141.1696   72.5174  226.3529 H   0  0  0  0  0  0  0  0  0  0  0  0
  1  2  2  0
  2  3  1  0
  3  4  1  0
  4  5  1  0
  5  6  2  0
  5  7  1  0
  7  8  1  0
  8  9  1  0
  9 10  1  0
 10 11  1  0
 11 12  1  0
 12 13  1  0
 13 14  1  0
 14 15  1  0
 15 16  2  0
 16 17  1  0
 17 18  2  0
 18 19  1  0
 19 20  2  0
  2 21  1  0
 21 22  2  0
 22 23  1  0
 23 24  2  0
 24 25  1  0
 25 26  2  0
 26 27  1  0
 26 28  1  0
 28 29  2  0
 29 30  1  0
 30 31  2  0
 12  7  1  0
 20 15  1  0
 31 21  1  0
 30 24  1  0
  3 32  1  0
  4 33  1  0
  4 34  1  0
  8 35  1  0
  8 36  1  0
  9 37  1  0
  9 38  1  0
 10 39  1  0
 10 40  1  0
 11 41  1  0
 11 42  1  0
 12 43  1  6
 13 44  1  0
 13 45  1  0
 14 46  1  0
 16 47  1  0
 17 48  1  0
 18 49  1  0
 19 50  1  0
 20 51  1  0
 22 52  1  0
 23 53  1  0
 25 54  1  0
 28 55  1  0
 29 56  1  0
M  END
>  <smiles>  (28) 
O=C(NCC(=O)N1CCCC[C@H]1CNc1ccccc1)c1ccc2cc(Cl)ccc2n1

>  <score_type>  (28) 
oracle

>  <origin>  (28) 
autodockgpu

>  <m_score__min__energy>  (28) 
-8.9800000000000004

>  <m_primary>  (28) 
energy

>  <rmsd>  (28) 
2.169831314236488

>  <m_score__min__rmsd>  (28) 
2.169831314236488

>  <meeko>  (28) 
{"free_energy": -8.38, "intermolecular_energy": -10.47, "internal_energy": -2.92, "cluster_size": 27, "cluster_id": 2, "rank_in_cluster": 10}

>  <energy>  (28) 
-8.18

>  <cluster_rmsd>  (28) 
1.21

>  <cluster>  (28) 
2

$$$$

     RDKit          3D

 56 59  0  0  0  0  0  0  0  0999 V2000
  140.0870   72.2490  220.7970 O   0  0  0  0  0  0  0  0  0  0  0  0
  139.4960   72.4920  221.8760 C   0  0  0  0  0  0  0  0  0  0  0  0
  138.6880   73.6430  222.0930 N   0  0  0  0  0  0  0  0  0  0  0  0
  138.5480   74.5760  221.0010 C   0  0  0  0  0  0  0  0  0  0  0  0
  138.8740   75.9200  221.4890 C   0  0  0  0  0  0  0  0  0  0  0  0
  138.0180   76.6400  222.0800 O   0  0  0  0  0  0  0  0  0  0  0  0
  140.1670   76.4900  221.3270 N   0  0  0  0  0  0  0  0  0  0  0  0
  141.0760   76.5590  222.4580 C   0  0  0  0  0  0  0  0  0  0  0  0
  141.1270   78.0120  222.8700 C   0  0  0  0  0  0  0  0  0  0  0  0
  140.9500   78.8590  221.6300 C   0  0  0  0  0  0  0  0  0  0  0  0
  141.5510   78.1800  220.4100 C   0  0  0  0  0  0  0  0  0  0  0  0
  140.6490   77.0210  220.0660 C   0  0  1  0  0  0  0  0  0  0  0  0
  141.3990   75.9470  219.2920 C   0  0  0  0  0  0  0  0  0  0  0  0
  141.5540   74.7440  220.0830 N   0  0  0  0  0  0  0  0  0  0  0  0
  142.8480   74.2090  220.3180 C   0  0  0  0  0  0  0  0  0  0  0  0
  142.9810   72.8620  220.6290 C   0  0  0  0  0  0  0  0  0  0  0  0
  144.2300   72.3050  220.8650 C   0  0  0  0  0  0  0  0  0  0  0  0
  145.3550   73.1180  220.7860 C   0  0  0  0  0  0  0  0  0  0  0  0
  145.2260   74.4690  220.4740 C   0  0  0  0  0  0  0  0  0  0  0  0
  143.9720   74.9870  220.2470 C   0  0  0  0  0  0  0  0  0  0  0  0
  139.6410   71.5410  222.9800 C   0  0  0  0  0  0  0  0  0  0  0  0
  139.2210   70.2280  222.8550 C   0  0  0  0  0  0  0  0  0  0  0  0
  139.3580   69.3150  223.9050 C   0  0  0  0  0  0  0  0  0  0  0  0
  139.9210   69.7090  225.1040 C   0  0  0  0  0  0  0  0  0  0  0  0
  140.0760   68.8400  226.1710 C   0  0  0  0  0  0  0  0  0  0  0  0
  140.6530   69.3250  227.3360 C   0  0  0  0  0  0  0  0  0  0  0  0
  140.8750   68.2720  228.7190 Cl  0  0  0  0  0  0  0  0  0  0  0  0
  141.0730   70.6380  227.4610 C   0  0  0  0  0  0  0  0  0  0  0  0
  140.9090   71.4940  226.3830 C   0  0  0  0  0  0  0  0  0  0  0  0
  140.3310   71.0290  225.1980 C   0  0  0  0  0  0  0  0  0  0  0  0
  140.1840   71.8820  224.1640 N   0  0  0  0  0  0  0  0  0  0  0  0
  138.2120   73.8020  223.0170 H   0  0  0  0  0  0  0  0  0  0  0  0
  139.2353   74.3003  220.1876 H   0  0  0  0  0  0  0  0  0  0  0  0
  137.5168   74.5549  220.6187 H   0  0  0  0  0  0  0  0  0  0  0  0
  140.7010   75.9406  223.2868 H   0  0  0  0  0  0  0  0  0  0  0  0
  142.0749   76.1823  222.1929 H   0  0  0  0  0  0  0  0  0  0  0  0
  140.3191   78.2251  223.5854 H   0  0  0  0  0  0  0  0  0  0  0  0
  142.0901   78.2378  223.3512 H   0  0  0  0  0  0  0  0  0  0  0  0
  139.8760   79.0221  221.4572 H   0  0  0  0  0  0  0  0  0  0  0  0
  141.4677   79.8170  221.7858 H   0  0  0  0  0  0  0  0  0  0  0  0
  141.5972   78.8864  219.5681 H   0  0  0  0  0  0  0  0  0  0  0  0
  142.5751   77.8350  220.6155 H   0  0  0  0  0  0  0  0  0  0  0  0
  139.8203   77.3526  219.4230 H   0  0  0  0  0  0  0  0  0  0  0  0
  140.8374   75.7054  218.3776 H   0  0  0  0  0  0  0  0  0  0  0  0
  142.3990   76.3314  219.0426 H   0  0  0  0  0  0  0  0  0  0  0  0
  140.7240   74.2430  220.4980 H   0  0  0  0  0  0  0  0  0  0  0  0
  142.0841   72.2280  220.6891 H   0  0  0  0  0  0  0  0  0  0  0  0
  144.3283   71.2373  221.1107 H   0  0  0  0  0  0  0  0  0  0  0  0
  146.3521   72.6919  220.9709 H   0  0  0  0  0  0  0  0  0  0  0  0
  146.1151   75.1135  220.4099 H   0  0  0  0  0  0  0  0  0  0  0  0
  143.8698   76.0545  220.0020 H   0  0  0  0  0  0  0  0  0  0  0  0
  138.7694   69.8955  221.9087 H   0  0  0  0  0  0  0  0  0  0  0  0
  139.0158   68.2776  223.7760 H   0  0  0  0  0  0  0  0  0  0  0  0
  139.7500   67.7920  226.0969 H   0  0  0  0  0  0  0  0  0  0  0  0
  141.5277   70.9950  228.3968 H   0  0  0  0  0  0  0  0  0  0  0  0
  141.2345   72.5419  226.4602 H   0  0  0  0  0  0  0  0  0  0  0  0
  1  2  2  0
  2  3  1  0
  3  4  1  0
  4  5  1  0
  5  6  2  0
  5  7  1  0
  7  8  1  0
  8  9  1  0
  9 10  1  0
 10 11  1  0
 11 12  1  0
 12 13  1  0
 13 14  1  0
 14 15  1  0
 15 16  2  0
 16 17  1  0
 17 18  2  0
 18 19  1  0
 19 20  2  0
  2 21  1  0
 21 22  2  0
 22 23  1  0
 23 24  2  0
 24 25  1  0
 25 26  2  0
 26 27  1  0
 26 28  1  0
 28 29  2  0
 29 30  1  0
 30 31  2  0
 12  7  1  0
 20 15  1  0
 31 21  1  0
 30 24  1  0
  3 32  1  0
  4 33  1  0
  4 34  1  0
  8 35  1  0
  8 36  1  0
  9 37  1  0
  9 38  1  0
 10 39  1  0
 10 40  1  0
 11 41  1  0
 11 42  1  0
 12 43  1  6
 13 44  1  0
 13 45  1  0
 14 46  1  0
 16 47  1  0
 17 48  1  0
 18 49  1  0
 19 50  1  0
 20 51  1  0
 22 52  1  0
 23 53  1  0
 25 54  1  0
 28 55  1  0
 29 56  1  0
M  END
>  <smiles>  (29) 
O=C(NCC(=O)N1CCCC[C@H]1CNc1ccccc1)c1ccc2cc(Cl)ccc2n1

>  <score_type>  (29) 
oracle

>  <origin>  (29) 
autodockgpu

>  <m_score__min__energy>  (29) 
-8.9800000000000004

>  <m_primary>  (29) 
energy

>  <rmsd>  (29) 
4.60574700688005

>  <m_score__min__rmsd>  (29) 
4.60574700688005

>  <meeko>  (29) 
{"free_energy": -8.32, "intermolecular_energy": -10.41, "internal_energy": -2.84, "cluster_size": 11, "cluster_id": 1, "rank_in_cluster": 7}

>  <energy>  (29) 
-8.14

>  <cluster_rmsd>  (29) 
0.95

>  <cluster>  (29) 
2

$$$$

     RDKit          3D

 56 59  0  0  0  0  0  0  0  0999 V2000
  141.2010   72.8460  221.4240 O   0  0  0  0  0  0  0  0  0  0  0  0
  140.2880   72.8980  222.2830 C   0  0  0  0  0  0  0  0  0  0  0  0
  139.2830   73.9050  222.3090 N   0  0  0  0  0  0  0  0  0  0  0  0
  139.3260   74.9190  221.2840 C   0  0  0  0  0  0  0  0  0  0  0  0
  138.5630   76.0830  221.7440 C   0  0  0  0  0  0  0  0  0  0  0  0
  137.5210   75.9590  222.4510 O   0  0  0  0  0  0  0  0  0  0  0  0
  138.9480   77.4150  221.4230 N   0  0  0  0  0  0  0  0  0  0  0  0
  138.8880   78.4500  222.4390 C   0  0  0  0  0  0  0  0  0  0  0  0
  137.7090   79.3260  222.0810 C   0  0  0  0  0  0  0  0  0  0  0  0
  137.5780   79.3430  220.5740 C   0  0  0  0  0  0  0  0  0  0  0  0
  138.9370   79.2310  219.9030 C   0  0  0  0  0  0  0  0  0  0  0  0
  139.4090   77.8130  220.1070 C   0  0  1  0  0  0  0  0  0  0  0  0
  140.9260   77.7180  220.0290 C   0  0  0  0  0  0  0  0  0  0  0  0
  141.5150   77.6330  221.3500 N   0  0  0  0  0  0  0  0  0  0  0  0
  141.7880   78.8170  222.0840 C   0  0  0  0  0  0  0  0  0  0  0  0
  141.9530   78.7390  223.4610 C   0  0  0  0  0  0  0  0  0  0  0  0
  142.2210   79.8760  224.2110 C   0  0  0  0  0  0  0  0  0  0  0  0
  142.3240   81.1010  223.5630 C   0  0  0  0  0  0  0  0  0  0  0  0
  142.1590   81.1830  222.1830 C   0  0  0  0  0  0  0  0  0  0  0  0
  141.8940   80.0350  221.4710 C   0  0  0  0  0  0  0  0  0  0  0  0
  140.2490   71.8660  223.3210 C   0  0  0  0  0  0  0  0  0  0  0  0
  139.7880   70.5900  223.0460 C   0  0  0  0  0  0  0  0  0  0  0  0
  139.7490   69.6000  224.0330 C   0  0  0  0  0  0  0  0  0  0  0  0
  140.1750   69.8780  225.3180 C   0  0  0  0  0  0  0  0  0  0  0  0
  140.1540   68.9290  226.3270 C   0  0  0  0  0  0  0  0  0  0  0  0
  140.6010   69.3000  227.5870 C   0  0  0  0  0  0  0  0  0  0  0  0
  140.5980   68.1420  228.9040 Cl  0  0  0  0  0  0  0  0  0  0  0  0
  141.0620   70.5760  227.8620 C   0  0  0  0  0  0  0  0  0  0  0  0
  141.0750   71.5120  226.8400 C   0  0  0  0  0  0  0  0  0  0  0  0
  140.6300   71.1630  225.5620 C   0  0  0  0  0  0  0  0  0  0  0  0
  140.6540   72.0930  224.5850 N   0  0  0  0  0  0  0  0  0  0  0  0
  138.5380   73.9050  223.0510 H   0  0  0  0  0  0  0  0  0  0  0  0
  140.3696   75.2111  221.0955 H   0  0  0  0  0  0  0  0  0  0  0  0
  138.8907   74.5293  220.3520 H   0  0  0  0  0  0  0  0  0  0  0  0
  138.7414   78.0009  223.4324 H   0  0  0  0  0  0  0  0  0  0  0  0
  139.8217   79.0304  222.4750 H   0  0  0  0  0  0  0  0  0  0  0  0
  136.7915   78.9186  222.5306 H   0  0  0  0  0  0  0  0  0  0  0  0
  137.8622   80.3464  222.4622 H   0  0  0  0  0  0  0  0  0  0  0  0
  136.9512   78.4958  220.2587 H   0  0  0  0  0  0  0  0  0  0  0  0
  137.1194   80.2971  220.2749 H   0  0  0  0  0  0  0  0  0  0  0  0
  138.8479   79.4494  218.8286 H   0  0  0  0  0  0  0  0  0  0  0  0
  139.6498   79.9497  220.3335 H   0  0  0  0  0  0  0  0  0  0  0  0
  139.0100   77.1552  219.3208 H   0  0  0  0  0  0  0  0  0  0  0  0
  141.2001   76.8202  219.4556 H   0  0  0  0  0  0  0  0  0  0  0  0
  141.3066   78.6247  219.5360 H   0  0  0  0  0  0  0  0  0  0  0  0
  141.7510   76.7050  221.7910 H   0  0  0  0  0  0  0  0  0  0  0  0
  141.8703   77.7640  223.9635 H   0  0  0  0  0  0  0  0  0  0  0  0
  142.3498   79.8083  225.3013 H   0  0  0  0  0  0  0  0  0  0  0  0
  142.5371   82.0107  224.1435 H   0  0  0  0  0  0  0  0  0  0  0  0
  142.2393   82.1520  221.6686 H   0  0  0  0  0  0  0  0  0  0  0  0
  141.7641   80.0990  220.3806 H   0  0  0  0  0  0  0  0  0  0  0  0
  139.4449   70.3495  222.0289 H   0  0  0  0  0  0  0  0  0  0  0  0
  139.3773   68.5948  223.7853 H   0  0  0  0  0  0  0  0  0  0  0  0
  139.7925   67.9081  226.1343 H   0  0  0  0  0  0  0  0  0  0  0  0
  141.4108   70.8415  228.8709 H   0  0  0  0  0  0  0  0  0  0  0  0
  141.4365   72.5324  227.0353 H   0  0  0  0  0  0  0  0  0  0  0  0
  1  2  2  0
  2  3  1  0
  3  4  1  0
  4  5  1  0
  5  6  2  0
  5  7  1  0
  7  8  1  0
  8  9  1  0
  9 10  1  0
 10 11  1  0
 11 12  1  0
 12 13  1  0
 13 14  1  0
 14 15  1  0
 15 16  2  0
 16 17  1  0
 17 18  2  0
 18 19  1  0
 19 20  2  0
  2 21  1  0
 21 22  2  0
 22 23  1  0
 23 24  2  0
 24 25  1  0
 25 26  2  0
 26 27  1  0
 26 28  1  0
 28 29  2  0
 29 30  1  0
 30 31  2  0
 12  7  1  0
 20 15  1  0
 31 21  1  0
 30 24  1  0
  3 32  1  0
  4 33  1  0
  4 34  1  0
  8 35  1  0
  8 36  1  0
  9 37  1  0
  9 38  1  0
 10 39  1  0
 10 40  1  0
 11 41  1  0
 11 42  1  0
 12 43  1  6
 13 44  1  0
 13 45  1  0
 14 46  1  0
 16 47  1  0
 17 48  1  0
 18 49  1  0
 19 50  1  0
 20 51  1  0
 22 52  1  0
 23 53  1  0
 25 54  1  0
 28 55  1  0
 29 56  1  0
M  END
>  <smiles>  (30) 
O=C(NCC(=O)N1CCCC[C@H]1CNc1ccccc1)c1ccc2cc(Cl)ccc2n1

>  <score_type>  (30) 
oracle

>  <origin>  (30) 
autodockgpu

>  <m_score__min__energy>  (30) 
-8.9800000000000004

>  <m_primary>  (30) 
energy

>  <rmsd>  (30) 
3.183263888493597

>  <m_score__min__rmsd>  (30) 
3.183263888493597

>  <meeko>  (30) 
{"free_energy": -8.63, "intermolecular_energy": -10.72, "internal_energy": -2.0, "cluster_size": 27, "cluster_id": 2, "rank_in_cluster": 5}

>  <energy>  (30) 
-8.13

>  <cluster_rmsd>  (30) 
0.94

>  <cluster>  (30) 
2

$$$$

     RDKit          3D

 56 59  0  0  0  0  0  0  0  0999 V2000
  140.7450   72.0990  221.0190 O   0  0  0  0  0  0  0  0  0  0  0  0
  140.0350   72.3520  222.0220 C   0  0  0  0  0  0  0  0  0  0  0  0
  139.2120   73.5070  222.1360 N   0  0  0  0  0  0  0  0  0  0  0  0
  139.2000   74.4320  221.0290 C   0  0  0  0  0  0  0  0  0  0  0  0
  139.7300   75.7200  221.4890 C   0  0  0  0  0  0  0  0  0  0  0  0
  140.9500   75.8690  221.7900 O   0  0  0  0  0  0  0  0  0  0  0  0
  138.9060   76.8720  221.6240 N   0  0  0  0  0  0  0  0  0  0  0  0
  138.2520   77.1510  222.8900 C   0  0  0  0  0  0  0  0  0  0  0  0
  136.7860   76.8450  222.6840 C   0  0  0  0  0  0  0  0  0  0  0  0
  136.4380   77.1590  221.2460 C   0  0  0  0  0  0  0  0  0  0  0  0
  137.2650   78.3220  220.7220 C   0  0  0  0  0  0  0  0  0  0  0  0
  138.6730   77.8120  220.5440 C   0  0  1  0  0  0  0  0  0  0  0  0
  139.6850   78.9470  220.6050 C   0  0  0  0  0  0  0  0  0  0  0  0
  140.8690   78.5550  221.3410 N   0  0  0  0  0  0  0  0  0  0  0  0
  141.4550   79.4480  222.2750 C   0  0  0  0  0  0  0  0  0  0  0  0
  140.6470   80.3640  222.9380 C   0  0  0  0  0  0  0  0  0  0  0  0
  141.1870   81.2530  223.8580 C   0  0  0  0  0  0  0  0  0  0  0  0
  142.5530   81.2150  224.1100 C   0  0  0  0  0  0  0  0  0  0  0  0
  143.3660   80.2980  223.4480 C   0  0  0  0  0  0  0  0  0  0  0  0
  142.7960   79.4320  222.5420 C   0  0  0  0  0  0  0  0  0  0  0  0
  140.0500   71.4090  223.1420 C   0  0  0  0  0  0  0  0  0  0  0  0
  139.5690   70.1190  223.0000 C   0  0  0  0  0  0  0  0  0  0  0  0
  139.5810   69.2140  224.0650 C   0  0  0  0  0  0  0  0  0  0  0  0
  140.0790   69.5930  225.2970 C   0  0  0  0  0  0  0  0  0  0  0  0
  140.1110   68.7300  226.3810 C   0  0  0  0  0  0  0  0  0  0  0  0
  140.6300   69.1990  227.5790 C   0  0  0  0  0  0  0  0  0  0  0  0
  140.6970   68.1540  228.9840 Cl  0  0  0  0  0  0  0  0  0  0  0  0
  141.1120   70.4890  227.7210 C   0  0  0  0  0  0  0  0  0  0  0  0
  141.0720   71.3380  226.6270 C   0  0  0  0  0  0  0  0  0  0  0  0
  140.5540   70.8900  225.4080 C   0  0  0  0  0  0  0  0  0  0  0  0
  140.5260   71.7360  224.3580 N   0  0  0  0  0  0  0  0  0  0  0  0
  138.6340   73.6740  222.9990 H   0  0  0  0  0  0  0  0  0  0  0  0
  139.8280   74.0427  220.2141 H   0  0  0  0  0  0  0  0  0  0  0  0
  138.1726   74.5598  220.6575 H   0  0  0  0  0  0  0  0  0  0  0  0
  138.6673   76.5114  223.6828 H   0  0  0  0  0  0  0  0  0  0  0  0
  138.4039   78.1961  223.1978 H   0  0  0  0  0  0  0  0  0  0  0  0
  136.5945   75.7816  222.8903 H   0  0  0  0  0  0  0  0  0  0  0  0
  136.1708   77.4505  223.3659 H   0  0  0  0  0  0  0  0  0  0  0  0
  136.6347   76.2712  220.6271 H   0  0  0  0  0  0  0  0  0  0  0  0
  135.3750   77.4376  221.1976 H   0  0  0  0  0  0  0  0  0  0  0  0
  136.8632   78.6681  219.7583 H   0  0  0  0  0  0  0  0  0  0  0  0
  137.2387   79.1708  221.4211 H   0  0  0  0  0  0  0  0  0  0  0  0
  138.7909   77.3363  219.5592 H   0  0  0  0  0  0  0  0  0  0  0  0
  139.9749   79.2245  219.5808 H   0  0  0  0  0  0  0  0  0  0  0  0
  139.2206   79.7999  221.1216 H   0  0  0  0  0  0  0  0  0  0  0  0
  141.3180   77.6100  221.2030 H   0  0  0  0  0  0  0  0  0  0  0  0
  139.5668   80.3850  222.7315 H   0  0  0  0  0  0  0  0  0  0  0  0
  140.5431   81.9765  224.3795 H   0  0  0  0  0  0  0  0  0  0  0  0
  142.9948   81.9130  224.8364 H   0  0  0  0  0  0  0  0  0  0  0  0
  144.4475   80.2662  223.6461 H   0  0  0  0  0  0  0  0  0  0  0  0
  143.4370   78.7073  222.0186 H   0  0  0  0  0  0  0  0  0  0  0  0
  139.1682   69.7988  222.0269 H   0  0  0  0  0  0  0  0  0  0  0  0
  139.1921   68.1950  223.9218 H   0  0  0  0  0  0  0  0  0  0  0  0
  139.7347   67.7001  226.2937 H   0  0  0  0  0  0  0  0  0  0  0  0
  141.5187   70.8331  228.6834 H   0  0  0  0  0  0  0  0  0  0  0  0
  141.4488   72.3675  226.7176 H   0  0  0  0  0  0  0  0  0  0  0  0
  1  2  2  0
  2  3  1  0
  3  4  1  0
  4  5  1  0
  5  6  2  0
  5  7  1  0
  7  8  1  0
  8  9  1  0
  9 10  1  0
 10 11  1  0
 11 12  1  0
 12 13  1  0
 13 14  1  0
 14 15  1  0
 15 16  2  0
 16 17  1  0
 17 18  2  0
 18 19  1  0
 19 20  2  0
  2 21  1  0
 21 22  2  0
 22 23  1  0
 23 24  2  0
 24 25  1  0
 25 26  2  0
 26 27  1  0
 26 28  1  0
 28 29  2  0
 29 30  1  0
 30 31  2  0
 12  7  1  0
 20 15  1  0
 31 21  1  0
 30 24  1  0
  3 32  1  0
  4 33  1  0
  4 34  1  0
  8 35  1  0
  8 36  1  0
  9 37  1  0
  9 38  1  0
 10 39  1  0
 10 40  1  0
 11 41  1  0
 11 42  1  0
 12 43  1  6
 13 44  1  0
 13 45  1  0
 14 46  1  0
 16 47  1  0
 17 48  1  0
 18 49  1  0
 19 50  1  0
 20 51  1  0
 22 52  1  0
 23 53  1  0
 25 54  1  0
 28 55  1  0
 29 56  1  0
M  END
>  <smiles>  (31) 
O=C(NCC(=O)N1CCCC[C@H]1CNc1ccccc1)c1ccc2cc(Cl)ccc2n1

>  <score_type>  (31) 
oracle

>  <origin>  (31) 
autodockgpu

>  <m_score__min__energy>  (31) 
-8.9800000000000004

>  <m_primary>  (31) 
energy

>  <rmsd>  (31) 
3.173322513583425

>  <m_score__min__rmsd>  (31) 
3.173322513583425

>  <meeko>  (31) 
{"free_energy": -8.21, "intermolecular_energy": -10.3, "internal_energy": -2.25, "cluster_size": 27, "cluster_id": 2, "rank_in_cluster": 16}

>  <energy>  (31) 
-8.08

>  <cluster_rmsd>  (31) 
1.49

>  <cluster>  (31) 
2

$$$$

     RDKit          3D

 56 59  0  0  0  0  0  0  0  0999 V2000
  140.8190   73.9630  221.9540 O   0  0  0  0  0  0  0  0  0  0  0  0
  140.0010   73.0170  221.8490 C   0  0  0  0  0  0  0  0  0  0  0  0
  139.1450   72.8320  220.7280 N   0  0  0  0  0  0  0  0  0  0  0  0
  139.2300   73.7950  219.6560 C   0  0  0  0  0  0  0  0  0  0  0  0
  138.2290   74.8410  219.8850 C   0  0  0  0  0  0  0  0  0  0  0  0
  137.7320   75.5080  218.9310 O   0  0  0  0  0  0  0  0  0  0  0  0
  137.7580   75.1660  221.1880 N   0  0  0  0  0  0  0  0  0  0  0  0
  136.9470   74.2130  221.9240 C   0  0  0  0  0  0  0  0  0  0  0  0
  135.5390   74.7610  221.9140 C   0  0  0  0  0  0  0  0  0  0  0  0
  135.6220   76.2700  221.9170 C   0  0  0  0  0  0  0  0  0  0  0  0
  136.8400   76.7520  222.6880 C   0  0  0  0  0  0  0  0  0  0  0  0
  138.0480   76.4260  221.8460 C   0  0  1  0  0  0  0  0  0  0  0  0
  139.3010   76.3000  222.6990 C   0  0  0  0  0  0  0  0  0  0  0  0
  140.4840   76.6740  221.9520 N   0  0  0  0  0  0  0  0  0  0  0  0
  141.0820   77.9450  222.1540 C   0  0  0  0  0  0  0  0  0  0  0  0
  141.4580   78.3230  223.4370 C   0  0  0  0  0  0  0  0  0  0  0  0
  142.0450   79.5590  223.6720 C   0  0  0  0  0  0  0  0  0  0  0  0
  142.2530   80.4200  222.6010 C   0  0  0  0  0  0  0  0  0  0  0  0
  141.8770   80.0450  221.3130 C   0  0  0  0  0  0  0  0  0  0  0  0
  141.2980   78.8120  221.1180 C   0  0  0  0  0  0  0  0  0  0  0  0
  139.9200   72.0430  222.9390 C   0  0  0  0  0  0  0  0  0  0  0  0
  139.2230   70.8560  222.7900 C   0  0  0  0  0  0  0  0  0  0  0  0
  139.1420   69.9220  223.8280 C   0  0  0  0  0  0  0  0  0  0  0  0
  139.7630   70.1670  225.0380 C   0  0  0  0  0  0  0  0  0  0  0  0
  139.7100   69.2720  226.0930 C   0  0  0  0  0  0  0  0  0  0  0  0
  140.3640   69.6030  227.2710 C   0  0  0  0  0  0  0  0  0  0  0  0
  140.3320   68.5100  228.6400 Cl  0  0  0  0  0  0  0  0  0  0  0  0
  141.0610   70.7900  227.4200 C   0  0  0  0  0  0  0  0  0  0  0  0
  141.1030   71.6740  226.3530 C   0  0  0  0  0  0  0  0  0  0  0  0
  140.4530   71.3630  225.1560 C   0  0  0  0  0  0  0  0  0  0  0  0
  140.5090   72.2410  224.1340 N   0  0  0  0  0  0  0  0  0  0  0  0
  138.4760   72.0220  220.6870 H   0  0  0  0  0  0  0  0  0  0  0  0
  140.2351   74.2417  219.6383 H   0  0  0  0  0  0  0  0  0  0  0  0
  139.0422   73.3005  218.6915 H   0  0  0  0  0  0  0  0  0  0  0  0
  136.9765   73.2286  221.4340 H   0  0  0  0  0  0  0  0  0  0  0  0
  137.3180   74.0799  222.9510 H   0  0  0  0  0  0  0  0  0  0  0  0
  135.0121   74.4184  221.0112 H   0  0  0  0  0  0  0  0  0  0  0  0
  134.9866   74.4081  222.7974 H   0  0  0  0  0  0  0  0  0  0  0  0
  135.6898   76.6277  220.8790 H   0  0  0  0  0  0  0  0  0  0  0  0
  134.7204   76.6674  222.4061 H   0  0  0  0  0  0  0  0  0  0  0  0
  136.7769   77.8374  222.8550 H   0  0  0  0  0  0  0  0  0  0  0  0
  136.9021   76.2638  223.6718 H   0  0  0  0  0  0  0  0  0  0  0  0
  138.2414   77.2288  221.1193 H   0  0  0  0  0  0  0  0  0  0  0  0
  139.2065   76.9591  223.5746 H   0  0  0  0  0  0  0  0  0  0  0  0
  139.4046   75.2506  223.0122 H   0  0  0  0  0  0  0  0  0  0  0  0
  140.9240   76.0210  221.2500 H   0  0  0  0  0  0  0  0  0  0  0  0
  141.2884   77.6340  224.2775 H   0  0  0  0  0  0  0  0  0  0  0  0
  142.3409   79.8523  224.6901 H   0  0  0  0  0  0  0  0  0  0  0  0
  142.7170   81.4027  222.7712 H   0  0  0  0  0  0  0  0  0  0  0  0
  142.0406   80.7249  220.4639 H   0  0  0  0  0  0  0  0  0  0  0  0
  141.0007   78.5154  220.1013 H   0  0  0  0  0  0  0  0  0  0  0  0
  138.7219   70.6428  221.8342 H   0  0  0  0  0  0  0  0  0  0  0  0
  138.5810   68.9874  223.6804 H   0  0  0  0  0  0  0  0  0  0  0  0
  139.1630   68.3222  225.9996 H   0  0  0  0  0  0  0  0  0  0  0  0
  141.5709   71.0267  228.3655 H   0  0  0  0  0  0  0  0  0  0  0  0
  141.6499   72.6235  226.4491 H   0  0  0  0  0  0  0  0  0  0  0  0
  1  2  2  0
  2  3  1  0
  3  4  1  0
  4  5  1  0
  5  6  2  0
  5  7  1  0
  7  8  1  0
  8  9  1  0
  9 10  1  0
 10 11  1  0
 11 12  1  0
 12 13  1  0
 13 14  1  0
 14 15  1  0
 15 16  2  0
 16 17  1  0
 17 18  2  0
 18 19  1  0
 19 20  2  0
  2 21  1  0
 21 22  2  0
 22 23  1  0
 23 24  2  0
 24 25  1  0
 25 26  2  0
 26 27  1  0
 26 28  1  0
 28 29  2  0
 29 30  1  0
 30 31  2  0
 12  7  1  0
 20 15  1  0
 31 21  1  0
 30 24  1  0
  3 32  1  0
  4 33  1  0
  4 34  1  0
  8 35  1  0
  8 36  1  0
  9 37  1  0
  9 38  1  0
 10 39  1  0
 10 40  1  0
 11 41  1  0
 11 42  1  0
 12 43  1  6
 13 44  1  0
 13 45  1  0
 14 46  1  0
 16 47  1  0
 17 48  1  0
 18 49  1  0
 19 50  1  0
 20 51  1  0
 22 52  1  0
 23 53  1  0
 25 54  1  0
 28 55  1  0
 29 56  1  0
M  END
>  <smiles>  (32) 
O=C(NCC(=O)N1CCCC[C@H]1CNc1ccccc1)c1ccc2cc(Cl)ccc2n1

>  <score_type>  (32) 
oracle

>  <origin>  (32) 
autodockgpu

>  <m_score__min__energy>  (32) 
-8.9800000000000004

>  <m_primary>  (32) 
energy

>  <rmsd>  (32) 
3.485307654262242

>  <m_score__min__rmsd>  (32) 
3.485307654262242

>  <meeko>  (32) 
{"free_energy": -7.78, "intermolecular_energy": -9.87, "internal_energy": -2.41, "cluster_size": 27, "cluster_id": 2, "rank_in_cluster": 24}

>  <energy>  (32) 
-7.97

>  <cluster_rmsd>  (32) 
1.58

>  <cluster>  (32) 
2

$$$$

     RDKit          3D

 56 59  0  0  0  0  0  0  0  0999 V2000
  137.2440   71.1470  221.0980 O   0  0  0  0  0  0  0  0  0  0  0  0
  137.6910   71.7450  222.1070 C   0  0  0  0  0  0  0  0  0  0  0  0
  137.7410   73.1620  222.2270 N   0  0  0  0  0  0  0  0  0  0  0  0
  137.2470   73.9450  221.1210 C   0  0  0  0  0  0  0  0  0  0  0  0
  138.3180   74.8330  220.6590 C   0  0  0  0  0  0  0  0  0  0  0  0
  138.1060   76.0520  220.3980 O   0  0  0  0  0  0  0  0  0  0  0  0
  139.6540   74.3770  220.4800 N   0  0  0  0  0  0  0  0  0  0  0  0
  140.0910   73.9090  219.1770 C   0  0  0  0  0  0  0  0  0  0  0  0
  140.2120   72.4060  219.2870 C   0  0  0  0  0  0  0  0  0  0  0  0
  140.6280   72.0710  220.7020 C   0  0  0  0  0  0  0  0  0  0  0  0
  141.5180   73.1570  221.2850 C   0  0  0  0  0  0  0  0  0  0  0  0
  140.6340   74.3500  221.5490 C   0  0  1  0  0  0  0  0  0  0  0  0
  141.4380   75.6430  221.5600 C   0  0  0  0  0  0  0  0  0  0  0  0
  140.5810   76.7910  221.7730 N   0  0  0  0  0  0  0  0  0  0  0  0
  141.1440   78.0420  222.1360 C   0  0  0  0  0  0  0  0  0  0  0  0
  141.4510   78.2880  223.4680 C   0  0  0  0  0  0  0  0  0  0  0  0
  142.0030   79.5000  223.8600 C   0  0  0  0  0  0  0  0  0  0  0  0
  142.2470   80.4710  222.8960 C   0  0  0  0  0  0  0  0  0  0  0  0
  141.9420   80.2280  221.5590 C   0  0  0  0  0  0  0  0  0  0  0  0
  141.3950   79.0150  221.2070 C   0  0  0  0  0  0  0  0  0  0  0  0
  138.1900   70.9450  223.2270 C   0  0  0  0  0  0  0  0  0  0  0  0
  137.7930   69.6300  223.4020 C   0  0  0  0  0  0  0  0  0  0  0  0
  138.2670   68.8610  224.4690 C   0  0  0  0  0  0  0  0  0  0  0  0
  139.1520   69.4040  225.3820 C   0  0  0  0  0  0  0  0  0  0  0  0
  139.6470   68.6800  226.4540 C   0  0  0  0  0  0  0  0  0  0  0  0
  140.5320   69.3080  227.3190 C   0  0  0  0  0  0  0  0  0  0  0  0
  141.1920   68.4430  228.6930 Cl  0  0  0  0  0  0  0  0  0  0  0  0
  140.9290   70.6230  227.1430 C   0  0  0  0  0  0  0  0  0  0  0  0
  140.4230   71.3310  226.0650 C   0  0  0  0  0  0  0  0  0  0  0  0
  139.5310   70.7210  225.1790 C   0  0  0  0  0  0  0  0  0  0  0  0
  139.0530   71.4330  224.1380 N   0  0  0  0  0  0  0  0  0  0  0  0
  138.1250   73.6160  223.0940 H   0  0  0  0  0  0  0  0  0  0  0  0
  136.9407   73.2773  220.3023 H   0  0  0  0  0  0  0  0  0  0  0  0
  136.3786   74.5397  221.4408 H   0  0  0  0  0  0  0  0  0  0  0  0
  139.3514   74.1767  218.4080 H   0  0  0  0  0  0  0  0  0  0  0  0
  141.0477   74.3678  218.8866 H   0  0  0  0  0  0  0  0  0  0  0  0
  139.2431   71.9364  219.0620 H   0  0  0  0  0  0  0  0  0  0  0  0
  140.9578   72.0301  218.5711 H   0  0  0  0  0  0  0  0  0  0  0  0
  139.7280   71.9710  221.3265 H   0  0  0  0  0  0  0  0  0  0  0  0
  141.1946   71.1283  220.6846 H   0  0  0  0  0  0  0  0  0  0  0  0
  141.9747   72.8091  222.2233 H   0  0  0  0  0  0  0  0  0  0  0  0
  142.3319   73.4148  220.5914 H   0  0  0  0  0  0  0  0  0  0  0  0
  140.1556   74.2663  222.5360 H   0  0  0  0  0  0  0  0  0  0  0  0
  142.1822   75.5959  222.3687 H   0  0  0  0  0  0  0  0  0  0  0  0
  141.9325   75.7539  220.5837 H   0  0  0  0  0  0  0  0  0  0  0  0
  139.5340   76.7260  221.6650 H   0  0  0  0  0  0  0  0  0  0  0  0
  141.2541   77.5121  224.2225 H   0  0  0  0  0  0  0  0  0  0  0  0
  142.2434   79.6888  224.9167 H   0  0  0  0  0  0  0  0  0  0  0  0
  142.6834   81.4368  223.1907 H   0  0  0  0  0  0  0  0  0  0  0  0
  142.1356   80.9950  220.7947 H   0  0  0  0  0  0  0  0  0  0  0  0
  141.1533   78.8226  220.1513 H   0  0  0  0  0  0  0  0  0  0  0  0
  137.0893   69.1806  222.6858 H   0  0  0  0  0  0  0  0  0  0  0  0
  137.9342   67.8187  224.5827 H   0  0  0  0  0  0  0  0  0  0  0  0
  139.3464   67.6343  226.6155 H   0  0  0  0  0  0  0  0  0  0  0  0
  141.6318   71.0958  227.8448 H   0  0  0  0  0  0  0  0  0  0  0  0
  140.7244   72.3769  225.9060 H   0  0  0  0  0  0  0  0  0  0  0  0
  1  2  2  0
  2  3  1  0
  3  4  1  0
  4  5  1  0
  5  6  2  0
  5  7  1  0
  7  8  1  0
  8  9  1  0
  9 10  1  0
 10 11  1  0
 11 12  1  0
 12 13  1  0
 13 14  1  0
 14 15  1  0
 15 16  2  0
 16 17  1  0
 17 18  2  0
 18 19  1  0
 19 20  2  0
  2 21  1  0
 21 22  2  0
 22 23  1  0
 23 24  2  0
 24 25  1  0
 25 26  2  0
 26 27  1  0
 26 28  1  0
 28 29  2  0
 29 30  1  0
 30 31  2  0
 12  7  1  0
 20 15  1  0
 31 21  1  0
 30 24  1  0
  3 32  1  0
  4 33  1  0
  4 34  1  0
  8 35  1  0
  8 36  1  0
  9 37  1  0
  9 38  1  0
 10 39  1  0
 10 40  1  0
 11 41  1  0
 11 42  1  0
 12 43  1  1
 13 44  1  0
 13 45  1  0
 14 46  1  0
 16 47  1  0
 17 48  1  0
 18 49  1  0
 19 50  1  0
 20 51  1  0
 22 52  1  0
 23 53  1  0
 25 54  1  0
 28 55  1  0
 29 56  1  0
M  END
>  <smiles>  (33) 
O=C(NCC(=O)N1CCCC[C@H]1CNc1ccccc1)c1ccc2cc(Cl)ccc2n1

>  <score_type>  (33) 
oracle

>  <origin>  (33) 
autodockgpu

>  <m_score__min__energy>  (33) 
-8.9800000000000004

>  <m_primary>  (33) 
energy

>  <rmsd>  (33) 
2.753896026804465

>  <m_score__min__rmsd>  (33) 
2.753896026804465

>  <meeko>  (33) 
{"free_energy": -7.48, "intermolecular_energy": -9.57, "internal_energy": -2.86, "cluster_size": 27, "cluster_id": 2, "rank_in_cluster": 26}

>  <energy>  (33) 
-7.84

>  <cluster_rmsd>  (33) 
1.41

>  <cluster>  (33) 
2

$$$$

     RDKit          3D

 56 59  0  0  0  0  0  0  0  0999 V2000
  139.7810   72.1080  220.6890 O   0  0  0  0  0  0  0  0  0  0  0  0
  139.3580   72.4270  221.8270 C   0  0  0  0  0  0  0  0  0  0  0  0
  138.6740   73.6430  222.1030 N   0  0  0  0  0  0  0  0  0  0  0  0
  138.4590   74.5540  221.0050 C   0  0  0  0  0  0  0  0  0  0  0  0
  138.9280   75.8850  221.4010 C   0  0  0  0  0  0  0  0  0  0  0  0
  138.1470   76.7430  221.9070 O   0  0  0  0  0  0  0  0  0  0  0  0
  140.2830   76.2890  221.2410 N   0  0  0  0  0  0  0  0  0  0  0  0
  141.0180   76.8240  222.3730 C   0  0  0  0  0  0  0  0  0  0  0  0
  141.1570   78.3080  222.1230 C   0  0  0  0  0  0  0  0  0  0  0  0
  141.2520   78.5250  220.6290 C   0  0  0  0  0  0  0  0  0  0  0  0
  141.9520   77.3610  219.9480 C   0  0  0  0  0  0  0  0  0  0  0  0
  140.9960   76.1960  219.9820 C   0  0  1  0  0  0  0  0  0  0  0  0
  141.7360   74.8690  219.8910 C   0  0  0  0  0  0  0  0  0  0  0  0
  142.8880   74.8510  220.7690 N   0  0  0  0  0  0  0  0  0  0  0  0
  143.9490   73.9380  220.5320 C   0  0  0  0  0  0  0  0  0  0  0  0
  145.2520   74.3190  220.8270 C   0  0  0  0  0  0  0  0  0  0  0  0
  146.3140   73.4520  220.6080 C   0  0  0  0  0  0  0  0  0  0  0  0
  146.0560   72.1900  220.0870 C   0  0  0  0  0  0  0  0  0  0  0  0
  144.7500   71.8040  219.7900 C   0  0  0  0  0  0  0  0  0  0  0  0
  143.7230   72.6900  220.0200 C   0  0  0  0  0  0  0  0  0  0  0  0
  139.5780   71.4990  222.9370 C   0  0  0  0  0  0  0  0  0  0  0  0
  139.2680   70.1540  222.8210 C   0  0  0  0  0  0  0  0  0  0  0  0
  139.4760   69.2630  223.8770 C   0  0  0  0  0  0  0  0  0  0  0  0
  140.0030   69.7100  225.0740 C   0  0  0  0  0  0  0  0  0  0  0  0
  140.2260   68.8640  226.1480 C   0  0  0  0  0  0  0  0  0  0  0  0
  140.7590   69.4020  227.3100 C   0  0  0  0  0  0  0  0  0  0  0  0
  141.0640   68.3810  228.7010 Cl  0  0  0  0  0  0  0  0  0  0  0  0
  141.0700   70.7470  227.4270 C   0  0  0  0  0  0  0  0  0  0  0  0
  140.8390   71.5780  226.3420 C   0  0  0  0  0  0  0  0  0  0  0  0
  140.3040   71.0600  225.1600 C   0  0  0  0  0  0  0  0  0  0  0  0
  140.0890   71.8910  224.1200 N   0  0  0  0  0  0  0  0  0  0  0  0
  138.3380   73.8650  223.0750 H   0  0  0  0  0  0  0  0  0  0  0  0
  139.0204   74.2106  220.1236 H   0  0  0  0  0  0  0  0  0  0  0  0
  137.3888   74.5928  220.7538 H   0  0  0  0  0  0  0  0  0  0  0  0
  140.4640   76.6449  223.3063 H   0  0  0  0  0  0  0  0  0  0  0  0
  142.0011   76.3414  222.4765 H   0  0  0  0  0  0  0  0  0  0  0  0
  140.2790   78.8373  222.5217 H   0  0  0  0  0  0  0  0  0  0  0  0
  142.0565   78.6965  222.6229 H   0  0  0  0  0  0  0  0  0  0  0  0
  140.2375   78.6250  220.2157 H   0  0  0  0  0  0  0  0  0  0  0  0
  141.8371   79.4384  220.4463 H   0  0  0  0  0  0  0  0  0  0  0  0
  142.1942   77.6216  218.9071 H   0  0  0  0  0  0  0  0  0  0  0  0
  142.8936   77.1133  220.4599 H   0  0  0  0  0  0  0  0  0  0  0  0
  140.3094   76.2340  219.1234 H   0  0  0  0  0  0  0  0  0  0  0  0
  141.0526   74.0565  220.1788 H   0  0  0  0  0  0  0  0  0  0  0  0
  142.0842   74.7343  218.8563 H   0  0  0  0  0  0  0  0  0  0  0  0
  142.9660   75.5050  221.5920 H   0  0  0  0  0  0  0  0  0  0  0  0
  145.4447   75.3204  221.2394 H   0  0  0  0  0  0  0  0  0  0  0  0
  147.3436   73.7594  220.8433 H   0  0  0  0  0  0  0  0  0  0  0  0
  146.8869   71.4918  219.9080 H   0  0  0  0  0  0  0  0  0  0  0  0
  144.5435   70.8053  219.3776 H   0  0  0  0  0  0  0  0  0  0  0  0
  142.6920   72.3865  219.7858 H   0  0  0  0  0  0  0  0  0  0  0  0
  138.8485   69.7787  221.8759 H   0  0  0  0  0  0  0  0  0  0  0  0
  139.2190   68.2004  223.7551 H   0  0  0  0  0  0  0  0  0  0  0  0
  139.9864   67.7925  226.0810 H   0  0  0  0  0  0  0  0  0  0  0  0
  141.4913   71.1469  228.3611 H   0  0  0  0  0  0  0  0  0  0  0  0
  141.0779   72.6495  226.4119 H   0  0  0  0  0  0  0  0  0  0  0  0
  1  2  2  0
  2  3  1  0
  3  4  1  0
  4  5  1  0
  5  6  2  0
  5  7  1  0
  7  8  1  0
  8  9  1  0
  9 10  1  0
 10 11  1  0
 11 12  1  0
 12 13  1  0
 13 14  1  0
 14 15  1  0
 15 16  2  0
 16 17  1  0
 17 18  2  0
 18 19  1  0
 19 20  2  0
  2 21  1  0
 21 22  2  0
 22 23  1  0
 23 24  2  0
 24 25  1  0
 25 26  2  0
 26 27  1  0
 26 28  1  0
 28 29  2  0
 29 30  1  0
 30 31  2  0
 12  7  1  0
 20 15  1  0
 31 21  1  0
 30 24  1  0
  3 32  1  0
  4 33  1  0
  4 34  1  0
  8 35  1  0
  8 36  1  0
  9 37  1  0
  9 38  1  0
 10 39  1  0
 10 40  1  0
 11 41  1  0
 11 42  1  0
 12 43  1  6
 13 44  1  0
 13 45  1  0
 14 46  1  0
 16 47  1  0
 17 48  1  0
 18 49  1  0
 19 50  1  0
 20 51  1  0
 22 52  1  0
 23 53  1  0
 25 54  1  0
 28 55  1  0
 29 56  1  0
M  END
>  <smiles>  (34) 
O=C(NCC(=O)N1CCCC[C@H]1CNc1ccccc1)c1ccc2cc(Cl)ccc2n1

>  <score_type>  (34) 
oracle

>  <origin>  (34) 
autodockgpu

>  <m_score__min__energy>  (34) 
-8.9800000000000004

>  <m_primary>  (34) 
energy

>  <rmsd>  (34) 
4.878605807535355

>  <m_score__min__rmsd>  (34) 
4.878605807535355

>  <meeko>  (34) 
{"free_energy": -8.98, "intermolecular_energy": -11.07, "internal_energy": -1.9, "cluster_size": 11, "cluster_id": 1, "rank_in_cluster": 1}

>  <energy>  (34) 
-7.83

>  <cluster_rmsd>  (34) 
1.35

>  <cluster>  (34) 
2

$$$$

     RDKit          3D

 56 59  0  0  0  0  0  0  0  0999 V2000
  140.3290   72.4370  220.6610 O   0  0  0  0  0  0  0  0  0  0  0  0
  140.0680   72.8560  221.8150 C   0  0  0  0  0  0  0  0  0  0  0  0
  139.7940   74.2180  222.1190 N   0  0  0  0  0  0  0  0  0  0  0  0
  139.8200   75.1640  221.0290 C   0  0  0  0  0  0  0  0  0  0  0  0
  140.1510   76.4880  221.5660 C   0  0  0  0  0  0  0  0  0  0  0  0
  139.6150   76.9310  222.6230 O   0  0  0  0  0  0  0  0  0  0  0  0
  141.0900   77.3480  220.9320 N   0  0  0  0  0  0  0  0  0  0  0  0
  141.8020   78.3450  221.7120 C   0  0  0  0  0  0  0  0  0  0  0  0
  141.2040   79.6810  221.3350 C   0  0  0  0  0  0  0  0  0  0  0  0
  140.7750   79.6120  219.8870 C   0  0  0  0  0  0  0  0  0  0  0  0
  141.6910   78.7030  219.0840 C   0  0  0  0  0  0  0  0  0  0  0  0
  141.3900   77.2890  219.5140 C   0  0  1  0  0  0  0  0  0  0  0  0
  142.5770   76.3700  219.2630 C   0  0  0  0  0  0  0  0  0  0  0  0
  142.9180   75.6180  220.4530 N   0  0  0  0  0  0  0  0  0  0  0  0
  143.7450   74.4690  220.3560 C   0  0  0  0  0  0  0  0  0  0  0  0
  143.1780   73.2510  220.0030 C   0  0  0  0  0  0  0  0  0  0  0  0
  143.9580   72.1070  219.8990 C   0  0  0  0  0  0  0  0  0  0  0  0
  145.3210   72.1950  220.1530 C   0  0  0  0  0  0  0  0  0  0  0  0
  145.8930   73.4150  220.5070 C   0  0  0  0  0  0  0  0  0  0  0  0
  145.0900   74.5280  220.6000 C   0  0  0  0  0  0  0  0  0  0  0  0
  140.0430   71.8910  222.9170 C   0  0  0  0  0  0  0  0  0  0  0  0
  139.5400   70.6130  222.7400 C   0  0  0  0  0  0  0  0  0  0  0  0
  139.5130   69.6880  223.7870 C   0  0  0  0  0  0  0  0  0  0  0  0
  139.9930   70.0330  225.0360 C   0  0  0  0  0  0  0  0  0  0  0  0
  139.9860   69.1500  226.1030 C   0  0  0  0  0  0  0  0  0  0  0  0
  140.4900   69.5850  227.3200 C   0  0  0  0  0  0  0  0  0  0  0  0
  140.5080   68.5120  228.7060 Cl  0  0  0  0  0  0  0  0  0  0  0  0
  140.9930   70.8630  227.4980 C   0  0  0  0  0  0  0  0  0  0  0  0
  140.9910   71.7330  226.4190 C   0  0  0  0  0  0  0  0  0  0  0  0
  140.4900   71.3190  225.1820 C   0  0  0  0  0  0  0  0  0  0  0  0
  140.5000   72.1850  224.1480 N   0  0  0  0  0  0  0  0  0  0  0  0
  139.5810   74.5200  223.1030 H   0  0  0  0  0  0  0  0  0  0  0  0
  140.5804   74.8616  220.2940 H   0  0  0  0  0  0  0  0  0  0  0  0
  138.8381   75.1941  220.5342 H   0  0  0  0  0  0  0  0  0  0  0  0
  141.6664   78.1562  222.7872 H   0  0  0  0  0  0  0  0  0  0  0  0
  142.8825   78.3174  221.5076 H   0  0  0  0  0  0  0  0  0  0  0  0
  140.3327   79.8926  221.9723 H   0  0  0  0  0  0  0  0  0  0  0  0
  141.9439   80.4828  221.4754 H   0  0  0  0  0  0  0  0  0  0  0  0
  139.7478   79.2220  219.8355 H   0  0  0  0  0  0  0  0  0  0  0  0
  140.8279   80.6243  219.4599 H   0  0  0  0  0  0  0  0  0  0  0  0
  141.4937   78.8216  218.0084 H   0  0  0  0  0  0  0  0  0  0  0  0
  142.7476   78.9523  219.2610 H   0  0  0  0  0  0  0  0  0  0  0  0
  140.5466   76.8803  218.9381 H   0  0  0  0  0  0  0  0  0  0  0  0
  142.3226   75.6678  218.4554 H   0  0  0  0  0  0  0  0  0  0  0  0
  143.4424   76.9878  218.9815 H   0  0  0  0  0  0  0  0  0  0  0  0
  142.5650   75.9010  221.4060 H   0  0  0  0  0  0  0  0  0  0  0  0
  142.0979   73.1921  219.8034 H   0  0  0  0  0  0  0  0  0  0  0  0
  143.5034   71.1451  219.6196 H   0  0  0  0  0  0  0  0  0  0  0  0
  145.9516   71.2971  220.0742 H   0  0  0  0  0  0  0  0  0  0  0  0
  146.9718   73.4873  220.7093 H   0  0  0  0  0  0  0  0  0  0  0  0
  145.5415   75.4917  220.8781 H   0  0  0  0  0  0  0  0  0  0  0  0
  139.1530   70.3194  221.7531 H   0  0  0  0  0  0  0  0  0  0  0  0
  139.1075   68.6799  223.6160 H   0  0  0  0  0  0  0  0  0  0  0  0
  139.5909   68.1298  225.9883 H   0  0  0  0  0  0  0  0  0  0  0  0
  141.3858   71.1809  228.4751 H   0  0  0  0  0  0  0  0  0  0  0  0
  141.3853   72.7531  226.5369 H   0  0  0  0  0  0  0  0  0  0  0  0
  1  2  2  0
  2  3  1  0
  3  4  1  0
  4  5  1  0
  5  6  2  0
  5  7  1  0
  7  8  1  0
  8  9  1  0
  9 10  1  0
 10 11  1  0
 11 12  1  0
 12 13  1  0
 13 14  1  0
 14 15  1  0
 15 16  2  0
 16 17  1  0
 17 18  2  0
 18 19  1  0
 19 20  2  0
  2 21  1  0
 21 22  2  0
 22 23  1  0
 23 24  2  0
 24 25  1  0
 25 26  2  0
 26 27  1  0
 26 28  1  0
 28 29  2  0
 29 30  1  0
 30 31  2  0
 12  7  1  0
 20 15  1  0
 31 21  1  0
 30 24  1  0
  3 32  1  0
  4 33  1  0
  4 34  1  0
  8 35  1  0
  8 36  1  0
  9 37  1  0
  9 38  1  0
 10 39  1  0
 10 40  1  0
 11 41  1  0
 11 42  1  0
 12 43  1  6
 13 44  1  0
 13 45  1  0
 14 46  1  0
 16 47  1  0
 17 48  1  0
 18 49  1  0
 19 50  1  0
 20 51  1  0
 22 52  1  0
 23 53  1  0
 25 54  1  0
 28 55  1  0
 29 56  1  0
M  END
>  <smiles>  (35) 
O=C(NCC(=O)N1CCCC[C@H]1CNc1ccccc1)c1ccc2cc(Cl)ccc2n1

>  <score_type>  (35) 
oracle

>  <origin>  (35) 
autodockgpu

>  <m_score__min__energy>  (35) 
-8.9800000000000004

>  <m_primary>  (35) 
energy

>  <rmsd>  (35) 
4.824209534039266

>  <m_score__min__rmsd>  (35) 
4.824209534039266

>  <meeko>  (35) 
{"free_energy": -8.95, "intermolecular_energy": -11.04, "internal_energy": -2.34, "cluster_size": 11, "cluster_id": 1, "rank_in_cluster": 2}

>  <energy>  (35) 
-7.78

>  <cluster_rmsd>  (35) 
1.64

>  <cluster>  (35) 
2

$$$$

     RDKit          3D

 56 59  0  0  0  0  0  0  0  0999 V2000
  140.7010   72.6080  220.9840 O   0  0  0  0  0  0  0  0  0  0  0  0
  140.0060   72.8040  222.0110 C   0  0  0  0  0  0  0  0  0  0  0  0
  139.1880   73.9510  222.2050 N   0  0  0  0  0  0  0  0  0  0  0  0
  139.1630   74.9400  221.1540 C   0  0  0  0  0  0  0  0  0  0  0  0
  138.4090   76.1060  221.6250 C   0  0  0  0  0  0  0  0  0  0  0  0
  137.2640   75.9900  222.1510 O   0  0  0  0  0  0  0  0  0  0  0  0
  138.9190   77.4290  221.5200 N   0  0  0  0  0  0  0  0  0  0  0  0
  138.9690   78.2820  222.6940 C   0  0  0  0  0  0  0  0  0  0  0  0
  137.8790   79.3130  222.5130 C   0  0  0  0  0  0  0  0  0  0  0  0
  137.7380   79.5930  221.0340 C   0  0  0  0  0  0  0  0  0  0  0  0
  139.0740   79.4660  220.3210 C   0  0  0  0  0  0  0  0  0  0  0  0
  139.4080   77.9960  220.2770 C   0  0  1  0  0  0  0  0  0  0  0  0
  140.9080   77.7720  220.1480 C   0  0  0  0  0  0  0  0  0  0  0  0
  141.5410   77.7030  221.4490 N   0  0  0  0  0  0  0  0  0  0  0  0
  141.8200   78.8940  222.1680 C   0  0  0  0  0  0  0  0  0  0  0  0
  141.8990   80.0990  221.4820 C   0  0  0  0  0  0  0  0  0  0  0  0
  142.1710   81.2840  222.1530 C   0  0  0  0  0  0  0  0  0  0  0  0
  142.3640   81.2490  223.5290 C   0  0  0  0  0  0  0  0  0  0  0  0
  142.2860   80.0420  224.2210 C   0  0  0  0  0  0  0  0  0  0  0  0
  142.0150   78.8880  223.5220 C   0  0  0  0  0  0  0  0  0  0  0  0
  140.0350   71.7960  223.0730 C   0  0  0  0  0  0  0  0  0  0  0  0
  139.5890   70.5050  222.8500 C   0  0  0  0  0  0  0  0  0  0  0  0
  139.6140   69.5390  223.8600 C   0  0  0  0  0  0  0  0  0  0  0  0
  140.0910   69.8570  225.1180 C   0  0  0  0  0  0  0  0  0  0  0  0
  140.1350   68.9330  226.1480 C   0  0  0  0  0  0  0  0  0  0  0  0
  140.6310   69.3420  227.3780 C   0  0  0  0  0  0  0  0  0  0  0  0
  140.7110   68.2180  228.7200 Cl  0  0  0  0  0  0  0  0  0  0  0  0
  141.0780   70.6340  227.6020 C   0  0  0  0  0  0  0  0  0  0  0  0
  141.0260   71.5450  226.5580 C   0  0  0  0  0  0  0  0  0  0  0  0
  140.5310   71.1560  225.3100 C   0  0  0  0  0  0  0  0  0  0  0  0
  140.4920   72.0620  224.3120 N   0  0  0  0  0  0  0  0  0  0  0  0
  138.6230   74.0690  223.0840 H   0  0  0  0  0  0  0  0  0  0  0  0
  140.1911   75.2403  220.9035 H   0  0  0  0  0  0  0  0  0  0  0  0
  138.6847   74.5215  220.2562 H   0  0  0  0  0  0  0  0  0  0  0  0
  138.7870   77.6903  223.6033 H   0  0  0  0  0  0  0  0  0  0  0  0
  139.9554   78.7565  222.8029 H   0  0  0  0  0  0  0  0  0  0  0  0
  136.9296   78.9257  222.9113 H   0  0  0  0  0  0  0  0  0  0  0  0
  138.1347   80.2366  223.0530 H   0  0  0  0  0  0  0  0  0  0  0  0
  137.0291   78.8734  220.5986 H   0  0  0  0  0  0  0  0  0  0  0  0
  137.3722   80.6227  220.9077 H   0  0  0  0  0  0  0  0  0  0  0  0
  138.9976   79.8675  219.2997 H   0  0  0  0  0  0  0  0  0  0  0  0
  139.8568   80.0324  220.8468 H   0  0  0  0  0  0  0  0  0  0  0  0
  138.9417   77.5190  219.4023 H   0  0  0  0  0  0  0  0  0  0  0  0
  141.0850   76.8277  219.6123 H   0  0  0  0  0  0  0  0  0  0  0  0
  141.3404   78.6187  219.5947 H   0  0  0  0  0  0  0  0  0  0  0  0
  141.8060   76.7800  221.8860 H   0  0  0  0  0  0  0  0  0  0  0  0
  141.7441   80.1149  220.3931 H   0  0  0  0  0  0  0  0  0  0  0  0
  142.2327   82.2353  221.6042 H   0  0  0  0  0  0  0  0  0  0  0  0
  142.5795   82.1794  224.0748 H   0  0  0  0  0  0  0  0  0  0  0  0
  142.4388   80.0121  225.3099 H   0  0  0  0  0  0  0  0  0  0  0  0
  141.9535   77.9345  224.0670 H   0  0  0  0  0  0  0  0  0  0  0  0
  139.2061   70.2329  221.8553 H   0  0  0  0  0  0  0  0  0  0  0  0
  139.2524   68.5210  223.6529 H   0  0  0  0  0  0  0  0  0  0  0  0
  139.7858   67.9011  225.9954 H   0  0  0  0  0  0  0  0  0  0  0  0
  141.4661   70.9309  228.5875 H   0  0  0  0  0  0  0  0  0  0  0  0
  141.3752   72.5766  226.7123 H   0  0  0  0  0  0  0  0  0  0  0  0
  1  2  2  0
  2  3  1  0
  3  4  1  0
  4  5  1  0
  5  6  2  0
  5  7  1  0
  7  8  1  0
  8  9  1  0
  9 10  1  0
 10 11  1  0
 11 12  1  0
 12 13  1  0
 13 14  1  0
 14 15  1  0
 15 16  2  0
 16 17  1  0
 17 18  2  0
 18 19  1  0
 19 20  2  0
  2 21  1  0
 21 22  2  0
 22 23  1  0
 23 24  2  0
 24 25  1  0
 25 26  2  0
 26 27  1  0
 26 28  1  0
 28 29  2  0
 29 30  1  0
 30 31  2  0
 12  7  1  0
 20 15  1  0
 31 21  1  0
 30 24  1  0
  3 32  1  0
  4 33  1  0
  4 34  1  0
  8 35  1  0
  8 36  1  0
  9 37  1  0
  9 38  1  0
 10 39  1  0
 10 40  1  0
 11 41  1  0
 11 42  1  0
 12 43  1  6
 13 44  1  0
 13 45  1  0
 14 46  1  0
 16 47  1  0
 17 48  1  0
 18 49  1  0
 19 50  1  0
 20 51  1  0
 22 52  1  0
 23 53  1  0
 25 54  1  0
 28 55  1  0
 29 56  1  0
M  END
>  <smiles>  (36) 
O=C(NCC(=O)N1CCCC[C@H]1CNc1ccccc1)c1ccc2cc(Cl)ccc2n1

>  <score_type>  (36) 
oracle

>  <origin>  (36) 
autodockgpu

>  <m_score__min__energy>  (36) 
-8.9800000000000004

>  <m_primary>  (36) 
energy

>  <rmsd>  (36) 
3.123753378606572

>  <m_score__min__rmsd>  (36) 
3.123753378606572

>  <meeko>  (36) 
{"free_energy": -8.83, "intermolecular_energy": -10.92, "internal_energy": -1.79, "cluster_size": 27, "cluster_id": 2, "rank_in_cluster": 2}

>  <energy>  (36) 
-7.58

>  <cluster_rmsd>  (36) 
1.76

>  <cluster>  (36) 
2

$$$$

     RDKit          3D

 56 59  0  0  0  0  0  0  0  0999 V2000
  138.0370   71.1780  220.7520 O   0  0  0  0  0  0  0  0  0  0  0  0
  138.0320   71.7340  221.8770 C   0  0  0  0  0  0  0  0  0  0  0  0
  137.6430   73.0860  222.0890 N   0  0  0  0  0  0  0  0  0  0  0  0
  137.2320   73.8510  220.9370 C   0  0  0  0  0  0  0  0  0  0  0  0
  138.1640   74.9690  220.7600 C   0  0  0  0  0  0  0  0  0  0  0  0
  137.7720   76.1720  220.7790 O   0  0  0  0  0  0  0  0  0  0  0  0
  139.5580   74.7670  220.5590 N   0  0  0  0  0  0  0  0  0  0  0  0
  140.0590   74.4390  219.2370 C   0  0  0  0  0  0  0  0  0  0  0  0
  140.4480   72.9790  219.2830 C   0  0  0  0  0  0  0  0  0  0  0  0
  140.9310   72.6660  220.6820 C   0  0  0  0  0  0  0  0  0  0  0  0
  141.6170   73.8690  221.3090 C   0  0  0  0  0  0  0  0  0  0  0  0
  140.5370   74.8730  221.6240 C   0  0  1  0  0  0  0  0  0  0  0  0
  141.0970   76.2870  221.6880 C   0  0  0  0  0  0  0  0  0  0  0  0
  140.1170   77.2150  222.2140 N   0  0  0  0  0  0  0  0  0  0  0  0
  140.5350   78.4570  222.7590 C   0  0  0  0  0  0  0  0  0  0  0  0
  141.8860   78.7780  222.7620 C   0  0  0  0  0  0  0  0  0  0  0  0
  142.3300   79.9840  223.2880 C   0  0  0  0  0  0  0  0  0  0  0  0
  141.4000   80.8720  223.8130 C   0  0  0  0  0  0  0  0  0  0  0  0
  140.0440   80.5550  223.8110 C   0  0  0  0  0  0  0  0  0  0  0  0
  139.6400   79.3500  223.2820 C   0  0  0  0  0  0  0  0  0  0  0  0
  138.4490   70.9510  223.0420 C   0  0  0  0  0  0  0  0  0  0  0  0
  137.9970   69.6580  223.2360 C   0  0  0  0  0  0  0  0  0  0  0  0
  138.3920   68.9060  224.3470 C   0  0  0  0  0  0  0  0  0  0  0  0
  139.2530   69.4440  225.2840 C   0  0  0  0  0  0  0  0  0  0  0  0
  139.6700   68.7370  226.3990 C   0  0  0  0  0  0  0  0  0  0  0  0
  140.5360   69.3600  227.2870 C   0  0  0  0  0  0  0  0  0  0  0  0
  141.1000   68.5140  228.7150 Cl  0  0  0  0  0  0  0  0  0  0  0  0
  140.9890   70.6540  227.0920 C   0  0  0  0  0  0  0  0  0  0  0  0
  140.5600   71.3460  225.9710 C   0  0  0  0  0  0  0  0  0  0  0  0
  139.6880   70.7410  225.0620 C   0  0  0  0  0  0  0  0  0  0  0  0
  139.2860   71.4360  223.9790 N   0  0  0  0  0  0  0  0  0  0  0  0
  137.6550   73.5060  223.0520 H   0  0  0  0  0  0  0  0  0  0  0  0
  137.2473   73.2109  220.0426 H   0  0  0  0  0  0  0  0  0  0  0  0
  136.2111   74.2331  221.0848 H   0  0  0  0  0  0  0  0  0  0  0  0
  139.2761   74.6013  218.4815 H   0  0  0  0  0  0  0  0  0  0  0  0
  140.9153   75.0733  218.9644 H   0  0  0  0  0  0  0  0  0  0  0  0
  139.5766   72.3530  219.0405 H   0  0  0  0  0  0  0  0  0  0  0  0
  141.2420   72.7726  218.5503 H   0  0  0  0  0  0  0  0  0  0  0  0
  140.0695   72.3800  221.3034 H   0  0  0  0  0  0  0  0  0  0  0  0
  141.6576   71.8422  220.6234 H   0  0  0  0  0  0  0  0  0  0  0  0
  142.1366   73.5702  222.2314 H   0  0  0  0  0  0  0  0  0  0  0  0
  142.3653   74.2965  220.6255 H   0  0  0  0  0  0  0  0  0  0  0  0
  140.0903   74.6656  222.6076 H   0  0  0  0  0  0  0  0  0  0  0  0
  141.9829   76.2929  222.3400 H   0  0  0  0  0  0  0  0  0  0  0  0
  141.3637   76.6026  220.6686 H   0  0  0  0  0  0  0  0  0  0  0  0
  139.0860   76.9940  222.2040 H   0  0  0  0  0  0  0  0  0  0  0  0
  142.6138   78.0679  222.3423 H   0  0  0  0  0  0  0  0  0  0  0  0
  143.4016   80.2322  223.2889 H   0  0  0  0  0  0  0  0  0  0  0  0
  141.7366   81.8314  224.2329 H   0  0  0  0  0  0  0  0  0  0  0  0
  139.3063   81.2574  224.2262 H   0  0  0  0  0  0  0  0  0  0  0  0
  138.5692   79.0984  223.2797 H   0  0  0  0  0  0  0  0  0  0  0  0
  137.3119   69.2116  222.5003 H   0  0  0  0  0  0  0  0  0  0  0  0
  138.0151   67.8806  224.4755 H   0  0  0  0  0  0  0  0  0  0  0  0
  139.3239   67.7081  226.5766 H   0  0  0  0  0  0  0  0  0  0  0  0
  141.6754   71.1229  227.8124 H   0  0  0  0  0  0  0  0  0  0  0  0
  140.9070   72.3751  225.7959 H   0  0  0  0  0  0  0  0  0  0  0  0
  1  2  2  0
  2  3  1  0
  3  4  1  0
  4  5  1  0
  5  6  2  0
  5  7  1  0
  7  8  1  0
  8  9  1  0
  9 10  1  0
 10 11  1  0
 11 12  1  0
 12 13  1  0
 13 14  1  0
 14 15  1  0
 15 16  2  0
 16 17  1  0
 17 18  2  0
 18 19  1  0
 19 20  2  0
  2 21  1  0
 21 22  2  0
 22 23  1  0
 23 24  2  0
 24 25  1  0
 25 26  2  0
 26 27  1  0
 26 28  1  0
 28 29  2  0
 29 30  1  0
 30 31  2  0
 12  7  1  0
 20 15  1  0
 31 21  1  0
 30 24  1  0
  3 32  1  0
  4 33  1  0
  4 34  1  0
  8 35  1  0
  8 36  1  0
  9 37  1  0
  9 38  1  0
 10 39  1  0
 10 40  1  0
 11 41  1  0
 11 42  1  0
 12 43  1  1
 13 44  1  0
 13 45  1  0
 14 46  1  0
 16 47  1  0
 17 48  1  0
 18 49  1  0
 19 50  1  0
 20 51  1  0
 22 52  1  0
 23 53  1  0
 25 54  1  0
 28 55  1  0
 29 56  1  0
M  END
>  <smiles>  (37) 
O=C(NCC(=O)N1CCCC[C@H]1CNc1ccccc1)c1ccc2cc(Cl)ccc2n1

>  <score_type>  (37) 
oracle

>  <origin>  (37) 
autodockgpu

>  <m_score__min__energy>  (37) 
-8.9800000000000004

>  <m_primary>  (37) 
energy

>  <rmsd>  (37) 
2.5868651725851377

>  <m_score__min__rmsd>  (37) 
2.5868651725851377

>  <meeko>  (37) 
{"free_energy": -7.58, "intermolecular_energy": -9.67, "internal_energy": -2.68, "cluster_size": 27, "cluster_id": 2, "rank_in_cluster": 25}

>  <energy>  (37) 
-7.48

>  <cluster_rmsd>  (37) 
1.71

>  <cluster>  (37) 
2

$$$$

     RDKit          3D

 56 59  0  0  0  0  0  0  0  0999 V2000
  138.5980   71.5540  220.8800 O   0  0  0  0  0  0  0  0  0  0  0  0
  139.0040   72.0480  221.9590 C   0  0  0  0  0  0  0  0  0  0  0  0
  139.2220   73.4400  222.1590 N   0  0  0  0  0  0  0  0  0  0  0  0
  138.9580   74.3240  221.0490 C   0  0  0  0  0  0  0  0  0  0  0  0
  139.5980   75.6160  221.3180 C   0  0  0  0  0  0  0  0  0  0  0  0
  140.2390   75.8320  222.3860 O   0  0  0  0  0  0  0  0  0  0  0  0
  139.5350   76.6970  220.3950 N   0  0  0  0  0  0  0  0  0  0  0  0
  138.5490   77.7470  220.5750 C   0  0  0  0  0  0  0  0  0  0  0  0
  137.5060   77.5350  219.5020 C   0  0  0  0  0  0  0  0  0  0  0  0
  138.1950   76.9580  218.2860 C   0  0  0  0  0  0  0  0  0  0  0  0
  139.6170   77.4780  218.1610 C   0  0  0  0  0  0  0  0  0  0  0  0
  140.4210   76.8190  219.2530 C   0  0  1  0  0  0  0  0  0  0  0  0
  141.6430   77.6490  219.6190 C   0  0  0  0  0  0  0  0  0  0  0  0
  141.8560   77.6640  221.0520 N   0  0  0  0  0  0  0  0  0  0  0  0
  141.8450   78.8940  221.7600 C   0  0  0  0  0  0  0  0  0  0  0  0
  141.8480   80.0870  221.0480 C   0  0  0  0  0  0  0  0  0  0  0  0
  141.8370   81.3090  221.7080 C   0  0  0  0  0  0  0  0  0  0  0  0
  141.8240   81.3240  223.0970 C   0  0  0  0  0  0  0  0  0  0  0  0
  141.8200   80.1300  223.8140 C   0  0  0  0  0  0  0  0  0  0  0  0
  141.8310   78.9370  223.1270 C   0  0  0  0  0  0  0  0  0  0  0  0
  139.2690   71.1460  223.0820 C   0  0  0  0  0  0  0  0  0  0  0  0
  138.9080   69.8110  223.0300 C   0  0  0  0  0  0  0  0  0  0  0  0
  139.1580   68.9440  224.0980 C   0  0  0  0  0  0  0  0  0  0  0  0
  139.7800   69.4080  225.2420 C   0  0  0  0  0  0  0  0  0  0  0  0
  140.0480   68.5870  226.3240 C   0  0  0  0  0  0  0  0  0  0  0  0
  140.6770   69.1410  227.4300 C   0  0  0  0  0  0  0  0  0  0  0  0
  141.0430   68.1520  228.8290 Cl  0  0  0  0  0  0  0  0  0  0  0  0
  141.0390   70.4770  227.4820 C   0  0  0  0  0  0  0  0  0  0  0  0
  140.7620   71.2830  226.3900 C   0  0  0  0  0  0  0  0  0  0  0  0
  140.1300   70.7490  225.2640 C   0  0  0  0  0  0  0  0  0  0  0  0
  139.8720   71.5550  224.2140 N   0  0  0  0  0  0  0  0  0  0  0  0
  139.5630   73.8050  223.0840 H   0  0  0  0  0  0  0  0  0  0  0  0
  139.3694   73.8918  220.1249 H   0  0  0  0  0  0  0  0  0  0  0  0
  137.8733   74.4600  220.9263 H   0  0  0  0  0  0  0  0  0  0  0  0
  138.0907   77.6727  221.5722 H   0  0  0  0  0  0  0  0  0  0  0  0
  139.0068   78.7442  220.4973 H   0  0  0  0  0  0  0  0  0  0  0  0
  136.7372   76.8356  219.8621 H   0  0  0  0  0  0  0  0  0  0  0  0
  137.0201   78.4888  219.2485 H   0  0  0  0  0  0  0  0  0  0  0  0
  138.2204   75.8619  218.3745 H   0  0  0  0  0  0  0  0  0  0  0  0
  137.6332   77.2622  217.3905 H   0  0  0  0  0  0  0  0  0  0  0  0
  140.0305   77.2160  217.1759 H   0  0  0  0  0  0  0  0  0  0  0  0
  139.6459   78.5734  218.2567 H   0  0  0  0  0  0  0  0  0  0  0  0
  140.7934   75.8384  218.9217 H   0  0  0  0  0  0  0  0  0  0  0  0
  142.5289   77.2187  219.1290 H   0  0  0  0  0  0  0  0  0  0  0  0
  141.4763   78.6823  219.2808 H   0  0  0  0  0  0  0  0  0  0  0  0
  142.0220   76.7750  221.5950 H   0  0  0  0  0  0  0  0  0  0  0  0
  141.8592   80.0635  219.9483 H   0  0  0  0  0  0  0  0  0  0  0  0
  141.8386   82.2507  221.1394 H   0  0  0  0  0  0  0  0  0  0  0  0
  141.8168   82.2842  223.6336 H   0  0  0  0  0  0  0  0  0  0  0  0
  141.8082   80.1400  224.9139 H   0  0  0  0  0  0  0  0  0  0  0  0
  141.8284   77.9934  223.6924 H   0  0  0  0  0  0  0  0  0  0  0  0
  138.4129   69.4230  222.1276 H   0  0  0  0  0  0  0  0  0  0  0  0
  138.8584   67.8879  224.0276 H   0  0  0  0  0  0  0  0  0  0  0  0
  139.7695   67.5230  226.3075 H   0  0  0  0  0  0  0  0  0  0  0  0
  141.5363   70.8895  228.3723 H   0  0  0  0  0  0  0  0  0  0  0  0
  141.0405   72.3470  226.4093 H   0  0  0  0  0  0  0  0  0  0  0  0
  1  2  2  0
  2  3  1  0
  3  4  1  0
  4  5  1  0
  5  6  2  0
  5  7  1  0
  7  8  1  0
  8  9  1  0
  9 10  1  0
 10 11  1  0
 11 12  1  0
 12 13  1  0
 13 14  1  0
 14 15  1  0
 15 16  2  0
 16 17  1  0
 17 18  2  0
 18 19  1  0
 19 20  2  0
  2 21  1  0
 21 22  2  0
 22 23  1  0
 23 24  2  0
 24 25  1  0
 25 26  2  0
 26 27  1  0
 26 28  1  0
 28 29  2  0
 29 30  1  0
 30 31  2  0
 12  7  1  0
 20 15  1  0
 31 21  1  0
 30 24  1  0
  3 32  1  0
  4 33  1  0
  4 34  1  0
  8 35  1  0
  8 36  1  0
  9 37  1  0
  9 38  1  0
 10 39  1  0
 10 40  1  0
 11 41  1  0
 11 42  1  0
 12 43  1  6
 13 44  1  0
 13 45  1  0
 14 46  1  0
 16 47  1  0
 17 48  1  0
 18 49  1  0
 19 50  1  0
 20 51  1  0
 22 52  1  0
 23 53  1  0
 25 54  1  0
 28 55  1  0
 29 56  1  0
M  END
>  <smiles>  (38) 
O=C(NCC(=O)N1CCCC[C@H]1CNc1ccccc1)c1ccc2cc(Cl)ccc2n1

>  <score_type>  (38) 
oracle

>  <origin>  (38) 
autodockgpu

>  <m_score__min__energy>  (38) 
-8.9800000000000004

>  <m_primary>  (38) 
energy

>  <rmsd>  (38) 
2.122678136567606

>  <m_score__min__rmsd>  (38) 
2.122678136567606

>  <meeko>  (38) 
{"free_energy": -8.36, "intermolecular_energy": -10.45, "internal_energy": -3.01, "cluster_size": 27, "cluster_id": 2, "rank_in_cluster": 12}

>  <energy>  (38) 
-7.22

>  <cluster_rmsd>  (38) 
1.79

>  <cluster>  (38) 
2

$$$$

     RDKit          3D

 56 59  0  0  0  0  0  0  0  0999 V2000
  137.8180   73.2260  220.7040 O   0  0  0  0  0  0  0  0  0  0  0  0
  137.6310   73.6720  221.8620 C   0  0  0  0  0  0  0  0  0  0  0  0
  137.0570   72.9100  222.9180 N   0  0  0  0  0  0  0  0  0  0  0  0
  136.6730   71.5500  222.6300 C   0  0  0  0  0  0  0  0  0  0  0  0
  137.2010   70.6800  223.6860 C   0  0  0  0  0  0  0  0  0  0  0  0
  136.4400   70.1050  224.5180 O   0  0  0  0  0  0  0  0  0  0  0  0
  138.5940   70.4320  223.8350 N   0  0  0  0  0  0  0  0  0  0  0  0
  139.0560   69.1190  224.2480 C   0  0  0  0  0  0  0  0  0  0  0  0
  139.5220   69.2650  225.6780 C   0  0  0  0  0  0  0  0  0  0  0  0
  140.0790   70.6610  225.8500 C   0  0  0  0  0  0  0  0  0  0  0  0
  140.7270   71.1550  224.5670 C   0  0  0  0  0  0  0  0  0  0  0  0
  139.6100   71.4380  223.5940 C   0  0  1  0  0  0  0  0  0  0  0  0
  140.0980   71.3610  222.1540 C   0  0  0  0  0  0  0  0  0  0  0  0
  140.4670   72.6700  221.6560 N   0  0  0  0  0  0  0  0  0  0  0  0
  141.7920   72.9130  221.2100 C   0  0  0  0  0  0  0  0  0  0  0  0
  142.1670   74.2060  220.8660 C   0  0  0  0  0  0  0  0  0  0  0  0
  143.4550   74.4810  220.4260 C   0  0  0  0  0  0  0  0  0  0  0  0
  144.3710   73.4400  220.3340 C   0  0  0  0  0  0  0  0  0  0  0  0
  143.9990   72.1420  220.6770 C   0  0  0  0  0  0  0  0  0  0  0  0
  142.7140   71.9070  221.1100 C   0  0  0  0  0  0  0  0  0  0  0  0
  138.0230   75.0530  222.1490 C   0  0  0  0  0  0  0  0  0  0  0  0
  137.0750   76.0490  222.3110 C   0  0  0  0  0  0  0  0  0  0  0  0
  137.4430   77.3690  222.5850 C   0  0  0  0  0  0  0  0  0  0  0  0
  138.7770   77.7120  222.7020 C   0  0  0  0  0  0  0  0  0  0  0  0
  139.1880   79.0060  222.9720 C   0  0  0  0  0  0  0  0  0  0  0  0
  140.5500   79.2570  223.0730 C   0  0  0  0  0  0  0  0  0  0  0  0
  141.1300   80.8750  223.4140 Cl  0  0  0  0  0  0  0  0  0  0  0  0
  141.4980   78.2610  222.9110 C   0  0  0  0  0  0  0  0  0  0  0  0
  141.0680   76.9710  222.6400 C   0  0  0  0  0  0  0  0  0  0  0  0
  139.7020   76.6930  222.5350 C   0  0  0  0  0  0  0  0  0  0  0  0
  139.3100   75.4300  222.2710 N   0  0  0  0  0  0  0  0  0  0  0  0
  136.9210   73.3290  223.8730 H   0  0  0  0  0  0  0  0  0  0  0  0
  135.5761   71.4731  222.6008 H   0  0  0  0  0  0  0  0  0  0  0  0
  137.0783   71.2442  221.6542 H   0  0  0  0  0  0  0  0  0  0  0  0
  138.2348   68.3896  224.1874 H   0  0  0  0  0  0  0  0  0  0  0  0
  139.8662   68.7571  223.5980 H   0  0  0  0  0  0  0  0  0  0  0  0
  138.6750   69.1143  226.3635 H   0  0  0  0  0  0  0  0  0  0  0  0
  140.2943   68.5156  225.9058 H   0  0  0  0  0  0  0  0  0  0  0  0
  139.2605   71.3428  226.1244 H   0  0  0  0  0  0  0  0  0  0  0  0
  140.8440   70.6364  226.6401 H   0  0  0  0  0  0  0  0  0  0  0  0
  141.3008   72.0730  224.7619 H   0  0  0  0  0  0  0  0  0  0  0  0
  141.4218   70.4045  224.1620 H   0  0  0  0  0  0  0  0  0  0  0  0
  139.2167   72.4548  223.7407 H   0  0  0  0  0  0  0  0  0  0  0  0
  140.9751   70.6988  222.1072 H   0  0  0  0  0  0  0  0  0  0  0  0
  139.2819   70.9679  221.5299 H   0  0  0  0  0  0  0  0  0  0  0  0
  139.7710   73.4610  221.6120 H   0  0  0  0  0  0  0  0  0  0  0  0
  141.4339   75.0225  220.9432 H   0  0  0  0  0  0  0  0  0  0  0  0
  143.7457   75.5066  220.1546 H   0  0  0  0  0  0  0  0  0  0  0  0
  145.3956   73.6420  219.9884 H   0  0  0  0  0  0  0  0  0  0  0  0
  144.7222   71.3165  220.6028 H   0  0  0  0  0  0  0  0  0  0  0  0
  142.4202   70.8827  221.3831 H   0  0  0  0  0  0  0  0  0  0  0  0
  136.0083   75.7956  222.2220 H   0  0  0  0  0  0  0  0  0  0  0  0
  136.6672   78.1390  222.7082 H   0  0  0  0  0  0  0  0  0  0  0  0
  138.4543   79.8149  223.1032 H   0  0  0  0  0  0  0  0  0  0  0  0
  142.5709   78.4886  222.9956 H   0  0  0  0  0  0  0  0  0  0  0  0
  141.8037   76.1641  222.5073 H   0  0  0  0  0  0  0  0  0  0  0  0
  1  2  2  0
  2  3  1  0
  3  4  1  0
  4  5  1  0
  5  6  2  0
  5  7  1  0
  7  8  1  0
  8  9  1  0
  9 10  1  0
 10 11  1  0
 11 12  1  0
 12 13  1  0
 13 14  1  0
 14 15  1  0
 15 16  2  0
 16 17  1  0
 17 18  2  0
 18 19  1  0
 19 20  2  0
  2 21  1  0
 21 22  2  0
 22 23  1  0
 23 24  2  0
 24 25  1  0
 25 26  2  0
 26 27  1  0
 26 28  1  0
 28 29  2  0
 29 30  1  0
 30 31  2  0
 12  7  1  0
 20 15  1  0
 31 21  1  0
 30 24  1  0
  3 32  1  0
  4 33  1  0
  4 34  1  0
  8 35  1  0
  8 36  1  0
  9 37  1  0
  9 38  1  0
 10 39  1  0
 10 40  1  0
 11 41  1  0
 11 42  1  0
 12 43  1  1
 13 44  1  0
 13 45  1  0
 14 46  1  0
 16 47  1  0
 17 48  1  0
 18 49  1  0
 19 50  1  0
 20 51  1  0
 22 52  1  0
 23 53  1  0
 25 54  1  0
 28 55  1  0
 29 56  1  0
M  END
>  <smiles>  (39) 
O=C(NCC(=O)N1CCCC[C@H]1CNc1ccccc1)c1ccc2cc(Cl)ccc2n1

>  <score_type>  (39) 
oracle

>  <origin>  (39) 
autodockgpu

>  <m_score__min__energy>  (39) 
-8.9800000000000004

>  <m_primary>  (39) 
energy

>  <rmsd>  (39) 
7.874644343203405

>  <m_score__min__rmsd>  (39) 
7.874644343203405

>  <meeko>  (39) 
{"free_energy": -7.16, "intermolecular_energy": -9.25, "internal_energy": -3.4, "cluster_size": 1, "cluster_id": 6, "rank_in_cluster": 1}

>  <energy>  (39) 
-8.4

>  <cluster_rmsd>  (39) 
0.0

>  <cluster>  (39) 
3

$$$$

     RDKit          3D

 56 59  0  0  0  0  0  0  0  0999 V2000
  140.8250   72.6540  221.4070 O   0  0  0  0  0  0  0  0  0  0  0  0
  139.9070   72.6500  222.2630 C   0  0  0  0  0  0  0  0  0  0  0  0
  138.8120   73.5590  222.2510 N   0  0  0  0  0  0  0  0  0  0  0  0
  138.7650   74.5360  221.1900 C   0  0  0  0  0  0  0  0  0  0  0  0
  139.6550   75.6480  221.5370 C   0  0  0  0  0  0  0  0  0  0  0  0
  140.6460   75.4920  222.3090 O   0  0  0  0  0  0  0  0  0  0  0  0
  139.4590   76.9620  221.0290 N   0  0  0  0  0  0  0  0  0  0  0  0
  138.7160   77.9370  221.8080 C   0  0  0  0  0  0  0  0  0  0  0  0
  137.3810   78.0990  221.1180 C   0  0  0  0  0  0  0  0  0  0  0  0
  137.5920   77.9030  219.6340 C   0  0  0  0  0  0  0  0  0  0  0  0
  138.9660   78.3900  219.2050 C   0  0  0  0  0  0  0  0  0  0  0  0
  139.9680   77.4010  219.7440 C   0  0  1  0  0  0  0  0  0  0  0  0
  141.3410   78.0380  219.9100 C   0  0  0  0  0  0  0  0  0  0  0  0
  141.8050   77.9330  221.2780 N   0  0  0  0  0  0  0  0  0  0  0  0
  141.9060   79.0960  222.0860 C   0  0  0  0  0  0  0  0  0  0  0  0
  141.7040   80.3440  221.5090 C   0  0  0  0  0  0  0  0  0  0  0  0
  141.7950   81.5020  222.2690 C   0  0  0  0  0  0  0  0  0  0  0  0
  142.0920   81.3980  223.6220 C   0  0  0  0  0  0  0  0  0  0  0  0
  142.2950   80.1480  224.2050 C   0  0  0  0  0  0  0  0  0  0  0  0
  142.1970   79.0220  223.4200 C   0  0  0  0  0  0  0  0  0  0  0  0
  139.9590   71.6560  223.3360 C   0  0  0  0  0  0  0  0  0  0  0  0
  139.5170   70.3600  223.1360 C   0  0  0  0  0  0  0  0  0  0  0  0
  139.5650   69.4060  224.1570 C   0  0  0  0  0  0  0  0  0  0  0  0
  140.0610   69.7420  225.4030 C   0  0  0  0  0  0  0  0  0  0  0  0
  140.1280   68.8310  226.4440 C   0  0  0  0  0  0  0  0  0  0  0  0
  140.6410   69.2580  227.6600 C   0  0  0  0  0  0  0  0  0  0  0  0
  140.7510   68.1500  229.0130 Cl  0  0  0  0  0  0  0  0  0  0  0  0
  141.0830   70.5550  227.8600 C   0  0  0  0  0  0  0  0  0  0  0  0
  141.0090   71.4530  226.8070 C   0  0  0  0  0  0  0  0  0  0  0  0
  140.4960   71.0470  225.5720 C   0  0  0  0  0  0  0  0  0  0  0  0
  140.4340   71.9400  224.5640 N   0  0  0  0  0  0  0  0  0  0  0  0
  138.0660   73.5150  222.9910 H   0  0  0  0  0  0  0  0  0  0  0  0
  139.0973   74.0758  220.2478 H   0  0  0  0  0  0  0  0  0  0  0  0
  137.7361   74.9040  221.0640 H   0  0  0  0  0  0  0  0  0  0  0  0
  138.5722   77.5739  222.8363 H   0  0  0  0  0  0  0  0  0  0  0  0
  139.2540   78.8945  221.8701 H   0  0  0  0  0  0  0  0  0  0  0  0
  136.6723   77.3475  221.4962 H   0  0  0  0  0  0  0  0  0  0  0  0
  136.9692   79.0998  221.3153 H   0  0  0  0  0  0  0  0  0  0  0  0
  137.5005   76.8328  219.3969 H   0  0  0  0  0  0  0  0  0  0  0  0
  136.8316   78.4864  219.0941 H   0  0  0  0  0  0  0  0  0  0  0  0
  139.0274   78.4309  218.1075 H   0  0  0  0  0  0  0  0  0  0  0  0
  139.1638   79.4012  219.5903 H   0  0  0  0  0  0  0  0  0  0  0  0
  140.0924   76.5584  219.0479 H   0  0  0  0  0  0  0  0  0  0  0  0
  142.0560   77.5271  219.2484 H   0  0  0  0  0  0  0  0  0  0  0  0
  141.2644   79.1038  219.6489 H   0  0  0  0  0  0  0  0  0  0  0  0
  142.0740   77.0060  221.7010 H   0  0  0  0  0  0  0  0  0  0  0  0
  141.4691   80.4151  220.4367 H   0  0  0  0  0  0  0  0  0  0  0  0
  141.6343   82.4872  221.8068 H   0  0  0  0  0  0  0  0  0  0  0  0
  142.1674   82.3070  224.2368 H   0  0  0  0  0  0  0  0  0  0  0  0
  142.5299   80.0631  225.2763 H   0  0  0  0  0  0  0  0  0  0  0  0
  142.3572   78.0350  223.8784 H   0  0  0  0  0  0  0  0  0  0  0  0
  139.1188   70.0739  222.1513 H   0  0  0  0  0  0  0  0  0  0  0  0
  139.2065   68.3834  223.9680 H   0  0  0  0  0  0  0  0  0  0  0  0
  139.7832   67.7951  226.3099 H   0  0  0  0  0  0  0  0  0  0  0  0
  141.4849   70.8664  228.8354 H   0  0  0  0  0  0  0  0  0  0  0  0
  141.3550   72.4882  226.9436 H   0  0  0  0  0  0  0  0  0  0  0  0
  1  2  2  0
  2  3  1  0
  3  4  1  0
  4  5  1  0
  5  6  2  0
  5  7  1  0
  7  8  1  0
  8  9  1  0
  9 10  1  0
 10 11  1  0
 11 12  1  0
 12 13  1  0
 13 14  1  0
 14 15  1  0
 15 16  2  0
 16 17  1  0
 17 18  2  0
 18 19  1  0
 19 20  2  0
  2 21  1  0
 21 22  2  0
 22 23  1  0
 23 24  2  0
 24 25  1  0
 25 26  2  0
 26 27  1  0
 26 28  1  0
 28 29  2  0
 29 30  1  0
 30 31  2  0
 12  7  1  0
 20 15  1  0
 31 21  1  0
 30 24  1  0
  3 32  1  0
  4 33  1  0
  4 34  1  0
  8 35  1  0
  8 36  1  0
  9 37  1  0
  9 38  1  0
 10 39  1  0
 10 40  1  0
 11 41  1  0
 11 42  1  0
 12 43  1  6
 13 44  1  0
 13 45  1  0
 14 46  1  0
 16 47  1  0
 17 48  1  0
 18 49  1  0
 19 50  1  0
 20 51  1  0
 22 52  1  0
 23 53  1  0
 25 54  1  0
 28 55  1  0
 29 56  1  0
M  END
>  <smiles>  (40) 
O=C(NCC(=O)N1CCCC[C@H]1CNc1ccccc1)c1ccc2cc(Cl)ccc2n1

>  <score_type>  (40) 
oracle

>  <origin>  (40) 
autodockgpu

>  <m_score__min__energy>  (40) 
-8.9800000000000004

>  <m_primary>  (40) 
energy

>  <rmsd>  (40) 
2.6101275825035115

>  <m_score__min__rmsd>  (40) 
2.6101275825035115

>  <meeko>  (40) 
{"free_energy": -8.96, "intermolecular_energy": -11.05, "internal_energy": -2.35, "cluster_size": 27, "cluster_id": 2, "rank_in_cluster": 1}

>  <energy>  (40) 
-7.38

>  <cluster_rmsd>  (40) 
1.33

>  <cluster>  (40) 
3

$$$$

     RDKit          3D

 56 59  0  0  0  0  0  0  0  0999 V2000
  139.8860   72.4840  220.7350 O   0  0  0  0  0  0  0  0  0  0  0  0
  139.7410   72.8760  221.9190 C   0  0  0  0  0  0  0  0  0  0  0  0
  139.4720   74.2260  222.2770 N   0  0  0  0  0  0  0  0  0  0  0  0
  139.3600   75.1910  221.2100 C   0  0  0  0  0  0  0  0  0  0  0  0
  140.4940   76.1180  221.2960 C   0  0  0  0  0  0  0  0  0  0  0  0
  140.9700   76.4860  222.4090 O   0  0  0  0  0  0  0  0  0  0  0  0
  141.1210   76.6550  220.1380 N   0  0  0  0  0  0  0  0  0  0  0  0
  142.1930   77.6250  220.2780 C   0  0  0  0  0  0  0  0  0  0  0  0
  141.6120   78.9580  219.8680 C   0  0  0  0  0  0  0  0  0  0  0  0
  140.5740   78.7090  218.7970 C   0  0  0  0  0  0  0  0  0  0  0  0
  140.9480   77.5120  217.9370 C   0  0  0  0  0  0  0  0  0  0  0  0
  140.7470   76.2830  218.7870 C   0  0  1  0  0  0  0  0  0  0  0  0
  141.6070   75.1260  218.3000 C   0  0  0  0  0  0  0  0  0  0  0  0
  141.7230   74.0970  219.3130 N   0  0  0  0  0  0  0  0  0  0  0  0
  142.9900   73.7930  219.8760 C   0  0  0  0  0  0  0  0  0  0  0  0
  143.9470   74.7950  219.9780 C   0  0  0  0  0  0  0  0  0  0  0  0
  145.1970   74.5340  220.5230 C   0  0  0  0  0  0  0  0  0  0  0  0
  145.4810   73.2480  220.9680 C   0  0  0  0  0  0  0  0  0  0  0  0
  144.5250   72.2400  220.8670 C   0  0  0  0  0  0  0  0  0  0  0  0
  143.2970   72.5370  220.3210 C   0  0  0  0  0  0  0  0  0  0  0  0
  139.8550   71.8920  222.9970 C   0  0  0  0  0  0  0  0  0  0  0  0
  139.4720   70.5750  222.8090 C   0  0  0  0  0  0  0  0  0  0  0  0
  139.5780   69.6310  223.8340 C   0  0  0  0  0  0  0  0  0  0  0  0
  140.0740   69.9960  225.0720 C   0  0  0  0  0  0  0  0  0  0  0  0
  140.1970   69.0950  226.1160 C   0  0  0  0  0  0  0  0  0  0  0  0
  140.7050   69.5540  227.3230 C   0  0  0  0  0  0  0  0  0  0  0  0
  140.8840   68.4600  228.6810 Cl  0  0  0  0  0  0  0  0  0  0  0  0
  141.0880   70.8710  227.5110 C   0  0  0  0  0  0  0  0  0  0  0  0
  140.9580   71.7580  226.4550 C   0  0  0  0  0  0  0  0  0  0  0  0
  140.4490   71.3210  225.2290 C   0  0  0  0  0  0  0  0  0  0  0  0
  140.3320   72.2050  224.2160 N   0  0  0  0  0  0  0  0  0  0  0  0
  139.3580   74.5050  223.2840 H   0  0  0  0  0  0  0  0  0  0  0  0
  139.3770   74.6738  220.2393 H   0  0  0  0  0  0  0  0  0  0  0  0
  138.4141   75.7449  221.3022 H   0  0  0  0  0  0  0  0  0  0  0  0
  142.5377   77.6642  221.3218 H   0  0  0  0  0  0  0  0  0  0  0  0
  143.0595   77.3571  219.6556 H   0  0  0  0  0  0  0  0  0  0  0  0
  141.1426   79.4430  220.7365 H   0  0  0  0  0  0  0  0  0  0  0  0
  142.4046   79.6172  219.4844 H   0  0  0  0  0  0  0  0  0  0  0  0
  139.6027   78.5171  219.2763 H   0  0  0  0  0  0  0  0  0  0  0  0
  140.5189   79.5981  218.1517 H   0  0  0  0  0  0  0  0  0  0  0  0
  140.3010   77.4675  217.0485 H   0  0  0  0  0  0  0  0  0  0  0  0
  141.9895   77.5856  217.5908 H   0  0  0  0  0  0  0  0  0  0  0  0
  139.7022   75.9430  218.7349 H   0  0  0  0  0  0  0  0  0  0  0  0
  141.1484   74.6925  217.3990 H   0  0  0  0  0  0  0  0  0  0  0  0
  142.6133   75.5099  218.0766 H   0  0  0  0  0  0  0  0  0  0  0  0
  140.8830   73.5580  219.6520 H   0  0  0  0  0  0  0  0  0  0  0  0
  143.7112   75.8088  219.6222 H   0  0  0  0  0  0  0  0  0  0  0  0
  145.9503   75.3317  220.6014 H   0  0  0  0  0  0  0  0  0  0  0  0
  146.4667   73.0251  221.4025 H   0  0  0  0  0  0  0  0  0  0  0  0
  144.7481   71.2218  221.2184 H   0  0  0  0  0  0  0  0  0  0  0  0
  142.5413   71.7417  220.2403 H   0  0  0  0  0  0  0  0  0  0  0  0
  139.0754   70.2647  221.8310 H   0  0  0  0  0  0  0  0  0  0  0  0
  139.2651   68.5918  223.6549 H   0  0  0  0  0  0  0  0  0  0  0  0
  139.8999   68.0432  225.9920 H   0  0  0  0  0  0  0  0  0  0  0  0
  141.4875   71.2063  228.4795 H   0  0  0  0  0  0  0  0  0  0  0  0
  141.2562   72.8092  226.5818 H   0  0  0  0  0  0  0  0  0  0  0  0
  1  2  2  0
  2  3  1  0
  3  4  1  0
  4  5  1  0
  5  6  2  0
  5  7  1  0
  7  8  1  0
  8  9  1  0
  9 10  1  0
 10 11  1  0
 11 12  1  0
 12 13  1  0
 13 14  1  0
 14 15  1  0
 15 16  2  0
 16 17  1  0
 17 18  2  0
 18 19  1  0
 19 20  2  0
  2 21  1  0
 21 22  2  0
 22 23  1  0
 23 24  2  0
 24 25  1  0
 25 26  2  0
 26 27  1  0
 26 28  1  0
 28 29  2  0
 29 30  1  0
 30 31  2  0
 12  7  1  0
 20 15  1  0
 31 21  1  0
 30 24  1  0
  3 32  1  0
  4 33  1  0
  4 34  1  0
  8 35  1  0
  8 36  1  0
  9 37  1  0
  9 38  1  0
 10 39  1  0
 10 40  1  0
 11 41  1  0
 11 42  1  0
 12 43  1  1
 13 44  1  0
 13 45  1  0
 14 46  1  0
 16 47  1  0
 17 48  1  0
 18 49  1  0
 19 50  1  0
 20 51  1  0
 22 52  1  0
 23 53  1  0
 25 54  1  0
 28 55  1  0
 29 56  1  0
M  END
>  <smiles>  (41) 
O=C(NCC(=O)N1CCCC[C@H]1CNc1ccccc1)c1ccc2cc(Cl)ccc2n1

>  <score_type>  (41) 
oracle

>  <origin>  (41) 
autodockgpu

>  <m_score__min__energy>  (41) 
-8.9800000000000004

>  <m_primary>  (41) 
energy

>  <rmsd>  (41) 
4.5789972598337565

>  <m_score__min__rmsd>  (41) 
4.5789972598337565

>  <meeko>  (41) 
{"free_energy": -7.73, "intermolecular_energy": -9.81, "internal_energy": -3.16, "cluster_size": 11, "cluster_id": 1, "rank_in_cluster": 11}

>  <energy>  (41) 
-8.12

>  <cluster_rmsd>  (41) 
0.0

>  <cluster>  (41) 
4

$$$$

     RDKit          3D

 56 59  0  0  0  0  0  0  0  0999 V2000
  140.7430   72.3450  220.9890 O   0  0  0  0  0  0  0  0  0  0  0  0
  140.0810   72.6050  222.0230 C   0  0  0  0  0  0  0  0  0  0  0  0
  139.3350   73.8030  222.2030 N   0  0  0  0  0  0  0  0  0  0  0  0
  139.3480   74.7670  221.1290 C   0  0  0  0  0  0  0  0  0  0  0  0
  140.5420   75.6070  221.2680 C   0  0  0  0  0  0  0  0  0  0  0  0
  140.7900   76.2420  222.3340 O   0  0  0  0  0  0  0  0  0  0  0  0
  141.4890   75.7560  220.2160 N   0  0  0  0  0  0  0  0  0  0  0  0
  141.5650   74.7590  219.1630 C   0  0  0  0  0  0  0  0  0  0  0  0
  142.8360   73.9800  219.4100 C   0  0  0  0  0  0  0  0  0  0  0  0
  143.8500   74.9200  220.0230 C   0  0  0  0  0  0  0  0  0  0  0  0
  143.6720   76.3370  219.5050 C   0  0  0  0  0  0  0  0  0  0  0  0
  142.4080   76.8740  220.1280 C   0  0  1  0  0  0  0  0  0  0  0  0
  141.8050   77.9890  219.2840 C   0  0  0  0  0  0  0  0  0  0  0  0
  141.8360   79.2540  219.9880 N   0  0  0  0  0  0  0  0  0  0  0  0
  141.5330   79.3050  221.3740 C   0  0  0  0  0  0  0  0  0  0  0  0
  140.2200   79.1200  221.7890 C   0  0  0  0  0  0  0  0  0  0  0  0
  139.8870   79.1640  223.1370 C   0  0  0  0  0  0  0  0  0  0  0  0
  140.8900   79.3950  224.0710 C   0  0  0  0  0  0  0  0  0  0  0  0
  142.2070   79.5810  223.6580 C   0  0  0  0  0  0  0  0  0  0  0  0
  142.5000   79.5310  222.3140 C   0  0  0  0  0  0  0  0  0  0  0  0
  140.0710   71.6230  223.1090 C   0  0  0  0  0  0  0  0  0  0  0  0
  139.5710   70.3470  222.9160 C   0  0  0  0  0  0  0  0  0  0  0  0
  139.5580   69.4050  223.9490 C   0  0  0  0  0  0  0  0  0  0  0  0
  140.0510   69.7320  225.1980 C   0  0  0  0  0  0  0  0  0  0  0  0
  140.0580   68.8320  226.2510 C   0  0  0  0  0  0  0  0  0  0  0  0
  140.5730   69.2490  227.4700 C   0  0  0  0  0  0  0  0  0  0  0  0
  140.6100   68.1540  228.8380 Cl  0  0  0  0  0  0  0  0  0  0  0  0
  141.0730   70.5260  227.6620 C   0  0  0  0  0  0  0  0  0  0  0  0
  141.0570   71.4130  226.5980 C   0  0  0  0  0  0  0  0  0  0  0  0
  140.5440   71.0160  225.3600 C   0  0  0  0  0  0  0  0  0  0  0  0
  140.5400   71.8990  224.3400 N   0  0  0  0  0  0  0  0  0  0  0  0
  138.7950   73.9750  223.0880 H   0  0  0  0  0  0  0  0  0  0  0  0
  139.3737   74.2437  220.1618 H   0  0  0  0  0  0  0  0  0  0  0  0
  138.4429   75.3906  221.1731 H   0  0  0  0  0  0  0  0  0  0  0  0
  140.6930   74.0899  219.2078 H   0  0  0  0  0  0  0  0  0  0  0  0
  141.5692   75.2272  218.1676 H   0  0  0  0  0  0  0  0  0  0  0  0
  142.6349   73.1469  220.0996 H   0  0  0  0  0  0  0  0  0  0  0  0
  143.2203   73.5672  218.4656 H   0  0  0  0  0  0  0  0  0  0  0  0
  143.7245   74.9194  221.1158 H   0  0  0  0  0  0  0  0  0  0  0  0
  144.8567   74.5731  219.7470 H   0  0  0  0  0  0  0  0  0  0  0  0
  144.5316   76.9578  219.7977 H   0  0  0  0  0  0  0  0  0  0  0  0
  143.6069   76.3502  218.4070 H   0  0  0  0  0  0  0  0  0  0  0  0
  142.6173   77.3053  221.1180 H   0  0  0  0  0  0  0  0  0  0  0  0
  142.3797   78.0835  218.3509 H   0  0  0  0  0  0  0  0  0  0  0  0
  140.7563   77.7353  219.0697 H   0  0  0  0  0  0  0  0  0  0  0  0
  142.0810   80.1540  219.4970 H   0  0  0  0  0  0  0  0  0  0  0  0
  139.4346   78.9365  221.0411 H   0  0  0  0  0  0  0  0  0  0  0  0
  138.8457   79.0183  223.4601 H   0  0  0  0  0  0  0  0  0  0  0  0
  140.6423   79.4311  225.1421 H   0  0  0  0  0  0  0  0  0  0  0  0
  143.0020   79.7653  224.3956 H   0  0  0  0  0  0  0  0  0  0  0  0
  143.5402   79.6768  221.9873 H   0  0  0  0  0  0  0  0  0  0  0  0
  139.1752   70.0679  221.9283 H   0  0  0  0  0  0  0  0  0  0  0  0
  139.1533   68.3985  223.7667 H   0  0  0  0  0  0  0  0  0  0  0  0
  139.6652   67.8124  226.1240 H   0  0  0  0  0  0  0  0  0  0  0  0
  141.4748   70.8300  228.6398 H   0  0  0  0  0  0  0  0  0  0  0  0
  141.4491   72.4325  226.7279 H   0  0  0  0  0  0  0  0  0  0  0  0
  1  2  2  0
  2  3  1  0
  3  4  1  0
  4  5  1  0
  5  6  2  0
  5  7  1  0
  7  8  1  0
  8  9  1  0
  9 10  1  0
 10 11  1  0
 11 12  1  0
 12 13  1  0
 13 14  1  0
 14 15  1  0
 15 16  2  0
 16 17  1  0
 17 18  2  0
 18 19  1  0
 19 20  2  0
  2 21  1  0
 21 22  2  0
 22 23  1  0
 23 24  2  0
 24 25  1  0
 25 26  2  0
 26 27  1  0
 26 28  1  0
 28 29  2  0
 29 30  1  0
 30 31  2  0
 12  7  1  0
 20 15  1  0
 31 21  1  0
 30 24  1  0
  3 32  1  0
  4 33  1  0
  4 34  1  0
  8 35  1  0
  8 36  1  0
  9 37  1  0
  9 38  1  0
 10 39  1  0
 10 40  1  0
 11 41  1  0
 11 42  1  0
 12 43  1  1
 13 44  1  0
 13 45  1  0
 14 46  1  0
 16 47  1  0
 17 48  1  0
 18 49  1  0
 19 50  1  0
 20 51  1  0
 22 52  1  0
 23 53  1  0
 25 54  1  0
 28 55  1  0
 29 56  1  0
M  END
>  <smiles>  (42) 
O=C(NCC(=O)N1CCCC[C@H]1CNc1ccccc1)c1ccc2cc(Cl)ccc2n1

>  <score_type>  (42) 
oracle

>  <origin>  (42) 
autodockgpu

>  <m_score__min__energy>  (42) 
-8.9800000000000004

>  <m_primary>  (42) 
energy

>  <rmsd>  (42) 
2.5650309471991193

>  <m_score__min__rmsd>  (42) 
2.5650309471991193

>  <meeko>  (42) 
{"free_energy": -8.83, "intermolecular_energy": -10.91, "internal_energy": -2.09, "cluster_size": 27, "cluster_id": 2, "rank_in_cluster": 3}

>  <energy>  (42) 
-8.09

>  <cluster_rmsd>  (42) 
1.54

>  <cluster>  (42) 
4

$$$$

     RDKit          3D

 56 59  0  0  0  0  0  0  0  0999 V2000
  138.4130   71.6510  220.9840 O   0  0  0  0  0  0  0  0  0  0  0  0
  138.9100   72.1220  222.0350 C   0  0  0  0  0  0  0  0  0  0  0  0
  139.1940   73.5040  222.2250 N   0  0  0  0  0  0  0  0  0  0  0  0
  138.8880   74.4040  221.1390 C   0  0  0  0  0  0  0  0  0  0  0  0
  139.7050   75.6130  221.2890 C   0  0  0  0  0  0  0  0  0  0  0  0
  140.4180   75.8110  222.3150 O   0  0  0  0  0  0  0  0  0  0  0  0
  139.7430   76.6280  220.2940 N   0  0  0  0  0  0  0  0  0  0  0  0
  138.5840   77.4770  220.0800 C   0  0  0  0  0  0  0  0  0  0  0  0
  137.9700   77.0330  218.7730 C   0  0  0  0  0  0  0  0  0  0  0  0
  139.0840   76.5540  217.8700 C   0  0  0  0  0  0  0  0  0  0  0  0
  140.3670   77.3300  218.1190 C   0  0  0  0  0  0  0  0  0  0  0  0
  140.9000   76.8750  219.4540 C   0  0  1  0  0  0  0  0  0  0  0  0
  141.7920   77.9350  220.0850 C   0  0  0  0  0  0  0  0  0  0  0  0
  141.8090   77.8150  221.5280 N   0  0  0  0  0  0  0  0  0  0  0  0
  141.7930   78.9800  222.3390 C   0  0  0  0  0  0  0  0  0  0  0  0
  140.5740   79.5440  222.6940 C   0  0  0  0  0  0  0  0  0  0  0  0
  140.5210   80.6840  223.4860 C   0  0  0  0  0  0  0  0  0  0  0  0
  141.7100   81.2560  223.9220 C   0  0  0  0  0  0  0  0  0  0  0  0
  142.9340   80.6920  223.5690 C   0  0  0  0  0  0  0  0  0  0  0  0
  142.9480   79.5630  222.7830 C   0  0  0  0  0  0  0  0  0  0  0  0
  139.2180   71.2040  223.1330 C   0  0  0  0  0  0  0  0  0  0  0  0
  138.9030   69.8580  223.0520 C   0  0  0  0  0  0  0  0  0  0  0  0
  139.1940   68.9760  224.0970 C   0  0  0  0  0  0  0  0  0  0  0  0
  139.8100   69.4350  225.2460 C   0  0  0  0  0  0  0  0  0  0  0  0
  140.1170   68.5980  226.3060 C   0  0  0  0  0  0  0  0  0  0  0  0
  140.7350   69.1480  227.4200 C   0  0  0  0  0  0  0  0  0  0  0  0
  141.1480   68.1390  228.7920 Cl  0  0  0  0  0  0  0  0  0  0  0  0
  141.0490   70.4940  227.5020 C   0  0  0  0  0  0  0  0  0  0  0  0
  140.7340   71.3160  226.4310 C   0  0  0  0  0  0  0  0  0  0  0  0
  140.1120   70.7860  225.2980 C   0  0  0  0  0  0  0  0  0  0  0  0
  139.8160   71.6080  224.2700 N   0  0  0  0  0  0  0  0  0  0  0  0
  139.6110   73.8500  223.1250 H   0  0  0  0  0  0  0  0  0  0  0  0
  139.1177   73.9182  220.1792 H   0  0  0  0  0  0  0  0  0  0  0  0
  137.8201   74.6672  221.1585 H   0  0  0  0  0  0  0  0  0  0  0  0
  137.8632   77.3521  220.9015 H   0  0  0  0  0  0  0  0  0  0  0  0
  138.8666   78.5396  220.0489 H   0  0  0  0  0  0  0  0  0  0  0  0
  137.2587   76.2138  218.9544 H   0  0  0  0  0  0  0  0  0  0  0  0
  137.4300   77.8678  218.3024 H   0  0  0  0  0  0  0  0  0  0  0  0
  139.2675   75.4866  218.0622 H   0  0  0  0  0  0  0  0  0  0  0  0
  138.7781   76.7136  216.8255 H   0  0  0  0  0  0  0  0  0  0  0  0
  141.0989   77.1158  217.3262 H   0  0  0  0  0  0  0  0  0  0  0  0
  140.1789   78.4138  218.1180 H   0  0  0  0  0  0  0  0  0  0  0  0
  141.5165   75.9716  219.3361 H   0  0  0  0  0  0  0  0  0  0  0  0
  142.8166   77.8152  219.7031 H   0  0  0  0  0  0  0  0  0  0  0  0
  141.3933   78.9262  219.8230 H   0  0  0  0  0  0  0  0  0  0  0  0
  141.8320   76.8740  222.0040 H   0  0  0  0  0  0  0  0  0  0  0  0
  139.6392   79.0821  222.3436 H   0  0  0  0  0  0  0  0  0  0  0  0
  139.5531   81.1269  223.7636 H   0  0  0  0  0  0  0  0  0  0  0  0
  141.6846   82.1592  224.5494 H   0  0  0  0  0  0  0  0  0  0  0  0
  143.8761   81.1431  223.9139 H   0  0  0  0  0  0  0  0  0  0  0  0
  143.9141   79.1171  222.5041 H   0  0  0  0  0  0  0  0  0  0  0  0
  138.4128   69.4741  222.1452 H   0  0  0  0  0  0  0  0  0  0  0  0
  138.9315   67.9118  224.0043 H   0  0  0  0  0  0  0  0  0  0  0  0
  139.8772   67.5252  226.2658 H   0  0  0  0  0  0  0  0  0  0  0  0
  141.5383   70.9027  228.3984 H   0  0  0  0  0  0  0  0  0  0  0  0
  140.9745   72.3885  226.4735 H   0  0  0  0  0  0  0  0  0  0  0  0
  1  2  2  0
  2  3  1  0
  3  4  1  0
  4  5  1  0
  5  6  2  0
  5  7  1  0
  7  8  1  0
  8  9  1  0
  9 10  1  0
 10 11  1  0
 11 12  1  0
 12 13  1  0
 13 14  1  0
 14 15  1  0
 15 16  2  0
 16 17  1  0
 17 18  2  0
 18 19  1  0
 19 20  2  0
  2 21  1  0
 21 22  2  0
 22 23  1  0
 23 24  2  0
 24 25  1  0
 25 26  2  0
 26 27  1  0
 26 28  1  0
 28 29  2  0
 29 30  1  0
 30 31  2  0
 12  7  1  0
 20 15  1  0
 31 21  1  0
 30 24  1  0
  3 32  1  0
  4 33  1  0
  4 34  1  0
  8 35  1  0
  8 36  1  0
  9 37  1  0
  9 38  1  0
 10 39  1  0
 10 40  1  0
 11 41  1  0
 11 42  1  0
 12 43  1  6
 13 44  1  0
 13 45  1  0
 14 46  1  0
 16 47  1  0
 17 48  1  0
 18 49  1  0
 19 50  1  0
 20 51  1  0
 22 52  1  0
 23 53  1  0
 25 54  1  0
 28 55  1  0
 29 56  1  0
M  END
>  <smiles>  (43) 
O=C(NCC(=O)N1CCCC[C@H]1CNc1ccccc1)c1ccc2cc(Cl)ccc2n1

>  <score_type>  (43) 
oracle

>  <origin>  (43) 
autodockgpu

>  <m_score__min__energy>  (43) 
-8.9800000000000004

>  <m_primary>  (43) 
energy

>  <rmsd>  (43) 
2.114003846258393

>  <m_score__min__rmsd>  (43) 
2.114003846258393

>  <meeko>  (43) 
{"free_energy": -8.51, "intermolecular_energy": -10.6, "internal_energy": -2.82, "cluster_size": 27, "cluster_id": 2, "rank_in_cluster": 8}

>  <energy>  (43) 
-7.97

>  <cluster_rmsd>  (43) 
1.37

>  <cluster>  (43) 
4

$$$$

     RDKit          3D

 56 59  0  0  0  0  0  0  0  0999 V2000
  140.3860   72.4980  220.7420 O   0  0  0  0  0  0  0  0  0  0  0  0
  139.9410   72.8460  221.8620 C   0  0  0  0  0  0  0  0  0  0  0  0
  139.4010   74.1340  222.1340 N   0  0  0  0  0  0  0  0  0  0  0  0
  139.3690   75.0870  221.0510 C   0  0  0  0  0  0  0  0  0  0  0  0
  140.5510   75.9500  221.1510 C   0  0  0  0  0  0  0  0  0  0  0  0
  140.9980   76.3390  222.2690 O   0  0  0  0  0  0  0  0  0  0  0  0
  141.2600   76.3970  220.0020 N   0  0  0  0  0  0  0  0  0  0  0  0
  142.2300   77.4720  220.1220 C   0  0  0  0  0  0  0  0  0  0  0  0
  141.5960   78.6860  219.4840 C   0  0  0  0  0  0  0  0  0  0  0  0
  140.7080   78.2130  218.3550 C   0  0  0  0  0  0  0  0  0  0  0  0
  141.2690   76.9610  217.7020 C   0  0  0  0  0  0  0  0  0  0  0  0
  141.0700   75.8310  218.6800 C   0  0  1  0  0  0  0  0  0  0  0  0
  142.0680   74.7070  218.4390 C   0  0  0  0  0  0  0  0  0  0  0  0
  142.3590   73.9920  219.6650 N   0  0  0  0  0  0  0  0  0  0  0  0
  143.6880   73.5860  219.9530 C   0  0  0  0  0  0  0  0  0  0  0  0
  144.5610   74.4900  220.5450 C   0  0  0  0  0  0  0  0  0  0  0  0
  145.8680   74.1280  220.8420 C   0  0  0  0  0  0  0  0  0  0  0  0
  146.2950   72.8410  220.5380 C   0  0  0  0  0  0  0  0  0  0  0  0
  145.4220   71.9310  219.9440 C   0  0  0  0  0  0  0  0  0  0  0  0
  144.1340   72.3260  219.6650 C   0  0  0  0  0  0  0  0  0  0  0  0
  139.9750   71.8740  222.9570 C   0  0  0  0  0  0  0  0  0  0  0  0
  139.5090   70.5820  222.7840 C   0  0  0  0  0  0  0  0  0  0  0  0
  139.5390   69.6500  223.8250 C   0  0  0  0  0  0  0  0  0  0  0  0
  140.0410   70.0020  225.0640 C   0  0  0  0  0  0  0  0  0  0  0  0
  140.0900   69.1120  226.1240 C   0  0  0  0  0  0  0  0  0  0  0  0
  140.6110   69.5560  227.3310 C   0  0  0  0  0  0  0  0  0  0  0  0
  140.6990   68.4750  228.7080 Cl  0  0  0  0  0  0  0  0  0  0  0  0
  141.0760   70.8480  227.5040 C   0  0  0  0  0  0  0  0  0  0  0  0
  141.0190   71.7250  226.4330 C   0  0  0  0  0  0  0  0  0  0  0  0
  140.4990   71.3020  225.2060 C   0  0  0  0  0  0  0  0  0  0  0  0
  140.4540   72.1750  224.1790 N   0  0  0  0  0  0  0  0  0  0  0  0
  139.0390   74.3770  223.0900 H   0  0  0  0  0  0  0  0  0  0  0  0
  139.3795   74.5545  220.0885 H   0  0  0  0  0  0  0  0  0  0  0  0
  138.4541   75.6946  221.1124 H   0  0  0  0  0  0  0  0  0  0  0  0
  142.4509   77.6696  221.1813 H   0  0  0  0  0  0  0  0  0  0  0  0
  143.1794   77.2114  219.6313 H   0  0  0  0  0  0  0  0  0  0  0  0
  140.9951   79.2279  220.2291 H   0  0  0  0  0  0  0  0  0  0  0  0
  142.3723   79.3642  219.1000 H   0  0  0  0  0  0  0  0  0  0  0  0
  139.7072   77.9917  218.7543 H   0  0  0  0  0  0  0  0  0  0  0  0
  140.6560   79.0079  217.5964 H   0  0  0  0  0  0  0  0  0  0  0  0
  140.7322   76.7498  216.7654 H   0  0  0  0  0  0  0  0  0  0  0  0
  142.3340   77.0876  217.4576 H   0  0  0  0  0  0  0  0  0  0  0  0
  140.0675   75.3929  218.5661 H   0  0  0  0  0  0  0  0  0  0  0  0
  141.6464   74.0042  217.7053 H   0  0  0  0  0  0  0  0  0  0  0  0
  143.0032   75.1468  218.0623 H   0  0  0  0  0  0  0  0  0  0  0  0
  141.6020   73.7600  220.3610 H   0  0  0  0  0  0  0  0  0  0  0  0
  144.2121   75.5060  220.7816 H   0  0  0  0  0  0  0  0  0  0  0  0
  146.5546   74.8485  221.3105 H   0  0  0  0  0  0  0  0  0  0  0  0
  147.3275   72.5387  220.7673 H   0  0  0  0  0  0  0  0  0  0  0  0
  145.7580   70.9119  219.7019 H   0  0  0  0  0  0  0  0  0  0  0  0
  143.4440   71.6083  219.1973 H   0  0  0  0  0  0  0  0  0  0  0  0
  139.1061   70.2822  221.8053 H   0  0  0  0  0  0  0  0  0  0  0  0
  139.1610   68.6306  223.6575 H   0  0  0  0  0  0  0  0  0  0  0  0
  139.7255   68.0802  226.0120 H   0  0  0  0  0  0  0  0  0  0  0  0
  141.4830   71.1723  228.4731 H   0  0  0  0  0  0  0  0  0  0  0  0
  141.3836   72.7564  226.5482 H   0  0  0  0  0  0  0  0  0  0  0  0
  1  2  2  0
  2  3  1  0
  3  4  1  0
  4  5  1  0
  5  6  2  0
  5  7  1  0
  7  8  1  0
  8  9  1  0
  9 10  1  0
 10 11  1  0
 11 12  1  0
 12 13  1  0
 13 14  1  0
 14 15  1  0
 15 16  2  0
 16 17  1  0
 17 18  2  0
 18 19  1  0
 19 20  2  0
  2 21  1  0
 21 22  2  0
 22 23  1  0
 23 24  2  0
 24 25  1  0
 25 26  2  0
 26 27  1  0
 26 28  1  0
 28 29  2  0
 29 30  1  0
 30 31  2  0
 12  7  1  0
 20 15  1  0
 31 21  1  0
 30 24  1  0
  3 32  1  0
  4 33  1  0
  4 34  1  0
  8 35  1  0
  8 36  1  0
  9 37  1  0
  9 38  1  0
 10 39  1  0
 10 40  1  0
 11 41  1  0
 11 42  1  0
 12 43  1  1
 13 44  1  0
 13 45  1  0
 14 46  1  0
 16 47  1  0
 17 48  1  0
 18 49  1  0
 19 50  1  0
 20 51  1  0
 22 52  1  0
 23 53  1  0
 25 54  1  0
 28 55  1  0
 29 56  1  0
M  END
>  <smiles>  (44) 
O=C(NCC(=O)N1CCCC[C@H]1CNc1ccccc1)c1ccc2cc(Cl)ccc2n1

>  <score_type>  (44) 
oracle

>  <origin>  (44) 
autodockgpu

>  <m_score__min__energy>  (44) 
-8.9800000000000004

>  <m_primary>  (44) 
energy

>  <rmsd>  (44) 
4.786312320704701

>  <m_score__min__rmsd>  (44) 
4.786312320704701

>  <meeko>  (44) 
{"free_energy": -8.02, "intermolecular_energy": -10.1, "internal_energy": -2.8, "cluster_size": 11, "cluster_id": 1, "rank_in_cluster": 8}

>  <energy>  (44) 
-7.58

>  <cluster_rmsd>  (44) 
1.11

>  <cluster>  (44) 
4

$$$$

     RDKit          3D

 56 59  0  0  0  0  0  0  0  0999 V2000
  137.9160   76.5550  220.1310 O   0  0  0  0  0  0  0  0  0  0  0  0
  137.9070   76.3890  221.3750 C   0  0  0  0  0  0  0  0  0  0  0  0
  138.4180   75.2300  222.0220 N   0  0  0  0  0  0  0  0  0  0  0  0
  138.9770   74.1920  221.1900 C   0  0  0  0  0  0  0  0  0  0  0  0
  140.4360   74.2160  221.3270 C   0  0  0  0  0  0  0  0  0  0  0  0
  141.0200   73.7030  222.3250 O   0  0  0  0  0  0  0  0  0  0  0  0
  141.2780   74.8160  220.3490 N   0  0  0  0  0  0  0  0  0  0  0  0
  141.6240   74.0850  219.1430 C   0  0  0  0  0  0  0  0  0  0  0  0
  143.0720   73.6800  219.2960 C   0  0  0  0  0  0  0  0  0  0  0  0
  143.7770   74.7520  220.0960 C   0  0  0  0  0  0  0  0  0  0  0  0
  143.1810   76.1230  219.8230 C   0  0  0  0  0  0  0  0  0  0  0  0
  141.8280   76.1510  220.4860 C   0  0  1  0  0  0  0  0  0  0  0  0
  140.9090   77.1710  219.8270 C   0  0  0  0  0  0  0  0  0  0  0  0
  140.2730   78.0180  220.8140 N   0  0  0  0  0  0  0  0  0  0  0  0
  141.0590   78.7060  221.7740 C   0  0  0  0  0  0  0  0  0  0  0  0
  141.1050   78.2350  223.0800 C   0  0  0  0  0  0  0  0  0  0  0  0
  141.8640   78.8830  224.0450 C   0  0  0  0  0  0  0  0  0  0  0  0
  142.5820   80.0170  223.6860 C   0  0  0  0  0  0  0  0  0  0  0  0
  142.5390   80.4940  222.3780 C   0  0  0  0  0  0  0  0  0  0  0  0
  141.7760   79.8250  221.4480 C   0  0  0  0  0  0  0  0  0  0  0  0
  137.3390   77.4460  222.2140 C   0  0  0  0  0  0  0  0  0  0  0  0
  135.9960   77.4520  222.5490 C   0  0  0  0  0  0  0  0  0  0  0  0
  135.4480   78.4590  223.3500 C   0  0  0  0  0  0  0  0  0  0  0  0
  136.2450   79.4810  223.8300 C   0  0  0  0  0  0  0  0  0  0  0  0
  135.7460   80.4980  224.6260 C   0  0  0  0  0  0  0  0  0  0  0  0
  136.6220   81.4820  225.0620 C   0  0  0  0  0  0  0  0  0  0  0  0
  136.0480   82.7940  226.0720 Cl  0  0  0  0  0  0  0  0  0  0  0  0
  137.9650   81.4760  224.7270 C   0  0  0  0  0  0  0  0  0  0  0  0
  138.4470   80.4500  223.9290 C   0  0  0  0  0  0  0  0  0  0  0  0
  137.5850   79.4470  223.4780 C   0  0  0  0  0  0  0  0  0  0  0  0
  138.0790   78.4600  222.7030 N   0  0  0  0  0  0  0  0  0  0  0  0
  138.3870   75.1380  223.0690 H   0  0  0  0  0  0  0  0  0  0  0  0
  138.5911   73.2129  221.5100 H   0  0  0  0  0  0  0  0  0  0  0  0
  138.6959   74.3607  220.1400 H   0  0  0  0  0  0  0  0  0  0  0  0
  140.9874   73.1936  219.0416 H   0  0  0  0  0  0  0  0  0  0  0  0
  141.4729   74.7006  218.2440 H   0  0  0  0  0  0  0  0  0  0  0  0
  143.1362   72.7174  219.8245 H   0  0  0  0  0  0  0  0  0  0  0  0
  143.5434   73.5692  218.3083 H   0  0  0  0  0  0  0  0  0  0  0  0
  143.6770   74.5242  221.1675 H   0  0  0  0  0  0  0  0  0  0  0  0
  144.8363   74.7675  219.7999 H   0  0  0  0  0  0  0  0  0  0  0  0
  143.8261   76.9071  220.2461 H   0  0  0  0  0  0  0  0  0  0  0  0
  143.0940   76.3068  218.7420 H   0  0  0  0  0  0  0  0  0  0  0  0
  141.9206   76.4450  221.5419 H   0  0  0  0  0  0  0  0  0  0  0  0
  141.5005   77.7981  219.1438 H   0  0  0  0  0  0  0  0  0  0  0  0
  140.1257   76.6293  219.2765 H   0  0  0  0  0  0  0  0  0  0  0  0
  139.2260   78.1420  220.8440 H   0  0  0  0  0  0  0  0  0  0  0  0
  140.5323   77.3365  223.3532 H   0  0  0  0  0  0  0  0  0  0  0  0
  141.8964   78.5047  225.0774 H   0  0  0  0  0  0  0  0  0  0  0  0
  143.1882   80.5414  224.4394 H   0  0  0  0  0  0  0  0  0  0  0  0
  143.1064   81.3921  222.0925 H   0  0  0  0  0  0  0  0  0  0  0  0
  141.7417   80.2001  220.4145 H   0  0  0  0  0  0  0  0  0  0  0  0
  135.3453   76.6469  222.1770 H   0  0  0  0  0  0  0  0  0  0  0  0
  134.3768   78.4375  223.5993 H   0  0  0  0  0  0  0  0  0  0  0  0
  134.6825   80.5253  224.9056 H   0  0  0  0  0  0  0  0  0  0  0  0
  138.6364   82.2695  225.0868 H   0  0  0  0  0  0  0  0  0  0  0  0
  139.5108   80.4254  223.6501 H   0  0  0  0  0  0  0  0  0  0  0  0
  1  2  2  0
  2  3  1  0
  3  4  1  0
  4  5  1  0
  5  6  2  0
  5  7  1  0
  7  8  1  0
  8  9  1  0
  9 10  1  0
 10 11  1  0
 11 12  1  0
 12 13  1  0
 13 14  1  0
 14 15  1  0
 15 16  2  0
 16 17  1  0
 17 18  2  0
 18 19  1  0
 19 20  2  0
  2 21  1  0
 21 22  2  0
 22 23  1  0
 23 24  2  0
 24 25  1  0
 25 26  2  0
 26 27  1  0
 26 28  1  0
 28 29  2  0
 29 30  1  0
 30 31  2  0
 12  7  1  0
 20 15  1  0
 31 21  1  0
 30 24  1  0
  3 32  1  0
  4 33  1  0
  4 34  1  0
  8 35  1  0
  8 36  1  0
  9 37  1  0
  9 38  1  0
 10 39  1  0
 10 40  1  0
 11 41  1  0
 11 42  1  0
 12 43  1  1
 13 44  1  0
 13 45  1  0
 14 46  1  0
 16 47  1  0
 17 48  1  0
 18 49  1  0
 19 50  1  0
 20 51  1  0
 22 52  1  0
 23 53  1  0
 25 54  1  0
 28 55  1  0
 29 56  1  0
M  END
>  <smiles>  (45) 
O=C(NCC(=O)N1CCCC[C@H]1CNc1ccccc1)c1ccc2cc(Cl)ccc2n1

>  <score_type>  (45) 
oracle

>  <origin>  (45) 
autodockgpu

>  <m_score__min__energy>  (45) 
-8.9800000000000004

>  <m_primary>  (45) 
energy

>  <rmsd>  (45) 
6.600689011305852

>  <m_score__min__rmsd>  (45) 
6.600689011305852

>  <meeko>  (45) 
{"free_energy": -6.71, "intermolecular_energy": -8.8, "internal_energy": -3.82, "cluster_size": 2, "cluster_id": 7, "rank_in_cluster": 2}

>  <energy>  (45) 
-7.51

>  <cluster_rmsd>  (45) 
1.08

>  <cluster>  (45) 
4

$$$$

     RDKit          3D

 56 59  0  0  0  0  0  0  0  0999 V2000
  138.6730   71.7370  220.8400 O   0  0  0  0  0  0  0  0  0  0  0  0
  139.0550   72.2090  221.9390 C   0  0  0  0  0  0  0  0  0  0  0  0
  139.2420   73.5980  222.1810 N   0  0  0  0  0  0  0  0  0  0  0  0
  138.9740   74.5080  221.0940 C   0  0  0  0  0  0  0  0  0  0  0  0
  139.4960   75.8310  221.4500 C   0  0  0  0  0  0  0  0  0  0  0  0
  139.8480   76.1110  222.6330 O   0  0  0  0  0  0  0  0  0  0  0  0
  139.6360   76.8720  220.4920 N   0  0  0  0  0  0  0  0  0  0  0  0
  138.6920   77.9760  220.4770 C   0  0  0  0  0  0  0  0  0  0  0  0
  137.8190   77.7680  219.2610 C   0  0  0  0  0  0  0  0  0  0  0  0
  138.6570   77.1060  218.1900 C   0  0  0  0  0  0  0  0  0  0  0  0
  140.1080   77.5510  218.2720 C   0  0  0  0  0  0  0  0  0  0  0  0
  140.6940   76.9020  219.5000 C   0  0  1  0  0  0  0  0  0  0  0  0
  141.8880   77.6870  220.0250 C   0  0  0  0  0  0  0  0  0  0  0  0
  141.8270   77.8340  221.4640 N   0  0  0  0  0  0  0  0  0  0  0  0
  141.8280   79.1280  222.0480 C   0  0  0  0  0  0  0  0  0  0  0  0
  142.4360   79.3160  223.2830 C   0  0  0  0  0  0  0  0  0  0  0  0
  142.4560   80.5680  223.8830 C   0  0  0  0  0  0  0  0  0  0  0  0
  141.8570   81.6370  223.2290 C   0  0  0  0  0  0  0  0  0  0  0  0
  141.2470   81.4530  221.9910 C   0  0  0  0  0  0  0  0  0  0  0  0
  141.2460   80.1980  221.4260 C   0  0  0  0  0  0  0  0  0  0  0  0
  139.3250   71.2800  223.0390 C   0  0  0  0  0  0  0  0  0  0  0  0
  138.9720   69.9440  222.9520 C   0  0  0  0  0  0  0  0  0  0  0  0
  139.2280   69.0530  223.9990 C   0  0  0  0  0  0  0  0  0  0  0  0
  139.8450   69.4920  225.1550 C   0  0  0  0  0  0  0  0  0  0  0  0
  140.1170   68.6460  226.2170 C   0  0  0  0  0  0  0  0  0  0  0  0
  140.7400   69.1760  227.3370 C   0  0  0  0  0  0  0  0  0  0  0  0
  141.1100   68.1530  228.7120 Cl  0  0  0  0  0  0  0  0  0  0  0  0
  141.0920   70.5120  227.4240 C   0  0  0  0  0  0  0  0  0  0  0  0
  140.8110   71.3440  226.3520 C   0  0  0  0  0  0  0  0  0  0  0  0
  140.1850   70.8340  225.2110 C   0  0  0  0  0  0  0  0  0  0  0  0
  139.9230   71.6650  224.1820 N   0  0  0  0  0  0  0  0  0  0  0  0
  139.5640   73.9440  223.1200 H   0  0  0  0  0  0  0  0  0  0  0  0
  139.4687   74.1485  220.1796 H   0  0  0  0  0  0  0  0  0  0  0  0
  137.8906   74.5683  220.9137 H   0  0  0  0  0  0  0  0  0  0  0  0
  138.0805   77.9673  221.3914 H   0  0  0  0  0  0  0  0  0  0  0  0
  139.2099   78.9456  220.4374 H   0  0  0  0  0  0  0  0  0  0  0  0
  136.9666   77.1227  219.5197 H   0  0  0  0  0  0  0  0  0  0  0  0
  137.4311   78.7321  218.9004 H   0  0  0  0  0  0  0  0  0  0  0  0
  138.6087   76.0148  218.3204 H   0  0  0  0  0  0  0  0  0  0  0  0
  138.2588   77.3979  217.2070 H   0  0  0  0  0  0  0  0  0  0  0  0
  140.6549   77.2263  217.3745 H   0  0  0  0  0  0  0  0  0  0  0  0
  140.1819   78.6469  218.3314 H   0  0  0  0  0  0  0  0  0  0  0  0
  141.0586   75.8909  219.2661 H   0  0  0  0  0  0  0  0  0  0  0  0
  142.8128   77.1547  219.7577 H   0  0  0  0  0  0  0  0  0  0  0  0
  141.8721   78.6892  219.5718 H   0  0  0  0  0  0  0  0  0  0  0  0
  141.7800   76.9970  222.1040 H   0  0  0  0  0  0  0  0  0  0  0  0
  142.9075   78.4623  223.7919 H   0  0  0  0  0  0  0  0  0  0  0  0
  142.9387   80.7111  224.8610 H   0  0  0  0  0  0  0  0  0  0  0  0
  141.8646   82.6348  223.6919 H   0  0  0  0  0  0  0  0  0  0  0  0
  140.7725   82.2988  221.4718 H   0  0  0  0  0  0  0  0  0  0  0  0
  140.7642   80.0516  220.4480 H   0  0  0  0  0  0  0  0  0  0  0  0
  138.4797   69.5756  222.0399 H   0  0  0  0  0  0  0  0  0  0  0  0
  138.9366   67.9968  223.9018 H   0  0  0  0  0  0  0  0  0  0  0  0
  139.8459   67.5808  226.1734 H   0  0  0  0  0  0  0  0  0  0  0  0
  141.5846   70.9051  228.3255 H   0  0  0  0  0  0  0  0  0  0  0  0
  141.0815   72.4092  226.3991 H   0  0  0  0  0  0  0  0  0  0  0  0
  1  2  2  0
  2  3  1  0
  3  4  1  0
  4  5  1  0
  5  6  2  0
  5  7  1  0
  7  8  1  0
  8  9  1  0
  9 10  1  0
 10 11  1  0
 11 12  1  0
 12 13  1  0
 13 14  1  0
 14 15  1  0
 15 16  2  0
 16 17  1  0
 17 18  2  0
 18 19  1  0
 19 20  2  0
  2 21  1  0
 21 22  2  0
 22 23  1  0
 23 24  2  0
 24 25  1  0
 25 26  2  0
 26 27  1  0
 26 28  1  0
 28 29  2  0
 29 30  1  0
 30 31  2  0
 12  7  1  0
 20 15  1  0
 31 21  1  0
 30 24  1  0
  3 32  1  0
  4 33  1  0
  4 34  1  0
  8 35  1  0
  8 36  1  0
  9 37  1  0
  9 38  1  0
 10 39  1  0
 10 40  1  0
 11 41  1  0
 11 42  1  0
 12 43  1  6
 13 44  1  0
 13 45  1  0
 14 46  1  0
 16 47  1  0
 17 48  1  0
 18 49  1  0
 19 50  1  0
 20 51  1  0
 22 52  1  0
 23 53  1  0
 25 54  1  0
 28 55  1  0
 29 56  1  0
M  END
>  <smiles>  (46) 
O=C(NCC(=O)N1CCCC[C@H]1CNc1ccccc1)c1ccc2cc(Cl)ccc2n1

>  <score_type>  (46) 
oracle

>  <origin>  (46) 
autodockgpu

>  <m_score__min__energy>  (46) 
-8.9800000000000004

>  <m_primary>  (46) 
energy

>  <rmsd>  (46) 
2.2574570359929345

>  <m_score__min__rmsd>  (46) 
2.2574570359929345

>  <meeko>  (46) 
{"free_energy": -8.31, "intermolecular_energy": -10.39, "internal_energy": -3.01, "cluster_size": 27, "cluster_id": 2, "rank_in_cluster": 13}

>  <energy>  (46) 
-7.17

>  <cluster_rmsd>  (46) 
1.96

>  <cluster>  (46) 
4

$$$$

     RDKit          3D

 56 59  0  0  0  0  0  0  0  0999 V2000
  140.6830   72.8400  220.6290 O   0  0  0  0  0  0  0  0  0  0  0  0
  140.2170   73.1270  221.7580 C   0  0  0  0  0  0  0  0  0  0  0  0
  139.7360   74.4190  222.1090 N   0  0  0  0  0  0  0  0  0  0  0  0
  139.7920   75.4500  221.1000 C   0  0  0  0  0  0  0  0  0  0  0  0
  140.4180   76.6420  221.6830 C   0  0  0  0  0  0  0  0  0  0  0  0
  140.1820   77.0040  222.8720 O   0  0  0  0  0  0  0  0  0  0  0  0
  141.3230   77.4560  220.9480 N   0  0  0  0  0  0  0  0  0  0  0  0
  141.8360   78.6820  221.5350 C   0  0  0  0  0  0  0  0  0  0  0  0
  141.1440   79.8160  220.8150 C   0  0  0  0  0  0  0  0  0  0  0  0
  140.8830   79.3790  219.3910 C   0  0  0  0  0  0  0  0  0  0  0  0
  141.9730   78.4430  218.8950 C   0  0  0  0  0  0  0  0  0  0  0  0
  141.7790   77.1300  219.6100 C   0  0  1  0  0  0  0  0  0  0  0  0
  143.0770   76.3370  219.6740 C   0  0  0  0  0  0  0  0  0  0  0  0
  142.8220   74.9340  219.9250 N   0  0  0  0  0  0  0  0  0  0  0  0
  143.9050   74.0320  220.0900 C   0  0  0  0  0  0  0  0  0  0  0  0
  145.1300   74.5160  220.5340 C   0  0  0  0  0  0  0  0  0  0  0  0
  146.2120   73.6630  220.7060 C   0  0  0  0  0  0  0  0  0  0  0  0
  146.0530   72.3100  220.4290 C   0  0  0  0  0  0  0  0  0  0  0  0
  144.8270   71.8220  219.9840 C   0  0  0  0  0  0  0  0  0  0  0  0
  143.7770   72.6970  219.8250 C   0  0  0  0  0  0  0  0  0  0  0  0
  140.1620   72.0770  222.7770 C   0  0  0  0  0  0  0  0  0  0  0  0
  139.6290   70.8310  222.4940 C   0  0  0  0  0  0  0  0  0  0  0  0
  139.5730   69.8240  223.4620 C   0  0  0  0  0  0  0  0  0  0  0  0
  140.0560   70.0540  224.7370 C   0  0  0  0  0  0  0  0  0  0  0  0
  140.0220   69.0870  225.7280 C   0  0  0  0  0  0  0  0  0  0  0  0
  140.5300   69.4090  226.9780 C   0  0  0  0  0  0  0  0  0  0  0  0
  140.5140   68.2260  228.2710 Cl  0  0  0  0  0  0  0  0  0  0  0  0
  141.0630   70.6550  227.2610 C   0  0  0  0  0  0  0  0  0  0  0  0
  141.0880   71.6100  226.2570 C   0  0  0  0  0  0  0  0  0  0  0  0
  140.5830   71.3100  224.9890 C   0  0  0  0  0  0  0  0  0  0  0  0
  140.6200   72.2580  224.0300 N   0  0  0  0  0  0  0  0  0  0  0  0
  139.3540   74.6110  223.0690 H   0  0  0  0  0  0  0  0  0  0  0  0
  140.3880   75.0993  220.2445 H   0  0  0  0  0  0  0  0  0  0  0  0
  138.7767   75.6909  220.7521 H   0  0  0  0  0  0  0  0  0  0  0  0
  141.6053   78.7157  222.6100 H   0  0  0  0  0  0  0  0  0  0  0  0
  142.9290   78.7492  221.4314 H   0  0  0  0  0  0  0  0  0  0  0  0
  140.1917   80.0485  221.3141 H   0  0  0  0  0  0  0  0  0  0  0  0
  141.7753   80.7167  220.8274 H   0  0  0  0  0  0  0  0  0  0  0  0
  139.9152   78.8579  219.3472 H   0  0  0  0  0  0  0  0  0  0  0  0
  140.8719   80.2721  218.7489 H   0  0  0  0  0  0  0  0  0  0  0  0
  141.8829   78.2992  217.8082 H   0  0  0  0  0  0  0  0  0  0  0  0
  142.9714   78.8583  219.0967 H   0  0  0  0  0  0  0  0  0  0  0  0
  141.0510   76.5026  219.0750 H   0  0  0  0  0  0  0  0  0  0  0  0
  143.6075   76.4394  218.7158 H   0  0  0  0  0  0  0  0  0  0  0  0
  143.6867   76.7332  220.4994 H   0  0  0  0  0  0  0  0  0  0  0  0
  141.8400   74.5540  219.9910 H   0  0  0  0  0  0  0  0  0  0  0  0
  145.2437   75.5882  220.7518 H   0  0  0  0  0  0  0  0  0  0  0  0
  147.1797   74.0517  221.0559 H   0  0  0  0  0  0  0  0  0  0  0  0
  146.9002   71.6211  220.5621 H   0  0  0  0  0  0  0  0  0  0  0  0
  144.6997   70.7520  219.7627 H   0  0  0  0  0  0  0  0  0  0  0  0
  142.8079   72.3117  219.4750 H   0  0  0  0  0  0  0  0  0  0  0  0
  139.2409   70.6289  221.4848 H   0  0  0  0  0  0  0  0  0  0  0  0
  139.1426   68.8440  223.2082 H   0  0  0  0  0  0  0  0  0  0  0  0
  139.6031   68.0896  225.5290 H   0  0  0  0  0  0  0  0  0  0  0  0
  141.4585   70.8823  228.2620 H   0  0  0  0  0  0  0  0  0  0  0  0
  141.5066   72.6070  226.4588 H   0  0  0  0  0  0  0  0  0  0  0  0
  1  2  2  0
  2  3  1  0
  3  4  1  0
  4  5  1  0
  5  6  2  0
  5  7  1  0
  7  8  1  0
  8  9  1  0
  9 10  1  0
 10 11  1  0
 11 12  1  0
 12 13  1  0
 13 14  1  0
 14 15  1  0
 15 16  2  0
 16 17  1  0
 17 18  2  0
 18 19  1  0
 19 20  2  0
  2 21  1  0
 21 22  2  0
 22 23  1  0
 23 24  2  0
 24 25  1  0
 25 26  2  0
 26 27  1  0
 26 28  1  0
 28 29  2  0
 29 30  1  0
 30 31  2  0
 12  7  1  0
 20 15  1  0
 31 21  1  0
 30 24  1  0
  3 32  1  0
  4 33  1  0
  4 34  1  0
  8 35  1  0
  8 36  1  0
  9 37  1  0
  9 38  1  0
 10 39  1  0
 10 40  1  0
 11 41  1  0
 11 42  1  0
 12 43  1  6
 13 44  1  0
 13 45  1  0
 14 46  1  0
 16 47  1  0
 17 48  1  0
 18 49  1  0
 19 50  1  0
 20 51  1  0
 22 52  1  0
 23 53  1  0
 25 54  1  0
 28 55  1  0
 29 56  1  0
M  END
>  <smiles>  (47) 
O=C(NCC(=O)N1CCCC[C@H]1CNc1ccccc1)c1ccc2cc(Cl)ccc2n1

>  <score_type>  (47) 
oracle

>  <origin>  (47) 
autodockgpu

>  <m_score__min__energy>  (47) 
-8.9800000000000004

>  <m_primary>  (47) 
energy

>  <rmsd>  (47) 
5.027080910410417

>  <m_score__min__rmsd>  (47) 
5.027080910410417

>  <meeko>  (47) 
{"free_energy": -8.5, "intermolecular_energy": -10.59, "internal_energy": -2.74, "cluster_size": 11, "cluster_id": 1, "rank_in_cluster": 5}

>  <energy>  (47) 
-7.72

>  <cluster_rmsd>  (47) 
0.0

>  <cluster>  (47) 
5

$$$$

     RDKit          3D

 56 59  0  0  0  0  0  0  0  0999 V2000
  138.8470   73.6380  220.3140 O   0  0  0  0  0  0  0  0  0  0  0  0
  138.6430   74.3070  221.3560 C   0  0  0  0  0  0  0  0  0  0  0  0
  137.6740   73.9620  222.3390 N   0  0  0  0  0  0  0  0  0  0  0  0
  136.8860   72.7740  222.1130 C   0  0  0  0  0  0  0  0  0  0  0  0
  137.2770   71.7590  223.0960 C   0  0  0  0  0  0  0  0  0  0  0  0
  136.5640   71.5030  224.1090 O   0  0  0  0  0  0  0  0  0  0  0  0
  138.4760   71.0050  222.9670 N   0  0  0  0  0  0  0  0  0  0  0  0
  139.7150   71.5120  223.5290 C   0  0  0  0  0  0  0  0  0  0  0  0
  140.5590   71.9570  222.3570 C   0  0  0  0  0  0  0  0  0  0  0  0
  140.2460   71.0560  221.1840 C   0  0  0  0  0  0  0  0  0  0  0  0
  139.9020   69.6500  221.6480 C   0  0  0  0  0  0  0  0  0  0  0  0
  138.5400   69.7230  222.2910 C   0  0  1  0  0  0  0  0  0  0  0  0
  138.3360   68.5900  223.2870 C   0  0  0  0  0  0  0  0  0  0  0  0
  138.1320   69.1000  224.6270 N   0  0  0  0  0  0  0  0  0  0  0  0
  139.1120   68.8790  225.6290 C   0  0  0  0  0  0  0  0  0  0  0  0
  139.5310   69.9450  226.4160 C   0  0  0  0  0  0  0  0  0  0  0  0
  140.4870   69.7650  227.4060 C   0  0  0  0  0  0  0  0  0  0  0  0
  141.0240   68.4980  227.6020 C   0  0  0  0  0  0  0  0  0  0  0  0
  140.6070   67.4280  226.8150 C   0  0  0  0  0  0  0  0  0  0  0  0
  139.6570   67.6430  225.8430 C   0  0  0  0  0  0  0  0  0  0  0  0
  139.4460   75.5100  221.5800 C   0  0  0  0  0  0  0  0  0  0  0  0
  140.6790   75.6730  220.9720 C   0  0  0  0  0  0  0  0  0  0  0  0
  141.4500   76.8200  221.1820 C   0  0  0  0  0  0  0  0  0  0  0  0
  140.9930   77.8270  222.0110 C   0  0  0  0  0  0  0  0  0  0  0  0
  141.7220   78.9810  222.2480 C   0  0  0  0  0  0  0  0  0  0  0  0
  141.1820   79.9380  223.0950 C   0  0  0  0  0  0  0  0  0  0  0  0
  142.0580   81.4180  223.4320 Cl  0  0  0  0  0  0  0  0  0  0  0  0
  139.9490   79.7750  223.7030 C   0  0  0  0  0  0  0  0  0  0  0  0
  139.2340   78.6140  223.4540 C   0  0  0  0  0  0  0  0  0  0  0  0
  139.7560   77.6350  222.6040 C   0  0  0  0  0  0  0  0  0  0  0  0
  139.0390   76.5150  222.3790 N   0  0  0  0  0  0  0  0  0  0  0  0
  137.5410   74.5550  223.1970 H   0  0  0  0  0  0  0  0  0  0  0  0
  135.8179   73.0102  222.2291 H   0  0  0  0  0  0  0  0  0  0  0  0
  137.0589   72.3967  221.0943 H   0  0  0  0  0  0  0  0  0  0  0  0
  139.5111   72.3622  224.1966 H   0  0  0  0  0  0  0  0  0  0  0  0
  140.2293   70.7430  224.1241 H   0  0  0  0  0  0  0  0  0  0  0  0
  140.3205   72.9997  222.1003 H   0  0  0  0  0  0  0  0  0  0  0  0
  141.6274   71.8945  222.6112 H   0  0  0  0  0  0  0  0  0  0  0  0
  139.3904   71.4709  220.6311 H   0  0  0  0  0  0  0  0  0  0  0  0
  141.1352   71.0023  220.5387 H   0  0  0  0  0  0  0  0  0  0  0  0
  139.8787   68.9631  220.7891 H   0  0  0  0  0  0  0  0  0  0  0  0
  140.6535   69.2744  222.3581 H   0  0  0  0  0  0  0  0  0  0  0  0
  137.7485   69.6237  221.5336 H   0  0  0  0  0  0  0  0  0  0  0  0
  137.4543   68.0041  222.9881 H   0  0  0  0  0  0  0  0  0  0  0  0
  139.2382   67.9607  223.2878 H   0  0  0  0  0  0  0  0  0  0  0  0
  137.2640   69.6400  224.8860 H   0  0  0  0  0  0  0  0  0  0  0  0
  139.0997   70.9436  226.2523 H   0  0  0  0  0  0  0  0  0  0  0  0
  140.8148   70.6123  228.0262 H   0  0  0  0  0  0  0  0  0  0  0  0
  141.7824   68.3400  228.3830 H   0  0  0  0  0  0  0  0  0  0  0  0
  141.0310   66.4246  226.9681 H   0  0  0  0  0  0  0  0  0  0  0  0
  139.3269   66.7978  225.2212 H   0  0  0  0  0  0  0  0  0  0  0  0
  141.0605   74.8825  220.3090 H   0  0  0  0  0  0  0  0  0  0  0  0
  142.4259   76.9217  220.6847 H   0  0  0  0  0  0  0  0  0  0  0  0
  142.7039   79.1346  221.7766 H   0  0  0  0  0  0  0  0  0  0  0  0
  139.5451   80.5509  224.3700 H   0  0  0  0  0  0  0  0  0  0  0  0
  138.2525   78.4626  223.9269 H   0  0  0  0  0  0  0  0  0  0  0  0
  1  2  2  0
  2  3  1  0
  3  4  1  0
  4  5  1  0
  5  6  2  0
  5  7  1  0
  7  8  1  0
  8  9  1  0
  9 10  1  0
 10 11  1  0
 11 12  1  0
 12 13  1  0
 13 14  1  0
 14 15  1  0
 15 16  2  0
 16 17  1  0
 17 18  2  0
 18 19  1  0
 19 20  2  0
  2 21  1  0
 21 22  2  0
 22 23  1  0
 23 24  2  0
 24 25  1  0
 25 26  2  0
 26 27  1  0
 26 28  1  0
 28 29  2  0
 29 30  1  0
 30 31  2  0
 12  7  1  0
 20 15  1  0
 31 21  1  0
 30 24  1  0
  3 32  1  0
  4 33  1  0
  4 34  1  0
  8 35  1  0
  8 36  1  0
  9 37  1  0
  9 38  1  0
 10 39  1  0
 10 40  1  0
 11 41  1  0
 11 42  1  0
 12 43  1  6
 13 44  1  0
 13 45  1  0
 14 46  1  0
 16 47  1  0
 17 48  1  0
 18 49  1  0
 19 50  1  0
 20 51  1  0
 22 52  1  0
 23 53  1  0
 25 54  1  0
 28 55  1  0
 29 56  1  0
M  END
>  <smiles>  (48) 
O=C(NCC(=O)N1CCCC[C@H]1CNc1ccccc1)c1ccc2cc(Cl)ccc2n1

>  <score_type>  (48) 
oracle

>  <origin>  (48) 
autodockgpu

>  <m_score__min__energy>  (48) 
-8.9800000000000004

>  <m_primary>  (48) 
energy

>  <rmsd>  (48) 
9.254504402858817

>  <m_score__min__rmsd>  (48) 
9.254504402858817

>  <meeko>  (48) 
{"free_energy": -7.51, "intermolecular_energy": -9.6, "internal_energy": -2.93, "cluster_size": 6, "cluster_id": 4, "rank_in_cluster": 5}

>  <energy>  (48) 
-7.16

>  <cluster_rmsd>  (48) 
0.0

>  <cluster>  (48) 
6

$$$$

     RDKit          3D

 56 59  0  0  0  0  0  0  0  0999 V2000
  138.9090   71.8730  220.5750 O   0  0  0  0  0  0  0  0  0  0  0  0
  138.8750   72.3490  221.7360 C   0  0  0  0  0  0  0  0  0  0  0  0
  138.5720   73.7090  222.0230 N   0  0  0  0  0  0  0  0  0  0  0  0
  138.2910   74.5810  220.9090 C   0  0  0  0  0  0  0  0  0  0  0  0
  139.4880   74.6660  220.0660 C   0  0  0  0  0  0  0  0  0  0  0  0
  139.6310   73.9420  219.0380 O   0  0  0  0  0  0  0  0  0  0  0  0
  140.5530   75.5630  220.3540 N   0  0  0  0  0  0  0  0  0  0  0  0
  141.1880   75.5400  221.6600 C   0  0  0  0  0  0  0  0  0  0  0  0
  140.7210   76.7850  222.3780 C   0  0  0  0  0  0  0  0  0  0  0  0
  140.5130   77.8710  221.3460 C   0  0  0  0  0  0  0  0  0  0  0  0
  141.4940   77.7310  220.1940 C   0  0  0  0  0  0  0  0  0  0  0  0
  141.0610   76.5270  219.3960 C   0  0  1  0  0  0  0  0  0  0  0  0
  142.2250   75.9320  218.6150 C   0  0  0  0  0  0  0  0  0  0  0  0
  142.3720   74.5180  218.8900 N   0  0  0  0  0  0  0  0  0  0  0  0
  143.4630   74.0540  219.6700 C   0  0  0  0  0  0  0  0  0  0  0  0
  143.5380   72.7070  219.9990 C   0  0  0  0  0  0  0  0  0  0  0  0
  144.5910   72.2180  220.7610 C   0  0  0  0  0  0  0  0  0  0  0  0
  145.5750   73.0990  221.1920 C   0  0  0  0  0  0  0  0  0  0  0  0
  145.5030   74.4510  220.8640 C   0  0  0  0  0  0  0  0  0  0  0  0
  144.4450   74.9000  220.1070 C   0  0  0  0  0  0  0  0  0  0  0  0
  139.1600   71.4590  222.8630 C   0  0  0  0  0  0  0  0  0  0  0  0
  138.7910   70.1250  222.8350 C   0  0  0  0  0  0  0  0  0  0  0  0
  139.0610   69.2700  223.9080 C   0  0  0  0  0  0  0  0  0  0  0  0
  139.7110   69.7440  225.0320 C   0  0  0  0  0  0  0  0  0  0  0  0
  139.9990   68.9350  226.1180 C   0  0  0  0  0  0  0  0  0  0  0  0
  140.6550   69.4980  227.2030 C   0  0  0  0  0  0  0  0  0  0  0  0
  141.0470   68.5230  228.6050 Cl  0  0  0  0  0  0  0  0  0  0  0  0
  141.0250   70.8320  227.2310 C   0  0  0  0  0  0  0  0  0  0  0  0
  140.7280   71.6270  226.1350 C   0  0  0  0  0  0  0  0  0  0  0  0
  140.0680   71.0830  225.0300 C   0  0  0  0  0  0  0  0  0  0  0  0
  139.7910   71.8780  223.9760 N   0  0  0  0  0  0  0  0  0  0  0  0
  138.5550   74.0610  223.0140 H   0  0  0  0  0  0  0  0  0  0  0  0
  137.4534   74.1749  220.3229 H   0  0  0  0  0  0  0  0  0  0  0  0
  138.0183   75.5817  221.2753 H   0  0  0  0  0  0  0  0  0  0  0  0
  140.8828   74.6417  222.2166 H   0  0  0  0  0  0  0  0  0  0  0  0
  142.2842   75.5153  221.5723 H   0  0  0  0  0  0  0  0  0  0  0  0
  139.7750   76.5813  222.9011 H   0  0  0  0  0  0  0  0  0  0  0  0
  141.4695   77.1014  223.1194 H   0  0  0  0  0  0  0  0  0  0  0  0
  139.4875   77.8017  220.9542 H   0  0  0  0  0  0  0  0  0  0  0  0
  140.6795   78.8456  221.8282 H   0  0  0  0  0  0  0  0  0  0  0  0
  141.4687   78.6321  219.5636 H   0  0  0  0  0  0  0  0  0  0  0  0
  142.5226   77.6095  220.5644 H   0  0  0  0  0  0  0  0  0  0  0  0
  140.2954   76.8072  218.6575 H   0  0  0  0  0  0  0  0  0  0  0  0
  142.0436   76.0713  217.5390 H   0  0  0  0  0  0  0  0  0  0  0  0
  143.1486   76.4444  218.9223 H   0  0  0  0  0  0  0  0  0  0  0  0
  141.6830   73.8090  218.5220 H   0  0  0  0  0  0  0  0  0  0  0  0
  142.7535   72.0186  219.6517 H   0  0  0  0  0  0  0  0  0  0  0  0
  144.6451   71.1501  221.0192 H   0  0  0  0  0  0  0  0  0  0  0  0
  146.4158   72.7268  221.7958 H   0  0  0  0  0  0  0  0  0  0  0  0
  146.2809   75.1499  221.2053 H   0  0  0  0  0  0  0  0  0  0  0  0
  144.3876   75.9672  219.8465 H   0  0  0  0  0  0  0  0  0  0  0  0
  138.2738   69.7287  221.9488 H   0  0  0  0  0  0  0  0  0  0  0  0
  138.7546   68.2148  223.8573 H   0  0  0  0  0  0  0  0  0  0  0  0
  139.7148   67.8724  226.1205 H   0  0  0  0  0  0  0  0  0  0  0  0
  141.5440   71.2523  228.1051 H   0  0  0  0  0  0  0  0  0  0  0  0
  141.0128   72.6895  226.1351 H   0  0  0  0  0  0  0  0  0  0  0  0
  1  2  2  0
  2  3  1  0
  3  4  1  0
  4  5  1  0
  5  6  2  0
  5  7  1  0
  7  8  1  0
  8  9  1  0
  9 10  1  0
 10 11  1  0
 11 12  1  0
 12 13  1  0
 13 14  1  0
 14 15  1  0
 15 16  2  0
 16 17  1  0
 17 18  2  0
 18 19  1  0
 19 20  2  0
  2 21  1  0
 21 22  2  0
 22 23  1  0
 23 24  2  0
 24 25  1  0
 25 26  2  0
 26 27  1  0
 26 28  1  0
 28 29  2  0
 29 30  1  0
 30 31  2  0
 12  7  1  0
 20 15  1  0
 31 21  1  0
 30 24  1  0
  3 32  1  0
  4 33  1  0
  4 34  1  0
  8 35  1  0
  8 36  1  0
  9 37  1  0
  9 38  1  0
 10 39  1  0
 10 40  1  0
 11 41  1  0
 11 42  1  0
 12 43  1  6
 13 44  1  0
 13 45  1  0
 14 46  1  0
 16 47  1  0
 17 48  1  0
 18 49  1  0
 19 50  1  0
 20 51  1  0
 22 52  1  0
 23 53  1  0
 25 54  1  0
 28 55  1  0
 29 56  1  0
M  END
>  <smiles>  (49) 
O=C(NCC(=O)N1CCCC[C@H]1CNc1ccccc1)c1ccc2cc(Cl)ccc2n1

>  <score_type>  (49) 
oracle

>  <origin>  (49) 
autodockgpu

>  <m_score__min__energy>  (49) 
-8.9800000000000004

>  <m_primary>  (49) 
energy

>  <rmsd>  (49) 
4.6054356987584395

>  <m_score__min__rmsd>  (49) 
4.6054356987584395

>  <meeko>  (49) 
{"free_energy": -7.73, "intermolecular_energy": -9.82, "internal_energy": -2.8, "cluster_size": 11, "cluster_id": 1, "rank_in_cluster": 10}

>  <energy>  (49) 
-6.72

>  <cluster_rmsd>  (49) 
0.0

>  <cluster>  (49) 
7

$$$$

     RDKit          3D

 56 59  0  0  0  0  0  0  0  0999 V2000
  140.9400   72.7930  221.0380 O   0  0  0  0  0  0  0  0  0  0  0  0
  140.1650   73.0120  222.0010 C   0  0  0  0  0  0  0  0  0  0  0  0
  139.3590   74.1790  222.1170 N   0  0  0  0  0  0  0  0  0  0  0  0
  139.4460   75.1590  221.0620 C   0  0  0  0  0  0  0  0  0  0  0  0
  140.6700   75.9440  221.2510 C   0  0  0  0  0  0  0  0  0  0  0  0
  141.4660   75.7160  222.2070 O   0  0  0  0  0  0  0  0  0  0  0  0
  141.0310   77.0040  220.3730 N   0  0  0  0  0  0  0  0  0  0  0  0
  141.4210   78.2930  220.9160 C   0  0  0  0  0  0  0  0  0  0  0  0
  140.2720   79.2340  220.6360 C   0  0  0  0  0  0  0  0  0  0  0  0
  139.6240   78.8100  219.3380 C   0  0  0  0  0  0  0  0  0  0  0  0
  140.6460   78.2220  218.3790 C   0  0  0  0  0  0  0  0  0  0  0  0
  141.0350   76.8730  218.9290 C   0  0  1  0  0  0  0  0  0  0  0  0
  142.4140   76.4530  218.4400 C   0  0  0  0  0  0  0  0  0  0  0  0
  143.3320   76.2810  219.5470 N   0  0  0  0  0  0  0  0  0  0  0  0
  143.8390   74.9930  219.8580 C   0  0  0  0  0  0  0  0  0  0  0  0
  145.0600   74.8820  220.5100 C   0  0  0  0  0  0  0  0  0  0  0  0
  145.5870   73.6370  220.8290 C   0  0  0  0  0  0  0  0  0  0  0  0
  144.8720   72.4960  220.4860 C   0  0  0  0  0  0  0  0  0  0  0  0
  143.6460   72.6030  219.8320 C   0  0  0  0  0  0  0  0  0  0  0  0
  143.1560   73.8530  219.5320 C   0  0  0  0  0  0  0  0  0  0  0  0
  140.0810   72.0140  223.0690 C   0  0  0  0  0  0  0  0  0  0  0  0
  139.4640   70.7920  222.8620 C   0  0  0  0  0  0  0  0  0  0  0  0
  139.3800   69.8350  223.8770 C   0  0  0  0  0  0  0  0  0  0  0  0
  139.9200   70.0910  225.1240 C   0  0  0  0  0  0  0  0  0  0  0  0
  139.8610   69.1730  226.1590 C   0  0  0  0  0  0  0  0  0  0  0  0
  140.4300   69.5180  227.3760 C   0  0  0  0  0  0  0  0  0  0  0  0
  140.3870   68.3970  228.7230 Cl  0  0  0  0  0  0  0  0  0  0  0  0
  141.0480   70.7390  227.5840 C   0  0  0  0  0  0  0  0  0  0  0  0
  141.0970   71.6450  226.5360 C   0  0  0  0  0  0  0  0  0  0  0  0
  140.5310   71.3220  225.3000 C   0  0  0  0  0  0  0  0  0  0  0  0
  140.5920   72.2210  224.2970 N   0  0  0  0  0  0  0  0  0  0  0  0
  138.7250   74.3170  222.9440 H   0  0  0  0  0  0  0  0  0  0  0  0
  139.4785   74.6514  220.0867 H   0  0  0  0  0  0  0  0  0  0  0  0
  138.5676   75.8205  221.0909 H   0  0  0  0  0  0  0  0  0  0  0  0
  141.5936   78.2138  221.9995 H   0  0  0  0  0  0  0  0  0  0  0  0
  142.3547   78.6539  220.4601 H   0  0  0  0  0  0  0  0  0  0  0  0
  139.5384   79.1806  221.4539 H   0  0  0  0  0  0  0  0  0  0  0  0
  140.6367   80.2690  220.5598 H   0  0  0  0  0  0  0  0  0  0  0  0
  138.8553   78.0527  219.5515 H   0  0  0  0  0  0  0  0  0  0  0  0
  139.1750   79.6970  218.8672 H   0  0  0  0  0  0  0  0  0  0  0  0
  140.2047   78.1096  217.3777 H   0  0  0  0  0  0  0  0  0  0  0  0
  141.5238   78.8785  218.2870 H   0  0  0  0  0  0  0  0  0  0  0  0
  140.3306   76.0988  218.5906 H   0  0  0  0  0  0  0  0  0  0  0  0
  142.3270   75.5016  217.8948 H   0  0  0  0  0  0  0  0  0  0  0  0
  142.8058   77.2426  217.7819 H   0  0  0  0  0  0  0  0  0  0  0  0
  143.6410   77.0970  220.1400 H   0  0  0  0  0  0  0  0  0  0  0  0
  145.6172   75.7920  220.7774 H   0  0  0  0  0  0  0  0  0  0  0  0
  146.5551   73.5556  221.3450 H   0  0  0  0  0  0  0  0  0  0  0  0
  145.2759   71.5028  220.7320 H   0  0  0  0  0  0  0  0  0  0  0  0
  143.0783   71.7010  219.5596 H   0  0  0  0  0  0  0  0  0  0  0  0
  142.1884   73.9384  219.0158 H   0  0  0  0  0  0  0  0  0  0  0  0
  139.0300   70.5693  221.8761 H   0  0  0  0  0  0  0  0  0  0  0  0
  138.8820   68.8736  223.6830 H   0  0  0  0  0  0  0  0  0  0  0  0
  139.3756   68.1958  226.0197 H   0  0  0  0  0  0  0  0  0  0  0  0
  141.4909   70.9852  228.5603 H   0  0  0  0  0  0  0  0  0  0  0  0
  141.5831   72.6215  226.6779 H   0  0  0  0  0  0  0  0  0  0  0  0
  1  2  2  0
  2  3  1  0
  3  4  1  0
  4  5  1  0
  5  6  2  0
  5  7  1  0
  7  8  1  0
  8  9  1  0
  9 10  1  0
 10 11  1  0
 11 12  1  0
 12 13  1  0
 13 14  1  0
 14 15  1  0
 15 16  2  0
 16 17  1  0
 17 18  2  0
 18 19  1  0
 19 20  2  0
  2 21  1  0
 21 22  2  0
 22 23  1  0
 23 24  2  0
 24 25  1  0
 25 26  2  0
 26 27  1  0
 26 28  1  0
 28 29  2  0
 29 30  1  0
 30 31  2  0
 12  7  1  0
 20 15  1  0
 31 21  1  0
 30 24  1  0
  3 32  1  0
  4 33  1  0
  4 34  1  0
  8 35  1  0
  8 36  1  0
  9 37  1  0
  9 38  1  0
 10 39  1  0
 10 40  1  0
 11 41  1  0
 11 42  1  0
 12 43  1  1
 13 44  1  0
 13 45  1  0
 14 46  1  0
 16 47  1  0
 17 48  1  0
 18 49  1  0
 19 50  1  0
 20 51  1  0
 22 52  1  0
 23 53  1  0
 25 54  1  0
 28 55  1  0
 29 56  1  0
M  END
>  <smiles>  (50) 
O=C(NCC(=O)N1CCCC[C@H]1CNc1ccccc1)c1ccc2cc(Cl)ccc2n1

>  <score_type>  (50) 
oracle

>  <origin>  (50) 
autodockgpu

>  <m_score__min__energy>  (50) 
-8.9800000000000004

>  <m_primary>  (50) 
energy

>  <rmsd>  (50) 
4.601251627941447

>  <m_score__min__rmsd>  (50) 
4.601251627941447

>  <meeko>  (50) 
{"free_energy": -8.41, "intermolecular_energy": -10.5, "internal_energy": -2.14, "cluster_size": 11, "cluster_id": 1, "rank_in_cluster": 6}

>  <energy>  (50) 
-6.71

>  <cluster_rmsd>  (50) 
0.05

>  <cluster>  (50) 
7

$$$$
