
     RDKit          3D

 51 54  0  0  0  0  0  0  0  0999 V2000
  141.0490   71.6770  221.4000 O   0  0  0  0  0  0  0  0  0  0  0  0
  140.4680   72.1890  222.3950 C   0  0  0  0  0  0  0  0  0  0  0  0
  140.0230   73.5340  222.3370 N   0  0  0  0  0  0  0  0  0  0  0  0
  140.2240   74.3300  221.1610 C   0  0  0  0  0  0  0  0  0  0  0  0
  140.8230   75.6510  221.4470 C   0  0  0  0  0  0  0  0  0  0  0  0
  140.7840   76.1570  222.6200 O   0  0  0  0  0  0  0  0  0  0  0  0
  141.4460   76.3370  220.3670 N   0  0  0  0  0  0  0  0  0  0  0  0
  142.4710   75.7310  219.5390 C   0  0  0  0  0  0  0  0  0  0  0  0
  142.2140   76.1030  218.0780 C   0  0  0  0  0  0  0  0  0  0  0  0
  142.1570   77.5880  217.8910 C   0  0  0  0  0  0  0  0  0  0  0  0
  142.1920   78.3080  219.2440 C   0  0  0  0  0  0  0  0  0  0  0  0
  141.0520   77.6960  220.0650 C   0  0  2  0  0  0  0  0  0  0  0  0
  140.7910   78.5150  221.2720 C   0  0  0  0  0  0  0  0  0  0  0  0
  139.4910   78.6470  221.7160 C   0  0  0  0  0  0  0  0  0  0  0  0
  139.2410   79.4140  222.8450 C   0  0  0  0  0  0  0  0  0  0  0  0
  140.2890   80.0250  223.4980 C   0  0  0  0  0  0  0  0  0  0  0  0
  141.5960   79.8780  223.0310 C   0  0  0  0  0  0  0  0  0  0  0  0
  142.9310   80.6440  223.8450 Cl  0  0  0  0  0  0  0  0  0  0  0  0
  141.8670   79.1110  221.8960 C   0  0  0  0  0  0  0  0  0  0  0  0
  140.2370   71.4160  223.6260 C   0  0  0  0  0  0  0  0  0  0  0  0
  139.5720   70.2090  223.5780 C   0  0  0  0  0  0  0  0  0  0  0  0
  139.3490   69.4680  224.7440 C   0  0  0  0  0  0  0  0  0  0  0  0
  139.8120   69.9740  225.9590 C   0  0  0  0  0  0  0  0  0  0  0  0
  139.6300   69.3000  227.1500 C   0  0  0  0  0  0  0  0  0  0  0  0
  140.1160   69.8560  228.3290 C   0  0  0  0  0  0  0  0  0  0  0  0
  140.7790   71.0800  228.3010 C   0  0  0  0  0  0  0  0  0  0  0  0
  140.9700   71.7650  227.1210 C   0  0  0  0  0  0  0  0  0  0  0  0
  140.4730   71.1850  225.9630 C   0  0  0  0  0  0  0  0  0  0  0  0
  140.6770   71.8830  224.8210 N   0  0  0  0  0  0  0  0  0  0  0  0
  139.5430   73.9230  223.1880 H   0  0  0  0  0  0  0  0  0  0  0  0
  140.8920   73.7835  220.4790 H   0  0  0  0  0  0  0  0  0  0  0  0
  139.2347   74.5095  220.7148 H   0  0  0  0  0  0  0  0  0  0  0  0
  143.4601   76.1020  219.8457 H   0  0  0  0  0  0  0  0  0  0  0  0
  142.4442   74.6374  219.6547 H   0  0  0  0  0  0  0  0  0  0  0  0
  143.0257   75.6956  217.4574 H   0  0  0  0  0  0  0  0  0  0  0  0
  141.2431   75.6803  217.7801 H   0  0  0  0  0  0  0  0  0  0  0  0
  143.0198   77.9092  217.2890 H   0  0  0  0  0  0  0  0  0  0  0  0
  141.2173   77.8435  217.3795 H   0  0  0  0  0  0  0  0  0  0  0  0
  143.1578   78.1407  219.7433 H   0  0  0  0  0  0  0  0  0  0  0  0
  142.0736   79.3956  219.1299 H   0  0  0  0  0  0  0  0  0  0  0  0
  140.1007   77.6815  219.5130 H   0  0  0  0  0  0  0  0  0  0  0  0
  138.6658   78.1519  221.1832 H   0  0  0  0  0  0  0  0  0  0  0  0
  138.2125   79.5334  223.2163 H   0  0  0  0  0  0  0  0  0  0  0  0
  140.0943   80.6330  224.3938 H   0  0  0  0  0  0  0  0  0  0  0  0
  142.8922   78.9877  221.5168 H   0  0  0  0  0  0  0  0  0  0  0  0
  139.2127   69.8242  222.6122 H   0  0  0  0  0  0  0  0  0  0  0  0
  138.8188   68.5051  224.7034 H   0  0  0  0  0  0  0  0  0  0  0  0
  139.1060   68.3330  227.1666 H   0  0  0  0  0  0  0  0  0  0  0  0
  139.9764   69.3283  229.2840 H   0  0  0  0  0  0  0  0  0  0  0  0
  141.1581   71.5089  229.2403 H   0  0  0  0  0  0  0  0  0  0  0  0
  141.4947   72.7315  227.0981 H   0  0  0  0  0  0  0  0  0  0  0  0
  1  2  2  0
  2  3  1  0
  3  4  1  0
  4  5  1  0
  5  6  2  0
  5  7  1  0
  7  8  1  0
  8  9  1  0
  9 10  1  0
 10 11  1  0
 11 12  1  0
 12 13  1  0
 13 14  2  0
 14 15  1  0
 15 16  2  0
 16 17  1  0
 17 18  1  0
 17 19  2  0
  2 20  1  0
 20 21  2  0
 21 22  1  0
 22 23  2  0
 23 24  1  0
 24 25  2  0
 25 26  1  0
 26 27  2  0
 27 28  1  0
 28 29  2  0
 12  7  1  0
 19 13  1  0
 29 20  1  0
 28 23  1  0
  3 30  1  0
  4 31  1  0
  4 32  1  0
  8 33  1  0
  8 34  1  0
  9 35  1  0
  9 36  1  0
 10 37  1  0
 10 38  1  0
 11 39  1  0
 11 40  1  0
 12 41  1  6
 14 42  1  0
 15 43  1  0
 16 44  1  0
 19 45  1  0
 21 46  1  0
 22 47  1  0
 24 48  1  0
 25 49  1  0
 26 50  1  0
 27 51  1  0
M  END
>  <smiles>  (1) 
O=C(NCC(=O)N1CCCCC1c1cccc(Cl)c1)c1ccc2ccccc2n1

>  <score_type>  (1) 
oracle

>  <origin>  (1) 
autodockgpu

>  <m_score__min__energy>  (1) 
-9.4100000000000001

>  <m_primary>  (1) 
energy

>  <rmsd>  (1) 
2.0520611023787034

>  <m_score__min__rmsd>  (1) 
2.0520611023787034

>  <meeko>  (1) 
{"free_energy": -9.41, "intermolecular_energy": -10.9, "internal_energy": -1.48, "cluster_size": 19, "cluster_id": 1, "rank_in_cluster": 2}

>  <energy>  (1) 
-9.41

>  <cluster_rmsd>  (1) 
0.0

>  <cluster>  (1) 
1

$$$$

     RDKit          3D

 51 54  0  0  0  0  0  0  0  0999 V2000
  140.8530   71.5490  221.2820 O   0  0  0  0  0  0  0  0  0  0  0  0
  140.3570   72.0970  222.3050 C   0  0  0  0  0  0  0  0  0  0  0  0
  139.9240   73.4460  222.2430 N   0  0  0  0  0  0  0  0  0  0  0  0
  140.0400   74.2060  221.0320 C   0  0  0  0  0  0  0  0  0  0  0  0
  141.0120   75.3150  221.1320 C   0  0  0  0  0  0  0  0  0  0  0  0
  141.4490   75.7140  222.2640 O   0  0  0  0  0  0  0  0  0  0  0  0
  141.4430   75.9200  219.9190 N   0  0  0  0  0  0  0  0  0  0  0  0
  140.5340   76.5990  219.0140 C   0  0  0  0  0  0  0  0  0  0  0  0
  141.2000   77.8810  218.5110 C   0  0  0  0  0  0  0  0  0  0  0  0
  142.5190   77.5980  217.8610 C   0  0  0  0  0  0  0  0  0  0  0  0
  142.9100   76.1270  218.0450 C   0  0  0  0  0  0  0  0  0  0  0  0
  142.8430   75.8700  219.5540 C   0  0  2  0  0  0  0  0  0  0  0  0
  143.4900   74.5780  219.8840 C   0  0  0  0  0  0  0  0  0  0  0  0
  142.9100   73.4110  219.4290 C   0  0  0  0  0  0  0  0  0  0  0  0
  143.5110   72.1980  219.7360 C   0  0  0  0  0  0  0  0  0  0  0  0
  144.6690   72.1820  220.4830 C   0  0  0  0  0  0  0  0  0  0  0  0
  145.2370   73.3750  220.9320 C   0  0  0  0  0  0  0  0  0  0  0  0
  146.7000   73.3720  221.8770 Cl  0  0  0  0  0  0  0  0  0  0  0  0
  144.6470   74.6050  220.6340 C   0  0  0  0  0  0  0  0  0  0  0  0
  140.2160   71.3620  223.5720 C   0  0  0  0  0  0  0  0  0  0  0  0
  139.6090   70.1240  223.5970 C   0  0  0  0  0  0  0  0  0  0  0  0
  139.4710   69.4180  224.7970 C   0  0  0  0  0  0  0  0  0  0  0  0
  139.9600   69.9920  225.9710 C   0  0  0  0  0  0  0  0  0  0  0  0
  139.8600   69.3560  227.1930 C   0  0  0  0  0  0  0  0  0  0  0  0
  140.3680   69.9790  228.3290 C   0  0  0  0  0  0  0  0  0  0  0  0
  140.9690   71.2310  228.2280 C   0  0  0  0  0  0  0  0  0  0  0  0
  141.0770   71.8780  227.0170 C   0  0  0  0  0  0  0  0  0  0  0  0
  140.5610   71.2310  225.9030 C   0  0  0  0  0  0  0  0  0  0  0  0
  140.6820   71.8940  224.7280 N   0  0  0  0  0  0  0  0  0  0  0  0
  139.5170   73.8640  223.1170 H   0  0  0  0  0  0  0  0  0  0  0  0
  140.3613   73.5311  220.2250 H   0  0  0  0  0  0  0  0  0  0  0  0
  139.0549   74.6517  220.8299 H   0  0  0  0  0  0  0  0  0  0  0  0
  140.3040   75.9434  218.1612 H   0  0  0  0  0  0  0  0  0  0  0  0
  139.6002   76.8463  219.5403 H   0  0  0  0  0  0  0  0  0  0  0  0
  140.5370   78.3639  217.7780 H   0  0  0  0  0  0  0  0  0  0  0  0
  141.3760   78.5392  219.3746 H   0  0  0  0  0  0  0  0  0  0  0  0
  142.4469   77.8206  216.7862 H   0  0  0  0  0  0  0  0  0  0  0  0
  143.2873   78.2294  218.3311 H   0  0  0  0  0  0  0  0  0  0  0  0
  142.2047   75.4724  217.5121 H   0  0  0  0  0  0  0  0  0  0  0  0
  143.9110   75.9176  217.6399 H   0  0  0  0  0  0  0  0  0  0  0  0
  143.3938   76.6274  220.1311 H   0  0  0  0  0  0  0  0  0  0  0  0
  141.9862   73.4418  218.8326 H   0  0  0  0  0  0  0  0  0  0  0  0
  143.0657   71.2553  219.3852 H   0  0  0  0  0  0  0  0  0  0  0  0
  145.1487   71.2226  220.7269 H   0  0  0  0  0  0  0  0  0  0  0  0
  145.0851   75.5522  220.9816 H   0  0  0  0  0  0  0  0  0  0  0  0
  139.2287   69.6863  222.6622 H   0  0  0  0  0  0  0  0  0  0  0  0
  138.9868   68.4305  224.8146 H   0  0  0  0  0  0  0  0  0  0  0  0
  139.3837   68.3673  227.2675 H   0  0  0  0  0  0  0  0  0  0  0  0
  140.2947   69.4820  229.3076 H   0  0  0  0  0  0  0  0  0  0  0  0
  141.3655   71.7130  229.1338 H   0  0  0  0  0  0  0  0  0  0  0  0
  141.5525   72.8666  226.9361 H   0  0  0  0  0  0  0  0  0  0  0  0
  1  2  2  0
  2  3  1  0
  3  4  1  0
  4  5  1  0
  5  6  2  0
  5  7  1  0
  7  8  1  0
  8  9  1  0
  9 10  1  0
 10 11  1  0
 11 12  1  0
 12 13  1  0
 13 14  2  0
 14 15  1  0
 15 16  2  0
 16 17  1  0
 17 18  1  0
 17 19  2  0
  2 20  1  0
 20 21  2  0
 21 22  1  0
 22 23  2  0
 23 24  1  0
 24 25  2  0
 25 26  1  0
 26 27  2  0
 27 28  1  0
 28 29  2  0
 12  7  1  0
 19 13  1  0
 29 20  1  0
 28 23  1  0
  3 30  1  0
  4 31  1  0
  4 32  1  0
  8 33  1  0
  8 34  1  0
  9 35  1  0
  9 36  1  0
 10 37  1  0
 10 38  1  0
 11 39  1  0
 11 40  1  0
 12 41  1  1
 14 42  1  0
 15 43  1  0
 16 44  1  0
 19 45  1  0
 21 46  1  0
 22 47  1  0
 24 48  1  0
 25 49  1  0
 26 50  1  0
 27 51  1  0
M  END
>  <smiles>  (2) 
O=C(NCC(=O)N1CCCCC1c1cccc(Cl)c1)c1ccc2ccccc2n1

>  <score_type>  (2) 
oracle

>  <origin>  (2) 
autodockgpu

>  <m_score__min__energy>  (2) 
-9.4100000000000001

>  <m_primary>  (2) 
energy

>  <rmsd>  (2) 
1.8718511152668993

>  <m_score__min__rmsd>  (2) 
1.8718511152668993

>  <meeko>  (2) 
{"free_energy": -9.06, "intermolecular_energy": -10.55, "internal_energy": -1.9, "cluster_size": 23, "cluster_id": 2, "rank_in_cluster": 6}

>  <energy>  (2) 
-9.41

>  <cluster_rmsd>  (2) 
0.02

>  <cluster>  (2) 
1

$$$$

     RDKit          3D

 51 54  0  0  0  0  0  0  0  0999 V2000
  140.9830   71.7010  221.3680 O   0  0  0  0  0  0  0  0  0  0  0  0
  140.4270   72.2030  222.3830 C   0  0  0  0  0  0  0  0  0  0  0  0
  139.9950   73.5530  222.3550 N   0  0  0  0  0  0  0  0  0  0  0  0
  140.1800   74.3660  221.1880 C   0  0  0  0  0  0  0  0  0  0  0  0
  140.8560   75.6490  221.4730 C   0  0  0  0  0  0  0  0  0  0  0  0
  140.8900   76.1320  222.6560 O   0  0  0  0  0  0  0  0  0  0  0  0
  141.4670   76.3260  220.3810 N   0  0  0  0  0  0  0  0  0  0  0  0
  142.4980   75.7200  219.5590 C   0  0  0  0  0  0  0  0  0  0  0  0
  142.2320   76.0670  218.0930 C   0  0  0  0  0  0  0  0  0  0  0  0
  142.1560   77.5470  217.8830 C   0  0  0  0  0  0  0  0  0  0  0  0
  142.1860   78.2890  219.2250 C   0  0  0  0  0  0  0  0  0  0  0  0
  141.0550   77.6760  220.0590 C   0  0  2  0  0  0  0  0  0  0  0  0
  140.7880   78.5100  221.2530 C   0  0  0  0  0  0  0  0  0  0  0  0
  139.4830   78.6620  221.6780 C   0  0  0  0  0  0  0  0  0  0  0  0
  139.2270   79.4440  222.7950 C   0  0  0  0  0  0  0  0  0  0  0  0
  140.2730   80.0480  223.4570 C   0  0  0  0  0  0  0  0  0  0  0  0
  141.5840   79.8810  223.0100 C   0  0  0  0  0  0  0  0  0  0  0  0
  142.9170   80.6380  223.8360 Cl  0  0  0  0  0  0  0  0  0  0  0  0
  141.8620   79.0980  221.8870 C   0  0  0  0  0  0  0  0  0  0  0  0
  140.2130   71.4130  223.6060 C   0  0  0  0  0  0  0  0  0  0  0  0
  139.5770   70.1910  223.5450 C   0  0  0  0  0  0  0  0  0  0  0  0
  139.3700   69.4330  224.7030 C   0  0  0  0  0  0  0  0  0  0  0  0
  139.8210   69.9380  225.9230 C   0  0  0  0  0  0  0  0  0  0  0  0
  139.6530   69.2480  227.1080 C   0  0  0  0  0  0  0  0  0  0  0  0
  140.1260   69.8030  228.2930 C   0  0  0  0  0  0  0  0  0  0  0  0
  140.7610   71.0430  228.2780 C   0  0  0  0  0  0  0  0  0  0  0  0
  140.9360   71.7440  227.1050 C   0  0  0  0  0  0  0  0  0  0  0  0
  140.4540   71.1640  225.9400 C   0  0  0  0  0  0  0  0  0  0  0  0
  140.6410   71.8780  224.8050 N   0  0  0  0  0  0  0  0  0  0  0  0
  139.5370   73.9330  223.2220 H   0  0  0  0  0  0  0  0  0  0  0  0
  140.7876   73.8042  220.4633 H   0  0  0  0  0  0  0  0  0  0  0  0
  139.1810   74.6036  220.7936 H   0  0  0  0  0  0  0  0  0  0  0  0
  143.4832   76.1079  219.8572 H   0  0  0  0  0  0  0  0  0  0  0  0
  142.4856   74.6281  219.6913 H   0  0  0  0  0  0  0  0  0  0  0  0
  143.0468   75.6601  217.4762 H   0  0  0  0  0  0  0  0  0  0  0  0
  141.2652   75.6282  217.8052 H   0  0  0  0  0  0  0  0  0  0  0  0
  143.0130   77.8693  217.2733 H   0  0  0  0  0  0  0  0  0  0  0  0
  141.2117   77.7827  217.3705 H   0  0  0  0  0  0  0  0  0  0  0  0
  143.1550   78.1411  219.7242 H   0  0  0  0  0  0  0  0  0  0  0  0
  142.0543   79.3732  219.0942 H   0  0  0  0  0  0  0  0  0  0  0  0
  140.1022   77.6414  219.5104 H   0  0  0  0  0  0  0  0  0  0  0  0
  138.6593   78.1707  221.1393 H   0  0  0  0  0  0  0  0  0  0  0  0
  138.1948   79.5808  223.1498 H   0  0  0  0  0  0  0  0  0  0  0  0
  140.0733   80.6665  224.3445 H   0  0  0  0  0  0  0  0  0  0  0  0
  142.8911   78.9569  221.5249 H   0  0  0  0  0  0  0  0  0  0  0  0
  139.2283   69.8075  222.5748 H   0  0  0  0  0  0  0  0  0  0  0  0
  138.8620   68.4587  224.6524 H   0  0  0  0  0  0  0  0  0  0  0  0
  139.1503   68.2696  227.1146 H   0  0  0  0  0  0  0  0  0  0  0  0
  139.9985   69.2623  229.2424 H   0  0  0  0  0  0  0  0  0  0  0  0
  141.1301   71.4709  229.2218 H   0  0  0  0  0  0  0  0  0  0  0  0
  141.4372   72.7231  227.0923 H   0  0  0  0  0  0  0  0  0  0  0  0
  1  2  2  0
  2  3  1  0
  3  4  1  0
  4  5  1  0
  5  6  2  0
  5  7  1  0
  7  8  1  0
  8  9  1  0
  9 10  1  0
 10 11  1  0
 11 12  1  0
 12 13  1  0
 13 14  2  0
 14 15  1  0
 15 16  2  0
 16 17  1  0
 17 18  1  0
 17 19  2  0
  2 20  1  0
 20 21  2  0
 21 22  1  0
 22 23  2  0
 23 24  1  0
 24 25  2  0
 25 26  1  0
 26 27  2  0
 27 28  1  0
 28 29  2  0
 12  7  1  0
 19 13  1  0
 29 20  1  0
 28 23  1  0
  3 30  1  0
  4 31  1  0
  4 32  1  0
  8 33  1  0
  8 34  1  0
  9 35  1  0
  9 36  1  0
 10 37  1  0
 10 38  1  0
 11 39  1  0
 11 40  1  0
 12 41  1  6
 14 42  1  0
 15 43  1  0
 16 44  1  0
 19 45  1  0
 21 46  1  0
 22 47  1  0
 24 48  1  0
 25 49  1  0
 26 50  1  0
 27 51  1  0
M  END
>  <smiles>  (3) 
O=C(NCC(=O)N1CCCCC1c1cccc(Cl)c1)c1ccc2ccccc2n1

>  <score_type>  (3) 
oracle

>  <origin>  (3) 
autodockgpu

>  <m_score__min__energy>  (3) 
-9.4100000000000001

>  <m_primary>  (3) 
energy

>  <rmsd>  (3) 
2.0397535746616224

>  <m_score__min__rmsd>  (3) 
2.0397535746616224

>  <meeko>  (3) 
{"free_energy": -9.33, "intermolecular_energy": -10.82, "internal_energy": -1.54, "cluster_size": 19, "cluster_id": 1, "rank_in_cluster": 12}

>  <energy>  (3) 
-9.4

>  <cluster_rmsd>  (3) 
0.06

>  <cluster>  (3) 
1

$$$$

     RDKit          3D

 51 54  0  0  0  0  0  0  0  0999 V2000
  141.4630   72.5300  221.7240 O   0  0  0  0  0  0  0  0  0  0  0  0
  140.4720   72.6250  222.4980 C   0  0  0  0  0  0  0  0  0  0  0  0
  139.5570   73.6970  222.3450 N   0  0  0  0  0  0  0  0  0  0  0  0
  139.7370   74.6830  221.3200 C   0  0  0  0  0  0  0  0  0  0  0  0
  139.9520   76.0450  221.8540 C   0  0  0  0  0  0  0  0  0  0  0  0
  141.1260   76.4780  222.1120 O   0  0  0  0  0  0  0  0  0  0  0  0
  138.8010   76.8540  222.0700 N   0  0  0  0  0  0  0  0  0  0  0  0
  137.4910   76.5090  221.5520 C   0  0  0  0  0  0  0  0  0  0  0  0
  136.4410   76.7980  222.6260 C   0  0  0  0  0  0  0  0  0  0  0  0
  136.4990   78.2230  223.0820 C   0  0  0  0  0  0  0  0  0  0  0  0
  137.7100   78.9400  222.4740 C   0  0  0  0  0  0  0  0  0  0  0  0
  138.9230   78.0750  222.8360 C   0  0  2  0  0  0  0  0  0  0  0  0
  140.1780   78.8150  222.5690 C   0  0  0  0  0  0  0  0  0  0  0  0
  141.0640   79.0150  223.6090 C   0  0  0  0  0  0  0  0  0  0  0  0
  142.2420   79.7090  223.3650 C   0  0  0  0  0  0  0  0  0  0  0  0
  142.5030   80.1800  222.0970 C   0  0  0  0  0  0  0  0  0  0  0  0
  141.5930   79.9660  221.0610 C   0  0  0  0  0  0  0  0  0  0  0  0
  141.9090   80.5550  219.4530 Cl  0  0  0  0  0  0  0  0  0  0  0  0
  140.4020   79.2700  221.2870 C   0  0  0  0  0  0  0  0  0  0  0  0
  140.2410   71.6390  223.5670 C   0  0  0  0  0  0  0  0  0  0  0  0
  139.5640   70.4680  223.3020 C   0  0  0  0  0  0  0  0  0  0  0  0
  139.3400   69.5260  224.3110 C   0  0  0  0  0  0  0  0  0  0  0  0
  139.8170   69.7940  225.5950 C   0  0  0  0  0  0  0  0  0  0  0  0
  139.6350   68.9130  226.6430 C   0  0  0  0  0  0  0  0  0  0  0  0
  140.1340   69.2360  227.9000 C   0  0  0  0  0  0  0  0  0  0  0  0
  140.8100   70.4380  228.0940 C   0  0  0  0  0  0  0  0  0  0  0  0
  141.0000   71.3280  227.0600 C   0  0  0  0  0  0  0  0  0  0  0  0
  140.4900   70.9770  225.8180 C   0  0  0  0  0  0  0  0  0  0  0  0
  140.6930   71.8730  224.8230 N   0  0  0  0  0  0  0  0  0  0  0  0
  138.7450   73.7390  223.0120 H   0  0  0  0  0  0  0  0  0  0  0  0
  140.6116   74.4026  220.7147 H   0  0  0  0  0  0  0  0  0  0  0  0
  138.8129   74.7075  220.7238 H   0  0  0  0  0  0  0  0  0  0  0  0
  137.2781   77.1108  220.6562 H   0  0  0  0  0  0  0  0  0  0  0  0
  137.4656   75.4425  221.2838 H   0  0  0  0  0  0  0  0  0  0  0  0
  135.4420   76.5956  222.2126 H   0  0  0  0  0  0  0  0  0  0  0  0
  136.6457   76.1505  223.4914 H   0  0  0  0  0  0  0  0  0  0  0  0
  135.5795   78.7395  222.7692 H   0  0  0  0  0  0  0  0  0  0  0  0
  136.5931   78.2391  224.1778 H   0  0  0  0  0  0  0  0  0  0  0  0
  137.6037   79.0151  221.3817 H   0  0  0  0  0  0  0  0  0  0  0  0
  137.8116   79.9659  222.8576 H   0  0  0  0  0  0  0  0  0  0  0  0
  138.9550   77.8262  223.9070 H   0  0  0  0  0  0  0  0  0  0  0  0
  140.8403   78.6306  224.6151 H   0  0  0  0  0  0  0  0  0  0  0  0
  142.9618   79.8814  224.1788 H   0  0  0  0  0  0  0  0  0  0  0  0
  143.4357   80.7288  221.8997 H   0  0  0  0  0  0  0  0  0  0  0  0
  139.6767   79.0934  220.4790 H   0  0  0  0  0  0  0  0  0  0  0  0
  139.1954   70.2720  222.2843 H   0  0  0  0  0  0  0  0  0  0  0  0
  138.7987   68.5926  224.0970 H   0  0  0  0  0  0  0  0  0  0  0  0
  139.1003   67.9648  226.4848 H   0  0  0  0  0  0  0  0  0  0  0  0
  139.9947   68.5417  228.7417 H   0  0  0  0  0  0  0  0  0  0  0  0
  141.2001   70.6816  229.0932 H   0  0  0  0  0  0  0  0  0  0  0  0
  141.5339   72.2776  227.2124 H   0  0  0  0  0  0  0  0  0  0  0  0
  1  2  2  0
  2  3  1  0
  3  4  1  0
  4  5  1  0
  5  6  2  0
  5  7  1  0
  7  8  1  0
  8  9  1  0
  9 10  1  0
 10 11  1  0
 11 12  1  0
 12 13  1  0
 13 14  2  0
 14 15  1  0
 15 16  2  0
 16 17  1  0
 17 18  1  0
 17 19  2  0
  2 20  1  0
 20 21  2  0
 21 22  1  0
 22 23  2  0
 23 24  1  0
 24 25  2  0
 25 26  1  0
 26 27  2  0
 27 28  1  0
 28 29  2  0
 12  7  1  0
 19 13  1  0
 29 20  1  0
 28 23  1  0
  3 30  1  0
  4 31  1  0
  4 32  1  0
  8 33  1  0
  8 34  1  0
  9 35  1  0
  9 36  1  0
 10 37  1  0
 10 38  1  0
 11 39  1  0
 11 40  1  0
 12 41  1  1
 14 42  1  0
 15 43  1  0
 16 44  1  0
 19 45  1  0
 21 46  1  0
 22 47  1  0
 24 48  1  0
 25 49  1  0
 26 50  1  0
 27 51  1  0
M  END
>  <smiles>  (4) 
O=C(NCC(=O)N1CCCCC1c1cccc(Cl)c1)c1ccc2ccccc2n1

>  <score_type>  (4) 
oracle

>  <origin>  (4) 
autodockgpu

>  <m_score__min__energy>  (4) 
-9.4100000000000001

>  <m_primary>  (4) 
energy

>  <rmsd>  (4) 
3.277416740910048

>  <m_score__min__rmsd>  (4) 
3.277416740910048

>  <meeko>  (4) 
{"free_energy": -9.04, "intermolecular_energy": -10.53, "internal_energy": -1.06, "cluster_size": 2, "cluster_id": 3, "rank_in_cluster": 1}

>  <energy>  (4) 
-9.4

>  <cluster_rmsd>  (4) 
0.35

>  <cluster>  (4) 
1

$$$$

     RDKit          3D

 51 54  0  0  0  0  0  0  0  0999 V2000
  140.6630   71.5120  221.2410 O   0  0  0  0  0  0  0  0  0  0  0  0
  140.2630   72.0760  222.2960 C   0  0  0  0  0  0  0  0  0  0  0  0
  139.9030   73.4470  222.2710 N   0  0  0  0  0  0  0  0  0  0  0  0
  139.9870   74.2120  221.0610 C   0  0  0  0  0  0  0  0  0  0  0  0
  140.9090   75.3630  221.1630 C   0  0  0  0  0  0  0  0  0  0  0  0
  141.3120   75.7910  222.2970 O   0  0  0  0  0  0  0  0  0  0  0  0
  141.3310   75.9750  219.9490 N   0  0  0  0  0  0  0  0  0  0  0  0
  140.4180   76.6650  219.0590 C   0  0  0  0  0  0  0  0  0  0  0  0
  141.0850   77.9460  218.5580 C   0  0  0  0  0  0  0  0  0  0  0  0
  142.3950   77.6600  217.8930 C   0  0  0  0  0  0  0  0  0  0  0  0
  142.7810   76.1860  218.0620 C   0  0  0  0  0  0  0  0  0  0  0  0
  142.7270   75.9180  219.5710 C   0  0  2  0  0  0  0  0  0  0  0  0
  143.3700   74.6210  219.8850 C   0  0  0  0  0  0  0  0  0  0  0  0
  142.7590   73.4580  219.4600 C   0  0  0  0  0  0  0  0  0  0  0  0
  143.3570   72.2400  219.7530 C   0  0  0  0  0  0  0  0  0  0  0  0
  144.5410   72.2140  220.4560 C   0  0  0  0  0  0  0  0  0  0  0  0
  145.1410   73.4030  220.8750 C   0  0  0  0  0  0  0  0  0  0  0  0
  146.6370   73.3870  221.7640 Cl  0  0  0  0  0  0  0  0  0  0  0  0
  144.5550   74.6390  220.5900 C   0  0  0  0  0  0  0  0  0  0  0  0
  140.1590   71.3360  223.5640 C   0  0  0  0  0  0  0  0  0  0  0  0
  139.5880   70.0810  223.5960 C   0  0  0  0  0  0  0  0  0  0  0  0
  139.4850   69.3710  224.7970 C   0  0  0  0  0  0  0  0  0  0  0  0
  139.9730   69.9570  225.9650 C   0  0  0  0  0  0  0  0  0  0  0  0
  139.9070   69.3180  227.1870 C   0  0  0  0  0  0  0  0  0  0  0  0
  140.4120   69.9540  228.3170 C   0  0  0  0  0  0  0  0  0  0  0  0
  140.9770   71.2230  228.2100 C   0  0  0  0  0  0  0  0  0  0  0  0
  141.0500   71.8740  226.9980 C   0  0  0  0  0  0  0  0  0  0  0  0
  140.5380   71.2130  225.8900 C   0  0  0  0  0  0  0  0  0  0  0  0
  140.6250   71.8800  224.7150 N   0  0  0  0  0  0  0  0  0  0  0  0
  139.5750   73.8780  223.1720 H   0  0  0  0  0  0  0  0  0  0  0  0
  140.3389   73.5525  220.2541 H   0  0  0  0  0  0  0  0  0  0  0  0
  138.9834   74.6139  220.8578 H   0  0  0  0  0  0  0  0  0  0  0  0
  140.1756   76.0166  218.2041 H   0  0  0  0  0  0  0  0  0  0  0  0
  139.4914   76.9141  219.5970 H   0  0  0  0  0  0  0  0  0  0  0  0
  140.4172   78.4372  217.8350 H   0  0  0  0  0  0  0  0  0  0  0  0
  141.2732   78.5978  219.4239 H   0  0  0  0  0  0  0  0  0  0  0  0
  142.3130   77.8906  216.8206 H   0  0  0  0  0  0  0  0  0  0  0  0
  143.1713   78.2836  218.3605 H   0  0  0  0  0  0  0  0  0  0  0  0
  142.0677   75.5386  217.5309 H   0  0  0  0  0  0  0  0  0  0  0  0
  143.7771   75.9750  217.6457 H   0  0  0  0  0  0  0  0  0  0  0  0
  143.2877   76.6670  220.1494 H   0  0  0  0  0  0  0  0  0  0  0  0
  141.8139   73.4960  218.8985 H   0  0  0  0  0  0  0  0  0  0  0  0
  142.8877   71.3006  219.4254 H   0  0  0  0  0  0  0  0  0  0  0  0
  145.0171   71.2501  220.6889 H   0  0  0  0  0  0  0  0  0  0  0  0
  145.0177   75.5832  220.9132 H   0  0  0  0  0  0  0  0  0  0  0  0
  139.2089   69.6328  222.6657 H   0  0  0  0  0  0  0  0  0  0  0  0
  139.0283   68.3706  224.8198 H   0  0  0  0  0  0  0  0  0  0  0  0
  139.4597   68.3162  227.2666 H   0  0  0  0  0  0  0  0  0  0  0  0
  140.3651   69.4543  229.2958 H   0  0  0  0  0  0  0  0  0  0  0  0
  141.3726   71.7148  229.1109 H   0  0  0  0  0  0  0  0  0  0  0  0
  141.4956   72.8760  226.9119 H   0  0  0  0  0  0  0  0  0  0  0  0
  1  2  2  0
  2  3  1  0
  3  4  1  0
  4  5  1  0
  5  6  2  0
  5  7  1  0
  7  8  1  0
  8  9  1  0
  9 10  1  0
 10 11  1  0
 11 12  1  0
 12 13  1  0
 13 14  2  0
 14 15  1  0
 15 16  2  0
 16 17  1  0
 17 18  1  0
 17 19  2  0
  2 20  1  0
 20 21  2  0
 21 22  1  0
 22 23  2  0
 23 24  1  0
 24 25  2  0
 25 26  1  0
 26 27  2  0
 27 28  1  0
 28 29  2  0
 12  7  1  0
 19 13  1  0
 29 20  1  0
 28 23  1  0
  3 30  1  0
  4 31  1  0
  4 32  1  0
  8 33  1  0
  8 34  1  0
  9 35  1  0
  9 36  1  0
 10 37  1  0
 10 38  1  0
 11 39  1  0
 11 40  1  0
 12 41  1  1
 14 42  1  0
 15 43  1  0
 16 44  1  0
 19 45  1  0
 21 46  1  0
 22 47  1  0
 24 48  1  0
 25 49  1  0
 26 50  1  0
 27 51  1  0
M  END
>  <smiles>  (5) 
O=C(NCC(=O)N1CCCCC1c1cccc(Cl)c1)c1ccc2ccccc2n1

>  <score_type>  (5) 
oracle

>  <origin>  (5) 
autodockgpu

>  <m_score__min__energy>  (5) 
-9.4100000000000001

>  <m_primary>  (5) 
energy

>  <rmsd>  (5) 
1.823562933224429

>  <m_score__min__rmsd>  (5) 
1.823562933224429

>  <meeko>  (5) 
{"free_energy": -9.02, "intermolecular_energy": -10.52, "internal_energy": -1.93, "cluster_size": 23, "cluster_id": 2, "rank_in_cluster": 9}

>  <energy>  (5) 
-9.39

>  <cluster_rmsd>  (5) 
0.16

>  <cluster>  (5) 
1

$$$$

     RDKit          3D

 51 54  0  0  0  0  0  0  0  0999 V2000
  140.6890   71.5020  221.2090 O   0  0  0  0  0  0  0  0  0  0  0  0
  140.2910   72.0760  222.2600 C   0  0  0  0  0  0  0  0  0  0  0  0
  139.9420   73.4500  222.2250 N   0  0  0  0  0  0  0  0  0  0  0  0
  140.0340   74.2060  221.0100 C   0  0  0  0  0  0  0  0  0  0  0  0
  140.8370   75.4390  221.1520 C   0  0  0  0  0  0  0  0  0  0  0  0
  141.1280   75.9130  222.3020 O   0  0  0  0  0  0  0  0  0  0  0  0
  141.2740   76.0780  219.9580 N   0  0  0  0  0  0  0  0  0  0  0  0
  140.3740   76.8030  219.0810 C   0  0  0  0  0  0  0  0  0  0  0  0
  141.0600   78.0900  218.6190 C   0  0  0  0  0  0  0  0  0  0  0  0
  142.3710   77.8050  217.9530 C   0  0  0  0  0  0  0  0  0  0  0  0
  142.7370   76.3220  218.0850 C   0  0  0  0  0  0  0  0  0  0  0  0
  142.6710   76.0150  219.5850 C   0  0  2  0  0  0  0  0  0  0  0  0
  143.2960   74.7010  219.8680 C   0  0  0  0  0  0  0  0  0  0  0  0
  142.6590   73.5560  219.4330 C   0  0  0  0  0  0  0  0  0  0  0  0
  143.2400   72.3230  219.6960 C   0  0  0  0  0  0  0  0  0  0  0  0
  144.4340   72.2660  220.3810 C   0  0  0  0  0  0  0  0  0  0  0  0
  145.0590   73.4360  220.8110 C   0  0  0  0  0  0  0  0  0  0  0  0
  146.5680   73.3800  221.6780 Cl  0  0  0  0  0  0  0  0  0  0  0  0
  144.4910   74.6870  220.5570 C   0  0  0  0  0  0  0  0  0  0  0  0
  140.1800   71.3450  223.5320 C   0  0  0  0  0  0  0  0  0  0  0  0
  139.5890   70.1000  223.5730 C   0  0  0  0  0  0  0  0  0  0  0  0
  139.4790   69.3990  224.7790 C   0  0  0  0  0  0  0  0  0  0  0  0
  139.9790   69.9840  225.9430 C   0  0  0  0  0  0  0  0  0  0  0  0
  139.9070   69.3540  227.1690 C   0  0  0  0  0  0  0  0  0  0  0  0
  140.4240   69.9880  228.2930 C   0  0  0  0  0  0  0  0  0  0  0  0
  141.0080   71.2470  228.1770 C   0  0  0  0  0  0  0  0  0  0  0  0
  141.0880   71.8900  226.9610 C   0  0  0  0  0  0  0  0  0  0  0  0
  140.5630   71.2310  225.8580 C   0  0  0  0  0  0  0  0  0  0  0  0
  140.6570   71.8890  224.6790 N   0  0  0  0  0  0  0  0  0  0  0  0
  139.6160   73.8890  223.1230 H   0  0  0  0  0  0  0  0  0  0  0  0
  140.4976   73.5735  220.2387 H   0  0  0  0  0  0  0  0  0  0  0  0
  139.0131   74.5100  220.7355 H   0  0  0  0  0  0  0  0  0  0  0  0
  140.1295   76.1810  218.2073 H   0  0  0  0  0  0  0  0  0  0  0  0
  139.4468   77.0482  219.6196 H   0  0  0  0  0  0  0  0  0  0  0  0
  140.4025   78.6094  217.9063 H   0  0  0  0  0  0  0  0  0  0  0  0
  141.2511   78.7157  219.5033 H   0  0  0  0  0  0  0  0  0  0  0  0
  142.2980   78.0650  216.8867 H   0  0  0  0  0  0  0  0  0  0  0  0
  143.1526   78.4061  218.4407 H   0  0  0  0  0  0  0  0  0  0  0  0
  142.0184   75.6982  217.5331 H   0  0  0  0  0  0  0  0  0  0  0  0
  143.7327   76.1091  217.6687 H   0  0  0  0  0  0  0  0  0  0  0  0
  143.2375   76.7423  220.1851 H   0  0  0  0  0  0  0  0  0  0  0  0
  141.7063   73.6197  218.8868 H   0  0  0  0  0  0  0  0  0  0  0  0
  142.7502   71.3973  219.3596 H   0  0  0  0  0  0  0  0  0  0  0  0
  144.8976   71.2906  220.5902 H   0  0  0  0  0  0  0  0  0  0  0  0
  144.9741   75.6172  220.8908 H   0  0  0  0  0  0  0  0  0  0  0  0
  139.1994   69.6525  222.6467 H   0  0  0  0  0  0  0  0  0  0  0  0
  139.0074   68.4057  224.8089 H   0  0  0  0  0  0  0  0  0  0  0  0
  139.4449   68.3596  227.2559 H   0  0  0  0  0  0  0  0  0  0  0  0
  140.3718   69.4948  229.2749 H   0  0  0  0  0  0  0  0  0  0  0  0
  141.4135   71.7379  229.0740 H   0  0  0  0  0  0  0  0  0  0  0  0
  141.5489   72.8845  226.8682 H   0  0  0  0  0  0  0  0  0  0  0  0
  1  2  2  0
  2  3  1  0
  3  4  1  0
  4  5  1  0
  5  6  2  0
  5  7  1  0
  7  8  1  0
  8  9  1  0
  9 10  1  0
 10 11  1  0
 11 12  1  0
 12 13  1  0
 13 14  2  0
 14 15  1  0
 15 16  2  0
 16 17  1  0
 17 18  1  0
 17 19  2  0
  2 20  1  0
 20 21  2  0
 21 22  1  0
 22 23  2  0
 23 24  1  0
 24 25  2  0
 25 26  1  0
 26 27  2  0
 27 28  1  0
 28 29  2  0
 12  7  1  0
 19 13  1  0
 29 20  1  0
 28 23  1  0
  3 30  1  0
  4 31  1  0
  4 32  1  0
  8 33  1  0
  8 34  1  0
  9 35  1  0
  9 36  1  0
 10 37  1  0
 10 38  1  0
 11 39  1  0
 11 40  1  0
 12 41  1  1
 14 42  1  0
 15 43  1  0
 16 44  1  0
 19 45  1  0
 21 46  1  0
 22 47  1  0
 24 48  1  0
 25 49  1  0
 26 50  1  0
 27 51  1  0
M  END
>  <smiles>  (6) 
O=C(NCC(=O)N1CCCCC1c1cccc(Cl)c1)c1ccc2ccccc2n1

>  <score_type>  (6) 
oracle

>  <origin>  (6) 
autodockgpu

>  <m_score__min__energy>  (6) 
-9.4100000000000001

>  <m_primary>  (6) 
energy

>  <rmsd>  (6) 
1.8408143759028466

>  <m_score__min__rmsd>  (6) 
1.8408143759028466

>  <meeko>  (6) 
{"free_energy": -9.06, "intermolecular_energy": -10.55, "internal_energy": -1.9, "cluster_size": 23, "cluster_id": 2, "rank_in_cluster": 5}

>  <energy>  (6) 
-9.39

>  <cluster_rmsd>  (6) 
0.07

>  <cluster>  (6) 
1

$$$$

     RDKit          3D

 51 54  0  0  0  0  0  0  0  0999 V2000
  141.3970   71.9810  221.4490 O   0  0  0  0  0  0  0  0  0  0  0  0
  140.5070   72.3140  222.2780 C   0  0  0  0  0  0  0  0  0  0  0  0
  139.7280   73.4760  222.0470 N   0  0  0  0  0  0  0  0  0  0  0  0
  139.9340   74.2870  220.8820 C   0  0  0  0  0  0  0  0  0  0  0  0
  140.8850   75.3960  221.1060 C   0  0  0  0  0  0  0  0  0  0  0  0
  141.3650   75.6340  222.2660 O   0  0  0  0  0  0  0  0  0  0  0  0
  141.2440   76.1900  219.9810 N   0  0  0  0  0  0  0  0  0  0  0  0
  140.2820   76.9800  219.2370 C   0  0  0  0  0  0  0  0  0  0  0  0
  140.9040   78.3370  218.9060 C   0  0  0  0  0  0  0  0  0  0  0  0
  142.1900   78.1840  218.1550 C   0  0  0  0  0  0  0  0  0  0  0  0
  142.6090   76.7100  218.0910 C   0  0  0  0  0  0  0  0  0  0  0  0
  142.6240   76.2230  219.5440 C   0  0  2  0  0  0  0  0  0  0  0  0
  143.3030   74.9100  219.6380 C   0  0  0  0  0  0  0  0  0  0  0  0
  142.8170   73.8560  218.8910 C   0  0  0  0  0  0  0  0  0  0  0  0
  143.4480   72.6230  218.9760 C   0  0  0  0  0  0  0  0  0  0  0  0
  144.5430   72.4760  219.7990 C   0  0  0  0  0  0  0  0  0  0  0  0
  145.0180   73.5550  220.5460 C   0  0  0  0  0  0  0  0  0  0  0  0
  146.4000   73.3840  221.5900 Cl  0  0  0  0  0  0  0  0  0  0  0  0
  144.3950   74.8030  220.4730 C   0  0  0  0  0  0  0  0  0  0  0  0
  140.2550   71.5180  223.4890 C   0  0  0  0  0  0  0  0  0  0  0  0
  139.5380   70.3420  223.4150 C   0  0  0  0  0  0  0  0  0  0  0  0
  139.2940   69.5780  224.5620 C   0  0  0  0  0  0  0  0  0  0  0  0
  139.7900   70.0300  225.7850 C   0  0  0  0  0  0  0  0  0  0  0  0
  139.5900   69.3310  226.9590 C   0  0  0  0  0  0  0  0  0  0  0  0
  140.1100   69.8320  228.1480 C   0  0  0  0  0  0  0  0  0  0  0  0
  140.8260   71.0270  228.1470 C   0  0  0  0  0  0  0  0  0  0  0  0
  141.0350   71.7370  226.9850 C   0  0  0  0  0  0  0  0  0  0  0  0
  140.5030   71.2110  225.8160 C   0  0  0  0  0  0  0  0  0  0  0  0
  140.7250   71.9320  224.6910 N   0  0  0  0  0  0  0  0  0  0  0  0
  138.9970   73.7180  222.7620 H   0  0  0  0  0  0  0  0  0  0  0  0
  140.3249   73.6485  220.0761 H   0  0  0  0  0  0  0  0  0  0  0  0
  138.9644   74.7355  220.6200 H   0  0  0  0  0  0  0  0  0  0  0  0
  140.0176   76.4582  218.3055 H   0  0  0  0  0  0  0  0  0  0  0  0
  139.3732   77.1242  219.8397 H   0  0  0  0  0  0  0  0  0  0  0  0
  140.1974   78.9133  218.2907 H   0  0  0  0  0  0  0  0  0  0  0  0
  141.1168   78.8582  219.8510 H   0  0  0  0  0  0  0  0  0  0  0  0
  142.0584   78.5666  217.1321 H   0  0  0  0  0  0  0  0  0  0  0  0
  142.9740   78.7519  218.6773 H   0  0  0  0  0  0  0  0  0  0  0  0
  141.8853   76.1304  217.4991 H   0  0  0  0  0  0  0  0  0  0  0  0
  143.5904   76.5861  217.6098 H   0  0  0  0  0  0  0  0  0  0  0  0
  143.1951   76.8926  220.2039 H   0  0  0  0  0  0  0  0  0  0  0  0
  141.9423   73.9914  218.2379 H   0  0  0  0  0  0  0  0  0  0  0  0
  143.0765   71.7691  218.3904 H   0  0  0  0  0  0  0  0  0  0  0  0
  145.0469   71.5006  219.8679 H   0  0  0  0  0  0  0  0  0  0  0  0
  144.7592   75.6620  221.0556 H   0  0  0  0  0  0  0  0  0  0  0  0
  139.1533   70.0005  222.4427 H   0  0  0  0  0  0  0  0  0  0  0  0
  138.7227   68.6400  224.5004 H   0  0  0  0  0  0  0  0  0  0  0  0
  139.0250   68.3872  226.9540 H   0  0  0  0  0  0  0  0  0  0  0  0
  139.9558   69.2843  229.0894 H   0  0  0  0  0  0  0  0  0  0  0  0
  141.2330   71.4117  229.0938 H   0  0  0  0  0  0  0  0  0  0  0  0
  141.5997   72.6810  226.9838 H   0  0  0  0  0  0  0  0  0  0  0  0
  1  2  2  0
  2  3  1  0
  3  4  1  0
  4  5  1  0
  5  6  2  0
  5  7  1  0
  7  8  1  0
  8  9  1  0
  9 10  1  0
 10 11  1  0
 11 12  1  0
 12 13  1  0
 13 14  2  0
 14 15  1  0
 15 16  2  0
 16 17  1  0
 17 18  1  0
 17 19  2  0
  2 20  1  0
 20 21  2  0
 21 22  1  0
 22 23  2  0
 23 24  1  0
 24 25  2  0
 25 26  1  0
 26 27  2  0
 27 28  1  0
 28 29  2  0
 12  7  1  0
 19 13  1  0
 29 20  1  0
 28 23  1  0
  3 30  1  0
  4 31  1  0
  4 32  1  0
  8 33  1  0
  8 34  1  0
  9 35  1  0
  9 36  1  0
 10 37  1  0
 10 38  1  0
 11 39  1  0
 11 40  1  0
 12 41  1  1
 14 42  1  0
 15 43  1  0
 16 44  1  0
 19 45  1  0
 21 46  1  0
 22 47  1  0
 24 48  1  0
 25 49  1  0
 26 50  1  0
 27 51  1  0
M  END
>  <smiles>  (7) 
O=C(NCC(=O)N1CCCCC1c1cccc(Cl)c1)c1ccc2ccccc2n1

>  <score_type>  (7) 
oracle

>  <origin>  (7) 
autodockgpu

>  <m_score__min__energy>  (7) 
-9.4100000000000001

>  <m_primary>  (7) 
energy

>  <rmsd>  (7) 
1.8920029135616923

>  <m_score__min__rmsd>  (7) 
1.8920029135616923

>  <meeko>  (7) 
{"free_energy": -8.97, "intermolecular_energy": -10.46, "internal_energy": -1.84, "cluster_size": 23, "cluster_id": 2, "rank_in_cluster": 13}

>  <energy>  (7) 
-9.38

>  <cluster_rmsd>  (7) 
0.07

>  <cluster>  (7) 
1

$$$$

     RDKit          3D

 51 54  0  0  0  0  0  0  0  0999 V2000
  141.0510   71.6740  221.4150 O   0  0  0  0  0  0  0  0  0  0  0  0
  140.4640   72.1880  222.4060 C   0  0  0  0  0  0  0  0  0  0  0  0
  140.0180   73.5320  222.3430 N   0  0  0  0  0  0  0  0  0  0  0  0
  140.2240   74.3260  221.1660 C   0  0  0  0  0  0  0  0  0  0  0  0
  140.8230   75.6470  221.4530 C   0  0  0  0  0  0  0  0  0  0  0  0
  140.7840   76.1520  222.6260 O   0  0  0  0  0  0  0  0  0  0  0  0
  141.4450   76.3330  220.3720 N   0  0  0  0  0  0  0  0  0  0  0  0
  142.4690   75.7270  219.5430 C   0  0  0  0  0  0  0  0  0  0  0  0
  142.2100   76.1010  218.0820 C   0  0  0  0  0  0  0  0  0  0  0  0
  142.1550   77.5860  217.8970 C   0  0  0  0  0  0  0  0  0  0  0  0
  142.1930   78.3050  219.2500 C   0  0  0  0  0  0  0  0  0  0  0  0
  141.0530   77.6930  220.0720 C   0  0  2  0  0  0  0  0  0  0  0  0
  140.7950   78.5120  221.2800 C   0  0  0  0  0  0  0  0  0  0  0  0
  139.4950   78.6410  221.7280 C   0  0  0  0  0  0  0  0  0  0  0  0
  139.2480   79.4070  222.8590 C   0  0  0  0  0  0  0  0  0  0  0  0
  140.2970   80.0200  223.5090 C   0  0  0  0  0  0  0  0  0  0  0  0
  141.6020   79.8750  223.0370 C   0  0  0  0  0  0  0  0  0  0  0  0
  142.9390   80.6420  223.8480 Cl  0  0  0  0  0  0  0  0  0  0  0  0
  141.8720   79.1080  221.9010 C   0  0  0  0  0  0  0  0  0  0  0  0
  140.2280   71.4170  223.6380 C   0  0  0  0  0  0  0  0  0  0  0  0
  139.5630   70.2100  223.5890 C   0  0  0  0  0  0  0  0  0  0  0  0
  139.3350   69.4710  224.7550 C   0  0  0  0  0  0  0  0  0  0  0  0
  139.7920   69.9790  225.9710 C   0  0  0  0  0  0  0  0  0  0  0  0
  139.6040   69.3080  227.1630 C   0  0  0  0  0  0  0  0  0  0  0  0
  140.0850   69.8660  228.3430 C   0  0  0  0  0  0  0  0  0  0  0  0
  140.7480   71.0910  228.3160 C   0  0  0  0  0  0  0  0  0  0  0  0
  140.9440   71.7730  227.1360 C   0  0  0  0  0  0  0  0  0  0  0  0
  140.4530   71.1910  225.9760 C   0  0  0  0  0  0  0  0  0  0  0  0
  140.6610   71.8870  224.8330 N   0  0  0  0  0  0  0  0  0  0  0  0
  139.5340   73.9220  223.1910 H   0  0  0  0  0  0  0  0  0  0  0  0
  140.8942   73.7781  220.4873 H   0  0  0  0  0  0  0  0  0  0  0  0
  139.2367   74.5053  220.7153 H   0  0  0  0  0  0  0  0  0  0  0  0
  143.4586   76.0971  219.8490 H   0  0  0  0  0  0  0  0  0  0  0  0
  142.4424   74.6333  219.6579 H   0  0  0  0  0  0  0  0  0  0  0  0
  143.0201   75.6930  217.4596 H   0  0  0  0  0  0  0  0  0  0  0  0
  141.2381   75.6800  217.7851 H   0  0  0  0  0  0  0  0  0  0  0  0
  143.0174   77.9065  217.2940 H   0  0  0  0  0  0  0  0  0  0  0  0
  141.2147   77.8431  217.3875 H   0  0  0  0  0  0  0  0  0  0  0  0
  143.1593   78.1363  219.7478 H   0  0  0  0  0  0  0  0  0  0  0  0
  142.0759   79.3929  219.1371 H   0  0  0  0  0  0  0  0  0  0  0  0
  140.1009   77.6796  219.5213 H   0  0  0  0  0  0  0  0  0  0  0  0
  138.6689   78.1449  221.1974 H   0  0  0  0  0  0  0  0  0  0  0  0
  138.2206   79.5240  223.2342 H   0  0  0  0  0  0  0  0  0  0  0  0
  140.1044   80.6275  224.4056 H   0  0  0  0  0  0  0  0  0  0  0  0
  142.8965   78.9853  221.5197 H   0  0  0  0  0  0  0  0  0  0  0  0
  139.2077   69.8238  222.6223 H   0  0  0  0  0  0  0  0  0  0  0  0
  138.8054   68.5078  224.7135 H   0  0  0  0  0  0  0  0  0  0  0  0
  139.0789   68.3415  227.1794 H   0  0  0  0  0  0  0  0  0  0  0  0
  139.9418   69.3396  229.2982 H   0  0  0  0  0  0  0  0  0  0  0  0
  141.1224   71.5220  229.2562 H   0  0  0  0  0  0  0  0  0  0  0  0
  141.4684   72.7397  227.1138 H   0  0  0  0  0  0  0  0  0  0  0  0
  1  2  2  0
  2  3  1  0
  3  4  1  0
  4  5  1  0
  5  6  2  0
  5  7  1  0
  7  8  1  0
  8  9  1  0
  9 10  1  0
 10 11  1  0
 11 12  1  0
 12 13  1  0
 13 14  2  0
 14 15  1  0
 15 16  2  0
 16 17  1  0
 17 18  1  0
 17 19  2  0
  2 20  1  0
 20 21  2  0
 21 22  1  0
 22 23  2  0
 23 24  1  0
 24 25  2  0
 25 26  1  0
 26 27  2  0
 27 28  1  0
 28 29  2  0
 12  7  1  0
 19 13  1  0
 29 20  1  0
 28 23  1  0
  3 30  1  0
  4 31  1  0
  4 32  1  0
  8 33  1  0
  8 34  1  0
  9 35  1  0
  9 36  1  0
 10 37  1  0
 10 38  1  0
 11 39  1  0
 11 40  1  0
 12 41  1  6
 14 42  1  0
 15 43  1  0
 16 44  1  0
 19 45  1  0
 21 46  1  0
 22 47  1  0
 24 48  1  0
 25 49  1  0
 26 50  1  0
 27 51  1  0
M  END
>  <smiles>  (8) 
O=C(NCC(=O)N1CCCCC1c1cccc(Cl)c1)c1ccc2ccccc2n1

>  <score_type>  (8) 
oracle

>  <origin>  (8) 
autodockgpu

>  <m_score__min__energy>  (8) 
-9.4100000000000001

>  <m_primary>  (8) 
energy

>  <rmsd>  (8) 
2.0532777929544213

>  <m_score__min__rmsd>  (8) 
2.0532777929544213

>  <meeko>  (8) 
{"free_energy": -9.41, "intermolecular_energy": -10.9, "internal_energy": -1.48, "cluster_size": 19, "cluster_id": 1, "rank_in_cluster": 1}

>  <energy>  (8) 
-9.37

>  <cluster_rmsd>  (8) 
0.07

>  <cluster>  (8) 
1

$$$$

     RDKit          3D

 51 54  0  0  0  0  0  0  0  0999 V2000
  140.5780   71.4350  221.1720 O   0  0  0  0  0  0  0  0  0  0  0  0
  140.2480   72.0300  222.2340 C   0  0  0  0  0  0  0  0  0  0  0  0
  139.9680   73.4200  222.2070 N   0  0  0  0  0  0  0  0  0  0  0  0
  140.0550   74.1680  220.9870 C   0  0  0  0  0  0  0  0  0  0  0  0
  140.8010   75.4360  221.1340 C   0  0  0  0  0  0  0  0  0  0  0  0
  141.0820   75.9100  222.2860 O   0  0  0  0  0  0  0  0  0  0  0  0
  141.1940   76.1070  219.9420 N   0  0  0  0  0  0  0  0  0  0  0  0
  140.2620   76.8480  219.1140 C   0  0  0  0  0  0  0  0  0  0  0  0
  140.9250   78.1500  218.6620 C   0  0  0  0  0  0  0  0  0  0  0  0
  142.2150   77.8910  217.9470 C   0  0  0  0  0  0  0  0  0  0  0  0
  142.5940   76.4070  218.0300 C   0  0  0  0  0  0  0  0  0  0  0  0
  142.5790   76.0620  219.5230 C   0  0  2  0  0  0  0  0  0  0  0  0
  143.2210   74.7470  219.7520 C   0  0  0  0  0  0  0  0  0  0  0  0
  142.6270   73.6180  219.2230 C   0  0  0  0  0  0  0  0  0  0  0  0
  143.2230   72.3830  219.4360 C   0  0  0  0  0  0  0  0  0  0  0  0
  144.3900   72.3070  220.1650 C   0  0  0  0  0  0  0  0  0  0  0  0
  144.9720   73.4610  220.6900 C   0  0  0  0  0  0  0  0  0  0  0  0
  146.4460   73.3820  221.6130 Cl  0  0  0  0  0  0  0  0  0  0  0  0
  144.3870   74.7140  220.4870 C   0  0  0  0  0  0  0  0  0  0  0  0
  140.1450   71.3080  223.5130 C   0  0  0  0  0  0  0  0  0  0  0  0
  139.5950   70.0440  223.5590 C   0  0  0  0  0  0  0  0  0  0  0  0
  139.4930   69.3520  224.7700 C   0  0  0  0  0  0  0  0  0  0  0  0
  139.9590   69.9650  225.9340 C   0  0  0  0  0  0  0  0  0  0  0  0
  139.8930   69.3440  227.1650 C   0  0  0  0  0  0  0  0  0  0  0  0
  140.3750   70.0060  228.2900 C   0  0  0  0  0  0  0  0  0  0  0  0
  140.9190   71.2830  228.1670 C   0  0  0  0  0  0  0  0  0  0  0  0
  140.9930   71.9160  226.9460 C   0  0  0  0  0  0  0  0  0  0  0  0
  140.5030   71.2290  225.8440 C   0  0  0  0  0  0  0  0  0  0  0  0
  140.5900   71.8790  224.6590 N   0  0  0  0  0  0  0  0  0  0  0  0
  139.6970   73.8760  223.1140 H   0  0  0  0  0  0  0  0  0  0  0  0
  140.5627   73.5490  220.2327 H   0  0  0  0  0  0  0  0  0  0  0  0
  139.0284   74.4252  220.6870 H   0  0  0  0  0  0  0  0  0  0  0  0
  139.9919   76.2465  218.2335 H   0  0  0  0  0  0  0  0  0  0  0  0
  139.3520   77.0742  219.6892 H   0  0  0  0  0  0  0  0  0  0  0  0
  140.2415   78.6823  217.9841 H   0  0  0  0  0  0  0  0  0  0  0  0
  141.1414   78.7546  219.5551 H   0  0  0  0  0  0  0  0  0  0  0  0
  142.1057   78.1770  216.8905 H   0  0  0  0  0  0  0  0  0  0  0  0
  143.0084   78.4852  218.4238 H   0  0  0  0  0  0  0  0  0  0  0  0
  141.8614   75.7924  217.4863 H   0  0  0  0  0  0  0  0  0  0  0  0
  143.5769   76.2114  217.5764 H   0  0  0  0  0  0  0  0  0  0  0  0
  143.1604   76.7772  220.1234 H   0  0  0  0  0  0  0  0  0  0  0  0
  141.6962   73.6964  218.6421 H   0  0  0  0  0  0  0  0  0  0  0  0
  142.7667   71.4702  219.0254 H   0  0  0  0  0  0  0  0  0  0  0  0
  144.8658   71.3298  220.3341 H   0  0  0  0  0  0  0  0  0  0  0  0
  144.8362   75.6315  220.8949 H   0  0  0  0  0  0  0  0  0  0  0  0
  139.2324   69.5748  222.6325 H   0  0  0  0  0  0  0  0  0  0  0  0
  139.0539   68.3440  224.8044 H   0  0  0  0  0  0  0  0  0  0  0  0
  139.4635   68.3354  227.2558 H   0  0  0  0  0  0  0  0  0  0  0  0
  140.3266   69.5213  229.2763 H   0  0  0  0  0  0  0  0  0  0  0  0
  141.2971   71.7961  229.0635 H   0  0  0  0  0  0  0  0  0  0  0  0
  141.4225   72.9240  226.8483 H   0  0  0  0  0  0  0  0  0  0  0  0
  1  2  2  0
  2  3  1  0
  3  4  1  0
  4  5  1  0
  5  6  2  0
  5  7  1  0
  7  8  1  0
  8  9  1  0
  9 10  1  0
 10 11  1  0
 11 12  1  0
 12 13  1  0
 13 14  2  0
 14 15  1  0
 15 16  2  0
 16 17  1  0
 17 18  1  0
 17 19  2  0
  2 20  1  0
 20 21  2  0
 21 22  1  0
 22 23  2  0
 23 24  1  0
 24 25  2  0
 25 26  1  0
 26 27  2  0
 27 28  1  0
 28 29  2  0
 12  7  1  0
 19 13  1  0
 29 20  1  0
 28 23  1  0
  3 30  1  0
  4 31  1  0
  4 32  1  0
  8 33  1  0
  8 34  1  0
  9 35  1  0
  9 36  1  0
 10 37  1  0
 10 38  1  0
 11 39  1  0
 11 40  1  0
 12 41  1  1
 14 42  1  0
 15 43  1  0
 16 44  1  0
 19 45  1  0
 21 46  1  0
 22 47  1  0
 24 48  1  0
 25 49  1  0
 26 50  1  0
 27 51  1  0
M  END
>  <smiles>  (9) 
O=C(NCC(=O)N1CCCCC1c1cccc(Cl)c1)c1ccc2ccccc2n1

>  <score_type>  (9) 
oracle

>  <origin>  (9) 
autodockgpu

>  <m_score__min__energy>  (9) 
-9.4100000000000001

>  <m_primary>  (9) 
energy

>  <rmsd>  (9) 
1.8138687729788512

>  <m_score__min__rmsd>  (9) 
1.8138687729788512

>  <meeko>  (9) 
{"free_energy": -8.94, "intermolecular_energy": -10.43, "internal_energy": -1.99, "cluster_size": 23, "cluster_id": 2, "rank_in_cluster": 14}

>  <energy>  (9) 
-9.36

>  <cluster_rmsd>  (9) 
0.38

>  <cluster>  (9) 
1

$$$$

     RDKit          3D

 51 54  0  0  0  0  0  0  0  0999 V2000
  140.9820   71.4150  221.2870 O   0  0  0  0  0  0  0  0  0  0  0  0
  140.5020   72.0110  222.2890 C   0  0  0  0  0  0  0  0  0  0  0  0
  140.1660   73.3860  222.1990 N   0  0  0  0  0  0  0  0  0  0  0  0
  140.3650   74.1180  220.9820 C   0  0  0  0  0  0  0  0  0  0  0  0
  141.0840   75.3940  221.1810 C   0  0  0  0  0  0  0  0  0  0  0  0
  141.2540   75.8840  222.3490 O   0  0  0  0  0  0  0  0  0  0  0  0
  141.5800   76.0560  220.0230 N   0  0  0  0  0  0  0  0  0  0  0  0
  140.7320   76.8370  219.1420 C   0  0  0  0  0  0  0  0  0  0  0  0
  141.4740   78.1140  218.7440 C   0  0  0  0  0  0  0  0  0  0  0  0
  142.7960   77.8080  218.1110 C   0  0  0  0  0  0  0  0  0  0  0  0
  143.1100   76.3100  218.2060 C   0  0  0  0  0  0  0  0  0  0  0  0
  142.9850   75.9580  219.6930 C   0  0  2  0  0  0  0  0  0  0  0  0
  143.5590   74.6160  219.9520 C   0  0  0  0  0  0  0  0  0  0  0  0
  144.6510   74.5120  220.7900 C   0  0  0  0  0  0  0  0  0  0  0  0
  145.1930   73.2590  221.0350 C   0  0  0  0  0  0  0  0  0  0  0  0
  144.6330   72.1480  220.4430 C   0  0  0  0  0  0  0  0  0  0  0  0
  143.5290   72.2770  219.5990 C   0  0  0  0  0  0  0  0  0  0  0  0
  142.8100   70.8830  218.8440 Cl  0  0  0  0  0  0  0  0  0  0  0  0
  142.9690   73.5300  219.3400 C   0  0  0  0  0  0  0  0  0  0  0  0
  140.2780   71.3060  223.5620 C   0  0  0  0  0  0  0  0  0  0  0  0
  139.6210   70.0940  223.5830 C   0  0  0  0  0  0  0  0  0  0  0  0
  139.4040   69.4180  224.7880 C   0  0  0  0  0  0  0  0  0  0  0  0
  139.8670   69.9940  225.9720 C   0  0  0  0  0  0  0  0  0  0  0  0
  139.6910   69.3860  227.1990 C   0  0  0  0  0  0  0  0  0  0  0  0
  140.1750   70.0090  228.3440 C   0  0  0  0  0  0  0  0  0  0  0  0
  140.8310   71.2340  228.2470 C   0  0  0  0  0  0  0  0  0  0  0  0
  141.0150   71.8540  227.0310 C   0  0  0  0  0  0  0  0  0  0  0  0
  140.5200   71.2070  225.9070 C   0  0  0  0  0  0  0  0  0  0  0  0
  140.7170   71.8420  224.7280 N   0  0  0  0  0  0  0  0  0  0  0  0
  139.7690   73.8440  223.0580 H   0  0  0  0  0  0  0  0  0  0  0  0
  140.9475   73.4928  220.2893 H   0  0  0  0  0  0  0  0  0  0  0  0
  139.3702   74.3624  220.5811 H   0  0  0  0  0  0  0  0  0  0  0  0
  140.4961   76.2510  218.2414 H   0  0  0  0  0  0  0  0  0  0  0  0
  139.7958   77.0955  219.6584 H   0  0  0  0  0  0  0  0  0  0  0  0
  140.8571   78.6771  218.0282 H   0  0  0  0  0  0  0  0  0  0  0  0
  141.6564   78.7041  219.6542 H   0  0  0  0  0  0  0  0  0  0  0  0
  142.7662   78.1040  217.0520 H   0  0  0  0  0  0  0  0  0  0  0  0
  143.5799   78.3675  218.6424 H   0  0  0  0  0  0  0  0  0  0  0  0
  142.3904   75.7280  217.6115 H   0  0  0  0  0  0  0  0  0  0  0  0
  144.1115   76.0776  217.8147 H   0  0  0  0  0  0  0  0  0  0  0  0
  143.5540   76.6464  220.3351 H   0  0  0  0  0  0  0  0  0  0  0  0
  145.0846   75.4090  221.2562 H   0  0  0  0  0  0  0  0  0  0  0  0
  146.0645   73.1529  221.6978 H   0  0  0  0  0  0  0  0  0  0  0  0
  145.0590   71.1525  220.6369 H   0  0  0  0  0  0  0  0  0  0  0  0
  142.0977   73.6453  218.6785 H   0  0  0  0  0  0  0  0  0  0  0  0
  139.2632   69.6534  222.6407 H   0  0  0  0  0  0  0  0  0  0  0  0
  138.8789   68.4516  224.8023 H   0  0  0  0  0  0  0  0  0  0  0  0
  139.1729   68.4182  227.2701 H   0  0  0  0  0  0  0  0  0  0  0  0
  140.0398   69.5342  229.3270 H   0  0  0  0  0  0  0  0  0  0  0  0
  141.2098   71.7161  229.1603 H   0  0  0  0  0  0  0  0  0  0  0  0
  141.5326   72.8215  226.9537 H   0  0  0  0  0  0  0  0  0  0  0  0
  1  2  2  0
  2  3  1  0
  3  4  1  0
  4  5  1  0
  5  6  2  0
  5  7  1  0
  7  8  1  0
  8  9  1  0
  9 10  1  0
 10 11  1  0
 11 12  1  0
 12 13  1  0
 13 14  2  0
 14 15  1  0
 15 16  2  0
 16 17  1  0
 17 18  1  0
 17 19  2  0
  2 20  1  0
 20 21  2  0
 21 22  1  0
 22 23  2  0
 23 24  1  0
 24 25  2  0
 25 26  1  0
 26 27  2  0
 27 28  1  0
 28 29  2  0
 12  7  1  0
 19 13  1  0
 29 20  1  0
 28 23  1  0
  3 30  1  0
  4 31  1  0
  4 32  1  0
  8 33  1  0
  8 34  1  0
  9 35  1  0
  9 36  1  0
 10 37  1  0
 10 38  1  0
 11 39  1  0
 11 40  1  0
 12 41  1  1
 14 42  1  0
 15 43  1  0
 16 44  1  0
 19 45  1  0
 21 46  1  0
 22 47  1  0
 24 48  1  0
 25 49  1  0
 26 50  1  0
 27 51  1  0
M  END
>  <smiles>  (10) 
O=C(NCC(=O)N1CCCCC1c1cccc(Cl)c1)c1ccc2ccccc2n1

>  <score_type>  (10) 
oracle

>  <origin>  (10) 
autodockgpu

>  <m_score__min__energy>  (10) 
-9.4100000000000001

>  <m_primary>  (10) 
energy

>  <rmsd>  (10) 
2.018437842392238

>  <m_score__min__rmsd>  (10) 
2.018437842392238

>  <meeko>  (10) 
{"free_energy": -8.45, "intermolecular_energy": -9.94, "internal_energy": -2.05, "cluster_size": 23, "cluster_id": 2, "rank_in_cluster": 21}

>  <energy>  (10) 
-9.36

>  <cluster_rmsd>  (10) 
0.07

>  <cluster>  (10) 
1

$$$$

     RDKit          3D

 51 54  0  0  0  0  0  0  0  0999 V2000
  141.3060   74.4730  221.1740 O   0  0  0  0  0  0  0  0  0  0  0  0
  140.3280   74.8070  221.8970 C   0  0  0  0  0  0  0  0  0  0  0  0
  139.4310   73.8160  222.3720 N   0  0  0  0  0  0  0  0  0  0  0  0
  139.6150   72.4320  222.0430 C   0  0  0  0  0  0  0  0  0  0  0  0
  138.4590   71.5880  222.4120 C   0  0  0  0  0  0  0  0  0  0  0  0
  137.4930   72.0530  223.1080 O   0  0  0  0  0  0  0  0  0  0  0  0
  138.4630   70.2380  221.9640 N   0  0  0  0  0  0  0  0  0  0  0  0
  137.6100   69.7640  220.8910 C   0  0  0  0  0  0  0  0  0  0  0  0
  138.4160   68.8260  219.9920 C   0  0  0  0  0  0  0  0  0  0  0  0
  139.0080   67.6910  220.7700 C   0  0  0  0  0  0  0  0  0  0  0  0
  138.7880   67.8910  222.2750 C   0  0  0  0  0  0  0  0  0  0  0  0
  139.3510   69.2810  222.5910 C   0  0  2  0  0  0  0  0  0  0  0  0
  139.4730   69.4640  224.0560 C   0  0  0  0  0  0  0  0  0  0  0  0
  138.7640   68.6240  224.8910 C   0  0  0  0  0  0  0  0  0  0  0  0
  138.8740   68.7910  226.2640 C   0  0  0  0  0  0  0  0  0  0  0  0
  139.6840   69.7870  226.7650 C   0  0  0  0  0  0  0  0  0  0  0  0
  140.3910   70.6250  225.9020 C   0  0  0  0  0  0  0  0  0  0  0  0
  141.4180   71.8880  226.5200 Cl  0  0  0  0  0  0  0  0  0  0  0  0
  140.2930   70.4720  224.5170 C   0  0  0  0  0  0  0  0  0  0  0  0
  140.0940   76.2130  222.2630 C   0  0  0  0  0  0  0  0  0  0  0  0
  138.8090   76.7060  222.3560 C   0  0  0  0  0  0  0  0  0  0  0  0
  138.5780   78.0410  222.7040 C   0  0  0  0  0  0  0  0  0  0  0  0
  139.6740   78.8670  222.9550 C   0  0  0  0  0  0  0  0  0  0  0  0
  139.5250   80.1950  223.3040 C   0  0  0  0  0  0  0  0  0  0  0  0
  140.6560   80.9680  223.5440 C   0  0  0  0  0  0  0  0  0  0  0  0
  141.9240   80.4020  223.4320 C   0  0  0  0  0  0  0  0  0  0  0  0
  142.0900   79.0790  223.0850 C   0  0  0  0  0  0  0  0  0  0  0  0
  140.9420   78.3350  222.8530 C   0  0  0  0  0  0  0  0  0  0  0  0
  141.1400   77.0390  222.5140 N   0  0  0  0  0  0  0  0  0  0  0  0
  138.6290   74.1370  222.9710 H   0  0  0  0  0  0  0  0  0  0  0  0
  139.7766   72.3489  220.9581 H   0  0  0  0  0  0  0  0  0  0  0  0
  140.4805   72.0712  222.6181 H   0  0  0  0  0  0  0  0  0  0  0  0
  136.7516   69.2218  221.3144 H   0  0  0  0  0  0  0  0  0  0  0  0
  137.2430   70.6181  220.3030 H   0  0  0  0  0  0  0  0  0  0  0  0
  137.7525   68.4186  219.2150 H   0  0  0  0  0  0  0  0  0  0  0  0
  139.2388   69.4019  219.5432 H   0  0  0  0  0  0  0  0  0  0  0  0
  138.5301   66.7509  220.4572 H   0  0  0  0  0  0  0  0  0  0  0  0
  140.0896   67.6538  220.5730 H   0  0  0  0  0  0  0  0  0  0  0  0
  137.7156   67.8469  222.5158 H   0  0  0  0  0  0  0  0  0  0  0  0
  139.2823   67.1067  222.8670 H   0  0  0  0  0  0  0  0  0  0  0  0
  140.3678   69.4198  222.1950 H   0  0  0  0  0  0  0  0  0  0  0  0
  138.1216   67.8343  224.4742 H   0  0  0  0  0  0  0  0  0  0  0  0
  138.3183   68.1328  226.9481 H   0  0  0  0  0  0  0  0  0  0  0  0
  139.7738   69.9223  227.8529 H   0  0  0  0  0  0  0  0  0  0  0  0
  140.8448   71.1259  223.8257 H   0  0  0  0  0  0  0  0  0  0  0  0
  137.9560   76.0415  222.1541 H   0  0  0  0  0  0  0  0  0  0  0  0
  137.5525   78.4319  222.7783 H   0  0  0  0  0  0  0  0  0  0  0  0
  138.5215   80.6370  223.3913 H   0  0  0  0  0  0  0  0  0  0  0  0
  140.5493   82.0268  223.8224 H   0  0  0  0  0  0  0  0  0  0  0  0
  142.8106   81.0239  223.6245 H   0  0  0  0  0  0  0  0  0  0  0  0
  143.0908   78.6313  222.9956 H   0  0  0  0  0  0  0  0  0  0  0  0
  1  2  2  0
  2  3  1  0
  3  4  1  0
  4  5  1  0
  5  6  2  0
  5  7  1  0
  7  8  1  0
  8  9  1  0
  9 10  1  0
 10 11  1  0
 11 12  1  0
 12 13  1  0
 13 14  2  0
 14 15  1  0
 15 16  2  0
 16 17  1  0
 17 18  1  0
 17 19  2  0
  2 20  1  0
 20 21  2  0
 21 22  1  0
 22 23  2  0
 23 24  1  0
 24 25  2  0
 25 26  1  0
 26 27  2  0
 27 28  1  0
 28 29  2  0
 12  7  1  0
 19 13  1  0
 29 20  1  0
 28 23  1  0
  3 30  1  0
  4 31  1  0
  4 32  1  0
  8 33  1  0
  8 34  1  0
  9 35  1  0
  9 36  1  0
 10 37  1  0
 10 38  1  0
 11 39  1  0
 11 40  1  0
 12 41  1  6
 14 42  1  0
 15 43  1  0
 16 44  1  0
 19 45  1  0
 21 46  1  0
 22 47  1  0
 24 48  1  0
 25 49  1  0
 26 50  1  0
 27 51  1  0
M  END
>  <smiles>  (11) 
O=C(NCC(=O)N1CCCCC1c1cccc(Cl)c1)c1ccc2ccccc2n1

>  <score_type>  (11) 
oracle

>  <origin>  (11) 
autodockgpu

>  <m_score__min__energy>  (11) 
-9.4100000000000001

>  <m_primary>  (11) 
energy

>  <rmsd>  (11) 
8.074700215062066

>  <m_score__min__rmsd>  (11) 
8.074700215062066

>  <meeko>  (11) 
{"free_energy": -7.8, "intermolecular_energy": -9.29, "internal_energy": -1.67, "cluster_size": 1, "cluster_id": 5, "rank_in_cluster": 1}

>  <energy>  (11) 
-9.35

>  <cluster_rmsd>  (11) 
0.46

>  <cluster>  (11) 
1

$$$$

     RDKit          3D

 51 54  0  0  0  0  0  0  0  0999 V2000
  141.1490   71.7050  221.4280 O   0  0  0  0  0  0  0  0  0  0  0  0
  140.5220   72.2010  222.4030 C   0  0  0  0  0  0  0  0  0  0  0  0
  140.0500   73.5360  222.3330 N   0  0  0  0  0  0  0  0  0  0  0  0
  140.2740   74.3400  221.1670 C   0  0  0  0  0  0  0  0  0  0  0  0
  140.9550   75.6180  221.4640 C   0  0  0  0  0  0  0  0  0  0  0  0
  141.0290   76.0690  222.6570 O   0  0  0  0  0  0  0  0  0  0  0  0
  141.5250   76.3270  220.3690 N   0  0  0  0  0  0  0  0  0  0  0  0
  142.5550   75.7620  219.5190 C   0  0  0  0  0  0  0  0  0  0  0  0
  142.2510   76.1220  218.0640 C   0  0  0  0  0  0  0  0  0  0  0  0
  142.1290   77.6030  217.8770 C   0  0  0  0  0  0  0  0  0  0  0  0
  142.1660   78.3260  219.2290 C   0  0  0  0  0  0  0  0  0  0  0  0
  141.0700   77.6690  220.0750 C   0  0  2  0  0  0  0  0  0  0  0  0
  140.8040   78.4790  221.2870 C   0  0  0  0  0  0  0  0  0  0  0  0
  139.5050   78.5810  221.7450 C   0  0  0  0  0  0  0  0  0  0  0  0
  139.2500   79.3390  222.8790 C   0  0  0  0  0  0  0  0  0  0  0  0
  140.2910   79.9710  223.5240 C   0  0  0  0  0  0  0  0  0  0  0  0
  141.5960   79.8530  223.0430 C   0  0  0  0  0  0  0  0  0  0  0  0
  142.9220   80.6450  223.8470 Cl  0  0  0  0  0  0  0  0  0  0  0  0
  141.8730   79.0950  221.9030 C   0  0  0  0  0  0  0  0  0  0  0  0
  140.2650   71.4190  223.6230 C   0  0  0  0  0  0  0  0  0  0  0  0
  139.5860   70.2200  223.5550 C   0  0  0  0  0  0  0  0  0  0  0  0
  139.3380   69.4710  224.7090 C   0  0  0  0  0  0  0  0  0  0  0  0
  139.7910   69.9590  225.9350 C   0  0  0  0  0  0  0  0  0  0  0  0
  139.5840   69.2760  227.1170 C   0  0  0  0  0  0  0  0  0  0  0  0
  140.0610   69.8140  228.3080 C   0  0  0  0  0  0  0  0  0  0  0  0
  140.7390   71.0300  228.3020 C   0  0  0  0  0  0  0  0  0  0  0  0
  140.9540   71.7250  227.1310 C   0  0  0  0  0  0  0  0  0  0  0  0
  140.4660   71.1620  225.9610 C   0  0  0  0  0  0  0  0  0  0  0  0
  140.6930   71.8690  224.8280 N   0  0  0  0  0  0  0  0  0  0  0  0
  139.5320   73.9110  223.1680 H   0  0  0  0  0  0  0  0  0  0  0  0
  140.8953   73.7682  220.4619 H   0  0  0  0  0  0  0  0  0  0  0  0
  139.2885   74.5848  220.7440 H   0  0  0  0  0  0  0  0  0  0  0  0
  143.5349   76.1728  219.8038 H   0  0  0  0  0  0  0  0  0  0  0  0
  142.5750   74.6684  219.6354 H   0  0  0  0  0  0  0  0  0  0  0  0
  143.0649   75.7474  217.4259 H   0  0  0  0  0  0  0  0  0  0  0  0
  141.2916   75.6599  217.7882 H   0  0  0  0  0  0  0  0  0  0  0  0
  142.9637   77.9582  217.2548 H   0  0  0  0  0  0  0  0  0  0  0  0
  141.1682   77.8192  217.3870 H   0  0  0  0  0  0  0  0  0  0  0  0
  143.1487   78.1982  219.7065 H   0  0  0  0  0  0  0  0  0  0  0  0
  142.0020   79.4080  219.1177 H   0  0  0  0  0  0  0  0  0  0  0  0
  140.1081   77.6146  219.5442 H   0  0  0  0  0  0  0  0  0  0  0  0
  138.6854   78.0694  221.2191 H   0  0  0  0  0  0  0  0  0  0  0  0
  138.2229   79.4348  223.2609 H   0  0  0  0  0  0  0  0  0  0  0  0
  140.0923   80.5722  224.4235 H   0  0  0  0  0  0  0  0  0  0  0  0
  142.8971   78.9940  221.5143 H   0  0  0  0  0  0  0  0  0  0  0  0
  139.2354   69.8488  222.5807 H   0  0  0  0  0  0  0  0  0  0  0  0
  138.7962   68.5154  224.6515 H   0  0  0  0  0  0  0  0  0  0  0  0
  139.0472   68.3159  227.1170 H   0  0  0  0  0  0  0  0  0  0  0  0
  139.9023   69.2781  229.2554 H   0  0  0  0  0  0  0  0  0  0  0  0
  141.1106   71.4445  229.2507 H   0  0  0  0  0  0  0  0  0  0  0  0
  141.4900   72.6856  227.1247 H   0  0  0  0  0  0  0  0  0  0  0  0
  1  2  2  0
  2  3  1  0
  3  4  1  0
  4  5  1  0
  5  6  2  0
  5  7  1  0
  7  8  1  0
  8  9  1  0
  9 10  1  0
 10 11  1  0
 11 12  1  0
 12 13  1  0
 13 14  2  0
 14 15  1  0
 15 16  2  0
 16 17  1  0
 17 18  1  0
 17 19  2  0
  2 20  1  0
 20 21  2  0
 21 22  1  0
 22 23  2  0
 23 24  1  0
 24 25  2  0
 25 26  1  0
 26 27  2  0
 27 28  1  0
 28 29  2  0
 12  7  1  0
 19 13  1  0
 29 20  1  0
 28 23  1  0
  3 30  1  0
  4 31  1  0
  4 32  1  0
  8 33  1  0
  8 34  1  0
  9 35  1  0
  9 36  1  0
 10 37  1  0
 10 38  1  0
 11 39  1  0
 11 40  1  0
 12 41  1  6
 14 42  1  0
 15 43  1  0
 16 44  1  0
 19 45  1  0
 21 46  1  0
 22 47  1  0
 24 48  1  0
 25 49  1  0
 26 50  1  0
 27 51  1  0
M  END
>  <smiles>  (12) 
O=C(NCC(=O)N1CCCCC1c1cccc(Cl)c1)c1ccc2ccccc2n1

>  <score_type>  (12) 
oracle

>  <origin>  (12) 
autodockgpu

>  <m_score__min__energy>  (12) 
-9.4100000000000001

>  <m_primary>  (12) 
energy

>  <rmsd>  (12) 
2.0765216747630446

>  <m_score__min__rmsd>  (12) 
2.0765216747630446

>  <meeko>  (12) 
{"free_energy": -9.37, "intermolecular_energy": -10.86, "internal_energy": -1.51, "cluster_size": 19, "cluster_id": 1, "rank_in_cluster": 8}

>  <energy>  (12) 
-9.33

>  <cluster_rmsd>  (12) 
0.06

>  <cluster>  (12) 
1

$$$$

     RDKit          3D

 51 54  0  0  0  0  0  0  0  0999 V2000
  139.3650   71.6290  220.8480 O   0  0  0  0  0  0  0  0  0  0  0  0
  140.0380   72.0250  221.8380 C   0  0  0  0  0  0  0  0  0  0  0  0
  140.9370   73.1120  221.6910 N   0  0  0  0  0  0  0  0  0  0  0  0
  141.0970   73.7750  220.4290 C   0  0  0  0  0  0  0  0  0  0  0  0
  142.3200   74.6020  220.3570 C   0  0  0  0  0  0  0  0  0  0  0  0
  143.2630   74.4670  221.2090 O   0  0  0  0  0  0  0  0  0  0  0  0
  142.4070   75.5550  219.3040 N   0  0  0  0  0  0  0  0  0  0  0  0
  143.3620   75.4400  218.2180 C   0  0  0  0  0  0  0  0  0  0  0  0
  142.6690   75.8080  216.9060 C   0  0  0  0  0  0  0  0  0  0  0  0
  142.0640   77.1770  216.9680 C   0  0  0  0  0  0  0  0  0  0  0  0
  142.1550   77.7470  218.3890 C   0  0  0  0  0  0  0  0  0  0  0  0
  141.5120   76.6920  219.2960 C   0  0  2  0  0  0  0  0  0  0  0  0
  141.2660   77.2560  220.6440 C   0  0  0  0  0  0  0  0  0  0  0  0
  140.2440   76.7290  221.4080 C   0  0  0  0  0  0  0  0  0  0  0  0
  140.0090   77.2540  222.6710 C   0  0  0  0  0  0  0  0  0  0  0  0
  140.7960   78.2850  223.1360 C   0  0  0  0  0  0  0  0  0  0  0  0
  141.8230   78.8030  222.3460 C   0  0  0  0  0  0  0  0  0  0  0  0
  142.8250   80.1060  222.9200 Cl  0  0  0  0  0  0  0  0  0  0  0  0
  142.0750   78.2880  221.0730 C   0  0  0  0  0  0  0  0  0  0  0  0
  139.9120   71.3790  223.1540 C   0  0  0  0  0  0  0  0  0  0  0  0
  139.1330   70.2520  223.3070 C   0  0  0  0  0  0  0  0  0  0  0  0
  139.0070   69.6320  224.5550 C   0  0  0  0  0  0  0  0  0  0  0  0
  139.6870   70.1770  225.6450 C   0  0  0  0  0  0  0  0  0  0  0  0
  139.6120   69.6220  226.9070 C   0  0  0  0  0  0  0  0  0  0  0  0
  140.3140   70.2100  227.9540 C   0  0  0  0  0  0  0  0  0  0  0  0
  141.0830   71.3490  227.7250 C   0  0  0  0  0  0  0  0  0  0  0  0
  141.1680   71.9150  226.4720 C   0  0  0  0  0  0  0  0  0  0  0  0
  140.4570   71.3050  225.4490 C   0  0  0  0  0  0  0  0  0  0  0  0
  140.5620   71.8870  224.2310 N   0  0  0  0  0  0  0  0  0  0  0  0
  141.4790   73.4100  222.5410 H   0  0  0  0  0  0  0  0  0  0  0  0
  141.1430   73.0130  219.6370 H   0  0  0  0  0  0  0  0  0  0  0  0
  140.2378   74.4502  220.3031 H   0  0  0  0  0  0  0  0  0  0  0  0
  144.2053   76.1239  218.3943 H   0  0  0  0  0  0  0  0  0  0  0  0
  143.7399   74.4084  218.1626 H   0  0  0  0  0  0  0  0  0  0  0  0
  143.4082   75.7807  216.0918 H   0  0  0  0  0  0  0  0  0  0  0  0
  141.8617   75.0824  216.7276 H   0  0  0  0  0  0  0  0  0  0  0  0
  142.6035   77.8417  216.2773 H   0  0  0  0  0  0  0  0  0  0  0  0
  141.0040   77.1081  216.6822 H   0  0  0  0  0  0  0  0  0  0  0  0
  143.2057   77.9082  218.6719 H   0  0  0  0  0  0  0  0  0  0  0  0
  141.6478   78.7196  218.4716 H   0  0  0  0  0  0  0  0  0  0  0  0
  140.5254   76.3716  218.9300 H   0  0  0  0  0  0  0  0  0  0  0  0
  139.6254   75.9056  221.0216 H   0  0  0  0  0  0  0  0  0  0  0  0
  139.1997   76.8497  223.2968 H   0  0  0  0  0  0  0  0  0  0  0  0
  140.6134   78.7027  224.1371 H   0  0  0  0  0  0  0  0  0  0  0  0
  142.8819   78.6869  220.4408 H   0  0  0  0  0  0  0  0  0  0  0  0
  138.6040   69.8350  222.4374 H   0  0  0  0  0  0  0  0  0  0  0  0
  138.3845   68.7330  224.6745 H   0  0  0  0  0  0  0  0  0  0  0  0
  139.0027   68.7232  227.0828 H   0  0  0  0  0  0  0  0  0  0  0  0
  140.2620   69.7755  228.9632 H   0  0  0  0  0  0  0  0  0  0  0  0
  141.6331   71.8053  228.5612 H   0  0  0  0  0  0  0  0  0  0  0  0
  141.7750   72.8141  226.2901 H   0  0  0  0  0  0  0  0  0  0  0  0
  1  2  2  0
  2  3  1  0
  3  4  1  0
  4  5  1  0
  5  6  2  0
  5  7  1  0
  7  8  1  0
  8  9  1  0
  9 10  1  0
 10 11  1  0
 11 12  1  0
 12 13  1  0
 13 14  2  0
 14 15  1  0
 15 16  2  0
 16 17  1  0
 17 18  1  0
 17 19  2  0
  2 20  1  0
 20 21  2  0
 21 22  1  0
 22 23  2  0
 23 24  1  0
 24 25  2  0
 25 26  1  0
 26 27  2  0
 27 28  1  0
 28 29  2  0
 12  7  1  0
 19 13  1  0
 29 20  1  0
 28 23  1  0
  3 30  1  0
  4 31  1  0
  4 32  1  0
  8 33  1  0
  8 34  1  0
  9 35  1  0
  9 36  1  0
 10 37  1  0
 10 38  1  0
 11 39  1  0
 11 40  1  0
 12 41  1  6
 14 42  1  0
 15 43  1  0
 16 44  1  0
 19 45  1  0
 21 46  1  0
 22 47  1  0
 24 48  1  0
 25 49  1  0
 26 50  1  0
 27 51  1  0
M  END
>  <smiles>  (13) 
O=C(NCC(=O)N1CCCCC1c1cccc(Cl)c1)c1ccc2ccccc2n1

>  <score_type>  (13) 
oracle

>  <origin>  (13) 
autodockgpu

>  <m_score__min__energy>  (13) 
-9.4100000000000001

>  <m_primary>  (13) 
energy

>  <rmsd>  (13) 
2.321265057291892

>  <m_score__min__rmsd>  (13) 
2.321265057291892

>  <meeko>  (13) 
{"free_energy": -7.72, "intermolecular_energy": -9.21, "internal_energy": -2.05, "cluster_size": 19, "cluster_id": 1, "rank_in_cluster": 19}

>  <energy>  (13) 
-9.32

>  <cluster_rmsd>  (13) 
0.24

>  <cluster>  (13) 
1

$$$$

     RDKit          3D

 51 54  0  0  0  0  0  0  0  0999 V2000
  140.7250   71.3940  221.2010 O   0  0  0  0  0  0  0  0  0  0  0  0
  140.3990   72.0160  222.2490 C   0  0  0  0  0  0  0  0  0  0  0  0
  140.1790   73.4160  222.2000 N   0  0  0  0  0  0  0  0  0  0  0  0
  140.3210   74.1450  220.9730 C   0  0  0  0  0  0  0  0  0  0  0  0
  140.9290   75.4790  221.1560 C   0  0  0  0  0  0  0  0  0  0  0  0
  141.0850   75.9820  222.3200 O   0  0  0  0  0  0  0  0  0  0  0  0
  141.3340   76.1820  219.9870 N   0  0  0  0  0  0  0  0  0  0  0  0
  140.4110   76.9510  219.1740 C   0  0  0  0  0  0  0  0  0  0  0  0
  141.0840   78.2610  218.7630 C   0  0  0  0  0  0  0  0  0  0  0  0
  142.3770   78.0150  218.0500 C   0  0  0  0  0  0  0  0  0  0  0  0
  142.7470   76.5280  218.0930 C   0  0  0  0  0  0  0  0  0  0  0  0
  142.7210   76.1410  219.5750 C   0  0  2  0  0  0  0  0  0  0  0  0
  143.3540   74.8160  219.7710 C   0  0  0  0  0  0  0  0  0  0  0  0
  142.7830   73.7120  219.1700 C   0  0  0  0  0  0  0  0  0  0  0  0
  143.3710   72.4680  219.3510 C   0  0  0  0  0  0  0  0  0  0  0  0
  144.5080   72.3590  220.1210 C   0  0  0  0  0  0  0  0  0  0  0  0
  145.0680   73.4890  220.7190 C   0  0  0  0  0  0  0  0  0  0  0  0
  146.5050   73.3670  221.6950 Cl  0  0  0  0  0  0  0  0  0  0  0  0
  144.4910   74.7490  220.5490 C   0  0  0  0  0  0  0  0  0  0  0  0
  140.2400   71.3150  223.5340 C   0  0  0  0  0  0  0  0  0  0  0  0
  139.6210   70.0840  223.5860 C   0  0  0  0  0  0  0  0  0  0  0  0
  139.4670   69.4110  224.8030 C   0  0  0  0  0  0  0  0  0  0  0  0
  139.9510   70.0110  225.9660 C   0  0  0  0  0  0  0  0  0  0  0  0
  139.8350   69.4090  227.2030 C   0  0  0  0  0  0  0  0  0  0  0  0
  140.3380   70.0560  228.3270 C   0  0  0  0  0  0  0  0  0  0  0  0
  140.9520   71.3000  228.1980 C   0  0  0  0  0  0  0  0  0  0  0  0
  141.0760   71.9140  226.9710 C   0  0  0  0  0  0  0  0  0  0  0  0
  140.5640   71.2430  225.8710 C   0  0  0  0  0  0  0  0  0  0  0  0
  140.7010   71.8740  224.6800 N   0  0  0  0  0  0  0  0  0  0  0  0
  139.9090   73.8950  223.0960 H   0  0  0  0  0  0  0  0  0  0  0  0
  140.9570   73.5614  220.2911 H   0  0  0  0  0  0  0  0  0  0  0  0
  139.3110   74.2991  220.5654 H   0  0  0  0  0  0  0  0  0  0  0  0
  140.1434   76.3758  218.2754 H   0  0  0  0  0  0  0  0  0  0  0  0
  139.4984   77.1660  219.7493 H   0  0  0  0  0  0  0  0  0  0  0  0
  140.4081   78.8158  218.0957 H   0  0  0  0  0  0  0  0  0  0  0  0
  141.2976   78.8392  219.6741 H   0  0  0  0  0  0  0  0  0  0  0  0
  142.2767   78.3316  217.0014 H   0  0  0  0  0  0  0  0  0  0  0  0
  143.1704   78.5907  218.5491 H   0  0  0  0  0  0  0  0  0  0  0  0
  142.0143   75.9333  217.5277 H   0  0  0  0  0  0  0  0  0  0  0  0
  143.7315   76.3397  217.6399 H   0  0  0  0  0  0  0  0  0  0  0  0
  143.3030   76.8357  220.1984 H   0  0  0  0  0  0  0  0  0  0  0  0
  141.8757   73.8168  218.5569 H   0  0  0  0  0  0  0  0  0  0  0  0
  142.9319   71.5748  218.8826 H   0  0  0  0  0  0  0  0  0  0  0  0
  144.9777   71.3749  220.2656 H   0  0  0  0  0  0  0  0  0  0  0  0
  144.9234   75.6471  221.0142 H   0  0  0  0  0  0  0  0  0  0  0  0
  139.2438   69.6257  222.6599 H   0  0  0  0  0  0  0  0  0  0  0  0
  138.9741   68.4284  224.8421 H   0  0  0  0  0  0  0  0  0  0  0  0
  139.3493   68.4267  227.2989 H   0  0  0  0  0  0  0  0  0  0  0  0
  140.2510   69.5856  229.3175 H   0  0  0  0  0  0  0  0  0  0  0  0
  141.3457   71.8021  229.0940 H   0  0  0  0  0  0  0  0  0  0  0  0
  141.5611   72.8959  226.8682 H   0  0  0  0  0  0  0  0  0  0  0  0
  1  2  2  0
  2  3  1  0
  3  4  1  0
  4  5  1  0
  5  6  2  0
  5  7  1  0
  7  8  1  0
  8  9  1  0
  9 10  1  0
 10 11  1  0
 11 12  1  0
 12 13  1  0
 13 14  2  0
 14 15  1  0
 15 16  2  0
 16 17  1  0
 17 18  1  0
 17 19  2  0
  2 20  1  0
 20 21  2  0
 21 22  1  0
 22 23  2  0
 23 24  1  0
 24 25  2  0
 25 26  1  0
 26 27  2  0
 27 28  1  0
 28 29  2  0
 12  7  1  0
 19 13  1  0
 29 20  1  0
 28 23  1  0
  3 30  1  0
  4 31  1  0
  4 32  1  0
  8 33  1  0
  8 34  1  0
  9 35  1  0
  9 36  1  0
 10 37  1  0
 10 38  1  0
 11 39  1  0
 11 40  1  0
 12 41  1  1
 14 42  1  0
 15 43  1  0
 16 44  1  0
 19 45  1  0
 21 46  1  0
 22 47  1  0
 24 48  1  0
 25 49  1  0
 26 50  1  0
 27 51  1  0
M  END
>  <smiles>  (14) 
O=C(NCC(=O)N1CCCCC1c1cccc(Cl)c1)c1ccc2ccccc2n1

>  <score_type>  (14) 
oracle

>  <origin>  (14) 
autodockgpu

>  <m_score__min__energy>  (14) 
-9.4100000000000001

>  <m_primary>  (14) 
energy

>  <rmsd>  (14) 
1.9329645817910643

>  <m_score__min__rmsd>  (14) 
1.9329645817910643

>  <meeko>  (14) 
{"free_energy": -8.9, "intermolecular_energy": -10.39, "internal_energy": -1.98, "cluster_size": 23, "cluster_id": 2, "rank_in_cluster": 16}

>  <energy>  (14) 
-9.29

>  <cluster_rmsd>  (14) 
0.31

>  <cluster>  (14) 
1

$$$$

     RDKit          3D

 51 54  0  0  0  0  0  0  0  0999 V2000
  141.1380   71.7000  221.4180 O   0  0  0  0  0  0  0  0  0  0  0  0
  140.5230   72.2050  222.3970 C   0  0  0  0  0  0  0  0  0  0  0  0
  140.0650   73.5460  222.3260 N   0  0  0  0  0  0  0  0  0  0  0  0
  140.2900   74.3450  221.1570 C   0  0  0  0  0  0  0  0  0  0  0  0
  140.9130   75.6510  221.4560 C   0  0  0  0  0  0  0  0  0  0  0  0
  140.9150   76.1290  222.6410 O   0  0  0  0  0  0  0  0  0  0  0  0
  141.5090   76.3570  220.3740 N   0  0  0  0  0  0  0  0  0  0  0  0
  142.5410   75.7790  219.5330 C   0  0  0  0  0  0  0  0  0  0  0  0
  142.2610   76.1530  218.0760 C   0  0  0  0  0  0  0  0  0  0  0  0
  142.1680   77.6360  217.8970 C   0  0  0  0  0  0  0  0  0  0  0  0
  142.1990   78.3510  219.2540 C   0  0  0  0  0  0  0  0  0  0  0  0
  141.0810   77.7080  220.0820 C   0  0  2  0  0  0  0  0  0  0  0  0
  140.8130   78.5150  221.2950 C   0  0  0  0  0  0  0  0  0  0  0  0
  139.5150   78.6070  221.7570 C   0  0  0  0  0  0  0  0  0  0  0  0
  139.2570   79.3630  222.8920 C   0  0  0  0  0  0  0  0  0  0  0  0
  140.2960   80.0020  223.5340 C   0  0  0  0  0  0  0  0  0  0  0  0
  141.6000   79.8950  223.0490 C   0  0  0  0  0  0  0  0  0  0  0  0
  142.9230   80.6970  223.8480 Cl  0  0  0  0  0  0  0  0  0  0  0  0
  141.8790   79.1400  221.9070 C   0  0  0  0  0  0  0  0  0  0  0  0
  140.2660   71.4290  223.6200 C   0  0  0  0  0  0  0  0  0  0  0  0
  139.5950   70.2260  223.5560 C   0  0  0  0  0  0  0  0  0  0  0  0
  139.3470   69.4820  224.7140 C   0  0  0  0  0  0  0  0  0  0  0  0
  139.7920   69.9800  225.9390 C   0  0  0  0  0  0  0  0  0  0  0  0
  139.5850   69.3030  227.1240 C   0  0  0  0  0  0  0  0  0  0  0  0
  140.0530   69.8510  228.3140 C   0  0  0  0  0  0  0  0  0  0  0  0
  140.7240   71.0710  228.3030 C   0  0  0  0  0  0  0  0  0  0  0  0
  140.9400   71.7600  227.1290 C   0  0  0  0  0  0  0  0  0  0  0  0
  140.4600   71.1870  225.9600 C   0  0  0  0  0  0  0  0  0  0  0  0
  140.6870   71.8890  224.8240 N   0  0  0  0  0  0  0  0  0  0  0  0
  139.5570   73.9280  223.1640 H   0  0  0  0  0  0  0  0  0  0  0  0
  140.9517   73.7897  220.4760 H   0  0  0  0  0  0  0  0  0  0  0  0
  139.3077   74.5471  220.7050 H   0  0  0  0  0  0  0  0  0  0  0  0
  143.5240   76.1715  219.8325 H   0  0  0  0  0  0  0  0  0  0  0  0
  142.5415   74.6845  219.6431 H   0  0  0  0  0  0  0  0  0  0  0  0
  143.0757   75.7675  217.4454 H   0  0  0  0  0  0  0  0  0  0  0  0
  141.2970   75.7099  217.7858 H   0  0  0  0  0  0  0  0  0  0  0  0
  143.0175   77.9799  217.2886 H   0  0  0  0  0  0  0  0  0  0  0  0
  141.2178   77.8719  217.3955 H   0  0  0  0  0  0  0  0  0  0  0  0
  143.1730   78.2041  219.7437 H   0  0  0  0  0  0  0  0  0  0  0  0
  142.0544   79.4362  219.1466 H   0  0  0  0  0  0  0  0  0  0  0  0
  140.1254   77.6734  219.5383 H   0  0  0  0  0  0  0  0  0  0  0  0
  138.6979   78.0890  221.2335 H   0  0  0  0  0  0  0  0  0  0  0  0
  138.2303   79.4516  223.2766 H   0  0  0  0  0  0  0  0  0  0  0  0
  140.0958   80.6005  224.4350 H   0  0  0  0  0  0  0  0  0  0  0  0
  142.9023   79.0483  221.5140 H   0  0  0  0  0  0  0  0  0  0  0  0
  139.2507   69.8470  222.5825 H   0  0  0  0  0  0  0  0  0  0  0  0
  138.8114   68.5227  224.6600 H   0  0  0  0  0  0  0  0  0  0  0  0
  139.0549   68.3391  227.1274 H   0  0  0  0  0  0  0  0  0  0  0  0
  139.8929   69.3202  229.2641 H   0  0  0  0  0  0  0  0  0  0  0  0
  141.0892   71.4936  229.2507 H   0  0  0  0  0  0  0  0  0  0  0  0
  141.4706   72.7235  227.1192 H   0  0  0  0  0  0  0  0  0  0  0  0
  1  2  2  0
  2  3  1  0
  3  4  1  0
  4  5  1  0
  5  6  2  0
  5  7  1  0
  7  8  1  0
  8  9  1  0
  9 10  1  0
 10 11  1  0
 11 12  1  0
 12 13  1  0
 13 14  2  0
 14 15  1  0
 15 16  2  0
 16 17  1  0
 17 18  1  0
 17 19  2  0
  2 20  1  0
 20 21  2  0
 21 22  1  0
 22 23  2  0
 23 24  1  0
 24 25  2  0
 25 26  1  0
 26 27  2  0
 27 28  1  0
 28 29  2  0
 12  7  1  0
 19 13  1  0
 29 20  1  0
 28 23  1  0
  3 30  1  0
  4 31  1  0
  4 32  1  0
  8 33  1  0
  8 34  1  0
  9 35  1  0
  9 36  1  0
 10 37  1  0
 10 38  1  0
 11 39  1  0
 11 40  1  0
 12 41  1  6
 14 42  1  0
 15 43  1  0
 16 44  1  0
 19 45  1  0
 21 46  1  0
 22 47  1  0
 24 48  1  0
 25 49  1  0
 26 50  1  0
 27 51  1  0
M  END
>  <smiles>  (15) 
O=C(NCC(=O)N1CCCCC1c1cccc(Cl)c1)c1ccc2ccccc2n1

>  <score_type>  (15) 
oracle

>  <origin>  (15) 
autodockgpu

>  <m_score__min__energy>  (15) 
-9.4100000000000001

>  <m_primary>  (15) 
energy

>  <rmsd>  (15) 
2.089406874497257

>  <m_score__min__rmsd>  (15) 
2.089406874497257

>  <meeko>  (15) 
{"free_energy": -9.4, "intermolecular_energy": -10.9, "internal_energy": -1.49, "cluster_size": 19, "cluster_id": 1, "rank_in_cluster": 3}

>  <energy>  (15) 
-9.29

>  <cluster_rmsd>  (15) 
0.1

>  <cluster>  (15) 
1

$$$$

     RDKit          3D

 51 54  0  0  0  0  0  0  0  0999 V2000
  141.3250   71.9480  221.5890 O   0  0  0  0  0  0  0  0  0  0  0  0
  140.5100   72.3140  222.4790 C   0  0  0  0  0  0  0  0  0  0  0  0
  139.8140   73.5410  222.3370 N   0  0  0  0  0  0  0  0  0  0  0  0
  140.0200   74.3810  221.1930 C   0  0  0  0  0  0  0  0  0  0  0  0
  140.7840   75.6080  221.5030 C   0  0  0  0  0  0  0  0  0  0  0  0
  140.8410   76.0710  222.6920 O   0  0  0  0  0  0  0  0  0  0  0  0
  141.4530   76.2540  220.4260 N   0  0  0  0  0  0  0  0  0  0  0  0
  142.4930   75.6080  219.6470 C   0  0  0  0  0  0  0  0  0  0  0  0
  142.2890   75.9450  218.1690 C   0  0  0  0  0  0  0  0  0  0  0  0
  142.2650   77.4250  217.9410 C   0  0  0  0  0  0  0  0  0  0  0  0
  142.2720   78.1810  219.2760 C   0  0  0  0  0  0  0  0  0  0  0  0
  141.0950   77.6110  220.0750 C   0  0  2  0  0  0  0  0  0  0  0  0
  140.8120   78.4670  221.2510 C   0  0  0  0  0  0  0  0  0  0  0  0
  139.4990   78.6470  221.6400 C   0  0  0  0  0  0  0  0  0  0  0  0
  139.2290   79.4490  222.7400 C   0  0  0  0  0  0  0  0  0  0  0  0
  140.2680   80.0450  223.4200 C   0  0  0  0  0  0  0  0  0  0  0  0
  141.5870   79.8490  223.0090 C   0  0  0  0  0  0  0  0  0  0  0  0
  142.9120   80.5950  223.8580 Cl  0  0  0  0  0  0  0  0  0  0  0  0
  141.8800   79.0460  221.9040 C   0  0  0  0  0  0  0  0  0  0  0  0
  140.2620   71.4890  223.6720 C   0  0  0  0  0  0  0  0  0  0  0  0
  139.5850   70.2920  223.5660 C   0  0  0  0  0  0  0  0  0  0  0  0
  139.3450   69.5020  224.6950 C   0  0  0  0  0  0  0  0  0  0  0  0
  139.8050   69.9480  225.9350 C   0  0  0  0  0  0  0  0  0  0  0  0
  139.6070   69.2230  227.0930 C   0  0  0  0  0  0  0  0  0  0  0  0
  140.0900   69.7200  228.2990 C   0  0  0  0  0  0  0  0  0  0  0  0
  140.7660   70.9370  228.3310 C   0  0  0  0  0  0  0  0  0  0  0  0
  140.9730   71.6720  227.1850 C   0  0  0  0  0  0  0  0  0  0  0  0
  140.4790   71.1500  225.9980 C   0  0  0  0  0  0  0  0  0  0  0  0
  140.6980   71.8970  224.8900 N   0  0  0  0  0  0  0  0  0  0  0  0
  139.1450   73.8080  223.1020 H   0  0  0  0  0  0  0  0  0  0  0  0
  140.5716   73.8081  220.4331 H   0  0  0  0  0  0  0  0  0  0  0  0
  139.0286   74.6945  220.8341 H   0  0  0  0  0  0  0  0  0  0  0  0
  143.4785   75.9699  219.9753 H   0  0  0  0  0  0  0  0  0  0  0  0
  142.4428   74.5186  219.7905 H   0  0  0  0  0  0  0  0  0  0  0  0
  143.1123   75.5069  217.5857 H   0  0  0  0  0  0  0  0  0  0  0  0
  141.3204   75.5315  217.8516 H   0  0  0  0  0  0  0  0  0  0  0  0
  143.1515   77.7146  217.3577 H   0  0  0  0  0  0  0  0  0  0  0  0
  141.3462   77.6831  217.3939 H   0  0  0  0  0  0  0  0  0  0  0  0
  143.2182   78.0095  219.8100 H   0  0  0  0  0  0  0  0  0  0  0  0
  142.1787   79.2673  219.1305 H   0  0  0  0  0  0  0  0  0  0  0  0
  140.1621   77.5979  219.4924 H   0  0  0  0  0  0  0  0  0  0  0  0
  138.6807   78.1626  221.0870 H   0  0  0  0  0  0  0  0  0  0  0  0
  138.1908   79.6078  223.0670 H   0  0  0  0  0  0  0  0  0  0  0  0
  140.0565   80.6799  224.2931 H   0  0  0  0  0  0  0  0  0  0  0  0
  142.9153   78.8829  221.5700 H   0  0  0  0  0  0  0  0  0  0  0  0
  139.2294   69.9544  222.5813 H   0  0  0  0  0  0  0  0  0  0  0  0
  138.8044   68.5480  224.6074 H   0  0  0  0  0  0  0  0  0  0  0  0
  139.0727   68.2620  227.0623 H   0  0  0  0  0  0  0  0  0  0  0  0
  139.9378   69.1513  229.2282 H   0  0  0  0  0  0  0  0  0  0  0  0
  141.1424   71.3191  229.2914 H   0  0  0  0  0  0  0  0  0  0  0  0
  141.5077   72.6330  227.2095 H   0  0  0  0  0  0  0  0  0  0  0  0
  1  2  2  0
  2  3  1  0
  3  4  1  0
  4  5  1  0
  5  6  2  0
  5  7  1  0
  7  8  1  0
  8  9  1  0
  9 10  1  0
 10 11  1  0
 11 12  1  0
 12 13  1  0
 13 14  2  0
 14 15  1  0
 15 16  2  0
 16 17  1  0
 17 18  1  0
 17 19  2  0
  2 20  1  0
 20 21  2  0
 21 22  1  0
 22 23  2  0
 23 24  1  0
 24 25  2  0
 25 26  1  0
 26 27  2  0
 27 28  1  0
 28 29  2  0
 12  7  1  0
 19 13  1  0
 29 20  1  0
 28 23  1  0
  3 30  1  0
  4 31  1  0
  4 32  1  0
  8 33  1  0
  8 34  1  0
  9 35  1  0
  9 36  1  0
 10 37  1  0
 10 38  1  0
 11 39  1  0
 11 40  1  0
 12 41  1  6
 14 42  1  0
 15 43  1  0
 16 44  1  0
 19 45  1  0
 21 46  1  0
 22 47  1  0
 24 48  1  0
 25 49  1  0
 26 50  1  0
 27 51  1  0
M  END
>  <smiles>  (16) 
O=C(NCC(=O)N1CCCCC1c1cccc(Cl)c1)c1ccc2ccccc2n1

>  <score_type>  (16) 
oracle

>  <origin>  (16) 
autodockgpu

>  <m_score__min__energy>  (16) 
-9.4100000000000001

>  <m_primary>  (16) 
energy

>  <rmsd>  (16) 
2.0451619621347596

>  <m_score__min__rmsd>  (16) 
2.0451619621347596

>  <meeko>  (16) 
{"free_energy": -9.39, "intermolecular_energy": -10.88, "internal_energy": -1.45, "cluster_size": 19, "cluster_id": 1, "rank_in_cluster": 5}

>  <energy>  (16) 
-9.15

>  <cluster_rmsd>  (16) 
0.77

>  <cluster>  (16) 
1

$$$$

     RDKit          3D

 51 54  0  0  0  0  0  0  0  0999 V2000
  140.1110   71.1310  221.3360 O   0  0  0  0  0  0  0  0  0  0  0  0
  139.9400   71.6620  222.4670 C   0  0  0  0  0  0  0  0  0  0  0  0
  139.7500   73.0640  222.5670 N   0  0  0  0  0  0  0  0  0  0  0  0
  139.7510   73.8960  221.3990 C   0  0  0  0  0  0  0  0  0  0  0  0
  140.4170   75.1980  221.6120 C   0  0  0  0  0  0  0  0  0  0  0  0
  140.0690   75.9720  222.5680 O   0  0  0  0  0  0  0  0  0  0  0  0
  141.4600   75.5570  220.7130 N   0  0  0  0  0  0  0  0  0  0  0  0
  142.5720   74.6770  220.4090 C   0  0  0  0  0  0  0  0  0  0  0  0
  142.8600   74.7410  218.9080 C   0  0  0  0  0  0  0  0  0  0  0  0
  143.1270   76.1450  218.4590 C   0  0  0  0  0  0  0  0  0  0  0  0
  142.8570   77.1390  219.5950 C   0  0  0  0  0  0  0  0  0  0  0  0
  141.4270   76.8500  220.0630 C   0  0  2  0  0  0  0  0  0  0  0  0
  140.9450   77.9390  220.9450 C   0  0  0  0  0  0  0  0  0  0  0  0
  139.6090   78.2830  220.9050 C   0  0  0  0  0  0  0  0  0  0  0  0
  139.1520   79.3030  221.7280 C   0  0  0  0  0  0  0  0  0  0  0  0
  140.0370   79.9490  222.5640 C   0  0  0  0  0  0  0  0  0  0  0  0
  141.3830   79.5850  222.5870 C   0  0  0  0  0  0  0  0  0  0  0  0
  142.5130   80.3920  223.6390 Cl  0  0  0  0  0  0  0  0  0  0  0  0
  141.8620   78.5610  221.7670 C   0  0  0  0  0  0  0  0  0  0  0  0
  139.9310   70.8540  223.6970 C   0  0  0  0  0  0  0  0  0  0  0  0
  139.4590   69.5580  223.6770 C   0  0  0  0  0  0  0  0  0  0  0  0
  139.4470   68.7830  224.8420 C   0  0  0  0  0  0  0  0  0  0  0  0
  139.9230   69.3460  226.0270 C   0  0  0  0  0  0  0  0  0  0  0  0
  139.9430   68.6430  227.2150 C   0  0  0  0  0  0  0  0  0  0  0  0
  140.4300   69.2590  228.3630 C   0  0  0  0  0  0  0  0  0  0  0  0
  140.8920   70.5720  228.3080 C   0  0  0  0  0  0  0  0  0  0  0  0
  140.8790   71.2870  227.1300 C   0  0  0  0  0  0  0  0  0  0  0  0
  140.3870   70.6450  226.0030 C   0  0  0  0  0  0  0  0  0  0  0  0
  140.3870   71.3750  224.8620 N   0  0  0  0  0  0  0  0  0  0  0  0
  139.6110   73.4660  223.5280 H   0  0  0  0  0  0  0  0  0  0  0  0
  140.2744   73.3637  220.5911 H   0  0  0  0  0  0  0  0  0  0  0  0
  138.7011   74.1037  221.1448 H   0  0  0  0  0  0  0  0  0  0  0  0
  143.4618   74.9995  220.9696 H   0  0  0  0  0  0  0  0  0  0  0  0
  142.3196   73.6455  220.6959 H   0  0  0  0  0  0  0  0  0  0  0  0
  143.7414   74.1213  218.6865 H   0  0  0  0  0  0  0  0  0  0  0  0
  141.9748   74.3696  218.3709 H   0  0  0  0  0  0  0  0  0  0  0  0
  144.1784   76.2304  218.1470 H   0  0  0  0  0  0  0  0  0  0  0  0
  142.4584   76.3800  217.6177 H   0  0  0  0  0  0  0  0  0  0  0  0
  143.5695   76.9838  220.4186 H   0  0  0  0  0  0  0  0  0  0  0  0
  142.9737   78.1806  219.2612 H   0  0  0  0  0  0  0  0  0  0  0  0
  140.7130   76.8158  219.2269 H   0  0  0  0  0  0  0  0  0  0  0  0
  138.9169   77.7568  220.2311 H   0  0  0  0  0  0  0  0  0  0  0  0
  138.0912   79.5936  221.7131 H   0  0  0  0  0  0  0  0  0  0  0  0
  139.6790   80.7578  223.2180 H   0  0  0  0  0  0  0  0  0  0  0  0
  142.9212   78.2642  221.7761 H   0  0  0  0  0  0  0  0  0  0  0  0
  139.0878   69.1289  222.7346 H   0  0  0  0  0  0  0  0  0  0  0  0
  139.0697   67.7499  224.8242 H   0  0  0  0  0  0  0  0  0  0  0  0
  139.5775   67.6062  227.2533 H   0  0  0  0  0  0  0  0  0  0  0  0
  140.4503   68.7088  229.3153 H   0  0  0  0  0  0  0  0  0  0  0  0
  141.2748   71.0475  229.2230 H   0  0  0  0  0  0  0  0  0  0  0  0
  141.2436   72.3238  227.0852 H   0  0  0  0  0  0  0  0  0  0  0  0
  1  2  2  0
  2  3  1  0
  3  4  1  0
  4  5  1  0
  5  6  2  0
  5  7  1  0
  7  8  1  0
  8  9  1  0
  9 10  1  0
 10 11  1  0
 11 12  1  0
 12 13  1  0
 13 14  2  0
 14 15  1  0
 15 16  2  0
 16 17  1  0
 17 18  1  0
 17 19  2  0
  2 20  1  0
 20 21  2  0
 21 22  1  0
 22 23  2  0
 23 24  1  0
 24 25  2  0
 25 26  1  0
 26 27  2  0
 27 28  1  0
 28 29  2  0
 12  7  1  0
 19 13  1  0
 29 20  1  0
 28 23  1  0
  3 30  1  0
  4 31  1  0
  4 32  1  0
  8 33  1  0
  8 34  1  0
  9 35  1  0
  9 36  1  0
 10 37  1  0
 10 38  1  0
 11 39  1  0
 11 40  1  0
 12 41  1  6
 14 42  1  0
 15 43  1  0
 16 44  1  0
 19 45  1  0
 21 46  1  0
 22 47  1  0
 24 48  1  0
 25 49  1  0
 26 50  1  0
 27 51  1  0
M  END
>  <smiles>  (17) 
O=C(NCC(=O)N1CCCCC1c1cccc(Cl)c1)c1ccc2ccccc2n1

>  <score_type>  (17) 
oracle

>  <origin>  (17) 
autodockgpu

>  <m_score__min__energy>  (17) 
-9.4100000000000001

>  <m_primary>  (17) 
energy

>  <rmsd>  (17) 
2.046145570375277

>  <m_score__min__rmsd>  (17) 
2.046145570375277

>  <meeko>  (17) 
{"free_energy": -8.95, "intermolecular_energy": -10.44, "internal_energy": -1.53, "cluster_size": 19, "cluster_id": 1, "rank_in_cluster": 17}

>  <energy>  (17) 
-8.95

>  <cluster_rmsd>  (17) 
0.8

>  <cluster>  (17) 
1

$$$$

     RDKit          3D

 51 54  0  0  0  0  0  0  0  0999 V2000
  141.1390   71.6880  221.4300 O   0  0  0  0  0  0  0  0  0  0  0  0
  140.5280   72.1940  222.4100 C   0  0  0  0  0  0  0  0  0  0  0  0
  140.0760   73.5370  222.3420 N   0  0  0  0  0  0  0  0  0  0  0  0
  140.3020   74.3360  221.1730 C   0  0  0  0  0  0  0  0  0  0  0  0
  140.9340   75.6390  221.4720 C   0  0  0  0  0  0  0  0  0  0  0  0
  140.9540   76.1090  222.6600 O   0  0  0  0  0  0  0  0  0  0  0  0
  141.5200   76.3480  220.3870 N   0  0  0  0  0  0  0  0  0  0  0  0
  142.5480   75.7760  219.5380 C   0  0  0  0  0  0  0  0  0  0  0  0
  142.2570   76.1500  218.0840 C   0  0  0  0  0  0  0  0  0  0  0  0
  142.1560   77.6340  217.9080 C   0  0  0  0  0  0  0  0  0  0  0  0
  142.1950   78.3460  219.2650 C   0  0  0  0  0  0  0  0  0  0  0  0
  141.0850   77.6980  220.1000 C   0  0  2  0  0  0  0  0  0  0  0  0
  140.8220   78.5020  221.3160 C   0  0  0  0  0  0  0  0  0  0  0  0
  139.5240   78.6090  221.7740 C   0  0  0  0  0  0  0  0  0  0  0  0
  139.2720   79.3620  222.9120 C   0  0  0  0  0  0  0  0  0  0  0  0
  140.3160   79.9840  223.5610 C   0  0  0  0  0  0  0  0  0  0  0  0
  141.6210   79.8630  223.0810 C   0  0  0  0  0  0  0  0  0  0  0  0
  142.9500   80.6430  223.8890 Cl  0  0  0  0  0  0  0  0  0  0  0  0
  141.8940   79.1090  221.9360 C   0  0  0  0  0  0  0  0  0  0  0  0
  140.2700   71.4180  223.6330 C   0  0  0  0  0  0  0  0  0  0  0  0
  139.6010   70.2140  223.5680 C   0  0  0  0  0  0  0  0  0  0  0  0
  139.3520   69.4690  224.7250 C   0  0  0  0  0  0  0  0  0  0  0  0
  139.7940   69.9680  225.9510 C   0  0  0  0  0  0  0  0  0  0  0  0
  139.5860   69.2910  227.1360 C   0  0  0  0  0  0  0  0  0  0  0  0
  140.0510   69.8400  228.3260 C   0  0  0  0  0  0  0  0  0  0  0  0
  140.7200   71.0620  228.3160 C   0  0  0  0  0  0  0  0  0  0  0  0
  140.9360   71.7500  227.1430 C   0  0  0  0  0  0  0  0  0  0  0  0
  140.4600   71.1760  225.9730 C   0  0  0  0  0  0  0  0  0  0  0  0
  140.6880   71.8780  224.8380 N   0  0  0  0  0  0  0  0  0  0  0  0
  139.5720   73.9200  223.1810 H   0  0  0  0  0  0  0  0  0  0  0  0
  140.9583   73.7776  220.4893 H   0  0  0  0  0  0  0  0  0  0  0  0
  139.3196   74.5442  220.7241 H   0  0  0  0  0  0  0  0  0  0  0  0
  143.5313   76.1724  219.8312 H   0  0  0  0  0  0  0  0  0  0  0  0
  142.5534   74.6814  219.6465 H   0  0  0  0  0  0  0  0  0  0  0  0
  143.0694   75.7692  217.4476 H   0  0  0  0  0  0  0  0  0  0  0  0
  141.2934   75.7025  217.7990 H   0  0  0  0  0  0  0  0  0  0  0  0
  142.9989   77.9826  217.2933 H   0  0  0  0  0  0  0  0  0  0  0  0
  141.2008   77.8668  217.4146 H   0  0  0  0  0  0  0  0  0  0  0  0
  143.1730   78.2011  219.7471 H   0  0  0  0  0  0  0  0  0  0  0  0
  142.0465   79.4309  219.1608 H   0  0  0  0  0  0  0  0  0  0  0  0
  140.1258   77.6610  219.5629 H   0  0  0  0  0  0  0  0  0  0  0  0
  138.7019   78.1049  221.2448 H   0  0  0  0  0  0  0  0  0  0  0  0
  138.2451   79.4617  223.2935 H   0  0  0  0  0  0  0  0  0  0  0  0
  140.1196   80.5804  224.4642 H   0  0  0  0  0  0  0  0  0  0  0  0
  142.9176   79.0045  221.5471 H   0  0  0  0  0  0  0  0  0  0  0  0
  139.2589   69.8347  222.5938 H   0  0  0  0  0  0  0  0  0  0  0  0
  138.8183   68.5087  224.6698 H   0  0  0  0  0  0  0  0  0  0  0  0
  139.0574   68.3263  227.1389 H   0  0  0  0  0  0  0  0  0  0  0  0
  139.8905   69.3091  229.2759 H   0  0  0  0  0  0  0  0  0  0  0  0
  141.0829   71.4856  229.2641 H   0  0  0  0  0  0  0  0  0  0  0  0
  141.4641   72.7149  227.1339 H   0  0  0  0  0  0  0  0  0  0  0  0
  1  2  2  0
  2  3  1  0
  3  4  1  0
  4  5  1  0
  5  6  2  0
  5  7  1  0
  7  8  1  0
  8  9  1  0
  9 10  1  0
 10 11  1  0
 11 12  1  0
 12 13  1  0
 13 14  2  0
 14 15  1  0
 15 16  2  0
 16 17  1  0
 17 18  1  0
 17 19  2  0
  2 20  1  0
 20 21  2  0
 21 22  1  0
 22 23  2  0
 23 24  1  0
 24 25  2  0
 25 26  1  0
 26 27  2  0
 27 28  1  0
 28 29  2  0
 12  7  1  0
 19 13  1  0
 29 20  1  0
 28 23  1  0
  3 30  1  0
  4 31  1  0
  4 32  1  0
  8 33  1  0
  8 34  1  0
  9 35  1  0
  9 36  1  0
 10 37  1  0
 10 38  1  0
 11 39  1  0
 11 40  1  0
 12 41  1  6
 14 42  1  0
 15 43  1  0
 16 44  1  0
 19 45  1  0
 21 46  1  0
 22 47  1  0
 24 48  1  0
 25 49  1  0
 26 50  1  0
 27 51  1  0
M  END
>  <smiles>  (18) 
O=C(NCC(=O)N1CCCCC1c1cccc(Cl)c1)c1ccc2ccccc2n1

>  <score_type>  (18) 
oracle

>  <origin>  (18) 
autodockgpu

>  <m_score__min__energy>  (18) 
-9.4100000000000001

>  <m_primary>  (18) 
energy

>  <rmsd>  (18) 
2.091131988451257

>  <m_score__min__rmsd>  (18) 
2.091131988451257

>  <meeko>  (18) 
{"free_energy": -9.39, "intermolecular_energy": -10.88, "internal_energy": -1.5, "cluster_size": 19, "cluster_id": 1, "rank_in_cluster": 6}

>  <energy>  (18) 
-8.61

>  <cluster_rmsd>  (18) 
0.7

>  <cluster>  (18) 
1

$$$$

     RDKit          3D

 51 54  0  0  0  0  0  0  0  0999 V2000
  140.4750   71.5590  221.2330 O   0  0  0  0  0  0  0  0  0  0  0  0
  140.1530   72.1090  222.3210 C   0  0  0  0  0  0  0  0  0  0  0  0
  139.8220   73.4880  222.3440 N   0  0  0  0  0  0  0  0  0  0  0  0
  139.8470   74.2750  221.1460 C   0  0  0  0  0  0  0  0  0  0  0  0
  140.8970   75.3160  221.1560 C   0  0  0  0  0  0  0  0  0  0  0  0
  141.4390   75.7000  222.2480 O   0  0  0  0  0  0  0  0  0  0  0  0
  141.2790   75.8740  219.9040 N   0  0  0  0  0  0  0  0  0  0  0  0
  140.3360   76.5200  219.0110 C   0  0  0  0  0  0  0  0  0  0  0  0
  140.9820   77.7800  218.4340 C   0  0  0  0  0  0  0  0  0  0  0  0
  142.2740   77.4680  217.7430 C   0  0  0  0  0  0  0  0  0  0  0  0
  142.6710   76.0040  217.9670 C   0  0  0  0  0  0  0  0  0  0  0  0
  142.6630   75.8050  219.4870 C   0  0  2  0  0  0  0  0  0  0  0  0
  143.3220   74.5250  219.8400 C   0  0  0  0  0  0  0  0  0  0  0  0
  142.7190   73.3430  219.4600 C   0  0  0  0  0  0  0  0  0  0  0  0
  143.3300   72.1410  219.7890 C   0  0  0  0  0  0  0  0  0  0  0  0
  144.5210   72.1510  220.4820 C   0  0  0  0  0  0  0  0  0  0  0  0
  145.1120   73.3590  220.8560 C   0  0  0  0  0  0  0  0  0  0  0  0
  146.6150   73.3880  221.7330 Cl  0  0  0  0  0  0  0  0  0  0  0  0
  144.5110   74.5780  220.5350 C   0  0  0  0  0  0  0  0  0  0  0  0
  140.1110   71.3460  223.5790 C   0  0  0  0  0  0  0  0  0  0  0  0
  139.5990   70.0660  223.6030 C   0  0  0  0  0  0  0  0  0  0  0  0
  139.5560   69.3340  224.7940 C   0  0  0  0  0  0  0  0  0  0  0  0
  140.0420   69.9240  225.9610 C   0  0  0  0  0  0  0  0  0  0  0  0
  140.0320   69.2640  227.1740 C   0  0  0  0  0  0  0  0  0  0  0  0
  140.5320   69.9060  228.3030 C   0  0  0  0  0  0  0  0  0  0  0  0
  141.0350   71.2010  228.2040 C   0  0  0  0  0  0  0  0  0  0  0  0
  141.0510   71.8730  227.0010 C   0  0  0  0  0  0  0  0  0  0  0  0
  140.5460   71.2060  225.8940 C   0  0  0  0  0  0  0  0  0  0  0  0
  140.5760   71.8940  224.7280 N   0  0  0  0  0  0  0  0  0  0  0  0
  139.5590   73.9060  223.2720 H   0  0  0  0  0  0  0  0  0  0  0  0
  140.0260   73.6058  220.2915 H   0  0  0  0  0  0  0  0  0  0  0  0
  138.8773   74.7889  221.0716 H   0  0  0  0  0  0  0  0  0  0  0  0
  140.0720   75.8331  218.1934 H   0  0  0  0  0  0  0  0  0  0  0  0
  139.4241   76.7891  219.5641 H   0  0  0  0  0  0  0  0  0  0  0  0
  140.2908   78.2365  217.7102 H   0  0  0  0  0  0  0  0  0  0  0  0
  141.1927   78.4705  219.2639 H   0  0  0  0  0  0  0  0  0  0  0  0
  142.1591   77.6496  216.6642 H   0  0  0  0  0  0  0  0  0  0  0  0
  143.0612   78.1145  218.1581 H   0  0  0  0  0  0  0  0  0  0  0  0
  141.9449   75.3311  217.4874 H   0  0  0  0  0  0  0  0  0  0  0  0
  143.6551   75.7769  217.5310 H   0  0  0  0  0  0  0  0  0  0  0  0
  143.2366   76.5818  220.0138 H   0  0  0  0  0  0  0  0  0  0  0  0
  141.7692   73.3535  218.9052 H   0  0  0  0  0  0  0  0  0  0  0  0
  142.8666   71.1866  219.4985 H   0  0  0  0  0  0  0  0  0  0  0  0
  145.0094   71.2004  220.7423 H   0  0  0  0  0  0  0  0  0  0  0  0
  144.9659   75.5370  220.8238 H   0  0  0  0  0  0  0  0  0  0  0  0
  139.2197   69.6150  222.6741 H   0  0  0  0  0  0  0  0  0  0  0  0
  139.1470   68.3130  224.8102 H   0  0  0  0  0  0  0  0  0  0  0  0
  139.6330   68.2415  227.2471 H   0  0  0  0  0  0  0  0  0  0  0  0
  140.5299   69.3901  229.2745 H   0  0  0  0  0  0  0  0  0  0  0  0
  141.4273   71.6972  229.1039 H   0  0  0  0  0  0  0  0  0  0  0  0
  141.4477   72.8959  226.9216 H   0  0  0  0  0  0  0  0  0  0  0  0
  1  2  2  0
  2  3  1  0
  3  4  1  0
  4  5  1  0
  5  6  2  0
  5  7  1  0
  7  8  1  0
  8  9  1  0
  9 10  1  0
 10 11  1  0
 11 12  1  0
 12 13  1  0
 13 14  2  0
 14 15  1  0
 15 16  2  0
 16 17  1  0
 17 18  1  0
 17 19  2  0
  2 20  1  0
 20 21  2  0
 21 22  1  0
 22 23  2  0
 23 24  1  0
 24 25  2  0
 25 26  1  0
 26 27  2  0
 27 28  1  0
 28 29  2  0
 12  7  1  0
 19 13  1  0
 29 20  1  0
 28 23  1  0
  3 30  1  0
  4 31  1  0
  4 32  1  0
  8 33  1  0
  8 34  1  0
  9 35  1  0
  9 36  1  0
 10 37  1  0
 10 38  1  0
 11 39  1  0
 11 40  1  0
 12 41  1  1
 14 42  1  0
 15 43  1  0
 16 44  1  0
 19 45  1  0
 21 46  1  0
 22 47  1  0
 24 48  1  0
 25 49  1  0
 26 50  1  0
 27 51  1  0
M  END
>  <smiles>  (19) 
O=C(NCC(=O)N1CCCCC1c1cccc(Cl)c1)c1ccc2ccccc2n1

>  <score_type>  (19) 
oracle

>  <origin>  (19) 
autodockgpu

>  <m_score__min__energy>  (19) 
-9.4100000000000001

>  <m_primary>  (19) 
energy

>  <rmsd>  (19) 
1.7607630157589367

>  <m_score__min__rmsd>  (19) 
1.7607630157589367

>  <meeko>  (19) 
{"free_energy": -8.88, "intermolecular_energy": -10.38, "internal_energy": -1.97, "cluster_size": 23, "cluster_id": 2, "rank_in_cluster": 18}

>  <energy>  (19) 
-7.72

>  <cluster_rmsd>  (19) 
1.31

>  <cluster>  (19) 
1

$$$$

     RDKit          3D

 51 54  0  0  0  0  0  0  0  0999 V2000
  140.7410   71.3970  221.1940 O   0  0  0  0  0  0  0  0  0  0  0  0
  140.4000   72.0180  222.2380 C   0  0  0  0  0  0  0  0  0  0  0  0
  140.1720   73.4170  222.1830 N   0  0  0  0  0  0  0  0  0  0  0  0
  140.3240   74.1450  220.9570 C   0  0  0  0  0  0  0  0  0  0  0  0
  140.8710   75.5040  221.1510 C   0  0  0  0  0  0  0  0  0  0  0  0
  140.9930   76.0100  222.3180 O   0  0  0  0  0  0  0  0  0  0  0  0
  141.2570   76.2280  219.9880 N   0  0  0  0  0  0  0  0  0  0  0  0
  140.3210   77.0120  219.2050 C   0  0  0  0  0  0  0  0  0  0  0  0
  140.9880   78.3300  218.8070 C   0  0  0  0  0  0  0  0  0  0  0  0
  142.2680   78.0960  218.0670 C   0  0  0  0  0  0  0  0  0  0  0  0
  142.6380   76.6080  218.0770 C   0  0  0  0  0  0  0  0  0  0  0  0
  142.6370   76.1940  219.5520 C   0  0  2  0  0  0  0  0  0  0  0  0
  143.2720   74.8650  219.7130 C   0  0  0  0  0  0  0  0  0  0  0  0
  142.7030   73.7780  219.0810 C   0  0  0  0  0  0  0  0  0  0  0  0
  143.2940   72.5300  219.2280 C   0  0  0  0  0  0  0  0  0  0  0  0
  144.4300   72.4020  219.9980 C   0  0  0  0  0  0  0  0  0  0  0  0
  144.9870   73.5150  220.6270 C   0  0  0  0  0  0  0  0  0  0  0  0
  146.4220   73.3700  221.6030 Cl  0  0  0  0  0  0  0  0  0  0  0  0
  144.4070   74.7790  220.4910 C   0  0  0  0  0  0  0  0  0  0  0  0
  140.2310   71.3190  223.5220 C   0  0  0  0  0  0  0  0  0  0  0  0
  139.6190   70.0850  223.5690 C   0  0  0  0  0  0  0  0  0  0  0  0
  139.4540   69.4130  224.7860 C   0  0  0  0  0  0  0  0  0  0  0  0
  139.9220   70.0180  225.9530 C   0  0  0  0  0  0  0  0  0  0  0  0
  139.7960   69.4170  227.1900 C   0  0  0  0  0  0  0  0  0  0  0  0
  140.2840   70.0690  228.3170 C   0  0  0  0  0  0  0  0  0  0  0  0
  140.8930   71.3150  228.1940 C   0  0  0  0  0  0  0  0  0  0  0  0
  141.0270   71.9290  226.9670 C   0  0  0  0  0  0  0  0  0  0  0  0
  140.5300   71.2530  225.8620 C   0  0  0  0  0  0  0  0  0  0  0  0
  140.6770   71.8820  224.6720 N   0  0  0  0  0  0  0  0  0  0  0  0
  139.8900   73.8960  223.0760 H   0  0  0  0  0  0  0  0  0  0  0  0
  141.0051   73.5845  220.2997 H   0  0  0  0  0  0  0  0  0  0  0  0
  139.3223   74.2556  220.5161 H   0  0  0  0  0  0  0  0  0  0  0  0
  140.0382   76.4536  218.3004 H   0  0  0  0  0  0  0  0  0  0  0  0
  139.4183   77.2164  219.7994 H   0  0  0  0  0  0  0  0  0  0  0  0
  140.3011   78.8977  218.1622 H   0  0  0  0  0  0  0  0  0  0  0  0
  141.2178   78.8913  219.7247 H   0  0  0  0  0  0  0  0  0  0  0  0
  142.1493   78.4312  217.0261 H   0  0  0  0  0  0  0  0  0  0  0  0
  143.0704   78.6624  218.5623 H   0  0  0  0  0  0  0  0  0  0  0  0
  141.8956   76.0238  217.5135 H   0  0  0  0  0  0  0  0  0  0  0  0
  143.6147   76.4279  217.6040 H   0  0  0  0  0  0  0  0  0  0  0  0
  143.2302   76.8769  220.1779 H   0  0  0  0  0  0  0  0  0  0  0  0
  141.7958   73.8983  218.4706 H   0  0  0  0  0  0  0  0  0  0  0  0
  142.8584   71.6494  218.7332 H   0  0  0  0  0  0  0  0  0  0  0  0
  144.9006   71.4149  220.1172 H   0  0  0  0  0  0  0  0  0  0  0  0
  144.8363   75.6647  220.9821 H   0  0  0  0  0  0  0  0  0  0  0  0
  139.2559   69.6227  222.6393 H   0  0  0  0  0  0  0  0  0  0  0  0
  138.9654   68.4281  224.8215 H   0  0  0  0  0  0  0  0  0  0  0  0
  139.3144   68.4324  227.2828 H   0  0  0  0  0  0  0  0  0  0  0  0
  140.1888   69.5997  229.3073 H   0  0  0  0  0  0  0  0  0  0  0  0
  141.2748   71.8195  229.0938 H   0  0  0  0  0  0  0  0  0  0  0  0
  141.5077   72.9135  226.8682 H   0  0  0  0  0  0  0  0  0  0  0  0
  1  2  2  0
  2  3  1  0
  3  4  1  0
  4  5  1  0
  5  6  2  0
  5  7  1  0
  7  8  1  0
  8  9  1  0
  9 10  1  0
 10 11  1  0
 11 12  1  0
 12 13  1  0
 13 14  2  0
 14 15  1  0
 15 16  2  0
 16 17  1  0
 17 18  1  0
 17 19  2  0
  2 20  1  0
 20 21  2  0
 21 22  1  0
 22 23  2  0
 23 24  1  0
 24 25  2  0
 25 26  1  0
 26 27  2  0
 27 28  1  0
 28 29  2  0
 12  7  1  0
 19 13  1  0
 29 20  1  0
 28 23  1  0
  3 30  1  0
  4 31  1  0
  4 32  1  0
  8 33  1  0
  8 34  1  0
  9 35  1  0
  9 36  1  0
 10 37  1  0
 10 38  1  0
 11 39  1  0
 11 40  1  0
 12 41  1  1
 14 42  1  0
 15 43  1  0
 16 44  1  0
 19 45  1  0
 21 46  1  0
 22 47  1  0
 24 48  1  0
 25 49  1  0
 26 50  1  0
 27 51  1  0
M  END
>  <smiles>  (20) 
O=C(NCC(=O)N1CCCCC1c1cccc(Cl)c1)c1ccc2ccccc2n1

>  <score_type>  (20) 
oracle

>  <origin>  (20) 
autodockgpu

>  <m_score__min__energy>  (20) 
-9.4100000000000001

>  <m_primary>  (20) 
energy

>  <rmsd>  (20) 
1.9234239937827289

>  <m_score__min__rmsd>  (20) 
1.9234239937827289

>  <meeko>  (20) 
{"free_energy": -8.89, "intermolecular_energy": -10.38, "internal_energy": -1.98, "cluster_size": 23, "cluster_id": 2, "rank_in_cluster": 17}

>  <energy>  (20) 
-9.09

>  <cluster_rmsd>  (20) 
0.0

>  <cluster>  (20) 
2

$$$$

     RDKit          3D

 51 54  0  0  0  0  0  0  0  0999 V2000
  141.3920   72.3030  221.5750 O   0  0  0  0  0  0  0  0  0  0  0  0
  140.4580   72.5150  222.3950 C   0  0  0  0  0  0  0  0  0  0  0  0
  139.6230   73.6500  222.2350 N   0  0  0  0  0  0  0  0  0  0  0  0
  139.8210   74.5680  221.1510 C   0  0  0  0  0  0  0  0  0  0  0  0
  140.7600   75.6610  221.4790 C   0  0  0  0  0  0  0  0  0  0  0  0
  140.9880   75.9990  222.6910 O   0  0  0  0  0  0  0  0  0  0  0  0
  141.4010   76.3240  220.3950 N   0  0  0  0  0  0  0  0  0  0  0  0
  142.4180   75.6900  219.5780 C   0  0  0  0  0  0  0  0  0  0  0  0
  142.1750   76.0510  218.1120 C   0  0  0  0  0  0  0  0  0  0  0  0
  142.1480   77.5350  217.9090 C   0  0  0  0  0  0  0  0  0  0  0  0
  142.1910   78.2680  219.2550 C   0  0  0  0  0  0  0  0  0  0  0  0
  141.0350   77.6870  220.0770 C   0  0  2  0  0  0  0  0  0  0  0  0
  140.7850   78.5240  221.2740 C   0  0  0  0  0  0  0  0  0  0  0  0
  139.4850   78.6930  221.7050 C   0  0  0  0  0  0  0  0  0  0  0  0
  139.2450   79.4760  222.8250 C   0  0  0  0  0  0  0  0  0  0  0  0
  140.3030   80.0670  223.4820 C   0  0  0  0  0  0  0  0  0  0  0  0
  141.6090   79.8830  223.0270 C   0  0  0  0  0  0  0  0  0  0  0  0
  142.9560   80.6220  223.8460 Cl  0  0  0  0  0  0  0  0  0  0  0  0
  141.8710   79.0980  221.9020 C   0  0  0  0  0  0  0  0  0  0  0  0
  140.2120   71.6040  223.5240 C   0  0  0  0  0  0  0  0  0  0  0  0
  139.5070   70.4340  223.3370 C   0  0  0  0  0  0  0  0  0  0  0  0
  139.2690   69.5620  224.4050 C   0  0  0  0  0  0  0  0  0  0  0  0
  139.7580   69.9000  225.6670 C   0  0  0  0  0  0  0  0  0  0  0  0
  139.5620   69.0910  226.7690 C   0  0  0  0  0  0  0  0  0  0  0  0
  140.0750   69.4820  228.0010 C   0  0  0  0  0  0  0  0  0  0  0  0
  140.7780   70.6790  228.1170 C   0  0  0  0  0  0  0  0  0  0  0  0
  140.9820   71.4970  227.0270 C   0  0  0  0  0  0  0  0  0  0  0  0
  140.4580   71.0800  225.8120 C   0  0  0  0  0  0  0  0  0  0  0  0
  140.6750   71.9070  224.7620 N   0  0  0  0  0  0  0  0  0  0  0  0
  138.8560   73.7900  222.9400 H   0  0  0  0  0  0  0  0  0  0  0  0
  140.2191   74.0115  220.2897 H   0  0  0  0  0  0  0  0  0  0  0  0
  138.8468   75.0287  220.9302 H   0  0  0  0  0  0  0  0  0  0  0  0
  143.4126   76.0454  219.8854 H   0  0  0  0  0  0  0  0  0  0  0  0
  142.3697   74.5984  219.7050 H   0  0  0  0  0  0  0  0  0  0  0  0
  142.9814   75.6211  217.4997 H   0  0  0  0  0  0  0  0  0  0  0  0
  141.1975   75.6441  217.8139 H   0  0  0  0  0  0  0  0  0  0  0  0
  143.0196   77.8330  217.3078 H   0  0  0  0  0  0  0  0  0  0  0  0
  141.2160   77.8036  217.3901 H   0  0  0  0  0  0  0  0  0  0  0  0
  143.1509   78.0867  219.7606 H   0  0  0  0  0  0  0  0  0  0  0  0
  142.0946   79.3565  219.1293 H   0  0  0  0  0  0  0  0  0  0  0  0
  140.0860   77.6851  219.5208 H   0  0  0  0  0  0  0  0  0  0  0  0
  138.6521   78.2145  221.1690 H   0  0  0  0  0  0  0  0  0  0  0  0
  138.2167   79.6243  223.1865 H   0  0  0  0  0  0  0  0  0  0  0  0
  140.1163   80.6877  224.3708 H   0  0  0  0  0  0  0  0  0  0  0  0
  142.8960   78.9445  221.5336 H   0  0  0  0  0  0  0  0  0  0  0  0
  139.1269   70.1830  222.3357 H   0  0  0  0  0  0  0  0  0  0  0  0
  138.7075   68.6285  224.2525 H   0  0  0  0  0  0  0  0  0  0  0  0
  139.0057   68.1469  226.6732 H   0  0  0  0  0  0  0  0  0  0  0  0
  139.9254   68.8451  228.8853 H   0  0  0  0  0  0  0  0  0  0  0  0
  141.1779   70.9769  229.0975 H   0  0  0  0  0  0  0  0  0  0  0  0
  141.5377   72.4421  227.1166 H   0  0  0  0  0  0  0  0  0  0  0  0
  1  2  2  0
  2  3  1  0
  3  4  1  0
  4  5  1  0
  5  6  2  0
  5  7  1  0
  7  8  1  0
  8  9  1  0
  9 10  1  0
 10 11  1  0
 11 12  1  0
 12 13  1  0
 13 14  2  0
 14 15  1  0
 15 16  2  0
 16 17  1  0
 17 18  1  0
 17 19  2  0
  2 20  1  0
 20 21  2  0
 21 22  1  0
 22 23  2  0
 23 24  1  0
 24 25  2  0
 25 26  1  0
 26 27  2  0
 27 28  1  0
 28 29  2  0
 12  7  1  0
 19 13  1  0
 29 20  1  0
 28 23  1  0
  3 30  1  0
  4 31  1  0
  4 32  1  0
  8 33  1  0
  8 34  1  0
  9 35  1  0
  9 36  1  0
 10 37  1  0
 10 38  1  0
 11 39  1  0
 11 40  1  0
 12 41  1  6
 14 42  1  0
 15 43  1  0
 16 44  1  0
 19 45  1  0
 21 46  1  0
 22 47  1  0
 24 48  1  0
 25 49  1  0
 26 50  1  0
 27 51  1  0
M  END
>  <smiles>  (21) 
O=C(NCC(=O)N1CCCCC1c1cccc(Cl)c1)c1ccc2ccccc2n1

>  <score_type>  (21) 
oracle

>  <origin>  (21) 
autodockgpu

>  <m_score__min__energy>  (21) 
-9.4100000000000001

>  <m_primary>  (21) 
energy

>  <rmsd>  (21) 
2.00686241665524

>  <m_score__min__rmsd>  (21) 
2.00686241665524

>  <meeko>  (21) 
{"free_energy": -9.29, "intermolecular_energy": -10.78, "internal_energy": -1.47, "cluster_size": 19, "cluster_id": 1, "rank_in_cluster": 14}

>  <energy>  (21) 
-9.08

>  <cluster_rmsd>  (21) 
0.04

>  <cluster>  (21) 
2

$$$$

     RDKit          3D

 51 54  0  0  0  0  0  0  0  0999 V2000
  140.6020   71.4790  221.2200 O   0  0  0  0  0  0  0  0  0  0  0  0
  140.2410   72.0580  222.2810 C   0  0  0  0  0  0  0  0  0  0  0  0
  139.9170   73.4380  222.2550 N   0  0  0  0  0  0  0  0  0  0  0  0
  139.9930   74.1950  221.0390 C   0  0  0  0  0  0  0  0  0  0  0  0
  140.7720   75.4430  221.1790 C   0  0  0  0  0  0  0  0  0  0  0  0
  141.0520   75.9250  222.3280 O   0  0  0  0  0  0  0  0  0  0  0  0
  141.1970   76.0880  219.9840 N   0  0  0  0  0  0  0  0  0  0  0  0
  140.2890   76.8190  219.1200 C   0  0  0  0  0  0  0  0  0  0  0  0
  140.9720   78.1070  218.6580 C   0  0  0  0  0  0  0  0  0  0  0  0
  142.2760   77.8250  217.9770 C   0  0  0  0  0  0  0  0  0  0  0  0
  142.6410   76.3400  218.0970 C   0  0  0  0  0  0  0  0  0  0  0  0
  142.5900   76.0250  219.5960 C   0  0  2  0  0  0  0  0  0  0  0  0
  143.2160   74.7100  219.8650 C   0  0  0  0  0  0  0  0  0  0  0  0
  142.5790   73.5680  219.4220 C   0  0  0  0  0  0  0  0  0  0  0  0
  143.1600   72.3330  219.6720 C   0  0  0  0  0  0  0  0  0  0  0  0
  144.3570   72.2700  220.3530 C   0  0  0  0  0  0  0  0  0  0  0  0
  144.9830   73.4370  220.7920 C   0  0  0  0  0  0  0  0  0  0  0  0
  146.4940   73.3730  221.6540 Cl  0  0  0  0  0  0  0  0  0  0  0  0
  144.4130   74.6890  220.5500 C   0  0  0  0  0  0  0  0  0  0  0  0
  140.1460   71.3280  223.5550 C   0  0  0  0  0  0  0  0  0  0  0  0
  139.5740   70.0740  223.6010 C   0  0  0  0  0  0  0  0  0  0  0  0
  139.4800   69.3740  224.8080 C   0  0  0  0  0  0  0  0  0  0  0  0
  139.9760   69.9690  225.9680 C   0  0  0  0  0  0  0  0  0  0  0  0
  139.9190   69.3390  227.1960 C   0  0  0  0  0  0  0  0  0  0  0  0
  140.4310   69.9840  228.3170 C   0  0  0  0  0  0  0  0  0  0  0  0
  140.9950   71.2520  228.1960 C   0  0  0  0  0  0  0  0  0  0  0  0
  141.0600   71.8930  226.9780 C   0  0  0  0  0  0  0  0  0  0  0  0
  140.5410   71.2240  225.8800 C   0  0  0  0  0  0  0  0  0  0  0  0
  140.6200   71.8820  224.6980 N   0  0  0  0  0  0  0  0  0  0  0  0
  139.6200   73.8820  223.1610 H   0  0  0  0  0  0  0  0  0  0  0  0
  140.4678   73.5709  220.2676 H   0  0  0  0  0  0  0  0  0  0  0  0
  138.9661   74.4791  220.7656 H   0  0  0  0  0  0  0  0  0  0  0  0
  140.0347   76.2020  218.2455 H   0  0  0  0  0  0  0  0  0  0  0  0
  139.3677   77.0627  219.6694 H   0  0  0  0  0  0  0  0  0  0  0  0
  140.3079   78.6310  217.9549 H   0  0  0  0  0  0  0  0  0  0  0  0
  141.1732   78.7271  219.5440 H   0  0  0  0  0  0  0  0  0  0  0  0
  142.1926   78.0914  216.9130 H   0  0  0  0  0  0  0  0  0  0  0  0
  143.0633   78.4226  218.4598 H   0  0  0  0  0  0  0  0  0  0  0  0
  141.9157   75.7205  217.5492 H   0  0  0  0  0  0  0  0  0  0  0  0
  143.6319   76.1277  217.6691 H   0  0  0  0  0  0  0  0  0  0  0  0
  143.1634   76.7483  220.1943 H   0  0  0  0  0  0  0  0  0  0  0  0
  141.6249   73.6362  218.8788 H   0  0  0  0  0  0  0  0  0  0  0  0
  142.6688   71.4104  219.3291 H   0  0  0  0  0  0  0  0  0  0  0  0
  144.8217   71.2930  220.5516 H   0  0  0  0  0  0  0  0  0  0  0  0
  144.8969   75.6164  220.8903 H   0  0  0  0  0  0  0  0  0  0  0  0
  139.1871   69.6189  222.6773 H   0  0  0  0  0  0  0  0  0  0  0  0
  139.0238   68.3736  224.8420 H   0  0  0  0  0  0  0  0  0  0  0  0
  139.4733   68.3374  227.2865 H   0  0  0  0  0  0  0  0  0  0  0  0
  140.3905   69.4923  229.3001 H   0  0  0  0  0  0  0  0  0  0  0  0
  141.3963   71.7513  229.0902 H   0  0  0  0  0  0  0  0  0  0  0  0
  141.5053   72.8941  226.8807 H   0  0  0  0  0  0  0  0  0  0  0  0
  1  2  2  0
  2  3  1  0
  3  4  1  0
  4  5  1  0
  5  6  2  0
  5  7  1  0
  7  8  1  0
  8  9  1  0
  9 10  1  0
 10 11  1  0
 11 12  1  0
 12 13  1  0
 13 14  2  0
 14 15  1  0
 15 16  2  0
 16 17  1  0
 17 18  1  0
 17 19  2  0
  2 20  1  0
 20 21  2  0
 21 22  1  0
 22 23  2  0
 23 24  1  0
 24 25  2  0
 25 26  1  0
 26 27  2  0
 27 28  1  0
 28 29  2  0
 12  7  1  0
 19 13  1  0
 29 20  1  0
 28 23  1  0
  3 30  1  0
  4 31  1  0
  4 32  1  0
  8 33  1  0
  8 34  1  0
  9 35  1  0
  9 36  1  0
 10 37  1  0
 10 38  1  0
 11 39  1  0
 11 40  1  0
 12 41  1  1
 14 42  1  0
 15 43  1  0
 16 44  1  0
 19 45  1  0
 21 46  1  0
 22 47  1  0
 24 48  1  0
 25 49  1  0
 26 50  1  0
 27 51  1  0
M  END
>  <smiles>  (22) 
O=C(NCC(=O)N1CCCCC1c1cccc(Cl)c1)c1ccc2ccccc2n1

>  <score_type>  (22) 
oracle

>  <origin>  (22) 
autodockgpu

>  <m_score__min__energy>  (22) 
-9.4100000000000001

>  <m_primary>  (22) 
energy

>  <rmsd>  (22) 
1.8114923095107733

>  <m_score__min__rmsd>  (22) 
1.8114923095107733

>  <meeko>  (22) 
{"free_energy": -9.02, "intermolecular_energy": -10.51, "internal_energy": -1.93, "cluster_size": 23, "cluster_id": 2, "rank_in_cluster": 10}

>  <energy>  (22) 
-9.07

>  <cluster_rmsd>  (22) 
0.14

>  <cluster>  (22) 
2

$$$$

     RDKit          3D

 51 54  0  0  0  0  0  0  0  0999 V2000
  141.0150   71.6360  221.4030 O   0  0  0  0  0  0  0  0  0  0  0  0
  140.4480   72.1610  222.3990 C   0  0  0  0  0  0  0  0  0  0  0  0
  140.0450   73.5200  222.3460 N   0  0  0  0  0  0  0  0  0  0  0  0
  140.2710   74.3140  221.1740 C   0  0  0  0  0  0  0  0  0  0  0  0
  140.9350   75.6030  221.4640 C   0  0  0  0  0  0  0  0  0  0  0  0
  141.0090   76.0570  222.6560 O   0  0  0  0  0  0  0  0  0  0  0  0
  141.4870   76.3180  220.3650 N   0  0  0  0  0  0  0  0  0  0  0  0
  142.5060   75.7590  219.4970 C   0  0  0  0  0  0  0  0  0  0  0  0
  142.1800   76.1240  218.0480 C   0  0  0  0  0  0  0  0  0  0  0  0
  142.0530   77.6060  217.8700 C   0  0  0  0  0  0  0  0  0  0  0  0
  142.1080   78.3230  219.2240 C   0  0  0  0  0  0  0  0  0  0  0  0
  141.0260   77.6610  220.0830 C   0  0  2  0  0  0  0  0  0  0  0  0
  140.7760   78.4640  221.3030 C   0  0  0  0  0  0  0  0  0  0  0  0
  139.4860   78.5490  221.7880 C   0  0  0  0  0  0  0  0  0  0  0  0
  139.2460   79.3020  222.9300 C   0  0  0  0  0  0  0  0  0  0  0  0
  140.2930   79.9450  223.5530 C   0  0  0  0  0  0  0  0  0  0  0  0
  141.5880   79.8450  223.0440 C   0  0  0  0  0  0  0  0  0  0  0  0
  142.9220   80.6510  223.8210 Cl  0  0  0  0  0  0  0  0  0  0  0  0
  141.8500   79.0920  221.8970 C   0  0  0  0  0  0  0  0  0  0  0  0
  140.1930   71.3900  223.6260 C   0  0  0  0  0  0  0  0  0  0  0  0
  139.5820   70.1560  223.5610 C   0  0  0  0  0  0  0  0  0  0  0  0
  139.3350   69.4160  224.7230 C   0  0  0  0  0  0  0  0  0  0  0  0
  139.7190   69.9530  225.9520 C   0  0  0  0  0  0  0  0  0  0  0  0
  139.5090   69.2820  227.1410 C   0  0  0  0  0  0  0  0  0  0  0  0
  139.9150   69.8690  228.3350 C   0  0  0  0  0  0  0  0  0  0  0  0
  140.5280   71.1200  228.3250 C   0  0  0  0  0  0  0  0  0  0  0  0
  140.7450   71.8010  227.1480 C   0  0  0  0  0  0  0  0  0  0  0  0
  140.3280   71.1900  225.9740 C   0  0  0  0  0  0  0  0  0  0  0  0
  140.5550   71.8860  224.8350 N   0  0  0  0  0  0  0  0  0  0  0  0
  139.5760   73.9190  223.1990 H   0  0  0  0  0  0  0  0  0  0  0  0
  140.9053   73.7419  220.4809 H   0  0  0  0  0  0  0  0  0  0  0  0
  139.2869   74.5433  220.7392 H   0  0  0  0  0  0  0  0  0  0  0  0
  143.4889   76.1711  219.7690 H   0  0  0  0  0  0  0  0  0  0  0  0
  142.5301   74.6649  219.6085 H   0  0  0  0  0  0  0  0  0  0  0  0
  142.9850   75.7535  217.3964 H   0  0  0  0  0  0  0  0  0  0  0  0
  141.2177   75.6611  217.7838 H   0  0  0  0  0  0  0  0  0  0  0  0
  142.8782   77.9654  217.2377 H   0  0  0  0  0  0  0  0  0  0  0  0
  141.0847   77.8227  217.3951 H   0  0  0  0  0  0  0  0  0  0  0  0
  143.0977   78.1950  219.6867 H   0  0  0  0  0  0  0  0  0  0  0  0
  141.9402   79.4051  219.1195 H   0  0  0  0  0  0  0  0  0  0  0  0
  140.0569   77.6086  219.5652 H   0  0  0  0  0  0  0  0  0  0  0  0
  138.6618   78.0287  221.2781 H   0  0  0  0  0  0  0  0  0  0  0  0
  138.2264   79.3845  223.3345 H   0  0  0  0  0  0  0  0  0  0  0  0
  140.1066   80.5415  224.4582 H   0  0  0  0  0  0  0  0  0  0  0  0
  142.8667   79.0041  221.4865 H   0  0  0  0  0  0  0  0  0  0  0  0
  139.2849   69.7478  222.5837 H   0  0  0  0  0  0  0  0  0  0  0  0
  138.8481   68.4312  224.6684 H   0  0  0  0  0  0  0  0  0  0  0  0
  139.0258   68.2938  227.1436 H   0  0  0  0  0  0  0  0  0  0  0  0
  139.7518   69.3448  229.2882 H   0  0  0  0  0  0  0  0  0  0  0  0
  140.8449   71.5727  229.2761 H   0  0  0  0  0  0  0  0  0  0  0  0
  141.2290   72.7888  227.1388 H   0  0  0  0  0  0  0  0  0  0  0  0
  1  2  2  0
  2  3  1  0
  3  4  1  0
  4  5  1  0
  5  6  2  0
  5  7  1  0
  7  8  1  0
  8  9  1  0
  9 10  1  0
 10 11  1  0
 11 12  1  0
 12 13  1  0
 13 14  2  0
 14 15  1  0
 15 16  2  0
 16 17  1  0
 17 18  1  0
 17 19  2  0
  2 20  1  0
 20 21  2  0
 21 22  1  0
 22 23  2  0
 23 24  1  0
 24 25  2  0
 25 26  1  0
 26 27  2  0
 27 28  1  0
 28 29  2  0
 12  7  1  0
 19 13  1  0
 29 20  1  0
 28 23  1  0
  3 30  1  0
  4 31  1  0
  4 32  1  0
  8 33  1  0
  8 34  1  0
  9 35  1  0
  9 36  1  0
 10 37  1  0
 10 38  1  0
 11 39  1  0
 11 40  1  0
 12 41  1  6
 14 42  1  0
 15 43  1  0
 16 44  1  0
 19 45  1  0
 21 46  1  0
 22 47  1  0
 24 48  1  0
 25 49  1  0
 26 50  1  0
 27 51  1  0
M  END
>  <smiles>  (23) 
O=C(NCC(=O)N1CCCCC1c1cccc(Cl)c1)c1ccc2ccccc2n1

>  <score_type>  (23) 
oracle

>  <origin>  (23) 
autodockgpu

>  <m_score__min__energy>  (23) 
-9.4100000000000001

>  <m_primary>  (23) 
energy

>  <rmsd>  (23) 
2.050024520670005

>  <m_score__min__rmsd>  (23) 
2.050024520670005

>  <meeko>  (23) 
{"free_energy": -9.29, "intermolecular_energy": -10.78, "internal_energy": -1.55, "cluster_size": 19, "cluster_id": 1, "rank_in_cluster": 15}

>  <energy>  (23) 
-9.06

>  <cluster_rmsd>  (23) 
0.05

>  <cluster>  (23) 
2

$$$$

     RDKit          3D

 51 54  0  0  0  0  0  0  0  0999 V2000
  138.9360   75.4810  221.5340 O   0  0  0  0  0  0  0  0  0  0  0  0
  140.0670   75.9510  221.8380 C   0  0  0  0  0  0  0  0  0  0  0  0
  141.2290   75.1540  221.6780 N   0  0  0  0  0  0  0  0  0  0  0  0
  141.1440   73.8140  221.1740 C   0  0  0  0  0  0  0  0  0  0  0  0
  141.1380   73.7470  219.6980 C   0  0  0  0  0  0  0  0  0  0  0  0
  140.7450   72.6980  219.0830 O   0  0  0  0  0  0  0  0  0  0  0  0
  141.5890   74.8950  218.9870 N   0  0  0  0  0  0  0  0  0  0  0  0
  140.7630   75.5960  218.0230 C   0  0  0  0  0  0  0  0  0  0  0  0
  140.9440   77.1020  218.2150 C   0  0  0  0  0  0  0  0  0  0  0  0
  142.3830   77.5010  218.1050 C   0  0  0  0  0  0  0  0  0  0  0  0
  143.2850   76.2640  218.0100 C   0  0  0  0  0  0  0  0  0  0  0  0
  142.9240   75.4000  219.2230 C   0  0  2  0  0  0  0  0  0  0  0  0
  143.9340   74.3310  219.4090 C   0  0  0  0  0  0  0  0  0  0  0  0
  144.0370   73.3430  218.4510 C   0  0  0  0  0  0  0  0  0  0  0  0
  144.9800   72.3380  218.6210 C   0  0  0  0  0  0  0  0  0  0  0  0
  145.7910   72.3480  219.7350 C   0  0  0  0  0  0  0  0  0  0  0  0
  145.6690   73.3570  220.6900 C   0  0  0  0  0  0  0  0  0  0  0  0
  146.6860   73.3830  222.1030 Cl  0  0  0  0  0  0  0  0  0  0  0  0
  144.7250   74.3770  220.5370 C   0  0  0  0  0  0  0  0  0  0  0  0
  140.2090   77.3200  222.3590 C   0  0  0  0  0  0  0  0  0  0  0  0
  139.0950   78.0580  222.6980 C   0  0  0  0  0  0  0  0  0  0  0  0
  139.2210   79.3600  223.1940 C   0  0  0  0  0  0  0  0  0  0  0  0
  140.5000   79.9000  223.3400 C   0  0  0  0  0  0  0  0  0  0  0  0
  140.7050   81.1770  223.8220 C   0  0  0  0  0  0  0  0  0  0  0  0
  142.0040   81.6600  223.9460 C   0  0  0  0  0  0  0  0  0  0  0  0
  143.0830   80.8570  223.5840 C   0  0  0  0  0  0  0  0  0  0  0  0
  142.8960   79.5800  223.1010 C   0  0  0  0  0  0  0  0  0  0  0  0
  141.5890   79.1290  222.9900 C   0  0  0  0  0  0  0  0  0  0  0  0
  141.4390   77.8710  222.5110 N   0  0  0  0  0  0  0  0  0  0  0  0
  142.1510   75.5850  221.9430 H   0  0  0  0  0  0  0  0  0  0  0  0
  142.0085   73.2448  221.5464 H   0  0  0  0  0  0  0  0  0  0  0  0
  140.1902   73.3927  221.5244 H   0  0  0  0  0  0  0  0  0  0  0  0
  141.0664   75.3150  217.0037 H   0  0  0  0  0  0  0  0  0  0  0  0
  139.7071   75.3264  218.1723 H   0  0  0  0  0  0  0  0  0  0  0  0
  140.3662   77.6325  217.4438 H   0  0  0  0  0  0  0  0  0  0  0  0
  140.5889   77.3663  219.2220 H   0  0  0  0  0  0  0  0  0  0  0  0
  142.5188   78.1165  217.2035 H   0  0  0  0  0  0  0  0  0  0  0  0
  142.6605   78.0718  219.0034 H   0  0  0  0  0  0  0  0  0  0  0  0
  143.0895   75.7165  217.0762 H   0  0  0  0  0  0  0  0  0  0  0  0
  144.3509   76.5356  218.0051 H   0  0  0  0  0  0  0  0  0  0  0  0
  142.9306   75.9733  220.1618 H   0  0  0  0  0  0  0  0  0  0  0  0
  143.3826   73.3515  217.5669 H   0  0  0  0  0  0  0  0  0  0  0  0
  145.0790   71.5391  217.8713 H   0  0  0  0  0  0  0  0  0  0  0  0
  146.5402   71.5543  219.8720 H   0  0  0  0  0  0  0  0  0  0  0  0
  144.6185   75.1790  221.2823 H   0  0  0  0  0  0  0  0  0  0  0  0
  138.0943   77.6175  222.5769 H   0  0  0  0  0  0  0  0  0  0  0  0
  138.3302   79.9464  223.4635 H   0  0  0  0  0  0  0  0  0  0  0  0
  139.8492   81.8072  224.1056 H   0  0  0  0  0  0  0  0  0  0  0  0
  142.1788   82.6759  224.3299 H   0  0  0  0  0  0  0  0  0  0  0  0
  144.1053   81.2502  223.6857 H   0  0  0  0  0  0  0  0  0  0  0  0
  143.7475   78.9449  222.8154 H   0  0  0  0  0  0  0  0  0  0  0  0
  1  2  2  0
  2  3  1  0
  3  4  1  0
  4  5  1  0
  5  6  2  0
  5  7  1  0
  7  8  1  0
  8  9  1  0
  9 10  1  0
 10 11  1  0
 11 12  1  0
 12 13  1  0
 13 14  2  0
 14 15  1  0
 15 16  2  0
 16 17  1  0
 17 18  1  0
 17 19  2  0
  2 20  1  0
 20 21  2  0
 21 22  1  0
 22 23  2  0
 23 24  1  0
 24 25  2  0
 25 26  1  0
 26 27  2  0
 27 28  1  0
 28 29  2  0
 12  7  1  0
 19 13  1  0
 29 20  1  0
 28 23  1  0
  3 30  1  0
  4 31  1  0
  4 32  1  0
  8 33  1  0
  8 34  1  0
  9 35  1  0
  9 36  1  0
 10 37  1  0
 10 38  1  0
 11 39  1  0
 11 40  1  0
 12 41  1  1
 14 42  1  0
 15 43  1  0
 16 44  1  0
 19 45  1  0
 21 46  1  0
 22 47  1  0
 24 48  1  0
 25 49  1  0
 26 50  1  0
 27 51  1  0
M  END
>  <smiles>  (24) 
O=C(NCC(=O)N1CCCCC1c1cccc(Cl)c1)c1ccc2ccccc2n1

>  <score_type>  (24) 
oracle

>  <origin>  (24) 
autodockgpu

>  <m_score__min__energy>  (24) 
-9.4100000000000001

>  <m_primary>  (24) 
energy

>  <rmsd>  (24) 
7.2135600210206965

>  <m_score__min__rmsd>  (24) 
7.2135600210206965

>  <meeko>  (24) 
{"free_energy": -8.01, "intermolecular_energy": -9.5, "internal_energy": -2.39, "cluster_size": 5, "cluster_id": 4, "rank_in_cluster": 1}

>  <energy>  (24) 
-9.06

>  <cluster_rmsd>  (24) 
0.18

>  <cluster>  (24) 
2

$$$$

     RDKit          3D

 51 54  0  0  0  0  0  0  0  0999 V2000
  139.6460   70.9740  221.1480 O   0  0  0  0  0  0  0  0  0  0  0  0
  139.9620   71.6020  222.1950 C   0  0  0  0  0  0  0  0  0  0  0  0
  140.3220   72.9710  222.1160 N   0  0  0  0  0  0  0  0  0  0  0  0
  140.3340   73.6610  220.8590 C   0  0  0  0  0  0  0  0  0  0  0  0
  141.0880   74.9330  220.9010 C   0  0  0  0  0  0  0  0  0  0  0  0
  141.3940   75.4850  222.0120 O   0  0  0  0  0  0  0  0  0  0  0  0
  141.4580   75.5170  219.6580 N   0  0  0  0  0  0  0  0  0  0  0  0
  140.4850   75.9400  218.6680 C   0  0  0  0  0  0  0  0  0  0  0  0
  140.9230   77.2850  218.0850 C   0  0  0  0  0  0  0  0  0  0  0  0
  142.3030   77.2110  217.5080 C   0  0  0  0  0  0  0  0  0  0  0  0
  142.9540   75.8590  217.8270 C   0  0  0  0  0  0  0  0  0  0  0  0
  142.8590   75.7080  219.3490 C   0  0  2  0  0  0  0  0  0  0  0  0
  143.7200   74.5920  219.8080 C   0  0  0  0  0  0  0  0  0  0  0  0
  144.8980   74.8890  220.4630 C   0  0  0  0  0  0  0  0  0  0  0  0
  145.7080   73.8480  220.8940 C   0  0  0  0  0  0  0  0  0  0  0  0
  145.3230   72.5450  220.6620 C   0  0  0  0  0  0  0  0  0  0  0  0
  144.1280   72.2690  219.9970 C   0  0  0  0  0  0  0  0  0  0  0  0
  143.6280   70.6290  219.6970 Cl  0  0  0  0  0  0  0  0  0  0  0  0
  143.2990   73.3030  219.5560 C   0  0  0  0  0  0  0  0  0  0  0  0
  139.9650   70.9400  223.5100 C   0  0  0  0  0  0  0  0  0  0  0  0
  139.4390   69.6740  223.6560 C   0  0  0  0  0  0  0  0  0  0  0  0
  139.4390   69.0380  224.9020 C   0  0  0  0  0  0  0  0  0  0  0  0
  139.9810   69.7110  225.9980 C   0  0  0  0  0  0  0  0  0  0  0  0
  140.0160   69.1480  227.2580 C   0  0  0  0  0  0  0  0  0  0  0  0
  140.5700   69.8690  228.3110 C   0  0  0  0  0  0  0  0  0  0  0  0
  141.0840   71.1440  228.0890 C   0  0  0  0  0  0  0  0  0  0  0  0
  141.0570   71.7200  226.8380 C   0  0  0  0  0  0  0  0  0  0  0  0
  140.4970   70.9760  225.8090 C   0  0  0  0  0  0  0  0  0  0  0  0
  140.4860   71.5700  224.5920 N   0  0  0  0  0  0  0  0  0  0  0  0
  140.5780   73.4570  223.0120 H   0  0  0  0  0  0  0  0  0  0  0  0
  140.7946   73.0060  220.1048 H   0  0  0  0  0  0  0  0  0  0  0  0
  139.2910   73.9067  220.6104 H   0  0  0  0  0  0  0  0  0  0  0  0
  140.4263   75.1910  217.8646 H   0  0  0  0  0  0  0  0  0  0  0  0
  139.4957   76.0422  219.1380 H   0  0  0  0  0  0  0  0  0  0  0  0
  140.2192   77.5766  217.2915 H   0  0  0  0  0  0  0  0  0  0  0  0
  140.9282   78.0273  218.8968 H   0  0  0  0  0  0  0  0  0  0  0  0
  142.2448   77.3349  216.4165 H   0  0  0  0  0  0  0  0  0  0  0  0
  142.9144   78.0106  217.9516 H   0  0  0  0  0  0  0  0  0  0  0  0
  142.4124   75.0436  217.3252 H   0  0  0  0  0  0  0  0  0  0  0  0
  143.9958   75.8149  217.4767 H   0  0  0  0  0  0  0  0  0  0  0  0
  143.2270   76.5977  219.8809 H   0  0  0  0  0  0  0  0  0  0  0  0
  145.1902   75.9345  220.6406 H   0  0  0  0  0  0  0  0  0  0  0  0
  146.6516   74.0613  221.4176 H   0  0  0  0  0  0  0  0  0  0  0  0
  145.9621   71.7174  221.0034 H   0  0  0  0  0  0  0  0  0  0  0  0
  142.3538   73.0987  219.0318 H   0  0  0  0  0  0  0  0  0  0  0  0
  139.0143   69.1579  222.7824 H   0  0  0  0  0  0  0  0  0  0  0  0
  139.0200   68.0273  225.0157 H   0  0  0  0  0  0  0  0  0  0  0  0
  139.6101   68.1398  227.4276 H   0  0  0  0  0  0  0  0  0  0  0  0
  140.6020   69.4315  229.3198 H   0  0  0  0  0  0  0  0  0  0  0  0
  141.5206   71.7027  228.9300 H   0  0  0  0  0  0  0  0  0  0  0  0
  141.4623   72.7274  226.6620 H   0  0  0  0  0  0  0  0  0  0  0  0
  1  2  2  0
  2  3  1  0
  3  4  1  0
  4  5  1  0
  5  6  2  0
  5  7  1  0
  7  8  1  0
  8  9  1  0
  9 10  1  0
 10 11  1  0
 11 12  1  0
 12 13  1  0
 13 14  2  0
 14 15  1  0
 15 16  2  0
 16 17  1  0
 17 18  1  0
 17 19  2  0
  2 20  1  0
 20 21  2  0
 21 22  1  0
 22 23  2  0
 23 24  1  0
 24 25  2  0
 25 26  1  0
 26 27  2  0
 27 28  1  0
 28 29  2  0
 12  7  1  0
 19 13  1  0
 29 20  1  0
 28 23  1  0
  3 30  1  0
  4 31  1  0
  4 32  1  0
  8 33  1  0
  8 34  1  0
  9 35  1  0
  9 36  1  0
 10 37  1  0
 10 38  1  0
 11 39  1  0
 11 40  1  0
 12 41  1  1
 14 42  1  0
 15 43  1  0
 16 44  1  0
 19 45  1  0
 21 46  1  0
 22 47  1  0
 24 48  1  0
 25 49  1  0
 26 50  1  0
 27 51  1  0
M  END
>  <smiles>  (25) 
O=C(NCC(=O)N1CCCCC1c1cccc(Cl)c1)c1ccc2ccccc2n1

>  <score_type>  (25) 
oracle

>  <origin>  (25) 
autodockgpu

>  <m_score__min__energy>  (25) 
-9.4100000000000001

>  <m_primary>  (25) 
energy

>  <rmsd>  (25) 
1.7550938026590637

>  <m_score__min__rmsd>  (25) 
1.7550938026590637

>  <meeko>  (25) 
{"free_energy": -8.0, "intermolecular_energy": -9.49, "internal_energy": -2.24, "cluster_size": 23, "cluster_id": 2, "rank_in_cluster": 23}

>  <energy>  (25) 
-9.06

>  <cluster_rmsd>  (25) 
0.1

>  <cluster>  (25) 
2

$$$$

     RDKit          3D

 51 54  0  0  0  0  0  0  0  0999 V2000
  141.3930   72.2000  221.7250 O   0  0  0  0  0  0  0  0  0  0  0  0
  140.4530   72.4050  222.5410 C   0  0  0  0  0  0  0  0  0  0  0  0
  139.5770   73.5030  222.3470 N   0  0  0  0  0  0  0  0  0  0  0  0
  139.7410   74.3930  221.2340 C   0  0  0  0  0  0  0  0  0  0  0  0
  140.5600   75.5810  221.5560 C   0  0  0  0  0  0  0  0  0  0  0  0
  140.5210   76.1200  222.7140 O   0  0  0  0  0  0  0  0  0  0  0  0
  141.3930   76.1020  220.5260 N   0  0  0  0  0  0  0  0  0  0  0  0
  142.4400   75.3220  219.8940 C   0  0  0  0  0  0  0  0  0  0  0  0
  142.4200   75.5910  218.3880 C   0  0  0  0  0  0  0  0  0  0  0  0
  142.5600   77.0520  218.0890 C   0  0  0  0  0  0  0  0  0  0  0  0
  142.5020   77.8790  219.3790 C   0  0  0  0  0  0  0  0  0  0  0  0
  141.2010   77.4640  220.0750 C   0  0  2  0  0  0  0  0  0  0  0  0
  140.8830   78.4070  221.1720 C   0  0  0  0  0  0  0  0  0  0  0  0
  139.5590   78.7020  221.4300 C   0  0  0  0  0  0  0  0  0  0  0  0
  139.2540   79.5860  222.4550 C   0  0  0  0  0  0  0  0  0  0  0  0
  140.2730   80.1490  223.1930 C   0  0  0  0  0  0  0  0  0  0  0  0
  141.6040   79.8360  222.9140 C   0  0  0  0  0  0  0  0  0  0  0  0
  142.9030   80.5390  223.8380 Cl  0  0  0  0  0  0  0  0  0  0  0  0
  141.9310   78.9490  221.8860 C   0  0  0  0  0  0  0  0  0  0  0  0
  140.2420   71.5210  223.6980 C   0  0  0  0  0  0  0  0  0  0  0  0
  139.5770   70.3220  223.5500 C   0  0  0  0  0  0  0  0  0  0  0  0
  139.3710   69.4770  224.6450 C   0  0  0  0  0  0  0  0  0  0  0  0
  139.8530   69.8700  225.8950 C   0  0  0  0  0  0  0  0  0  0  0  0
  139.6880   69.0890  227.0210 C   0  0  0  0  0  0  0  0  0  0  0  0
  140.1910   69.5350  228.2390 C   0  0  0  0  0  0  0  0  0  0  0  0
  140.8540   70.7580  228.3140 C   0  0  0  0  0  0  0  0  0  0  0  0
  141.0260   71.5490  227.2000 C   0  0  0  0  0  0  0  0  0  0  0  0
  140.5130   71.0770  226.0000 C   0  0  0  0  0  0  0  0  0  0  0  0
  140.6980   71.8770  224.9240 N   0  0  0  0  0  0  0  0  0  0  0  0
  138.8070   73.6370  223.0500 H   0  0  0  0  0  0  0  0  0  0  0  0
  140.2285   73.8433  220.4153 H   0  0  0  0  0  0  0  0  0  0  0  0
  138.7403   74.7518  220.9513 H   0  0  0  0  0  0  0  0  0  0  0  0
  143.4171   75.6121  220.3077 H   0  0  0  0  0  0  0  0  0  0  0  0
  142.2720   74.2515  220.0830 H   0  0  0  0  0  0  0  0  0  0  0  0
  143.2529   75.0484  217.9170 H   0  0  0  0  0  0  0  0  0  0  0  0
  141.4538   75.2483  217.9892 H   0  0  0  0  0  0  0  0  0  0  0  0
  143.5250   77.2275  217.5910 H   0  0  0  0  0  0  0  0  0  0  0  0
  141.7306   77.3595  217.4351 H   0  0  0  0  0  0  0  0  0  0  0  0
  143.3684   77.6545  220.0185 H   0  0  0  0  0  0  0  0  0  0  0  0
  142.5269   78.9591  219.1721 H   0  0  0  0  0  0  0  0  0  0  0  0
  140.3342   77.5019  219.3988 H   0  0  0  0  0  0  0  0  0  0  0  0
  138.7580   78.2430  220.8318 H   0  0  0  0  0  0  0  0  0  0  0  0
  138.2060   79.8359  222.6772 H   0  0  0  0  0  0  0  0  0  0  0  0
  140.0355   80.8496  224.0071 H   0  0  0  0  0  0  0  0  0  0  0  0
  142.9762   78.6944  221.6564 H   0  0  0  0  0  0  0  0  0  0  0  0
  139.2039   70.0266  222.5582 H   0  0  0  0  0  0  0  0  0  0  0  0
  138.8397   68.5215  224.5239 H   0  0  0  0  0  0  0  0  0  0  0  0
  139.1642   68.1239  226.9560 H   0  0  0  0  0  0  0  0  0  0  0  0
  140.0651   68.9216  229.1434 H   0  0  0  0  0  0  0  0  0  0  0  0
  141.2481   71.0987  229.2828 H   0  0  0  0  0  0  0  0  0  0  0  0
  141.5485   72.5152  227.2589 H   0  0  0  0  0  0  0  0  0  0  0  0
  1  2  2  0
  2  3  1  0
  3  4  1  0
  4  5  1  0
  5  6  2  0
  5  7  1  0
  7  8  1  0
  8  9  1  0
  9 10  1  0
 10 11  1  0
 11 12  1  0
 12 13  1  0
 13 14  2  0
 14 15  1  0
 15 16  2  0
 16 17  1  0
 17 18  1  0
 17 19  2  0
  2 20  1  0
 20 21  2  0
 21 22  1  0
 22 23  2  0
 23 24  1  0
 24 25  2  0
 25 26  1  0
 26 27  2  0
 27 28  1  0
 28 29  2  0
 12  7  1  0
 19 13  1  0
 29 20  1  0
 28 23  1  0
  3 30  1  0
  4 31  1  0
  4 32  1  0
  8 33  1  0
  8 34  1  0
  9 35  1  0
  9 36  1  0
 10 37  1  0
 10 38  1  0
 11 39  1  0
 11 40  1  0
 12 41  1  6
 14 42  1  0
 15 43  1  0
 16 44  1  0
 19 45  1  0
 21 46  1  0
 22 47  1  0
 24 48  1  0
 25 49  1  0
 26 50  1  0
 27 51  1  0
M  END
>  <smiles>  (26) 
O=C(NCC(=O)N1CCCCC1c1cccc(Cl)c1)c1ccc2ccccc2n1

>  <score_type>  (26) 
oracle

>  <origin>  (26) 
autodockgpu

>  <m_score__min__energy>  (26) 
-9.4100000000000001

>  <m_primary>  (26) 
energy

>  <rmsd>  (26) 
2.0258090801798487

>  <m_score__min__rmsd>  (26) 
2.0258090801798487

>  <meeko>  (26) 
{"free_energy": -9.36, "intermolecular_energy": -10.85, "internal_energy": -1.42, "cluster_size": 19, "cluster_id": 1, "rank_in_cluster": 9}

>  <energy>  (26) 
-9.05

>  <cluster_rmsd>  (26) 
0.22

>  <cluster>  (26) 
2

$$$$

     RDKit          3D

 51 54  0  0  0  0  0  0  0  0999 V2000
  141.3840   72.2160  221.7790 O   0  0  0  0  0  0  0  0  0  0  0  0
  140.4240   72.3800  222.5800 C   0  0  0  0  0  0  0  0  0  0  0  0
  139.5030   73.4380  222.3700 N   0  0  0  0  0  0  0  0  0  0  0  0
  139.6440   74.3330  221.2590 C   0  0  0  0  0  0  0  0  0  0  0  0
  140.4540   75.5290  221.5740 C   0  0  0  0  0  0  0  0  0  0  0  0
  140.3600   76.1130  222.7060 O   0  0  0  0  0  0  0  0  0  0  0  0
  141.3410   76.0040  220.5670 N   0  0  0  0  0  0  0  0  0  0  0  0
  142.3820   75.1790  219.9850 C   0  0  0  0  0  0  0  0  0  0  0  0
  142.4250   75.4260  218.4760 C   0  0  0  0  0  0  0  0  0  0  0  0
  142.6270   76.8760  218.1610 C   0  0  0  0  0  0  0  0  0  0  0  0
  142.5520   77.7240  219.4360 C   0  0  0  0  0  0  0  0  0  0  0  0
  141.2140   77.3650  220.0910 C   0  0  2  0  0  0  0  0  0  0  0  0
  140.8890   78.3360  221.1620 C   0  0  0  0  0  0  0  0  0  0  0  0
  139.5650   78.6430  221.4000 C   0  0  0  0  0  0  0  0  0  0  0  0
  139.2550   79.5520  222.4020 C   0  0  0  0  0  0  0  0  0  0  0  0
  140.2700   80.1270  223.1360 C   0  0  0  0  0  0  0  0  0  0  0  0
  141.6020   79.8020  222.8770 C   0  0  0  0  0  0  0  0  0  0  0  0
  142.8950   80.5200  223.7960 Cl  0  0  0  0  0  0  0  0  0  0  0  0
  141.9330   78.8890  221.8730 C   0  0  0  0  0  0  0  0  0  0  0  0
  140.2330   71.4900  223.7360 C   0  0  0  0  0  0  0  0  0  0  0  0
  139.5760   70.2860  223.5910 C   0  0  0  0  0  0  0  0  0  0  0  0
  139.3910   69.4340  224.6850 C   0  0  0  0  0  0  0  0  0  0  0  0
  139.8850   69.8260  225.9300 C   0  0  0  0  0  0  0  0  0  0  0  0
  139.7410   69.0390  227.0550 C   0  0  0  0  0  0  0  0  0  0  0  0
  140.2560   69.4830  228.2690 C   0  0  0  0  0  0  0  0  0  0  0  0
  140.9100   70.7110  228.3410 C   0  0  0  0  0  0  0  0  0  0  0  0
  141.0620   71.5080  227.2280 C   0  0  0  0  0  0  0  0  0  0  0  0
  140.5370   71.0370  226.0330 C   0  0  0  0  0  0  0  0  0  0  0  0
  140.7030   71.8440  224.9580 N   0  0  0  0  0  0  0  0  0  0  0  0
  138.7170   73.5390  223.0610 H   0  0  0  0  0  0  0  0  0  0  0  0
  140.1273   73.7911  220.4327 H   0  0  0  0  0  0  0  0  0  0  0  0
  138.6360   74.6822  220.9905 H   0  0  0  0  0  0  0  0  0  0  0  0
  143.3531   75.4416  220.4299 H   0  0  0  0  0  0  0  0  0  0  0  0
  142.1705   74.1178  220.1829 H   0  0  0  0  0  0  0  0  0  0  0  0
  143.2544   74.8476  218.0430 H   0  0  0  0  0  0  0  0  0  0  0  0
  141.4617   75.1116  218.0480 H   0  0  0  0  0  0  0  0  0  0  0  0
  143.6148   77.0101  217.6959 H   0  0  0  0  0  0  0  0  0  0  0  0
  141.8332   77.2019  217.4728 H   0  0  0  0  0  0  0  0  0  0  0  0
  143.3869   77.4799  220.1093 H   0  0  0  0  0  0  0  0  0  0  0  0
  142.6215   78.7992  219.2146 H   0  0  0  0  0  0  0  0  0  0  0  0
  140.3736   77.4225  219.3836 H   0  0  0  0  0  0  0  0  0  0  0  0
  138.7674   78.1745  220.8047 H   0  0  0  0  0  0  0  0  0  0  0  0
  138.2063   79.8118  222.6089 H   0  0  0  0  0  0  0  0  0  0  0  0
  140.0283   80.8472  223.9316 H   0  0  0  0  0  0  0  0  0  0  0  0
  142.9788   78.6233  221.6593 H   0  0  0  0  0  0  0  0  0  0  0  0
  139.1927   69.9920  222.6028 H   0  0  0  0  0  0  0  0  0  0  0  0
  138.8667   68.4743  224.5663 H   0  0  0  0  0  0  0  0  0  0  0  0
  139.2240   68.0701  226.9923 H   0  0  0  0  0  0  0  0  0  0  0  0
  140.1467   68.8643  229.1719 H   0  0  0  0  0  0  0  0  0  0  0  0
  141.3132   71.0510  229.3063 H   0  0  0  0  0  0  0  0  0  0  0  0
  141.5782   72.4777  227.2841 H   0  0  0  0  0  0  0  0  0  0  0  0
  1  2  2  0
  2  3  1  0
  3  4  1  0
  4  5  1  0
  5  6  2  0
  5  7  1  0
  7  8  1  0
  8  9  1  0
  9 10  1  0
 10 11  1  0
 11 12  1  0
 12 13  1  0
 13 14  2  0
 14 15  1  0
 15 16  2  0
 16 17  1  0
 17 18  1  0
 17 19  2  0
  2 20  1  0
 20 21  2  0
 21 22  1  0
 22 23  2  0
 23 24  1  0
 24 25  2  0
 25 26  1  0
 26 27  2  0
 27 28  1  0
 28 29  2  0
 12  7  1  0
 19 13  1  0
 29 20  1  0
 28 23  1  0
  3 30  1  0
  4 31  1  0
  4 32  1  0
  8 33  1  0
  8 34  1  0
  9 35  1  0
  9 36  1  0
 10 37  1  0
 10 38  1  0
 11 39  1  0
 11 40  1  0
 12 41  1  6
 14 42  1  0
 15 43  1  0
 16 44  1  0
 19 45  1  0
 21 46  1  0
 22 47  1  0
 24 48  1  0
 25 49  1  0
 26 50  1  0
 27 51  1  0
M  END
>  <smiles>  (27) 
O=C(NCC(=O)N1CCCCC1c1cccc(Cl)c1)c1ccc2ccccc2n1

>  <score_type>  (27) 
oracle

>  <origin>  (27) 
autodockgpu

>  <m_score__min__energy>  (27) 
-9.4100000000000001

>  <m_primary>  (27) 
energy

>  <rmsd>  (27) 
2.0069091354824637

>  <m_score__min__rmsd>  (27) 
2.0069091354824637

>  <meeko>  (27) 
{"free_energy": -9.35, "intermolecular_energy": -10.84, "internal_energy": -1.39, "cluster_size": 19, "cluster_id": 1, "rank_in_cluster": 11}

>  <energy>  (27) 
-9.03

>  <cluster_rmsd>  (27) 
0.19

>  <cluster>  (27) 
2

$$$$

     RDKit          3D

 51 54  0  0  0  0  0  0  0  0999 V2000
  138.8050   75.4970  221.8090 O   0  0  0  0  0  0  0  0  0  0  0  0
  139.9630   75.9820  221.9320 C   0  0  0  0  0  0  0  0  0  0  0  0
  141.0970   75.1890  221.6190 N   0  0  0  0  0  0  0  0  0  0  0  0
  140.9510   73.8370  221.1620 C   0  0  0  0  0  0  0  0  0  0  0  0
  141.1970   73.6830  219.7130 C   0  0  0  0  0  0  0  0  0  0  0  0
  141.1650   72.5350  219.1530 O   0  0  0  0  0  0  0  0  0  0  0  0
  141.4720   74.8630  218.9650 N   0  0  0  0  0  0  0  0  0  0  0  0
  140.5010   75.4730  218.0770 C   0  0  0  0  0  0  0  0  0  0  0  0
  140.5530   76.9920  218.2520 C   0  0  0  0  0  0  0  0  0  0  0  0
  141.9320   77.5260  218.0160 C   0  0  0  0  0  0  0  0  0  0  0  0
  142.9360   76.3800  217.8420 C   0  0  0  0  0  0  0  0  0  0  0  0
  142.7680   75.4960  219.0830 C   0  0  2  0  0  0  0  0  0  0  0  0
  143.8880   74.5300  219.1800 C   0  0  0  0  0  0  0  0  0  0  0  0
  144.2050   73.7690  218.0720 C   0  0  0  0  0  0  0  0  0  0  0  0
  145.2520   72.8620  218.1580 C   0  0  0  0  0  0  0  0  0  0  0  0
  145.9520   72.7400  219.3380 C   0  0  0  0  0  0  0  0  0  0  0  0
  145.6140   73.5200  220.4450 C   0  0  0  0  0  0  0  0  0  0  0  0
  146.4880   73.3780  221.9430 Cl  0  0  0  0  0  0  0  0  0  0  0  0
  144.5630   74.4380  220.3790 C   0  0  0  0  0  0  0  0  0  0  0  0
  140.1680   77.3630  222.3970 C   0  0  0  0  0  0  0  0  0  0  0  0
  139.0870   78.1660  222.6960 C   0  0  0  0  0  0  0  0  0  0  0  0
  139.2730   79.4800  223.1390 C   0  0  0  0  0  0  0  0  0  0  0  0
  140.5750   79.9650  223.2720 C   0  0  0  0  0  0  0  0  0  0  0  0
  140.8370   81.2500  223.7030 C   0  0  0  0  0  0  0  0  0  0  0  0
  142.1570   81.6750  223.8160 C   0  0  0  0  0  0  0  0  0  0  0  0
  143.1990   80.8080  223.4970 C   0  0  0  0  0  0  0  0  0  0  0  0
  142.9540   79.5220  223.0660 C   0  0  0  0  0  0  0  0  0  0  0  0
  141.6280   79.1290  222.9630 C   0  0  0  0  0  0  0  0  0  0  0  0
  141.4210   77.8600  222.5360 N   0  0  0  0  0  0  0  0  0  0  0  0
  142.0430   75.6310  221.7350 H   0  0  0  0  0  0  0  0  0  0  0  0
  141.6667   73.2043  221.7074 H   0  0  0  0  0  0  0  0  0  0  0  0
  139.9091   73.5387  221.3504 H   0  0  0  0  0  0  0  0  0  0  0  0
  140.7395   75.2132  217.0351 H   0  0  0  0  0  0  0  0  0  0  0  0
  139.4930   75.1049  218.3186 H   0  0  0  0  0  0  0  0  0  0  0  0
  139.8618   77.4581  217.5344 H   0  0  0  0  0  0  0  0  0  0  0  0
  140.2637   77.2298  219.2863 H   0  0  0  0  0  0  0  0  0  0  0  0
  141.9288   78.1442  217.1062 H   0  0  0  0  0  0  0  0  0  0  0  0
  142.2311   78.1284  218.8864 H   0  0  0  0  0  0  0  0  0  0  0  0
  142.7121   75.8080  216.9295 H   0  0  0  0  0  0  0  0  0  0  0  0
  143.9664   76.7519  217.7425 H   0  0  0  0  0  0  0  0  0  0  0  0
  142.8023   76.0758  220.0172 H   0  0  0  0  0  0  0  0  0  0  0  0
  143.6369   73.8799  217.1366 H   0  0  0  0  0  0  0  0  0  0  0  0
  145.5213   72.2441  217.2887 H   0  0  0  0  0  0  0  0  0  0  0  0
  146.7831   72.0229  219.4084 H   0  0  0  0  0  0  0  0  0  0  0  0
  144.2866   75.0590  221.2438 H   0  0  0  0  0  0  0  0  0  0  0  0
  138.0673   77.7688  222.5849 H   0  0  0  0  0  0  0  0  0  0  0  0
  138.4098   80.1186  223.3779 H   0  0  0  0  0  0  0  0  0  0  0  0
  140.0106   81.9310  223.9545 H   0  0  0  0  0  0  0  0  0  0  0  0
  142.3778   82.6970  224.1577 H   0  0  0  0  0  0  0  0  0  0  0  0
  144.2381   81.1564  223.5909 H   0  0  0  0  0  0  0  0  0  0  0  0
  143.7760   78.8358  222.8142 H   0  0  0  0  0  0  0  0  0  0  0  0
  1  2  2  0
  2  3  1  0
  3  4  1  0
  4  5  1  0
  5  6  2  0
  5  7  1  0
  7  8  1  0
  8  9  1  0
  9 10  1  0
 10 11  1  0
 11 12  1  0
 12 13  1  0
 13 14  2  0
 14 15  1  0
 15 16  2  0
 16 17  1  0
 17 18  1  0
 17 19  2  0
  2 20  1  0
 20 21  2  0
 21 22  1  0
 22 23  2  0
 23 24  1  0
 24 25  2  0
 25 26  1  0
 26 27  2  0
 27 28  1  0
 28 29  2  0
 12  7  1  0
 19 13  1  0
 29 20  1  0
 28 23  1  0
  3 30  1  0
  4 31  1  0
  4 32  1  0
  8 33  1  0
  8 34  1  0
  9 35  1  0
  9 36  1  0
 10 37  1  0
 10 38  1  0
 11 39  1  0
 11 40  1  0
 12 41  1  1
 14 42  1  0
 15 43  1  0
 16 44  1  0
 19 45  1  0
 21 46  1  0
 22 47  1  0
 24 48  1  0
 25 49  1  0
 26 50  1  0
 27 51  1  0
M  END
>  <smiles>  (28) 
O=C(NCC(=O)N1CCCCC1c1cccc(Cl)c1)c1ccc2ccccc2n1

>  <score_type>  (28) 
oracle

>  <origin>  (28) 
autodockgpu

>  <m_score__min__energy>  (28) 
-9.4100000000000001

>  <m_primary>  (28) 
energy

>  <rmsd>  (28) 
7.223921941277293

>  <m_score__min__rmsd>  (28) 
7.223921941277293

>  <meeko>  (28) 
{"free_energy": -7.78, "intermolecular_energy": -9.27, "internal_energy": -2.46, "cluster_size": 5, "cluster_id": 4, "rank_in_cluster": 4}

>  <energy>  (28) 
-9.02

>  <cluster_rmsd>  (28) 
0.14

>  <cluster>  (28) 
2

$$$$

     RDKit          3D

 51 54  0  0  0  0  0  0  0  0999 V2000
  140.9720   71.6420  221.3840 O   0  0  0  0  0  0  0  0  0  0  0  0
  140.4270   72.1550  222.3990 C   0  0  0  0  0  0  0  0  0  0  0  0
  139.9900   73.5040  222.3590 N   0  0  0  0  0  0  0  0  0  0  0  0
  140.1580   74.3010  221.1790 C   0  0  0  0  0  0  0  0  0  0  0  0
  140.7540   75.6260  221.4530 C   0  0  0  0  0  0  0  0  0  0  0  0
  140.6890   76.1550  222.6140 O   0  0  0  0  0  0  0  0  0  0  0  0
  141.4020   76.2900  220.3740 N   0  0  0  0  0  0  0  0  0  0  0  0
  142.4300   75.6590  219.5680 C   0  0  0  0  0  0  0  0  0  0  0  0
  142.1990   76.0180  218.0990 C   0  0  0  0  0  0  0  0  0  0  0  0
  142.1680   77.5020  217.8940 C   0  0  0  0  0  0  0  0  0  0  0  0
  142.1960   78.2370  219.2400 C   0  0  0  0  0  0  0  0  0  0  0  0
  141.0340   77.6520  220.0510 C   0  0  2  0  0  0  0  0  0  0  0  0
  140.7700   78.4890  221.2450 C   0  0  0  0  0  0  0  0  0  0  0  0
  139.4650   78.6520  221.6650 C   0  0  0  0  0  0  0  0  0  0  0  0
  139.2110   79.4360  222.7820 C   0  0  0  0  0  0  0  0  0  0  0  0
  140.2610   80.0320  223.4470 C   0  0  0  0  0  0  0  0  0  0  0  0
  141.5720   79.8530  223.0040 C   0  0  0  0  0  0  0  0  0  0  0  0
  142.9080   80.6000  223.8340 Cl  0  0  0  0  0  0  0  0  0  0  0  0
  141.8470   79.0680  221.8820 C   0  0  0  0  0  0  0  0  0  0  0  0
  140.2300   71.3800  223.6340 C   0  0  0  0  0  0  0  0  0  0  0  0
  139.5910   70.1580  223.5980 C   0  0  0  0  0  0  0  0  0  0  0  0
  139.4000   69.4150  224.7680 C   0  0  0  0  0  0  0  0  0  0  0  0
  139.8680   69.9340  225.9760 C   0  0  0  0  0  0  0  0  0  0  0  0
  139.7170   69.2590  227.1700 C   0  0  0  0  0  0  0  0  0  0  0  0
  140.2060   69.8280  228.3420 C   0  0  0  0  0  0  0  0  0  0  0  0
  140.8420   71.0670  228.3030 C   0  0  0  0  0  0  0  0  0  0  0  0
  141.0020   71.7530  227.1190 C   0  0  0  0  0  0  0  0  0  0  0  0
  140.5030   71.1590  225.9680 C   0  0  0  0  0  0  0  0  0  0  0  0
  140.6750   71.8590  224.8220 N   0  0  0  0  0  0  0  0  0  0  0  0
  139.5400   73.8920  223.2260 H   0  0  0  0  0  0  0  0  0  0  0  0
  140.8142   73.7596  220.4816 H   0  0  0  0  0  0  0  0  0  0  0  0
  139.1578   74.4731  220.7548 H   0  0  0  0  0  0  0  0  0  0  0  0
  143.4200   76.0189  219.8846 H   0  0  0  0  0  0  0  0  0  0  0  0
  142.3857   74.5674  219.6959 H   0  0  0  0  0  0  0  0  0  0  0  0
  143.0127   75.5907  217.4945 H   0  0  0  0  0  0  0  0  0  0  0  0
  141.2257   75.6071  217.7925 H   0  0  0  0  0  0  0  0  0  0  0  0
  143.0439   77.8027  217.3003 H   0  0  0  0  0  0  0  0  0  0  0  0
  141.2397   77.7664  217.3664 H   0  0  0  0  0  0  0  0  0  0  0  0
  143.1517   78.0597  219.7549 H   0  0  0  0  0  0  0  0  0  0  0  0
  142.0974   79.3251  219.1127 H   0  0  0  0  0  0  0  0  0  0  0  0
  140.0905   77.6459  219.4855 H   0  0  0  0  0  0  0  0  0  0  0  0
  138.6392   78.1681  221.1228 H   0  0  0  0  0  0  0  0  0  0  0  0
  138.1789   79.5806  223.1340 H   0  0  0  0  0  0  0  0  0  0  0  0
  140.0640   80.6531  224.3332 H   0  0  0  0  0  0  0  0  0  0  0  0
  142.8759   78.9185  221.5229 H   0  0  0  0  0  0  0  0  0  0  0  0
  139.2273   69.7630  222.6380 H   0  0  0  0  0  0  0  0  0  0  0  0
  138.8907   68.4405  224.7364 H   0  0  0  0  0  0  0  0  0  0  0  0
  139.2149   68.2806  227.1951 H   0  0  0  0  0  0  0  0  0  0  0  0
  140.0903   69.2993  229.2997 H   0  0  0  0  0  0  0  0  0  0  0  0
  141.2241   71.5063  229.2363 H   0  0  0  0  0  0  0  0  0  0  0  0
  141.5044   72.7310  227.0871 H   0  0  0  0  0  0  0  0  0  0  0  0
  1  2  2  0
  2  3  1  0
  3  4  1  0
  4  5  1  0
  5  6  2  0
  5  7  1  0
  7  8  1  0
  8  9  1  0
  9 10  1  0
 10 11  1  0
 11 12  1  0
 12 13  1  0
 13 14  2  0
 14 15  1  0
 15 16  2  0
 16 17  1  0
 17 18  1  0
 17 19  2  0
  2 20  1  0
 20 21  2  0
 21 22  1  0
 22 23  2  0
 23 24  1  0
 24 25  2  0
 25 26  1  0
 26 27  2  0
 27 28  1  0
 28 29  2  0
 12  7  1  0
 19 13  1  0
 29 20  1  0
 28 23  1  0
  3 30  1  0
  4 31  1  0
  4 32  1  0
  8 33  1  0
  8 34  1  0
  9 35  1  0
  9 36  1  0
 10 37  1  0
 10 38  1  0
 11 39  1  0
 11 40  1  0
 12 41  1  6
 14 42  1  0
 15 43  1  0
 16 44  1  0
 19 45  1  0
 21 46  1  0
 22 47  1  0
 24 48  1  0
 25 49  1  0
 26 50  1  0
 27 51  1  0
M  END
>  <smiles>  (29) 
O=C(NCC(=O)N1CCCCC1c1cccc(Cl)c1)c1ccc2ccccc2n1

>  <score_type>  (29) 
oracle

>  <origin>  (29) 
autodockgpu

>  <m_score__min__energy>  (29) 
-9.4100000000000001

>  <m_primary>  (29) 
energy

>  <rmsd>  (29) 
2.0160644535011465

>  <m_score__min__rmsd>  (29) 
2.0160644535011465

>  <meeko>  (29) 
{"free_energy": -9.38, "intermolecular_energy": -10.87, "internal_energy": -1.49, "cluster_size": 19, "cluster_id": 1, "rank_in_cluster": 7}

>  <energy>  (29) 
-9.02

>  <cluster_rmsd>  (29) 
0.24

>  <cluster>  (29) 
2

$$$$

     RDKit          3D

 51 54  0  0  0  0  0  0  0  0999 V2000
  140.2920   71.7370  221.0610 O   0  0  0  0  0  0  0  0  0  0  0  0
  140.0280   72.2420  222.1870 C   0  0  0  0  0  0  0  0  0  0  0  0
  139.7330   73.6250  222.2880 N   0  0  0  0  0  0  0  0  0  0  0  0
  139.7270   74.4680  221.1270 C   0  0  0  0  0  0  0  0  0  0  0  0
  140.8400   75.4410  221.1100 C   0  0  0  0  0  0  0  0  0  0  0  0
  141.4110   75.8150  222.1910 O   0  0  0  0  0  0  0  0  0  0  0  0
  141.2500   75.9470  219.8450 N   0  0  0  0  0  0  0  0  0  0  0  0
  140.3330   76.5830  218.9190 C   0  0  0  0  0  0  0  0  0  0  0  0
  141.0150   77.8080  218.3060 C   0  0  0  0  0  0  0  0  0  0  0  0
  142.3070   77.4420  217.6430 C   0  0  0  0  0  0  0  0  0  0  0  0
  142.6670   75.9780  217.9220 C   0  0  0  0  0  0  0  0  0  0  0  0
  142.6370   75.8320  219.4470 C   0  0  2  0  0  0  0  0  0  0  0  0
  143.2610   74.5500  219.8510 C   0  0  0  0  0  0  0  0  0  0  0  0
  142.5890   73.3730  219.5870 C   0  0  0  0  0  0  0  0  0  0  0  0
  143.1680   72.1690  219.9650 C   0  0  0  0  0  0  0  0  0  0  0  0
  144.3950   72.1720  220.5910 C   0  0  0  0  0  0  0  0  0  0  0  0
  145.0560   73.3740  220.8480 C   0  0  0  0  0  0  0  0  0  0  0  0
  146.6070   73.3930  221.6390 Cl  0  0  0  0  0  0  0  0  0  0  0  0
  144.4890   74.5950  220.4760 C   0  0  0  0  0  0  0  0  0  0  0  0
  140.0200   71.4220  223.4080 C   0  0  0  0  0  0  0  0  0  0  0  0
  139.5350   70.1310  223.3800 C   0  0  0  0  0  0  0  0  0  0  0  0
  139.5230   69.3450  224.5370 C   0  0  0  0  0  0  0  0  0  0  0  0
  140.0130   69.8910  225.7230 C   0  0  0  0  0  0  0  0  0  0  0  0
  140.0350   69.1770  226.9050 C   0  0  0  0  0  0  0  0  0  0  0  0
  140.5370   69.7760  228.0550 C   0  0  0  0  0  0  0  0  0  0  0  0
  141.0120   71.0850  228.0090 C   0  0  0  0  0  0  0  0  0  0  0  0
  140.9980   71.8120  226.8390 C   0  0  0  0  0  0  0  0  0  0  0  0
  140.4910   71.1860  225.7090 C   0  0  0  0  0  0  0  0  0  0  0  0
  140.4900   71.9270  224.5760 N   0  0  0  0  0  0  0  0  0  0  0  0
  139.5190   74.0060  223.2440 H   0  0  0  0  0  0  0  0  0  0  0  0
  139.8042   73.8323  220.2326 H   0  0  0  0  0  0  0  0  0  0  0  0
  138.7894   75.0430  221.1445 H   0  0  0  0  0  0  0  0  0  0  0  0
  140.0623   75.8743  218.1225 H   0  0  0  0  0  0  0  0  0  0  0  0
  139.4216   76.8923  219.4516 H   0  0  0  0  0  0  0  0  0  0  0  0
  140.3432   78.2543  217.5580 H   0  0  0  0  0  0  0  0  0  0  0  0
  141.2316   78.5228  219.1135 H   0  0  0  0  0  0  0  0  0  0  0  0
  142.2093   77.5887  216.5572 H   0  0  0  0  0  0  0  0  0  0  0  0
  143.1042   78.0839  218.0461 H   0  0  0  0  0  0  0  0  0  0  0  0
  141.9308   75.3058  217.4570 H   0  0  0  0  0  0  0  0  0  0  0  0
  143.6504   75.7134  217.5062 H   0  0  0  0  0  0  0  0  0  0  0  0
  143.2226   76.6132  219.9536 H   0  0  0  0  0  0  0  0  0  0  0  0
  141.6103   73.3890  219.0851 H   0  0  0  0  0  0  0  0  0  0  0  0
  142.6503   71.2191  219.7659 H   0  0  0  0  0  0  0  0  0  0  0  0
  144.8573   71.2199  220.8906 H   0  0  0  0  0  0  0  0  0  0  0  0
  144.9992   75.5494  220.6728 H   0  0  0  0  0  0  0  0  0  0  0  0
  139.1530   69.7145  222.4363 H   0  0  0  0  0  0  0  0  0  0  0  0
  139.1346   68.3162  224.5119 H   0  0  0  0  0  0  0  0  0  0  0  0
  139.6588   68.1438  226.9364 H   0  0  0  0  0  0  0  0  0  0  0  0
  140.5591   69.2161  229.0016 H   0  0  0  0  0  0  0  0  0  0  0  0
  141.4063   71.5475  228.9259 H   0  0  0  0  0  0  0  0  0  0  0  0
  141.3730   72.8454  226.8020 H   0  0  0  0  0  0  0  0  0  0  0  0
  1  2  2  0
  2  3  1  0
  3  4  1  0
  4  5  1  0
  5  6  2  0
  5  7  1  0
  7  8  1  0
  8  9  1  0
  9 10  1  0
 10 11  1  0
 11 12  1  0
 12 13  1  0
 13 14  2  0
 14 15  1  0
 15 16  2  0
 16 17  1  0
 17 18  1  0
 17 19  2  0
  2 20  1  0
 20 21  2  0
 21 22  1  0
 22 23  2  0
 23 24  1  0
 24 25  2  0
 25 26  1  0
 26 27  2  0
 27 28  1  0
 28 29  2  0
 12  7  1  0
 19 13  1  0
 29 20  1  0
 28 23  1  0
  3 30  1  0
  4 31  1  0
  4 32  1  0
  8 33  1  0
  8 34  1  0
  9 35  1  0
  9 36  1  0
 10 37  1  0
 10 38  1  0
 11 39  1  0
 11 40  1  0
 12 41  1  1
 14 42  1  0
 15 43  1  0
 16 44  1  0
 19 45  1  0
 21 46  1  0
 22 47  1  0
 24 48  1  0
 25 49  1  0
 26 50  1  0
 27 51  1  0
M  END
>  <smiles>  (30) 
O=C(NCC(=O)N1CCCCC1c1cccc(Cl)c1)c1ccc2ccccc2n1

>  <score_type>  (30) 
oracle

>  <origin>  (30) 
autodockgpu

>  <m_score__min__energy>  (30) 
-9.4100000000000001

>  <m_primary>  (30) 
energy

>  <rmsd>  (30) 
1.7287837077980504

>  <m_score__min__rmsd>  (30) 
1.7287837077980504

>  <meeko>  (30) 
{"free_energy": -8.75, "intermolecular_energy": -10.25, "internal_energy": -1.98, "cluster_size": 23, "cluster_id": 2, "rank_in_cluster": 19}

>  <energy>  (30) 
-9.02

>  <cluster_rmsd>  (30) 
0.26

>  <cluster>  (30) 
2

$$$$

     RDKit          3D

 51 54  0  0  0  0  0  0  0  0999 V2000
  140.9250   71.5630  221.3240 O   0  0  0  0  0  0  0  0  0  0  0  0
  140.4050   72.1040  222.3380 C   0  0  0  0  0  0  0  0  0  0  0  0
  139.9600   73.4490  222.2700 N   0  0  0  0  0  0  0  0  0  0  0  0
  140.0910   74.2120  221.0630 C   0  0  0  0  0  0  0  0  0  0  0  0
  141.0340   75.3430  221.1890 C   0  0  0  0  0  0  0  0  0  0  0  0
  141.4390   75.7440  222.3330 O   0  0  0  0  0  0  0  0  0  0  0  0
  141.4730   75.9680  219.9890 N   0  0  0  0  0  0  0  0  0  0  0  0
  140.5720   76.6670  219.0920 C   0  0  0  0  0  0  0  0  0  0  0  0
  141.2450   77.9550  218.6150 C   0  0  0  0  0  0  0  0  0  0  0  0
  142.5660   77.6770  217.9670 C   0  0  0  0  0  0  0  0  0  0  0  0
  142.9500   76.2010  218.1260 C   0  0  0  0  0  0  0  0  0  0  0  0
  142.8750   75.9180  219.6310 C   0  0  2  0  0  0  0  0  0  0  0  0
  143.5140   74.6180  219.9410 C   0  0  0  0  0  0  0  0  0  0  0  0
  142.9360   73.4610  219.4570 C   0  0  0  0  0  0  0  0  0  0  0  0
  143.5300   72.2410  219.7450 C   0  0  0  0  0  0  0  0  0  0  0  0
  144.6810   72.2070  220.5030 C   0  0  0  0  0  0  0  0  0  0  0  0
  145.2480   73.3880  220.9810 C   0  0  0  0  0  0  0  0  0  0  0  0
  146.7010   73.3610  221.9390 Cl  0  0  0  0  0  0  0  0  0  0  0  0
  144.6640   74.6260  220.7020 C   0  0  0  0  0  0  0  0  0  0  0  0
  140.2470   71.3650  223.6010 C   0  0  0  0  0  0  0  0  0  0  0  0
  139.6220   70.1360  223.6170 C   0  0  0  0  0  0  0  0  0  0  0  0
  139.4680   69.4270  224.8130 C   0  0  0  0  0  0  0  0  0  0  0  0
  139.9590   69.9880  225.9930 C   0  0  0  0  0  0  0  0  0  0  0  0
  139.8440   69.3490  227.2110 C   0  0  0  0  0  0  0  0  0  0  0  0
  140.3550   69.9590  228.3520 C   0  0  0  0  0  0  0  0  0  0  0  0
  140.9750   71.2030  228.2600 C   0  0  0  0  0  0  0  0  0  0  0  0
  141.0980   71.8540  227.0520 C   0  0  0  0  0  0  0  0  0  0  0  0
  140.5780   71.2190  225.9330 C   0  0  0  0  0  0  0  0  0  0  0  0
  140.7150   71.8860  224.7620 N   0  0  0  0  0  0  0  0  0  0  0  0
  139.5320   73.8610  223.1370 H   0  0  0  0  0  0  0  0  0  0  0  0
  140.4494   73.5452  220.2650 H   0  0  0  0  0  0  0  0  0  0  0  0
  139.1016   74.6350  220.8345 H   0  0  0  0  0  0  0  0  0  0  0  0
  140.3437   76.0277  218.2264 H   0  0  0  0  0  0  0  0  0  0  0  0
  139.6369   76.9090  219.6184 H   0  0  0  0  0  0  0  0  0  0  0  0
  140.5877   78.4532  217.8872 H   0  0  0  0  0  0  0  0  0  0  0  0
  141.4188   78.5980  219.4904 H   0  0  0  0  0  0  0  0  0  0  0  0
  142.5005   77.9194  216.8960 H   0  0  0  0  0  0  0  0  0  0  0  0
  143.3346   78.2959  218.4531 H   0  0  0  0  0  0  0  0  0  0  0  0
  142.2442   75.5590  217.5785 H   0  0  0  0  0  0  0  0  0  0  0  0
  143.9517   75.9941  217.7213 H   0  0  0  0  0  0  0  0  0  0  0  0
  143.4265   76.6621  220.2244 H   0  0  0  0  0  0  0  0  0  0  0  0
  142.0183   73.5062  218.8522 H   0  0  0  0  0  0  0  0  0  0  0  0
  143.0856   71.3068  219.3710 H   0  0  0  0  0  0  0  0  0  0  0  0
  145.1555   71.2415  220.7324 H   0  0  0  0  0  0  0  0  0  0  0  0
  145.1017   75.5647  221.0726 H   0  0  0  0  0  0  0  0  0  0  0  0
  139.2400   69.7081  222.6784 H   0  0  0  0  0  0  0  0  0  0  0  0
  138.9696   68.4464  224.8233 H   0  0  0  0  0  0  0  0  0  0  0  0
  139.3531   68.3670  227.2788 H   0  0  0  0  0  0  0  0  0  0  0  0
  140.2694   69.4585  229.3278 H   0  0  0  0  0  0  0  0  0  0  0  0
  141.3743   71.6749  229.1698 H   0  0  0  0  0  0  0  0  0  0  0  0
  141.5879   72.8361  226.9776 H   0  0  0  0  0  0  0  0  0  0  0  0
  1  2  2  0
  2  3  1  0
  3  4  1  0
  4  5  1  0
  5  6  2  0
  5  7  1  0
  7  8  1  0
  8  9  1  0
  9 10  1  0
 10 11  1  0
 11 12  1  0
 12 13  1  0
 13 14  2  0
 14 15  1  0
 15 16  2  0
 16 17  1  0
 17 18  1  0
 17 19  2  0
  2 20  1  0
 20 21  2  0
 21 22  1  0
 22 23  2  0
 23 24  1  0
 24 25  2  0
 25 26  1  0
 26 27  2  0
 27 28  1  0
 28 29  2  0
 12  7  1  0
 19 13  1  0
 29 20  1  0
 28 23  1  0
  3 30  1  0
  4 31  1  0
  4 32  1  0
  8 33  1  0
  8 34  1  0
  9 35  1  0
  9 36  1  0
 10 37  1  0
 10 38  1  0
 11 39  1  0
 11 40  1  0
 12 41  1  1
 14 42  1  0
 15 43  1  0
 16 44  1  0
 19 45  1  0
 21 46  1  0
 22 47  1  0
 24 48  1  0
 25 49  1  0
 26 50  1  0
 27 51  1  0
M  END
>  <smiles>  (31) 
O=C(NCC(=O)N1CCCCC1c1cccc(Cl)c1)c1ccc2ccccc2n1

>  <score_type>  (31) 
oracle

>  <origin>  (31) 
autodockgpu

>  <m_score__min__energy>  (31) 
-9.4100000000000001

>  <m_primary>  (31) 
energy

>  <rmsd>  (31) 
1.907076891993041

>  <m_score__min__rmsd>  (31) 
1.907076891993041

>  <meeko>  (31) 
{"free_energy": -9.06, "intermolecular_energy": -10.55, "internal_energy": -1.9, "cluster_size": 23, "cluster_id": 2, "rank_in_cluster": 4}

>  <energy>  (31) 
-9.0

>  <cluster_rmsd>  (31) 
0.28

>  <cluster>  (31) 
2

$$$$

     RDKit          3D

 51 54  0  0  0  0  0  0  0  0999 V2000
  138.7260   75.6620  221.6560 O   0  0  0  0  0  0  0  0  0  0  0  0
  139.8800   76.0610  221.9700 C   0  0  0  0  0  0  0  0  0  0  0  0
  140.9910   75.1920  221.8260 N   0  0  0  0  0  0  0  0  0  0  0  0
  140.8270   73.8570  221.3270 C   0  0  0  0  0  0  0  0  0  0  0  0
  141.1730   73.7240  219.8970 C   0  0  0  0  0  0  0  0  0  0  0  0
  141.2670   72.5780  219.3410 O   0  0  0  0  0  0  0  0  0  0  0  0
  141.4000   74.9220  219.1620 N   0  0  0  0  0  0  0  0  0  0  0  0
  140.3890   75.5270  218.3150 C   0  0  0  0  0  0  0  0  0  0  0  0
  140.4150   77.0430  218.5170 C   0  0  0  0  0  0  0  0  0  0  0  0
  141.7740   77.6100  218.2480 C   0  0  0  0  0  0  0  0  0  0  0  0
  142.7970   76.4900  218.0230 C   0  0  0  0  0  0  0  0  0  0  0  0
  142.6860   75.5810  219.2520 C   0  0  2  0  0  0  0  0  0  0  0  0
  143.8280   74.6380  219.2980 C   0  0  0  0  0  0  0  0  0  0  0  0
  144.1690   73.9530  218.1480 C   0  0  0  0  0  0  0  0  0  0  0  0
  145.2370   73.0680  218.1850 C   0  0  0  0  0  0  0  0  0  0  0  0
  145.9340   72.8910  219.3610 C   0  0  0  0  0  0  0  0  0  0  0  0
  145.5710   73.5940  220.5100 C   0  0  0  0  0  0  0  0  0  0  0  0
  146.4410   73.3820  222.0030 Cl  0  0  0  0  0  0  0  0  0  0  0  0
  144.4980   74.4890  220.4930 C   0  0  0  0  0  0  0  0  0  0  0  0
  140.1030   77.4210  222.4870 C   0  0  0  0  0  0  0  0  0  0  0  0
  139.0350   78.2170  222.8440 C   0  0  0  0  0  0  0  0  0  0  0  0
  139.2380   79.5110  223.3360 C   0  0  0  0  0  0  0  0  0  0  0  0
  140.5460   79.9820  223.4590 C   0  0  0  0  0  0  0  0  0  0  0  0
  140.8250   81.2470  223.9370 C   0  0  0  0  0  0  0  0  0  0  0  0
  142.1500   81.6600  224.0380 C   0  0  0  0  0  0  0  0  0  0  0  0
  143.1790   80.8020  223.6600 C   0  0  0  0  0  0  0  0  0  0  0  0
  142.9170   79.5370  223.1810 C   0  0  0  0  0  0  0  0  0  0  0  0
  141.5860   79.1540  223.0920 C   0  0  0  0  0  0  0  0  0  0  0  0
  141.3630   77.9060  222.6180 N   0  0  0  0  0  0  0  0  0  0  0  0
  141.9350   75.5640  222.1000 H   0  0  0  0  0  0  0  0  0  0  0  0
  141.4755   73.1845  221.9077 H   0  0  0  0  0  0  0  0  0  0  0  0
  139.7633   73.5971  221.4316 H   0  0  0  0  0  0  0  0  0  0  0  0
  140.6007   75.2913  217.2616 H   0  0  0  0  0  0  0  0  0  0  0  0
  139.3968   75.1329  218.5798 H   0  0  0  0  0  0  0  0  0  0  0  0
  139.6918   77.5074  217.8304 H   0  0  0  0  0  0  0  0  0  0  0  0
  140.1538   77.2558  219.5641 H   0  0  0  0  0  0  0  0  0  0  0  0
  141.7292   78.2432  217.3496 H   0  0  0  0  0  0  0  0  0  0  0  0
  142.0871   78.2034  219.1197 H   0  0  0  0  0  0  0  0  0  0  0  0
  142.5580   75.9293  217.1073 H   0  0  0  0  0  0  0  0  0  0  0  0
  143.8156   76.8865  217.8993 H   0  0  0  0  0  0  0  0  0  0  0  0
  142.7371   76.1453  220.1949 H   0  0  0  0  0  0  0  0  0  0  0  0
  143.6028   74.1067  217.2175 H   0  0  0  0  0  0  0  0  0  0  0  0
  145.5257   72.5110  217.2814 H   0  0  0  0  0  0  0  0  0  0  0  0
  146.7819   72.1910  219.3937 H   0  0  0  0  0  0  0  0  0  0  0  0
  144.2017   75.0489  221.3923 H   0  0  0  0  0  0  0  0  0  0  0  0
  138.0106   77.8298  222.7407 H   0  0  0  0  0  0  0  0  0  0  0  0
  138.3844   80.1440  223.6200 H   0  0  0  0  0  0  0  0  0  0  0  0
  140.0084   81.9212  224.2348 H   0  0  0  0  0  0  0  0  0  0  0  0
  142.3846   82.6657  224.4170 H   0  0  0  0  0  0  0  0  0  0  0  0
  144.2221   81.1407  223.7455 H   0  0  0  0  0  0  0  0  0  0  0  0
  143.7294   78.8585  222.8814 H   0  0  0  0  0  0  0  0  0  0  0  0
  1  2  2  0
  2  3  1  0
  3  4  1  0
  4  5  1  0
  5  6  2  0
  5  7  1  0
  7  8  1  0
  8  9  1  0
  9 10  1  0
 10 11  1  0
 11 12  1  0
 12 13  1  0
 13 14  2  0
 14 15  1  0
 15 16  2  0
 16 17  1  0
 17 18  1  0
 17 19  2  0
  2 20  1  0
 20 21  2  0
 21 22  1  0
 22 23  2  0
 23 24  1  0
 24 25  2  0
 25 26  1  0
 26 27  2  0
 27 28  1  0
 28 29  2  0
 12  7  1  0
 19 13  1  0
 29 20  1  0
 28 23  1  0
  3 30  1  0
  4 31  1  0
  4 32  1  0
  8 33  1  0
  8 34  1  0
  9 35  1  0
  9 36  1  0
 10 37  1  0
 10 38  1  0
 11 39  1  0
 11 40  1  0
 12 41  1  1
 14 42  1  0
 15 43  1  0
 16 44  1  0
 19 45  1  0
 21 46  1  0
 22 47  1  0
 24 48  1  0
 25 49  1  0
 26 50  1  0
 27 51  1  0
M  END
>  <smiles>  (32) 
O=C(NCC(=O)N1CCCCC1c1cccc(Cl)c1)c1ccc2ccccc2n1

>  <score_type>  (32) 
oracle

>  <origin>  (32) 
autodockgpu

>  <m_score__min__energy>  (32) 
-9.4100000000000001

>  <m_primary>  (32) 
energy

>  <rmsd>  (32) 
7.191038098601096

>  <m_score__min__rmsd>  (32) 
7.191038098601096

>  <meeko>  (32) 
{"free_energy": -7.72, "intermolecular_energy": -9.21, "internal_energy": -2.52, "cluster_size": 5, "cluster_id": 4, "rank_in_cluster": 5}

>  <energy>  (32) 
-8.97

>  <cluster_rmsd>  (32) 
0.43

>  <cluster>  (32) 
2

$$$$

     RDKit          3D

 51 54  0  0  0  0  0  0  0  0999 V2000
  141.1000   71.4990  221.3480 O   0  0  0  0  0  0  0  0  0  0  0  0
  140.5230   72.0680  222.3140 C   0  0  0  0  0  0  0  0  0  0  0  0
  140.0940   73.4140  222.1860 N   0  0  0  0  0  0  0  0  0  0  0  0
  140.3050   74.1460  220.9710 C   0  0  0  0  0  0  0  0  0  0  0  0
  141.0800   75.3890  221.1690 C   0  0  0  0  0  0  0  0  0  0  0  0
  141.3100   75.8480  222.3390 O   0  0  0  0  0  0  0  0  0  0  0  0
  141.5600   76.0550  220.0060 N   0  0  0  0  0  0  0  0  0  0  0  0
  140.6980   76.8300  219.1340 C   0  0  0  0  0  0  0  0  0  0  0  0
  141.4260   78.1130  218.7290 C   0  0  0  0  0  0  0  0  0  0  0  0
  142.7440   77.8170  218.0840 C   0  0  0  0  0  0  0  0  0  0  0  0
  143.0710   76.3210  218.1750 C   0  0  0  0  0  0  0  0  0  0  0  0
  142.9630   75.9680  219.6630 C   0  0  2  0  0  0  0  0  0  0  0  0
  143.5490   74.6310  219.9160 C   0  0  0  0  0  0  0  0  0  0  0  0
  144.6540   74.5360  220.7380 C   0  0  0  0  0  0  0  0  0  0  0  0
  145.2080   73.2870  220.9780 C   0  0  0  0  0  0  0  0  0  0  0  0
  144.6470   72.1710  220.3960 C   0  0  0  0  0  0  0  0  0  0  0  0
  143.5300   72.2910  219.5690 C   0  0  0  0  0  0  0  0  0  0  0  0
  142.8100   70.8900  218.8260 Cl  0  0  0  0  0  0  0  0  0  0  0  0
  142.9590   73.5400  219.3150 C   0  0  0  0  0  0  0  0  0  0  0  0
  140.2820   71.3620  223.5820 C   0  0  0  0  0  0  0  0  0  0  0  0
  139.5970   70.1650  223.5960 C   0  0  0  0  0  0  0  0  0  0  0  0
  139.3640   69.4870  224.7970 C   0  0  0  0  0  0  0  0  0  0  0  0
  139.8380   70.0460  225.9850 C   0  0  0  0  0  0  0  0  0  0  0  0
  139.6460   69.4360  227.2090 C   0  0  0  0  0  0  0  0  0  0  0  0
  140.1430   70.0420  228.3580 C   0  0  0  0  0  0  0  0  0  0  0  0
  140.8270   71.2520  228.2680 C   0  0  0  0  0  0  0  0  0  0  0  0
  141.0260   71.8740  227.0550 C   0  0  0  0  0  0  0  0  0  0  0  0
  140.5180   71.2440  225.9280 C   0  0  0  0  0  0  0  0  0  0  0  0
  140.7310   71.8810  224.7520 N   0  0  0  0  0  0  0  0  0  0  0  0
  139.6180   73.8500  223.0160 H   0  0  0  0  0  0  0  0  0  0  0  0
  140.8502   73.5024  220.2649 H   0  0  0  0  0  0  0  0  0  0  0  0
  139.3156   74.4346  220.5864 H   0  0  0  0  0  0  0  0  0  0  0  0
  140.4577   76.2426  218.2355 H   0  0  0  0  0  0  0  0  0  0  0  0
  139.7652   77.0814  219.6601 H   0  0  0  0  0  0  0  0  0  0  0  0
  140.7981   78.6710  218.0189 H   0  0  0  0  0  0  0  0  0  0  0  0
  141.6120   78.7050  219.6372 H   0  0  0  0  0  0  0  0  0  0  0  0
  142.7022   78.1133  217.0255 H   0  0  0  0  0  0  0  0  0  0  0  0
  143.5283   78.3820  218.6089 H   0  0  0  0  0  0  0  0  0  0  0  0
  142.3503   75.7335  217.5872 H   0  0  0  0  0  0  0  0  0  0  0  0
  144.0703   76.0965  217.7738 H   0  0  0  0  0  0  0  0  0  0  0  0
  143.5329   76.6606  220.2998 H   0  0  0  0  0  0  0  0  0  0  0  0
  145.0886   75.4369  221.1957 H   0  0  0  0  0  0  0  0  0  0  0  0
  146.0894   73.1881  221.6287 H   0  0  0  0  0  0  0  0  0  0  0  0
  145.0829   71.1789  220.5848 H   0  0  0  0  0  0  0  0  0  0  0  0
  142.0784   73.6481  218.6648 H   0  0  0  0  0  0  0  0  0  0  0  0
  139.2294   69.7383  222.6511 H   0  0  0  0  0  0  0  0  0  0  0  0
  138.8180   68.5321  224.8052 H   0  0  0  0  0  0  0  0  0  0  0  0
  139.1053   68.4803  227.2746 H   0  0  0  0  0  0  0  0  0  0  0  0
  139.9958   69.5654  229.3384 H   0  0  0  0  0  0  0  0  0  0  0  0
  141.2162   71.7204  229.1840 H   0  0  0  0  0  0  0  0  0  0  0  0
  141.5651   72.8301  226.9829 H   0  0  0  0  0  0  0  0  0  0  0  0
  1  2  2  0
  2  3  1  0
  3  4  1  0
  4  5  1  0
  5  6  2  0
  5  7  1  0
  7  8  1  0
  8  9  1  0
  9 10  1  0
 10 11  1  0
 11 12  1  0
 12 13  1  0
 13 14  2  0
 14 15  1  0
 15 16  2  0
 16 17  1  0
 17 18  1  0
 17 19  2  0
  2 20  1  0
 20 21  2  0
 21 22  1  0
 22 23  2  0
 23 24  1  0
 24 25  2  0
 25 26  1  0
 26 27  2  0
 27 28  1  0
 28 29  2  0
 12  7  1  0
 19 13  1  0
 29 20  1  0
 28 23  1  0
  3 30  1  0
  4 31  1  0
  4 32  1  0
  8 33  1  0
  8 34  1  0
  9 35  1  0
  9 36  1  0
 10 37  1  0
 10 38  1  0
 11 39  1  0
 11 40  1  0
 12 41  1  1
 14 42  1  0
 15 43  1  0
 16 44  1  0
 19 45  1  0
 21 46  1  0
 22 47  1  0
 24 48  1  0
 25 49  1  0
 26 50  1  0
 27 51  1  0
M  END
>  <smiles>  (33) 
O=C(NCC(=O)N1CCCCC1c1cccc(Cl)c1)c1ccc2ccccc2n1

>  <score_type>  (33) 
oracle

>  <origin>  (33) 
autodockgpu

>  <m_score__min__energy>  (33) 
-9.4100000000000001

>  <m_primary>  (33) 
energy

>  <rmsd>  (33) 
2.0129105243920127

>  <m_score__min__rmsd>  (33) 
2.0129105243920127

>  <meeko>  (33) 
{"free_energy": -8.5, "intermolecular_energy": -9.99, "internal_energy": -2.0, "cluster_size": 23, "cluster_id": 2, "rank_in_cluster": 20}

>  <energy>  (33) 
-8.94

>  <cluster_rmsd>  (33) 
0.27

>  <cluster>  (33) 
2

$$$$

     RDKit          3D

 51 54  0  0  0  0  0  0  0  0999 V2000
  141.3500   72.1030  221.5380 O   0  0  0  0  0  0  0  0  0  0  0  0
  140.5000   72.3950  222.4220 C   0  0  0  0  0  0  0  0  0  0  0  0
  139.7440   73.5900  222.3070 N   0  0  0  0  0  0  0  0  0  0  0  0
  139.9300   74.4790  221.1980 C   0  0  0  0  0  0  0  0  0  0  0  0
  140.8170   75.6210  221.5100 C   0  0  0  0  0  0  0  0  0  0  0  0
  141.0150   75.9970  222.7150 O   0  0  0  0  0  0  0  0  0  0  0  0
  141.4400   76.2840  220.4170 N   0  0  0  0  0  0  0  0  0  0  0  0
  142.4630   75.6600  219.5990 C   0  0  0  0  0  0  0  0  0  0  0  0
  142.2060   76.0060  218.1320 C   0  0  0  0  0  0  0  0  0  0  0  0
  142.1540   77.4870  217.9170 C   0  0  0  0  0  0  0  0  0  0  0  0
  142.1930   78.2320  219.2570 C   0  0  0  0  0  0  0  0  0  0  0  0
  141.0510   77.6390  220.0900 C   0  0  2  0  0  0  0  0  0  0  0  0
  140.7940   78.4820  221.2810 C   0  0  0  0  0  0  0  0  0  0  0  0
  139.4920   78.6520  221.7050 C   0  0  0  0  0  0  0  0  0  0  0  0
  139.2450   79.4400  222.8200 C   0  0  0  0  0  0  0  0  0  0  0  0
  140.2990   80.0340  223.4800 C   0  0  0  0  0  0  0  0  0  0  0  0
  141.6080   79.8480  223.0330 C   0  0  0  0  0  0  0  0  0  0  0  0
  142.9510   80.5920  223.8560 Cl  0  0  0  0  0  0  0  0  0  0  0  0
  141.8760   79.0580  221.9130 C   0  0  0  0  0  0  0  0  0  0  0  0
  140.2700   71.5170  223.5800 C   0  0  0  0  0  0  0  0  0  0  0  0
  139.5740   70.3350  223.4340 C   0  0  0  0  0  0  0  0  0  0  0  0
  139.3520   69.4940  224.5300 C   0  0  0  0  0  0  0  0  0  0  0  0
  139.8480   69.8740  225.7770 C   0  0  0  0  0  0  0  0  0  0  0  0
  139.6680   69.0970  226.9040 C   0  0  0  0  0  0  0  0  0  0  0  0
  140.1880   69.5290  228.1200 C   0  0  0  0  0  0  0  0  0  0  0  0
  140.8810   70.7350  228.1930 C   0  0  0  0  0  0  0  0  0  0  0  0
  141.0690   71.5220  227.0780 C   0  0  0  0  0  0  0  0  0  0  0  0
  140.5390   71.0630  225.8810 C   0  0  0  0  0  0  0  0  0  0  0  0
  140.7410   71.8600  224.8050 N   0  0  0  0  0  0  0  0  0  0  0  0
  139.0460   73.7950  223.0660 H   0  0  0  0  0  0  0  0  0  0  0  0
  140.3703   73.9115  220.3649 H   0  0  0  0  0  0  0  0  0  0  0  0
  138.9434   74.8917  220.9404 H   0  0  0  0  0  0  0  0  0  0  0  0
  143.4534   76.0337  219.8981 H   0  0  0  0  0  0  0  0  0  0  0  0
  142.4332   74.5688  219.7345 H   0  0  0  0  0  0  0  0  0  0  0  0
  143.0157   75.5842  217.5184 H   0  0  0  0  0  0  0  0  0  0  0  0
  141.2331   75.5816  217.8433 H   0  0  0  0  0  0  0  0  0  0  0  0
  143.0173   77.7938  217.3082 H   0  0  0  0  0  0  0  0  0  0  0  0
  141.2149   77.7363  217.4014 H   0  0  0  0  0  0  0  0  0  0  0  0
  143.1585   78.0703  219.7586 H   0  0  0  0  0  0  0  0  0  0  0  0
  142.0787   79.3178  219.1232 H   0  0  0  0  0  0  0  0  0  0  0  0
  140.0992   77.6169  219.5391 H   0  0  0  0  0  0  0  0  0  0  0  0
  138.6623   78.1700  221.1671 H   0  0  0  0  0  0  0  0  0  0  0  0
  138.2146   79.5896  223.1749 H   0  0  0  0  0  0  0  0  0  0  0  0
  140.1073   80.6588  224.3648 H   0  0  0  0  0  0  0  0  0  0  0  0
  142.9032   78.9023  221.5514 H   0  0  0  0  0  0  0  0  0  0  0  0
  139.1888   70.0501  222.4438 H   0  0  0  0  0  0  0  0  0  0  0  0
  138.7972   68.5517  224.4105 H   0  0  0  0  0  0  0  0  0  0  0  0
  139.1189   68.1459  226.8411 H   0  0  0  0  0  0  0  0  0  0  0  0
  140.0518   68.9177  229.0243 H   0  0  0  0  0  0  0  0  0  0  0  0
  141.2864   71.0658  229.1606 H   0  0  0  0  0  0  0  0  0  0  0  0
  141.6164   72.4744  227.1345 H   0  0  0  0  0  0  0  0  0  0  0  0
  1  2  2  0
  2  3  1  0
  3  4  1  0
  4  5  1  0
  5  6  2  0
  5  7  1  0
  7  8  1  0
  8  9  1  0
  9 10  1  0
 10 11  1  0
 11 12  1  0
 12 13  1  0
 13 14  2  0
 14 15  1  0
 15 16  2  0
 16 17  1  0
 17 18  1  0
 17 19  2  0
  2 20  1  0
 20 21  2  0
 21 22  1  0
 22 23  2  0
 23 24  1  0
 24 25  2  0
 25 26  1  0
 26 27  2  0
 27 28  1  0
 28 29  2  0
 12  7  1  0
 19 13  1  0
 29 20  1  0
 28 23  1  0
  3 30  1  0
  4 31  1  0
  4 32  1  0
  8 33  1  0
  8 34  1  0
  9 35  1  0
  9 36  1  0
 10 37  1  0
 10 38  1  0
 11 39  1  0
 11 40  1  0
 12 41  1  6
 14 42  1  0
 15 43  1  0
 16 44  1  0
 19 45  1  0
 21 46  1  0
 22 47  1  0
 24 48  1  0
 25 49  1  0
 26 50  1  0
 27 51  1  0
M  END
>  <smiles>  (34) 
O=C(NCC(=O)N1CCCCC1c1cccc(Cl)c1)c1ccc2ccccc2n1

>  <score_type>  (34) 
oracle

>  <origin>  (34) 
autodockgpu

>  <m_score__min__energy>  (34) 
-9.4100000000000001

>  <m_primary>  (34) 
energy

>  <rmsd>  (34) 
2.0128200180943443

>  <m_score__min__rmsd>  (34) 
2.0128200180943443

>  <meeko>  (34) 
{"free_energy": -9.32, "intermolecular_energy": -10.81, "internal_energy": -1.48, "cluster_size": 19, "cluster_id": 1, "rank_in_cluster": 13}

>  <energy>  (34) 
-8.92

>  <cluster_rmsd>  (34) 
0.83

>  <cluster>  (34) 
2

$$$$

     RDKit          3D

 51 54  0  0  0  0  0  0  0  0999 V2000
  139.0060   75.6850  221.3460 O   0  0  0  0  0  0  0  0  0  0  0  0
  140.1460   76.1000  221.6900 C   0  0  0  0  0  0  0  0  0  0  0  0
  141.2810   75.2670  221.5220 N   0  0  0  0  0  0  0  0  0  0  0  0
  141.1570   73.9510  220.9660 C   0  0  0  0  0  0  0  0  0  0  0  0
  141.1030   73.9460  219.4880 C   0  0  0  0  0  0  0  0  0  0  0  0
  140.5880   72.9680  218.8470 O   0  0  0  0  0  0  0  0  0  0  0  0
  141.6450   75.0720  218.8080 N   0  0  0  0  0  0  0  0  0  0  0  0
  140.8990   75.8250  217.8180 C   0  0  0  0  0  0  0  0  0  0  0  0
  141.1540   77.3180  218.0320 C   0  0  0  0  0  0  0  0  0  0  0  0
  142.6170   77.6380  217.9850 C   0  0  0  0  0  0  0  0  0  0  0  0
  143.4520   76.3540  217.9150 C   0  0  0  0  0  0  0  0  0  0  0  0
  142.9950   75.5010  219.1040 C   0  0  2  0  0  0  0  0  0  0  0  0
  143.9350   74.3770  219.3210 C   0  0  0  0  0  0  0  0  0  0  0  0
  143.9510   73.3400  218.4100 C   0  0  0  0  0  0  0  0  0  0  0  0
  144.8290   72.2840  218.6080 C   0  0  0  0  0  0  0  0  0  0  0  0
  145.6650   72.2910  219.7040 C   0  0  0  0  0  0  0  0  0  0  0  0
  145.6320   73.3500  220.6120 C   0  0  0  0  0  0  0  0  0  0  0  0
  146.6810   73.3740  222.0010 Cl  0  0  0  0  0  0  0  0  0  0  0  0
  144.7550   74.4220  220.4290 C   0  0  0  0  0  0  0  0  0  0  0  0
  140.3280   77.4420  222.2650 C   0  0  0  0  0  0  0  0  0  0  0  0
  139.2360   78.1900  222.6540 C   0  0  0  0  0  0  0  0  0  0  0  0
  139.4000   79.4660  223.2020 C   0  0  0  0  0  0  0  0  0  0  0  0
  140.6930   79.9710  223.3490 C   0  0  0  0  0  0  0  0  0  0  0  0
  140.9340   81.2220  223.8810 C   0  0  0  0  0  0  0  0  0  0  0  0
  142.2450   81.6700  224.0020 C   0  0  0  0  0  0  0  0  0  0  0  0
  143.3000   80.8600  223.5890 C   0  0  0  0  0  0  0  0  0  0  0  0
  143.0770   79.6090  223.0560 C   0  0  0  0  0  0  0  0  0  0  0  0
  141.7580   79.1920  222.9480 C   0  0  0  0  0  0  0  0  0  0  0  0
  141.5720   77.9590  222.4200 N   0  0  0  0  0  0  0  0  0  0  0  0
  142.2130   75.6520  221.8210 H   0  0  0  0  0  0  0  0  0  0  0  0
  142.0230   73.3531  221.2863 H   0  0  0  0  0  0  0  0  0  0  0  0
  140.2077   73.5306  221.3294 H   0  0  0  0  0  0  0  0  0  0  0  0
  141.2284   75.5355  216.8092 H   0  0  0  0  0  0  0  0  0  0  0  0
  139.8246   75.6128  217.9216 H   0  0  0  0  0  0  0  0  0  0  0  0
  140.6386   77.8852  217.2429 H   0  0  0  0  0  0  0  0  0  0  0  0
  140.7723   77.5941  219.0260 H   0  0  0  0  0  0  0  0  0  0  0  0
  142.8237   78.2518  217.0959 H   0  0  0  0  0  0  0  0  0  0  0  0
  142.8881   78.1861  218.8994 H   0  0  0  0  0  0  0  0  0  0  0  0
  143.2651   75.8254  216.9686 H   0  0  0  0  0  0  0  0  0  0  0  0
  144.5305   76.5665  217.9566 H   0  0  0  0  0  0  0  0  0  0  0  0
  142.9952   76.0658  220.0479 H   0  0  0  0  0  0  0  0  0  0  0  0
  143.2778   73.3507  217.5401 H   0  0  0  0  0  0  0  0  0  0  0  0
  144.8577   71.4468  217.8951 H   0  0  0  0  0  0  0  0  0  0  0  0
  146.3630   71.4560  219.8639 H   0  0  0  0  0  0  0  0  0  0  0  0
  144.7201   75.2636  221.1364 H   0  0  0  0  0  0  0  0  0  0  0  0
  138.2236   77.7775  222.5316 H   0  0  0  0  0  0  0  0  0  0  0  0
  138.5273   80.0601  223.5111 H   0  0  0  0  0  0  0  0  0  0  0  0
  140.0974   81.8580  224.2059 H   0  0  0  0  0  0  0  0  0  0  0  0
  142.4489   82.6650  224.4243 H   0  0  0  0  0  0  0  0  0  0  0  0
  144.3322   81.2263  223.6904 H   0  0  0  0  0  0  0  0  0  0  0  0
  143.9094   78.9681  222.7299 H   0  0  0  0  0  0  0  0  0  0  0  0
  1  2  2  0
  2  3  1  0
  3  4  1  0
  4  5  1  0
  5  6  2  0
  5  7  1  0
  7  8  1  0
  8  9  1  0
  9 10  1  0
 10 11  1  0
 11 12  1  0
 12 13  1  0
 13 14  2  0
 14 15  1  0
 15 16  2  0
 16 17  1  0
 17 18  1  0
 17 19  2  0
  2 20  1  0
 20 21  2  0
 21 22  1  0
 22 23  2  0
 23 24  1  0
 24 25  2  0
 25 26  1  0
 26 27  2  0
 27 28  1  0
 28 29  2  0
 12  7  1  0
 19 13  1  0
 29 20  1  0
 28 23  1  0
  3 30  1  0
  4 31  1  0
  4 32  1  0
  8 33  1  0
  8 34  1  0
  9 35  1  0
  9 36  1  0
 10 37  1  0
 10 38  1  0
 11 39  1  0
 11 40  1  0
 12 41  1  1
 14 42  1  0
 15 43  1  0
 16 44  1  0
 19 45  1  0
 21 46  1  0
 22 47  1  0
 24 48  1  0
 25 49  1  0
 26 50  1  0
 27 51  1  0
M  END
>  <smiles>  (35) 
O=C(NCC(=O)N1CCCCC1c1cccc(Cl)c1)c1ccc2ccccc2n1

>  <score_type>  (35) 
oracle

>  <origin>  (35) 
autodockgpu

>  <m_score__min__energy>  (35) 
-9.4100000000000001

>  <m_primary>  (35) 
energy

>  <rmsd>  (35) 
7.289560058650033

>  <m_score__min__rmsd>  (35) 
7.289560058650033

>  <meeko>  (35) 
{"free_energy": -7.84, "intermolecular_energy": -9.33, "internal_energy": -2.32, "cluster_size": 5, "cluster_id": 4, "rank_in_cluster": 3}

>  <energy>  (35) 
-8.9

>  <cluster_rmsd>  (35) 
0.24

>  <cluster>  (35) 
2

$$$$

     RDKit          3D

 51 54  0  0  0  0  0  0  0  0999 V2000
  140.5580   71.4630  221.2060 O   0  0  0  0  0  0  0  0  0  0  0  0
  140.2000   72.0470  222.2650 C   0  0  0  0  0  0  0  0  0  0  0  0
  139.8710   73.4260  222.2330 N   0  0  0  0  0  0  0  0  0  0  0  0
  139.9380   74.1760  221.0120 C   0  0  0  0  0  0  0  0  0  0  0  0
  140.7400   75.4120  221.1320 C   0  0  0  0  0  0  0  0  0  0  0  0
  141.0350   75.9020  222.2750 O   0  0  0  0  0  0  0  0  0  0  0  0
  141.1690   76.0350  219.9270 N   0  0  0  0  0  0  0  0  0  0  0  0
  140.2630   76.7420  219.0430 C   0  0  0  0  0  0  0  0  0  0  0  0
  140.9410   78.0250  218.5590 C   0  0  0  0  0  0  0  0  0  0  0  0
  142.2510   77.7360  217.8930 C   0  0  0  0  0  0  0  0  0  0  0  0
  142.6250   76.2570  218.0460 C   0  0  0  0  0  0  0  0  0  0  0  0
  142.5660   75.9720  219.5510 C   0  0  2  0  0  0  0  0  0  0  0  0
  143.1980   74.6660  219.8510 C   0  0  0  0  0  0  0  0  0  0  0  0
  142.5630   73.5110  219.4400 C   0  0  0  0  0  0  0  0  0  0  0  0
  143.1500   72.2850  219.7190 C   0  0  0  0  0  0  0  0  0  0  0  0
  144.3490   72.2440  220.3970 C   0  0  0  0  0  0  0  0  0  0  0  0
  144.9730   73.4240  220.8030 C   0  0  0  0  0  0  0  0  0  0  0  0
  146.4880   73.3880  221.6600 Cl  0  0  0  0  0  0  0  0  0  0  0  0
  144.3970   74.6680  220.5310 C   0  0  0  0  0  0  0  0  0  0  0  0
  140.1140   71.3240  223.5440 C   0  0  0  0  0  0  0  0  0  0  0  0
  139.5580   70.0630  223.5970 C   0  0  0  0  0  0  0  0  0  0  0  0
  139.4730   69.3690  224.8090 C   0  0  0  0  0  0  0  0  0  0  0  0
  139.9620   69.9780  225.9660 C   0  0  0  0  0  0  0  0  0  0  0  0
  139.9130   69.3550  227.1970 C   0  0  0  0  0  0  0  0  0  0  0  0
  140.4170   70.0130  228.3140 C   0  0  0  0  0  0  0  0  0  0  0  0
  140.9660   71.2870  228.1840 C   0  0  0  0  0  0  0  0  0  0  0  0
  141.0230   71.9220  226.9630 C   0  0  0  0  0  0  0  0  0  0  0  0
  140.5110   71.2390  225.8690 C   0  0  0  0  0  0  0  0  0  0  0  0
  140.5810   71.8910  224.6830 N   0  0  0  0  0  0  0  0  0  0  0  0
  139.5780   73.8740  223.1380 H   0  0  0  0  0  0  0  0  0  0  0  0
  140.3888   73.5406  220.2355 H   0  0  0  0  0  0  0  0  0  0  0  0
  138.9112   74.4758  220.7553 H   0  0  0  0  0  0  0  0  0  0  0  0
  140.0183   76.1057  218.1797 H   0  0  0  0  0  0  0  0  0  0  0  0
  139.3366   76.9910  219.5814 H   0  0  0  0  0  0  0  0  0  0  0  0
  140.2786   78.5302  217.8407 H   0  0  0  0  0  0  0  0  0  0  0  0
  141.1319   78.6652  219.4329 H   0  0  0  0  0  0  0  0  0  0  0  0
  142.1731   77.9795  216.8231 H   0  0  0  0  0  0  0  0  0  0  0  0
  143.0312   78.3480  218.3692 H   0  0  0  0  0  0  0  0  0  0  0  0
  141.9076   75.6214  217.5062 H   0  0  0  0  0  0  0  0  0  0  0  0
  143.6203   76.0430  217.6293 H   0  0  0  0  0  0  0  0  0  0  0  0
  143.1314   76.7099  220.1391 H   0  0  0  0  0  0  0  0  0  0  0  0
  141.6063   73.5619  218.8996 H   0  0  0  0  0  0  0  0  0  0  0  0
  142.6615   71.3521  219.4011 H   0  0  0  0  0  0  0  0  0  0  0  0
  144.8175   71.2740  220.6197 H   0  0  0  0  0  0  0  0  0  0  0  0
  144.8785   75.6058  220.8452 H   0  0  0  0  0  0  0  0  0  0  0  0
  139.1770   69.5976  222.6760 H   0  0  0  0  0  0  0  0  0  0  0  0
  139.0295   68.3632  224.8493 H   0  0  0  0  0  0  0  0  0  0  0  0
  139.4798   68.3485  227.2935 H   0  0  0  0  0  0  0  0  0  0  0  0
  140.3822   69.5274  229.3004 H   0  0  0  0  0  0  0  0  0  0  0  0
  141.3621   71.7963  229.0749 H   0  0  0  0  0  0  0  0  0  0  0  0
  141.4560   72.9279  226.8595 H   0  0  0  0  0  0  0  0  0  0  0  0
  1  2  2  0
  2  3  1  0
  3  4  1  0
  4  5  1  0
  5  6  2  0
  5  7  1  0
  7  8  1  0
  8  9  1  0
  9 10  1  0
 10 11  1  0
 11 12  1  0
 12 13  1  0
 13 14  2  0
 14 15  1  0
 15 16  2  0
 16 17  1  0
 17 18  1  0
 17 19  2  0
  2 20  1  0
 20 21  2  0
 21 22  1  0
 22 23  2  0
 23 24  1  0
 24 25  2  0
 25 26  1  0
 26 27  2  0
 27 28  1  0
 28 29  2  0
 12  7  1  0
 19 13  1  0
 29 20  1  0
 28 23  1  0
  3 30  1  0
  4 31  1  0
  4 32  1  0
  8 33  1  0
  8 34  1  0
  9 35  1  0
  9 36  1  0
 10 37  1  0
 10 38  1  0
 11 39  1  0
 11 40  1  0
 12 41  1  1
 14 42  1  0
 15 43  1  0
 16 44  1  0
 19 45  1  0
 21 46  1  0
 22 47  1  0
 24 48  1  0
 25 49  1  0
 26 50  1  0
 27 51  1  0
M  END
>  <smiles>  (36) 
O=C(NCC(=O)N1CCCCC1c1cccc(Cl)c1)c1ccc2ccccc2n1

>  <score_type>  (36) 
oracle

>  <origin>  (36) 
autodockgpu

>  <m_score__min__energy>  (36) 
-9.4100000000000001

>  <m_primary>  (36) 
energy

>  <rmsd>  (36) 
1.7789964578574426

>  <m_score__min__rmsd>  (36) 
1.7789964578574426

>  <meeko>  (36) 
{"free_energy": -9.02, "intermolecular_energy": -10.51, "internal_energy": -1.93, "cluster_size": 23, "cluster_id": 2, "rank_in_cluster": 11}

>  <energy>  (36) 
-8.89

>  <cluster_rmsd>  (36) 
0.32

>  <cluster>  (36) 
2

$$$$

     RDKit          3D

 51 54  0  0  0  0  0  0  0  0999 V2000
  140.8860   71.5390  221.2880 O   0  0  0  0  0  0  0  0  0  0  0  0
  140.3890   72.0940  222.3060 C   0  0  0  0  0  0  0  0  0  0  0  0
  139.9690   73.4470  222.2380 N   0  0  0  0  0  0  0  0  0  0  0  0
  140.0980   74.2020  221.0260 C   0  0  0  0  0  0  0  0  0  0  0  0
  141.0030   75.3630  221.1580 C   0  0  0  0  0  0  0  0  0  0  0  0
  141.3820   75.7820  222.3050 O   0  0  0  0  0  0  0  0  0  0  0  0
  141.4370   75.9970  219.9600 N   0  0  0  0  0  0  0  0  0  0  0  0
  140.5300   76.6980  219.0700 C   0  0  0  0  0  0  0  0  0  0  0  0
  141.1980   77.9910  218.5990 C   0  0  0  0  0  0  0  0  0  0  0  0
  142.5170   77.7210  217.9440 C   0  0  0  0  0  0  0  0  0  0  0  0
  142.9070   76.2450  218.0940 C   0  0  0  0  0  0  0  0  0  0  0  0
  142.8370   75.9530  219.5970 C   0  0  2  0  0  0  0  0  0  0  0  0
  143.4820   74.6530  219.8970 C   0  0  0  0  0  0  0  0  0  0  0  0
  142.9110   73.4990  219.4000 C   0  0  0  0  0  0  0  0  0  0  0  0
  143.5100   72.2780  219.6790 C   0  0  0  0  0  0  0  0  0  0  0  0
  144.6580   72.2420  220.4410 C   0  0  0  0  0  0  0  0  0  0  0  0
  145.2170   73.4220  220.9320 C   0  0  0  0  0  0  0  0  0  0  0  0
  146.6670   73.3930  221.8960 Cl  0  0  0  0  0  0  0  0  0  0  0  0
  144.6290   74.6600  220.6630 C   0  0  0  0  0  0  0  0  0  0  0  0
  140.2340   71.3640  223.5750 C   0  0  0  0  0  0  0  0  0  0  0  0
  139.6130   70.1330  223.6010 C   0  0  0  0  0  0  0  0  0  0  0  0
  139.4610   69.4320  224.8020 C   0  0  0  0  0  0  0  0  0  0  0  0
  139.9510   70.0030  225.9770 C   0  0  0  0  0  0  0  0  0  0  0  0
  139.8390   69.3720  227.2000 C   0  0  0  0  0  0  0  0  0  0  0  0
  140.3490   69.9920  228.3360 C   0  0  0  0  0  0  0  0  0  0  0  0
  140.9650   71.2370  228.2350 C   0  0  0  0  0  0  0  0  0  0  0  0
  141.0860   71.8800  227.0220 C   0  0  0  0  0  0  0  0  0  0  0  0
  140.5670   71.2360  225.9080 C   0  0  0  0  0  0  0  0  0  0  0  0
  140.7010   71.8940  224.7320 N   0  0  0  0  0  0  0  0  0  0  0  0
  139.5610   73.8710  223.1090 H   0  0  0  0  0  0  0  0  0  0  0  0
  140.4915   73.5392  220.2412 H   0  0  0  0  0  0  0  0  0  0  0  0
  139.1003   74.5915  220.7752 H   0  0  0  0  0  0  0  0  0  0  0  0
  140.3010   76.0631  218.2014 H   0  0  0  0  0  0  0  0  0  0  0  0
  139.5954   76.9333  219.6003 H   0  0  0  0  0  0  0  0  0  0  0  0
  140.5366   78.4924  217.8771 H   0  0  0  0  0  0  0  0  0  0  0  0
  141.3736   78.6284  219.4781 H   0  0  0  0  0  0  0  0  0  0  0  0
  142.4461   77.9685  216.8746 H   0  0  0  0  0  0  0  0  0  0  0  0
  143.2855   78.3401  218.4298 H   0  0  0  0  0  0  0  0  0  0  0  0
  142.2022   75.6035  217.5446 H   0  0  0  0  0  0  0  0  0  0  0  0
  143.9085   76.0443  217.6857 H   0  0  0  0  0  0  0  0  0  0  0  0
  143.3875   76.6954  220.1935 H   0  0  0  0  0  0  0  0  0  0  0  0
  141.9954   73.5459  218.7922 H   0  0  0  0  0  0  0  0  0  0  0  0
  143.0713   71.3454  219.2945 H   0  0  0  0  0  0  0  0  0  0  0  0
  145.1364   71.2767  220.6633 H   0  0  0  0  0  0  0  0  0  0  0  0
  145.0607   75.5972  221.0443 H   0  0  0  0  0  0  0  0  0  0  0  0
  139.2324   69.6968  222.6656 H   0  0  0  0  0  0  0  0  0  0  0  0
  138.9651   68.4503  224.8197 H   0  0  0  0  0  0  0  0  0  0  0  0
  139.3514   68.3889  227.2753 H   0  0  0  0  0  0  0  0  0  0  0  0
  140.2657   69.4983  229.3154 H   0  0  0  0  0  0  0  0  0  0  0  0
  141.3629   71.7167  229.1414 H   0  0  0  0  0  0  0  0  0  0  0  0
  141.5736   72.8626  226.9405 H   0  0  0  0  0  0  0  0  0  0  0  0
  1  2  2  0
  2  3  1  0
  3  4  1  0
  4  5  1  0
  5  6  2  0
  5  7  1  0
  7  8  1  0
  8  9  1  0
  9 10  1  0
 10 11  1  0
 11 12  1  0
 12 13  1  0
 13 14  2  0
 14 15  1  0
 15 16  2  0
 16 17  1  0
 17 18  1  0
 17 19  2  0
  2 20  1  0
 20 21  2  0
 21 22  1  0
 22 23  2  0
 23 24  1  0
 24 25  2  0
 25 26  1  0
 26 27  2  0
 27 28  1  0
 28 29  2  0
 12  7  1  0
 19 13  1  0
 29 20  1  0
 28 23  1  0
  3 30  1  0
  4 31  1  0
  4 32  1  0
  8 33  1  0
  8 34  1  0
  9 35  1  0
  9 36  1  0
 10 37  1  0
 10 38  1  0
 11 39  1  0
 11 40  1  0
 12 41  1  1
 14 42  1  0
 15 43  1  0
 16 44  1  0
 19 45  1  0
 21 46  1  0
 22 47  1  0
 24 48  1  0
 25 49  1  0
 26 50  1  0
 27 51  1  0
M  END
>  <smiles>  (37) 
O=C(NCC(=O)N1CCCCC1c1cccc(Cl)c1)c1ccc2ccccc2n1

>  <score_type>  (37) 
oracle

>  <origin>  (37) 
autodockgpu

>  <m_score__min__energy>  (37) 
-9.4100000000000001

>  <m_primary>  (37) 
energy

>  <rmsd>  (37) 
1.89605469302871

>  <m_score__min__rmsd>  (37) 
1.89605469302871

>  <meeko>  (37) 
{"free_energy": -9.08, "intermolecular_energy": -10.57, "internal_energy": -1.9, "cluster_size": 23, "cluster_id": 2, "rank_in_cluster": 2}

>  <energy>  (37) 
-8.88

>  <cluster_rmsd>  (37) 
0.25

>  <cluster>  (37) 
2

$$$$

     RDKit          3D

 51 54  0  0  0  0  0  0  0  0999 V2000
  140.7280   71.5160  221.2630 O   0  0  0  0  0  0  0  0  0  0  0  0
  140.2940   72.0850  222.3010 C   0  0  0  0  0  0  0  0  0  0  0  0
  139.9240   73.4530  222.2540 N   0  0  0  0  0  0  0  0  0  0  0  0
  140.0350   74.2080  221.0390 C   0  0  0  0  0  0  0  0  0  0  0  0
  140.8690   75.4200  221.1820 C   0  0  0  0  0  0  0  0  0  0  0  0
  141.1750   75.8830  222.3330 O   0  0  0  0  0  0  0  0  0  0  0  0
  141.3180   76.0520  219.9880 N   0  0  0  0  0  0  0  0  0  0  0  0
  140.4270   76.7720  219.0990 C   0  0  0  0  0  0  0  0  0  0  0  0
  141.1180   78.0560  218.6360 C   0  0  0  0  0  0  0  0  0  0  0  0
  142.4350   77.7660  217.9850 C   0  0  0  0  0  0  0  0  0  0  0  0
  142.7990   76.2840  218.1290 C   0  0  0  0  0  0  0  0  0  0  0  0
  142.7180   75.9860  219.6300 C   0  0  2  0  0  0  0  0  0  0  0  0
  143.3400   74.6740  219.9260 C   0  0  0  0  0  0  0  0  0  0  0  0
  142.7080   73.5260  219.4910 C   0  0  0  0  0  0  0  0  0  0  0  0
  143.2850   72.2950  219.7660 C   0  0  0  0  0  0  0  0  0  0  0  0
  144.4720   72.2410  220.4650 C   0  0  0  0  0  0  0  0  0  0  0  0
  145.0930   73.4140  220.8950 C   0  0  0  0  0  0  0  0  0  0  0  0
  146.5930   73.3620  221.7780 Cl  0  0  0  0  0  0  0  0  0  0  0  0
  144.5270   74.6630  220.6280 C   0  0  0  0  0  0  0  0  0  0  0  0
  140.1610   71.3560  223.5730 C   0  0  0  0  0  0  0  0  0  0  0  0
  139.5550   70.1180  223.6080 C   0  0  0  0  0  0  0  0  0  0  0  0
  139.4240   69.4180  224.8120 C   0  0  0  0  0  0  0  0  0  0  0  0
  139.9200   69.9970  225.9810 C   0  0  0  0  0  0  0  0  0  0  0  0
  139.8290   69.3680  227.2060 C   0  0  0  0  0  0  0  0  0  0  0  0
  140.3430   69.9960  228.3350 C   0  0  0  0  0  0  0  0  0  0  0  0
  140.9440   71.2480  228.2250 C   0  0  0  0  0  0  0  0  0  0  0  0
  141.0440   71.8890  227.0100 C   0  0  0  0  0  0  0  0  0  0  0  0
  140.5210   71.2370  225.9020 C   0  0  0  0  0  0  0  0  0  0  0  0
  140.6340   71.8940  224.7240 N   0  0  0  0  0  0  0  0  0  0  0  0
  139.5680   73.8890  223.1420 H   0  0  0  0  0  0  0  0  0  0  0  0
  140.4823   73.5646  220.2670 H   0  0  0  0  0  0  0  0  0  0  0  0
  139.0221   74.5381  220.7650 H   0  0  0  0  0  0  0  0  0  0  0  0
  140.1903   76.1451  218.2266 H   0  0  0  0  0  0  0  0  0  0  0  0
  139.4950   77.0208  219.6276 H   0  0  0  0  0  0  0  0  0  0  0  0
  140.4679   78.5713  217.9136 H   0  0  0  0  0  0  0  0  0  0  0  0
  141.3005   78.6873  219.5182 H   0  0  0  0  0  0  0  0  0  0  0  0
  142.3727   78.0198  216.9165 H   0  0  0  0  0  0  0  0  0  0  0  0
  143.2120   78.3692  218.4773 H   0  0  0  0  0  0  0  0  0  0  0  0
  142.0856   75.6573  217.5737 H   0  0  0  0  0  0  0  0  0  0  0  0
  143.7986   76.0682  217.7237 H   0  0  0  0  0  0  0  0  0  0  0  0
  143.2784   76.7162  220.2323 H   0  0  0  0  0  0  0  0  0  0  0  0
  141.7610   73.5868  218.9346 H   0  0  0  0  0  0  0  0  0  0  0  0
  142.7986   71.3679  219.4286 H   0  0  0  0  0  0  0  0  0  0  0  0
  144.9326   71.2666  220.6852 H   0  0  0  0  0  0  0  0  0  0  0  0
  145.0061   75.5950  220.9624 H   0  0  0  0  0  0  0  0  0  0  0  0
  139.1698   69.6753  222.6776 H   0  0  0  0  0  0  0  0  0  0  0  0
  138.9396   68.4307  224.8369 H   0  0  0  0  0  0  0  0  0  0  0  0
  139.3543   68.3791  227.2884 H   0  0  0  0  0  0  0  0  0  0  0  0
  140.2750   69.5036  229.3163 H   0  0  0  0  0  0  0  0  0  0  0  0
  141.3465   71.7341  229.1260 H   0  0  0  0  0  0  0  0  0  0  0  0
  141.5190   72.8772  226.9214 H   0  0  0  0  0  0  0  0  0  0  0  0
  1  2  2  0
  2  3  1  0
  3  4  1  0
  4  5  1  0
  5  6  2  0
  5  7  1  0
  7  8  1  0
  8  9  1  0
  9 10  1  0
 10 11  1  0
 11 12  1  0
 12 13  1  0
 13 14  2  0
 14 15  1  0
 15 16  2  0
 16 17  1  0
 17 18  1  0
 17 19  2  0
  2 20  1  0
 20 21  2  0
 21 22  1  0
 22 23  2  0
 23 24  1  0
 24 25  2  0
 25 26  1  0
 26 27  2  0
 27 28  1  0
 28 29  2  0
 12  7  1  0
 19 13  1  0
 29 20  1  0
 28 23  1  0
  3 30  1  0
  4 31  1  0
  4 32  1  0
  8 33  1  0
  8 34  1  0
  9 35  1  0
  9 36  1  0
 10 37  1  0
 10 38  1  0
 11 39  1  0
 11 40  1  0
 12 41  1  1
 14 42  1  0
 15 43  1  0
 16 44  1  0
 19 45  1  0
 21 46  1  0
 22 47  1  0
 24 48  1  0
 25 49  1  0
 26 50  1  0
 27 51  1  0
M  END
>  <smiles>  (38) 
O=C(NCC(=O)N1CCCCC1c1cccc(Cl)c1)c1ccc2ccccc2n1

>  <score_type>  (38) 
oracle

>  <origin>  (38) 
autodockgpu

>  <m_score__min__energy>  (38) 
-9.4100000000000001

>  <m_primary>  (38) 
energy

>  <rmsd>  (38) 
1.856633180197425

>  <m_score__min__rmsd>  (38) 
1.856633180197425

>  <meeko>  (38) 
{"free_energy": -9.07, "intermolecular_energy": -10.56, "internal_energy": -1.89, "cluster_size": 23, "cluster_id": 2, "rank_in_cluster": 3}

>  <energy>  (38) 
-8.75

>  <cluster_rmsd>  (38) 
0.35

>  <cluster>  (38) 
2

$$$$

     RDKit          3D

 51 54  0  0  0  0  0  0  0  0999 V2000
  140.8970   71.5430  221.2930 O   0  0  0  0  0  0  0  0  0  0  0  0
  140.4060   72.1040  222.3110 C   0  0  0  0  0  0  0  0  0  0  0  0
  140.0000   73.4610  222.2420 N   0  0  0  0  0  0  0  0  0  0  0  0
  140.1390   74.2150  221.0300 C   0  0  0  0  0  0  0  0  0  0  0  0
  141.0280   75.3870  221.1730 C   0  0  0  0  0  0  0  0  0  0  0  0
  141.3820   75.8140  222.3240 O   0  0  0  0  0  0  0  0  0  0  0  0
  141.4730   76.0220  219.9800 N   0  0  0  0  0  0  0  0  0  0  0  0
  140.5770   76.7300  219.0850 C   0  0  0  0  0  0  0  0  0  0  0  0
  141.2550   78.0210  218.6220 C   0  0  0  0  0  0  0  0  0  0  0  0
  142.5780   77.7460  217.9770 C   0  0  0  0  0  0  0  0  0  0  0  0
  142.9590   76.2680  218.1250 C   0  0  0  0  0  0  0  0  0  0  0  0
  142.8760   75.9720  219.6270 C   0  0  2  0  0  0  0  0  0  0  0  0
  143.5120   74.6680  219.9280 C   0  0  0  0  0  0  0  0  0  0  0  0
  142.9290   73.5160  219.4370 C   0  0  0  0  0  0  0  0  0  0  0  0
  143.5200   72.2920  219.7170 C   0  0  0  0  0  0  0  0  0  0  0  0
  144.6710   72.2490  220.4740 C   0  0  0  0  0  0  0  0  0  0  0  0
  145.2430   73.4260  220.9590 C   0  0  0  0  0  0  0  0  0  0  0  0
  146.6960   73.3890  221.9170 Cl  0  0  0  0  0  0  0  0  0  0  0  0
  144.6620   74.6680  220.6880 C   0  0  0  0  0  0  0  0  0  0  0  0
  140.2410   71.3750  223.5790 C   0  0  0  0  0  0  0  0  0  0  0  0
  139.6210   70.1440  223.6020 C   0  0  0  0  0  0  0  0  0  0  0  0
  139.4610   69.4450  224.8030 C   0  0  0  0  0  0  0  0  0  0  0  0
  139.9410   70.0180  225.9810 C   0  0  0  0  0  0  0  0  0  0  0  0
  139.8200   69.3890  227.2040 C   0  0  0  0  0  0  0  0  0  0  0  0
  140.3200   70.0110  228.3430 C   0  0  0  0  0  0  0  0  0  0  0  0
  140.9360   71.2560  228.2440 C   0  0  0  0  0  0  0  0  0  0  0  0
  141.0650   71.8970  227.0320 C   0  0  0  0  0  0  0  0  0  0  0  0
  140.5560   71.2510  225.9150 C   0  0  0  0  0  0  0  0  0  0  0  0
  140.6990   71.9080  224.7390 N   0  0  0  0  0  0  0  0  0  0  0  0
  139.5960   73.8890  223.1130 H   0  0  0  0  0  0  0  0  0  0  0  0
  140.5525   73.5551  220.2531 H   0  0  0  0  0  0  0  0  0  0  0  0
  139.1408   74.5921  220.7629 H   0  0  0  0  0  0  0  0  0  0  0  0
  140.3514   76.0985  218.2131 H   0  0  0  0  0  0  0  0  0  0  0  0
  139.6399   76.9691  219.6090 H   0  0  0  0  0  0  0  0  0  0  0  0
  140.6018   78.5271  217.8959 H   0  0  0  0  0  0  0  0  0  0  0  0
  141.4266   78.6558  219.5038 H   0  0  0  0  0  0  0  0  0  0  0  0
  142.5172   77.9975  216.9079 H   0  0  0  0  0  0  0  0  0  0  0  0
  143.3457   78.3593  218.4715 H   0  0  0  0  0  0  0  0  0  0  0  0
  142.2550   75.6319  217.5684 H   0  0  0  0  0  0  0  0  0  0  0  0
  143.9624   76.0631  217.7235 H   0  0  0  0  0  0  0  0  0  0  0  0
  143.4256   76.7101  220.2296 H   0  0  0  0  0  0  0  0  0  0  0  0
  142.0108   73.5680  218.8336 H   0  0  0  0  0  0  0  0  0  0  0  0
  143.0726   71.3617  219.3371 H   0  0  0  0  0  0  0  0  0  0  0  0
  145.1420   71.2804  220.6974 H   0  0  0  0  0  0  0  0  0  0  0  0
  145.1025   75.6031  221.0642 H   0  0  0  0  0  0  0  0  0  0  0  0
  139.2476   69.7061  222.6646 H   0  0  0  0  0  0  0  0  0  0  0  0
  138.9663   68.4626  224.8184 H   0  0  0  0  0  0  0  0  0  0  0  0
  139.3329   68.4054  227.2769 H   0  0  0  0  0  0  0  0  0  0  0  0
  140.2288   69.5192  229.3227 H   0  0  0  0  0  0  0  0  0  0  0  0
  141.3275   71.7372  229.1524 H   0  0  0  0  0  0  0  0  0  0  0  0
  141.5515   72.8804  226.9530 H   0  0  0  0  0  0  0  0  0  0  0  0
  1  2  2  0
  2  3  1  0
  3  4  1  0
  4  5  1  0
  5  6  2  0
  5  7  1  0
  7  8  1  0
  8  9  1  0
  9 10  1  0
 10 11  1  0
 11 12  1  0
 12 13  1  0
 13 14  2  0
 14 15  1  0
 15 16  2  0
 16 17  1  0
 17 18  1  0
 17 19  2  0
  2 20  1  0
 20 21  2  0
 21 22  1  0
 22 23  2  0
 23 24  1  0
 24 25  2  0
 25 26  1  0
 26 27  2  0
 27 28  1  0
 28 29  2  0
 12  7  1  0
 19 13  1  0
 29 20  1  0
 28 23  1  0
  3 30  1  0
  4 31  1  0
  4 32  1  0
  8 33  1  0
  8 34  1  0
  9 35  1  0
  9 36  1  0
 10 37  1  0
 10 38  1  0
 11 39  1  0
 11 40  1  0
 12 41  1  1
 14 42  1  0
 15 43  1  0
 16 44  1  0
 19 45  1  0
 21 46  1  0
 22 47  1  0
 24 48  1  0
 25 49  1  0
 26 50  1  0
 27 51  1  0
M  END
>  <smiles>  (39) 
O=C(NCC(=O)N1CCCCC1c1cccc(Cl)c1)c1ccc2ccccc2n1

>  <score_type>  (39) 
oracle

>  <origin>  (39) 
autodockgpu

>  <m_score__min__energy>  (39) 
-9.4100000000000001

>  <m_primary>  (39) 
energy

>  <rmsd>  (39) 
1.9244728702601157

>  <m_score__min__rmsd>  (39) 
1.9244728702601157

>  <meeko>  (39) 
{"free_energy": -9.09, "intermolecular_energy": -10.58, "internal_energy": -1.91, "cluster_size": 23, "cluster_id": 2, "rank_in_cluster": 1}

>  <energy>  (39) 
-8.5

>  <cluster_rmsd>  (39) 
1.02

>  <cluster>  (39) 
2

$$$$

     RDKit          3D

 51 54  0  0  0  0  0  0  0  0999 V2000
  139.0490   75.3810  221.4740 O   0  0  0  0  0  0  0  0  0  0  0  0
  140.1590   75.8750  221.8150 C   0  0  0  0  0  0  0  0  0  0  0  0
  141.3430   75.1060  221.6830 N   0  0  0  0  0  0  0  0  0  0  0  0
  141.3040   73.7690  221.1670 C   0  0  0  0  0  0  0  0  0  0  0  0
  141.2190   73.7170  219.6920 C   0  0  0  0  0  0  0  0  0  0  0  0
  140.8030   72.6700  219.0880 O   0  0  0  0  0  0  0  0  0  0  0  0
  141.6180   74.8770  218.9700 N   0  0  0  0  0  0  0  0  0  0  0  0
  140.7520   75.5460  218.0180 C   0  0  0  0  0  0  0  0  0  0  0  0
  140.8860   77.0580  218.2030 C   0  0  0  0  0  0  0  0  0  0  0  0
  142.3080   77.5050  218.0670 C   0  0  0  0  0  0  0  0  0  0  0  0
  143.2490   76.2990  217.9600 C   0  0  0  0  0  0  0  0  0  0  0  0
  142.9400   75.4280  219.1820 C   0  0  2  0  0  0  0  0  0  0  0  0
  143.9880   74.3940  219.3540 C   0  0  0  0  0  0  0  0  0  0  0  0
  144.1760   73.4670  218.3490 C   0  0  0  0  0  0  0  0  0  0  0  0
  145.1550   72.4960  218.5050 C   0  0  0  0  0  0  0  0  0  0  0  0
  145.9180   72.4770  219.6520 C   0  0  0  0  0  0  0  0  0  0  0  0
  145.7100   73.4250  220.6550 C   0  0  0  0  0  0  0  0  0  0  0  0
  146.6650   73.4140  222.1110 Cl  0  0  0  0  0  0  0  0  0  0  0  0
  144.7290   74.4100  220.5170 C   0  0  0  0  0  0  0  0  0  0  0  0
  140.2540   77.2420  222.3500 C   0  0  0  0  0  0  0  0  0  0  0  0
  139.1160   77.9290  222.7190 C   0  0  0  0  0  0  0  0  0  0  0  0
  139.1980   79.2290  223.2290 C   0  0  0  0  0  0  0  0  0  0  0  0
  140.4550   79.8200  223.3580 C   0  0  0  0  0  0  0  0  0  0  0  0
  140.6160   81.0990  223.8530 C   0  0  0  0  0  0  0  0  0  0  0  0
  141.8960   81.6340  223.9590 C   0  0  0  0  0  0  0  0  0  0  0  0
  143.0000   80.8810  223.5680 C   0  0  0  0  0  0  0  0  0  0  0  0
  142.8580   79.6040  223.0720 C   0  0  0  0  0  0  0  0  0  0  0  0
  141.5690   79.0990  222.9790 C   0  0  0  0  0  0  0  0  0  0  0  0
  141.4620   77.8420  222.4870 N   0  0  0  0  0  0  0  0  0  0  0  0
  142.2470   75.5550  221.9790 H   0  0  0  0  0  0  0  0  0  0  0  0
  142.2181   73.2452  221.4833 H   0  0  0  0  0  0  0  0  0  0  0  0
  140.3962   73.2914  221.5641 H   0  0  0  0  0  0  0  0  0  0  0  0
  141.0471   75.2718  216.9944 H   0  0  0  0  0  0  0  0  0  0  0  0
  139.7084   75.2413  218.1858 H   0  0  0  0  0  0  0  0  0  0  0  0
  140.2774   77.5664  217.4407 H   0  0  0  0  0  0  0  0  0  0  0  0
  140.5401   77.3131  219.2156 H   0  0  0  0  0  0  0  0  0  0  0  0
  142.4074   78.1216  217.1615 H   0  0  0  0  0  0  0  0  0  0  0  0
  142.5815   78.0882  218.9587 H   0  0  0  0  0  0  0  0  0  0  0  0
  143.0552   75.7415  217.0318 H   0  0  0  0  0  0  0  0  0  0  0  0
  144.3048   76.6066  217.9350 H   0  0  0  0  0  0  0  0  0  0  0  0
  142.9450   76.0046  220.1187 H   0  0  0  0  0  0  0  0  0  0  0  0
  143.5594   73.4974  217.4385 H   0  0  0  0  0  0  0  0  0  0  0  0
  145.3209   71.7460  217.7176 H   0  0  0  0  0  0  0  0  0  0  0  0
  146.6961   71.7098  219.7781 H   0  0  0  0  0  0  0  0  0  0  0  0
  144.5557   75.1633  221.2996 H   0  0  0  0  0  0  0  0  0  0  0  0
  138.1323   77.4488  222.6109 H   0  0  0  0  0  0  0  0  0  0  0  0
  138.2891   79.7746  223.5226 H   0  0  0  0  0  0  0  0  0  0  0  0
  139.7404   81.6894  224.1607 H   0  0  0  0  0  0  0  0  0  0  0  0
  142.0358   82.6519  224.3517 H   0  0  0  0  0  0  0  0  0  0  0  0
  144.0068   81.3152  223.6571 H   0  0  0  0  0  0  0  0  0  0  0  0
  143.7301   79.0093  222.7625 H   0  0  0  0  0  0  0  0  0  0  0  0
  1  2  2  0
  2  3  1  0
  3  4  1  0
  4  5  1  0
  5  6  2  0
  5  7  1  0
  7  8  1  0
  8  9  1  0
  9 10  1  0
 10 11  1  0
 11 12  1  0
 12 13  1  0
 13 14  2  0
 14 15  1  0
 15 16  2  0
 16 17  1  0
 17 18  1  0
 17 19  2  0
  2 20  1  0
 20 21  2  0
 21 22  1  0
 22 23  2  0
 23 24  1  0
 24 25  2  0
 25 26  1  0
 26 27  2  0
 27 28  1  0
 28 29  2  0
 12  7  1  0
 19 13  1  0
 29 20  1  0
 28 23  1  0
  3 30  1  0
  4 31  1  0
  4 32  1  0
  8 33  1  0
  8 34  1  0
  9 35  1  0
  9 36  1  0
 10 37  1  0
 10 38  1  0
 11 39  1  0
 11 40  1  0
 12 41  1  1
 14 42  1  0
 15 43  1  0
 16 44  1  0
 19 45  1  0
 21 46  1  0
 22 47  1  0
 24 48  1  0
 25 49  1  0
 26 50  1  0
 27 51  1  0
M  END
>  <smiles>  (40) 
O=C(NCC(=O)N1CCCCC1c1cccc(Cl)c1)c1ccc2ccccc2n1

>  <score_type>  (40) 
oracle

>  <origin>  (40) 
autodockgpu

>  <m_score__min__energy>  (40) 
-9.4100000000000001

>  <m_primary>  (40) 
energy

>  <rmsd>  (40) 
7.179826487283432

>  <m_score__min__rmsd>  (40) 
7.179826487283432

>  <meeko>  (40) 
{"free_energy": -7.94, "intermolecular_energy": -9.43, "internal_energy": -2.42, "cluster_size": 5, "cluster_id": 4, "rank_in_cluster": 2}

>  <energy>  (40) 
-8.45

>  <cluster_rmsd>  (40) 
1.02

>  <cluster>  (40) 
2

$$$$

     RDKit          3D

 51 54  0  0  0  0  0  0  0  0999 V2000
  139.2810   71.5270  221.3470 O   0  0  0  0  0  0  0  0  0  0  0  0
  139.9560   71.9110  222.3410 C   0  0  0  0  0  0  0  0  0  0  0  0
  140.7430   73.0870  222.2480 N   0  0  0  0  0  0  0  0  0  0  0  0
  140.7870   73.8550  221.0380 C   0  0  0  0  0  0  0  0  0  0  0  0
  141.2100   75.2550  221.2510 C   0  0  0  0  0  0  0  0  0  0  0  0
  141.0220   75.8410  222.3710 O   0  0  0  0  0  0  0  0  0  0  0  0
  141.8350   75.9250  220.1620 N   0  0  0  0  0  0  0  0  0  0  0  0
  142.9360   75.3490  219.4140 C   0  0  0  0  0  0  0  0  0  0  0  0
  142.7220   75.6260  217.9250 C   0  0  0  0  0  0  0  0  0  0  0  0
  142.5750   77.0910  217.6530 C   0  0  0  0  0  0  0  0  0  0  0  0
  142.4990   77.8820  218.9650 C   0  0  0  0  0  0  0  0  0  0  0  0
  141.3650   77.2360  219.7690 C   0  0  2  0  0  0  0  0  0  0  0  0
  140.9950   78.0970  220.9160 C   0  0  0  0  0  0  0  0  0  0  0  0
  139.6690   78.1620  221.2970 C   0  0  0  0  0  0  0  0  0  0  0  0
  139.3170   78.9680  222.3700 C   0  0  0  0  0  0  0  0  0  0  0  0
  140.2910   79.6830  223.0330 C   0  0  0  0  0  0  0  0  0  0  0  0
  141.6240   79.6020  222.6310 C   0  0  0  0  0  0  0  0  0  0  0  0
  142.8660   80.4990  223.4580 Cl  0  0  0  0  0  0  0  0  0  0  0  0
  141.9990   78.7970  221.5530 C   0  0  0  0  0  0  0  0  0  0  0  0
  139.9460   71.1600  223.6070 C   0  0  0  0  0  0  0  0  0  0  0  0
  139.3920   69.8990  223.6660 C   0  0  0  0  0  0  0  0  0  0  0  0
  139.3780   69.1780  224.8650 C   0  0  0  0  0  0  0  0  0  0  0  0
  139.9370   69.7610  226.0030 C   0  0  0  0  0  0  0  0  0  0  0  0
  139.9600   69.1120  227.2220 C   0  0  0  0  0  0  0  0  0  0  0  0
  140.5320   69.7450  228.3210 C   0  0  0  0  0  0  0  0  0  0  0  0
  141.0740   71.0210  228.1860 C   0  0  0  0  0  0  0  0  0  0  0  0
  141.0590   71.6820  226.9780 C   0  0  0  0  0  0  0  0  0  0  0  0
  140.4810   71.0240  225.9020 C   0  0  0  0  0  0  0  0  0  0  0  0
  140.4820   71.7010  224.7290 N   0  0  0  0  0  0  0  0  0  0  0  0
  141.2900   73.3720  223.1000 H   0  0  0  0  0  0  0  0  0  0  0  0
  141.4963   73.3770  220.3463 H   0  0  0  0  0  0  0  0  0  0  0  0
  139.7656   73.8810  220.6305 H   0  0  0  0  0  0  0  0  0  0  0  0
  143.8827   75.8032  219.7417 H   0  0  0  0  0  0  0  0  0  0  0  0
  142.9780   74.2638  219.5889 H   0  0  0  0  0  0  0  0  0  0  0  0
  143.5866   75.2434  217.3628 H   0  0  0  0  0  0  0  0  0  0  0  0
  141.7956   75.1229  217.6109 H   0  0  0  0  0  0  0  0  0  0  0  0
  143.4415   77.4389  217.0715 H   0  0  0  0  0  0  0  0  0  0  0  0
  141.6454   77.2539  217.0879 H   0  0  0  0  0  0  0  0  0  0  0  0
  143.4495   77.8082  219.5138 H   0  0  0  0  0  0  0  0  0  0  0  0
  142.3139   78.9514  218.7860 H   0  0  0  0  0  0  0  0  0  0  0  0
  140.4431   77.1265  219.1790 H   0  0  0  0  0  0  0  0  0  0  0  0
  138.9040   77.5838  220.7581 H   0  0  0  0  0  0  0  0  0  0  0  0
  138.2667   79.0360  222.6897 H   0  0  0  0  0  0  0  0  0  0  0  0
  140.0152   80.3218  223.8850 H   0  0  0  0  0  0  0  0  0  0  0  0
  143.0470   78.7244  221.2267 H   0  0  0  0  0  0  0  0  0  0  0  0
  138.9557   69.4543  222.7594 H   0  0  0  0  0  0  0  0  0  0  0  0
  138.9353   68.1720  224.9097 H   0  0  0  0  0  0  0  0  0  0  0  0
  139.5303   68.1045  227.3229 H   0  0  0  0  0  0  0  0  0  0  0  0
  140.5562   69.2377  229.2967 H   0  0  0  0  0  0  0  0  0  0  0  0
  141.5233   71.5108  229.0625 H   0  0  0  0  0  0  0  0  0  0  0  0
  141.4874   72.6895  226.8707 H   0  0  0  0  0  0  0  0  0  0  0  0
  1  2  2  0
  2  3  1  0
  3  4  1  0
  4  5  1  0
  5  6  2  0
  5  7  1  0
  7  8  1  0
  8  9  1  0
  9 10  1  0
 10 11  1  0
 11 12  1  0
 12 13  1  0
 13 14  2  0
 14 15  1  0
 15 16  2  0
 16 17  1  0
 17 18  1  0
 17 19  2  0
  2 20  1  0
 20 21  2  0
 21 22  1  0
 22 23  2  0
 23 24  1  0
 24 25  2  0
 25 26  1  0
 26 27  2  0
 27 28  1  0
 28 29  2  0
 12  7  1  0
 19 13  1  0
 29 20  1  0
 28 23  1  0
  3 30  1  0
  4 31  1  0
  4 32  1  0
  8 33  1  0
  8 34  1  0
  9 35  1  0
  9 36  1  0
 10 37  1  0
 10 38  1  0
 11 39  1  0
 11 40  1  0
 12 41  1  6
 14 42  1  0
 15 43  1  0
 16 44  1  0
 19 45  1  0
 21 46  1  0
 22 47  1  0
 24 48  1  0
 25 49  1  0
 26 50  1  0
 27 51  1  0
M  END
>  <smiles>  (41) 
O=C(NCC(=O)N1CCCCC1c1cccc(Cl)c1)c1ccc2ccccc2n1

>  <score_type>  (41) 
oracle

>  <origin>  (41) 
autodockgpu

>  <m_score__min__energy>  (41) 
-9.4100000000000001

>  <m_primary>  (41) 
energy

>  <rmsd>  (41) 
2.137042391831528

>  <m_score__min__rmsd>  (41) 
2.137042391831528

>  <meeko>  (41) 
{"free_energy": -8.61, "intermolecular_energy": -10.11, "internal_energy": -1.65, "cluster_size": 19, "cluster_id": 1, "rank_in_cluster": 18}

>  <energy>  (41) 
-8.45

>  <cluster_rmsd>  (41) 
0.96

>  <cluster>  (41) 
2

$$$$

     RDKit          3D

 51 54  0  0  0  0  0  0  0  0999 V2000
  140.5020   71.4730  221.2150 O   0  0  0  0  0  0  0  0  0  0  0  0
  140.1640   72.0410  222.2890 C   0  0  0  0  0  0  0  0  0  0  0  0
  139.8310   73.4190  222.2840 N   0  0  0  0  0  0  0  0  0  0  0  0
  139.8720   74.1860  221.0730 C   0  0  0  0  0  0  0  0  0  0  0  0
  140.7320   75.3850  221.1720 C   0  0  0  0  0  0  0  0  0  0  0  0
  141.0830   75.8570  222.3060 O   0  0  0  0  0  0  0  0  0  0  0  0
  141.1530   75.9930  219.9560 N   0  0  0  0  0  0  0  0  0  0  0  0
  140.2400   76.6870  219.0680 C   0  0  0  0  0  0  0  0  0  0  0  0
  140.9120   77.9640  218.5630 C   0  0  0  0  0  0  0  0  0  0  0  0
  142.2190   77.6700  217.8940 C   0  0  0  0  0  0  0  0  0  0  0  0
  142.5960   76.1930  218.0640 C   0  0  0  0  0  0  0  0  0  0  0  0
  142.5470   75.9280  219.5720 C   0  0  2  0  0  0  0  0  0  0  0  0
  143.1840   74.6280  219.8860 C   0  0  0  0  0  0  0  0  0  0  0  0
  142.5420   73.4660  219.5070 C   0  0  0  0  0  0  0  0  0  0  0  0
  143.1330   72.2450  219.7990 C   0  0  0  0  0  0  0  0  0  0  0  0
  144.3440   72.2150  220.4560 C   0  0  0  0  0  0  0  0  0  0  0  0
  144.9750   73.4020  220.8300 C   0  0  0  0  0  0  0  0  0  0  0  0
  146.5040   73.3820  221.6620 Cl  0  0  0  0  0  0  0  0  0  0  0  0
  144.3950   74.6410  220.5460 C   0  0  0  0  0  0  0  0  0  0  0  0
  140.1060   71.3000  223.5590 C   0  0  0  0  0  0  0  0  0  0  0  0
  139.5700   70.0300  223.6030 C   0  0  0  0  0  0  0  0  0  0  0  0
  139.5110   69.3180  224.8060 C   0  0  0  0  0  0  0  0  0  0  0  0
  140.0050   69.9190  225.9650 C   0  0  0  0  0  0  0  0  0  0  0  0
  139.9820   69.2800  227.1880 C   0  0  0  0  0  0  0  0  0  0  0  0
  140.4910   69.9300  228.3070 C   0  0  0  0  0  0  0  0  0  0  0  0
  141.0180   71.2140  228.1880 C   0  0  0  0  0  0  0  0  0  0  0  0
  141.0490   71.8660  226.9750 C   0  0  0  0  0  0  0  0  0  0  0  0
  140.5340   71.1900  225.8780 C   0  0  0  0  0  0  0  0  0  0  0  0
  140.5790   71.8580  224.7010 N   0  0  0  0  0  0  0  0  0  0  0  0
  139.5550   73.8540  223.2010 H   0  0  0  0  0  0  0  0  0  0  0  0
  140.2570   73.5452  220.2661 H   0  0  0  0  0  0  0  0  0  0  0  0
  138.8481   74.5337  220.8713 H   0  0  0  0  0  0  0  0  0  0  0  0
  139.9912   76.0389  218.2147 H   0  0  0  0  0  0  0  0  0  0  0  0
  139.3167   76.9416  219.6089 H   0  0  0  0  0  0  0  0  0  0  0  0
  140.2444   78.4576  217.8414 H   0  0  0  0  0  0  0  0  0  0  0  0
  141.1062   78.6162  219.4273 H   0  0  0  0  0  0  0  0  0  0  0  0
  142.1353   77.9000  216.8216 H   0  0  0  0  0  0  0  0  0  0  0  0
  143.0005   78.2897  218.3579 H   0  0  0  0  0  0  0  0  0  0  0  0
  141.8760   75.5495  217.5372 H   0  0  0  0  0  0  0  0  0  0  0  0
  143.5888   75.9747  217.6437 H   0  0  0  0  0  0  0  0  0  0  0  0
  143.1145   76.6751  220.1463 H   0  0  0  0  0  0  0  0  0  0  0  0
  141.5765   73.5075  218.9815 H   0  0  0  0  0  0  0  0  0  0  0  0
  142.6379   71.3068  219.5079 H   0  0  0  0  0  0  0  0  0  0  0  0
  144.8164   71.2488  220.6871 H   0  0  0  0  0  0  0  0  0  0  0  0
  144.8820   75.5838  220.8356 H   0  0  0  0  0  0  0  0  0  0  0  0
  139.1841   69.5711  222.6808 H   0  0  0  0  0  0  0  0  0  0  0  0
  139.0838   68.3048  224.8378 H   0  0  0  0  0  0  0  0  0  0  0  0
  139.5649   68.2660  227.2768 H   0  0  0  0  0  0  0  0  0  0  0  0
  140.4775   69.4300  229.2867 H   0  0  0  0  0  0  0  0  0  0  0  0
  141.4175   71.7174  229.0807 H   0  0  0  0  0  0  0  0  0  0  0  0
  141.4646   72.8800  226.8799 H   0  0  0  0  0  0  0  0  0  0  0  0
  1  2  2  0
  2  3  1  0
  3  4  1  0
  4  5  1  0
  5  6  2  0
  5  7  1  0
  7  8  1  0
  8  9  1  0
  9 10  1  0
 10 11  1  0
 11 12  1  0
 12 13  1  0
 13 14  2  0
 14 15  1  0
 15 16  2  0
 16 17  1  0
 17 18  1  0
 17 19  2  0
  2 20  1  0
 20 21  2  0
 21 22  1  0
 22 23  2  0
 23 24  1  0
 24 25  2  0
 25 26  1  0
 26 27  2  0
 27 28  1  0
 28 29  2  0
 12  7  1  0
 19 13  1  0
 29 20  1  0
 28 23  1  0
  3 30  1  0
  4 31  1  0
  4 32  1  0
  8 33  1  0
  8 34  1  0
  9 35  1  0
  9 36  1  0
 10 37  1  0
 10 38  1  0
 11 39  1  0
 11 40  1  0
 12 41  1  1
 14 42  1  0
 15 43  1  0
 16 44  1  0
 19 45  1  0
 21 46  1  0
 22 47  1  0
 24 48  1  0
 25 49  1  0
 26 50  1  0
 27 51  1  0
M  END
>  <smiles>  (42) 
O=C(NCC(=O)N1CCCCC1c1cccc(Cl)c1)c1ccc2ccccc2n1

>  <score_type>  (42) 
oracle

>  <origin>  (42) 
autodockgpu

>  <m_score__min__energy>  (42) 
-9.4100000000000001

>  <m_primary>  (42) 
energy

>  <rmsd>  (42) 
1.7469226002215446

>  <m_score__min__rmsd>  (42) 
1.7469226002215446

>  <meeko>  (42) 
{"free_energy": -9.0, "intermolecular_energy": -10.49, "internal_energy": -1.94, "cluster_size": 23, "cluster_id": 2, "rank_in_cluster": 12}

>  <energy>  (42) 
-8.0

>  <cluster_rmsd>  (42) 
1.05

>  <cluster>  (42) 
2

$$$$

     RDKit          3D

 51 54  0  0  0  0  0  0  0  0999 V2000
  140.6750   71.4950  221.2530 O   0  0  0  0  0  0  0  0  0  0  0  0
  140.2730   72.0670  222.3030 C   0  0  0  0  0  0  0  0  0  0  0  0
  139.9160   73.4390  222.2660 N   0  0  0  0  0  0  0  0  0  0  0  0
  140.0060   74.1950  221.0500 C   0  0  0  0  0  0  0  0  0  0  0  0
  140.7860   75.4420  221.1960 C   0  0  0  0  0  0  0  0  0  0  0  0
  141.0670   75.9170  222.3480 O   0  0  0  0  0  0  0  0  0  0  0  0
  141.2120   76.0920  220.0040 N   0  0  0  0  0  0  0  0  0  0  0  0
  140.3040   76.8240  219.1410 C   0  0  0  0  0  0  0  0  0  0  0  0
  140.9860   78.1160  218.6850 C   0  0  0  0  0  0  0  0  0  0  0  0
  142.2910   77.8380  218.0060 C   0  0  0  0  0  0  0  0  0  0  0  0
  142.6590   76.3540  218.1210 C   0  0  0  0  0  0  0  0  0  0  0  0
  142.6060   76.0330  219.6190 C   0  0  2  0  0  0  0  0  0  0  0  0
  143.2350   74.7180  219.8840 C   0  0  0  0  0  0  0  0  0  0  0  0
  142.6070   73.5780  219.4240 C   0  0  0  0  0  0  0  0  0  0  0  0
  143.1900   72.3430  219.6710 C   0  0  0  0  0  0  0  0  0  0  0  0
  144.3790   72.2790  220.3650 C   0  0  0  0  0  0  0  0  0  0  0  0
  144.9960   73.4440  220.8200 C   0  0  0  0  0  0  0  0  0  0  0  0
  146.4980   73.3800  221.6980 Cl  0  0  0  0  0  0  0  0  0  0  0  0
  144.4240   74.6970  220.5820 C   0  0  0  0  0  0  0  0  0  0  0  0
  140.1630   71.3380  223.5760 C   0  0  0  0  0  0  0  0  0  0  0  0
  139.5860   70.0860  223.6170 C   0  0  0  0  0  0  0  0  0  0  0  0
  139.4780   69.3860  224.8230 C   0  0  0  0  0  0  0  0  0  0  0  0
  139.9660   69.9790  225.9880 C   0  0  0  0  0  0  0  0  0  0  0  0
  139.8940   69.3500  227.2150 C   0  0  0  0  0  0  0  0  0  0  0  0
  140.3990   69.9930  228.3410 C   0  0  0  0  0  0  0  0  0  0  0  0
  140.9700   71.2580  228.2250 C   0  0  0  0  0  0  0  0  0  0  0  0
  141.0490   71.8990  227.0080 C   0  0  0  0  0  0  0  0  0  0  0  0
  140.5360   71.2320  225.9040 C   0  0  0  0  0  0  0  0  0  0  0  0
  140.6290   71.8900  224.7240 N   0  0  0  0  0  0  0  0  0  0  0  0
  139.5860   73.8780  223.1620 H   0  0  0  0  0  0  0  0  0  0  0  0
  140.4874   73.5692  220.2841 H   0  0  0  0  0  0  0  0  0  0  0  0
  138.9824   74.4810  220.7664 H   0  0  0  0  0  0  0  0  0  0  0  0
  140.0527   76.2097  218.2638 H   0  0  0  0  0  0  0  0  0  0  0  0
  139.3809   77.0635  219.6892 H   0  0  0  0  0  0  0  0  0  0  0  0
  140.3225   78.6416  217.9825 H   0  0  0  0  0  0  0  0  0  0  0  0
  141.1841   78.7336  219.5735 H   0  0  0  0  0  0  0  0  0  0  0  0
  142.2091   78.1079  216.9428 H   0  0  0  0  0  0  0  0  0  0  0  0
  143.0762   78.4349  218.4931 H   0  0  0  0  0  0  0  0  0  0  0  0
  141.9361   75.7349  217.5695 H   0  0  0  0  0  0  0  0  0  0  0  0
  143.6512   76.1456  217.6942 H   0  0  0  0  0  0  0  0  0  0  0  0
  143.1767   76.7547  220.2218 H   0  0  0  0  0  0  0  0  0  0  0  0
  141.6591   73.6474  218.8702 H   0  0  0  0  0  0  0  0  0  0  0  0
  142.7063   71.4213  219.3152 H   0  0  0  0  0  0  0  0  0  0  0  0
  144.8447   71.3020  220.5614 H   0  0  0  0  0  0  0  0  0  0  0  0
  144.9003   75.6235  220.9352 H   0  0  0  0  0  0  0  0  0  0  0  0
  139.2060   69.6324  222.6897 H   0  0  0  0  0  0  0  0  0  0  0  0
  139.0174   68.3875  224.8525 H   0  0  0  0  0  0  0  0  0  0  0  0
  139.4421   68.3509  227.3015 H   0  0  0  0  0  0  0  0  0  0  0  0
  140.3472   69.5016  229.3238 H   0  0  0  0  0  0  0  0  0  0  0  0
  141.3658   71.7552  229.1229 H   0  0  0  0  0  0  0  0  0  0  0  0
  141.4999   72.8980  226.9150 H   0  0  0  0  0  0  0  0  0  0  0  0
  1  2  2  0
  2  3  1  0
  3  4  1  0
  4  5  1  0
  5  6  2  0
  5  7  1  0
  7  8  1  0
  8  9  1  0
  9 10  1  0
 10 11  1  0
 11 12  1  0
 12 13  1  0
 13 14  2  0
 14 15  1  0
 15 16  2  0
 16 17  1  0
 17 18  1  0
 17 19  2  0
  2 20  1  0
 20 21  2  0
 21 22  1  0
 22 23  2  0
 23 24  1  0
 24 25  2  0
 25 26  1  0
 26 27  2  0
 27 28  1  0
 28 29  2  0
 12  7  1  0
 19 13  1  0
 29 20  1  0
 28 23  1  0
  3 30  1  0
  4 31  1  0
  4 32  1  0
  8 33  1  0
  8 34  1  0
  9 35  1  0
  9 36  1  0
 10 37  1  0
 10 38  1  0
 11 39  1  0
 11 40  1  0
 12 41  1  1
 14 42  1  0
 15 43  1  0
 16 44  1  0
 19 45  1  0
 21 46  1  0
 22 47  1  0
 24 48  1  0
 25 49  1  0
 26 50  1  0
 27 51  1  0
M  END
>  <smiles>  (43) 
O=C(NCC(=O)N1CCCCC1c1cccc(Cl)c1)c1ccc2ccccc2n1

>  <score_type>  (43) 
oracle

>  <origin>  (43) 
autodockgpu

>  <m_score__min__energy>  (43) 
-9.4100000000000001

>  <m_primary>  (43) 
energy

>  <rmsd>  (43) 
1.825859847000506

>  <m_score__min__rmsd>  (43) 
1.825859847000506

>  <meeko>  (43) 
{"free_energy": -9.05, "intermolecular_energy": -10.54, "internal_energy": -1.92, "cluster_size": 23, "cluster_id": 2, "rank_in_cluster": 7}

>  <energy>  (43) 
-9.04

>  <cluster_rmsd>  (43) 
0.0

>  <cluster>  (43) 
3

$$$$

     RDKit          3D

 51 54  0  0  0  0  0  0  0  0999 V2000
  141.4370   72.3200  221.8080 O   0  0  0  0  0  0  0  0  0  0  0  0
  140.4400   72.4630  222.5660 C   0  0  0  0  0  0  0  0  0  0  0  0
  139.5050   73.5000  222.3150 N   0  0  0  0  0  0  0  0  0  0  0  0
  139.6740   74.3960  221.2080 C   0  0  0  0  0  0  0  0  0  0  0  0
  140.4920   75.5820  221.5390 C   0  0  0  0  0  0  0  0  0  0  0  0
  140.5360   76.0470  222.7280 O   0  0  0  0  0  0  0  0  0  0  0  0
  141.2290   76.1860  220.4820 N   0  0  0  0  0  0  0  0  0  0  0  0
  142.2410   75.4750  219.7240 C   0  0  0  0  0  0  0  0  0  0  0  0
  142.0970   75.8320  218.2440 C   0  0  0  0  0  0  0  0  0  0  0  0
  142.1790   77.3110  218.0250 C   0  0  0  0  0  0  0  0  0  0  0  0
  142.2030   78.0580  219.3640 C   0  0  0  0  0  0  0  0  0  0  0  0
  140.9710   77.5660  220.1310 C   0  0  2  0  0  0  0  0  0  0  0  0
  140.7180   78.4340  221.3060 C   0  0  0  0  0  0  0  0  0  0  0  0
  139.4170   78.6130  221.7290 C   0  0  0  0  0  0  0  0  0  0  0  0
  139.1730   79.4260  222.8280 C   0  0  0  0  0  0  0  0  0  0  0  0
  140.2290   80.0330  223.4720 C   0  0  0  0  0  0  0  0  0  0  0  0
  141.5370   79.8370  223.0260 C   0  0  0  0  0  0  0  0  0  0  0  0
  142.8820   80.5980  223.8290 Cl  0  0  0  0  0  0  0  0  0  0  0  0
  141.8020   79.0230  221.9220 C   0  0  0  0  0  0  0  0  0  0  0  0
  140.2200   71.5710  223.7160 C   0  0  0  0  0  0  0  0  0  0  0  0
  139.5310   70.3870  223.5590 C   0  0  0  0  0  0  0  0  0  0  0  0
  139.3180   69.5330  224.6470 C   0  0  0  0  0  0  0  0  0  0  0  0
  139.8170   69.9020  225.8960 C   0  0  0  0  0  0  0  0  0  0  0  0
  139.6470   69.1120  227.0150 C   0  0  0  0  0  0  0  0  0  0  0  0
  140.1690   69.5330  228.2340 C   0  0  0  0  0  0  0  0  0  0  0  0
  140.8560   70.7420  228.3170 C   0  0  0  0  0  0  0  0  0  0  0  0
  141.0340   71.5430  227.2100 C   0  0  0  0  0  0  0  0  0  0  0  0
  140.5020   71.0940  226.0100 C   0  0  0  0  0  0  0  0  0  0  0  0
  140.6940   71.9040  224.9420 N   0  0  0  0  0  0  0  0  0  0  0  0
  138.6890   73.5840  222.9720 H   0  0  0  0  0  0  0  0  0  0  0  0
  140.1645   73.8505  220.3883 H   0  0  0  0  0  0  0  0  0  0  0  0
  138.6745   74.7570  220.9238 H   0  0  0  0  0  0  0  0  0  0  0  0
  143.2405   75.7674  220.0783 H   0  0  0  0  0  0  0  0  0  0  0  0
  142.1130   74.3908  219.8589 H   0  0  0  0  0  0  0  0  0  0  0  0
  142.9029   75.3418  217.6782 H   0  0  0  0  0  0  0  0  0  0  0  0
  141.1107   75.4867  217.9004 H   0  0  0  0  0  0  0  0  0  0  0  0
  143.0976   77.5426  217.4660 H   0  0  0  0  0  0  0  0  0  0  0  0
  141.2941   77.6334  217.4566 H   0  0  0  0  0  0  0  0  0  0  0  0
  143.1219   77.8204  219.9200 H   0  0  0  0  0  0  0  0  0  0  0  0
  142.1862   79.1487  219.2225 H   0  0  0  0  0  0  0  0  0  0  0  0
  140.0534   77.6192  219.5267 H   0  0  0  0  0  0  0  0  0  0  0  0
  138.5860   78.1194  221.2039 H   0  0  0  0  0  0  0  0  0  0  0  0
  138.1436   79.5843  223.1820 H   0  0  0  0  0  0  0  0  0  0  0  0
  140.0399   80.6766  224.3438 H   0  0  0  0  0  0  0  0  0  0  0  0
  142.8280   78.8595  221.5608 H   0  0  0  0  0  0  0  0  0  0  0  0
  139.1443   70.1105  222.5670 H   0  0  0  0  0  0  0  0  0  0  0  0
  138.7677   68.5891  224.5196 H   0  0  0  0  0  0  0  0  0  0  0  0
  139.1037   68.1582  226.9436 H   0  0  0  0  0  0  0  0  0  0  0  0
  140.0393   68.9113  229.1321 H   0  0  0  0  0  0  0  0  0  0  0  0
  141.2648   71.0639  229.2862 H   0  0  0  0  0  0  0  0  0  0  0  0
  141.5752   72.4984  227.2751 H   0  0  0  0  0  0  0  0  0  0  0  0
  1  2  2  0
  2  3  1  0
  3  4  1  0
  4  5  1  0
  5  6  2  0
  5  7  1  0
  7  8  1  0
  8  9  1  0
  9 10  1  0
 10 11  1  0
 11 12  1  0
 12 13  1  0
 13 14  2  0
 14 15  1  0
 15 16  2  0
 16 17  1  0
 17 18  1  0
 17 19  2  0
  2 20  1  0
 20 21  2  0
 21 22  1  0
 22 23  2  0
 23 24  1  0
 24 25  2  0
 25 26  1  0
 26 27  2  0
 27 28  1  0
 28 29  2  0
 12  7  1  0
 19 13  1  0
 29 20  1  0
 28 23  1  0
  3 30  1  0
  4 31  1  0
  4 32  1  0
  8 33  1  0
  8 34  1  0
  9 35  1  0
  9 36  1  0
 10 37  1  0
 10 38  1  0
 11 39  1  0
 11 40  1  0
 12 41  1  6
 14 42  1  0
 15 43  1  0
 16 44  1  0
 19 45  1  0
 21 46  1  0
 22 47  1  0
 24 48  1  0
 25 49  1  0
 26 50  1  0
 27 51  1  0
M  END
>  <smiles>  (44) 
O=C(NCC(=O)N1CCCCC1c1cccc(Cl)c1)c1ccc2ccccc2n1

>  <score_type>  (44) 
oracle

>  <origin>  (44) 
autodockgpu

>  <m_score__min__energy>  (44) 
-9.4100000000000001

>  <m_primary>  (44) 
energy

>  <rmsd>  (44) 
1.9532357397428943

>  <m_score__min__rmsd>  (44) 
1.9532357397428943

>  <meeko>  (44) 
{"free_energy": -9.4, "intermolecular_energy": -10.89, "internal_energy": -1.38, "cluster_size": 19, "cluster_id": 1, "rank_in_cluster": 4}

>  <energy>  (44) 
-8.7

>  <cluster_rmsd>  (44) 
0.59

>  <cluster>  (44) 
3

$$$$

     RDKit          3D

 51 54  0  0  0  0  0  0  0  0999 V2000
  140.2130   71.4740  221.3070 O   0  0  0  0  0  0  0  0  0  0  0  0
  139.9900   72.0030  222.4300 C   0  0  0  0  0  0  0  0  0  0  0  0
  139.7400   73.3960  222.5170 N   0  0  0  0  0  0  0  0  0  0  0  0
  139.7360   74.2220  221.3440 C   0  0  0  0  0  0  0  0  0  0  0  0
  139.9330   75.6570  221.6430 C   0  0  0  0  0  0  0  0  0  0  0  0
  141.1030   76.1660  221.7100 O   0  0  0  0  0  0  0  0  0  0  0  0
  138.7690   76.4490  221.8530 N   0  0  0  0  0  0  0  0  0  0  0  0
  137.4740   76.1040  221.2980 C   0  0  0  0  0  0  0  0  0  0  0  0
  136.3980   76.3560  222.3550 C   0  0  0  0  0  0  0  0  0  0  0  0
  136.4300   77.7690  222.8470 C   0  0  0  0  0  0  0  0  0  0  0  0
  137.6480   78.5130  222.2840 C   0  0  0  0  0  0  0  0  0  0  0  0
  138.8610   77.6520  222.6520 C   0  0  2  0  0  0  0  0  0  0  0  0
  140.1140   78.4100  222.4320 C   0  0  0  0  0  0  0  0  0  0  0  0
  141.0060   78.5360  223.4780 C   0  0  0  0  0  0  0  0  0  0  0  0
  142.1820   79.2460  223.2780 C   0  0  0  0  0  0  0  0  0  0  0  0
  142.4350   79.8090  222.0460 C   0  0  0  0  0  0  0  0  0  0  0  0
  141.5190   79.6690  221.0030 C   0  0  0  0  0  0  0  0  0  0  0  0
  141.8240   80.3740  219.4400 Cl  0  0  0  0  0  0  0  0  0  0  0  0
  140.3300   78.9580  221.1850 C   0  0  0  0  0  0  0  0  0  0  0  0
  139.9840   71.2010  223.6640 C   0  0  0  0  0  0  0  0  0  0  0  0
  139.5420   69.8950  223.6450 C   0  0  0  0  0  0  0  0  0  0  0  0
  139.5320   69.1250  224.8130 C   0  0  0  0  0  0  0  0  0  0  0  0
  139.9790   69.7050  226.0010 C   0  0  0  0  0  0  0  0  0  0  0  0
  139.9990   69.0090  227.1930 C   0  0  0  0  0  0  0  0  0  0  0  0
  140.4560   69.6410  228.3450 C   0  0  0  0  0  0  0  0  0  0  0  0
  140.8890   70.9640  228.2890 C   0  0  0  0  0  0  0  0  0  0  0  0
  140.8750   71.6730  227.1070 C   0  0  0  0  0  0  0  0  0  0  0  0
  140.4130   71.0140  225.9770 C   0  0  0  0  0  0  0  0  0  0  0  0
  140.4120   71.7380  224.8330 N   0  0  0  0  0  0  0  0  0  0  0  0
  139.5600   73.7970  223.4720 H   0  0  0  0  0  0  0  0  0  0  0  0
  140.5461   73.8888  220.6787 H   0  0  0  0  0  0  0  0  0  0  0  0
  138.7470   74.1182  220.8737 H   0  0  0  0  0  0  0  0  0  0  0  0
  137.2744   76.7256  220.4127 H   0  0  0  0  0  0  0  0  0  0  0  0
  137.4656   75.0442  221.0035 H   0  0  0  0  0  0  0  0  0  0  0  0
  135.4105   76.1535  221.9146 H   0  0  0  0  0  0  0  0  0  0  0  0
  136.5913   75.6898  223.2087 H   0  0  0  0  0  0  0  0  0  0  0  0
  135.5125   78.2838  222.5259 H   0  0  0  0  0  0  0  0  0  0  0  0
  136.4985   77.7593  223.9448 H   0  0  0  0  0  0  0  0  0  0  0  0
  137.5655   78.6139  221.1917 H   0  0  0  0  0  0  0  0  0  0  0  0
  137.7302   79.5301  222.6949 H   0  0  0  0  0  0  0  0  0  0  0  0
  138.8712   77.3775  223.7172 H   0  0  0  0  0  0  0  0  0  0  0  0
  140.7882   78.0806  224.4553 H   0  0  0  0  0  0  0  0  0  0  0  0
  142.9071   79.3584  224.0975 H   0  0  0  0  0  0  0  0  0  0  0  0
  143.3656   80.3727  221.8837 H   0  0  0  0  0  0  0  0  0  0  0  0
  139.5996   78.8407  220.3709 H   0  0  0  0  0  0  0  0  0  0  0  0
  139.1930   69.4532  222.7000 H   0  0  0  0  0  0  0  0  0  0  0  0
  139.1789   68.0834  224.7953 H   0  0  0  0  0  0  0  0  0  0  0  0
  139.6567   67.9643  227.2316 H   0  0  0  0  0  0  0  0  0  0  0  0
  140.4755   69.0960  229.3003 H   0  0  0  0  0  0  0  0  0  0  0  0
  141.2493   71.4525  229.2064 H   0  0  0  0  0  0  0  0  0  0  0  0
  141.2160   72.7178  227.0616 H   0  0  0  0  0  0  0  0  0  0  0  0
  1  2  2  0
  2  3  1  0
  3  4  1  0
  4  5  1  0
  5  6  2  0
  5  7  1  0
  7  8  1  0
  8  9  1  0
  9 10  1  0
 10 11  1  0
 11 12  1  0
 12 13  1  0
 13 14  2  0
 14 15  1  0
 15 16  2  0
 16 17  1  0
 17 18  1  0
 17 19  2  0
  2 20  1  0
 20 21  2  0
 21 22  1  0
 22 23  2  0
 23 24  1  0
 24 25  2  0
 25 26  1  0
 26 27  2  0
 27 28  1  0
 28 29  2  0
 12  7  1  0
 19 13  1  0
 29 20  1  0
 28 23  1  0
  3 30  1  0
  4 31  1  0
  4 32  1  0
  8 33  1  0
  8 34  1  0
  9 35  1  0
  9 36  1  0
 10 37  1  0
 10 38  1  0
 11 39  1  0
 11 40  1  0
 12 41  1  1
 14 42  1  0
 15 43  1  0
 16 44  1  0
 19 45  1  0
 21 46  1  0
 22 47  1  0
 24 48  1  0
 25 49  1  0
 26 50  1  0
 27 51  1  0
M  END
>  <smiles>  (45) 
O=C(NCC(=O)N1CCCCC1c1cccc(Cl)c1)c1ccc2ccccc2n1

>  <score_type>  (45) 
oracle

>  <origin>  (45) 
autodockgpu

>  <m_score__min__energy>  (45) 
-9.4100000000000001

>  <m_primary>  (45) 
energy

>  <rmsd>  (45) 
3.064454728940314

>  <m_score__min__rmsd>  (45) 
3.064454728940314

>  <meeko>  (45) 
{"free_energy": -8.7, "intermolecular_energy": -10.2, "internal_energy": -1.23, "cluster_size": 2, "cluster_id": 3, "rank_in_cluster": 2}

>  <energy>  (45) 
-8.01

>  <cluster_rmsd>  (45) 
0.0

>  <cluster>  (45) 
4

$$$$

     RDKit          3D

 51 54  0  0  0  0  0  0  0  0999 V2000
  140.6620   71.4670  221.2170 O   0  0  0  0  0  0  0  0  0  0  0  0
  140.2750   72.0410  222.2710 C   0  0  0  0  0  0  0  0  0  0  0  0
  139.9260   73.4150  222.2390 N   0  0  0  0  0  0  0  0  0  0  0  0
  140.0050   74.1710  221.0230 C   0  0  0  0  0  0  0  0  0  0  0  0
  140.8250   75.3940  221.1500 C   0  0  0  0  0  0  0  0  0  0  0  0
  141.1340   75.8690  222.2950 O   0  0  0  0  0  0  0  0  0  0  0  0
  141.2560   76.0230  219.9480 N   0  0  0  0  0  0  0  0  0  0  0  0
  140.3500   76.7340  219.0660 C   0  0  0  0  0  0  0  0  0  0  0  0
  141.0280   78.0200  218.5890 C   0  0  0  0  0  0  0  0  0  0  0  0
  142.3400   77.7350  217.9240 C   0  0  0  0  0  0  0  0  0  0  0  0
  142.7140   76.2560  218.0710 C   0  0  0  0  0  0  0  0  0  0  0  0
  142.6530   75.9640  219.5740 C   0  0  2  0  0  0  0  0  0  0  0  0
  143.2860   74.6570  219.8690 C   0  0  0  0  0  0  0  0  0  0  0  0
  142.6620   73.5050  219.4360 C   0  0  0  0  0  0  0  0  0  0  0  0
  143.2490   72.2780  219.7110 C   0  0  0  0  0  0  0  0  0  0  0  0
  144.4390   72.2330  220.4050 C   0  0  0  0  0  0  0  0  0  0  0  0
  145.0520   73.4110  220.8340 C   0  0  0  0  0  0  0  0  0  0  0  0
  146.5540   73.3720  221.7130 Cl  0  0  0  0  0  0  0  0  0  0  0  0
  144.4750   74.6560  220.5670 C   0  0  0  0  0  0  0  0  0  0  0  0
  140.1760   71.3120  223.5460 C   0  0  0  0  0  0  0  0  0  0  0  0
  139.6030   70.0590  223.5900 C   0  0  0  0  0  0  0  0  0  0  0  0
  139.5050   69.3580  224.7980 C   0  0  0  0  0  0  0  0  0  0  0  0
  139.9990   69.9530  225.9590 C   0  0  0  0  0  0  0  0  0  0  0  0
  139.9380   69.3250  227.1870 C   0  0  0  0  0  0  0  0  0  0  0  0
  140.4490   69.9690  228.3090 C   0  0  0  0  0  0  0  0  0  0  0  0
  141.0150   71.2360  228.1890 C   0  0  0  0  0  0  0  0  0  0  0  0
  141.0840   71.8770  226.9710 C   0  0  0  0  0  0  0  0  0  0  0  0
  140.5660   71.2080  225.8710 C   0  0  0  0  0  0  0  0  0  0  0  0
  140.6480   71.8650  224.6900 N   0  0  0  0  0  0  0  0  0  0  0  0
  139.6090   73.8550  223.1400 H   0  0  0  0  0  0  0  0  0  0  0  0
  140.4467   73.5334  220.2430 H   0  0  0  0  0  0  0  0  0  0  0  0
  138.9829   74.4878  220.7680 H   0  0  0  0  0  0  0  0  0  0  0  0
  140.1067   76.1018  218.1993 H   0  0  0  0  0  0  0  0  0  0  0  0
  139.4228   76.9798  219.6044 H   0  0  0  0  0  0  0  0  0  0  0  0
  140.3666   78.5279  217.8717 H   0  0  0  0  0  0  0  0  0  0  0  0
  141.2167   78.6564  219.4661 H   0  0  0  0  0  0  0  0  0  0  0  0
  142.2641   77.9834  216.8551 H   0  0  0  0  0  0  0  0  0  0  0  0
  143.1190   78.3454  218.4043 H   0  0  0  0  0  0  0  0  0  0  0  0
  141.9976   75.6227  217.5272 H   0  0  0  0  0  0  0  0  0  0  0  0
  143.7100   76.0443  217.6549 H   0  0  0  0  0  0  0  0  0  0  0  0
  143.2166   76.7001  220.1661 H   0  0  0  0  0  0  0  0  0  0  0  0
  141.7136   73.5584  218.8812 H   0  0  0  0  0  0  0  0  0  0  0  0
  142.7675   71.3470  219.3772 H   0  0  0  0  0  0  0  0  0  0  0  0
  144.9086   71.2622  220.6221 H   0  0  0  0  0  0  0  0  0  0  0  0
  144.9480   75.5921  220.8986 H   0  0  0  0  0  0  0  0  0  0  0  0
  139.2182   69.6045  222.6651 H   0  0  0  0  0  0  0  0  0  0  0  0
  139.0477   68.3581  224.8309 H   0  0  0  0  0  0  0  0  0  0  0  0
  139.4895   68.3247  227.2773 H   0  0  0  0  0  0  0  0  0  0  0  0
  140.4061   69.4772  229.2920 H   0  0  0  0  0  0  0  0  0  0  0  0
  141.4148   71.7348  229.0841 H   0  0  0  0  0  0  0  0  0  0  0  0
  141.5311   72.8774  226.8747 H   0  0  0  0  0  0  0  0  0  0  0  0
  1  2  2  0
  2  3  1  0
  3  4  1  0
  4  5  1  0
  5  6  2  0
  5  7  1  0
  7  8  1  0
  8  9  1  0
  9 10  1  0
 10 11  1  0
 11 12  1  0
 12 13  1  0
 13 14  2  0
 14 15  1  0
 15 16  2  0
 16 17  1  0
 17 18  1  0
 17 19  2  0
  2 20  1  0
 20 21  2  0
 21 22  1  0
 22 23  2  0
 23 24  1  0
 24 25  2  0
 25 26  1  0
 26 27  2  0
 27 28  1  0
 28 29  2  0
 12  7  1  0
 19 13  1  0
 29 20  1  0
 28 23  1  0
  3 30  1  0
  4 31  1  0
  4 32  1  0
  8 33  1  0
  8 34  1  0
  9 35  1  0
  9 36  1  0
 10 37  1  0
 10 38  1  0
 11 39  1  0
 11 40  1  0
 12 41  1  1
 14 42  1  0
 15 43  1  0
 16 44  1  0
 19 45  1  0
 21 46  1  0
 22 47  1  0
 24 48  1  0
 25 49  1  0
 26 50  1  0
 27 51  1  0
M  END
>  <smiles>  (46) 
O=C(NCC(=O)N1CCCCC1c1cccc(Cl)c1)c1ccc2ccccc2n1

>  <score_type>  (46) 
oracle

>  <origin>  (46) 
autodockgpu

>  <m_score__min__energy>  (46) 
-9.4100000000000001

>  <m_primary>  (46) 
energy

>  <rmsd>  (46) 
1.8139706671489206

>  <m_score__min__rmsd>  (46) 
1.8139706671489206

>  <meeko>  (46) 
{"free_energy": -9.03, "intermolecular_energy": -10.52, "internal_energy": -1.93, "cluster_size": 23, "cluster_id": 2, "rank_in_cluster": 8}

>  <energy>  (46) 
-7.94

>  <cluster_rmsd>  (46) 
0.12

>  <cluster>  (46) 
4

$$$$

     RDKit          3D

 51 54  0  0  0  0  0  0  0  0999 V2000
  140.3020   71.2260  221.1500 O   0  0  0  0  0  0  0  0  0  0  0  0
  140.1460   71.8650  222.2260 C   0  0  0  0  0  0  0  0  0  0  0  0
  140.0560   73.2800  222.1990 N   0  0  0  0  0  0  0  0  0  0  0  0
  140.1410   74.0040  220.9640 C   0  0  0  0  0  0  0  0  0  0  0  0
  140.9910   75.2100  221.0530 C   0  0  0  0  0  0  0  0  0  0  0  0
  141.3520   75.6850  222.1840 O   0  0  0  0  0  0  0  0  0  0  0  0
  141.3900   75.8230  219.8330 N   0  0  0  0  0  0  0  0  0  0  0  0
  140.4420   76.3810  218.8870 C   0  0  0  0  0  0  0  0  0  0  0  0
  140.9880   77.7100  218.3620 C   0  0  0  0  0  0  0  0  0  0  0  0
  142.3460   77.5440  217.7520 C   0  0  0  0  0  0  0  0  0  0  0  0
  142.8790   76.1260  217.9890 C   0  0  0  0  0  0  0  0  0  0  0  0
  142.7970   75.9050  219.5040 C   0  0  2  0  0  0  0  0  0  0  0  0
  143.5630   74.6960  219.8880 C   0  0  0  0  0  0  0  0  0  0  0  0
  144.8050   74.8540  220.4680 C   0  0  0  0  0  0  0  0  0  0  0  0
  145.5270   73.7240  220.8280 C   0  0  0  0  0  0  0  0  0  0  0  0
  144.9920   72.4750  220.6030 C   0  0  0  0  0  0  0  0  0  0  0  0
  143.7340   72.3390  220.0150 C   0  0  0  0  0  0  0  0  0  0  0  0
  143.0450   70.7670  219.7230 Cl  0  0  0  0  0  0  0  0  0  0  0  0
  142.9930   73.4640  219.6450 C   0  0  0  0  0  0  0  0  0  0  0  0
  140.0530   71.1710  223.5200 C   0  0  0  0  0  0  0  0  0  0  0  0
  139.5270   69.8990  223.5940 C   0  0  0  0  0  0  0  0  0  0  0  0
  139.4350   69.2320  224.8210 C   0  0  0  0  0  0  0  0  0  0  0  0
  139.8860   69.8800  225.9710 C   0  0  0  0  0  0  0  0  0  0  0  0
  139.8290   69.2860  227.2160 C   0  0  0  0  0  0  0  0  0  0  0  0
  140.2950   69.9830  228.3260 C   0  0  0  0  0  0  0  0  0  0  0  0
  140.8150   71.2660  228.1760 C   0  0  0  0  0  0  0  0  0  0  0  0
  140.8800   71.8730  226.9410 C   0  0  0  0  0  0  0  0  0  0  0  0
  140.4070   71.1520  225.8540 C   0  0  0  0  0  0  0  0  0  0  0  0
  140.4840   71.7760  224.6550 N   0  0  0  0  0  0  0  0  0  0  0  0
  139.9260   73.7750  223.1180 H   0  0  0  0  0  0  0  0  0  0  0  0
  140.5598   73.3371  220.1960 H   0  0  0  0  0  0  0  0  0  0  0  0
  139.1242   74.3388  220.7109 H   0  0  0  0  0  0  0  0  0  0  0  0
  140.3025   75.6824  218.0488 H   0  0  0  0  0  0  0  0  0  0  0  0
  139.4743   76.5462  219.3833 H   0  0  0  0  0  0  0  0  0  0  0  0
  140.2994   78.1029  217.5995 H   0  0  0  0  0  0  0  0  0  0  0  0
  141.0734   78.4064  219.2092 H   0  0  0  0  0  0  0  0  0  0  0  0
  142.2802   77.7284  216.6696 H   0  0  0  0  0  0  0  0  0  0  0  0
  143.0339   78.2626  218.2214 H   0  0  0  0  0  0  0  0  0  0  0  0
  142.2585   75.3885  217.4588 H   0  0  0  0  0  0  0  0  0  0  0  0
  143.9067   76.0086  217.6147 H   0  0  0  0  0  0  0  0  0  0  0  0
  143.2520   76.7298  220.0721 H   0  0  0  0  0  0  0  0  0  0  0  0
  145.2165   75.8591  220.6424 H   0  0  0  0  0  0  0  0  0  0  0  0
  146.5201   73.8257  221.2900 H   0  0  0  0  0  0  0  0  0  0  0  0
  145.5608   71.5779  220.8890 H   0  0  0  0  0  0  0  0  0  0  0  0
  142.0000   73.3713  219.1809 H   0  0  0  0  0  0  0  0  0  0  0  0
  139.1753   69.4022  222.6777 H   0  0  0  0  0  0  0  0  0  0  0  0
  139.0153   68.2168  224.8774 H   0  0  0  0  0  0  0  0  0  0  0  0
  139.4191   68.2715  227.3291 H   0  0  0  0  0  0  0  0  0  0  0  0
  140.2527   69.5203  229.3230 H   0  0  0  0  0  0  0  0  0  0  0  0
  141.1813   71.8058  229.0616 H   0  0  0  0  0  0  0  0  0  0  0  0
  141.2898   72.8868  226.8217 H   0  0  0  0  0  0  0  0  0  0  0  0
  1  2  2  0
  2  3  1  0
  3  4  1  0
  4  5  1  0
  5  6  2  0
  5  7  1  0
  7  8  1  0
  8  9  1  0
  9 10  1  0
 10 11  1  0
 11 12  1  0
 12 13  1  0
 13 14  2  0
 14 15  1  0
 15 16  2  0
 16 17  1  0
 17 18  1  0
 17 19  2  0
  2 20  1  0
 20 21  2  0
 21 22  1  0
 22 23  2  0
 23 24  1  0
 24 25  2  0
 25 26  1  0
 26 27  2  0
 27 28  1  0
 28 29  2  0
 12  7  1  0
 19 13  1  0
 29 20  1  0
 28 23  1  0
  3 30  1  0
  4 31  1  0
  4 32  1  0
  8 33  1  0
  8 34  1  0
  9 35  1  0
  9 36  1  0
 10 37  1  0
 10 38  1  0
 11 39  1  0
 11 40  1  0
 12 41  1  1
 14 42  1  0
 15 43  1  0
 16 44  1  0
 19 45  1  0
 21 46  1  0
 22 47  1  0
 24 48  1  0
 25 49  1  0
 26 50  1  0
 27 51  1  0
M  END
>  <smiles>  (47) 
O=C(NCC(=O)N1CCCCC1c1cccc(Cl)c1)c1ccc2ccccc2n1

>  <score_type>  (47) 
oracle

>  <origin>  (47) 
autodockgpu

>  <m_score__min__energy>  (47) 
-9.4100000000000001

>  <m_primary>  (47) 
energy

>  <rmsd>  (47) 
1.774951878618386

>  <m_score__min__rmsd>  (47) 
1.774951878618386

>  <meeko>  (47) 
{"free_energy": -8.45, "intermolecular_energy": -9.94, "internal_energy": -2.06, "cluster_size": 23, "cluster_id": 2, "rank_in_cluster": 22}

>  <energy>  (47) 
-7.84

>  <cluster_rmsd>  (47) 
0.22

>  <cluster>  (47) 
4

$$$$

     RDKit          3D

 51 54  0  0  0  0  0  0  0  0999 V2000
  140.8690   71.6440  221.3830 O   0  0  0  0  0  0  0  0  0  0  0  0
  140.2490   72.1530  222.3550 C   0  0  0  0  0  0  0  0  0  0  0  0
  139.7110   73.4610  222.2430 N   0  0  0  0  0  0  0  0  0  0  0  0
  139.8590   74.2210  221.0360 C   0  0  0  0  0  0  0  0  0  0  0  0
  141.2580   74.6180  220.7670 C   0  0  0  0  0  0  0  0  0  0  0  0
  142.2380   73.9880  221.2910 O   0  0  0  0  0  0  0  0  0  0  0  0
  141.4690   75.7280  219.9020 N   0  0  0  0  0  0  0  0  0  0  0  0
  140.3810   76.4560  219.2780 C   0  0  0  0  0  0  0  0  0  0  0  0
  140.6850   77.9540  219.3400 C   0  0  0  0  0  0  0  0  0  0  0  0
  142.0020   78.2740  218.7040 C   0  0  0  0  0  0  0  0  0  0  0  0
  142.7530   76.9900  218.3320 C   0  0  0  0  0  0  0  0  0  0  0  0
  142.8200   76.1660  219.6230 C   0  0  2  0  0  0  0  0  0  0  0  0
  143.7810   75.0480  219.4680 C   0  0  0  0  0  0  0  0  0  0  0  0
  143.7550   74.3080  218.3030 C   0  0  0  0  0  0  0  0  0  0  0  0
  144.6510   73.2590  218.1540 C   0  0  0  0  0  0  0  0  0  0  0  0
  145.5460   72.9790  219.1640 C   0  0  0  0  0  0  0  0  0  0  0  0
  145.5540   73.7420  220.3320 C   0  0  0  0  0  0  0  0  0  0  0  0
  146.6780   73.4010  221.6170 Cl  0  0  0  0  0  0  0  0  0  0  0  0
  144.6590   74.8010  220.5020 C   0  0  0  0  0  0  0  0  0  0  0  0
  140.0680   71.4160  223.6160 C   0  0  0  0  0  0  0  0  0  0  0  0
  139.3460   70.2420  223.6410 C   0  0  0  0  0  0  0  0  0  0  0  0
  139.1700   69.5340  224.8350 C   0  0  0  0  0  0  0  0  0  0  0  0
  139.7390   70.0410  226.0040 C   0  0  0  0  0  0  0  0  0  0  0  0
  139.6080   69.4000  227.2200 C   0  0  0  0  0  0  0  0  0  0  0  0
  140.2000   69.9540  228.3500 C   0  0  0  0  0  0  0  0  0  0  0  0
  140.9160   71.1440  228.2500 C   0  0  0  0  0  0  0  0  0  0  0  0
  141.0570   71.7960  227.0450 C   0  0  0  0  0  0  0  0  0  0  0  0
  140.4550   71.2180  225.9360 C   0  0  0  0  0  0  0  0  0  0  0  0
  140.6100   71.8840  224.7670 N   0  0  0  0  0  0  0  0  0  0  0  0
  139.2010   73.8480  223.0770 H   0  0  0  0  0  0  0  0  0  0  0  0
  139.4998   73.6124  220.1931 H   0  0  0  0  0  0  0  0  0  0  0  0
  139.2739   75.1446  221.1567 H   0  0  0  0  0  0  0  0  0  0  0  0
  140.2818   76.1428  218.2282 H   0  0  0  0  0  0  0  0  0  0  0  0
  139.4403   76.2451  219.8077 H   0  0  0  0  0  0  0  0  0  0  0  0
  139.8907   78.5020  218.8120 H   0  0  0  0  0  0  0  0  0  0  0  0
  140.7310   78.2531  220.3976 H   0  0  0  0  0  0  0  0  0  0  0  0
  141.8284   78.8669  217.7938 H   0  0  0  0  0  0  0  0  0  0  0  0
  142.6110   78.8435  219.4214 H   0  0  0  0  0  0  0  0  0  0  0  0
  142.2082   76.4384  217.5517 H   0  0  0  0  0  0  0  0  0  0  0  0
  143.7551   77.2046  217.9324 H   0  0  0  0  0  0  0  0  0  0  0  0
  143.1919   76.7532  220.4756 H   0  0  0  0  0  0  0  0  0  0  0  0
  143.0356   74.5461  217.5056 H   0  0  0  0  0  0  0  0  0  0  0  0
  144.6470   72.6544  217.2351 H   0  0  0  0  0  0  0  0  0  0  0  0
  146.2584   72.1488  219.0485 H   0  0  0  0  0  0  0  0  0  0  0  0
  144.6549   75.4096  221.4183 H   0  0  0  0  0  0  0  0  0  0  0  0
  138.9027   69.8570  222.7108 H   0  0  0  0  0  0  0  0  0  0  0  0
  138.5947   68.5966  224.8518 H   0  0  0  0  0  0  0  0  0  0  0  0
  139.0409   68.4604  227.2942 H   0  0  0  0  0  0  0  0  0  0  0  0
  140.1025   69.4516  229.3237 H   0  0  0  0  0  0  0  0  0  0  0  0
  141.3784   71.5721  229.1516 H   0  0  0  0  0  0  0  0  0  0  0  0
  141.6232   72.7357  226.9649 H   0  0  0  0  0  0  0  0  0  0  0  0
  1  2  2  0
  2  3  1  0
  3  4  1  0
  4  5  1  0
  5  6  2  0
  5  7  1  0
  7  8  1  0
  8  9  1  0
  9 10  1  0
 10 11  1  0
 11 12  1  0
 12 13  1  0
 13 14  2  0
 14 15  1  0
 15 16  2  0
 16 17  1  0
 17 18  1  0
 17 19  2  0
  2 20  1  0
 20 21  2  0
 21 22  1  0
 22 23  2  0
 23 24  1  0
 24 25  2  0
 25 26  1  0
 26 27  2  0
 27 28  1  0
 28 29  2  0
 12  7  1  0
 19 13  1  0
 29 20  1  0
 28 23  1  0
  3 30  1  0
  4 31  1  0
  4 32  1  0
  8 33  1  0
  8 34  1  0
  9 35  1  0
  9 36  1  0
 10 37  1  0
 10 38  1  0
 11 39  1  0
 11 40  1  0
 12 41  1  1
 14 42  1  0
 15 43  1  0
 16 44  1  0
 19 45  1  0
 21 46  1  0
 22 47  1  0
 24 48  1  0
 25 49  1  0
 26 50  1  0
 27 51  1  0
M  END
>  <smiles>  (48) 
O=C(NCC(=O)N1CCCCC1c1cccc(Cl)c1)c1ccc2ccccc2n1

>  <score_type>  (48) 
oracle

>  <origin>  (48) 
autodockgpu

>  <m_score__min__energy>  (48) 
-9.4100000000000001

>  <m_primary>  (48) 
energy

>  <rmsd>  (48) 
1.8855727824116355

>  <m_score__min__rmsd>  (48) 
1.8855727824116355

>  <meeko>  (48) 
{"free_energy": -8.92, "intermolecular_energy": -10.41, "internal_energy": -1.1, "cluster_size": 23, "cluster_id": 2, "rank_in_cluster": 15}

>  <energy>  (48) 
-7.78

>  <cluster_rmsd>  (48) 
0.31

>  <cluster>  (48) 
4

$$$$

     RDKit          3D

 51 54  0  0  0  0  0  0  0  0999 V2000
  141.0870   71.6730  221.3970 O   0  0  0  0  0  0  0  0  0  0  0  0
  140.4960   72.1770  222.3900 C   0  0  0  0  0  0  0  0  0  0  0  0
  140.0480   73.5210  222.3380 N   0  0  0  0  0  0  0  0  0  0  0  0
  140.2570   74.3260  221.1690 C   0  0  0  0  0  0  0  0  0  0  0  0
  140.9280   75.6100  221.4590 C   0  0  0  0  0  0  0  0  0  0  0  0
  140.9760   76.0810  222.6460 O   0  0  0  0  0  0  0  0  0  0  0  0
  141.5200   76.3030  220.3660 N   0  0  0  0  0  0  0  0  0  0  0  0
  142.5540   75.7190  219.5330 C   0  0  0  0  0  0  0  0  0  0  0  0
  142.2710   76.0690  218.0710 C   0  0  0  0  0  0  0  0  0  0  0  0
  142.1690   77.5490  217.8700 C   0  0  0  0  0  0  0  0  0  0  0  0
  142.1970   78.2840  219.2160 C   0  0  0  0  0  0  0  0  0  0  0  0
  141.0830   77.6480  220.0540 C   0  0  2  0  0  0  0  0  0  0  0  0
  140.8110   78.4710  221.2550 C   0  0  0  0  0  0  0  0  0  0  0  0
  139.5080   78.5950  221.6930 C   0  0  0  0  0  0  0  0  0  0  0  0
  139.2470   79.3660  222.8170 C   0  0  0  0  0  0  0  0  0  0  0  0
  140.2870   79.9880  223.4720 C   0  0  0  0  0  0  0  0  0  0  0  0
  141.5970   79.8490  223.0110 C   0  0  0  0  0  0  0  0  0  0  0  0
  142.9220   80.6300  223.8270 Cl  0  0  0  0  0  0  0  0  0  0  0  0
  141.8790   79.0780  221.8810 C   0  0  0  0  0  0  0  0  0  0  0  0
  140.2560   71.3950  223.6140 C   0  0  0  0  0  0  0  0  0  0  0  0
  139.6010   70.1830  223.5510 C   0  0  0  0  0  0  0  0  0  0  0  0
  139.3700   69.4340  224.7100 C   0  0  0  0  0  0  0  0  0  0  0  0
  139.8150   69.9360  225.9330 C   0  0  0  0  0  0  0  0  0  0  0  0
  139.6240   69.2530  227.1180 C   0  0  0  0  0  0  0  0  0  0  0  0
  140.0920   69.8050  228.3060 C   0  0  0  0  0  0  0  0  0  0  0  0
  140.7470   71.0350  228.2930 C   0  0  0  0  0  0  0  0  0  0  0  0
  140.9460   71.7280  227.1190 C   0  0  0  0  0  0  0  0  0  0  0  0
  140.4670   71.1510  225.9520 C   0  0  0  0  0  0  0  0  0  0  0  0
  140.6790   71.8580  224.8160 N   0  0  0  0  0  0  0  0  0  0  0  0
  139.5600   73.9030  223.1870 H   0  0  0  0  0  0  0  0  0  0  0  0
  140.8786   73.7589  220.4605 H   0  0  0  0  0  0  0  0  0  0  0  0
  139.2664   74.5615  220.7528 H   0  0  0  0  0  0  0  0  0  0  0  0
  143.5349   76.1218  219.8256 H   0  0  0  0  0  0  0  0  0  0  0  0
  142.5607   74.6263  219.6594 H   0  0  0  0  0  0  0  0  0  0  0  0
  143.0877   75.6790  217.4457 H   0  0  0  0  0  0  0  0  0  0  0  0
  141.3096   75.6156  217.7879 H   0  0  0  0  0  0  0  0  0  0  0  0
  143.0159   77.8888  217.2557 H   0  0  0  0  0  0  0  0  0  0  0  0
  141.2170   77.7719  217.3660 H   0  0  0  0  0  0  0  0  0  0  0  0
  143.1720   78.1493  219.7072 H   0  0  0  0  0  0  0  0  0  0  0  0
  142.0468   79.3667  219.0926 H   0  0  0  0  0  0  0  0  0  0  0  0
  140.1271   77.6005  219.5118 H   0  0  0  0  0  0  0  0  0  0  0  0
  138.6890   78.0905  221.1594 H   0  0  0  0  0  0  0  0  0  0  0  0
  138.2158   79.4797  223.1827 H   0  0  0  0  0  0  0  0  0  0  0  0
  140.0837   80.5983  224.3643 H   0  0  0  0  0  0  0  0  0  0  0  0
  142.9069   78.9604  221.5073 H   0  0  0  0  0  0  0  0  0  0  0  0
  139.2563   69.8009  222.5788 H   0  0  0  0  0  0  0  0  0  0  0  0
  138.8473   68.4675  224.6578 H   0  0  0  0  0  0  0  0  0  0  0  0
  139.1069   68.2821  227.1224 H   0  0  0  0  0  0  0  0  0  0  0  0
  139.9450   69.2704  229.2561 H   0  0  0  0  0  0  0  0  0  0  0  0
  141.1124   71.4611  229.2390 H   0  0  0  0  0  0  0  0  0  0  0  0
  141.4633   72.6987  227.1075 H   0  0  0  0  0  0  0  0  0  0  0  0
  1  2  2  0
  2  3  1  0
  3  4  1  0
  4  5  1  0
  5  6  2  0
  5  7  1  0
  7  8  1  0
  8  9  1  0
  9 10  1  0
 10 11  1  0
 11 12  1  0
 12 13  1  0
 13 14  2  0
 14 15  1  0
 15 16  2  0
 16 17  1  0
 17 18  1  0
 17 19  2  0
  2 20  1  0
 20 21  2  0
 21 22  1  0
 22 23  2  0
 23 24  1  0
 24 25  2  0
 25 26  1  0
 26 27  2  0
 27 28  1  0
 28 29  2  0
 12  7  1  0
 19 13  1  0
 29 20  1  0
 28 23  1  0
  3 30  1  0
  4 31  1  0
  4 32  1  0
  8 33  1  0
  8 34  1  0
  9 35  1  0
  9 36  1  0
 10 37  1  0
 10 38  1  0
 11 39  1  0
 11 40  1  0
 12 41  1  6
 14 42  1  0
 15 43  1  0
 16 44  1  0
 19 45  1  0
 21 46  1  0
 22 47  1  0
 24 48  1  0
 25 49  1  0
 26 50  1  0
 27 51  1  0
M  END
>  <smiles>  (49) 
O=C(NCC(=O)N1CCCCC1c1cccc(Cl)c1)c1ccc2ccccc2n1

>  <score_type>  (49) 
oracle

>  <origin>  (49) 
autodockgpu

>  <m_score__min__energy>  (49) 
-9.4100000000000001

>  <m_primary>  (49) 
energy

>  <rmsd>  (49) 
2.0625347855647456

>  <m_score__min__rmsd>  (49) 
2.0625347855647456

>  <meeko>  (49) 
{"free_energy": -9.36, "intermolecular_energy": -10.85, "internal_energy": -1.53, "cluster_size": 19, "cluster_id": 1, "rank_in_cluster": 10}

>  <energy>  (49) 
-7.72

>  <cluster_rmsd>  (49) 
0.39

>  <cluster>  (49) 
4

$$$$

     RDKit          3D

 51 54  0  0  0  0  0  0  0  0999 V2000
  141.3420   72.1710  221.8140 O   0  0  0  0  0  0  0  0  0  0  0  0
  140.3690   72.2710  222.6110 C   0  0  0  0  0  0  0  0  0  0  0  0
  139.3860   73.2720  222.4010 N   0  0  0  0  0  0  0  0  0  0  0  0
  139.4770   74.1790  221.2950 C   0  0  0  0  0  0  0  0  0  0  0  0
  140.2880   75.3790  221.5920 C   0  0  0  0  0  0  0  0  0  0  0  0
  140.0050   76.1430  222.5760 O   0  0  0  0  0  0  0  0  0  0  0  0
  141.3940   75.6520  220.7390 N   0  0  0  0  0  0  0  0  0  0  0  0
  142.4640   74.6990  220.5130 C   0  0  0  0  0  0  0  0  0  0  0  0
  142.8310   74.7070  219.0280 C   0  0  0  0  0  0  0  0  0  0  0  0
  143.2040   76.0800  218.5610 C   0  0  0  0  0  0  0  0  0  0  0  0
  142.9390   77.1180  219.6580 C   0  0  0  0  0  0  0  0  0  0  0  0
  141.4720   76.9270  220.0580 C   0  0  2  0  0  0  0  0  0  0  0  0
  141.0140   78.0660  220.8880 C   0  0  0  0  0  0  0  0  0  0  0  0
  139.7120   78.5050  220.7510 C   0  0  0  0  0  0  0  0  0  0  0  0
  139.2780   79.5720  221.5240 C   0  0  0  0  0  0  0  0  0  0  0  0
  140.1490   80.1690  222.4110 C   0  0  0  0  0  0  0  0  0  0  0  0
  141.4600   79.7080  222.5320 C   0  0  0  0  0  0  0  0  0  0  0  0
  142.5720   80.4510  223.6470 Cl  0  0  0  0  0  0  0  0  0  0  0  0
  141.9160   78.6350  221.7620 C   0  0  0  0  0  0  0  0  0  0  0  0
  140.2280   71.3650  223.7620 C   0  0  0  0  0  0  0  0  0  0  0  0
  139.6160   70.1380  223.6140 C   0  0  0  0  0  0  0  0  0  0  0  0
  139.4780   69.2710  224.7040 C   0  0  0  0  0  0  0  0  0  0  0  0
  139.9720   69.6720  225.9460 C   0  0  0  0  0  0  0  0  0  0  0  0
  139.8730   68.8710  227.0660 C   0  0  0  0  0  0  0  0  0  0  0  0
  140.3860   69.3260  228.2770 C   0  0  0  0  0  0  0  0  0  0  0  0
  140.9920   70.5770  228.3510 C   0  0  0  0  0  0  0  0  0  0  0  0
  141.0990   71.3890  227.2430 C   0  0  0  0  0  0  0  0  0  0  0  0
  140.5780   70.9070  226.0510 C   0  0  0  0  0  0  0  0  0  0  0  0
  140.6990   71.7280  224.9810 N   0  0  0  0  0  0  0  0  0  0  0  0
  138.5920   73.3210  223.0890 H   0  0  0  0  0  0  0  0  0  0  0  0
  139.9334   73.6499  220.4454 H   0  0  0  0  0  0  0  0  0  0  0  0
  138.4567   74.5216  221.0680 H   0  0  0  0  0  0  0  0  0  0  0  0
  143.3424   74.9816  221.1117 H   0  0  0  0  0  0  0  0  0  0  0  0
  142.1345   73.6923  220.8095 H   0  0  0  0  0  0  0  0  0  0  0  0
  143.6838   74.0310  218.8671 H   0  0  0  0  0  0  0  0  0  0  0  0
  141.9533   74.3745  218.4543 H   0  0  0  0  0  0  0  0  0  0  0  0
  144.2727   76.0947  218.3010 H   0  0  0  0  0  0  0  0  0  0  0  0
  142.5929   76.3319  217.6817 H   0  0  0  0  0  0  0  0  0  0  0  0
  143.5985   76.9423  220.5207 H   0  0  0  0  0  0  0  0  0  0  0  0
  143.1359   78.1417  219.3068 H   0  0  0  0  0  0  0  0  0  0  0  0
  140.7997   76.9129  219.1875 H   0  0  0  0  0  0  0  0  0  0  0  0
  139.0296   78.0163  220.0400 H   0  0  0  0  0  0  0  0  0  0  0  0
  138.2455   79.9396  221.4300 H   0  0  0  0  0  0  0  0  0  0  0  0
  139.8078   81.0141  223.0270 H   0  0  0  0  0  0  0  0  0  0  0  0
  142.9470   78.2614  221.8490 H   0  0  0  0  0  0  0  0  0  0  0  0
  139.2319   69.8373  222.6280 H   0  0  0  0  0  0  0  0  0  0  0  0
  138.9897   68.2927  224.5840 H   0  0  0  0  0  0  0  0  0  0  0  0
  139.3935   67.8831  227.0019 H   0  0  0  0  0  0  0  0  0  0  0  0
  140.3126   68.6967  229.1762 H   0  0  0  0  0  0  0  0  0  0  0  0
  141.3939   70.9246  229.3142 H   0  0  0  0  0  0  0  0  0  0  0  0
  141.5774   72.3778  227.3011 H   0  0  0  0  0  0  0  0  0  0  0  0
  1  2  2  0
  2  3  1  0
  3  4  1  0
  4  5  1  0
  5  6  2  0
  5  7  1  0
  7  8  1  0
  8  9  1  0
  9 10  1  0
 10 11  1  0
 11 12  1  0
 12 13  1  0
 13 14  2  0
 14 15  1  0
 15 16  2  0
 16 17  1  0
 17 18  1  0
 17 19  2  0
  2 20  1  0
 20 21  2  0
 21 22  1  0
 22 23  2  0
 23 24  1  0
 24 25  2  0
 25 26  1  0
 26 27  2  0
 27 28  1  0
 28 29  2  0
 12  7  1  0
 19 13  1  0
 29 20  1  0
 28 23  1  0
  3 30  1  0
  4 31  1  0
  4 32  1  0
  8 33  1  0
  8 34  1  0
  9 35  1  0
  9 36  1  0
 10 37  1  0
 10 38  1  0
 11 39  1  0
 11 40  1  0
 12 41  1  6
 14 42  1  0
 15 43  1  0
 16 44  1  0
 19 45  1  0
 21 46  1  0
 22 47  1  0
 24 48  1  0
 25 49  1  0
 26 50  1  0
 27 51  1  0
M  END
>  <smiles>  (50) 
O=C(NCC(=O)N1CCCCC1c1cccc(Cl)c1)c1ccc2ccccc2n1

>  <score_type>  (50) 
oracle

>  <origin>  (50) 
autodockgpu

>  <m_score__min__energy>  (50) 
-9.4100000000000001

>  <m_primary>  (50) 
energy

>  <rmsd>  (50) 
2.1283248151418266

>  <m_score__min__rmsd>  (50) 
2.1283248151418266

>  <meeko>  (50) 
{"free_energy": -9.15, "intermolecular_energy": -10.64, "internal_energy": -1.43, "cluster_size": 19, "cluster_id": 1, "rank_in_cluster": 16}

>  <energy>  (50) 
-7.8

>  <cluster_rmsd>  (50) 
0.0

>  <cluster>  (50) 
5

$$$$

     RDKit          3D

 51 54  0  0  0  0  0  0  0  0999 V2000
  141.2720   71.8050  221.4980 O   0  0  0  0  0  0  0  0  0  0  0  0
  140.3910   72.1290  222.3630 C   0  0  0  0  0  0  0  0  0  0  0  0
  139.5010   73.2250  222.1100 N   0  0  0  0  0  0  0  0  0  0  0  0
  139.6360   73.9370  220.8610 C   0  0  0  0  0  0  0  0  0  0  0  0
  140.7980   74.8440  220.8690 C   0  0  0  0  0  0  0  0  0  0  0  0
  141.3040   75.1720  221.9720 O   0  0  0  0  0  0  0  0  0  0  0  0
  141.3940   75.3780  219.7010 N   0  0  0  0  0  0  0  0  0  0  0  0
  141.1750   76.7770  219.3910 C   0  0  0  0  0  0  0  0  0  0  0  0
  142.4330   77.5120  219.0560 C   0  0  0  0  0  0  0  0  0  0  0  0
  143.2840   76.7820  218.0730 C   0  0  0  0  0  0  0  0  0  0  0  0
  142.6620   75.4870  217.6460 C   0  0  0  0  0  0  0  0  0  0  0  0
  142.2110   74.6130  218.7850 C   0  0  1  0  0  0  0  0  0  0  0  0
  143.4050   74.0170  219.4230 C   0  0  0  0  0  0  0  0  0  0  0  0
  144.1770   74.6510  220.3680 C   0  0  0  0  0  0  0  0  0  0  0  0
  145.2850   74.0100  220.9050 C   0  0  0  0  0  0  0  0  0  0  0  0
  145.6440   72.7260  220.5100 C   0  0  0  0  0  0  0  0  0  0  0  0
  144.8690   72.0850  219.5600 C   0  0  0  0  0  0  0  0  0  0  0  0
  145.2450   70.4570  218.9980 Cl  0  0  0  0  0  0  0  0  0  0  0  0
  143.7710   72.7280  219.0320 C   0  0  0  0  0  0  0  0  0  0  0  0
  140.2670   71.3930  223.6280 C   0  0  0  0  0  0  0  0  0  0  0  0
  139.6460   70.1540  223.6010 C   0  0  0  0  0  0  0  0  0  0  0  0
  139.5190   69.4430  224.7760 C   0  0  0  0  0  0  0  0  0  0  0  0
  139.9990   69.9480  225.9680 C   0  0  0  0  0  0  0  0  0  0  0  0
  139.8930   69.2740  227.1670 C   0  0  0  0  0  0  0  0  0  0  0  0
  140.3700   69.7720  228.3610 C   0  0  0  0  0  0  0  0  0  0  0  0
  140.9870   71.0270  228.3250 C   0  0  0  0  0  0  0  0  0  0  0  0
  141.1030   71.7260  227.1190 C   0  0  0  0  0  0  0  0  0  0  0  0
  140.6160   71.2040  225.9360 C   0  0  0  0  0  0  0  0  0  0  0  0
  140.7370   71.8910  224.7860 N   0  0  0  0  0  0  0  0  0  0  0  0
  138.7980   73.4510  222.8470 H   0  0  0  0  0  0  0  0  0  0  0  0
  139.7598   73.2074  220.0471 H   0  0  0  0  0  0  0  0  0  0  0  0
  138.7304   74.5439  220.7146 H   0  0  0  0  0  0  0  0  0  0  0  0
  140.4932   76.8414  218.5302 H   0  0  0  0  0  0  0  0  0  0  0  0
  140.7521   77.2479  220.2907 H   0  0  0  0  0  0  0  0  0  0  0  0
  142.1657   78.4907  218.6310 H   0  0  0  0  0  0  0  0  0  0  0  0
  143.0136   77.6154  219.9845 H   0  0  0  0  0  0  0  0  0  0  0  0
  143.4269   77.4170  217.1862 H   0  0  0  0  0  0  0  0  0  0  0  0
  144.2448   76.5544  218.5578 H   0  0  0  0  0  0  0  0  0  0  0  0
  141.7874   75.7148  217.0190 H   0  0  0  0  0  0  0  0  0  0  0  0
  143.4394   74.9262  217.1065 H   0  0  0  0  0  0  0  0  0  0  0  0
  141.5783   73.7880  218.4257 H   0  0  0  0  0  0  0  0  0  0  0  0
  143.9163   75.6672  220.6987 H   0  0  0  0  0  0  0  0  0  0  0  0
  145.8929   74.5297  221.6603 H   0  0  0  0  0  0  0  0  0  0  0  0
  146.5252   72.2306  220.9435 H   0  0  0  0  0  0  0  0  0  0  0  0
  143.1625   72.2084  218.2772 H   0  0  0  0  0  0  0  0  0  0  0  0
  139.2601   69.7438  222.6561 H   0  0  0  0  0  0  0  0  0  0  0  0
  139.0279   68.4588  224.7633 H   0  0  0  0  0  0  0  0  0  0  0  0
  139.4030   68.2892  227.1707 H   0  0  0  0  0  0  0  0  0  0  0  0
  140.2698   69.2077  229.2999 H   0  0  0  0  0  0  0  0  0  0  0  0
  141.3838   71.4672  229.2517 H   0  0  0  0  0  0  0  0  0  0  0  0
  141.5919   72.7114  227.1122 H   0  0  0  0  0  0  0  0  0  0  0  0
  1  2  2  0
  2  3  1  0
  3  4  1  0
  4  5  1  0
  5  6  2  0
  5  7  1  0
  7  8  1  0
  8  9  1  0
  9 10  1  0
 10 11  1  0
 11 12  1  0
 12 13  1  0
 13 14  2  0
 14 15  1  0
 15 16  2  0
 16 17  1  0
 17 18  1  0
 17 19  2  0
  2 20  1  0
 20 21  2  0
 21 22  1  0
 22 23  2  0
 23 24  1  0
 24 25  2  0
 25 26  1  0
 26 27  2  0
 27 28  1  0
 28 29  2  0
 12  7  1  0
 19 13  1  0
 29 20  1  0
 28 23  1  0
  3 30  1  0
  4 31  1  0
  4 32  1  0
  8 33  1  0
  8 34  1  0
  9 35  1  0
  9 36  1  0
 10 37  1  0
 10 38  1  0
 11 39  1  0
 11 40  1  0
 12 41  1  6
 14 42  1  0
 15 43  1  0
 16 44  1  0
 19 45  1  0
 21 46  1  0
 22 47  1  0
 24 48  1  0
 25 49  1  0
 26 50  1  0
 27 51  1  0
M  END
>  <smiles>  (51) 
O=C(NCC(=O)N1CCCCC1c1cccc(Cl)c1)c1ccc2ccccc2n1

>  <score_type>  (51) 
oracle

>  <origin>  (51) 
autodockgpu

>  <m_score__min__energy>  (51) 
-9.2300000000000004

>  <m_primary>  (51) 
energy

>  <rmsd>  (51) 
2.104533700611817

>  <m_score__min__rmsd>  (51) 
2.104533700611817

>  <meeko>  (51) 
{"free_energy": -8.98, "intermolecular_energy": -10.47, "internal_energy": -1.79, "cluster_size": 21, "cluster_id": 2, "rank_in_cluster": 4}

>  <energy>  (51) 
-9.23

>  <cluster_rmsd>  (51) 
0.0

>  <cluster>  (51) 
1

$$$$

     RDKit          3D

 51 54  0  0  0  0  0  0  0  0999 V2000
  138.7210   75.3280  221.8490 O   0  0  0  0  0  0  0  0  0  0  0  0
  139.9140   75.7570  222.0080 C   0  0  0  0  0  0  0  0  0  0  0  0
  141.0290   74.8770  221.8110 N   0  0  0  0  0  0  0  0  0  0  0  0
  140.7590   73.5100  221.4320 C   0  0  0  0  0  0  0  0  0  0  0  0
  141.7190   73.0200  220.4270 C   0  0  0  0  0  0  0  0  0  0  0  0
  141.2820   72.4030  219.4220 O   0  0  0  0  0  0  0  0  0  0  0  0
  143.1200   73.1990  220.5170 N   0  0  0  0  0  0  0  0  0  0  0  0
  143.9700   72.0250  220.5100 C   0  0  0  0  0  0  0  0  0  0  0  0
  145.1120   72.1260  219.5510 C   0  0  0  0  0  0  0  0  0  0  0  0
  145.8420   73.4220  219.6570 C   0  0  0  0  0  0  0  0  0  0  0  0
  145.2590   74.3090  220.7150 C   0  0  0  0  0  0  0  0  0  0  0  0
  143.7680   74.4890  220.6180 C   0  0  1  0  0  0  0  0  0  0  0  0
  143.4740   75.3830  219.4770 C   0  0  0  0  0  0  0  0  0  0  0  0
  143.7410   75.0770  218.1630 C   0  0  0  0  0  0  0  0  0  0  0  0
  143.4340   75.9860  217.1600 C   0  0  0  0  0  0  0  0  0  0  0  0
  142.8570   77.2180  217.4490 C   0  0  0  0  0  0  0  0  0  0  0  0
  142.5860   77.5290  218.7690 C   0  0  0  0  0  0  0  0  0  0  0  0
  141.8550   79.0650  219.2310 Cl  0  0  0  0  0  0  0  0  0  0  0  0
  142.8930   76.6210  219.7580 C   0  0  0  0  0  0  0  0  0  0  0  0
  140.1700   77.1520  222.3930 C   0  0  0  0  0  0  0  0  0  0  0  0
  139.0780   77.9730  222.6270 C   0  0  0  0  0  0  0  0  0  0  0  0
  139.2940   79.2860  222.9900 C   0  0  0  0  0  0  0  0  0  0  0  0
  140.5750   79.7850  223.1220 C   0  0  0  0  0  0  0  0  0  0  0  0
  140.8380   81.0910  223.4820 C   0  0  0  0  0  0  0  0  0  0  0  0
  142.1140   81.5970  223.6170 C   0  0  0  0  0  0  0  0  0  0  0  0
  143.1750   80.7200  223.3680 C   0  0  0  0  0  0  0  0  0  0  0  0
  142.9270   79.3930  223.0010 C   0  0  0  0  0  0  0  0  0  0  0  0
  141.6390   78.9110  222.8740 C   0  0  0  0  0  0  0  0  0  0  0  0
  141.4200   77.6320  222.5200 N   0  0  0  0  0  0  0  0  0  0  0  0
  141.9830   75.2740  221.9520 H   0  0  0  0  0  0  0  0  0  0  0  0
  140.8241   72.8732  222.3266 H   0  0  0  0  0  0  0  0  0  0  0  0
  139.7523   73.4705  220.9904 H   0  0  0  0  0  0  0  0  0  0  0  0
  144.3761   71.8822  221.5223 H   0  0  0  0  0  0  0  0  0  0  0  0
  143.3492   71.1759  220.1881 H   0  0  0  0  0  0  0  0  0  0  0  0
  145.8173   71.3074  219.7568 H   0  0  0  0  0  0  0  0  0  0  0  0
  144.6976   72.0612  218.5341 H   0  0  0  0  0  0  0  0  0  0  0  0
  146.8941   73.2179  219.9046 H   0  0  0  0  0  0  0  0  0  0  0  0
  145.7545   73.9416  218.6914 H   0  0  0  0  0  0  0  0  0  0  0  0
  145.4902   73.8716  221.6974 H   0  0  0  0  0  0  0  0  0  0  0  0
  145.7068   75.3039  220.5746 H   0  0  0  0  0  0  0  0  0  0  0  0
  143.3661   74.9638  221.5252 H   0  0  0  0  0  0  0  0  0  0  0  0
  144.1986   74.1102  217.9065 H   0  0  0  0  0  0  0  0  0  0  0  0
  143.6519   75.7263  216.1135 H   0  0  0  0  0  0  0  0  0  0  0  0
  142.6211   77.9301  216.6445 H   0  0  0  0  0  0  0  0  0  0  0  0
  142.6731   76.8799  220.8042 H   0  0  0  0  0  0  0  0  0  0  0  0
  138.0545   77.5832  222.5247 H   0  0  0  0  0  0  0  0  0  0  0  0
  138.4335   79.9452  223.1771 H   0  0  0  0  0  0  0  0  0  0  0  0
  139.9872   81.7622  223.6708 H   0  0  0  0  0  0  0  0  0  0  0  0
  142.2895   82.6433  223.9075 H   0  0  0  0  0  0  0  0  0  0  0  0
  144.2115   81.0763  223.4614 H   0  0  0  0  0  0  0  0  0  0  0  0
  143.7754   78.7195  222.8096 H   0  0  0  0  0  0  0  0  0  0  0  0
  1  2  2  0
  2  3  1  0
  3  4  1  0
  4  5  1  0
  5  6  2  0
  5  7  1  0
  7  8  1  0
  8  9  1  0
  9 10  1  0
 10 11  1  0
 11 12  1  0
 12 13  1  0
 13 14  2  0
 14 15  1  0
 15 16  2  0
 16 17  1  0
 17 18  1  0
 17 19  2  0
  2 20  1  0
 20 21  2  0
 21 22  1  0
 22 23  2  0
 23 24  1  0
 24 25  2  0
 25 26  1  0
 26 27  2  0
 27 28  1  0
 28 29  2  0
 12  7  1  0
 19 13  1  0
 29 20  1  0
 28 23  1  0
  3 30  1  0
  4 31  1  0
  4 32  1  0
  8 33  1  0
  8 34  1  0
  9 35  1  0
  9 36  1  0
 10 37  1  0
 10 38  1  0
 11 39  1  0
 11 40  1  0
 12 41  1  1
 14 42  1  0
 15 43  1  0
 16 44  1  0
 19 45  1  0
 21 46  1  0
 22 47  1  0
 24 48  1  0
 25 49  1  0
 26 50  1  0
 27 51  1  0
M  END
>  <smiles>  (52) 
O=C(NCC(=O)N1CCCCC1c1cccc(Cl)c1)c1ccc2ccccc2n1

>  <score_type>  (52) 
oracle

>  <origin>  (52) 
autodockgpu

>  <m_score__min__energy>  (52) 
-9.2300000000000004

>  <m_primary>  (52) 
energy

>  <rmsd>  (52) 
7.75549643970858

>  <m_score__min__rmsd>  (52) 
7.75549643970858

>  <meeko>  (52) 
{"free_energy": -7.88, "intermolecular_energy": -9.37, "internal_energy": -2.63, "cluster_size": 7, "cluster_id": 7, "rank_in_cluster": 7}

>  <energy>  (52) 
-9.2

>  <cluster_rmsd>  (52) 
0.17

>  <cluster>  (52) 
1

$$$$

     RDKit          3D

 51 54  0  0  0  0  0  0  0  0999 V2000
  140.1560   71.1400  221.2710 O   0  0  0  0  0  0  0  0  0  0  0  0
  139.9660   71.7130  222.3970 C   0  0  0  0  0  0  0  0  0  0  0  0
  139.7700   73.1330  222.4590 N   0  0  0  0  0  0  0  0  0  0  0  0
  139.7940   73.8780  221.2220 C   0  0  0  0  0  0  0  0  0  0  0  0
  140.1250   75.2980  221.4440 C   0  0  0  0  0  0  0  0  0  0  0  0
  139.9880   75.7790  222.5970 O   0  0  0  0  0  0  0  0  0  0  0  0
  140.5930   76.1680  220.4310 N   0  0  0  0  0  0  0  0  0  0  0  0
  140.1250   75.9660  219.0740 C   0  0  0  0  0  0  0  0  0  0  0  0
  139.6460   77.2220  218.4190 C   0  0  0  0  0  0  0  0  0  0  0  0
  140.5970   78.3590  218.5870 C   0  0  0  0  0  0  0  0  0  0  0  0
  141.8160   77.9610  219.3640 C   0  0  0  0  0  0  0  0  0  0  0  0
  141.5190   77.2560  220.6600 C   0  0  1  0  0  0  0  0  0  0  0  0
  141.0230   78.2510  221.6350 C   0  0  0  0  0  0  0  0  0  0  0  0
  139.6940   78.4790  221.9030 C   0  0  0  0  0  0  0  0  0  0  0  0
  139.3260   79.4420  222.8330 C   0  0  0  0  0  0  0  0  0  0  0  0
  140.2770   80.1960  223.5120 C   0  0  0  0  0  0  0  0  0  0  0  0
  141.6150   79.9700  223.2450 C   0  0  0  0  0  0  0  0  0  0  0  0
  142.8910   80.8760  224.0570 Cl  0  0  0  0  0  0  0  0  0  0  0  0
  141.9710   79.0120  222.3210 C   0  0  0  0  0  0  0  0  0  0  0  0
  139.9430   70.9390  223.6450 C   0  0  0  0  0  0  0  0  0  0  0  0
  139.4550   69.6430  223.5960 C   0  0  0  0  0  0  0  0  0  0  0  0
  139.4240   68.8960  224.7550 C   0  0  0  0  0  0  0  0  0  0  0  0
  139.8700   69.4210  225.9520 C   0  0  0  0  0  0  0  0  0  0  0  0
  139.8570   68.7120  227.1350 C   0  0  0  0  0  0  0  0  0  0  0  0
  140.3020   69.2290  228.3340 C   0  0  0  0  0  0  0  0  0  0  0  0
  140.7830   70.5430  228.3190 C   0  0  0  0  0  0  0  0  0  0  0  0
  140.8030   71.2780  227.1290 C   0  0  0  0  0  0  0  0  0  0  0  0
  140.3520   70.7350  225.9410 C   0  0  0  0  0  0  0  0  0  0  0  0
  140.3790   71.4570  224.8070 N   0  0  0  0  0  0  0  0  0  0  0  0
  139.6180   73.5540  223.4010 H   0  0  0  0  0  0  0  0  0  0  0  0
  140.5491   73.4365  220.5551 H   0  0  0  0  0  0  0  0  0  0  0  0
  138.7913   73.8269  220.7727 H   0  0  0  0  0  0  0  0  0  0  0  0
  140.9525   75.5550  218.4771 H   0  0  0  0  0  0  0  0  0  0  0  0
  139.2679   75.2783  219.1246 H   0  0  0  0  0  0  0  0  0  0  0  0
  139.5140   77.0298  217.3440 H   0  0  0  0  0  0  0  0  0  0  0  0
  138.6993   77.5073  218.9011 H   0  0  0  0  0  0  0  0  0  0  0  0
  140.9089   78.7111  217.5926 H   0  0  0  0  0  0  0  0  0  0  0  0
  140.0816   79.1535  219.1466 H   0  0  0  0  0  0  0  0  0  0  0  0
  142.4207   77.2895  218.7368 H   0  0  0  0  0  0  0  0  0  0  0  0
  142.3426   78.8911  219.6238 H   0  0  0  0  0  0  0  0  0  0  0  0
  142.4279   76.8011  221.0807 H   0  0  0  0  0  0  0  0  0  0  0  0
  138.9208   77.8974  221.3797 H   0  0  0  0  0  0  0  0  0  0  0  0
  138.2586   79.6123  223.0372 H   0  0  0  0  0  0  0  0  0  0  0  0
  139.9714   80.9562  224.2460 H   0  0  0  0  0  0  0  0  0  0  0  0
  143.0383   78.8411  222.1170 H   0  0  0  0  0  0  0  0  0  0  0  0
  139.0978   69.2164  222.6471 H   0  0  0  0  0  0  0  0  0  0  0  0
  139.0381   67.8663  224.7255 H   0  0  0  0  0  0  0  0  0  0  0  0
  139.4721   67.6816  227.1217 H   0  0  0  0  0  0  0  0  0  0  0  0
  140.2798   68.6353  229.2598 H   0  0  0  0  0  0  0  0  0  0  0  0
  141.1481   71.0013  229.2499 H   0  0  0  0  0  0  0  0  0  0  0  0
  141.1855   72.3093  227.1391 H   0  0  0  0  0  0  0  0  0  0  0  0
  1  2  2  0
  2  3  1  0
  3  4  1  0
  4  5  1  0
  5  6  2  0
  5  7  1  0
  7  8  1  0
  8  9  1  0
  9 10  1  0
 10 11  1  0
 11 12  1  0
 12 13  1  0
 13 14  2  0
 14 15  1  0
 15 16  2  0
 16 17  1  0
 17 18  1  0
 17 19  2  0
  2 20  1  0
 20 21  2  0
 21 22  1  0
 22 23  2  0
 23 24  1  0
 24 25  2  0
 25 26  1  0
 26 27  2  0
 27 28  1  0
 28 29  2  0
 12  7  1  0
 19 13  1  0
 29 20  1  0
 28 23  1  0
  3 30  1  0
  4 31  1  0
  4 32  1  0
  8 33  1  0
  8 34  1  0
  9 35  1  0
  9 36  1  0
 10 37  1  0
 10 38  1  0
 11 39  1  0
 11 40  1  0
 12 41  1  1
 14 42  1  0
 15 43  1  0
 16 44  1  0
 19 45  1  0
 21 46  1  0
 22 47  1  0
 24 48  1  0
 25 49  1  0
 26 50  1  0
 27 51  1  0
M  END
>  <smiles>  (53) 
O=C(NCC(=O)N1CCCCC1c1cccc(Cl)c1)c1ccc2ccccc2n1

>  <score_type>  (53) 
oracle

>  <origin>  (53) 
autodockgpu

>  <m_score__min__energy>  (53) 
-9.2300000000000004

>  <m_primary>  (53) 
energy

>  <rmsd>  (53) 
1.370361172592861

>  <m_score__min__rmsd>  (53) 
1.370361172592861

>  <meeko>  (53) 
{"free_energy": -8.89, "intermolecular_energy": -10.38, "internal_energy": -1.74, "cluster_size": 17, "cluster_id": 1, "rank_in_cluster": 10}

>  <energy>  (53) 
-9.1

>  <cluster_rmsd>  (53) 
0.56

>  <cluster>  (53) 
1

$$$$

     RDKit          3D

 51 54  0  0  0  0  0  0  0  0999 V2000
  140.9520   71.6860  221.3180 O   0  0  0  0  0  0  0  0  0  0  0  0
  140.4160   72.2080  222.3530 C   0  0  0  0  0  0  0  0  0  0  0  0
  139.9880   73.5770  222.3300 N   0  0  0  0  0  0  0  0  0  0  0  0
  140.1830   74.3310  221.1140 C   0  0  0  0  0  0  0  0  0  0  0  0
  140.3950   75.7640  221.3840 C   0  0  0  0  0  0  0  0  0  0  0  0
  140.2750   76.1830  222.5630 O   0  0  0  0  0  0  0  0  0  0  0  0
  140.7300   76.7160  220.3910 N   0  0  0  0  0  0  0  0  0  0  0  0
  139.9920   76.7020  219.1430 C   0  0  0  0  0  0  0  0  0  0  0  0
  139.5030   78.0520  218.7290 C   0  0  0  0  0  0  0  0  0  0  0  0
  140.5600   79.1010  218.8160 C   0  0  0  0  0  0  0  0  0  0  0  0
  141.8680   78.5410  219.2870 C   0  0  0  0  0  0  0  0  0  0  0  0
  141.7700   77.7100  220.5380 C   0  0  1  0  0  0  0  0  0  0  0  0
  141.5560   78.6150  221.6890 C   0  0  0  0  0  0  0  0  0  0  0  0
  142.5660   79.1370  222.4620 C   0  0  0  0  0  0  0  0  0  0  0  0
  142.2650   79.9740  223.5280 C   0  0  0  0  0  0  0  0  0  0  0  0
  140.9520   80.3050  223.8430 C   0  0  0  0  0  0  0  0  0  0  0  0
  139.9330   79.7820  223.0670 C   0  0  0  0  0  0  0  0  0  0  0  0
  138.2390   80.1460  223.3890 Cl  0  0  0  0  0  0  0  0  0  0  0  0
  140.2410   78.9530  222.0110 C   0  0  0  0  0  0  0  0  0  0  0  0
  140.2240   71.4260  223.5810 C   0  0  0  0  0  0  0  0  0  0  0  0
  139.5790   70.2030  223.4790 C   0  0  0  0  0  0  0  0  0  0  0  0
  139.3880   69.4510  224.6190 C   0  0  0  0  0  0  0  0  0  0  0  0
  139.8290   69.8980  225.8490 C   0  0  0  0  0  0  0  0  0  0  0  0
  139.6590   69.1800  227.0140 C   0  0  0  0  0  0  0  0  0  0  0  0
  140.0970   69.6200  228.2460 C   0  0  0  0  0  0  0  0  0  0  0  0
  140.7410   70.8620  228.2850 C   0  0  0  0  0  0  0  0  0  0  0  0
  140.9220   71.6040  227.1130 C   0  0  0  0  0  0  0  0  0  0  0  0
  140.4730   71.1390  225.8920 C   0  0  0  0  0  0  0  0  0  0  0  0
  140.6560   71.8680  224.7760 N   0  0  0  0  0  0  0  0  0  0  0  0
  139.5560   73.9580  223.1990 H   0  0  0  0  0  0  0  0  0  0  0  0
  141.0633   73.9344  220.5869 H   0  0  0  0  0  0  0  0  0  0  0  0
  139.2751   74.2303  220.5011 H   0  0  0  0  0  0  0  0  0  0  0  0
  140.6503   76.3119  218.3528 H   0  0  0  0  0  0  0  0  0  0  0  0
  139.1062   76.0680  219.2960 H   0  0  0  0  0  0  0  0  0  0  0  0
  139.1499   77.9942  217.6888 H   0  0  0  0  0  0  0  0  0  0  0  0
  138.6951   78.3377  219.4187 H   0  0  0  0  0  0  0  0  0  0  0  0
  140.7020   79.5458  217.8200 H   0  0  0  0  0  0  0  0  0  0  0  0
  140.2308   79.8560  219.5452 H   0  0  0  0  0  0  0  0  0  0  0  0
  142.2816   77.9107  218.4860 H   0  0  0  0  0  0  0  0  0  0  0  0
  142.5105   79.4005  219.5286 H   0  0  0  0  0  0  0  0  0  0  0  0
  142.7019   77.1542  220.7188 H   0  0  0  0  0  0  0  0  0  0  0  0
  143.6140   78.8912  222.2356 H   0  0  0  0  0  0  0  0  0  0  0  0
  143.0838   80.3845  224.1371 H   0  0  0  0  0  0  0  0  0  0  0  0
  140.7281   80.9686  224.6912 H   0  0  0  0  0  0  0  0  0  0  0  0
  139.4225   78.5435  221.4008 H   0  0  0  0  0  0  0  0  0  0  0  0
  139.2250   69.8381  222.5036 H   0  0  0  0  0  0  0  0  0  0  0  0
  138.8764   68.4799  224.5475 H   0  0  0  0  0  0  0  0  0  0  0  0
  139.1484   68.2073  226.9582 H   0  0  0  0  0  0  0  0  0  0  0  0
  139.9468   69.0216  229.1567 H   0  0  0  0  0  0  0  0  0  0  0  0
  141.1074   71.2574  229.2439 H   0  0  0  0  0  0  0  0  0  0  0  0
  141.4321   72.5772  227.1646 H   0  0  0  0  0  0  0  0  0  0  0  0
  1  2  2  0
  2  3  1  0
  3  4  1  0
  4  5  1  0
  5  6  2  0
  5  7  1  0
  7  8  1  0
  8  9  1  0
  9 10  1  0
 10 11  1  0
 11 12  1  0
 12 13  1  0
 13 14  2  0
 14 15  1  0
 15 16  2  0
 16 17  1  0
 17 18  1  0
 17 19  2  0
  2 20  1  0
 20 21  2  0
 21 22  1  0
 22 23  2  0
 23 24  1  0
 24 25  2  0
 25 26  1  0
 26 27  2  0
 27 28  1  0
 28 29  2  0
 12  7  1  0
 19 13  1  0
 29 20  1  0
 28 23  1  0
  3 30  1  0
  4 31  1  0
  4 32  1  0
  8 33  1  0
  8 34  1  0
  9 35  1  0
  9 36  1  0
 10 37  1  0
 10 38  1  0
 11 39  1  0
 11 40  1  0
 12 41  1  1
 14 42  1  0
 15 43  1  0
 16 44  1  0
 19 45  1  0
 21 46  1  0
 22 47  1  0
 24 48  1  0
 25 49  1  0
 26 50  1  0
 27 51  1  0
M  END
>  <smiles>  (54) 
O=C(NCC(=O)N1CCCCC1c1cccc(Cl)c1)c1ccc2ccccc2n1

>  <score_type>  (54) 
oracle

>  <origin>  (54) 
autodockgpu

>  <m_score__min__energy>  (54) 
-9.2300000000000004

>  <m_primary>  (54) 
energy

>  <rmsd>  (54) 
1.7744976224481066

>  <m_score__min__rmsd>  (54) 
1.7744976224481066

>  <meeko>  (54) 
{"free_energy": -8.97, "intermolecular_energy": -10.46, "internal_energy": -1.69, "cluster_size": 17, "cluster_id": 1, "rank_in_cluster": 5}

>  <energy>  (54) 
-8.98

>  <cluster_rmsd>  (54) 
1.09

>  <cluster>  (54) 
1

$$$$

     RDKit          3D

 51 54  0  0  0  0  0  0  0  0999 V2000
  139.3410   71.2760  221.2600 O   0  0  0  0  0  0  0  0  0  0  0  0
  139.9070   71.7520  222.3010 C   0  0  0  0  0  0  0  0  0  0  0  0
  140.5460   73.0350  222.2520 N   0  0  0  0  0  0  0  0  0  0  0  0
  140.5280   73.7570  221.0010 C   0  0  0  0  0  0  0  0  0  0  0  0
  140.8180   75.1900  221.1900 C   0  0  0  0  0  0  0  0  0  0  0  0
  140.7960   75.6650  222.3530 O   0  0  0  0  0  0  0  0  0  0  0  0
  141.1260   76.0800  220.1330 N   0  0  0  0  0  0  0  0  0  0  0  0
  140.6360   75.7730  218.8050 C   0  0  0  0  0  0  0  0  0  0  0  0
  139.9690   76.9320  218.1370 C   0  0  0  0  0  0  0  0  0  0  0  0
  140.7660   78.1890  218.2310 C   0  0  0  0  0  0  0  0  0  0  0  0
  142.0560   77.9820  218.9650 C   0  0  0  0  0  0  0  0  0  0  0  0
  141.9070   77.2870  220.2910 C   0  0  1  0  0  0  0  0  0  0  0  0
  141.3220   78.2410  221.2590 C   0  0  0  0  0  0  0  0  0  0  0  0
  139.9730   78.4140  221.4580 C   0  0  0  0  0  0  0  0  0  0  0  0
  139.5190   79.3400  222.3870 C   0  0  0  0  0  0  0  0  0  0  0  0
  140.4020   80.1120  223.1340 C   0  0  0  0  0  0  0  0  0  0  0  0
  141.7610   79.9400  222.9380 C   0  0  0  0  0  0  0  0  0  0  0  0
  142.9560   80.8720  223.8380 Cl  0  0  0  0  0  0  0  0  0  0  0  0
  142.2020   79.0180  222.0140 C   0  0  0  0  0  0  0  0  0  0  0  0
  139.9140   71.0050  223.5660 C   0  0  0  0  0  0  0  0  0  0  0  0
  139.3580   69.7360  223.5740 C   0  0  0  0  0  0  0  0  0  0  0  0
  139.3540   69.0150  224.7500 C   0  0  0  0  0  0  0  0  0  0  0  0
  139.8950   69.5380  225.9070 C   0  0  0  0  0  0  0  0  0  0  0  0
  139.9130   68.8540  227.1050 C   0  0  0  0  0  0  0  0  0  0  0  0
  140.4520   69.3710  228.2650 C   0  0  0  0  0  0  0  0  0  0  0  0
  141.0000   70.6560  228.1930 C   0  0  0  0  0  0  0  0  0  0  0  0
  140.9900   71.3650  226.9870 C   0  0  0  0  0  0  0  0  0  0  0  0
  140.4440   70.8240  225.8400 C   0  0  0  0  0  0  0  0  0  0  0  0
  140.4440   71.5210  224.6890 N   0  0  0  0  0  0  0  0  0  0  0  0
  140.9930   73.3820  223.1280 H   0  0  0  0  0  0  0  0  0  0  0  0
  141.2861   73.3260  220.3305 H   0  0  0  0  0  0  0  0  0  0  0  0
  139.5202   73.6668  220.5694 H   0  0  0  0  0  0  0  0  0  0  0  0
  141.4865   75.4547  218.1842 H   0  0  0  0  0  0  0  0  0  0  0  0
  139.8807   74.9806  218.9121 H   0  0  0  0  0  0  0  0  0  0  0  0
  139.8210   76.6881  217.0746 H   0  0  0  0  0  0  0  0  0  0  0  0
  139.0128   77.1063  218.6521 H   0  0  0  0  0  0  0  0  0  0  0  0
  140.9890   78.5450  217.2144 H   0  0  0  0  0  0  0  0  0  0  0  0
  140.1718   78.9272  218.7896 H   0  0  0  0  0  0  0  0  0  0  0  0
  142.7202   77.3764  218.3309 H   0  0  0  0  0  0  0  0  0  0  0  0
  142.4631   78.9818  219.1764 H   0  0  0  0  0  0  0  0  0  0  0  0
  142.8840   76.9691  220.6840 H   0  0  0  0  0  0  0  0  0  0  0  0
  139.2519   77.8175  220.8799 H   0  0  0  0  0  0  0  0  0  0  0  0
  138.4364   79.4660  222.5356 H   0  0  0  0  0  0  0  0  0  0  0  0
  140.0281   80.8439  223.8652 H   0  0  0  0  0  0  0  0  0  0  0  0
  143.2845   78.8899  221.8663 H   0  0  0  0  0  0  0  0  0  0  0  0
  138.9263   69.3098  222.6564 H   0  0  0  0  0  0  0  0  0  0  0  0
  138.9128   68.0075  224.7659 H   0  0  0  0  0  0  0  0  0  0  0  0
  139.4754   67.8453  227.1369 H   0  0  0  0  0  0  0  0  0  0  0  0
  140.4509   68.7985  229.2043 H   0  0  0  0  0  0  0  0  0  0  0  0
  141.4420   71.1123  229.0910 H   0  0  0  0  0  0  0  0  0  0  0  0
  141.4261   72.3742  226.9518 H   0  0  0  0  0  0  0  0  0  0  0  0
  1  2  2  0
  2  3  1  0
  3  4  1  0
  4  5  1  0
  5  6  2  0
  5  7  1  0
  7  8  1  0
  8  9  1  0
  9 10  1  0
 10 11  1  0
 11 12  1  0
 12 13  1  0
 13 14  2  0
 14 15  1  0
 15 16  2  0
 16 17  1  0
 17 18  1  0
 17 19  2  0
  2 20  1  0
 20 21  2  0
 21 22  1  0
 22 23  2  0
 23 24  1  0
 24 25  2  0
 25 26  1  0
 26 27  2  0
 27 28  1  0
 28 29  2  0
 12  7  1  0
 19 13  1  0
 29 20  1  0
 28 23  1  0
  3 30  1  0
  4 31  1  0
  4 32  1  0
  8 33  1  0
  8 34  1  0
  9 35  1  0
  9 36  1  0
 10 37  1  0
 10 38  1  0
 11 39  1  0
 11 40  1  0
 12 41  1  1
 14 42  1  0
 15 43  1  0
 16 44  1  0
 19 45  1  0
 21 46  1  0
 22 47  1  0
 24 48  1  0
 25 49  1  0
 26 50  1  0
 27 51  1  0
M  END
>  <smiles>  (55) 
O=C(NCC(=O)N1CCCCC1c1cccc(Cl)c1)c1ccc2ccccc2n1

>  <score_type>  (55) 
oracle

>  <origin>  (55) 
autodockgpu

>  <m_score__min__energy>  (55) 
-9.2300000000000004

>  <m_primary>  (55) 
energy

>  <rmsd>  (55) 
1.516041386210672

>  <m_score__min__rmsd>  (55) 
1.516041386210672

>  <meeko>  (55) 
{"free_energy": -8.3, "intermolecular_energy": -9.8, "internal_energy": -1.89, "cluster_size": 17, "cluster_id": 1, "rank_in_cluster": 16}

>  <energy>  (55) 
-8.97

>  <cluster_rmsd>  (55) 
1.09

>  <cluster>  (55) 
1

$$$$

     RDKit          3D

 51 54  0  0  0  0  0  0  0  0999 V2000
  139.9710   70.8780  221.3090 O   0  0  0  0  0  0  0  0  0  0  0  0
  139.9470   71.5130  222.4180 C   0  0  0  0  0  0  0  0  0  0  0  0
  139.8790   72.9450  222.4270 N   0  0  0  0  0  0  0  0  0  0  0  0
  139.8400   73.6330  221.1580 C   0  0  0  0  0  0  0  0  0  0  0  0
  140.4260   74.9830  221.2470 C   0  0  0  0  0  0  0  0  0  0  0  0
  140.3800   75.5920  222.3460 O   0  0  0  0  0  0  0  0  0  0  0  0
  141.0480   75.6490  220.1640 N   0  0  0  0  0  0  0  0  0  0  0  0
  140.8880   77.0840  220.0510 C   0  0  0  0  0  0  0  0  0  0  0  0
  142.1750   77.8080  219.8200 C   0  0  0  0  0  0  0  0  0  0  0  0
  143.0010   77.1870  218.7440 C   0  0  0  0  0  0  0  0  0  0  0  0
  142.3300   75.9890  218.1420 C   0  0  0  0  0  0  0  0  0  0  0  0
  141.8390   74.9860  219.1500 C   0  0  1  0  0  0  0  0  0  0  0  0
  143.0050   74.2590  219.6990 C   0  0  0  0  0  0  0  0  0  0  0  0
  144.0500   74.8580  220.3610 C   0  0  0  0  0  0  0  0  0  0  0  0
  145.1060   74.0910  220.8360 C   0  0  0  0  0  0  0  0  0  0  0  0
  145.1380   72.7130  220.6580 C   0  0  0  0  0  0  0  0  0  0  0  0
  144.0880   72.1050  219.9930 C   0  0  0  0  0  0  0  0  0  0  0  0
  144.0410   70.3650  219.7210 Cl  0  0  0  0  0  0  0  0  0  0  0  0
  143.0440   72.8750  219.5260 C   0  0  0  0  0  0  0  0  0  0  0  0
  139.9860   70.7960  223.6990 C   0  0  0  0  0  0  0  0  0  0  0  0
  139.5040   69.4970  223.7330 C   0  0  0  0  0  0  0  0  0  0  0  0
  139.5310   68.8040  224.9250 C   0  0  0  0  0  0  0  0  0  0  0  0
  140.0300   69.3850  226.0740 C   0  0  0  0  0  0  0  0  0  0  0  0
  140.0760   68.7300  227.2870 C   0  0  0  0  0  0  0  0  0  0  0  0
  140.5730   69.3040  228.4400 C   0  0  0  0  0  0  0  0  0  0  0  0
  141.0460   70.6170  228.3420 C   0  0  0  0  0  0  0  0  0  0  0  0
  141.0070   71.2960  227.1200 C   0  0  0  0  0  0  0  0  0  0  0  0
  140.5040   70.6980  225.9810 C   0  0  0  0  0  0  0  0  0  0  0  0
  140.4740   71.3680  224.8150 N   0  0  0  0  0  0  0  0  0  0  0  0
  139.8610   73.4180  223.3570 H   0  0  0  0  0  0  0  0  0  0  0  0
  140.4059   73.0476  220.4184 H   0  0  0  0  0  0  0  0  0  0  0  0
  138.7867   73.7373  220.8587 H   0  0  0  0  0  0  0  0  0  0  0  0
  140.2133   77.2944  219.2080 H   0  0  0  0  0  0  0  0  0  0  0  0
  140.4811   77.4419  221.0083 H   0  0  0  0  0  0  0  0  0  0  0  0
  141.9484   78.8459  219.5347 H   0  0  0  0  0  0  0  0  0  0  0  0
  142.7551   77.7595  220.7533 H   0  0  0  0  0  0  0  0  0  0  0  0
  143.1732   77.9323  217.9535 H   0  0  0  0  0  0  0  0  0  0  0  0
  143.9496   76.8560  219.1919 H   0  0  0  0  0  0  0  0  0  0  0  0
  141.4684   76.3359  217.5527 H   0  0  0  0  0  0  0  0  0  0  0  0
  143.0869   75.4772  217.5295 H   0  0  0  0  0  0  0  0  0  0  0  0
  141.1753   74.2452  218.6802 H   0  0  0  0  0  0  0  0  0  0  0  0
  144.0500   75.9472  220.5149 H   0  0  0  0  0  0  0  0  0  0  0  0
  145.9348   74.5848  221.3644 H   0  0  0  0  0  0  0  0  0  0  0  0
  145.9812   72.1176  221.0382 H   0  0  0  0  0  0  0  0  0  0  0  0
  142.2139   72.3816  218.9993 H   0  0  0  0  0  0  0  0  0  0  0  0
  139.1057   69.0256  222.8224 H   0  0  0  0  0  0  0  0  0  0  0  0
  139.1493   67.7730  224.9610 H   0  0  0  0  0  0  0  0  0  0  0  0
  139.6977   67.6984  227.3382 H   0  0  0  0  0  0  0  0  0  0  0  0
  140.5960   68.7541  229.3924 H   0  0  0  0  0  0  0  0  0  0  0  0
  141.4516   71.1190  229.2327 H   0  0  0  0  0  0  0  0  0  0  0  0
  141.3847   72.3276  227.0647 H   0  0  0  0  0  0  0  0  0  0  0  0
  1  2  2  0
  2  3  1  0
  3  4  1  0
  4  5  1  0
  5  6  2  0
  5  7  1  0
  7  8  1  0
  8  9  1  0
  9 10  1  0
 10 11  1  0
 11 12  1  0
 12 13  1  0
 13 14  2  0
 14 15  1  0
 15 16  2  0
 16 17  1  0
 17 18  1  0
 17 19  2  0
  2 20  1  0
 20 21  2  0
 21 22  1  0
 22 23  2  0
 23 24  1  0
 24 25  2  0
 25 26  1  0
 26 27  2  0
 27 28  1  0
 28 29  2  0
 12  7  1  0
 19 13  1  0
 29 20  1  0
 28 23  1  0
  3 30  1  0
  4 31  1  0
  4 32  1  0
  8 33  1  0
  8 34  1  0
  9 35  1  0
  9 36  1  0
 10 37  1  0
 10 38  1  0
 11 39  1  0
 11 40  1  0
 12 41  1  6
 14 42  1  0
 15 43  1  0
 16 44  1  0
 19 45  1  0
 21 46  1  0
 22 47  1  0
 24 48  1  0
 25 49  1  0
 26 50  1  0
 27 51  1  0
M  END
>  <smiles>  (56) 
O=C(NCC(=O)N1CCCCC1c1cccc(Cl)c1)c1ccc2ccccc2n1

>  <score_type>  (56) 
oracle

>  <origin>  (56) 
autodockgpu

>  <m_score__min__energy>  (56) 
-9.2300000000000004

>  <m_primary>  (56) 
energy

>  <rmsd>  (56) 
2.0040929087008568

>  <m_score__min__rmsd>  (56) 
2.0040929087008568

>  <meeko>  (56) 
{"free_energy": -8.63, "intermolecular_energy": -10.12, "internal_energy": -2.07, "cluster_size": 21, "cluster_id": 2, "rank_in_cluster": 17}

>  <energy>  (56) 
-8.95

>  <cluster_rmsd>  (56) 
0.62

>  <cluster>  (56) 
1

$$$$

     RDKit          3D

 51 54  0  0  0  0  0  0  0  0999 V2000
  140.5250   71.2140  221.2070 O   0  0  0  0  0  0  0  0  0  0  0  0
  140.1900   71.8300  222.2740 C   0  0  0  0  0  0  0  0  0  0  0  0
  139.8410   73.2200  222.2240 N   0  0  0  0  0  0  0  0  0  0  0  0
  139.8830   73.8870  220.9440 C   0  0  0  0  0  0  0  0  0  0  0  0
  140.9590   74.8920  220.8830 C   0  0  0  0  0  0  0  0  0  0  0  0
  141.4250   75.3470  221.9580 O   0  0  0  0  0  0  0  0  0  0  0  0
  141.5130   75.3860  219.6770 N   0  0  0  0  0  0  0  0  0  0  0  0
  141.2630   76.7670  219.3170 C   0  0  0  0  0  0  0  0  0  0  0  0
  142.4980   77.5080  218.9170 C   0  0  0  0  0  0  0  0  0  0  0  0
  143.3350   76.7510  217.9410 C   0  0  0  0  0  0  0  0  0  0  0  0
  142.7240   75.4290  217.5850 C   0  0  0  0  0  0  0  0  0  0  0  0
  142.3190   74.5970  218.7720 C   0  0  1  0  0  0  0  0  0  0  0  0
  143.5390   74.0470  219.4010 C   0  0  0  0  0  0  0  0  0  0  0  0
  144.2950   74.7100  220.3390 C   0  0  0  0  0  0  0  0  0  0  0  0
  145.4310   74.1130  220.8680 C   0  0  0  0  0  0  0  0  0  0  0  0
  145.8340   72.8430  220.4710 C   0  0  0  0  0  0  0  0  0  0  0  0
  145.0770   72.1710  219.5270 C   0  0  0  0  0  0  0  0  0  0  0  0
  145.5100   70.5590  218.9640 Cl  0  0  0  0  0  0  0  0  0  0  0  0
  143.9510   72.7720  219.0080 C   0  0  0  0  0  0  0  0  0  0  0  0
  140.1520   71.1360  223.5680 C   0  0  0  0  0  0  0  0  0  0  0  0
  139.6100   69.8600  223.6050 C   0  0  0  0  0  0  0  0  0  0  0  0
  139.5650   69.1880  224.8090 C   0  0  0  0  0  0  0  0  0  0  0  0
  140.0490   69.7660  225.9650 C   0  0  0  0  0  0  0  0  0  0  0  0
  140.0230   69.1320  227.1900 C   0  0  0  0  0  0  0  0  0  0  0  0
  140.5060   69.7030  228.3490 C   0  0  0  0  0  0  0  0  0  0  0  0
  141.0410   70.9920  228.2470 C   0  0  0  0  0  0  0  0  0  0  0  0
  141.0750   71.6500  227.0140 C   0  0  0  0  0  0  0  0  0  0  0  0
  140.5850   71.0550  225.8680 C   0  0  0  0  0  0  0  0  0  0  0  0
  140.6260   71.7050  224.6900 N   0  0  0  0  0  0  0  0  0  0  0  0
  139.5740   73.6790  223.1220 H   0  0  0  0  0  0  0  0  0  0  0  0
  140.0521   73.1368  220.1575 H   0  0  0  0  0  0  0  0  0  0  0  0
  138.9238   74.4053  220.7981 H   0  0  0  0  0  0  0  0  0  0  0  0
  140.5567   76.7854  218.4740 H   0  0  0  0  0  0  0  0  0  0  0  0
  140.8580   77.2674  220.2090 H   0  0  0  0  0  0  0  0  0  0  0  0
  142.2020   78.4636  218.4595 H   0  0  0  0  0  0  0  0  0  0  0  0
  143.1018   77.6599  219.8238 H   0  0  0  0  0  0  0  0  0  0  0  0
  143.4428   77.3507  217.0252 H   0  0  0  0  0  0  0  0  0  0  0  0
  144.3124   76.5593  218.4079 H   0  0  0  0  0  0  0  0  0  0  0  0
  141.8291   75.6161  216.9734 H   0  0  0  0  0  0  0  0  0  0  0  0
  143.4958   74.8585  217.0476 H   0  0  0  0  0  0  0  0  0  0  0  0
  141.6913   73.7475  218.4650 H   0  0  0  0  0  0  0  0  0  0  0  0
  143.9988   75.7160  220.6710 H   0  0  0  0  0  0  0  0  0  0  0  0
  146.0252   74.6564  221.6174 H   0  0  0  0  0  0  0  0  0  0  0  0
  146.7364   72.3815  220.8985 H   0  0  0  0  0  0  0  0  0  0  0  0
  143.3564   72.2290  218.2586 H   0  0  0  0  0  0  0  0  0  0  0  0
  139.2221   69.3911  222.6887 H   0  0  0  0  0  0  0  0  0  0  0  0
  139.1366   68.1756  224.8482 H   0  0  0  0  0  0  0  0  0  0  0  0
  139.5955   68.1200  227.2453 H   0  0  0  0  0  0  0  0  0  0  0  0
  140.4721   69.1691  229.3102 H   0  0  0  0  0  0  0  0  0  0  0  0
  141.4377   71.4911  229.1434 H   0  0  0  0  0  0  0  0  0  0  0  0
  141.5008   72.6626  226.9554 H   0  0  0  0  0  0  0  0  0  0  0  0
  1  2  2  0
  2  3  1  0
  3  4  1  0
  4  5  1  0
  5  6  2  0
  5  7  1  0
  7  8  1  0
  8  9  1  0
  9 10  1  0
 10 11  1  0
 11 12  1  0
 12 13  1  0
 13 14  2  0
 14 15  1  0
 15 16  2  0
 16 17  1  0
 17 18  1  0
 17 19  2  0
  2 20  1  0
 20 21  2  0
 21 22  1  0
 22 23  2  0
 23 24  1  0
 24 25  2  0
 25 26  1  0
 26 27  2  0
 27 28  1  0
 28 29  2  0
 12  7  1  0
 19 13  1  0
 29 20  1  0
 28 23  1  0
  3 30  1  0
  4 31  1  0
  4 32  1  0
  8 33  1  0
  8 34  1  0
  9 35  1  0
  9 36  1  0
 10 37  1  0
 10 38  1  0
 11 39  1  0
 11 40  1  0
 12 41  1  6
 14 42  1  0
 15 43  1  0
 16 44  1  0
 19 45  1  0
 21 46  1  0
 22 47  1  0
 24 48  1  0
 25 49  1  0
 26 50  1  0
 27 51  1  0
M  END
>  <smiles>  (57) 
O=C(NCC(=O)N1CCCCC1c1cccc(Cl)c1)c1ccc2ccccc2n1

>  <score_type>  (57) 
oracle

>  <origin>  (57) 
autodockgpu

>  <m_score__min__energy>  (57) 
-9.2300000000000004

>  <m_primary>  (57) 
energy

>  <rmsd>  (57) 
2.0911103187878273

>  <m_score__min__rmsd>  (57) 
2.0911103187878273

>  <meeko>  (57) 
{"free_energy": -8.95, "intermolecular_energy": -10.44, "internal_energy": -1.8, "cluster_size": 21, "cluster_id": 2, "rank_in_cluster": 6}

>  <energy>  (57) 
-8.92

>  <cluster_rmsd>  (57) 
1.1

>  <cluster>  (57) 
1

$$$$

     RDKit          3D

 51 54  0  0  0  0  0  0  0  0999 V2000
  141.0630   71.6790  221.3900 O   0  0  0  0  0  0  0  0  0  0  0  0
  140.4780   72.2140  222.3910 C   0  0  0  0  0  0  0  0  0  0  0  0
  140.0250   73.5730  222.3200 N   0  0  0  0  0  0  0  0  0  0  0  0
  140.2520   74.3020  221.0950 C   0  0  0  0  0  0  0  0  0  0  0  0
  140.2260   75.7600  221.3110 C   0  0  0  0  0  0  0  0  0  0  0  0
  139.8330   76.2010  222.4210 O   0  0  0  0  0  0  0  0  0  0  0  0
  140.6200   76.7120  220.3390 N   0  0  0  0  0  0  0  0  0  0  0  0
  139.9070   76.7470  219.0780 C   0  0  0  0  0  0  0  0  0  0  0  0
  139.4830   78.1230  218.6760 C   0  0  0  0  0  0  0  0  0  0  0  0
  140.5810   79.1250  218.7990 C   0  0  0  0  0  0  0  0  0  0  0  0
  141.8550   78.5030  219.2860 C   0  0  0  0  0  0  0  0  0  0  0  0
  141.6970   77.6590  220.5220 C   0  0  1  0  0  0  0  0  0  0  0  0
  141.5000   78.5540  221.6830 C   0  0  0  0  0  0  0  0  0  0  0  0
  142.5180   79.0480  222.4630 C   0  0  0  0  0  0  0  0  0  0  0  0
  142.2320   79.8790  223.5380 C   0  0  0  0  0  0  0  0  0  0  0  0
  140.9250   80.2310  223.8550 C   0  0  0  0  0  0  0  0  0  0  0  0
  139.8970   79.7370  223.0720 C   0  0  0  0  0  0  0  0  0  0  0  0
  138.2100   80.1290  223.3960 Cl  0  0  0  0  0  0  0  0  0  0  0  0
  140.1910   78.9140  222.0060 C   0  0  0  0  0  0  0  0  0  0  0  0
  140.2530   71.4560  223.6290 C   0  0  0  0  0  0  0  0  0  0  0  0
  139.5570   70.2600  223.5430 C   0  0  0  0  0  0  0  0  0  0  0  0
  139.3360   69.5310  224.6920 C   0  0  0  0  0  0  0  0  0  0  0  0
  139.7960   69.9740  225.9160 C   0  0  0  0  0  0  0  0  0  0  0  0
  139.5970   69.2790  227.0900 C   0  0  0  0  0  0  0  0  0  0  0  0
  140.0540   69.7150  228.3170 C   0  0  0  0  0  0  0  0  0  0  0  0
  140.7510   70.9290  228.3400 C   0  0  0  0  0  0  0  0  0  0  0  0
  140.9610   71.6480  227.1580 C   0  0  0  0  0  0  0  0  0  0  0  0
  140.4930   71.1880  225.9430 C   0  0  0  0  0  0  0  0  0  0  0  0
  140.7050   71.8940  224.8180 N   0  0  0  0  0  0  0  0  0  0  0  0
  139.5510   73.9650  223.1630 H   0  0  0  0  0  0  0  0  0  0  0  0
  141.2350   74.0198  220.6900 H   0  0  0  0  0  0  0  0  0  0  0  0
  139.4457   74.0468  220.3916 H   0  0  0  0  0  0  0  0  0  0  0  0
  140.5636   76.3412  218.2943 H   0  0  0  0  0  0  0  0  0  0  0  0
  138.9928   76.1484  219.2041 H   0  0  0  0  0  0  0  0  0  0  0  0
  139.1479   78.0956  217.6287 H   0  0  0  0  0  0  0  0  0  0  0  0
  138.6747   78.4322  219.3550 H   0  0  0  0  0  0  0  0  0  0  0  0
  140.7609   79.5779  217.8129 H   0  0  0  0  0  0  0  0  0  0  0  0
  140.2697   79.8826  219.5332 H   0  0  0  0  0  0  0  0  0  0  0  0
  142.2572   77.8673  218.4834 H   0  0  0  0  0  0  0  0  0  0  0  0
  142.5287   79.3306  219.5527 H   0  0  0  0  0  0  0  0  0  0  0  0
  142.6009   77.0617  220.7125 H   0  0  0  0  0  0  0  0  0  0  0  0
  143.5614   78.7845  222.2352 H   0  0  0  0  0  0  0  0  0  0  0  0
  143.0577   80.2673  224.1523 H   0  0  0  0  0  0  0  0  0  0  0  0
  140.7126   80.8887  224.7107 H   0  0  0  0  0  0  0  0  0  0  0  0
  139.3660   78.5280  221.3892 H   0  0  0  0  0  0  0  0  0  0  0  0
  139.1867   69.8982  222.5725 H   0  0  0  0  0  0  0  0  0  0  0  0
  138.7843   68.5812  224.6326 H   0  0  0  0  0  0  0  0  0  0  0  0
  139.0456   68.3282  227.0464 H   0  0  0  0  0  0  0  0  0  0  0  0
  139.8786   69.1351  229.2351 H   0  0  0  0  0  0  0  0  0  0  0  0
  141.1360   71.3201  229.2933 H   0  0  0  0  0  0  0  0  0  0  0  0
  141.5106   72.6000  227.1976 H   0  0  0  0  0  0  0  0  0  0  0  0
  1  2  2  0
  2  3  1  0
  3  4  1  0
  4  5  1  0
  5  6  2  0
  5  7  1  0
  7  8  1  0
  8  9  1  0
  9 10  1  0
 10 11  1  0
 11 12  1  0
 12 13  1  0
 13 14  2  0
 14 15  1  0
 15 16  2  0
 16 17  1  0
 17 18  1  0
 17 19  2  0
  2 20  1  0
 20 21  2  0
 21 22  1  0
 22 23  2  0
 23 24  1  0
 24 25  2  0
 25 26  1  0
 26 27  2  0
 27 28  1  0
 28 29  2  0
 12  7  1  0
 19 13  1  0
 29 20  1  0
 28 23  1  0
  3 30  1  0
  4 31  1  0
  4 32  1  0
  8 33  1  0
  8 34  1  0
  9 35  1  0
  9 36  1  0
 10 37  1  0
 10 38  1  0
 11 39  1  0
 11 40  1  0
 12 41  1  1
 14 42  1  0
 15 43  1  0
 16 44  1  0
 19 45  1  0
 21 46  1  0
 22 47  1  0
 24 48  1  0
 25 49  1  0
 26 50  1  0
 27 51  1  0
M  END
>  <smiles>  (58) 
O=C(NCC(=O)N1CCCCC1c1cccc(Cl)c1)c1ccc2ccccc2n1

>  <score_type>  (58) 
oracle

>  <origin>  (58) 
autodockgpu

>  <m_score__min__energy>  (58) 
-9.2300000000000004

>  <m_primary>  (58) 
energy

>  <rmsd>  (58) 
1.8070879095225196

>  <m_score__min__rmsd>  (58) 
1.8070879095225196

>  <meeko>  (58) 
{"free_energy": -8.92, "intermolecular_energy": -10.41, "internal_energy": -1.73, "cluster_size": 17, "cluster_id": 1, "rank_in_cluster": 7}

>  <energy>  (58) 
-8.92

>  <cluster_rmsd>  (58) 
1.09

>  <cluster>  (58) 
1

$$$$

     RDKit          3D

 51 54  0  0  0  0  0  0  0  0999 V2000
  140.4220   71.0850  221.2910 O   0  0  0  0  0  0  0  0  0  0  0  0
  140.0990   71.6720  222.3790 C   0  0  0  0  0  0  0  0  0  0  0  0
  139.7340   73.0590  222.3690 N   0  0  0  0  0  0  0  0  0  0  0  0
  139.7440   73.7560  221.1040 C   0  0  0  0  0  0  0  0  0  0  0  0
  140.4380   75.0530  221.1980 C   0  0  0  0  0  0  0  0  0  0  0  0
  140.4890   75.6340  222.3120 O   0  0  0  0  0  0  0  0  0  0  0  0
  141.0620   75.6980  220.1030 N   0  0  0  0  0  0  0  0  0  0  0  0
  140.9040   77.1320  219.9630 C   0  0  0  0  0  0  0  0  0  0  0  0
  142.1920   77.8490  219.7210 C   0  0  0  0  0  0  0  0  0  0  0  0
  143.0190   77.2070  218.6580 C   0  0  0  0  0  0  0  0  0  0  0  0
  142.3480   75.9990  218.0780 C   0  0  0  0  0  0  0  0  0  0  0  0
  141.8540   75.0150  219.1040 C   0  0  1  0  0  0  0  0  0  0  0  0
  143.0180   74.2980  219.6680 C   0  0  0  0  0  0  0  0  0  0  0  0
  144.0600   74.9070  220.3240 C   0  0  0  0  0  0  0  0  0  0  0  0
  145.1150   74.1480  220.8140 C   0  0  0  0  0  0  0  0  0  0  0  0
  145.1480   72.7670  220.6570 C   0  0  0  0  0  0  0  0  0  0  0  0
  144.1000   72.1490  219.9970 C   0  0  0  0  0  0  0  0  0  0  0  0
  144.0560   70.4040  219.7510 Cl  0  0  0  0  0  0  0  0  0  0  0  0
  143.0580   72.9110  219.5150 C   0  0  0  0  0  0  0  0  0  0  0  0
  140.0940   70.9460  223.6560 C   0  0  0  0  0  0  0  0  0  0  0  0
  139.5680   69.6640  223.6720 C   0  0  0  0  0  0  0  0  0  0  0  0
  139.5530   68.9620  224.8600 C   0  0  0  0  0  0  0  0  0  0  0  0
  140.0510   69.5190  226.0210 C   0  0  0  0  0  0  0  0  0  0  0  0
  140.0550   68.8560  227.2300 C   0  0  0  0  0  0  0  0  0  0  0  0
  140.5520   69.4050  228.3940 C   0  0  0  0  0  0  0  0  0  0  0  0
  141.0690   70.7030  228.3140 C   0  0  0  0  0  0  0  0  0  0  0  0
  141.0720   71.3910  227.0960 C   0  0  0  0  0  0  0  0  0  0  0  0
  140.5690   70.8170  225.9450 C   0  0  0  0  0  0  0  0  0  0  0  0
  140.5810   71.4950  224.7830 N   0  0  0  0  0  0  0  0  0  0  0  0
  139.4780   73.4930  223.2820 H   0  0  0  0  0  0  0  0  0  0  0  0
  140.2566   73.1314  220.3576 H   0  0  0  0  0  0  0  0  0  0  0  0
  138.7011   73.9472  220.8112 H   0  0  0  0  0  0  0  0  0  0  0  0
  140.2311   77.3277  219.1151 H   0  0  0  0  0  0  0  0  0  0  0  0
  140.4958   77.5084  220.9126 H   0  0  0  0  0  0  0  0  0  0  0  0
  141.9676   78.8818  219.4162 H   0  0  0  0  0  0  0  0  0  0  0  0
  142.7704   77.8166  220.6561 H   0  0  0  0  0  0  0  0  0  0  0  0
  143.1930   77.9371  217.8539 H   0  0  0  0  0  0  0  0  0  0  0  0
  143.9666   76.8836  219.1135 H   0  0  0  0  0  0  0  0  0  0  0  0
  141.4878   76.3357  217.4808 H   0  0  0  0  0  0  0  0  0  0  0  0
  143.1056   75.4750  217.4767 H   0  0  0  0  0  0  0  0  0  0  0  0
  141.1905   74.2656  218.6478 H   0  0  0  0  0  0  0  0  0  0  0  0
  144.0589   75.9984  220.4616 H   0  0  0  0  0  0  0  0  0  0  0  0
  145.9420   74.6502  221.3374 H   0  0  0  0  0  0  0  0  0  0  0  0
  145.9898   72.1775  221.0493 H   0  0  0  0  0  0  0  0  0  0  0  0
  142.2301   72.4097  218.9923 H   0  0  0  0  0  0  0  0  0  0  0  0
  139.1685   69.2128  222.7517 H   0  0  0  0  0  0  0  0  0  0  0  0
  139.1381   67.9435  224.8823 H   0  0  0  0  0  0  0  0  0  0  0  0
  139.6409   67.8377  227.2683 H   0  0  0  0  0  0  0  0  0  0  0  0
  140.5423   68.8476  229.3423 H   0  0  0  0  0  0  0  0  0  0  0  0
  141.4758   71.1855  229.2150 H   0  0  0  0  0  0  0  0  0  0  0  0
  141.4835   72.4103  227.0541 H   0  0  0  0  0  0  0  0  0  0  0  0
  1  2  2  0
  2  3  1  0
  3  4  1  0
  4  5  1  0
  5  6  2  0
  5  7  1  0
  7  8  1  0
  8  9  1  0
  9 10  1  0
 10 11  1  0
 11 12  1  0
 12 13  1  0
 13 14  2  0
 14 15  1  0
 15 16  2  0
 16 17  1  0
 17 18  1  0
 17 19  2  0
  2 20  1  0
 20 21  2  0
 21 22  1  0
 22 23  2  0
 23 24  1  0
 24 25  2  0
 25 26  1  0
 26 27  2  0
 27 28  1  0
 28 29  2  0
 12  7  1  0
 19 13  1  0
 29 20  1  0
 28 23  1  0
  3 30  1  0
  4 31  1  0
  4 32  1  0
  8 33  1  0
  8 34  1  0
  9 35  1  0
  9 36  1  0
 10 37  1  0
 10 38  1  0
 11 39  1  0
 11 40  1  0
 12 41  1  6
 14 42  1  0
 15 43  1  0
 16 44  1  0
 19 45  1  0
 21 46  1  0
 22 47  1  0
 24 48  1  0
 25 49  1  0
 26 50  1  0
 27 51  1  0
M  END
>  <smiles>  (59) 
O=C(NCC(=O)N1CCCCC1c1cccc(Cl)c1)c1ccc2ccccc2n1

>  <score_type>  (59) 
oracle

>  <origin>  (59) 
autodockgpu

>  <m_score__min__energy>  (59) 
-9.2300000000000004

>  <m_primary>  (59) 
energy

>  <rmsd>  (59) 
2.0026559133173127

>  <m_score__min__rmsd>  (59) 
2.0026559133173127

>  <meeko>  (59) 
{"free_energy": -8.74, "intermolecular_energy": -10.23, "internal_energy": -1.97, "cluster_size": 21, "cluster_id": 2, "rank_in_cluster": 14}

>  <energy>  (59) 
-8.89

>  <cluster_rmsd>  (59) 
0.71

>  <cluster>  (59) 
1

$$$$

     RDKit          3D

 51 54  0  0  0  0  0  0  0  0999 V2000
  141.1190   71.8750  221.4300 O   0  0  0  0  0  0  0  0  0  0  0  0
  140.3310   72.2310  222.3710 C   0  0  0  0  0  0  0  0  0  0  0  0
  139.5110   73.3980  222.2220 N   0  0  0  0  0  0  0  0  0  0  0  0
  139.6080   74.1450  220.9890 C   0  0  0  0  0  0  0  0  0  0  0  0
  140.8480   74.9390  220.9240 C   0  0  0  0  0  0  0  0  0  0  0  0
  141.4500   75.2110  221.9940 O   0  0  0  0  0  0  0  0  0  0  0  0
  141.4170   75.4220  219.7210 N   0  0  0  0  0  0  0  0  0  0  0  0
  141.2040   76.8110  219.3650 C   0  0  0  0  0  0  0  0  0  0  0  0
  142.4600   77.5190  218.9680 C   0  0  0  0  0  0  0  0  0  0  0  0
  143.2760   76.7430  217.9900 C   0  0  0  0  0  0  0  0  0  0  0  0
  142.6290   75.4390  217.6290 C   0  0  0  0  0  0  0  0  0  0  0  0
  142.2010   74.6140  218.8130 C   0  0  1  0  0  0  0  0  0  0  0  0
  143.4050   74.0290  219.4400 C   0  0  0  0  0  0  0  0  0  0  0  0
  144.2170   74.6930  220.3290 C   0  0  0  0  0  0  0  0  0  0  0  0
  145.3320   74.0600  220.8610 C   0  0  0  0  0  0  0  0  0  0  0  0
  145.6580   72.7530  220.5160 C   0  0  0  0  0  0  0  0  0  0  0  0
  144.8440   72.0810  219.6230 C   0  0  0  0  0  0  0  0  0  0  0  0
  145.1770   70.4230  219.1270 Cl  0  0  0  0  0  0  0  0  0  0  0  0
  143.7390   72.7170  219.1000 C   0  0  0  0  0  0  0  0  0  0  0  0
  140.2450   71.4590  223.6170 C   0  0  0  0  0  0  0  0  0  0  0  0
  139.6770   70.1960  223.5610 C   0  0  0  0  0  0  0  0  0  0  0  0
  139.5860   69.4510  224.7180 C   0  0  0  0  0  0  0  0  0  0  0  0
  140.0510   69.9460  225.9200 C   0  0  0  0  0  0  0  0  0  0  0  0
  139.9800   69.2380  227.1020 C   0  0  0  0  0  0  0  0  0  0  0  0
  140.4430   69.7250  228.3070 C   0  0  0  0  0  0  0  0  0  0  0  0
  141.0070   71.0050  228.3000 C   0  0  0  0  0  0  0  0  0  0  0  0
  141.0860   71.7380  227.1110 C   0  0  0  0  0  0  0  0  0  0  0  0
  140.6150   71.2260  225.9180 C   0  0  0  0  0  0  0  0  0  0  0  0
  140.7010   71.9470  224.7850 N   0  0  0  0  0  0  0  0  0  0  0  0
  138.8840   73.6480  223.0170 H   0  0  0  0  0  0  0  0  0  0  0  0
  139.5919   73.4407  220.1442 H   0  0  0  0  0  0  0  0  0  0  0  0
  138.7558   74.8390  220.9427 H   0  0  0  0  0  0  0  0  0  0  0  0
  140.4990   76.8511  218.5216 H   0  0  0  0  0  0  0  0  0  0  0  0
  140.8114   77.3197  220.2578 H   0  0  0  0  0  0  0  0  0  0  0  0
  142.1910   78.4841  218.5139 H   0  0  0  0  0  0  0  0  0  0  0  0
  143.0673   77.6505  219.8757 H   0  0  0  0  0  0  0  0  0  0  0  0
  143.4006   77.3427  217.0763 H   0  0  0  0  0  0  0  0  0  0  0  0
  144.2475   76.5229  218.4566 H   0  0  0  0  0  0  0  0  0  0  0  0
  141.7397   75.6527  217.0178 H   0  0  0  0  0  0  0  0  0  0  0  0
  143.3851   74.8496  217.0897 H   0  0  0  0  0  0  0  0  0  0  0  0
  141.5503   73.7831  218.5029 H   0  0  0  0  0  0  0  0  0  0  0  0
  143.9826   75.7278  220.6192 H   0  0  0  0  0  0  0  0  0  0  0  0
  145.9718   74.6043  221.5712 H   0  0  0  0  0  0  0  0  0  0  0  0
  146.5451   72.2638  220.9447 H   0  0  0  0  0  0  0  0  0  0  0  0
  143.0985   72.1724  218.3906 H   0  0  0  0  0  0  0  0  0  0  0  0
  139.3042   69.7936  222.6075 H   0  0  0  0  0  0  0  0  0  0  0  0
  139.1364   68.4477  224.6826 H   0  0  0  0  0  0  0  0  0  0  0  0
  139.5313   68.2339  227.0827 H   0  0  0  0  0  0  0  0  0  0  0  0
  140.3718   69.1333  229.2316 H   0  0  0  0  0  0  0  0  0  0  0  0
  141.3909   71.4381  229.2354 H   0  0  0  0  0  0  0  0  0  0  0  0
  141.5326   72.7431  227.1267 H   0  0  0  0  0  0  0  0  0  0  0  0
  1  2  2  0
  2  3  1  0
  3  4  1  0
  4  5  1  0
  5  6  2  0
  5  7  1  0
  7  8  1  0
  8  9  1  0
  9 10  1  0
 10 11  1  0
 11 12  1  0
 12 13  1  0
 13 14  2  0
 14 15  1  0
 15 16  2  0
 16 17  1  0
 17 18  1  0
 17 19  2  0
  2 20  1  0
 20 21  2  0
 21 22  1  0
 22 23  2  0
 23 24  1  0
 24 25  2  0
 25 26  1  0
 26 27  2  0
 27 28  1  0
 28 29  2  0
 12  7  1  0
 19 13  1  0
 29 20  1  0
 28 23  1  0
  3 30  1  0
  4 31  1  0
  4 32  1  0
  8 33  1  0
  8 34  1  0
  9 35  1  0
  9 36  1  0
 10 37  1  0
 10 38  1  0
 11 39  1  0
 11 40  1  0
 12 41  1  6
 14 42  1  0
 15 43  1  0
 16 44  1  0
 19 45  1  0
 21 46  1  0
 22 47  1  0
 24 48  1  0
 25 49  1  0
 26 50  1  0
 27 51  1  0
M  END
>  <smiles>  (60) 
O=C(NCC(=O)N1CCCCC1c1cccc(Cl)c1)c1ccc2ccccc2n1

>  <score_type>  (60) 
oracle

>  <origin>  (60) 
autodockgpu

>  <m_score__min__energy>  (60) 
-9.2300000000000004

>  <m_primary>  (60) 
energy

>  <rmsd>  (60) 
2.1037253229926836

>  <m_score__min__rmsd>  (60) 
2.1037253229926836

>  <meeko>  (60) 
{"free_energy": -8.93, "intermolecular_energy": -10.42, "internal_energy": -1.8, "cluster_size": 21, "cluster_id": 2, "rank_in_cluster": 7}

>  <energy>  (60) 
-8.89

>  <cluster_rmsd>  (60) 
0.59

>  <cluster>  (60) 
1

$$$$

     RDKit          3D

 51 54  0  0  0  0  0  0  0  0999 V2000
  140.8640   73.5770  220.7750 O   0  0  0  0  0  0  0  0  0  0  0  0
  140.1900   73.6020  221.8590 C   0  0  0  0  0  0  0  0  0  0  0  0
  139.6380   74.8360  222.3370 N   0  0  0  0  0  0  0  0  0  0  0  0
  139.8680   76.0310  221.5600 C   0  0  0  0  0  0  0  0  0  0  0  0
  139.5610   77.2520  222.3260 C   0  0  0  0  0  0  0  0  0  0  0  0
  138.4370   77.3550  222.8780 O   0  0  0  0  0  0  0  0  0  0  0  0
  140.4610   78.3330  222.4860 N   0  0  0  0  0  0  0  0  0  0  0  0
  141.5900   78.4330  221.5820 C   0  0  0  0  0  0  0  0  0  0  0  0
  141.7590   79.7960  220.9930 C   0  0  0  0  0  0  0  0  0  0  0  0
  141.6820   80.8800  222.0150 C   0  0  0  0  0  0  0  0  0  0  0  0
  141.4670   80.3350  223.3950 C   0  0  0  0  0  0  0  0  0  0  0  0
  140.3300   79.3550  223.5010 C   0  0  1  0  0  0  0  0  0  0  0  0
  139.0550   80.1010  223.4200 C   0  0  0  0  0  0  0  0  0  0  0  0
  138.4150   80.4170  222.2460 C   0  0  0  0  0  0  0  0  0  0  0  0
  137.2230   81.1280  222.2710 C   0  0  0  0  0  0  0  0  0  0  0  0
  136.6470   81.5360  223.4700 C   0  0  0  0  0  0  0  0  0  0  0  0
  137.2880   81.2200  224.6540 C   0  0  0  0  0  0  0  0  0  0  0  0
  136.6340   81.6950  226.2210 Cl  0  0  0  0  0  0  0  0  0  0  0  0
  138.4710   80.5140  224.6190 C   0  0  0  0  0  0  0  0  0  0  0  0
  139.9650   72.3760  222.6370 C   0  0  0  0  0  0  0  0  0  0  0  0
  139.3240   71.3180  222.0110 C   0  0  0  0  0  0  0  0  0  0  0  0
  139.1020   70.1570  222.7210 C   0  0  0  0  0  0  0  0  0  0  0  0
  139.5080   70.0380  224.0350 C   0  0  0  0  0  0  0  0  0  0  0  0
  139.3070   68.8960  224.7830 C   0  0  0  0  0  0  0  0  0  0  0  0
  139.7110   68.7700  226.0960 C   0  0  0  0  0  0  0  0  0  0  0  0
  140.3530   69.8710  226.6720 C   0  0  0  0  0  0  0  0  0  0  0  0
  140.5650   71.0370  225.9290 C   0  0  0  0  0  0  0  0  0  0  0  0
  140.1510   71.1370  224.6150 C   0  0  0  0  0  0  0  0  0  0  0  0
  140.3640   72.2670  223.9160 N   0  0  0  0  0  0  0  0  0  0  0  0
  139.0950   74.8050  223.2270 H   0  0  0  0  0  0  0  0  0  0  0  0
  140.9244   76.0589  221.2547 H   0  0  0  0  0  0  0  0  0  0  0  0
  139.2029   76.0016  220.6844 H   0  0  0  0  0  0  0  0  0  0  0  0
  142.5047   78.1769  222.1367 H   0  0  0  0  0  0  0  0  0  0  0  0
  141.4016   77.7400  220.7488 H   0  0  0  0  0  0  0  0  0  0  0  0
  142.7410   79.8467  220.4999 H   0  0  0  0  0  0  0  0  0  0  0  0
  140.9363   79.9535  220.2800 H   0  0  0  0  0  0  0  0  0  0  0  0
  142.6230   81.4495  222.0005 H   0  0  0  0  0  0  0  0  0  0  0  0
  140.8248   81.5226  221.7655 H   0  0  0  0  0  0  0  0  0  0  0  0
  142.3900   79.8283  223.7135 H   0  0  0  0  0  0  0  0  0  0  0  0
  141.2076   81.1906  224.0359 H   0  0  0  0  0  0  0  0  0  0  0  0
  140.3483   78.8303  224.4676 H   0  0  0  0  0  0  0  0  0  0  0  0
  138.8482   80.1058  221.2840 H   0  0  0  0  0  0  0  0  0  0  0  0
  136.7231   81.3741  221.3225 H   0  0  0  0  0  0  0  0  0  0  0  0
  135.7015   82.0982  223.4761 H   0  0  0  0  0  0  0  0  0  0  0  0
  138.9717   80.2677  225.5670 H   0  0  0  0  0  0  0  0  0  0  0  0
  138.9976   71.4034  220.9640 H   0  0  0  0  0  0  0  0  0  0  0  0
  138.5935   69.3126  222.2328 H   0  0  0  0  0  0  0  0  0  0  0  0
  138.7992   68.0434  224.3085 H   0  0  0  0  0  0  0  0  0  0  0  0
  139.5360   67.8448  226.6646 H   0  0  0  0  0  0  0  0  0  0  0  0
  140.6936   69.8196  227.7167 H   0  0  0  0  0  0  0  0  0  0  0  0
  141.0718   71.8918  226.4007 H   0  0  0  0  0  0  0  0  0  0  0  0
  1  2  2  0
  2  3  1  0
  3  4  1  0
  4  5  1  0
  5  6  2  0
  5  7  1  0
  7  8  1  0
  8  9  1  0
  9 10  1  0
 10 11  1  0
 11 12  1  0
 12 13  1  0
 13 14  2  0
 14 15  1  0
 15 16  2  0
 16 17  1  0
 17 18  1  0
 17 19  2  0
  2 20  1  0
 20 21  2  0
 21 22  1  0
 22 23  2  0
 23 24  1  0
 24 25  2  0
 25 26  1  0
 26 27  2  0
 27 28  1  0
 28 29  2  0
 12  7  1  0
 19 13  1  0
 29 20  1  0
 28 23  1  0
  3 30  1  0
  4 31  1  0
  4 32  1  0
  8 33  1  0
  8 34  1  0
  9 35  1  0
  9 36  1  0
 10 37  1  0
 10 38  1  0
 11 39  1  0
 11 40  1  0
 12 41  1  1
 14 42  1  0
 15 43  1  0
 16 44  1  0
 19 45  1  0
 21 46  1  0
 22 47  1  0
 24 48  1  0
 25 49  1  0
 26 50  1  0
 27 51  1  0
M  END
>  <smiles>  (61) 
O=C(NCC(=O)N1CCCCC1c1cccc(Cl)c1)c1ccc2ccccc2n1

>  <score_type>  (61) 
oracle

>  <origin>  (61) 
autodockgpu

>  <m_score__min__energy>  (61) 
-9.2300000000000004

>  <m_primary>  (61) 
energy

>  <rmsd>  (61) 
3.858451051963818

>  <m_score__min__rmsd>  (61) 
3.858451051963818

>  <meeko>  (61) 
{"free_energy": -8.28, "intermolecular_energy": -9.77, "internal_energy": -1.48, "cluster_size": 1, "cluster_id": 6, "rank_in_cluster": 1}

>  <energy>  (61) 
-8.84

>  <cluster_rmsd>  (61) 
0.74

>  <cluster>  (61) 
1

$$$$

     RDKit          3D

 51 54  0  0  0  0  0  0  0  0999 V2000
  138.7580   75.3190  221.9110 O   0  0  0  0  0  0  0  0  0  0  0  0
  139.9490   75.7540  222.0610 C   0  0  0  0  0  0  0  0  0  0  0  0
  141.0680   74.8790  221.8610 N   0  0  0  0  0  0  0  0  0  0  0  0
  140.8020   73.5090  221.4910 C   0  0  0  0  0  0  0  0  0  0  0  0
  141.6970   73.0480  220.4140 C   0  0  0  0  0  0  0  0  0  0  0  0
  141.1950   72.5000  219.4010 O   0  0  0  0  0  0  0  0  0  0  0  0
  143.1060   73.1830  220.4440 N   0  0  0  0  0  0  0  0  0  0  0  0
  143.9180   71.9850  220.3720 C   0  0  0  0  0  0  0  0  0  0  0  0
  145.0180   72.0750  219.3640 C   0  0  0  0  0  0  0  0  0  0  0  0
  145.7920   73.3460  219.4670 C   0  0  0  0  0  0  0  0  0  0  0  0
  145.2850   74.2240  220.5710 C   0  0  0  0  0  0  0  0  0  0  0  0
  143.7980   74.4500  220.5460 C   0  0  1  0  0  0  0  0  0  0  0  0
  143.4810   75.3800  219.4400 C   0  0  0  0  0  0  0  0  0  0  0  0
  143.7220   75.1180  218.1130 C   0  0  0  0  0  0  0  0  0  0  0  0
  143.3960   76.0590  217.1460 C   0  0  0  0  0  0  0  0  0  0  0  0
  142.8220   77.2790  217.4860 C   0  0  0  0  0  0  0  0  0  0  0  0
  142.5760   77.5470  218.8210 C   0  0  0  0  0  0  0  0  0  0  0  0
  141.8520   79.0650  219.3470 Cl  0  0  0  0  0  0  0  0  0  0  0  0
  142.9040   76.6070  219.7730 C   0  0  0  0  0  0  0  0  0  0  0  0
  140.2010   77.1520  222.4360 C   0  0  0  0  0  0  0  0  0  0  0  0
  139.1070   77.9800  222.6320 C   0  0  0  0  0  0  0  0  0  0  0  0
  139.3180   79.2960  222.9860 C   0  0  0  0  0  0  0  0  0  0  0  0
  140.5960   79.7920  223.1480 C   0  0  0  0  0  0  0  0  0  0  0  0
  140.8550   81.1000  223.5000 C   0  0  0  0  0  0  0  0  0  0  0  0
  142.1300   81.6030  223.6640 C   0  0  0  0  0  0  0  0  0  0  0  0
  143.1930   80.7190  223.4530 C   0  0  0  0  0  0  0  0  0  0  0  0
  142.9490   79.3890  223.0940 C   0  0  0  0  0  0  0  0  0  0  0  0
  141.6630   78.9110  222.9380 C   0  0  0  0  0  0  0  0  0  0  0  0
  141.4490   77.6280  222.5920 N   0  0  0  0  0  0  0  0  0  0  0  0
  142.0210   75.2810  221.9950 H   0  0  0  0  0  0  0  0  0  0  0  0
  140.9468   72.8677  222.3729 H   0  0  0  0  0  0  0  0  0  0  0  0
  139.7669   73.4494  221.1237 H   0  0  0  0  0  0  0  0  0  0  0  0
  144.3648   71.8063  221.3611 H   0  0  0  0  0  0  0  0  0  0  0  0
  143.2575   71.1624  220.0603 H   0  0  0  0  0  0  0  0  0  0  0  0
  145.7061   71.2307  219.5180 H   0  0  0  0  0  0  0  0  0  0  0  0
  144.5565   72.0475  218.3659 H   0  0  0  0  0  0  0  0  0  0  0  0
  146.8474   73.1044  219.6616 H   0  0  0  0  0  0  0  0  0  0  0  0
  145.6771   73.8917  218.5188 H   0  0  0  0  0  0  0  0  0  0  0  0
  145.5467   73.7561  221.5315 H   0  0  0  0  0  0  0  0  0  0  0  0
  145.7565   75.2083  220.4337 H   0  0  0  0  0  0  0  0  0  0  0  0
  143.4523   74.9136  221.4817 H   0  0  0  0  0  0  0  0  0  0  0  0
  144.1744   74.1603  217.8162 H   0  0  0  0  0  0  0  0  0  0  0  0
  143.5961   75.8347  216.0879 H   0  0  0  0  0  0  0  0  0  0  0  0
  142.5687   78.0159  216.7096 H   0  0  0  0  0  0  0  0  0  0  0  0
  142.7046   76.8306  220.8314 H   0  0  0  0  0  0  0  0  0  0  0  0
  138.0850   77.5930  222.5070 H   0  0  0  0  0  0  0  0  0  0  0  0
  138.4552   79.9603  223.1416 H   0  0  0  0  0  0  0  0  0  0  0  0
  140.0024   81.7768  223.6581 H   0  0  0  0  0  0  0  0  0  0  0  0
  142.3022   82.6517  223.9478 H   0  0  0  0  0  0  0  0  0  0  0  0
  144.2282   81.0719  223.5701 H   0  0  0  0  0  0  0  0  0  0  0  0
  143.7993   78.7100  222.9326 H   0  0  0  0  0  0  0  0  0  0  0  0
  1  2  2  0
  2  3  1  0
  3  4  1  0
  4  5  1  0
  5  6  2  0
  5  7  1  0
  7  8  1  0
  8  9  1  0
  9 10  1  0
 10 11  1  0
 11 12  1  0
 12 13  1  0
 13 14  2  0
 14 15  1  0
 15 16  2  0
 16 17  1  0
 17 18  1  0
 17 19  2  0
  2 20  1  0
 20 21  2  0
 21 22  1  0
 22 23  2  0
 23 24  1  0
 24 25  2  0
 25 26  1  0
 26 27  2  0
 27 28  1  0
 28 29  2  0
 12  7  1  0
 19 13  1  0
 29 20  1  0
 28 23  1  0
  3 30  1  0
  4 31  1  0
  4 32  1  0
  8 33  1  0
  8 34  1  0
  9 35  1  0
  9 36  1  0
 10 37  1  0
 10 38  1  0
 11 39  1  0
 11 40  1  0
 12 41  1  1
 14 42  1  0
 15 43  1  0
 16 44  1  0
 19 45  1  0
 21 46  1  0
 22 47  1  0
 24 48  1  0
 25 49  1  0
 26 50  1  0
 27 51  1  0
M  END
>  <smiles>  (62) 
O=C(NCC(=O)N1CCCCC1c1cccc(Cl)c1)c1ccc2ccccc2n1

>  <score_type>  (62) 
oracle

>  <origin>  (62) 
autodockgpu

>  <m_score__min__energy>  (62) 
-9.2300000000000004

>  <m_primary>  (62) 
energy

>  <rmsd>  (62) 
7.742951514909408

>  <m_score__min__rmsd>  (62) 
7.742951514909408

>  <meeko>  (62) 
{"free_energy": -7.94, "intermolecular_energy": -9.43, "internal_energy": -2.63, "cluster_size": 7, "cluster_id": 7, "rank_in_cluster": 1}

>  <energy>  (62) 
-8.73

>  <cluster_rmsd>  (62) 
1.11

>  <cluster>  (62) 
1

$$$$

     RDKit          3D

 51 54  0  0  0  0  0  0  0  0999 V2000
  141.3350   72.3830  221.3780 O   0  0  0  0  0  0  0  0  0  0  0  0
  140.4490   72.6660  222.2530 C   0  0  0  0  0  0  0  0  0  0  0  0
  139.6730   73.8660  222.1320 N   0  0  0  0  0  0  0  0  0  0  0  0
  139.9260   74.7290  221.0020 C   0  0  0  0  0  0  0  0  0  0  0  0
  139.2460   76.0290  221.1410 C   0  0  0  0  0  0  0  0  0  0  0  0
  137.9920   76.0700  221.0540 O   0  0  0  0  0  0  0  0  0  0  0  0
  139.9180   77.2540  221.3700 N   0  0  0  0  0  0  0  0  0  0  0  0
  140.0390   77.7320  222.7330 C   0  0  0  0  0  0  0  0  0  0  0  0
  141.4270   78.1540  223.0920 C   0  0  0  0  0  0  0  0  0  0  0  0
  142.0440   79.0410  222.0640 C   0  0  0  0  0  0  0  0  0  0  0  0
  141.1130   79.3070  220.9200 C   0  0  0  0  0  0  0  0  0  0  0  0
  140.4970   78.0700  220.3260 C   0  0  1  0  0  0  0  0  0  0  0  0
  141.5270   77.3630  219.5340 C   0  0  0  0  0  0  0  0  0  0  0  0
  141.7810   77.5990  218.2040 C   0  0  0  0  0  0  0  0  0  0  0  0
  142.7670   76.8780  217.5440 C   0  0  0  0  0  0  0  0  0  0  0  0
  143.5180   75.9090  218.1990 C   0  0  0  0  0  0  0  0  0  0  0  0
  143.2670   75.6690  219.5380 C   0  0  0  0  0  0  0  0  0  0  0  0
  144.1690   74.4600  220.4510 Cl  0  0  0  0  0  0  0  0  0  0  0  0
  142.2870   76.3890  220.1850 C   0  0  0  0  0  0  0  0  0  0  0  0
  140.2040   71.7760  223.3960 C   0  0  0  0  0  0  0  0  0  0  0  0
  139.4420   70.6380  223.1810 C   0  0  0  0  0  0  0  0  0  0  0  0
  139.1990   69.7870  224.2390 C   0  0  0  0  0  0  0  0  0  0  0  0
  139.7030   70.0520  225.4960 C   0  0  0  0  0  0  0  0  0  0  0  0
  139.4850   69.2300  226.5820 C   0  0  0  0  0  0  0  0  0  0  0  0
  139.9860   69.4890  227.8410 C   0  0  0  0  0  0  0  0  0  0  0  0
  140.7490   70.6520  227.9950 C   0  0  0  0  0  0  0  0  0  0  0  0
  140.9790   71.4980  226.9050 C   0  0  0  0  0  0  0  0  0  0  0  0
  140.4660   71.2150  225.6540 C   0  0  0  0  0  0  0  0  0  0  0  0
  140.6990   72.0410  224.6180 N   0  0  0  0  0  0  0  0  0  0  0  0
  138.9610   74.0530  222.8710 H   0  0  0  0  0  0  0  0  0  0  0  0
  141.0095   74.9011  220.9214 H   0  0  0  0  0  0  0  0  0  0  0  0
  139.5352   74.2342  220.1006 H   0  0  0  0  0  0  0  0  0  0  0  0
  139.3681   78.5942  222.8612 H   0  0  0  0  0  0  0  0  0  0  0  0
  139.7718   76.8957  223.3958 H   0  0  0  0  0  0  0  0  0  0  0  0
  141.3936   78.6951  224.0491 H   0  0  0  0  0  0  0  0  0  0  0  0
  142.0432   77.2453  223.1591 H   0  0  0  0  0  0  0  0  0  0  0  0
  142.3105   79.9987  222.5350 H   0  0  0  0  0  0  0  0  0  0  0  0
  142.9342   78.5319  221.6662 H   0  0  0  0  0  0  0  0  0  0  0  0
  140.3022   79.9578  221.2792 H   0  0  0  0  0  0  0  0  0  0  0  0
  141.7138   79.7737  220.1255 H   0  0  0  0  0  0  0  0  0  0  0  0
  139.6717   78.3272  219.6458 H   0  0  0  0  0  0  0  0  0  0  0  0
  141.2019   78.3607  217.6613 H   0  0  0  0  0  0  0  0  0  0  0  0
  142.9580   77.0780  216.4793 H   0  0  0  0  0  0  0  0  0  0  0  0
  144.2958   75.3447  217.6637 H   0  0  0  0  0  0  0  0  0  0  0  0
  142.0967   76.1901  221.2500 H   0  0  0  0  0  0  0  0  0  0  0  0
  139.0375   70.4171  222.1822 H   0  0  0  0  0  0  0  0  0  0  0  0
  138.5938   68.8827  224.0782 H   0  0  0  0  0  0  0  0  0  0  0  0
  138.8812   68.3221  226.4368 H   0  0  0  0  0  0  0  0  0  0  0  0
  139.7943   68.8116  228.6862 H   0  0  0  0  0  0  0  0  0  0  0  0
  141.1706   70.9025  228.9796 H   0  0  0  0  0  0  0  0  0  0  0  0
  141.5810   72.4077  227.0470 H   0  0  0  0  0  0  0  0  0  0  0  0
  1  2  2  0
  2  3  1  0
  3  4  1  0
  4  5  1  0
  5  6  2  0
  5  7  1  0
  7  8  1  0
  8  9  1  0
  9 10  1  0
 10 11  1  0
 11 12  1  0
 12 13  1  0
 13 14  2  0
 14 15  1  0
 15 16  2  0
 16 17  1  0
 17 18  1  0
 17 19  2  0
  2 20  1  0
 20 21  2  0
 21 22  1  0
 22 23  2  0
 23 24  1  0
 24 25  2  0
 25 26  1  0
 26 27  2  0
 27 28  1  0
 28 29  2  0
 12  7  1  0
 19 13  1  0
 29 20  1  0
 28 23  1  0
  3 30  1  0
  4 31  1  0
  4 32  1  0
  8 33  1  0
  8 34  1  0
  9 35  1  0
  9 36  1  0
 10 37  1  0
 10 38  1  0
 11 39  1  0
 11 40  1  0
 12 41  1  6
 14 42  1  0
 15 43  1  0
 16 44  1  0
 19 45  1  0
 21 46  1  0
 22 47  1  0
 24 48  1  0
 25 49  1  0
 26 50  1  0
 27 51  1  0
M  END
>  <smiles>  (63) 
O=C(NCC(=O)N1CCCCC1c1cccc(Cl)c1)c1ccc2ccccc2n1

>  <score_type>  (63) 
oracle

>  <origin>  (63) 
autodockgpu

>  <m_score__min__energy>  (63) 
-9.2300000000000004

>  <m_primary>  (63) 
energy

>  <rmsd>  (63) 
3.1032939645854514

>  <m_score__min__rmsd>  (63) 
3.1032939645854514

>  <meeko>  (63) 
{"free_energy": -8.41, "intermolecular_energy": -9.9, "internal_energy": -1.58, "cluster_size": 1, "cluster_id": 5, "rank_in_cluster": 1}

>  <energy>  (63) 
-8.48

>  <cluster_rmsd>  (63) 
0.92

>  <cluster>  (63) 
1

$$$$

     RDKit          3D

 51 54  0  0  0  0  0  0  0  0999 V2000
  140.6630   77.1600  218.2400 O   0  0  0  0  0  0  0  0  0  0  0  0
  141.8870   77.1760  218.6020 C   0  0  0  0  0  0  0  0  0  0  0  0
  142.5760   78.4250  218.7590 N   0  0  0  0  0  0  0  0  0  0  0  0
  141.8450   79.6430  218.4980 C   0  0  0  0  0  0  0  0  0  0  0  0
  141.0880   80.0930  219.6800 C   0  0  0  0  0  0  0  0  0  0  0  0
  139.8960   80.4630  219.5320 O   0  0  0  0  0  0  0  0  0  0  0  0
  141.6200   80.1370  220.9910 N   0  0  0  0  0  0  0  0  0  0  0  0
  141.8180   81.4300  221.6140 C   0  0  0  0  0  0  0  0  0  0  0  0
  141.2710   81.5090  223.0030 C   0  0  0  0  0  0  0  0  0  0  0  0
  141.6660   80.3450  223.8460 C   0  0  0  0  0  0  0  0  0  0  0  0
  142.5340   79.3790  223.0970 C   0  0  0  0  0  0  0  0  0  0  0  0
  141.9850   78.9660  221.7580 C   0  0  1  0  0  0  0  0  0  0  0  0
  140.8580   78.0340  221.9780 C   0  0  0  0  0  0  0  0  0  0  0  0
  139.6050   78.4180  222.3940 C   0  0  0  0  0  0  0  0  0  0  0  0
  138.6110   77.4660  222.5790 C   0  0  0  0  0  0  0  0  0  0  0  0
  138.8480   76.1150  222.3520 C   0  0  0  0  0  0  0  0  0  0  0  0
  140.1070   75.7250  221.9310 C   0  0  0  0  0  0  0  0  0  0  0  0
  140.5010   74.0360  221.6180 Cl  0  0  0  0  0  0  0  0  0  0  0  0
  141.0870   76.6760  221.7510 C   0  0  0  0  0  0  0  0  0  0  0  0
  142.6140   75.9280  218.8650 C   0  0  0  0  0  0  0  0  0  0  0  0
  142.2080   74.7850  218.1940 C   0  0  0  0  0  0  0  0  0  0  0  0
  142.8760   73.6010  218.4240 C   0  0  0  0  0  0  0  0  0  0  0  0
  143.9360   73.5420  219.3060 C   0  0  0  0  0  0  0  0  0  0  0  0
  144.6330   72.3810  219.5680 C   0  0  0  0  0  0  0  0  0  0  0  0
  145.6940   72.3150  220.4480 C   0  0  0  0  0  0  0  0  0  0  0  0
  146.0570   73.5010  221.0940 C   0  0  0  0  0  0  0  0  0  0  0  0
  145.3620   74.6880  220.8420 C   0  0  0  0  0  0  0  0  0  0  0  0
  144.3030   74.7270  219.9550 C   0  0  0  0  0  0  0  0  0  0  0  0
  143.6470   75.8780  219.7260 N   0  0  0  0  0  0  0  0  0  0  0  0
  143.5750   78.3870  219.0570 H   0  0  0  0  0  0  0  0  0  0  0  0
  142.5571   80.4306  218.2106 H   0  0  0  0  0  0  0  0  0  0  0  0
  141.1271   79.4433  217.6888 H   0  0  0  0  0  0  0  0  0  0  0  0
  142.8976   81.6372  221.6520 H   0  0  0  0  0  0  0  0  0  0  0  0
  141.2741   82.1695  221.0079 H   0  0  0  0  0  0  0  0  0  0  0  0
  141.6450   82.4288  223.4763 H   0  0  0  0  0  0  0  0  0  0  0  0
  140.1736   81.5063  222.9276 H   0  0  0  0  0  0  0  0  0  0  0  0
  142.2186   80.7128  224.7231 H   0  0  0  0  0  0  0  0  0  0  0  0
  140.7495   79.8162  224.1466 H   0  0  0  0  0  0  0  0  0  0  0  0
  143.5154   79.8495  222.9372 H   0  0  0  0  0  0  0  0  0  0  0  0
  142.5930   78.4670  223.7092 H   0  0  0  0  0  0  0  0  0  0  0  0
  142.7440   78.4359  221.1640 H   0  0  0  0  0  0  0  0  0  0  0  0
  139.3897   79.4805  222.5805 H   0  0  0  0  0  0  0  0  0  0  0  0
  137.6136   77.7881  222.9127 H   0  0  0  0  0  0  0  0  0  0  0  0
  138.0514   75.3718  222.5039 H   0  0  0  0  0  0  0  0  0  0  0  0
  142.0844   76.3542  221.4169 H   0  0  0  0  0  0  0  0  0  0  0  0
  141.3651   74.8221  217.4882 H   0  0  0  0  0  0  0  0  0  0  0  0
  142.5593   72.6893  217.8964 H   0  0  0  0  0  0  0  0  0  0  0  0
  144.3275   71.4605  219.0489 H   0  0  0  0  0  0  0  0  0  0  0  0
  146.2298   71.3723  220.6329 H   0  0  0  0  0  0  0  0  0  0  0  0
  146.8957   73.5002  221.8058 H   0  0  0  0  0  0  0  0  0  0  0  0
  145.6645   75.6098  221.3605 H   0  0  0  0  0  0  0  0  0  0  0  0
  1  2  2  0
  2  3  1  0
  3  4  1  0
  4  5  1  0
  5  6  2  0
  5  7  1  0
  7  8  1  0
  8  9  1  0
  9 10  1  0
 10 11  1  0
 11 12  1  0
 12 13  1  0
 13 14  2  0
 14 15  1  0
 15 16  2  0
 16 17  1  0
 17 18  1  0
 17 19  2  0
  2 20  1  0
 20 21  2  0
 21 22  1  0
 22 23  2  0
 23 24  1  0
 24 25  2  0
 25 26  1  0
 26 27  2  0
 27 28  1  0
 28 29  2  0
 12  7  1  0
 19 13  1  0
 29 20  1  0
 28 23  1  0
  3 30  1  0
  4 31  1  0
  4 32  1  0
  8 33  1  0
  8 34  1  0
  9 35  1  0
  9 36  1  0
 10 37  1  0
 10 38  1  0
 11 39  1  0
 11 40  1  0
 12 41  1  6
 14 42  1  0
 15 43  1  0
 16 44  1  0
 19 45  1  0
 21 46  1  0
 22 47  1  0
 24 48  1  0
 25 49  1  0
 26 50  1  0
 27 51  1  0
M  END
>  <smiles>  (64) 
O=C(NCC(=O)N1CCCCC1c1cccc(Cl)c1)c1ccc2ccccc2n1

>  <score_type>  (64) 
oracle

>  <origin>  (64) 
autodockgpu

>  <m_score__min__energy>  (64) 
-9.2300000000000004

>  <m_primary>  (64) 
energy

>  <rmsd>  (64) 
7.664796792651378

>  <m_score__min__rmsd>  (64) 
7.664796792651378

>  <meeko>  (64) 
{"free_energy": -7.4, "intermolecular_energy": -8.89, "internal_energy": -2.86, "cluster_size": 1, "cluster_id": 8, "rank_in_cluster": 1}

>  <energy>  (64) 
-8.41

>  <cluster_rmsd>  (64) 
0.89

>  <cluster>  (64) 
1

$$$$

     RDKit          3D

 51 54  0  0  0  0  0  0  0  0999 V2000
  141.1410   72.0160  221.5860 O   0  0  0  0  0  0  0  0  0  0  0  0
  140.2420   72.2390  222.4660 C   0  0  0  0  0  0  0  0  0  0  0  0
  139.2860   73.2890  222.2690 N   0  0  0  0  0  0  0  0  0  0  0  0
  139.3750   74.0740  221.0600 C   0  0  0  0  0  0  0  0  0  0  0  0
  140.5640   74.9450  221.0580 C   0  0  0  0  0  0  0  0  0  0  0  0
  141.0480   75.3130  222.1580 O   0  0  0  0  0  0  0  0  0  0  0  0
  141.2090   75.4020  219.8820 N   0  0  0  0  0  0  0  0  0  0  0  0
  141.4950   76.8170  219.7570 C   0  0  0  0  0  0  0  0  0  0  0  0
  142.9000   77.1020  219.3330 C   0  0  0  0  0  0  0  0  0  0  0  0
  143.3310   76.2730  218.1710 C   0  0  0  0  0  0  0  0  0  0  0  0
  142.2410   75.3600  217.6970 C   0  0  0  0  0  0  0  0  0  0  0  0
  141.6020   74.5430  218.7870 C   0  0  1  0  0  0  0  0  0  0  0  0
  142.5440   73.4760  219.1900 C   0  0  0  0  0  0  0  0  0  0  0  0
  142.3920   72.1470  218.8710 C   0  0  0  0  0  0  0  0  0  0  0  0
  143.3280   71.2160  219.3010 C   0  0  0  0  0  0  0  0  0  0  0  0
  144.4330   71.5930  220.0570 C   0  0  0  0  0  0  0  0  0  0  0  0
  144.5900   72.9300  220.3790 C   0  0  0  0  0  0  0  0  0  0  0  0
  145.9570   73.5020  221.3320 Cl  0  0  0  0  0  0  0  0  0  0  0  0
  143.6560   73.8460  219.9480 C   0  0  0  0  0  0  0  0  0  0  0  0
  140.1650   71.4300  223.6890 C   0  0  0  0  0  0  0  0  0  0  0  0
  139.5650   70.1830  223.6070 C   0  0  0  0  0  0  0  0  0  0  0  0
  139.4820   69.4050  224.7430 C   0  0  0  0  0  0  0  0  0  0  0  0
  139.9860   69.8500  225.9490 C   0  0  0  0  0  0  0  0  0  0  0  0
  139.9240   69.1080  227.1100 C   0  0  0  0  0  0  0  0  0  0  0  0
  140.4260   69.5460  228.3180 C   0  0  0  0  0  0  0  0  0  0  0  0
  141.0200   70.8120  228.3370 C   0  0  0  0  0  0  0  0  0  0  0  0
  141.0910   71.5800  227.1700 C   0  0  0  0  0  0  0  0  0  0  0  0
  140.5810   71.1170  225.9720 C   0  0  0  0  0  0  0  0  0  0  0  0
  140.6580   71.8700  224.8600 N   0  0  0  0  0  0  0  0  0  0  0  0
  138.5710   73.4320  223.0150 H   0  0  0  0  0  0  0  0  0  0  0  0
  139.4307   73.3938  220.1973 H   0  0  0  0  0  0  0  0  0  0  0  0
  138.4825   74.7144  221.0022 H   0  0  0  0  0  0  0  0  0  0  0  0
  140.8111   77.2466  219.0102 H   0  0  0  0  0  0  0  0  0  0  0  0
  141.3579   77.2658  220.7519 H   0  0  0  0  0  0  0  0  0  0  0  0
  142.9749   78.1636  219.0547 H   0  0  0  0  0  0  0  0  0  0  0  0
  143.5583   76.8552  220.1790 H   0  0  0  0  0  0  0  0  0  0  0  0
  143.6187   76.9409  217.3457 H   0  0  0  0  0  0  0  0  0  0  0  0
  144.1788   75.6508  218.4937 H   0  0  0  0  0  0  0  0  0  0  0  0
  141.4602   75.9725  217.2224 H   0  0  0  0  0  0  0  0  0  0  0  0
  142.7067   74.6475  217.0002 H   0  0  0  0  0  0  0  0  0  0  0  0
  140.6810   74.0582  218.4311 H   0  0  0  0  0  0  0  0  0  0  0  0
  141.5274   71.8210  218.2742 H   0  0  0  0  0  0  0  0  0  0  0  0
  143.1927   70.1565  219.0379 H   0  0  0  0  0  0  0  0  0  0  0  0
  145.1664   70.8447  220.3918 H   0  0  0  0  0  0  0  0  0  0  0  0
  143.7912   74.9057  220.2102 H   0  0  0  0  0  0  0  0  0  0  0  0
  139.1612   69.8195  222.6505 H   0  0  0  0  0  0  0  0  0  0  0  0
  139.0068   68.4145  224.6873 H   0  0  0  0  0  0  0  0  0  0  0  0
  139.4500   68.1162  227.0707 H   0  0  0  0  0  0  0  0  0  0  0  0
  140.3620   68.9274  229.2253 H   0  0  0  0  0  0  0  0  0  0  0  0
  141.4344   71.2067  229.2764 H   0  0  0  0  0  0  0  0  0  0  0  0
  141.5626   72.5731  227.2067 H   0  0  0  0  0  0  0  0  0  0  0  0
  1  2  2  0
  2  3  1  0
  3  4  1  0
  4  5  1  0
  5  6  2  0
  5  7  1  0
  7  8  1  0
  8  9  1  0
  9 10  1  0
 10 11  1  0
 11 12  1  0
 12 13  1  0
 13 14  2  0
 14 15  1  0
 15 16  2  0
 16 17  1  0
 17 18  1  0
 17 19  2  0
  2 20  1  0
 20 21  2  0
 21 22  1  0
 22 23  2  0
 23 24  1  0
 24 25  2  0
 25 26  1  0
 26 27  2  0
 27 28  1  0
 28 29  2  0
 12  7  1  0
 19 13  1  0
 29 20  1  0
 28 23  1  0
  3 30  1  0
  4 31  1  0
  4 32  1  0
  8 33  1  0
  8 34  1  0
  9 35  1  0
  9 36  1  0
 10 37  1  0
 10 38  1  0
 11 39  1  0
 11 40  1  0
 12 41  1  6
 14 42  1  0
 15 43  1  0
 16 44  1  0
 19 45  1  0
 21 46  1  0
 22 47  1  0
 24 48  1  0
 25 49  1  0
 26 50  1  0
 27 51  1  0
M  END
>  <smiles>  (65) 
O=C(NCC(=O)N1CCCCC1c1cccc(Cl)c1)c1ccc2ccccc2n1

>  <score_type>  (65) 
oracle

>  <origin>  (65) 
autodockgpu

>  <m_score__min__energy>  (65) 
-9.2300000000000004

>  <m_primary>  (65) 
energy

>  <rmsd>  (65) 
2.1449307100073303

>  <m_score__min__rmsd>  (65) 
2.1449307100073303

>  <meeko>  (65) 
{"free_energy": -8.62, "intermolecular_energy": -10.11, "internal_energy": -1.9, "cluster_size": 21, "cluster_id": 2, "rank_in_cluster": 18}

>  <energy>  (65) 
-8.33

>  <cluster_rmsd>  (65) 
1.17

>  <cluster>  (65) 
1

$$$$

     RDKit          3D

 51 54  0  0  0  0  0  0  0  0999 V2000
  138.7220   75.2380  221.8970 O   0  0  0  0  0  0  0  0  0  0  0  0
  139.9040   75.6980  222.0400 C   0  0  0  0  0  0  0  0  0  0  0  0
  141.0390   74.8440  221.8450 N   0  0  0  0  0  0  0  0  0  0  0  0
  140.8000   73.4660  221.4860 C   0  0  0  0  0  0  0  0  0  0  0  0
  141.7270   73.0030  220.4370 C   0  0  0  0  0  0  0  0  0  0  0  0
  141.2570   72.4180  219.4290 O   0  0  0  0  0  0  0  0  0  0  0  0
  143.1310   73.1750  220.4900 N   0  0  0  0  0  0  0  0  0  0  0  0
  143.9750   71.9970  220.4450 C   0  0  0  0  0  0  0  0  0  0  0  0
  145.0900   72.1040  219.4550 C   0  0  0  0  0  0  0  0  0  0  0  0
  145.8290   73.3960  219.5560 C   0  0  0  0  0  0  0  0  0  0  0  0
  145.2800   74.2730  220.6410 C   0  0  0  0  0  0  0  0  0  0  0  0
  143.7880   74.4600  220.5880 C   0  0  1  0  0  0  0  0  0  0  0  0
  143.4660   75.3690  219.4660 C   0  0  0  0  0  0  0  0  0  0  0  0
  143.7080   75.0850  218.1430 C   0  0  0  0  0  0  0  0  0  0  0  0
  143.3760   76.0070  217.1600 C   0  0  0  0  0  0  0  0  0  0  0  0
  142.7970   77.2300  217.4790 C   0  0  0  0  0  0  0  0  0  0  0  0
  142.5510   77.5210  218.8090 C   0  0  0  0  0  0  0  0  0  0  0  0
  141.8210   79.0450  219.3090 Cl  0  0  0  0  0  0  0  0  0  0  0  0
  142.8840   76.5990  219.7780 C   0  0  0  0  0  0  0  0  0  0  0  0
  140.1290   77.1040  222.4030 C   0  0  0  0  0  0  0  0  0  0  0  0
  139.0190   77.9170  222.5710 C   0  0  0  0  0  0  0  0  0  0  0  0
  139.2050   79.2400  222.9130 C   0  0  0  0  0  0  0  0  0  0  0  0
  140.4730   79.7570  223.0900 C   0  0  0  0  0  0  0  0  0  0  0  0
  140.7070   81.0730  223.4310 C   0  0  0  0  0  0  0  0  0  0  0  0
  141.9710   81.5970  223.6100 C   0  0  0  0  0  0  0  0  0  0  0  0
  143.0510   80.7270  223.4280 C   0  0  0  0  0  0  0  0  0  0  0  0
  142.8330   79.3890  223.0810 C   0  0  0  0  0  0  0  0  0  0  0  0
  141.5560   78.8900  222.9090 C   0  0  0  0  0  0  0  0  0  0  0  0
  141.3670   77.6010  222.5750 N   0  0  0  0  0  0  0  0  0  0  0  0
  141.9850   75.2660  221.9720 H   0  0  0  0  0  0  0  0  0  0  0  0
  140.9313   72.8377  222.3793 H   0  0  0  0  0  0  0  0  0  0  0  0
  139.7751   73.3884  221.0941 H   0  0  0  0  0  0  0  0  0  0  0  0
  144.4090   71.8404  221.4436 H   0  0  0  0  0  0  0  0  0  0  0  0
  143.3411   71.1547  220.1309 H   0  0  0  0  0  0  0  0  0  0  0  0
  145.7969   71.2798  219.6310 H   0  0  0  0  0  0  0  0  0  0  0  0
  144.6469   72.0529  218.4495 H   0  0  0  0  0  0  0  0  0  0  0  0
  146.8867   73.1844  219.7714 H   0  0  0  0  0  0  0  0  0  0  0  0
  145.7167   73.9276  218.5996 H   0  0  0  0  0  0  0  0  0  0  0  0
  145.5369   73.8229  221.6113 H   0  0  0  0  0  0  0  0  0  0  0  0
  145.7282   75.2677  220.5002 H   0  0  0  0  0  0  0  0  0  0  0  0
  143.4143   74.9253  221.5121 H   0  0  0  0  0  0  0  0  0  0  0  0
  144.1658   74.1249  217.8627 H   0  0  0  0  0  0  0  0  0  0  0  0
  143.5754   75.7648  216.1057 H   0  0  0  0  0  0  0  0  0  0  0  0
  142.5396   77.9518  216.6898 H   0  0  0  0  0  0  0  0  0  0  0  0
  142.6845   76.8405  220.8325 H   0  0  0  0  0  0  0  0  0  0  0  0
  138.0051   77.5131  222.4336 H   0  0  0  0  0  0  0  0  0  0  0  0
  138.3301   79.8932  223.0468 H   0  0  0  0  0  0  0  0  0  0  0  0
  139.8419   81.7386  223.5672 H   0  0  0  0  0  0  0  0  0  0  0  0
  142.1224   82.6516  223.8836 H   0  0  0  0  0  0  0  0  0  0  0  0
  144.0786   81.0971  223.5585 H   0  0  0  0  0  0  0  0  0  0  0  0
  143.6958   78.7209  222.9423 H   0  0  0  0  0  0  0  0  0  0  0  0
  1  2  2  0
  2  3  1  0
  3  4  1  0
  4  5  1  0
  5  6  2  0
  5  7  1  0
  7  8  1  0
  8  9  1  0
  9 10  1  0
 10 11  1  0
 11 12  1  0
 12 13  1  0
 13 14  2  0
 14 15  1  0
 15 16  2  0
 16 17  1  0
 17 18  1  0
 17 19  2  0
  2 20  1  0
 20 21  2  0
 21 22  1  0
 22 23  2  0
 23 24  1  0
 24 25  2  0
 25 26  1  0
 26 27  2  0
 27 28  1  0
 28 29  2  0
 12  7  1  0
 19 13  1  0
 29 20  1  0
 28 23  1  0
  3 30  1  0
  4 31  1  0
  4 32  1  0
  8 33  1  0
  8 34  1  0
  9 35  1  0
  9 36  1  0
 10 37  1  0
 10 38  1  0
 11 39  1  0
 11 40  1  0
 12 41  1  1
 14 42  1  0
 15 43  1  0
 16 44  1  0
 19 45  1  0
 21 46  1  0
 22 47  1  0
 24 48  1  0
 25 49  1  0
 26 50  1  0
 27 51  1  0
M  END
>  <smiles>  (66) 
O=C(NCC(=O)N1CCCCC1c1cccc(Cl)c1)c1ccc2ccccc2n1

>  <score_type>  (66) 
oracle

>  <origin>  (66) 
autodockgpu

>  <m_score__min__energy>  (66) 
-9.2300000000000004

>  <m_primary>  (66) 
energy

>  <rmsd>  (66) 
7.732476651856103

>  <m_score__min__rmsd>  (66) 
7.732476651856103

>  <meeko>  (66) 
{"free_energy": -7.92, "intermolecular_energy": -9.41, "internal_energy": -2.64, "cluster_size": 7, "cluster_id": 7, "rank_in_cluster": 5}

>  <energy>  (66) 
-8.3

>  <cluster_rmsd>  (66) 
0.86

>  <cluster>  (66) 
1

$$$$

     RDKit          3D

 51 54  0  0  0  0  0  0  0  0999 V2000
  139.6650   70.9400  221.3680 O   0  0  0  0  0  0  0  0  0  0  0  0
  139.7750   71.5270  222.4970 C   0  0  0  0  0  0  0  0  0  0  0  0
  139.8550   72.9580  222.5610 N   0  0  0  0  0  0  0  0  0  0  0  0
  139.8100   73.6980  221.3220 C   0  0  0  0  0  0  0  0  0  0  0  0
  140.1000   75.1280  221.5260 C   0  0  0  0  0  0  0  0  0  0  0  0
  139.9570   75.6180  222.6750 O   0  0  0  0  0  0  0  0  0  0  0  0
  140.5370   76.0020  220.5000 N   0  0  0  0  0  0  0  0  0  0  0  0
  140.0290   75.7990  219.1580 C   0  0  0  0  0  0  0  0  0  0  0  0
  139.5290   77.0540  218.5190 C   0  0  0  0  0  0  0  0  0  0  0  0
  140.4810   78.1930  218.6600 C   0  0  0  0  0  0  0  0  0  0  0  0
  141.7230   77.7980  219.4000 C   0  0  0  0  0  0  0  0  0  0  0  0
  141.4650   77.0910  220.7040 C   0  0  1  0  0  0  0  0  0  0  0  0
  140.9950   78.0850  221.6940 C   0  0  0  0  0  0  0  0  0  0  0  0
  139.6820   78.2490  222.0630 C   0  0  0  0  0  0  0  0  0  0  0  0
  139.3370   79.2160  222.9990 C   0  0  0  0  0  0  0  0  0  0  0  0
  140.2960   80.0350  223.5820 C   0  0  0  0  0  0  0  0  0  0  0  0
  141.6200   79.8730  223.2140 C   0  0  0  0  0  0  0  0  0  0  0  0
  142.9050   80.8650  223.9000 Cl  0  0  0  0  0  0  0  0  0  0  0  0
  141.9530   78.9110  222.2850 C   0  0  0  0  0  0  0  0  0  0  0  0
  139.8180   70.7580  223.7480 C   0  0  0  0  0  0  0  0  0  0  0  0
  139.2710   69.4850  223.7480 C   0  0  0  0  0  0  0  0  0  0  0  0
  139.3010   68.7440  224.9100 C   0  0  0  0  0  0  0  0  0  0  0  0
  139.8660   69.2510  226.0630 C   0  0  0  0  0  0  0  0  0  0  0  0
  139.9180   68.5470  227.2480 C   0  0  0  0  0  0  0  0  0  0  0  0
  140.4820   69.0470  228.4030 C   0  0  0  0  0  0  0  0  0  0  0  0
  141.0190   70.3380  228.3410 C   0  0  0  0  0  0  0  0  0  0  0  0
  140.9750   71.0670  227.1480 C   0  0  0  0  0  0  0  0  0  0  0  0
  140.4040   70.5420  226.0050 C   0  0  0  0  0  0  0  0  0  0  0  0
  140.3710   71.2590  224.8670 N   0  0  0  0  0  0  0  0  0  0  0  0
  139.9430   73.3910  223.5060 H   0  0  0  0  0  0  0  0  0  0  0  0
  140.5555   73.2790  220.6301 H   0  0  0  0  0  0  0  0  0  0  0  0
  138.7939   73.6114  220.9096 H   0  0  0  0  0  0  0  0  0  0  0  0
  140.8388   75.3894  218.5364 H   0  0  0  0  0  0  0  0  0  0  0  0
  139.1753   75.1095  219.2337 H   0  0  0  0  0  0  0  0  0  0  0  0
  139.3663   76.8624  217.4481 H   0  0  0  0  0  0  0  0  0  0  0  0
  138.5964   77.3367  219.0292 H   0  0  0  0  0  0  0  0  0  0  0  0
  140.7624   78.5469  217.6572 H   0  0  0  0  0  0  0  0  0  0  0  0
  139.9801   78.9854  219.2354 H   0  0  0  0  0  0  0  0  0  0  0  0
  142.3109   77.1285  218.7549 H   0  0  0  0  0  0  0  0  0  0  0  0
  142.2552   78.7291  219.6447 H   0  0  0  0  0  0  0  0  0  0  0  0
  142.3862   76.6378  221.0990 H   0  0  0  0  0  0  0  0  0  0  0  0
  138.9027   77.6138  221.6168 H   0  0  0  0  0  0  0  0  0  0  0  0
  138.2815   79.3358  223.2847 H   0  0  0  0  0  0  0  0  0  0  0  0
  140.0085   80.7970  224.3214 H   0  0  0  0  0  0  0  0  0  0  0  0
  143.0084   78.7900  221.9997 H   0  0  0  0  0  0  0  0  0  0  0  0
  138.8194   69.0717  222.8341 H   0  0  0  0  0  0  0  0  0  0  0  0
  138.8679   67.7329  224.9186 H   0  0  0  0  0  0  0  0  0  0  0  0
  139.4876   67.5350  227.2731 H   0  0  0  0  0  0  0  0  0  0  0  0
  140.5086   68.4575  229.3314 H   0  0  0  0  0  0  0  0  0  0  0  0
  141.4786   70.7822  229.2362 H   0  0  0  0  0  0  0  0  0  0  0  0
  141.4041   72.0795  227.1194 H   0  0  0  0  0  0  0  0  0  0  0  0
  1  2  2  0
  2  3  1  0
  3  4  1  0
  4  5  1  0
  5  6  2  0
  5  7  1  0
  7  8  1  0
  8  9  1  0
  9 10  1  0
 10 11  1  0
 11 12  1  0
 12 13  1  0
 13 14  2  0
 14 15  1  0
 15 16  2  0
 16 17  1  0
 17 18  1  0
 17 19  2  0
  2 20  1  0
 20 21  2  0
 21 22  1  0
 22 23  2  0
 23 24  1  0
 24 25  2  0
 25 26  1  0
 26 27  2  0
 27 28  1  0
 28 29  2  0
 12  7  1  0
 19 13  1  0
 29 20  1  0
 28 23  1  0
  3 30  1  0
  4 31  1  0
  4 32  1  0
  8 33  1  0
  8 34  1  0
  9 35  1  0
  9 36  1  0
 10 37  1  0
 10 38  1  0
 11 39  1  0
 11 40  1  0
 12 41  1  1
 14 42  1  0
 15 43  1  0
 16 44  1  0
 19 45  1  0
 21 46  1  0
 22 47  1  0
 24 48  1  0
 25 49  1  0
 26 50  1  0
 27 51  1  0
M  END
>  <smiles>  (67) 
O=C(NCC(=O)N1CCCCC1c1cccc(Cl)c1)c1ccc2ccccc2n1

>  <score_type>  (67) 
oracle

>  <origin>  (67) 
autodockgpu

>  <m_score__min__energy>  (67) 
-9.2300000000000004

>  <m_primary>  (67) 
energy

>  <rmsd>  (67) 
1.330856938314272

>  <m_score__min__rmsd>  (67) 
1.330856938314272

>  <meeko>  (67) 
{"free_energy": -8.89, "intermolecular_energy": -10.38, "internal_energy": -1.73, "cluster_size": 17, "cluster_id": 1, "rank_in_cluster": 9}

>  <energy>  (67) 
-8.11

>  <cluster_rmsd>  (67) 
1.21

>  <cluster>  (67) 
1

$$$$

     RDKit          3D

 51 54  0  0  0  0  0  0  0  0999 V2000
  140.1110   73.4200  222.3780 O   0  0  0  0  0  0  0  0  0  0  0  0
  140.2750   72.1540  222.3900 C   0  0  0  0  0  0  0  0  0  0  0  0
  140.5410   71.4490  221.1700 N   0  0  0  0  0  0  0  0  0  0  0  0
  140.6140   72.2110  219.9460 C   0  0  0  0  0  0  0  0  0  0  0  0
  141.8920   71.9990  219.2430 C   0  0  0  0  0  0  0  0  0  0  0  0
  141.8710   71.5520  218.0680 O   0  0  0  0  0  0  0  0  0  0  0  0
  143.1610   72.2710  219.8090 N   0  0  0  0  0  0  0  0  0  0  0  0
  144.3050   71.5180  219.3340 C   0  0  0  0  0  0  0  0  0  0  0  0
  145.4800   72.3770  218.9950 C   0  0  0  0  0  0  0  0  0  0  0  0
  145.7900   73.3770  220.0580 C   0  0  0  0  0  0  0  0  0  0  0  0
  144.8510   73.2680  221.2210 C   0  0  0  0  0  0  0  0  0  0  0  0
  143.3950   73.2570  220.8400 C   0  0  1  0  0  0  0  0  0  0  0  0
  143.0020   74.6260  220.4420 C   0  0  0  0  0  0  0  0  0  0  0  0
  143.6090   75.3480  219.4420 C   0  0  0  0  0  0  0  0  0  0  0  0
  143.1710   76.6310  219.1450 C   0  0  0  0  0  0  0  0  0  0  0  0
  142.1200   77.2190  219.8410 C   0  0  0  0  0  0  0  0  0  0  0  0
  141.5060   76.4960  220.8480 C   0  0  0  0  0  0  0  0  0  0  0  0
  140.1660   77.1570  221.7830 Cl  0  0  0  0  0  0  0  0  0  0  0  0
  141.9470   75.2220  221.1350 C   0  0  0  0  0  0  0  0  0  0  0  0
  140.1990   71.3950  223.6450 C   0  0  0  0  0  0  0  0  0  0  0  0
  139.6230   70.1350  223.6090 C   0  0  0  0  0  0  0  0  0  0  0  0
  139.5410   69.4020  224.7750 C   0  0  0  0  0  0  0  0  0  0  0  0
  140.0230   69.9060  225.9660 C   0  0  0  0  0  0  0  0  0  0  0  0
  139.9620   69.2110  227.1560 C   0  0  0  0  0  0  0  0  0  0  0  0
  140.4420   69.7070  228.3500 C   0  0  0  0  0  0  0  0  0  0  0  0
  141.0130   70.9840  228.3230 C   0  0  0  0  0  0  0  0  0  0  0  0
  141.0830   71.7050  227.1260 C   0  0  0  0  0  0  0  0  0  0  0  0
  140.5950   71.1830  225.9440 C   0  0  0  0  0  0  0  0  0  0  0  0
  140.6710   71.8920  224.8030 N   0  0  0  0  0  0  0  0  0  0  0  0
  140.6690   70.4160  221.2320 H   0  0  0  0  0  0  0  0  0  0  0  0
  139.7895   71.9036  219.2858 H   0  0  0  0  0  0  0  0  0  0  0  0
  140.5388   73.2779  220.2032 H   0  0  0  0  0  0  0  0  0  0  0  0
  144.6062   70.8087  220.1190 H   0  0  0  0  0  0  0  0  0  0  0  0
  143.9974   71.0077  218.4093 H   0  0  0  0  0  0  0  0  0  0  0  0
  146.3588   71.7307  218.8532 H   0  0  0  0  0  0  0  0  0  0  0  0
  145.2309   72.9331  218.0792 H   0  0  0  0  0  0  0  0  0  0  0  0
  146.8174   73.2103  220.4140 H   0  0  0  0  0  0  0  0  0  0  0  0
  145.6781   74.3813  219.6234 H   0  0  0  0  0  0  0  0  0  0  0  0
  145.0740   72.3342  221.7580 H   0  0  0  0  0  0  0  0  0  0  0  0
  145.0089   74.1638  221.8395 H   0  0  0  0  0  0  0  0  0  0  0  0
  142.7642   72.9637  221.6921 H   0  0  0  0  0  0  0  0  0  0  0  0
  144.4434   74.9080  218.8762 H   0  0  0  0  0  0  0  0  0  0  0  0
  143.6661   77.1955  218.3412 H   0  0  0  0  0  0  0  0  0  0  0  0
  141.7841   78.2374  219.5959 H   0  0  0  0  0  0  0  0  0  0  0  0
  141.4509   74.6559  221.9371 H   0  0  0  0  0  0  0  0  0  0  0  0
  139.2367   69.7251  222.6641 H   0  0  0  0  0  0  0  0  0  0  0  0
  139.0848   68.4013  224.7551 H   0  0  0  0  0  0  0  0  0  0  0  0
  139.5071   68.2095  227.1524 H   0  0  0  0  0  0  0  0  0  0  0  0
  140.3788   69.1250  229.2813 H   0  0  0  0  0  0  0  0  0  0  0  0
  141.4098   71.4244  229.2496 H   0  0  0  0  0  0  0  0  0  0  0  0
  141.5357   72.7075  227.1263 H   0  0  0  0  0  0  0  0  0  0  0  0
  1  2  2  0
  2  3  1  0
  3  4  1  0
  4  5  1  0
  5  6  2  0
  5  7  1  0
  7  8  1  0
  8  9  1  0
  9 10  1  0
 10 11  1  0
 11 12  1  0
 12 13  1  0
 13 14  2  0
 14 15  1  0
 15 16  2  0
 16 17  1  0
 17 18  1  0
 17 19  2  0
  2 20  1  0
 20 21  2  0
 21 22  1  0
 22 23  2  0
 23 24  1  0
 24 25  2  0
 25 26  1  0
 26 27  2  0
 27 28  1  0
 28 29  2  0
 12  7  1  0
 19 13  1  0
 29 20  1  0
 28 23  1  0
  3 30  1  0
  4 31  1  0
  4 32  1  0
  8 33  1  0
  8 34  1  0
  9 35  1  0
  9 36  1  0
 10 37  1  0
 10 38  1  0
 11 39  1  0
 11 40  1  0
 12 41  1  1
 14 42  1  0
 15 43  1  0
 16 44  1  0
 19 45  1  0
 21 46  1  0
 22 47  1  0
 24 48  1  0
 25 49  1  0
 26 50  1  0
 27 51  1  0
M  END
>  <smiles>  (68) 
O=C(NCC(=O)N1CCCCC1c1cccc(Cl)c1)c1ccc2ccccc2n1

>  <score_type>  (68) 
oracle

>  <origin>  (68) 
autodockgpu

>  <m_score__min__energy>  (68) 
-9.2300000000000004

>  <m_primary>  (68) 
energy

>  <rmsd>  (68) 
3.993923927707406

>  <m_score__min__rmsd>  (68) 
3.993923927707406

>  <meeko>  (68) 
{"free_energy": -8.53, "intermolecular_energy": -10.02, "internal_energy": -1.7, "cluster_size": 1, "cluster_id": 4, "rank_in_cluster": 1}

>  <energy>  (68) 
-9.02

>  <cluster_rmsd>  (68) 
0.0

>  <cluster>  (68) 
2

$$$$

     RDKit          3D

 51 54  0  0  0  0  0  0  0  0999 V2000
  140.8060   71.2160  221.6300 O   0  0  0  0  0  0  0  0  0  0  0  0
  140.3680   71.8360  222.6570 C   0  0  0  0  0  0  0  0  0  0  0  0
  139.9250   73.1950  222.5450 N   0  0  0  0  0  0  0  0  0  0  0  0
  139.9930   73.8280  221.2480 C   0  0  0  0  0  0  0  0  0  0  0  0
  140.2800   75.2700  221.3550 C   0  0  0  0  0  0  0  0  0  0  0  0
  140.1760   75.8270  222.4770 O   0  0  0  0  0  0  0  0  0  0  0  0
  140.6730   76.0820  220.2640 N   0  0  0  0  0  0  0  0  0  0  0  0
  140.1590   75.7650  218.9470 C   0  0  0  0  0  0  0  0  0  0  0  0
  139.6050   76.9520  218.2260 C   0  0  0  0  0  0  0  0  0  0  0  0
  140.5160   78.1320  218.2720 C   0  0  0  0  0  0  0  0  0  0  0  0
  141.7800   77.8360  219.0220 C   0  0  0  0  0  0  0  0  0  0  0  0
  141.5640   77.2160  220.3760 C   0  0  1  0  0  0  0  0  0  0  0  0
  141.0680   78.2610  221.2990 C   0  0  0  0  0  0  0  0  0  0  0  0
  139.7440   78.5950  221.4530 C   0  0  0  0  0  0  0  0  0  0  0  0
  139.3770   79.5960  222.3410 C   0  0  0  0  0  0  0  0  0  0  0  0
  140.3250   80.2830  223.0920 C   0  0  0  0  0  0  0  0  0  0  0  0
  141.6590   79.9500  222.9410 C   0  0  0  0  0  0  0  0  0  0  0  0
  142.9300   80.7650  223.8490 Cl  0  0  0  0  0  0  0  0  0  0  0  0
  142.0140   78.9540  222.0570 C   0  0  0  0  0  0  0  0  0  0  0  0
  140.3050   71.1760  223.9680 C   0  0  0  0  0  0  0  0  0  0  0  0
  140.7060   71.9000  225.0800 C   0  0  0  0  0  0  0  0  0  0  0  0
  140.6550   71.3020  226.3220 C   0  0  0  0  0  0  0  0  0  0  0  0
  140.2110   70.0030  226.4670 C   0  0  0  0  0  0  0  0  0  0  0  0
  140.1440   69.3640  227.6880 C   0  0  0  0  0  0  0  0  0  0  0  0
  139.7010   68.0660  227.8420 C   0  0  0  0  0  0  0  0  0  0  0  0
  139.3090   67.3880  226.6830 C   0  0  0  0  0  0  0  0  0  0  0  0
  139.3710   68.0190  225.4360 C   0  0  0  0  0  0  0  0  0  0  0  0
  139.8180   69.3200  225.3110 C   0  0  0  0  0  0  0  0  0  0  0  0
  139.8710   69.9100  224.1030 N   0  0  0  0  0  0  0  0  0  0  0  0
  139.5750   73.6590  223.4110 H   0  0  0  0  0  0  0  0  0  0  0  0
  140.7899   73.3494  220.6599 H   0  0  0  0  0  0  0  0  0  0  0  0
  139.0146   73.7103  220.7593 H   0  0  0  0  0  0  0  0  0  0  0  0
  140.9771   75.3419  218.3456 H   0  0  0  0  0  0  0  0  0  0  0  0
  139.3325   75.0520  219.0832 H   0  0  0  0  0  0  0  0  0  0  0  0
  139.4376   76.6778  217.1740 H   0  0  0  0  0  0  0  0  0  0  0  0
  138.6680   77.2367  218.7270 H   0  0  0  0  0  0  0  0  0  0  0  0
  140.7734   78.4225  217.2427 H   0  0  0  0  0  0  0  0  0  0  0  0
  139.9925   78.9455  218.7956 H   0  0  0  0  0  0  0  0  0  0  0  0
  142.3851   77.1436  218.4183 H   0  0  0  0  0  0  0  0  0  0  0  0
  142.2792   78.8012  219.1927 H   0  0  0  0  0  0  0  0  0  0  0  0
  142.5062   76.8261  220.7885 H   0  0  0  0  0  0  0  0  0  0  0  0
  138.9736   78.0678  220.8712 H   0  0  0  0  0  0  0  0  0  0  0  0
  138.3131   79.8518  222.4535 H   0  0  0  0  0  0  0  0  0  0  0  0
  140.0200   81.0750  223.7918 H   0  0  0  0  0  0  0  0  0  0  0  0
  143.0776   78.6965  221.9449 H   0  0  0  0  0  0  0  0  0  0  0  0
  141.0597   72.9361  224.9736 H   0  0  0  0  0  0  0  0  0  0  0  0
  140.9727   71.8685  227.2098 H   0  0  0  0  0  0  0  0  0  0  0  0
  140.4598   69.9174  228.5846 H   0  0  0  0  0  0  0  0  0  0  0  0
  139.6581   67.5865  228.8311 H   0  0  0  0  0  0  0  0  0  0  0  0
  138.9493   66.3508  226.7526 H   0  0  0  0  0  0  0  0  0  0  0  0
  139.0575   67.4681  224.5370 H   0  0  0  0  0  0  0  0  0  0  0  0
  1  2  2  0
  2  3  1  0
  3  4  1  0
  4  5  1  0
  5  6  2  0
  5  7  1  0
  7  8  1  0
  8  9  1  0
  9 10  1  0
 10 11  1  0
 11 12  1  0
 12 13  1  0
 13 14  2  0
 14 15  1  0
 15 16  2  0
 16 17  1  0
 17 18  1  0
 17 19  2  0
  2 20  1  0
 20 21  2  0
 21 22  1  0
 22 23  2  0
 23 24  1  0
 24 25  2  0
 25 26  1  0
 26 27  2  0
 27 28  1  0
 28 29  2  0
 12  7  1  0
 19 13  1  0
 29 20  1  0
 28 23  1  0
  3 30  1  0
  4 31  1  0
  4 32  1  0
  8 33  1  0
  8 34  1  0
  9 35  1  0
  9 36  1  0
 10 37  1  0
 10 38  1  0
 11 39  1  0
 11 40  1  0
 12 41  1  1
 14 42  1  0
 15 43  1  0
 16 44  1  0
 19 45  1  0
 21 46  1  0
 22 47  1  0
 24 48  1  0
 25 49  1  0
 26 50  1  0
 27 51  1  0
M  END
>  <smiles>  (69) 
O=C(NCC(=O)N1CCCCC1c1cccc(Cl)c1)c1ccc2ccccc2n1

>  <score_type>  (69) 
oracle

>  <origin>  (69) 
autodockgpu

>  <m_score__min__energy>  (69) 
-9.2300000000000004

>  <m_primary>  (69) 
energy

>  <rmsd>  (69) 
2.637798832011239

>  <m_score__min__rmsd>  (69) 
2.637798832011239

>  <meeko>  (69) 
{"free_energy": -8.48, "intermolecular_energy": -9.97, "internal_energy": -1.56, "cluster_size": 17, "cluster_id": 1, "rank_in_cluster": 13}

>  <energy>  (69) 
-9.01

>  <cluster_rmsd>  (69) 
0.03

>  <cluster>  (69) 
2

$$$$

     RDKit          3D

 51 54  0  0  0  0  0  0  0  0999 V2000
  140.6430   71.7540  221.1540 O   0  0  0  0  0  0  0  0  0  0  0  0
  140.2470   72.2660  222.2550 C   0  0  0  0  0  0  0  0  0  0  0  0
  139.8940   73.6550  222.3180 N   0  0  0  0  0  0  0  0  0  0  0  0
  140.0030   74.4400  221.1120 C   0  0  0  0  0  0  0  0  0  0  0  0
  140.3980   75.8320  221.3960 C   0  0  0  0  0  0  0  0  0  0  0  0
  140.4290   76.2210  222.5910 O   0  0  0  0  0  0  0  0  0  0  0  0
  140.7510   76.7740  220.4000 N   0  0  0  0  0  0  0  0  0  0  0  0
  140.0200   76.7640  219.1490 C   0  0  0  0  0  0  0  0  0  0  0  0
  139.5510   78.1180  218.7250 C   0  0  0  0  0  0  0  0  0  0  0  0
  140.6220   79.1530  218.8130 C   0  0  0  0  0  0  0  0  0  0  0  0
  141.9200   78.5770  219.2930 C   0  0  0  0  0  0  0  0  0  0  0  0
  141.8040   77.7540  220.5480 C   0  0  1  0  0  0  0  0  0  0  0  0
  141.5980   78.6670  221.6930 C   0  0  0  0  0  0  0  0  0  0  0  0
  142.6130   79.2120  222.4430 C   0  0  0  0  0  0  0  0  0  0  0  0
  142.3190   80.0550  223.5060 C   0  0  0  0  0  0  0  0  0  0  0  0
  141.0060   80.3710  223.8400 C   0  0  0  0  0  0  0  0  0  0  0  0
  139.9810   79.8250  223.0870 C   0  0  0  0  0  0  0  0  0  0  0  0
  138.2880   80.1680  223.4350 Cl  0  0  0  0  0  0  0  0  0  0  0  0
  140.2830   78.9900  222.0340 C   0  0  0  0  0  0  0  0  0  0  0  0
  140.1410   71.4510  223.4720 C   0  0  0  0  0  0  0  0  0  0  0  0
  139.5550   70.1990  223.3680 C   0  0  0  0  0  0  0  0  0  0  0  0
  139.4460   69.4150  224.4980 C   0  0  0  0  0  0  0  0  0  0  0  0
  139.9090   69.8610  225.7190 C   0  0  0  0  0  0  0  0  0  0  0  0
  139.8200   69.1130  226.8750 C   0  0  0  0  0  0  0  0  0  0  0  0
  140.2810   69.5500  228.0990 C   0  0  0  0  0  0  0  0  0  0  0  0
  140.8620   70.8220  228.1410 C   0  0  0  0  0  0  0  0  0  0  0  0
  140.9600   71.5960  226.9790 C   0  0  0  0  0  0  0  0  0  0  0  0
  140.4910   71.1330  225.7660 C   0  0  0  0  0  0  0  0  0  0  0  0
  140.5940   71.8910  224.6600 N   0  0  0  0  0  0  0  0  0  0  0  0
  139.5750   74.0260  223.2390 H   0  0  0  0  0  0  0  0  0  0  0  0
  140.7589   73.9824  220.4569 H   0  0  0  0  0  0  0  0  0  0  0  0
  139.0161   74.4579  220.6264 H   0  0  0  0  0  0  0  0  0  0  0  0
  140.6772   76.3611  218.3643 H   0  0  0  0  0  0  0  0  0  0  0  0
  139.1248   76.1430  219.3009 H   0  0  0  0  0  0  0  0  0  0  0  0
  139.2032   78.0594  217.6831 H   0  0  0  0  0  0  0  0  0  0  0  0
  138.7426   78.4181  219.4080 H   0  0  0  0  0  0  0  0  0  0  0  0
  140.7750   79.5917  217.8159 H   0  0  0  0  0  0  0  0  0  0  0  0
  140.2996   79.9155  219.5373 H   0  0  0  0  0  0  0  0  0  0  0  0
  142.3284   77.9367  218.4972 H   0  0  0  0  0  0  0  0  0  0  0  0
  142.5738   79.4285  219.5330 H   0  0  0  0  0  0  0  0  0  0  0  0
  142.7269   77.1860  220.7370 H   0  0  0  0  0  0  0  0  0  0  0  0
  143.6604   78.9796  222.2003 H   0  0  0  0  0  0  0  0  0  0  0  0
  143.1423   80.4825  224.0972 H   0  0  0  0  0  0  0  0  0  0  0  0
  140.7870   81.0407  224.6847 H   0  0  0  0  0  0  0  0  0  0  0  0
  139.4603   78.5631  221.4416 H   0  0  0  0  0  0  0  0  0  0  0  0
  139.1824   69.8360  222.3988 H   0  0  0  0  0  0  0  0  0  0  0  0
  138.9832   68.4198  224.4245 H   0  0  0  0  0  0  0  0  0  0  0  0
  139.3575   68.1166  226.8173 H   0  0  0  0  0  0  0  0  0  0  0  0
  140.1958   68.9268  229.0014 H   0  0  0  0  0  0  0  0  0  0  0  0
  141.2444   71.2166  229.0939 H   0  0  0  0  0  0  0  0  0  0  0  0
  141.4202   72.5936  227.0334 H   0  0  0  0  0  0  0  0  0  0  0  0
  1  2  2  0
  2  3  1  0
  3  4  1  0
  4  5  1  0
  5  6  2  0
  5  7  1  0
  7  8  1  0
  8  9  1  0
  9 10  1  0
 10 11  1  0
 11 12  1  0
 12 13  1  0
 13 14  2  0
 14 15  1  0
 15 16  2  0
 16 17  1  0
 17 18  1  0
 17 19  2  0
  2 20  1  0
 20 21  2  0
 21 22  1  0
 22 23  2  0
 23 24  1  0
 24 25  2  0
 25 26  1  0
 26 27  2  0
 27 28  1  0
 28 29  2  0
 12  7  1  0
 19 13  1  0
 29 20  1  0
 28 23  1  0
  3 30  1  0
  4 31  1  0
  4 32  1  0
  8 33  1  0
  8 34  1  0
  9 35  1  0
  9 36  1  0
 10 37  1  0
 10 38  1  0
 11 39  1  0
 11 40  1  0
 12 41  1  1
 14 42  1  0
 15 43  1  0
 16 44  1  0
 19 45  1  0
 21 46  1  0
 22 47  1  0
 24 48  1  0
 25 49  1  0
 26 50  1  0
 27 51  1  0
M  END
>  <smiles>  (70) 
O=C(NCC(=O)N1CCCCC1c1cccc(Cl)c1)c1ccc2ccccc2n1

>  <score_type>  (70) 
oracle

>  <origin>  (70) 
autodockgpu

>  <m_score__min__energy>  (70) 
-9.2300000000000004

>  <m_primary>  (70) 
energy

>  <rmsd>  (70) 
1.7454789175033047

>  <m_score__min__rmsd>  (70) 
1.7454789175033047

>  <meeko>  (70) 
{"free_energy": -8.92, "intermolecular_energy": -10.41, "internal_energy": -1.7, "cluster_size": 17, "cluster_id": 1, "rank_in_cluster": 8}

>  <energy>  (70) 
-9.01

>  <cluster_rmsd>  (70) 
0.05

>  <cluster>  (70) 
2

$$$$

     RDKit          3D

 51 54  0  0  0  0  0  0  0  0999 V2000
  140.3710   71.2730  221.2010 O   0  0  0  0  0  0  0  0  0  0  0  0
  140.1000   71.8960  222.2820 C   0  0  0  0  0  0  0  0  0  0  0  0
  139.7920   73.2960  222.2500 N   0  0  0  0  0  0  0  0  0  0  0  0
  139.7990   73.9650  220.9700 C   0  0  0  0  0  0  0  0  0  0  0  0
  140.8190   75.0270  220.9110 C   0  0  0  0  0  0  0  0  0  0  0  0
  141.1970   75.5650  221.9830 O   0  0  0  0  0  0  0  0  0  0  0  0
  141.4120   75.4890  219.7120 N   0  0  0  0  0  0  0  0  0  0  0  0
  141.2540   76.8850  219.3550 C   0  0  0  0  0  0  0  0  0  0  0  0
  142.5360   77.5470  218.9670 C   0  0  0  0  0  0  0  0  0  0  0  0
  143.3300   76.7410  217.9940 C   0  0  0  0  0  0  0  0  0  0  0  0
  142.6390   75.4620  217.6280 C   0  0  0  0  0  0  0  0  0  0  0  0
  142.1720   74.6540  218.8080 C   0  0  1  0  0  0  0  0  0  0  0  0
  143.3510   74.0250  219.4440 C   0  0  0  0  0  0  0  0  0  0  0  0
  144.2180   74.6770  220.2880 C   0  0  0  0  0  0  0  0  0  0  0  0
  145.3020   74.0020  220.8310 C   0  0  0  0  0  0  0  0  0  0  0  0
  145.5420   72.6630  220.5430 C   0  0  0  0  0  0  0  0  0  0  0  0
  144.6710   72.0020  219.6940 C   0  0  0  0  0  0  0  0  0  0  0  0
  144.8940   70.3050  219.2710 Cl  0  0  0  0  0  0  0  0  0  0  0  0
  143.5980   72.6800  219.1600 C   0  0  0  0  0  0  0  0  0  0  0  0
  140.0960   71.1990  223.5750 C   0  0  0  0  0  0  0  0  0  0  0  0
  139.5800   69.9130  223.6190 C   0  0  0  0  0  0  0  0  0  0  0  0
  139.5670   69.2380  224.8220 C   0  0  0  0  0  0  0  0  0  0  0  0
  140.0580   69.8240  225.9720 C   0  0  0  0  0  0  0  0  0  0  0  0
  140.0640   69.1880  227.1960 C   0  0  0  0  0  0  0  0  0  0  0  0
  140.5540   69.7670  228.3480 C   0  0  0  0  0  0  0  0  0  0  0  0
  141.0630   71.0660  228.2400 C   0  0  0  0  0  0  0  0  0  0  0  0
  141.0640   71.7270  227.0070 C   0  0  0  0  0  0  0  0  0  0  0  0
  140.5670   71.1240  225.8680 C   0  0  0  0  0  0  0  0  0  0  0  0
  140.5770   71.7760  224.6910 N   0  0  0  0  0  0  0  0  0  0  0  0
  139.5770   73.7600  223.1590 H   0  0  0  0  0  0  0  0  0  0  0  0
  140.0095   73.2255  220.1833 H   0  0  0  0  0  0  0  0  0  0  0  0
  138.8132   74.4304  220.8230 H   0  0  0  0  0  0  0  0  0  0  0  0
  140.5567   76.9512  218.5068 H   0  0  0  0  0  0  0  0  0  0  0  0
  140.8756   77.4072  220.2461 H   0  0  0  0  0  0  0  0  0  0  0  0
  142.3049   78.5210  218.5110 H   0  0  0  0  0  0  0  0  0  0  0  0
  143.1416   77.6574  219.8786 H   0  0  0  0  0  0  0  0  0  0  0  0
  143.4828   77.3358  217.0814 H   0  0  0  0  0  0  0  0  0  0  0  0
  144.2893   76.4853  218.4677 H   0  0  0  0  0  0  0  0  0  0  0  0
  141.7630   75.7078  217.0098 H   0  0  0  0  0  0  0  0  0  0  0  0
  143.3773   74.8451  217.0947 H   0  0  0  0  0  0  0  0  0  0  0  0
  141.4925   73.8487  218.4921 H   0  0  0  0  0  0  0  0  0  0  0  0
  144.0522   75.7363  220.5336 H   0  0  0  0  0  0  0  0  0  0  0  0
  145.9868   74.5382  221.5044 H   0  0  0  0  0  0  0  0  0  0  0  0
  146.4054   72.1402  220.9804 H   0  0  0  0  0  0  0  0  0  0  0  0
  142.9123   72.1443  218.4871 H   0  0  0  0  0  0  0  0  0  0  0  0
  139.1868   69.4379  222.7081 H   0  0  0  0  0  0  0  0  0  0  0  0
  139.1593   68.2173  224.8659 H   0  0  0  0  0  0  0  0  0  0  0  0
  139.6575   68.1677  227.2564 H   0  0  0  0  0  0  0  0  0  0  0  0
  140.5451   69.2315  229.3088 H   0  0  0  0  0  0  0  0  0  0  0  0
  141.4651   71.5709  229.1307 H   0  0  0  0  0  0  0  0  0  0  0  0
  141.4688   72.7478  226.9433 H   0  0  0  0  0  0  0  0  0  0  0  0
  1  2  2  0
  2  3  1  0
  3  4  1  0
  4  5  1  0
  5  6  2  0
  5  7  1  0
  7  8  1  0
  8  9  1  0
  9 10  1  0
 10 11  1  0
 11 12  1  0
 12 13  1  0
 13 14  2  0
 14 15  1  0
 15 16  2  0
 16 17  1  0
 17 18  1  0
 17 19  2  0
  2 20  1  0
 20 21  2  0
 21 22  1  0
 22 23  2  0
 23 24  1  0
 24 25  2  0
 25 26  1  0
 26 27  2  0
 27 28  1  0
 28 29  2  0
 12  7  1  0
 19 13  1  0
 29 20  1  0
 28 23  1  0
  3 30  1  0
  4 31  1  0
  4 32  1  0
  8 33  1  0
  8 34  1  0
  9 35  1  0
  9 36  1  0
 10 37  1  0
 10 38  1  0
 11 39  1  0
 11 40  1  0
 12 41  1  6
 14 42  1  0
 15 43  1  0
 16 44  1  0
 19 45  1  0
 21 46  1  0
 22 47  1  0
 24 48  1  0
 25 49  1  0
 26 50  1  0
 27 51  1  0
M  END
>  <smiles>  (71) 
O=C(NCC(=O)N1CCCCC1c1cccc(Cl)c1)c1ccc2ccccc2n1

>  <score_type>  (71) 
oracle

>  <origin>  (71) 
autodockgpu

>  <m_score__min__energy>  (71) 
-9.2300000000000004

>  <m_primary>  (71) 
energy

>  <rmsd>  (71) 
2.082550553398794

>  <m_score__min__rmsd>  (71) 
2.082550553398794

>  <meeko>  (71) 
{"free_energy": -8.82, "intermolecular_energy": -10.31, "internal_energy": -1.89, "cluster_size": 21, "cluster_id": 2, "rank_in_cluster": 10}

>  <energy>  (71) 
-8.98

>  <cluster_rmsd>  (71) 
0.15

>  <cluster>  (71) 
2

$$$$

     RDKit          3D

 51 54  0  0  0  0  0  0  0  0999 V2000
  138.7590   75.2870  221.8160 O   0  0  0  0  0  0  0  0  0  0  0  0
  139.9440   75.7290  221.9970 C   0  0  0  0  0  0  0  0  0  0  0  0
  141.0720   74.8600  221.8250 N   0  0  0  0  0  0  0  0  0  0  0  0
  140.8230   73.4890  221.4450 C   0  0  0  0  0  0  0  0  0  0  0  0
  141.7050   73.0560  220.3460 C   0  0  0  0  0  0  0  0  0  0  0  0
  141.1880   72.5400  219.3230 O   0  0  0  0  0  0  0  0  0  0  0  0
  143.1140   73.1840  220.3640 N   0  0  0  0  0  0  0  0  0  0  0  0
  143.9190   71.9830  220.2710 C   0  0  0  0  0  0  0  0  0  0  0  0
  145.0110   72.0780  219.2550 C   0  0  0  0  0  0  0  0  0  0  0  0
  145.7920   73.3450  219.3630 C   0  0  0  0  0  0  0  0  0  0  0  0
  145.2990   74.2130  220.4810 C   0  0  0  0  0  0  0  0  0  0  0  0
  143.8130   74.4460  220.4720 C   0  0  1  0  0  0  0  0  0  0  0  0
  143.4900   75.3900  219.3800 C   0  0  0  0  0  0  0  0  0  0  0  0
  143.7230   75.1430  218.0480 C   0  0  0  0  0  0  0  0  0  0  0  0
  143.3910   76.0960  217.0940 C   0  0  0  0  0  0  0  0  0  0  0  0
  142.8200   77.3120  217.4520 C   0  0  0  0  0  0  0  0  0  0  0  0
  142.5830   77.5640  218.7910 C   0  0  0  0  0  0  0  0  0  0  0  0
  141.8630   79.0770  219.3390 Cl  0  0  0  0  0  0  0  0  0  0  0  0
  142.9160   76.6130  219.7310 C   0  0  0  0  0  0  0  0  0  0  0  0
  140.1780   77.1260  222.3830 C   0  0  0  0  0  0  0  0  0  0  0  0
  139.0740   77.9410  222.5760 C   0  0  0  0  0  0  0  0  0  0  0  0
  139.2690   79.2580  222.9390 C   0  0  0  0  0  0  0  0  0  0  0  0
  140.5410   79.7670  223.1110 C   0  0  0  0  0  0  0  0  0  0  0  0
  140.7830   81.0760  223.4720 C   0  0  0  0  0  0  0  0  0  0  0  0
  142.0510   81.5920  223.6460 C   0  0  0  0  0  0  0  0  0  0  0  0
  143.1260   80.7200  223.4380 C   0  0  0  0  0  0  0  0  0  0  0  0
  142.8980   79.3890  223.0700 C   0  0  0  0  0  0  0  0  0  0  0  0
  141.6180   78.8980  222.9030 C   0  0  0  0  0  0  0  0  0  0  0  0
  141.4200   77.6160  222.5490 N   0  0  0  0  0  0  0  0  0  0  0  0
  142.0190   75.2670  221.9850 H   0  0  0  0  0  0  0  0  0  0  0  0
  140.9962   72.8409  222.3168 H   0  0  0  0  0  0  0  0  0  0  0  0
  139.7821   73.4146  221.0972 H   0  0  0  0  0  0  0  0  0  0  0  0
  144.3732   71.7906  221.2542 H   0  0  0  0  0  0  0  0  0  0  0  0
  143.2513   71.1680  219.9550 H   0  0  0  0  0  0  0  0  0  0  0  0
  145.6966   71.2293  219.3954 H   0  0  0  0  0  0  0  0  0  0  0  0
  144.5408   72.0622  218.2607 H   0  0  0  0  0  0  0  0  0  0  0  0
  146.8482   73.0971  219.5447 H   0  0  0  0  0  0  0  0  0  0  0  0
  145.6709   73.9009  218.4216 H   0  0  0  0  0  0  0  0  0  0  0  0
  145.5671   73.7334  221.4339 H   0  0  0  0  0  0  0  0  0  0  0  0
  145.7738   75.1966  220.3502 H   0  0  0  0  0  0  0  0  0  0  0  0
  143.4781   74.9010  221.4158 H   0  0  0  0  0  0  0  0  0  0  0  0
  144.1733   74.1887  217.7372 H   0  0  0  0  0  0  0  0  0  0  0  0
  143.5840   75.8841  216.0320 H   0  0  0  0  0  0  0  0  0  0  0  0
  142.5621   78.0582  216.6861 H   0  0  0  0  0  0  0  0  0  0  0  0
  142.7231   76.8246  220.7931 H   0  0  0  0  0  0  0  0  0  0  0  0
  138.0570   77.5439  222.4418 H   0  0  0  0  0  0  0  0  0  0  0  0
  138.3982   79.9120  223.0936 H   0  0  0  0  0  0  0  0  0  0  0  0
  139.9219   81.7422  223.6291 H   0  0  0  0  0  0  0  0  0  0  0  0
  142.2098   82.6414  223.9351 H   0  0  0  0  0  0  0  0  0  0  0  0
  144.1566   81.0831  223.5646 H   0  0  0  0  0  0  0  0  0  0  0  0
  143.7564   78.7199  222.9104 H   0  0  0  0  0  0  0  0  0  0  0  0
  1  2  2  0
  2  3  1  0
  3  4  1  0
  4  5  1  0
  5  6  2  0
  5  7  1  0
  7  8  1  0
  8  9  1  0
  9 10  1  0
 10 11  1  0
 11 12  1  0
 12 13  1  0
 13 14  2  0
 14 15  1  0
 15 16  2  0
 16 17  1  0
 17 18  1  0
 17 19  2  0
  2 20  1  0
 20 21  2  0
 21 22  1  0
 22 23  2  0
 23 24  1  0
 24 25  2  0
 25 26  1  0
 26 27  2  0
 27 28  1  0
 28 29  2  0
 12  7  1  0
 19 13  1  0
 29 20  1  0
 28 23  1  0
  3 30  1  0
  4 31  1  0
  4 32  1  0
  8 33  1  0
  8 34  1  0
  9 35  1  0
  9 36  1  0
 10 37  1  0
 10 38  1  0
 11 39  1  0
 11 40  1  0
 12 41  1  1
 14 42  1  0
 15 43  1  0
 16 44  1  0
 19 45  1  0
 21 46  1  0
 22 47  1  0
 24 48  1  0
 25 49  1  0
 26 50  1  0
 27 51  1  0
M  END
>  <smiles>  (72) 
O=C(NCC(=O)N1CCCCC1c1cccc(Cl)c1)c1ccc2ccccc2n1

>  <score_type>  (72) 
oracle

>  <origin>  (72) 
autodockgpu

>  <m_score__min__energy>  (72) 
-9.2300000000000004

>  <m_primary>  (72) 
energy

>  <rmsd>  (72) 
7.725411433027914

>  <m_score__min__rmsd>  (72) 
7.725411433027914

>  <meeko>  (72) 
{"free_energy": -7.93, "intermolecular_energy": -9.43, "internal_energy": -2.63, "cluster_size": 7, "cluster_id": 7, "rank_in_cluster": 2}

>  <energy>  (72) 
-8.96

>  <cluster_rmsd>  (72) 
0.1

>  <cluster>  (72) 
2

$$$$

     RDKit          3D

 51 54  0  0  0  0  0  0  0  0999 V2000
  138.6580   71.1050  221.5710 O   0  0  0  0  0  0  0  0  0  0  0  0
  139.1600   71.6100  222.6310 C   0  0  0  0  0  0  0  0  0  0  0  0
  139.5140   72.9990  222.6700 N   0  0  0  0  0  0  0  0  0  0  0  0
  139.2850   73.7930  221.4860 C   0  0  0  0  0  0  0  0  0  0  0  0
  140.3950   74.7290  221.2300 C   0  0  0  0  0  0  0  0  0  0  0  0
  141.4200   74.6670  221.9550 O   0  0  0  0  0  0  0  0  0  0  0  0
  140.3850   75.7080  220.2070 N   0  0  0  0  0  0  0  0  0  0  0  0
  139.5730   75.4690  219.0300 C   0  0  0  0  0  0  0  0  0  0  0  0
  138.7160   76.6350  218.6550 C   0  0  0  0  0  0  0  0  0  0  0  0
  139.4670   77.9230  218.6430 C   0  0  0  0  0  0  0  0  0  0  0  0
  140.9110   77.7340  218.9980 C   0  0  0  0  0  0  0  0  0  0  0  0
  141.1390   76.9410  220.2560 C   0  0  1  0  0  0  0  0  0  0  0  0
  140.7970   77.7900  221.4170 C   0  0  0  0  0  0  0  0  0  0  0  0
  139.5720   77.7960  222.0400 C   0  0  0  0  0  0  0  0  0  0  0  0
  139.3440   78.6360  223.1220 C   0  0  0  0  0  0  0  0  0  0  0  0
  140.3340   79.4860  223.6020 C   0  0  0  0  0  0  0  0  0  0  0  0
  141.5690   79.4830  222.9780 C   0  0  0  0  0  0  0  0  0  0  0  0
  142.8850   80.5250  223.5170 Cl  0  0  0  0  0  0  0  0  0  0  0  0
  141.7860   78.6460  221.9060 C   0  0  0  0  0  0  0  0  0  0  0  0
  139.3850   70.7870  223.8270 C   0  0  0  0  0  0  0  0  0  0  0  0
  138.9750   69.4640  223.7920 C   0  0  0  0  0  0  0  0  0  0  0  0
  139.1760   68.6710  224.9030 C   0  0  0  0  0  0  0  0  0  0  0  0
  139.7770   69.1780  226.0380 C   0  0  0  0  0  0  0  0  0  0  0  0
  139.9970   68.4230  227.1720 C   0  0  0  0  0  0  0  0  0  0  0  0
  140.5970   68.9220  228.3090 C   0  0  0  0  0  0  0  0  0  0  0  0
  140.9900   70.2650  228.2840 C   0  0  0  0  0  0  0  0  0  0  0  0
  140.7740   71.0450  227.1430 C   0  0  0  0  0  0  0  0  0  0  0  0
  140.1710   70.5200  226.0170 C   0  0  0  0  0  0  0  0  0  0  0  0
  139.9710   71.2870  224.9290 N   0  0  0  0  0  0  0  0  0  0  0  0
  139.9200   73.3650  223.5580 H   0  0  0  0  0  0  0  0  0  0  0  0
  139.1798   73.1208  220.6216 H   0  0  0  0  0  0  0  0  0  0  0  0
  138.3699   74.3831  221.6423 H   0  0  0  0  0  0  0  0  0  0  0  0
  140.2405   75.2408  218.1860 H   0  0  0  0  0  0  0  0  0  0  0  0
  138.8990   74.6318  219.2642 H   0  0  0  0  0  0  0  0  0  0  0  0
  138.3032   76.4593  217.6506 H   0  0  0  0  0  0  0  0  0  0  0  0
  137.9230   76.7207  219.4125 H   0  0  0  0  0  0  0  0  0  0  0  0
  139.4032   78.3620  217.6364 H   0  0  0  0  0  0  0  0  0  0  0  0
  139.0160   78.5865  219.3956 H   0  0  0  0  0  0  0  0  0  0  0  0
  141.4049   77.2105  218.1661 H   0  0  0  0  0  0  0  0  0  0  0  0
  141.3259   78.7368  219.1774 H   0  0  0  0  0  0  0  0  0  0  0  0
  142.1953   76.6505  220.3550 H   0  0  0  0  0  0  0  0  0  0  0  0
  138.7704   77.1339  221.6807 H   0  0  0  0  0  0  0  0  0  0  0  0
  138.3583   78.6287  223.6101 H   0  0  0  0  0  0  0  0  0  0  0  0
  140.1396   80.1468  224.4596 H   0  0  0  0  0  0  0  0  0  0  0  0
  142.7720   78.6520  221.4184 H   0  0  0  0  0  0  0  0  0  0  0  0
  138.4962   69.0518  222.8915 H   0  0  0  0  0  0  0  0  0  0  0  0
  138.8528   67.6197  224.8843 H   0  0  0  0  0  0  0  0  0  0  0  0
  139.6777   67.3703  227.1688 H   0  0  0  0  0  0  0  0  0  0  0  0
  140.7595   68.2924  229.1962 H   0  0  0  0  0  0  0  0  0  0  0  0
  141.4718   70.7100  229.1671 H   0  0  0  0  0  0  0  0  0  0  0  0
  141.0910   72.0983  227.1427 H   0  0  0  0  0  0  0  0  0  0  0  0
  1  2  2  0
  2  3  1  0
  3  4  1  0
  4  5  1  0
  5  6  2  0
  5  7  1  0
  7  8  1  0
  8  9  1  0
  9 10  1  0
 10 11  1  0
 11 12  1  0
 12 13  1  0
 13 14  2  0
 14 15  1  0
 15 16  2  0
 16 17  1  0
 17 18  1  0
 17 19  2  0
  2 20  1  0
 20 21  2  0
 21 22  1  0
 22 23  2  0
 23 24  1  0
 24 25  2  0
 25 26  1  0
 26 27  2  0
 27 28  1  0
 28 29  2  0
 12  7  1  0
 19 13  1  0
 29 20  1  0
 28 23  1  0
  3 30  1  0
  4 31  1  0
  4 32  1  0
  8 33  1  0
  8 34  1  0
  9 35  1  0
  9 36  1  0
 10 37  1  0
 10 38  1  0
 11 39  1  0
 11 40  1  0
 12 41  1  1
 14 42  1  0
 15 43  1  0
 16 44  1  0
 19 45  1  0
 21 46  1  0
 22 47  1  0
 24 48  1  0
 25 49  1  0
 26 50  1  0
 27 51  1  0
M  END
>  <smiles>  (73) 
O=C(NCC(=O)N1CCCCC1c1cccc(Cl)c1)c1ccc2ccccc2n1

>  <score_type>  (73) 
oracle

>  <origin>  (73) 
autodockgpu

>  <m_score__min__energy>  (73) 
-9.2300000000000004

>  <m_primary>  (73) 
energy

>  <rmsd>  (73) 
1.1510589941059965

>  <m_score__min__rmsd>  (73) 
1.1510589941059965

>  <meeko>  (73) 
{"free_energy": -8.41, "intermolecular_energy": -9.9, "internal_energy": -1.87, "cluster_size": 17, "cluster_id": 1, "rank_in_cluster": 14}

>  <energy>  (73) 
-8.95

>  <cluster_rmsd>  (73) 
0.21

>  <cluster>  (73) 
2

$$$$

     RDKit          3D

 51 54  0  0  0  0  0  0  0  0999 V2000
  141.4270   71.8210  221.5250 O   0  0  0  0  0  0  0  0  0  0  0  0
  140.6800   72.3050  222.4420 C   0  0  0  0  0  0  0  0  0  0  0  0
  140.1640   73.6380  222.3240 N   0  0  0  0  0  0  0  0  0  0  0  0
  140.5140   74.4010  221.1490 C   0  0  0  0  0  0  0  0  0  0  0  0
  140.2500   75.8400  221.3300 C   0  0  0  0  0  0  0  0  0  0  0  0
  139.7800   76.2360  222.4270 O   0  0  0  0  0  0  0  0  0  0  0  0
  140.4940   76.8210  220.3390 N   0  0  0  0  0  0  0  0  0  0  0  0
  139.6280   76.8610  219.1780 C   0  0  0  0  0  0  0  0  0  0  0  0
  139.1220   78.2320  218.8640 C   0  0  0  0  0  0  0  0  0  0  0  0
  140.2010   79.2610  218.8710 C   0  0  0  0  0  0  0  0  0  0  0  0
  141.5420   78.6660  219.1800 C   0  0  0  0  0  0  0  0  0  0  0  0
  141.5620   77.7940  220.4060 C   0  0  1  0  0  0  0  0  0  0  0  0
  141.4910   78.6600  221.6020 C   0  0  0  0  0  0  0  0  0  0  0  0
  142.5850   79.0980  222.3100 C   0  0  0  0  0  0  0  0  0  0  0  0
  142.4160   79.9050  223.4260 C   0  0  0  0  0  0  0  0  0  0  0  0
  141.1520   80.2910  223.8580 C   0  0  0  0  0  0  0  0  0  0  0  0
  140.0470   79.8530  223.1490 C   0  0  0  0  0  0  0  0  0  0  0  0
  138.4060   80.2900  223.6200 Cl  0  0  0  0  0  0  0  0  0  0  0  0
  140.2250   79.0520  222.0420 C   0  0  0  0  0  0  0  0  0  0  0  0
  140.3330   71.5130  223.6300 C   0  0  0  0  0  0  0  0  0  0  0  0
  139.5910   70.3570  223.4460 C   0  0  0  0  0  0  0  0  0  0  0  0
  139.2540   69.5970  224.5470 C   0  0  0  0  0  0  0  0  0  0  0  0
  139.6450   69.9720  225.8170 C   0  0  0  0  0  0  0  0  0  0  0  0
  139.3310   69.2440  226.9450 C   0  0  0  0  0  0  0  0  0  0  0  0
  139.7180   69.6110  228.2170 C   0  0  0  0  0  0  0  0  0  0  0  0
  140.4660   70.7880  228.3380 C   0  0  0  0  0  0  0  0  0  0  0  0
  140.7940   71.5390  227.2050 C   0  0  0  0  0  0  0  0  0  0  0  0
  140.3930   71.1480  225.9420 C   0  0  0  0  0  0  0  0  0  0  0  0
  140.7180   71.8840  224.8640 N   0  0  0  0  0  0  0  0  0  0  0  0
  139.5590   73.9880  223.0970 H   0  0  0  0  0  0  0  0  0  0  0  0
  141.5844   74.2594  220.9387 H   0  0  0  0  0  0  0  0  0  0  0  0
  139.8952   74.0431  220.3129 H   0  0  0  0  0  0  0  0  0  0  0  0
  140.1914   76.4895  218.3094 H   0  0  0  0  0  0  0  0  0  0  0  0
  138.7524   76.2345  219.4033 H   0  0  0  0  0  0  0  0  0  0  0  0
  138.6581   78.2157  217.8667 H   0  0  0  0  0  0  0  0  0  0  0  0
  138.3981   78.5053  219.6459 H   0  0  0  0  0  0  0  0  0  0  0  0
  140.2436   79.7378  217.8806 H   0  0  0  0  0  0  0  0  0  0  0  0
  139.9657   79.9949  219.6559 H   0  0  0  0  0  0  0  0  0  0  0  0
  141.8563   78.0579  218.3189 H   0  0  0  0  0  0  0  0  0  0  0  0
  142.2227   79.5069  219.3790 H   0  0  0  0  0  0  0  0  0  0  0  0
  142.4971   77.2180  220.4670 H   0  0  0  0  0  0  0  0  0  0  0  0
  143.5970   78.8079  221.9909 H   0  0  0  0  0  0  0  0  0  0  0  0
  143.3018   80.2470  223.9814 H   0  0  0  0  0  0  0  0  0  0  0  0
  141.0328   80.9310  224.7446 H   0  0  0  0  0  0  0  0  0  0  0  0
  139.3397   78.7097  221.4860 H   0  0  0  0  0  0  0  0  0  0  0  0
  139.2757   70.0502  222.4378 H   0  0  0  0  0  0  0  0  0  0  0  0
  138.6647   68.6782  224.4110 H   0  0  0  0  0  0  0  0  0  0  0  0
  138.7415   68.3232  226.8243 H   0  0  0  0  0  0  0  0  0  0  0  0
  139.4510   69.0063  229.0963 H   0  0  0  0  0  0  0  0  0  0  0  0
  140.7981   71.1245  229.3312 H   0  0  0  0  0  0  0  0  0  0  0  0
  141.3836   72.4603  227.3217 H   0  0  0  0  0  0  0  0  0  0  0  0
  1  2  2  0
  2  3  1  0
  3  4  1  0
  4  5  1  0
  5  6  2  0
  5  7  1  0
  7  8  1  0
  8  9  1  0
  9 10  1  0
 10 11  1  0
 11 12  1  0
 12 13  1  0
 13 14  2  0
 14 15  1  0
 15 16  2  0
 16 17  1  0
 17 18  1  0
 17 19  2  0
  2 20  1  0
 20 21  2  0
 21 22  1  0
 22 23  2  0
 23 24  1  0
 24 25  2  0
 25 26  1  0
 26 27  2  0
 27 28  1  0
 28 29  2  0
 12  7  1  0
 19 13  1  0
 29 20  1  0
 28 23  1  0
  3 30  1  0
  4 31  1  0
  4 32  1  0
  8 33  1  0
  8 34  1  0
  9 35  1  0
  9 36  1  0
 10 37  1  0
 10 38  1  0
 11 39  1  0
 11 40  1  0
 12 41  1  1
 14 42  1  0
 15 43  1  0
 16 44  1  0
 19 45  1  0
 21 46  1  0
 22 47  1  0
 24 48  1  0
 25 49  1  0
 26 50  1  0
 27 51  1  0
M  END
>  <smiles>  (74) 
O=C(NCC(=O)N1CCCCC1c1cccc(Cl)c1)c1ccc2ccccc2n1

>  <score_type>  (74) 
oracle

>  <origin>  (74) 
autodockgpu

>  <m_score__min__energy>  (74) 
-9.2300000000000004

>  <m_primary>  (74) 
energy

>  <rmsd>  (74) 
1.9254352510018515

>  <m_score__min__rmsd>  (74) 
1.9254352510018515

>  <meeko>  (74) 
{"free_energy": -8.73, "intermolecular_energy": -10.22, "internal_energy": -1.77, "cluster_size": 17, "cluster_id": 1, "rank_in_cluster": 12}

>  <energy>  (74) 
-8.93

>  <cluster_rmsd>  (74) 
0.12

>  <cluster>  (74) 
2

$$$$

     RDKit          3D

 51 54  0  0  0  0  0  0  0  0999 V2000
  140.8670   71.5320  221.3860 O   0  0  0  0  0  0  0  0  0  0  0  0
  140.3560   72.0180  222.4510 C   0  0  0  0  0  0  0  0  0  0  0  0
  139.9320   73.3870  222.4880 N   0  0  0  0  0  0  0  0  0  0  0  0
  140.1000   74.1840  221.2960 C   0  0  0  0  0  0  0  0  0  0  0  0
  139.6910   75.5840  221.5080 C   0  0  0  0  0  0  0  0  0  0  0  0
  139.2920   75.9320  222.6480 O   0  0  0  0  0  0  0  0  0  0  0  0
  139.7180   76.5780  220.5010 N   0  0  0  0  0  0  0  0  0  0  0  0
  138.6200   76.6350  219.5560 C   0  0  0  0  0  0  0  0  0  0  0  0
  138.0620   78.0100  219.3780 C   0  0  0  0  0  0  0  0  0  0  0  0
  139.1210   79.0390  219.1650 C   0  0  0  0  0  0  0  0  0  0  0  0
  140.4950   78.4390  219.1670 C   0  0  0  0  0  0  0  0  0  0  0  0
  140.7780   77.5500  220.3480 C   0  0  1  0  0  0  0  0  0  0  0  0
  140.9700   78.4000  221.5430 C   0  0  0  0  0  0  0  0  0  0  0  0
  142.1960   78.7600  222.0490 C   0  0  0  0  0  0  0  0  0  0  0  0
  142.2750   79.5580  223.1830 C   0  0  0  0  0  0  0  0  0  0  0  0
  141.1320   80.0110  223.8320 C   0  0  0  0  0  0  0  0  0  0  0  0
  139.8950   79.6520  223.3250 C   0  0  0  0  0  0  0  0  0  0  0  0
  138.3920   80.1790  224.0790 Cl  0  0  0  0  0  0  0  0  0  0  0  0
  139.8270   78.8600  222.2000 C   0  0  0  0  0  0  0  0  0  0  0  0
  140.1910   71.1920  223.6550 C   0  0  0  0  0  0  0  0  0  0  0  0
  139.5610   69.9650  223.5200 C   0  0  0  0  0  0  0  0  0  0  0  0
  139.3950   69.1720  224.6360 C   0  0  0  0  0  0  0  0  0  0  0  0
  139.8470   69.5830  225.8740 C   0  0  0  0  0  0  0  0  0  0  0  0
  139.7020   68.8240  227.0170 C   0  0  0  0  0  0  0  0  0  0  0  0
  140.1520   69.2280  228.2570 C   0  0  0  0  0  0  0  0  0  0  0  0
  140.7810   70.4750  228.3300 C   0  0  0  0  0  0  0  0  0  0  0  0
  140.9350   71.2590  227.1810 C   0  0  0  0  0  0  0  0  0  0  0  0
  140.4760   70.8300  225.9510 C   0  0  0  0  0  0  0  0  0  0  0  0
  140.6340   71.5990  224.8580 N   0  0  0  0  0  0  0  0  0  0  0  0
  139.5210   73.7380  223.3800 H   0  0  0  0  0  0  0  0  0  0  0  0
  141.1596   74.1639  221.0014 H   0  0  0  0  0  0  0  0  0  0  0  0
  139.4609   73.7580  220.5085 H   0  0  0  0  0  0  0  0  0  0  0  0
  138.9801   76.2757  218.5807 H   0  0  0  0  0  0  0  0  0  0  0  0
  137.8122   76.0058  219.9579 H   0  0  0  0  0  0  0  0  0  0  0  0
  137.3930   78.0078  218.5048 H   0  0  0  0  0  0  0  0  0  0  0  0
  137.5253   78.2724  220.3016 H   0  0  0  0  0  0  0  0  0  0  0  0
  138.9493   79.5301  218.1958 H   0  0  0  0  0  0  0  0  0  0  0  0
  139.0643   79.7615  219.9925 H   0  0  0  0  0  0  0  0  0  0  0  0
  140.6124   77.8426  218.2502 H   0  0  0  0  0  0  0  0  0  0  0  0
  141.2057   79.2766  219.2243 H   0  0  0  0  0  0  0  0  0  0  0  0
  141.7026   76.9734  220.1972 H   0  0  0  0  0  0  0  0  0  0  0  0
  143.1164   78.4155  221.5549 H   0  0  0  0  0  0  0  0  0  0  0  0
  143.2635   79.8377  223.5762 H   0  0  0  0  0  0  0  0  0  0  0  0
  141.2091   80.6417  224.7299 H   0  0  0  0  0  0  0  0  0  0  0  0
  138.8388   78.5805  221.8059 H   0  0  0  0  0  0  0  0  0  0  0  0
  139.1988   69.6286  222.5373 H   0  0  0  0  0  0  0  0  0  0  0  0
  138.8948   68.1972  224.5382 H   0  0  0  0  0  0  0  0  0  0  0  0
  139.2024   67.8474  226.9355 H   0  0  0  0  0  0  0  0  0  0  0  0
  140.0218   68.5973  229.1488 H   0  0  0  0  0  0  0  0  0  0  0  0
  141.1570   70.8418  229.2965 H   0  0  0  0  0  0  0  0  0  0  0  0
  141.4319   72.2372  227.2591 H   0  0  0  0  0  0  0  0  0  0  0  0
  1  2  2  0
  2  3  1  0
  3  4  1  0
  4  5  1  0
  5  6  2  0
  5  7  1  0
  7  8  1  0
  8  9  1  0
  9 10  1  0
 10 11  1  0
 11 12  1  0
 12 13  1  0
 13 14  2  0
 14 15  1  0
 15 16  2  0
 16 17  1  0
 17 18  1  0
 17 19  2  0
  2 20  1  0
 20 21  2  0
 21 22  1  0
 22 23  2  0
 23 24  1  0
 24 25  2  0
 25 26  1  0
 26 27  2  0
 27 28  1  0
 28 29  2  0
 12  7  1  0
 19 13  1  0
 29 20  1  0
 28 23  1  0
  3 30  1  0
  4 31  1  0
  4 32  1  0
  8 33  1  0
  8 34  1  0
  9 35  1  0
  9 36  1  0
 10 37  1  0
 10 38  1  0
 11 39  1  0
 11 40  1  0
 12 41  1  6
 14 42  1  0
 15 43  1  0
 16 44  1  0
 19 45  1  0
 21 46  1  0
 22 47  1  0
 24 48  1  0
 25 49  1  0
 26 50  1  0
 27 51  1  0
M  END
>  <smiles>  (75) 
O=C(NCC(=O)N1CCCCC1c1cccc(Cl)c1)c1ccc2ccccc2n1

>  <score_type>  (75) 
oracle

>  <origin>  (75) 
autodockgpu

>  <m_score__min__energy>  (75) 
-9.2300000000000004

>  <m_primary>  (75) 
energy

>  <rmsd>  (75) 
1.7926240489519487

>  <m_score__min__rmsd>  (75) 
1.7926240489519487

>  <meeko>  (75) 
{"free_energy": -8.33, "intermolecular_energy": -9.82, "internal_energy": -1.88, "cluster_size": 17, "cluster_id": 1, "rank_in_cluster": 15}

>  <energy>  (75) 
-8.9

>  <cluster_rmsd>  (75) 
0.23

>  <cluster>  (75) 
2

$$$$

     RDKit          3D

 51 54  0  0  0  0  0  0  0  0999 V2000
  140.2810   71.0350  221.2590 O   0  0  0  0  0  0  0  0  0  0  0  0
  140.0330   71.6560  222.3470 C   0  0  0  0  0  0  0  0  0  0  0  0
  139.7660   73.0650  222.3280 N   0  0  0  0  0  0  0  0  0  0  0  0
  139.7880   73.7450  221.0540 C   0  0  0  0  0  0  0  0  0  0  0  0
  140.6510   74.9400  221.0840 C   0  0  0  0  0  0  0  0  0  0  0  0
  140.9120   75.4700  222.1930 O   0  0  0  0  0  0  0  0  0  0  0  0
  141.2130   75.5390  219.9310 N   0  0  0  0  0  0  0  0  0  0  0  0
  140.9720   76.9480  219.6970 C   0  0  0  0  0  0  0  0  0  0  0  0
  142.2120   77.7160  219.3720 C   0  0  0  0  0  0  0  0  0  0  0  0
  143.0500   77.0470  218.3350 C   0  0  0  0  0  0  0  0  0  0  0  0
  142.4350   75.7670  217.8570 C   0  0  0  0  0  0  0  0  0  0  0  0
  142.0200   74.8320  218.9610 C   0  0  1  0  0  0  0  0  0  0  0  0
  143.2350   74.2200  219.5430 C   0  0  0  0  0  0  0  0  0  0  0  0
  144.1300   74.8870  220.3450 C   0  0  0  0  0  0  0  0  0  0  0  0
  145.2470   74.2280  220.8400 C   0  0  0  0  0  0  0  0  0  0  0  0
  145.4920   72.8920  220.5430 C   0  0  0  0  0  0  0  0  0  0  0  0
  144.5930   72.2170  219.7360 C   0  0  0  0  0  0  0  0  0  0  0  0
  144.8190   70.5220  219.3070 Cl  0  0  0  0  0  0  0  0  0  0  0  0
  143.4870   72.8790  219.2500 C   0  0  0  0  0  0  0  0  0  0  0  0
  140.0140   70.9480  223.6340 C   0  0  0  0  0  0  0  0  0  0  0  0
  139.5430   69.6450  223.6510 C   0  0  0  0  0  0  0  0  0  0  0  0
  139.5160   68.9590  224.8480 C   0  0  0  0  0  0  0  0  0  0  0  0
  139.9500   69.5520  226.0170 C   0  0  0  0  0  0  0  0  0  0  0  0
  139.9400   68.9060  227.2360 C   0  0  0  0  0  0  0  0  0  0  0  0
  140.3720   69.4920  228.4080 C   0  0  0  0  0  0  0  0  0  0  0  0
  140.8370   70.8090  228.3260 C   0  0  0  0  0  0  0  0  0  0  0  0
  140.8530   71.4800  227.0980 C   0  0  0  0  0  0  0  0  0  0  0  0
  140.4150   70.8700  225.9390 C   0  0  0  0  0  0  0  0  0  0  0  0
  140.4380   71.5320  224.7680 N   0  0  0  0  0  0  0  0  0  0  0  0
  139.5690   73.5280  223.2410 H   0  0  0  0  0  0  0  0  0  0  0  0
  140.1660   73.0524  220.2876 H   0  0  0  0  0  0  0  0  0  0  0  0
  138.7628   74.0703  220.8232 H   0  0  0  0  0  0  0  0  0  0  0  0
  140.2701   77.0467  218.8558 H   0  0  0  0  0  0  0  0  0  0  0  0
  140.5653   77.3672  220.6291 H   0  0  0  0  0  0  0  0  0  0  0  0
  141.9227   78.7108  219.0023 H   0  0  0  0  0  0  0  0  0  0  0  0
  142.8120   77.7816  220.2916 H   0  0  0  0  0  0  0  0  0  0  0  0
  143.1654   77.7273  217.4783 H   0  0  0  0  0  0  0  0  0  0  0  0
  144.0239   76.8082  218.7871 H   0  0  0  0  0  0  0  0  0  0  0  0
  141.5441   76.0138  217.2608 H   0  0  0  0  0  0  0  0  0  0  0  0
  143.2069   75.2441  217.2733 H   0  0  0  0  0  0  0  0  0  0  0  0
  141.3897   74.0175  218.5745 H   0  0  0  0  0  0  0  0  0  0  0  0
  143.9609   75.9448  220.5950 H   0  0  0  0  0  0  0  0  0  0  0  0
  145.9539   74.7748  221.4813 H   0  0  0  0  0  0  0  0  0  0  0  0
  146.3818   72.3823  220.9411 H   0  0  0  0  0  0  0  0  0  0  0  0
  142.7789   72.3325  218.6097 H   0  0  0  0  0  0  0  0  0  0  0  0
  139.1958   69.1647  222.7243 H   0  0  0  0  0  0  0  0  0  0  0  0
  139.1432   67.9244  224.8713 H   0  0  0  0  0  0  0  0  0  0  0  0
  139.5688   67.8713  227.2755 H   0  0  0  0  0  0  0  0  0  0  0  0
  140.3517   68.9482  229.3639 H   0  0  0  0  0  0  0  0  0  0  0  0
  141.1924   71.3204  229.2327 H   0  0  0  0  0  0  0  0  0  0  0  0
  141.2223   72.5153  227.0550 H   0  0  0  0  0  0  0  0  0  0  0  0
  1  2  2  0
  2  3  1  0
  3  4  1  0
  4  5  1  0
  5  6  2  0
  5  7  1  0
  7  8  1  0
  8  9  1  0
  9 10  1  0
 10 11  1  0
 11 12  1  0
 12 13  1  0
 13 14  2  0
 14 15  1  0
 15 16  2  0
 16 17  1  0
 17 18  1  0
 17 19  2  0
  2 20  1  0
 20 21  2  0
 21 22  1  0
 22 23  2  0
 23 24  1  0
 24 25  2  0
 25 26  1  0
 26 27  2  0
 27 28  1  0
 28 29  2  0
 12  7  1  0
 19 13  1  0
 29 20  1  0
 28 23  1  0
  3 30  1  0
  4 31  1  0
  4 32  1  0
  8 33  1  0
  8 34  1  0
  9 35  1  0
  9 36  1  0
 10 37  1  0
 10 38  1  0
 11 39  1  0
 11 40  1  0
 12 41  1  6
 14 42  1  0
 15 43  1  0
 16 44  1  0
 19 45  1  0
 21 46  1  0
 22 47  1  0
 24 48  1  0
 25 49  1  0
 26 50  1  0
 27 51  1  0
M  END
>  <smiles>  (76) 
O=C(NCC(=O)N1CCCCC1c1cccc(Cl)c1)c1ccc2ccccc2n1

>  <score_type>  (76) 
oracle

>  <origin>  (76) 
autodockgpu

>  <m_score__min__energy>  (76) 
-9.2300000000000004

>  <m_primary>  (76) 
energy

>  <rmsd>  (76) 
1.9790786355302443

>  <m_score__min__rmsd>  (76) 
1.9790786355302443

>  <meeko>  (76) 
{"free_energy": -8.76, "intermolecular_energy": -10.25, "internal_energy": -1.91, "cluster_size": 21, "cluster_id": 2, "rank_in_cluster": 12}

>  <energy>  (76) 
-8.88

>  <cluster_rmsd>  (76) 
0.54

>  <cluster>  (76) 
2

$$$$

     RDKit          3D

 51 54  0  0  0  0  0  0  0  0999 V2000
  141.1390   71.9400  221.5440 O   0  0  0  0  0  0  0  0  0  0  0  0
  140.2780   72.2110  222.4470 C   0  0  0  0  0  0  0  0  0  0  0  0
  139.3620   73.3010  222.2670 N   0  0  0  0  0  0  0  0  0  0  0  0
  139.4490   74.0670  221.0460 C   0  0  0  0  0  0  0  0  0  0  0  0
  140.4790   75.1180  221.1300 C   0  0  0  0  0  0  0  0  0  0  0  0
  140.8380   75.5260  222.2630 O   0  0  0  0  0  0  0  0  0  0  0  0
  141.1000   75.7090  220.0030 N   0  0  0  0  0  0  0  0  0  0  0  0
  140.9600   77.1370  219.8050 C   0  0  0  0  0  0  0  0  0  0  0  0
  142.2560   77.8260  219.5210 C   0  0  0  0  0  0  0  0  0  0  0  0
  143.0630   77.1290  218.4780 C   0  0  0  0  0  0  0  0  0  0  0  0
  142.3690   75.9080  217.9550 C   0  0  0  0  0  0  0  0  0  0  0  0
  141.8720   74.9740  219.0250 C   0  0  1  0  0  0  0  0  0  0  0  0
  143.0320   74.2650  219.6070 C   0  0  0  0  0  0  0  0  0  0  0  0
  144.0630   74.8810  220.2750 C   0  0  0  0  0  0  0  0  0  0  0  0
  145.1150   74.1290  220.7810 C   0  0  0  0  0  0  0  0  0  0  0  0
  145.1560   72.7470  220.6310 C   0  0  0  0  0  0  0  0  0  0  0  0
  144.1200   72.1220  219.9600 C   0  0  0  0  0  0  0  0  0  0  0  0
  144.0860   70.3760  219.7210 Cl  0  0  0  0  0  0  0  0  0  0  0  0
  143.0810   72.8770  219.4610 C   0  0  0  0  0  0  0  0  0  0  0  0
  140.2030   71.4200  223.6830 C   0  0  0  0  0  0  0  0  0  0  0  0
  139.6250   70.1620  223.6150 C   0  0  0  0  0  0  0  0  0  0  0  0
  139.5450   69.4000  224.7620 C   0  0  0  0  0  0  0  0  0  0  0  0
  140.0310   69.8720  225.9650 C   0  0  0  0  0  0  0  0  0  0  0  0
  139.9710   69.1460  227.1360 C   0  0  0  0  0  0  0  0  0  0  0  0
  140.4540   69.6110  228.3420 C   0  0  0  0  0  0  0  0  0  0  0  0
  141.0270   70.8880  228.3470 C   0  0  0  0  0  0  0  0  0  0  0  0
  141.0950   71.6390  227.1680 C   0  0  0  0  0  0  0  0  0  0  0  0
  140.6040   71.1490  225.9740 C   0  0  0  0  0  0  0  0  0  0  0  0
  140.6790   71.8860  224.8510 N   0  0  0  0  0  0  0  0  0  0  0  0
  138.6780   73.4830  223.0320 H   0  0  0  0  0  0  0  0  0  0  0  0
  139.6998   73.3884  220.2174 H   0  0  0  0  0  0  0  0  0  0  0  0
  138.4771   74.5541  220.8786 H   0  0  0  0  0  0  0  0  0  0  0  0
  140.2814   77.3066  218.9560 H   0  0  0  0  0  0  0  0  0  0  0  0
  140.5664   77.5581  220.7419 H   0  0  0  0  0  0  0  0  0  0  0  0
  142.0426   78.8484  219.1757 H   0  0  0  0  0  0  0  0  0  0  0  0
  142.8434   77.8246  220.4510 H   0  0  0  0  0  0  0  0  0  0  0  0
  143.2392   77.8227  217.6427 H   0  0  0  0  0  0  0  0  0  0  0  0
  144.0106   76.8110  218.9373 H   0  0  0  0  0  0  0  0  0  0  0  0
  141.5074   76.2324  217.3530 H   0  0  0  0  0  0  0  0  0  0  0  0
  143.1129   75.3489  217.3685 H   0  0  0  0  0  0  0  0  0  0  0  0
  141.1937   74.2159  218.6064 H   0  0  0  0  0  0  0  0  0  0  0  0
  144.0549   75.9727  220.4092 H   0  0  0  0  0  0  0  0  0  0  0  0
  145.9334   74.6373  221.3119 H   0  0  0  0  0  0  0  0  0  0  0  0
  145.9948   72.1629  221.0374 H   0  0  0  0  0  0  0  0  0  0  0  0
  142.2625   72.3693  218.9297 H   0  0  0  0  0  0  0  0  0  0  0  0
  139.2360   69.7772  222.6608 H   0  0  0  0  0  0  0  0  0  0  0  0
  139.0869   68.4009  224.7175 H   0  0  0  0  0  0  0  0  0  0  0  0
  139.5149   68.1454  227.1071 H   0  0  0  0  0  0  0  0  0  0  0  0
  140.3915   69.0054  229.2582 H   0  0  0  0  0  0  0  0  0  0  0  0
  141.4264   71.3040  229.2837 H   0  0  0  0  0  0  0  0  0  0  0  0
  141.5491   72.6406  227.1930 H   0  0  0  0  0  0  0  0  0  0  0  0
  1  2  2  0
  2  3  1  0
  3  4  1  0
  4  5  1  0
  5  6  2  0
  5  7  1  0
  7  8  1  0
  8  9  1  0
  9 10  1  0
 10 11  1  0
 11 12  1  0
 12 13  1  0
 13 14  2  0
 14 15  1  0
 15 16  2  0
 16 17  1  0
 17 18  1  0
 17 19  2  0
  2 20  1  0
 20 21  2  0
 21 22  1  0
 22 23  2  0
 23 24  1  0
 24 25  2  0
 25 26  1  0
 26 27  2  0
 27 28  1  0
 28 29  2  0
 12  7  1  0
 19 13  1  0
 29 20  1  0
 28 23  1  0
  3 30  1  0
  4 31  1  0
  4 32  1  0
  8 33  1  0
  8 34  1  0
  9 35  1  0
  9 36  1  0
 10 37  1  0
 10 38  1  0
 11 39  1  0
 11 40  1  0
 12 41  1  6
 14 42  1  0
 15 43  1  0
 16 44  1  0
 19 45  1  0
 21 46  1  0
 22 47  1  0
 24 48  1  0
 25 49  1  0
 26 50  1  0
 27 51  1  0
M  END
>  <smiles>  (77) 
O=C(NCC(=O)N1CCCCC1c1cccc(Cl)c1)c1ccc2ccccc2n1

>  <score_type>  (77) 
oracle

>  <origin>  (77) 
autodockgpu

>  <m_score__min__energy>  (77) 
-9.2300000000000004

>  <m_primary>  (77) 
energy

>  <rmsd>  (77) 
2.0453867297726043

>  <m_score__min__rmsd>  (77) 
2.0453867297726043

>  <meeko>  (77) 
{"free_energy": -8.88, "intermolecular_energy": -10.38, "internal_energy": -1.83, "cluster_size": 21, "cluster_id": 2, "rank_in_cluster": 9}

>  <energy>  (77) 
-8.82

>  <cluster_rmsd>  (77) 
0.26

>  <cluster>  (77) 
2

$$$$

     RDKit          3D

 51 54  0  0  0  0  0  0  0  0999 V2000
  140.3600   70.8980  221.3150 O   0  0  0  0  0  0  0  0  0  0  0  0
  140.0750   71.5210  222.3940 C   0  0  0  0  0  0  0  0  0  0  0  0
  139.8010   72.9280  222.3630 N   0  0  0  0  0  0  0  0  0  0  0  0
  139.8570   73.6050  221.0880 C   0  0  0  0  0  0  0  0  0  0  0  0
  140.4750   74.9380  221.2020 C   0  0  0  0  0  0  0  0  0  0  0  0
  140.4770   75.5120  222.3200 O   0  0  0  0  0  0  0  0  0  0  0  0
  141.0750   75.6270  220.1200 N   0  0  0  0  0  0  0  0  0  0  0  0
  140.8890   77.0610  220.0240 C   0  0  0  0  0  0  0  0  0  0  0  0
  142.1610   77.8090  219.7900 C   0  0  0  0  0  0  0  0  0  0  0  0
  142.9890   77.2150  218.7010 C   0  0  0  0  0  0  0  0  0  0  0  0
  142.3340   76.0120  218.0920 C   0  0  0  0  0  0  0  0  0  0  0  0
  141.8690   74.9890  219.0930 C   0  0  1  0  0  0  0  0  0  0  0  0
  143.0520   74.2780  219.6240 C   0  0  0  0  0  0  0  0  0  0  0  0
  144.1180   74.8940  220.2350 C   0  0  0  0  0  0  0  0  0  0  0  0
  145.1880   74.1400  220.6960 C   0  0  0  0  0  0  0  0  0  0  0  0
  145.2150   72.7570  220.5560 C   0  0  0  0  0  0  0  0  0  0  0  0
  144.1440   72.1320  219.9420 C   0  0  0  0  0  0  0  0  0  0  0  0
  144.0890   70.3840  219.7210 Cl  0  0  0  0  0  0  0  0  0  0  0  0
  143.0860   72.8890  219.4880 C   0  0  0  0  0  0  0  0  0  0  0  0
  140.0210   70.8160  223.6810 C   0  0  0  0  0  0  0  0  0  0  0  0
  139.3870   69.5850  223.7220 C   0  0  0  0  0  0  0  0  0  0  0  0
  139.3250   68.9040  224.9200 C   0  0  0  0  0  0  0  0  0  0  0  0
  139.8830   69.4310  226.0670 C   0  0  0  0  0  0  0  0  0  0  0  0
  139.8440   68.7860  227.2860 C   0  0  0  0  0  0  0  0  0  0  0  0
  140.4000   69.3060  228.4370 C   0  0  0  0  0  0  0  0  0  0  0  0
  141.0270   70.5520  228.3320 C   0  0  0  0  0  0  0  0  0  0  0  0
  141.0760   71.2210  227.1040 C   0  0  0  0  0  0  0  0  0  0  0  0
  140.5110   70.6770  225.9670 C   0  0  0  0  0  0  0  0  0  0  0  0
  140.5680   71.3350  224.7950 N   0  0  0  0  0  0  0  0  0  0  0  0
  139.5730   73.3920  223.2690 H   0  0  0  0  0  0  0  0  0  0  0  0
  140.4488   72.9970  220.3879 H   0  0  0  0  0  0  0  0  0  0  0  0
  138.8268   73.7360  220.7253 H   0  0  0  0  0  0  0  0  0  0  0  0
  140.2035   77.2688  219.1892 H   0  0  0  0  0  0  0  0  0  0  0  0
  140.4842   77.4016  220.9884 H   0  0  0  0  0  0  0  0  0  0  0  0
  141.9140   78.8458  219.5179 H   0  0  0  0  0  0  0  0  0  0  0  0
  142.7496   77.7597  220.7179 H   0  0  0  0  0  0  0  0  0  0  0  0
  143.1413   77.9717  217.9173 H   0  0  0  0  0  0  0  0  0  0  0  0
  143.9473   76.8966  219.1372 H   0  0  0  0  0  0  0  0  0  0  0  0
  141.4615   76.3501  217.5137 H   0  0  0  0  0  0  0  0  0  0  0  0
  143.0947   75.5202  217.4679 H   0  0  0  0  0  0  0  0  0  0  0  0
  141.2147   74.2412  218.6211 H   0  0  0  0  0  0  0  0  0  0  0  0
  144.1230   75.9870  220.3589 H   0  0  0  0  0  0  0  0  0  0  0  0
  146.0335   74.6478  221.1830 H   0  0  0  0  0  0  0  0  0  0  0  0
  146.0700   72.1718  220.9256 H   0  0  0  0  0  0  0  0  0  0  0  0
  142.2395   72.3818  219.0020 H   0  0  0  0  0  0  0  0  0  0  0  0
  138.9397   69.1569  222.8128 H   0  0  0  0  0  0  0  0  0  0  0  0
  138.8232   67.9260  224.9618 H   0  0  0  0  0  0  0  0  0  0  0  0
  139.3444   67.8077  227.3433 H   0  0  0  0  0  0  0  0  0  0  0  0
  140.3523   68.7652  229.3937 H   0  0  0  0  0  0  0  0  0  0  0  0
  141.4849   71.0093  229.2214 H   0  0  0  0  0  0  0  0  0  0  0  0
  141.5744   72.1997  227.0429 H   0  0  0  0  0  0  0  0  0  0  0  0
  1  2  2  0
  2  3  1  0
  3  4  1  0
  4  5  1  0
  5  6  2  0
  5  7  1  0
  7  8  1  0
  8  9  1  0
  9 10  1  0
 10 11  1  0
 11 12  1  0
 12 13  1  0
 13 14  2  0
 14 15  1  0
 15 16  2  0
 16 17  1  0
 17 18  1  0
 17 19  2  0
  2 20  1  0
 20 21  2  0
 21 22  1  0
 22 23  2  0
 23 24  1  0
 24 25  2  0
 25 26  1  0
 26 27  2  0
 27 28  1  0
 28 29  2  0
 12  7  1  0
 19 13  1  0
 29 20  1  0
 28 23  1  0
  3 30  1  0
  4 31  1  0
  4 32  1  0
  8 33  1  0
  8 34  1  0
  9 35  1  0
  9 36  1  0
 10 37  1  0
 10 38  1  0
 11 39  1  0
 11 40  1  0
 12 41  1  6
 14 42  1  0
 15 43  1  0
 16 44  1  0
 19 45  1  0
 21 46  1  0
 22 47  1  0
 24 48  1  0
 25 49  1  0
 26 50  1  0
 27 51  1  0
M  END
>  <smiles>  (78) 
O=C(NCC(=O)N1CCCCC1c1cccc(Cl)c1)c1ccc2ccccc2n1

>  <score_type>  (78) 
oracle

>  <origin>  (78) 
autodockgpu

>  <m_score__min__energy>  (78) 
-9.2300000000000004

>  <m_primary>  (78) 
energy

>  <rmsd>  (78) 
2.0055795468628586

>  <m_score__min__rmsd>  (78) 
2.0055795468628586

>  <meeko>  (78) 
{"free_energy": -8.77, "intermolecular_energy": -10.26, "internal_energy": -1.95, "cluster_size": 21, "cluster_id": 2, "rank_in_cluster": 11}

>  <energy>  (78) 
-8.77

>  <cluster_rmsd>  (78) 
0.7

>  <cluster>  (78) 
2

$$$$

     RDKit          3D

 51 54  0  0  0  0  0  0  0  0999 V2000
  141.0090   71.7350  221.4170 O   0  0  0  0  0  0  0  0  0  0  0  0
  140.2430   72.1030  222.3700 C   0  0  0  0  0  0  0  0  0  0  0  0
  139.4220   73.2700  222.2250 N   0  0  0  0  0  0  0  0  0  0  0  0
  139.4930   74.0020  220.9830 C   0  0  0  0  0  0  0  0  0  0  0  0
  140.6330   74.9370  220.9610 C   0  0  0  0  0  0  0  0  0  0  0  0
  141.1020   75.3470  222.0530 O   0  0  0  0  0  0  0  0  0  0  0  0
  141.2460   75.4110  219.7750 N   0  0  0  0  0  0  0  0  0  0  0  0
  141.5010   76.8310  219.6500 C   0  0  0  0  0  0  0  0  0  0  0  0
  142.8910   77.1460  219.2010 C   0  0  0  0  0  0  0  0  0  0  0  0
  143.3180   76.3300  218.0270 C   0  0  0  0  0  0  0  0  0  0  0  0
  142.2370   75.3970  217.5700 C   0  0  0  0  0  0  0  0  0  0  0  0
  141.6360   74.5640  218.6700 C   0  0  1  0  0  0  0  0  0  0  0  0
  142.6060   73.5140  219.0500 C   0  0  0  0  0  0  0  0  0  0  0  0
  142.5000   72.1920  218.6870 C   0  0  0  0  0  0  0  0  0  0  0  0
  143.4600   71.2780  219.0990 C   0  0  0  0  0  0  0  0  0  0  0  0
  144.5430   71.6650  219.8810 C   0  0  0  0  0  0  0  0  0  0  0  0
  144.6540   72.9950  220.2480 C   0  0  0  0  0  0  0  0  0  0  0  0
  145.9910   73.5780  221.2370 Cl  0  0  0  0  0  0  0  0  0  0  0  0
  143.6960   73.8950  219.8340 C   0  0  0  0  0  0  0  0  0  0  0  0
  140.1820   71.3450  223.6270 C   0  0  0  0  0  0  0  0  0  0  0  0
  139.6100   70.0830  223.5980 C   0  0  0  0  0  0  0  0  0  0  0  0
  139.5420   69.3520  224.7660 C   0  0  0  0  0  0  0  0  0  0  0  0
  140.0350   69.8590  225.9510 C   0  0  0  0  0  0  0  0  0  0  0  0
  139.9880   69.1650  227.1420 C   0  0  0  0  0  0  0  0  0  0  0  0
  140.4790   69.6650  228.3310 C   0  0  0  0  0  0  0  0  0  0  0  0
  141.0460   70.9430  228.2960 C   0  0  0  0  0  0  0  0  0  0  0  0
  141.1010   71.6620  227.0980 C   0  0  0  0  0  0  0  0  0  0  0  0
  140.6030   71.1380  225.9210 C   0  0  0  0  0  0  0  0  0  0  0  0
  140.6650   71.8450  224.7780 N   0  0  0  0  0  0  0  0  0  0  0  0
  138.8130   73.5300  223.0310 H   0  0  0  0  0  0  0  0  0  0  0  0
  139.6033   73.2869  220.1544 H   0  0  0  0  0  0  0  0  0  0  0  0
  138.5684   74.5888  220.8795 H   0  0  0  0  0  0  0  0  0  0  0  0
  140.7947   77.2492  218.9177 H   0  0  0  0  0  0  0  0  0  0  0  0
  141.3739   77.2734  220.6490 H   0  0  0  0  0  0  0  0  0  0  0  0
  142.9389   78.2099  218.9257 H   0  0  0  0  0  0  0  0  0  0  0  0
  143.5698   76.9092  220.0336 H   0  0  0  0  0  0  0  0  0  0  0  0
  143.5768   77.0066  217.1992 H   0  0  0  0  0  0  0  0  0  0  0  0
  144.1845   75.7242  218.3307 H   0  0  0  0  0  0  0  0  0  0  0  0
  141.4351   75.9954  217.1129 H   0  0  0  0  0  0  0  0  0  0  0  0
  142.7026   74.6965  216.8611 H   0  0  0  0  0  0  0  0  0  0  0  0
  140.7179   74.0620  218.3307 H   0  0  0  0  0  0  0  0  0  0  0  0
  141.6532   71.8583  218.0692 H   0  0  0  0  0  0  0  0  0  0  0  0
  143.3620   70.2239  218.8003 H   0  0  0  0  0  0  0  0  0  0  0  0
  145.2957   70.9295  220.2012 H   0  0  0  0  0  0  0  0  0  0  0  0
  143.7937   74.9495  220.1316 H   0  0  0  0  0  0  0  0  0  0  0  0
  139.2160   69.6703  222.6576 H   0  0  0  0  0  0  0  0  0  0  0  0
  139.0881   68.3501  224.7525 H   0  0  0  0  0  0  0  0  0  0  0  0
  139.5362   68.1621  227.1443 H   0  0  0  0  0  0  0  0  0  0  0  0
  140.4267   69.0846  229.2640 H   0  0  0  0  0  0  0  0  0  0  0  0
  141.4517   71.3858  229.2176 H   0  0  0  0  0  0  0  0  0  0  0  0
  141.5503   72.6660  227.0928 H   0  0  0  0  0  0  0  0  0  0  0  0
  1  2  2  0
  2  3  1  0
  3  4  1  0
  4  5  1  0
  5  6  2  0
  5  7  1  0
  7  8  1  0
  8  9  1  0
  9 10  1  0
 10 11  1  0
 11 12  1  0
 12 13  1  0
 13 14  2  0
 14 15  1  0
 15 16  2  0
 16 17  1  0
 17 18  1  0
 17 19  2  0
  2 20  1  0
 20 21  2  0
 21 22  1  0
 22 23  2  0
 23 24  1  0
 24 25  2  0
 25 26  1  0
 26 27  2  0
 27 28  1  0
 28 29  2  0
 12  7  1  0
 19 13  1  0
 29 20  1  0
 28 23  1  0
  3 30  1  0
  4 31  1  0
  4 32  1  0
  8 33  1  0
  8 34  1  0
  9 35  1  0
  9 36  1  0
 10 37  1  0
 10 38  1  0
 11 39  1  0
 11 40  1  0
 12 41  1  6
 14 42  1  0
 15 43  1  0
 16 44  1  0
 19 45  1  0
 21 46  1  0
 22 47  1  0
 24 48  1  0
 25 49  1  0
 26 50  1  0
 27 51  1  0
M  END
>  <smiles>  (79) 
O=C(NCC(=O)N1CCCCC1c1cccc(Cl)c1)c1ccc2ccccc2n1

>  <score_type>  (79) 
oracle

>  <origin>  (79) 
autodockgpu

>  <m_score__min__energy>  (79) 
-9.2300000000000004

>  <m_primary>  (79) 
energy

>  <rmsd>  (79) 
2.1366165898144494

>  <m_score__min__rmsd>  (79) 
2.1366165898144494

>  <meeko>  (79) 
{"free_energy": -8.57, "intermolecular_energy": -10.07, "internal_energy": -1.93, "cluster_size": 21, "cluster_id": 2, "rank_in_cluster": 19}

>  <energy>  (79) 
-8.76

>  <cluster_rmsd>  (79) 
0.46

>  <cluster>  (79) 
2

$$$$

     RDKit          3D

 51 54  0  0  0  0  0  0  0  0999 V2000
  140.5520   71.2600  221.2710 O   0  0  0  0  0  0  0  0  0  0  0  0
  140.1930   71.8440  222.3480 C   0  0  0  0  0  0  0  0  0  0  0  0
  139.8870   73.2450  222.3410 N   0  0  0  0  0  0  0  0  0  0  0  0
  139.9980   73.9600  221.0910 C   0  0  0  0  0  0  0  0  0  0  0  0
  140.3210   75.3830  221.2990 C   0  0  0  0  0  0  0  0  0  0  0  0
  140.0980   75.8960  222.4250 O   0  0  0  0  0  0  0  0  0  0  0  0
  140.8740   76.2230  220.3030 N   0  0  0  0  0  0  0  0  0  0  0  0
  140.5030   75.9930  218.9210 C   0  0  0  0  0  0  0  0  0  0  0  0
  140.0910   77.2370  218.2030 C   0  0  0  0  0  0  0  0  0  0  0  0
  141.0420   78.3670  218.4130 C   0  0  0  0  0  0  0  0  0  0  0  0
  142.1950   77.9740  219.2870 C   0  0  0  0  0  0  0  0  0  0  0  0
  141.7950   77.3050  220.5740 C   0  0  1  0  0  0  0  0  0  0  0  0
  141.2420   78.3300  221.4860 C   0  0  0  0  0  0  0  0  0  0  0  0
  139.9060   78.6350  221.5910 C   0  0  0  0  0  0  0  0  0  0  0  0
  139.4840   79.6200  222.4730 C   0  0  0  0  0  0  0  0  0  0  0  0
  140.3870   80.3190  223.2670 C   0  0  0  0  0  0  0  0  0  0  0  0
  141.7320   80.0140  223.1650 C   0  0  0  0  0  0  0  0  0  0  0  0
  142.9500   80.8460  224.1310 Cl  0  0  0  0  0  0  0  0  0  0  0  0
  142.1420   79.0350  222.2870 C   0  0  0  0  0  0  0  0  0  0  0  0
  140.0840   71.1010  223.6100 C   0  0  0  0  0  0  0  0  0  0  0  0
  139.5490   69.8230  223.5680 C   0  0  0  0  0  0  0  0  0  0  0  0
  139.4380   69.1050  224.7410 C   0  0  0  0  0  0  0  0  0  0  0  0
  139.8490   69.6420  225.9450 C   0  0  0  0  0  0  0  0  0  0  0  0
  139.7560   68.9620  227.1410 C   0  0  0  0  0  0  0  0  0  0  0  0
  140.1660   69.4910  228.3480 C   0  0  0  0  0  0  0  0  0  0  0  0
  140.6970   70.7850  228.3260 C   0  0  0  0  0  0  0  0  0  0  0  0
  140.7990   71.4900  227.1220 C   0  0  0  0  0  0  0  0  0  0  0  0
  140.3810   70.9360  225.9270 C   0  0  0  0  0  0  0  0  0  0  0  0
  140.4870   71.6300  224.7800 N   0  0  0  0  0  0  0  0  0  0  0  0
  139.5970   73.6770  223.2450 H   0  0  0  0  0  0  0  0  0  0  0  0
  140.7936   73.4992  220.4871 H   0  0  0  0  0  0  0  0  0  0  0  0
  139.0269   73.9022  220.5776 H   0  0  0  0  0  0  0  0  0  0  0  0
  141.3658   75.5568  218.3962 H   0  0  0  0  0  0  0  0  0  0  0  0
  139.6347   75.3176  218.9256 H   0  0  0  0  0  0  0  0  0  0  0  0
  140.0358   77.0195  217.1261 H   0  0  0  0  0  0  0  0  0  0  0  0
  139.1156   77.5453  218.6073 H   0  0  0  0  0  0  0  0  0  0  0  0
  141.4307   78.6906  217.4361 H   0  0  0  0  0  0  0  0  0  0  0  0
  140.4977   79.1814  218.9135 H   0  0  0  0  0  0  0  0  0  0  0  0
  142.8349   77.2801  218.7222 H   0  0  0  0  0  0  0  0  0  0  0  0
  142.7133   78.9042  219.5628 H   0  0  0  0  0  0  0  0  0  0  0  0
  142.6643   76.8503  221.0715 H   0  0  0  0  0  0  0  0  0  0  0  0
  139.1700   78.0976  220.9750 H   0  0  0  0  0  0  0  0  0  0  0  0
  138.4114   79.8530  222.5457 H   0  0  0  0  0  0  0  0  0  0  0  0
  140.0387   81.0979  223.9613 H   0  0  0  0  0  0  0  0  0  0  0  0
  143.2144   78.8009  222.2147 H   0  0  0  0  0  0  0  0  0  0  0  0
  139.2178   69.3876  222.6136 H   0  0  0  0  0  0  0  0  0  0  0  0
  139.0158   68.0896  224.7167 H   0  0  0  0  0  0  0  0  0  0  0  0
  139.3336   67.9464  227.1326 H   0  0  0  0  0  0  0  0  0  0  0  0
  140.0792   68.9210  229.2848 H   0  0  0  0  0  0  0  0  0  0  0  0
  141.0369   71.2516  229.2623 H   0  0  0  0  0  0  0  0  0  0  0  0
  141.2205   72.5060  227.1266 H   0  0  0  0  0  0  0  0  0  0  0  0
  1  2  2  0
  2  3  1  0
  3  4  1  0
  4  5  1  0
  5  6  2  0
  5  7  1  0
  7  8  1  0
  8  9  1  0
  9 10  1  0
 10 11  1  0
 11 12  1  0
 12 13  1  0
 13 14  2  0
 14 15  1  0
 15 16  2  0
 16 17  1  0
 17 18  1  0
 17 19  2  0
  2 20  1  0
 20 21  2  0
 21 22  1  0
 22 23  2  0
 23 24  1  0
 24 25  2  0
 25 26  1  0
 26 27  2  0
 27 28  1  0
 28 29  2  0
 12  7  1  0
 19 13  1  0
 29 20  1  0
 28 23  1  0
  3 30  1  0
  4 31  1  0
  4 32  1  0
  8 33  1  0
  8 34  1  0
  9 35  1  0
  9 36  1  0
 10 37  1  0
 10 38  1  0
 11 39  1  0
 11 40  1  0
 12 41  1  1
 14 42  1  0
 15 43  1  0
 16 44  1  0
 19 45  1  0
 21 46  1  0
 22 47  1  0
 24 48  1  0
 25 49  1  0
 26 50  1  0
 27 51  1  0
M  END
>  <smiles>  (80) 
O=C(NCC(=O)N1CCCCC1c1cccc(Cl)c1)c1ccc2ccccc2n1

>  <score_type>  (80) 
oracle

>  <origin>  (80) 
autodockgpu

>  <m_score__min__energy>  (80) 
-9.2300000000000004

>  <m_primary>  (80) 
energy

>  <rmsd>  (80) 
1.495265510241896

>  <m_score__min__rmsd>  (80) 
1.495265510241896

>  <meeko>  (80) 
{"free_energy": -8.95, "intermolecular_energy": -10.44, "internal_energy": -1.7, "cluster_size": 17, "cluster_id": 1, "rank_in_cluster": 6}

>  <energy>  (80) 
-8.75

>  <cluster_rmsd>  (80) 
0.66

>  <cluster>  (80) 
2

$$$$

     RDKit          3D

 51 54  0  0  0  0  0  0  0  0999 V2000
  141.0590   71.7250  221.3780 O   0  0  0  0  0  0  0  0  0  0  0  0
  140.3180   72.1430  222.3310 C   0  0  0  0  0  0  0  0  0  0  0  0
  139.5680   73.3560  222.1830 N   0  0  0  0  0  0  0  0  0  0  0  0
  139.6790   74.0770  220.9360 C   0  0  0  0  0  0  0  0  0  0  0  0
  140.8920   74.9120  220.8910 C   0  0  0  0  0  0  0  0  0  0  0  0
  141.4650   75.2080  221.9700 O   0  0  0  0  0  0  0  0  0  0  0  0
  141.4660   75.4110  219.6970 N   0  0  0  0  0  0  0  0  0  0  0  0
  141.2310   76.7970  219.3430 C   0  0  0  0  0  0  0  0  0  0  0  0
  142.4770   77.5310  218.9650 C   0  0  0  0  0  0  0  0  0  0  0  0
  143.3200   76.7750  217.9940 C   0  0  0  0  0  0  0  0  0  0  0  0
  142.7030   75.4610  217.6200 C   0  0  0  0  0  0  0  0  0  0  0  0
  142.2760   74.6230  218.7950 C   0  0  1  0  0  0  0  0  0  0  0  0
  143.4840   74.0580  219.4350 C   0  0  0  0  0  0  0  0  0  0  0  0
  144.2390   74.7130  220.3790 C   0  0  0  0  0  0  0  0  0  0  0  0
  145.3630   74.1020  220.9190 C   0  0  0  0  0  0  0  0  0  0  0  0
  145.7540   72.8270  220.5260 C   0  0  0  0  0  0  0  0  0  0  0  0
  144.9970   72.1640  219.5760 C   0  0  0  0  0  0  0  0  0  0  0  0
  145.4150   70.5450  219.0170 Cl  0  0  0  0  0  0  0  0  0  0  0  0
  143.8830   72.7780  219.0470 C   0  0  0  0  0  0  0  0  0  0  0  0
  140.2170   71.3960  223.5920 C   0  0  0  0  0  0  0  0  0  0  0  0
  139.6260   70.1430  223.5590 C   0  0  0  0  0  0  0  0  0  0  0  0
  139.5200   69.4220  224.7300 C   0  0  0  0  0  0  0  0  0  0  0  0
  139.9920   69.9320  225.9230 C   0  0  0  0  0  0  0  0  0  0  0  0
  139.9070   69.2480  227.1180 C   0  0  0  0  0  0  0  0  0  0  0  0
  140.3770   69.7500  228.3140 C   0  0  0  0  0  0  0  0  0  0  0  0
  140.9640   71.0200  228.2830 C   0  0  0  0  0  0  0  0  0  0  0  0
  141.0580   71.7280  227.0810 C   0  0  0  0  0  0  0  0  0  0  0  0
  140.5790   71.2020  225.8970 C   0  0  0  0  0  0  0  0  0  0  0  0
  140.6790   71.8980  224.7510 N   0  0  0  0  0  0  0  0  0  0  0  0
  138.9770   73.6560  222.9890 H   0  0  0  0  0  0  0  0  0  0  0  0
  139.7145   73.3531  220.1085 H   0  0  0  0  0  0  0  0  0  0  0  0
  138.8054   74.7393  220.8459 H   0  0  0  0  0  0  0  0  0  0  0  0
  140.5364   76.8265  218.4906 H   0  0  0  0  0  0  0  0  0  0  0  0
  140.8175   77.2945  220.2327 H   0  0  0  0  0  0  0  0  0  0  0  0
  142.1948   78.4926  218.5115 H   0  0  0  0  0  0  0  0  0  0  0  0
  143.0703   77.6708  219.8807 H   0  0  0  0  0  0  0  0  0  0  0  0
  143.4443   77.3809  217.0844 H   0  0  0  0  0  0  0  0  0  0  0  0
  144.2898   76.5717  218.4717 H   0  0  0  0  0  0  0  0  0  0  0  0
  141.8176   75.6602  216.9985 H   0  0  0  0  0  0  0  0  0  0  0  0
  143.4771   74.8884  217.0882 H   0  0  0  0  0  0  0  0  0  0  0  0
  141.6447   73.7818  218.4727 H   0  0  0  0  0  0  0  0  0  0  0  0
  143.9522   75.7230  220.7071 H   0  0  0  0  0  0  0  0  0  0  0  0
  145.9568   74.6383  221.6739 H   0  0  0  0  0  0  0  0  0  0  0  0
  146.6470   72.3548  220.9614 H   0  0  0  0  0  0  0  0  0  0  0  0
  143.2879   72.2414  218.2934 H   0  0  0  0  0  0  0  0  0  0  0  0
  139.2470   69.7295  222.6128 H   0  0  0  0  0  0  0  0  0  0  0  0
  139.0527   68.4263  224.7132 H   0  0  0  0  0  0  0  0  0  0  0  0
  139.4408   68.2517  227.1172 H   0  0  0  0  0  0  0  0  0  0  0  0
  140.2941   69.1778  229.2498 H   0  0  0  0  0  0  0  0  0  0  0  0
  141.3541   71.4643  229.2106 H   0  0  0  0  0  0  0  0  0  0  0  0
  141.5232   72.7248  227.0782 H   0  0  0  0  0  0  0  0  0  0  0  0
  1  2  2  0
  2  3  1  0
  3  4  1  0
  4  5  1  0
  5  6  2  0
  5  7  1  0
  7  8  1  0
  8  9  1  0
  9 10  1  0
 10 11  1  0
 11 12  1  0
 12 13  1  0
 13 14  2  0
 14 15  1  0
 15 16  2  0
 16 17  1  0
 17 18  1  0
 17 19  2  0
  2 20  1  0
 20 21  2  0
 21 22  1  0
 22 23  2  0
 23 24  1  0
 24 25  2  0
 25 26  1  0
 26 27  2  0
 27 28  1  0
 28 29  2  0
 12  7  1  0
 19 13  1  0
 29 20  1  0
 28 23  1  0
  3 30  1  0
  4 31  1  0
  4 32  1  0
  8 33  1  0
  8 34  1  0
  9 35  1  0
  9 36  1  0
 10 37  1  0
 10 38  1  0
 11 39  1  0
 11 40  1  0
 12 41  1  6
 14 42  1  0
 15 43  1  0
 16 44  1  0
 19 45  1  0
 21 46  1  0
 22 47  1  0
 24 48  1  0
 25 49  1  0
 26 50  1  0
 27 51  1  0
M  END
>  <smiles>  (81) 
O=C(NCC(=O)N1CCCCC1c1cccc(Cl)c1)c1ccc2ccccc2n1

>  <score_type>  (81) 
oracle

>  <origin>  (81) 
autodockgpu

>  <m_score__min__energy>  (81) 
-9.2300000000000004

>  <m_primary>  (81) 
energy

>  <rmsd>  (81) 
2.106892366304012

>  <m_score__min__rmsd>  (81) 
2.106892366304012

>  <meeko>  (81) 
{"free_energy": -9.01, "intermolecular_energy": -10.5, "internal_energy": -1.77, "cluster_size": 21, "cluster_id": 2, "rank_in_cluster": 3}

>  <energy>  (81) 
-8.74

>  <cluster_rmsd>  (81) 
0.66

>  <cluster>  (81) 
2

$$$$

     RDKit          3D

 51 54  0  0  0  0  0  0  0  0999 V2000
  140.9690   71.6580  221.3470 O   0  0  0  0  0  0  0  0  0  0  0  0
  140.2860   72.1150  222.3250 C   0  0  0  0  0  0  0  0  0  0  0  0
  139.5920   73.3630  222.1980 N   0  0  0  0  0  0  0  0  0  0  0  0
  139.6910   74.0730  220.9440 C   0  0  0  0  0  0  0  0  0  0  0  0
  140.8940   74.9240  220.8890 C   0  0  0  0  0  0  0  0  0  0  0  0
  141.4610   75.2420  221.9650 O   0  0  0  0  0  0  0  0  0  0  0  0
  141.4620   75.4140  219.6890 N   0  0  0  0  0  0  0  0  0  0  0  0
  141.2310   76.7990  219.3300 C   0  0  0  0  0  0  0  0  0  0  0  0
  142.4780   77.5260  218.9400 C   0  0  0  0  0  0  0  0  0  0  0  0
  143.3120   76.7610  217.9680 C   0  0  0  0  0  0  0  0  0  0  0  0
  142.6870   75.4470  217.6050 C   0  0  0  0  0  0  0  0  0  0  0  0
  142.2640   74.6180  218.7860 C   0  0  1  0  0  0  0  0  0  0  0  0
  143.4730   74.0510  219.4230 C   0  0  0  0  0  0  0  0  0  0  0  0
  144.2270   74.7010  220.3710 C   0  0  0  0  0  0  0  0  0  0  0  0
  145.3520   74.0890  220.9060 C   0  0  0  0  0  0  0  0  0  0  0  0
  145.7460   72.8170  220.5040 C   0  0  0  0  0  0  0  0  0  0  0  0
  144.9910   72.1590  219.5510 C   0  0  0  0  0  0  0  0  0  0  0  0
  145.4120   70.5460  218.9800 Cl  0  0  0  0  0  0  0  0  0  0  0  0
  143.8750   72.7750  219.0250 C   0  0  0  0  0  0  0  0  0  0  0  0
  140.1950   71.3790  223.5930 C   0  0  0  0  0  0  0  0  0  0  0  0
  139.6170   70.1190  223.5730 C   0  0  0  0  0  0  0  0  0  0  0  0
  139.5210   69.4090  224.7510 C   0  0  0  0  0  0  0  0  0  0  0  0
  139.9910   69.9330  225.9380 C   0  0  0  0  0  0  0  0  0  0  0  0
  139.9150   69.2600  227.1400 C   0  0  0  0  0  0  0  0  0  0  0  0
  140.3830   69.7770  228.3300 C   0  0  0  0  0  0  0  0  0  0  0  0
  140.9570   71.0520  228.2860 C   0  0  0  0  0  0  0  0  0  0  0  0
  141.0420   71.7500  227.0770 C   0  0  0  0  0  0  0  0  0  0  0  0
  140.5660   71.2090  225.8990 C   0  0  0  0  0  0  0  0  0  0  0  0
  140.6560   71.8960  224.7460 N   0  0  0  0  0  0  0  0  0  0  0  0
  139.0470   73.6950  223.0240 H   0  0  0  0  0  0  0  0  0  0  0  0
  139.7346   73.3417  220.1235 H   0  0  0  0  0  0  0  0  0  0  0  0
  138.8085   74.7227  220.8488 H   0  0  0  0  0  0  0  0  0  0  0  0
  140.5308   76.8276  218.4821 H   0  0  0  0  0  0  0  0  0  0  0  0
  140.8258   77.3025  220.2201 H   0  0  0  0  0  0  0  0  0  0  0  0
  142.1969   78.4862  218.4828 H   0  0  0  0  0  0  0  0  0  0  0  0
  143.0775   77.6685  219.8512 H   0  0  0  0  0  0  0  0  0  0  0  0
  143.4332   77.3613  217.0542 H   0  0  0  0  0  0  0  0  0  0  0  0
  144.2838   76.5563  218.4409 H   0  0  0  0  0  0  0  0  0  0  0  0
  141.7986   75.6465  216.9877 H   0  0  0  0  0  0  0  0  0  0  0  0
  143.4556   74.8682  217.0718 H   0  0  0  0  0  0  0  0  0  0  0  0
  141.6278   73.7778  218.4709 H   0  0  0  0  0  0  0  0  0  0  0  0
  143.9382   75.7081  220.7062 H   0  0  0  0  0  0  0  0  0  0  0  0
  145.9449   74.6214  221.6643 H   0  0  0  0  0  0  0  0  0  0  0  0
  146.6404   72.3441  220.9357 H   0  0  0  0  0  0  0  0  0  0  0  0
  143.2819   72.2431  218.2665 H   0  0  0  0  0  0  0  0  0  0  0  0
  139.2407   69.6922  222.6316 H   0  0  0  0  0  0  0  0  0  0  0  0
  139.0625   68.4091  224.7446 H   0  0  0  0  0  0  0  0  0  0  0  0
  139.4576   68.2596  227.1498 H   0  0  0  0  0  0  0  0  0  0  0  0
  140.3083   69.2123  229.2710 H   0  0  0  0  0  0  0  0  0  0  0  0
  141.3442   71.5088  229.2087 H   0  0  0  0  0  0  0  0  0  0  0  0
  141.4977   72.7511  227.0642 H   0  0  0  0  0  0  0  0  0  0  0  0
  1  2  2  0
  2  3  1  0
  3  4  1  0
  4  5  1  0
  5  6  2  0
  5  7  1  0
  7  8  1  0
  8  9  1  0
  9 10  1  0
 10 11  1  0
 11 12  1  0
 12 13  1  0
 13 14  2  0
 14 15  1  0
 15 16  2  0
 16 17  1  0
 17 18  1  0
 17 19  2  0
  2 20  1  0
 20 21  2  0
 21 22  1  0
 22 23  2  0
 23 24  1  0
 24 25  2  0
 25 26  1  0
 26 27  2  0
 27 28  1  0
 28 29  2  0
 12  7  1  0
 19 13  1  0
 29 20  1  0
 28 23  1  0
  3 30  1  0
  4 31  1  0
  4 32  1  0
  8 33  1  0
  8 34  1  0
  9 35  1  0
  9 36  1  0
 10 37  1  0
 10 38  1  0
 11 39  1  0
 11 40  1  0
 12 41  1  6
 14 42  1  0
 15 43  1  0
 16 44  1  0
 19 45  1  0
 21 46  1  0
 22 47  1  0
 24 48  1  0
 25 49  1  0
 26 50  1  0
 27 51  1  0
M  END
>  <smiles>  (82) 
O=C(NCC(=O)N1CCCCC1c1cccc(Cl)c1)c1ccc2ccccc2n1

>  <score_type>  (82) 
oracle

>  <origin>  (82) 
autodockgpu

>  <m_score__min__energy>  (82) 
-9.2300000000000004

>  <m_primary>  (82) 
energy

>  <rmsd>  (82) 
2.1030106150808687

>  <m_score__min__rmsd>  (82) 
2.1030106150808687

>  <meeko>  (82) 
{"free_energy": -9.01, "intermolecular_energy": -10.51, "internal_energy": -1.77, "cluster_size": 21, "cluster_id": 2, "rank_in_cluster": 2}

>  <energy>  (82) 
-8.73

>  <cluster_rmsd>  (82) 
0.69

>  <cluster>  (82) 
2

$$$$

     RDKit          3D

 51 54  0  0  0  0  0  0  0  0999 V2000
  138.7220   75.2070  221.8940 O   0  0  0  0  0  0  0  0  0  0  0  0
  139.8990   75.6740  222.0580 C   0  0  0  0  0  0  0  0  0  0  0  0
  141.0430   74.8270  221.8840 N   0  0  0  0  0  0  0  0  0  0  0  0
  140.8180   73.4470  221.5220 C   0  0  0  0  0  0  0  0  0  0  0  0
  141.6940   73.0200  220.4160 C   0  0  0  0  0  0  0  0  0  0  0  0
  141.1740   72.5040  219.3950 O   0  0  0  0  0  0  0  0  0  0  0  0
  143.1040   73.1540  220.4270 N   0  0  0  0  0  0  0  0  0  0  0  0
  143.9130   71.9550  220.3410 C   0  0  0  0  0  0  0  0  0  0  0  0
  144.9990   72.0450  219.3180 C   0  0  0  0  0  0  0  0  0  0  0  0
  145.7760   73.3150  219.4110 C   0  0  0  0  0  0  0  0  0  0  0  0
  145.2850   74.1920  220.5230 C   0  0  0  0  0  0  0  0  0  0  0  0
  143.7980   74.4200  220.5200 C   0  0  1  0  0  0  0  0  0  0  0  0
  143.4660   75.3520  219.4200 C   0  0  0  0  0  0  0  0  0  0  0  0
  143.7040   75.0980  218.0900 C   0  0  0  0  0  0  0  0  0  0  0  0
  143.3630   76.0400  217.1290 C   0  0  0  0  0  0  0  0  0  0  0  0
  142.7770   77.2520  217.4770 C   0  0  0  0  0  0  0  0  0  0  0  0
  142.5350   77.5110  218.8140 C   0  0  0  0  0  0  0  0  0  0  0  0
  141.7970   79.0190  219.3500 Cl  0  0  0  0  0  0  0  0  0  0  0  0
  142.8770   76.5710  219.7610 C   0  0  0  0  0  0  0  0  0  0  0  0
  140.1090   77.0810  222.4250 C   0  0  0  0  0  0  0  0  0  0  0  0
  138.9900   77.8810  222.6000 C   0  0  0  0  0  0  0  0  0  0  0  0
  139.1620   79.2050  222.9460 C   0  0  0  0  0  0  0  0  0  0  0  0
  140.4250   79.7370  223.1180 C   0  0  0  0  0  0  0  0  0  0  0  0
  140.6440   81.0550  223.4620 C   0  0  0  0  0  0  0  0  0  0  0  0
  141.9030   81.5930  223.6360 C   0  0  0  0  0  0  0  0  0  0  0  0
  142.9920   80.7360  223.4450 C   0  0  0  0  0  0  0  0  0  0  0  0
  142.7880   79.3970  223.0950 C   0  0  0  0  0  0  0  0  0  0  0  0
  141.5170   78.8830  222.9280 C   0  0  0  0  0  0  0  0  0  0  0  0
  141.3410   77.5930  222.5910 N   0  0  0  0  0  0  0  0  0  0  0  0
  141.9830   75.2550  222.0280 H   0  0  0  0  0  0  0  0  0  0  0  0
  141.0163   72.8124  222.3983 H   0  0  0  0  0  0  0  0  0  0  0  0
  139.7744   73.3473  221.1889 H   0  0  0  0  0  0  0  0  0  0  0  0
  144.3733   71.7735  221.3234 H   0  0  0  0  0  0  0  0  0  0  0  0
  143.2468   71.1343  220.0367 H   0  0  0  0  0  0  0  0  0  0  0  0
  145.6882   71.1998  219.4616 H   0  0  0  0  0  0  0  0  0  0  0  0
  144.5234   72.0192  218.3265 H   0  0  0  0  0  0  0  0  0  0  0  0
  146.8337   73.0721  219.5905 H   0  0  0  0  0  0  0  0  0  0  0  0
  145.6490   73.8617  218.4650 H   0  0  0  0  0  0  0  0  0  0  0  0
  145.5598   73.7226  221.4791 H   0  0  0  0  0  0  0  0  0  0  0  0
  145.7552   75.1760  220.3796 H   0  0  0  0  0  0  0  0  0  0  0  0
  143.4660   74.8832  221.4609 H   0  0  0  0  0  0  0  0  0  0  0  0
  144.1654   74.1466  217.7868 H   0  0  0  0  0  0  0  0  0  0  0  0
  143.5607   75.8229  216.0689 H   0  0  0  0  0  0  0  0  0  0  0  0
  142.5114   77.9894  216.7052 H   0  0  0  0  0  0  0  0  0  0  0  0
  142.6795   76.7880  220.8211 H   0  0  0  0  0  0  0  0  0  0  0  0
  137.9803   77.4659  222.4649 H   0  0  0  0  0  0  0  0  0  0  0  0
  138.2800   79.8470  223.0871 H   0  0  0  0  0  0  0  0  0  0  0  0
  139.7716   81.7097  223.6047 H   0  0  0  0  0  0  0  0  0  0  0  0
  142.0438   82.6483  223.9125 H   0  0  0  0  0  0  0  0  0  0  0  0
  144.0160   81.1177  223.5709 H   0  0  0  0  0  0  0  0  0  0  0  0
  143.6580   78.7398  222.9498 H   0  0  0  0  0  0  0  0  0  0  0  0
  1  2  2  0
  2  3  1  0
  3  4  1  0
  4  5  1  0
  5  6  2  0
  5  7  1  0
  7  8  1  0
  8  9  1  0
  9 10  1  0
 10 11  1  0
 11 12  1  0
 12 13  1  0
 13 14  2  0
 14 15  1  0
 15 16  2  0
 16 17  1  0
 17 18  1  0
 17 19  2  0
  2 20  1  0
 20 21  2  0
 21 22  1  0
 22 23  2  0
 23 24  1  0
 24 25  2  0
 25 26  1  0
 26 27  2  0
 27 28  1  0
 28 29  2  0
 12  7  1  0
 19 13  1  0
 29 20  1  0
 28 23  1  0
  3 30  1  0
  4 31  1  0
  4 32  1  0
  8 33  1  0
  8 34  1  0
  9 35  1  0
  9 36  1  0
 10 37  1  0
 10 38  1  0
 11 39  1  0
 11 40  1  0
 12 41  1  1
 14 42  1  0
 15 43  1  0
 16 44  1  0
 19 45  1  0
 21 46  1  0
 22 47  1  0
 24 48  1  0
 25 49  1  0
 26 50  1  0
 27 51  1  0
M  END
>  <smiles>  (83) 
O=C(NCC(=O)N1CCCCC1c1cccc(Cl)c1)c1ccc2ccccc2n1

>  <score_type>  (83) 
oracle

>  <origin>  (83) 
autodockgpu

>  <m_score__min__energy>  (83) 
-9.2300000000000004

>  <m_primary>  (83) 
energy

>  <rmsd>  (83) 
7.708549015028021

>  <m_score__min__rmsd>  (83) 
7.708549015028021

>  <meeko>  (83) 
{"free_energy": -7.92, "intermolecular_energy": -9.41, "internal_energy": -2.62, "cluster_size": 7, "cluster_id": 7, "rank_in_cluster": 4}

>  <energy>  (83) 
-8.71

>  <cluster_rmsd>  (83) 
0.73

>  <cluster>  (83) 
2

$$$$

     RDKit          3D

 51 54  0  0  0  0  0  0  0  0999 V2000
  140.1880   70.8860  221.3020 O   0  0  0  0  0  0  0  0  0  0  0  0
  140.0080   71.5120  222.4000 C   0  0  0  0  0  0  0  0  0  0  0  0
  139.8140   72.9330  222.3960 N   0  0  0  0  0  0  0  0  0  0  0  0
  139.8300   73.6190  221.1250 C   0  0  0  0  0  0  0  0  0  0  0  0
  140.4480   74.9530  221.2290 C   0  0  0  0  0  0  0  0  0  0  0  0
  140.4260   75.5460  222.3380 O   0  0  0  0  0  0  0  0  0  0  0  0
  141.0740   75.6220  220.1500 N   0  0  0  0  0  0  0  0  0  0  0  0
  140.9110   77.0580  220.0380 C   0  0  0  0  0  0  0  0  0  0  0  0
  142.1980   77.7840  219.8150 C   0  0  0  0  0  0  0  0  0  0  0  0
  143.0310   77.1660  218.7430 C   0  0  0  0  0  0  0  0  0  0  0  0
  142.3650   75.9680  218.1360 C   0  0  0  0  0  0  0  0  0  0  0  0
  141.8710   74.9620  219.1390 C   0  0  1  0  0  0  0  0  0  0  0  0
  143.0350   74.2370  219.6930 C   0  0  0  0  0  0  0  0  0  0  0  0
  144.0800   74.8380  220.3530 C   0  0  0  0  0  0  0  0  0  0  0  0
  145.1350   74.0720  220.8320 C   0  0  0  0  0  0  0  0  0  0  0  0
  145.1650   72.6930  220.6610 C   0  0  0  0  0  0  0  0  0  0  0  0
  144.1150   72.0830  219.9980 C   0  0  0  0  0  0  0  0  0  0  0  0
  144.0670   70.3410  219.7350 Cl  0  0  0  0  0  0  0  0  0  0  0  0
  143.0730   72.8520  219.5260 C   0  0  0  0  0  0  0  0  0  0  0  0
  139.9930   70.7980  223.6840 C   0  0  0  0  0  0  0  0  0  0  0  0
  139.4420   69.5270  223.7140 C   0  0  0  0  0  0  0  0  0  0  0  0
  139.4170   68.8370  224.9080 C   0  0  0  0  0  0  0  0  0  0  0  0
  139.9320   69.3930  226.0620 C   0  0  0  0  0  0  0  0  0  0  0  0
  139.9290   68.7410  227.2770 C   0  0  0  0  0  0  0  0  0  0  0  0
  140.4420   69.2900  228.4340 C   0  0  0  0  0  0  0  0  0  0  0  0
  140.9850   70.5760  228.3400 C   0  0  0  0  0  0  0  0  0  0  0  0
  140.9970   71.2530  227.1160 C   0  0  0  0  0  0  0  0  0  0  0  0
  140.4770   70.6790  225.9720 C   0  0  0  0  0  0  0  0  0  0  0  0
  140.4970   71.3460  224.8040 N   0  0  0  0  0  0  0  0  0  0  0  0
  139.6700   73.3990  223.3180 H   0  0  0  0  0  0  0  0  0  0  0  0
  140.4018   73.0173  220.4032 H   0  0  0  0  0  0  0  0  0  0  0  0
  138.7889   73.7500  220.7949 H   0  0  0  0  0  0  0  0  0  0  0  0
  140.2405   77.2682  219.1917 H   0  0  0  0  0  0  0  0  0  0  0  0
  140.4976   77.4142  220.9931 H   0  0  0  0  0  0  0  0  0  0  0  0
  141.9714   78.8219  219.5298 H   0  0  0  0  0  0  0  0  0  0  0  0
  142.7730   77.7349  220.7515 H   0  0  0  0  0  0  0  0  0  0  0  0
  143.2064   77.9126  217.9545 H   0  0  0  0  0  0  0  0  0  0  0  0
  143.9778   76.8360  219.1955 H   0  0  0  0  0  0  0  0  0  0  0  0
  141.5056   76.3146  217.5433 H   0  0  0  0  0  0  0  0  0  0  0  0
  143.1260   75.4587  217.5265 H   0  0  0  0  0  0  0  0  0  0  0  0
  141.2116   74.2205  218.6642 H   0  0  0  0  0  0  0  0  0  0  0  0
  144.0809   75.9278  220.5022 H   0  0  0  0  0  0  0  0  0  0  0  0
  145.9645   74.5673  221.3579 H   0  0  0  0  0  0  0  0  0  0  0  0
  146.0069   72.0984  221.0452 H   0  0  0  0  0  0  0  0  0  0  0  0
  142.2433   72.3572  218.9999 H   0  0  0  0  0  0  0  0  0  0  0  0
  139.0307   69.0751  222.7993 H   0  0  0  0  0  0  0  0  0  0  0  0
  138.9800   67.8281  224.9413 H   0  0  0  0  0  0  0  0  0  0  0  0
  139.4953   67.7313  227.3262 H   0  0  0  0  0  0  0  0  0  0  0  0
  140.4249   68.7415  229.3873 H   0  0  0  0  0  0  0  0  0  0  0  0
  141.4054   71.0581  229.2349 H   0  0  0  0  0  0  0  0  0  0  0  0
  141.4293   72.2631  227.0633 H   0  0  0  0  0  0  0  0  0  0  0  0
  1  2  2  0
  2  3  1  0
  3  4  1  0
  4  5  1  0
  5  6  2  0
  5  7  1  0
  7  8  1  0
  8  9  1  0
  9 10  1  0
 10 11  1  0
 11 12  1  0
 12 13  1  0
 13 14  2  0
 14 15  1  0
 15 16  2  0
 16 17  1  0
 17 18  1  0
 17 19  2  0
  2 20  1  0
 20 21  2  0
 21 22  1  0
 22 23  2  0
 23 24  1  0
 24 25  2  0
 25 26  1  0
 26 27  2  0
 27 28  1  0
 28 29  2  0
 12  7  1  0
 19 13  1  0
 29 20  1  0
 28 23  1  0
  3 30  1  0
  4 31  1  0
  4 32  1  0
  8 33  1  0
  8 34  1  0
  9 35  1  0
  9 36  1  0
 10 37  1  0
 10 38  1  0
 11 39  1  0
 11 40  1  0
 12 41  1  6
 14 42  1  0
 15 43  1  0
 16 44  1  0
 19 45  1  0
 21 46  1  0
 22 47  1  0
 24 48  1  0
 25 49  1  0
 26 50  1  0
 27 51  1  0
M  END
>  <smiles>  (84) 
O=C(NCC(=O)N1CCCCC1c1cccc(Cl)c1)c1ccc2ccccc2n1

>  <score_type>  (84) 
oracle

>  <origin>  (84) 
autodockgpu

>  <m_score__min__energy>  (84) 
-9.2300000000000004

>  <m_primary>  (84) 
energy

>  <rmsd>  (84) 
2.0049179067287137

>  <m_score__min__rmsd>  (84) 
2.0049179067287137

>  <meeko>  (84) 
{"free_energy": -8.71, "intermolecular_energy": -10.2, "internal_energy": -2.01, "cluster_size": 21, "cluster_id": 2, "rank_in_cluster": 16}

>  <energy>  (84) 
-8.63

>  <cluster_rmsd>  (84) 
0.76

>  <cluster>  (84) 
2

$$$$

     RDKit          3D

 51 54  0  0  0  0  0  0  0  0999 V2000
  137.3680   76.1580  222.2520 O   0  0  0  0  0  0  0  0  0  0  0  0
  138.6370   76.2700  222.3400 C   0  0  0  0  0  0  0  0  0  0  0  0
  139.4810   75.1410  222.0730 N   0  0  0  0  0  0  0  0  0  0  0  0
  138.8520   73.8930  221.7070 C   0  0  0  0  0  0  0  0  0  0  0  0
  139.5930   72.7310  222.2300 C   0  0  0  0  0  0  0  0  0  0  0  0
  140.7800   72.8910  222.6100 O   0  0  0  0  0  0  0  0  0  0  0  0
  139.0480   71.4290  222.3370 N   0  0  0  0  0  0  0  0  0  0  0  0
  139.0690   70.5730  221.1680 C   0  0  0  0  0  0  0  0  0  0  0  0
  139.5920   69.2010  221.4470 C   0  0  0  0  0  0  0  0  0  0  0  0
  138.9790   68.5850  222.6590 C   0  0  0  0  0  0  0  0  0  0  0  0
  137.9700   69.4910  223.2990 C   0  0  0  0  0  0  0  0  0  0  0  0
  138.4650   70.8900  223.5460 C   0  0  1  0  0  0  0  0  0  0  0  0
  139.4060   70.8620  224.6880 C   0  0  0  0  0  0  0  0  0  0  0  0
  140.3110   71.8560  224.9710 C   0  0  0  0  0  0  0  0  0  0  0  0
  141.1590   71.7370  226.0640 C   0  0  0  0  0  0  0  0  0  0  0  0
  141.1180   70.6220  226.8950 C   0  0  0  0  0  0  0  0  0  0  0  0
  140.2080   69.6190  226.6140 C   0  0  0  0  0  0  0  0  0  0  0  0
  140.0840   68.1700  227.6100 Cl  0  0  0  0  0  0  0  0  0  0  0  0
  139.3710   69.7470  225.5270 C   0  0  0  0  0  0  0  0  0  0  0  0
  139.2600   77.5470  222.7120 C   0  0  0  0  0  0  0  0  0  0  0  0
  138.4270   78.5990  223.0610 C   0  0  0  0  0  0  0  0  0  0  0  0
  138.9890   79.8080  223.4160 C   0  0  0  0  0  0  0  0  0  0  0  0
  140.3590   79.9790  223.4260 C   0  0  0  0  0  0  0  0  0  0  0  0
  140.9640   81.1700  223.7720 C   0  0  0  0  0  0  0  0  0  0  0  0
  142.3320   81.3490  223.7850 C   0  0  0  0  0  0  0  0  0  0  0  0
  143.1200   80.2510  223.4230 C   0  0  0  0  0  0  0  0  0  0  0  0
  142.5230   79.0360  223.0690 C   0  0  0  0  0  0  0  0  0  0  0  0
  141.1500   78.8840  223.0640 C   0  0  0  0  0  0  0  0  0  0  0  0
  140.5950   77.7070  222.7200 N   0  0  0  0  0  0  0  0  0  0  0  0
  140.5110   75.2820  222.1570 H   0  0  0  0  0  0  0  0  0  0  0  0
  137.8305   73.8764  222.1147 H   0  0  0  0  0  0  0  0  0  0  0  0
  138.8414   73.8251  220.6091 H   0  0  0  0  0  0  0  0  0  0  0  0
  138.0425   70.4833  220.7829 H   0  0  0  0  0  0  0  0  0  0  0  0
  139.7478   71.0372  220.4374 H   0  0  0  0  0  0  0  0  0  0  0  0
  139.3769   68.5596  220.5796 H   0  0  0  0  0  0  0  0  0  0  0  0
  140.6729   69.2893  221.6307 H   0  0  0  0  0  0  0  0  0  0  0  0
  138.4814   67.6480  222.3684 H   0  0  0  0  0  0  0  0  0  0  0  0
  139.7808   68.3993  223.3888 H   0  0  0  0  0  0  0  0  0  0  0  0
  137.0907   69.5476  222.6404 H   0  0  0  0  0  0  0  0  0  0  0  0
  137.7383   69.0596  224.2840 H   0  0  0  0  0  0  0  0  0  0  0  0
  137.6364   71.5626  223.8127 H   0  0  0  0  0  0  0  0  0  0  0  0
  140.3640   72.7484  224.3301 H   0  0  0  0  0  0  0  0  0  0  0  0
  141.8784   72.5413  226.2773 H   0  0  0  0  0  0  0  0  0  0  0  0
  141.7954   70.5398  227.7578 H   0  0  0  0  0  0  0  0  0  0  0  0
  138.6509   68.9434  225.3132 H   0  0  0  0  0  0  0  0  0  0  0  0
  137.3344   78.4716  223.0549 H   0  0  0  0  0  0  0  0  0  0  0  0
  138.3360   80.6480  223.6952 H   0  0  0  0  0  0  0  0  0  0  0  0
  140.3234   82.0194  224.0515 H   0  0  0  0  0  0  0  0  0  0  0  0
  142.7829   82.3118  224.0673 H   0  0  0  0  0  0  0  0  0  0  0  0
  144.2161   80.3435  223.4167 H   0  0  0  0  0  0  0  0  0  0  0  0
  143.1602   78.1842  222.7889 H   0  0  0  0  0  0  0  0  0  0  0  0
  1  2  2  0
  2  3  1  0
  3  4  1  0
  4  5  1  0
  5  6  2  0
  5  7  1  0
  7  8  1  0
  8  9  1  0
  9 10  1  0
 10 11  1  0
 11 12  1  0
 12 13  1  0
 13 14  2  0
 14 15  1  0
 15 16  2  0
 16 17  1  0
 17 18  1  0
 17 19  2  0
  2 20  1  0
 20 21  2  0
 21 22  1  0
 22 23  2  0
 23 24  1  0
 24 25  2  0
 25 26  1  0
 26 27  2  0
 27 28  1  0
 28 29  2  0
 12  7  1  0
 19 13  1  0
 29 20  1  0
 28 23  1  0
  3 30  1  0
  4 31  1  0
  4 32  1  0
  8 33  1  0
  8 34  1  0
  9 35  1  0
  9 36  1  0
 10 37  1  0
 10 38  1  0
 11 39  1  0
 11 40  1  0
 12 41  1  1
 14 42  1  0
 15 43  1  0
 16 44  1  0
 19 45  1  0
 21 46  1  0
 22 47  1  0
 24 48  1  0
 25 49  1  0
 26 50  1  0
 27 51  1  0
M  END
>  <smiles>  (85) 
O=C(NCC(=O)N1CCCCC1c1cccc(Cl)c1)c1ccc2ccccc2n1

>  <score_type>  (85) 
oracle

>  <origin>  (85) 
autodockgpu

>  <m_score__min__energy>  (85) 
-9.2300000000000004

>  <m_primary>  (85) 
energy

>  <rmsd>  (85) 
8.34134702607482

>  <m_score__min__rmsd>  (85) 
8.34134702607482

>  <meeko>  (85) 
{"free_energy": -8.79, "intermolecular_energy": -10.28, "internal_energy": -1.57, "cluster_size": 1, "cluster_id": 3, "rank_in_cluster": 1}

>  <energy>  (85) 
-8.62

>  <cluster_rmsd>  (85) 
0.95

>  <cluster>  (85) 
2

$$$$

     RDKit          3D

 51 54  0  0  0  0  0  0  0  0999 V2000
  138.7140   75.3300  221.8090 O   0  0  0  0  0  0  0  0  0  0  0  0
  139.9060   75.7530  221.9900 C   0  0  0  0  0  0  0  0  0  0  0  0
  141.0200   74.8660  221.8190 N   0  0  0  0  0  0  0  0  0  0  0  0
  140.7490   73.4990  221.4410 C   0  0  0  0  0  0  0  0  0  0  0  0
  141.6890   73.0180  220.4120 C   0  0  0  0  0  0  0  0  0  0  0  0
  141.2310   72.4280  219.4010 O   0  0  0  0  0  0  0  0  0  0  0  0
  143.0940   73.1790  220.4860 N   0  0  0  0  0  0  0  0  0  0  0  0
  143.9280   71.9930  220.4600 C   0  0  0  0  0  0  0  0  0  0  0  0
  145.0590   72.0870  219.4880 C   0  0  0  0  0  0  0  0  0  0  0  0
  145.8080   73.3730  219.5960 C   0  0  0  0  0  0  0  0  0  0  0  0
  145.2490   74.2590  220.6680 C   0  0  0  0  0  0  0  0  0  0  0  0
  143.7600   74.4580  220.5900 C   0  0  1  0  0  0  0  0  0  0  0  0
  143.4640   75.3660  219.4600 C   0  0  0  0  0  0  0  0  0  0  0  0
  143.7270   75.0750  218.1430 C   0  0  0  0  0  0  0  0  0  0  0  0
  143.4190   75.9960  217.1500 C   0  0  0  0  0  0  0  0  0  0  0  0
  142.8430   77.2240  217.4550 C   0  0  0  0  0  0  0  0  0  0  0  0
  142.5750   77.5210  218.7790 C   0  0  0  0  0  0  0  0  0  0  0  0
  141.8460   79.0520  219.2610 Cl  0  0  0  0  0  0  0  0  0  0  0  0
  142.8840   76.6000  219.7570 C   0  0  0  0  0  0  0  0  0  0  0  0
  140.1620   77.1470  222.3740 C   0  0  0  0  0  0  0  0  0  0  0  0
  139.0710   77.9790  222.5690 C   0  0  0  0  0  0  0  0  0  0  0  0
  139.2870   79.2920  222.9310 C   0  0  0  0  0  0  0  0  0  0  0  0
  140.5670   79.7820  223.0990 C   0  0  0  0  0  0  0  0  0  0  0  0
  140.8310   81.0870  223.4590 C   0  0  0  0  0  0  0  0  0  0  0  0
  142.1070   81.5840  223.6300 C   0  0  0  0  0  0  0  0  0  0  0  0
  143.1670   80.6960  223.4190 C   0  0  0  0  0  0  0  0  0  0  0  0
  142.9190   79.3690  223.0530 C   0  0  0  0  0  0  0  0  0  0  0  0
  141.6310   78.8970  222.8890 C   0  0  0  0  0  0  0  0  0  0  0  0
  141.4120   77.6170  222.5370 N   0  0  0  0  0  0  0  0  0  0  0  0
  141.9730   75.2580  221.9780 H   0  0  0  0  0  0  0  0  0  0  0  0
  140.8380   72.8592  222.3314 H   0  0  0  0  0  0  0  0  0  0  0  0
  139.7327   73.4555  221.0224 H   0  0  0  0  0  0  0  0  0  0  0  0
  144.3444   71.8368  221.4661 H   0  0  0  0  0  0  0  0  0  0  0  0
  143.2921   71.1545  220.1399 H   0  0  0  0  0  0  0  0  0  0  0  0
  145.7558   71.2573  219.6780 H   0  0  0  0  0  0  0  0  0  0  0  0
  144.6313   72.0365  218.4758 H   0  0  0  0  0  0  0  0  0  0  0  0
  146.8601   73.1529  219.8298 H   0  0  0  0  0  0  0  0  0  0  0  0
  145.7165   73.9016  218.6357 H   0  0  0  0  0  0  0  0  0  0  0  0
  145.4864   73.8110  221.6442 H   0  0  0  0  0  0  0  0  0  0  0  0
  145.7076   75.2493  220.5303 H   0  0  0  0  0  0  0  0  0  0  0  0
  143.3752   74.9294  221.5064 H   0  0  0  0  0  0  0  0  0  0  0  0
  144.1825   74.1104  217.8746 H   0  0  0  0  0  0  0  0  0  0  0  0
  143.6354   75.7486  216.1002 H   0  0  0  0  0  0  0  0  0  0  0  0
  142.6051   77.9451  216.6591 H   0  0  0  0  0  0  0  0  0  0  0  0
  142.6661   76.8460  220.8068 H   0  0  0  0  0  0  0  0  0  0  0  0
  138.0477   77.5976  222.4370 H   0  0  0  0  0  0  0  0  0  0  0  0
  138.4266   79.9591  223.0883 H   0  0  0  0  0  0  0  0  0  0  0  0
  139.9807   81.7666  223.6180 H   0  0  0  0  0  0  0  0  0  0  0  0
  142.2825   82.6307  223.9191 H   0  0  0  0  0  0  0  0  0  0  0  0
  144.2033   81.0439  223.5418 H   0  0  0  0  0  0  0  0  0  0  0  0
  143.7671   78.6871  222.8924 H   0  0  0  0  0  0  0  0  0  0  0  0
  1  2  2  0
  2  3  1  0
  3  4  1  0
  4  5  1  0
  5  6  2  0
  5  7  1  0
  7  8  1  0
  8  9  1  0
  9 10  1  0
 10 11  1  0
 11 12  1  0
 12 13  1  0
 13 14  2  0
 14 15  1  0
 15 16  2  0
 16 17  1  0
 17 18  1  0
 17 19  2  0
  2 20  1  0
 20 21  2  0
 21 22  1  0
 22 23  2  0
 23 24  1  0
 24 25  2  0
 25 26  1  0
 26 27  2  0
 27 28  1  0
 28 29  2  0
 12  7  1  0
 19 13  1  0
 29 20  1  0
 28 23  1  0
  3 30  1  0
  4 31  1  0
  4 32  1  0
  8 33  1  0
  8 34  1  0
  9 35  1  0
  9 36  1  0
 10 37  1  0
 10 38  1  0
 11 39  1  0
 11 40  1  0
 12 41  1  1
 14 42  1  0
 15 43  1  0
 16 44  1  0
 19 45  1  0
 21 46  1  0
 22 47  1  0
 24 48  1  0
 25 49  1  0
 26 50  1  0
 27 51  1  0
M  END
>  <smiles>  (86) 
O=C(NCC(=O)N1CCCCC1c1cccc(Cl)c1)c1ccc2ccccc2n1

>  <score_type>  (86) 
oracle

>  <origin>  (86) 
autodockgpu

>  <m_score__min__energy>  (86) 
-9.2300000000000004

>  <m_primary>  (86) 
energy

>  <rmsd>  (86) 
7.742990492189975

>  <m_score__min__rmsd>  (86) 
7.742990492189975

>  <meeko>  (86) 
{"free_energy": -7.91, "intermolecular_energy": -9.4, "internal_energy": -2.64, "cluster_size": 7, "cluster_id": 7, "rank_in_cluster": 6}

>  <energy>  (86) 
-8.57

>  <cluster_rmsd>  (86) 
0.91

>  <cluster>  (86) 
2

$$$$

     RDKit          3D

 51 54  0  0  0  0  0  0  0  0999 V2000
  141.0650   71.7020  221.3730 O   0  0  0  0  0  0  0  0  0  0  0  0
  140.4770   72.2240  222.3790 C   0  0  0  0  0  0  0  0  0  0  0  0
  140.0220   73.5830  222.3230 N   0  0  0  0  0  0  0  0  0  0  0  0
  140.2510   74.3280  221.1060 C   0  0  0  0  0  0  0  0  0  0  0  0
  140.4370   75.7660  221.3700 C   0  0  0  0  0  0  0  0  0  0  0  0
  140.3120   76.1880  222.5470 O   0  0  0  0  0  0  0  0  0  0  0  0
  140.7530   76.7190  220.3710 N   0  0  0  0  0  0  0  0  0  0  0  0
  140.0060   76.6920  219.1300 C   0  0  0  0  0  0  0  0  0  0  0  0
  139.4970   78.0350  218.7160 C   0  0  0  0  0  0  0  0  0  0  0  0
  140.5420   79.0970  218.7920 C   0  0  0  0  0  0  0  0  0  0  0  0
  141.8610   78.5540  219.2540 C   0  0  0  0  0  0  0  0  0  0  0  0
  141.7820   77.7260  220.5080 C   0  0  1  0  0  0  0  0  0  0  0  0
  141.5670   78.6310  221.6580 C   0  0  0  0  0  0  0  0  0  0  0  0
  142.5760   79.1660  222.4230 C   0  0  0  0  0  0  0  0  0  0  0  0
  142.2730   80.0020  223.4890 C   0  0  0  0  0  0  0  0  0  0  0  0
  140.9590   80.3200  223.8120 C   0  0  0  0  0  0  0  0  0  0  0  0
  139.9400   79.7850  223.0440 C   0  0  0  0  0  0  0  0  0  0  0  0
  138.2440   80.1310  223.3770 Cl  0  0  0  0  0  0  0  0  0  0  0  0
  140.2500   78.9560  221.9880 C   0  0  0  0  0  0  0  0  0  0  0  0
  140.2520   71.4520  223.6080 C   0  0  0  0  0  0  0  0  0  0  0  0
  139.5690   70.2500  223.5040 C   0  0  0  0  0  0  0  0  0  0  0  0
  139.3470   69.5060  224.6440 C   0  0  0  0  0  0  0  0  0  0  0  0
  139.7930   69.9430  225.8760 C   0  0  0  0  0  0  0  0  0  0  0  0
  139.5920   69.2340  227.0420 C   0  0  0  0  0  0  0  0  0  0  0  0
  140.0350   69.6630  228.2760 C   0  0  0  0  0  0  0  0  0  0  0  0
  140.7180   70.8830  228.3160 C   0  0  0  0  0  0  0  0  0  0  0  0
  140.9300   71.6170  227.1440 C   0  0  0  0  0  0  0  0  0  0  0  0
  140.4760   71.1630  225.9210 C   0  0  0  0  0  0  0  0  0  0  0  0
  140.6890   71.8830  224.8040 N   0  0  0  0  0  0  0  0  0  0  0  0
  139.5470   73.9650  223.1690 H   0  0  0  0  0  0  0  0  0  0  0  0
  141.1537   73.9369  220.6139 H   0  0  0  0  0  0  0  0  0  0  0  0
  139.3667   74.2106  220.4623 H   0  0  0  0  0  0  0  0  0  0  0  0
  140.6627   76.3076  218.3357 H   0  0  0  0  0  0  0  0  0  0  0  0
  139.1294   76.0475  219.2918 H   0  0  0  0  0  0  0  0  0  0  0  0
  139.1366   77.9700  217.6788 H   0  0  0  0  0  0  0  0  0  0  0  0
  138.6909   78.3127  219.4110 H   0  0  0  0  0  0  0  0  0  0  0  0
  140.6706   79.5410  217.7938 H   0  0  0  0  0  0  0  0  0  0  0  0
  140.2095   79.8497  219.5221 H   0  0  0  0  0  0  0  0  0  0  0  0
  142.2757   77.9262  218.4516 H   0  0  0  0  0  0  0  0  0  0  0  0
  142.4957   79.4215  219.4875 H   0  0  0  0  0  0  0  0  0  0  0  0
  142.7216   77.1818  220.6839 H   0  0  0  0  0  0  0  0  0  0  0  0
  143.6251   78.9313  222.1901 H   0  0  0  0  0  0  0  0  0  0  0  0
  143.0914   80.4224  224.0918 H   0  0  0  0  0  0  0  0  0  0  0  0
  140.7340   80.9831  224.6604 H   0  0  0  0  0  0  0  0  0  0  0  0
  139.4319   78.5359  221.3844 H   0  0  0  0  0  0  0  0  0  0  0  0
  139.2095   69.8950  222.5269 H   0  0  0  0  0  0  0  0  0  0  0  0
  138.8068   68.5506  224.5709 H   0  0  0  0  0  0  0  0  0  0  0  0
  139.0510   68.2779  226.9850 H   0  0  0  0  0  0  0  0  0  0  0  0
  139.8591   69.0724  229.1872 H   0  0  0  0  0  0  0  0  0  0  0  0
  141.0913   71.2683  229.2763 H   0  0  0  0  0  0  0  0  0  0  0  0
  141.4688   72.5745  227.1975 H   0  0  0  0  0  0  0  0  0  0  0  0
  1  2  2  0
  2  3  1  0
  3  4  1  0
  4  5  1  0
  5  6  2  0
  5  7  1  0
  7  8  1  0
  8  9  1  0
  9 10  1  0
 10 11  1  0
 11 12  1  0
 12 13  1  0
 13 14  2  0
 14 15  1  0
 15 16  2  0
 16 17  1  0
 17 18  1  0
 17 19  2  0
  2 20  1  0
 20 21  2  0
 21 22  1  0
 22 23  2  0
 23 24  1  0
 24 25  2  0
 25 26  1  0
 26 27  2  0
 27 28  1  0
 28 29  2  0
 12  7  1  0
 19 13  1  0
 29 20  1  0
 28 23  1  0
  3 30  1  0
  4 31  1  0
  4 32  1  0
  8 33  1  0
  8 34  1  0
  9 35  1  0
  9 36  1  0
 10 37  1  0
 10 38  1  0
 11 39  1  0
 11 40  1  0
 12 41  1  1
 14 42  1  0
 15 43  1  0
 16 44  1  0
 19 45  1  0
 21 46  1  0
 22 47  1  0
 24 48  1  0
 25 49  1  0
 26 50  1  0
 27 51  1  0
M  END
>  <smiles>  (87) 
O=C(NCC(=O)N1CCCCC1c1cccc(Cl)c1)c1ccc2ccccc2n1

>  <score_type>  (87) 
oracle

>  <origin>  (87) 
autodockgpu

>  <m_score__min__energy>  (87) 
-9.2300000000000004

>  <m_primary>  (87) 
energy

>  <rmsd>  (87) 
1.7996850455045121

>  <m_score__min__rmsd>  (87) 
1.7996850455045121

>  <meeko>  (87) 
{"free_energy": -8.98, "intermolecular_energy": -10.48, "internal_energy": -1.67, "cluster_size": 17, "cluster_id": 1, "rank_in_cluster": 4}

>  <energy>  (87) 
-8.48

>  <cluster_rmsd>  (87) 
0.92

>  <cluster>  (87) 
2

$$$$

     RDKit          3D

 51 54  0  0  0  0  0  0  0  0999 V2000
  141.1030   72.8710  222.1040 O   0  0  0  0  0  0  0  0  0  0  0  0
  140.0270   72.5630  222.7190 C   0  0  0  0  0  0  0  0  0  0  0  0
  138.7840   73.1740  222.3480 N   0  0  0  0  0  0  0  0  0  0  0  0
  138.7930   74.1360  221.2700 C   0  0  0  0  0  0  0  0  0  0  0  0
  139.6240   75.3100  221.5910 C   0  0  0  0  0  0  0  0  0  0  0  0
  139.6510   75.7290  222.7760 O   0  0  0  0  0  0  0  0  0  0  0  0
  140.4060   76.0090  220.6400 N   0  0  0  0  0  0  0  0  0  0  0  0
  140.1500   75.7810  219.2320 C   0  0  0  0  0  0  0  0  0  0  0  0
  140.0210   77.0420  218.4410 C   0  0  0  0  0  0  0  0  0  0  0  0
  141.1150   78.0160  218.7250 C   0  0  0  0  0  0  0  0  0  0  0  0
  142.0920   77.4850  219.7310 C   0  0  0  0  0  0  0  0  0  0  0  0
  141.4560   76.9430  220.9820 C   0  0  1  0  0  0  0  0  0  0  0  0
  140.9830   78.0810  221.8010 C   0  0  0  0  0  0  0  0  0  0  0  0
  139.6610   78.4100  221.9810 C   0  0  0  0  0  0  0  0  0  0  0  0
  139.3150   79.5030  222.7650 C   0  0  0  0  0  0  0  0  0  0  0  0
  140.2820   80.2880  223.3820 C   0  0  0  0  0  0  0  0  0  0  0  0
  141.6150   79.9600  223.2040 C   0  0  0  0  0  0  0  0  0  0  0  0
  142.9100   80.8960  223.9470 Cl  0  0  0  0  0  0  0  0  0  0  0  0
  141.9480   78.8730  222.4250 C   0  0  0  0  0  0  0  0  0  0  0  0
  140.0360   71.5810  223.8120 C   0  0  0  0  0  0  0  0  0  0  0  0
  139.5090   70.3240  223.5600 C   0  0  0  0  0  0  0  0  0  0  0  0
  139.5080   69.3850  224.5710 C   0  0  0  0  0  0  0  0  0  0  0  0
  140.0210   69.6820  225.8180 C   0  0  0  0  0  0  0  0  0  0  0  0
  140.0390   68.7750  226.8570 C   0  0  0  0  0  0  0  0  0  0  0  0
  140.5500   69.0640  228.1060 C   0  0  0  0  0  0  0  0  0  0  0  0
  141.0680   70.3500  228.2980 C   0  0  0  0  0  0  0  0  0  0  0  0
  141.0570   71.2820  227.2560 C   0  0  0  0  0  0  0  0  0  0  0  0
  140.5390   70.9660  226.0140 C   0  0  0  0  0  0  0  0  0  0  0  0
  140.5370   71.8770  225.0240 N   0  0  0  0  0  0  0  0  0  0  0  0
  137.9320   72.8890  222.8790 H   0  0  0  0  0  0  0  0  0  0  0  0
  139.1924   73.6536  220.3657 H   0  0  0  0  0  0  0  0  0  0  0  0
  137.7607   74.4810  221.1110 H   0  0  0  0  0  0  0  0  0  0  0  0
  140.9816   75.1926  218.8171 H   0  0  0  0  0  0  0  0  0  0  0  0
  139.1888   75.2513  219.1581 H   0  0  0  0  0  0  0  0  0  0  0  0
  140.0440   76.7896  217.3706 H   0  0  0  0  0  0  0  0  0  0  0  0
  139.0712   77.5173  218.7273 H   0  0  0  0  0  0  0  0  0  0  0  0
  141.6508   78.2313  217.7888 H   0  0  0  0  0  0  0  0  0  0  0  0
  140.6598   78.9268  219.1411 H   0  0  0  0  0  0  0  0  0  0  0  0
  142.6681   76.6758  219.2585 H   0  0  0  0  0  0  0  0  0  0  0  0
  142.7214   78.3331  220.0384 H   0  0  0  0  0  0  0  0  0  0  0  0
  142.1837   76.3781  221.5831 H   0  0  0  0  0  0  0  0  0  0  0  0
  138.8752   77.8065  221.5032 H   0  0  0  0  0  0  0  0  0  0  0  0
  138.2524   79.7529  222.9006 H   0  0  0  0  0  0  0  0  0  0  0  0
  139.9940   81.1520  223.9989 H   0  0  0  0  0  0  0  0  0  0  0  0
  143.0103   78.6211  222.2905 H   0  0  0  0  0  0  0  0  0  0  0  0
  139.0980   70.0789  222.5695 H   0  0  0  0  0  0  0  0  0  0  0  0
  139.0922   68.3846  224.3806 H   0  0  0  0  0  0  0  0  0  0  0  0
  139.6253   67.7710  226.6813 H   0  0  0  0  0  0  0  0  0  0  0  0
  140.5502   68.3175  228.9140 H   0  0  0  0  0  0  0  0  0  0  0  0
  141.4868   70.6294  229.2760 H   0  0  0  0  0  0  0  0  0  0  0  0
  141.4690   72.2873  227.4280 H   0  0  0  0  0  0  0  0  0  0  0  0
  1  2  2  0
  2  3  1  0
  3  4  1  0
  4  5  1  0
  5  6  2  0
  5  7  1  0
  7  8  1  0
  8  9  1  0
  9 10  1  0
 10 11  1  0
 11 12  1  0
 12 13  1  0
 13 14  2  0
 14 15  1  0
 15 16  2  0
 16 17  1  0
 17 18  1  0
 17 19  2  0
  2 20  1  0
 20 21  2  0
 21 22  1  0
 22 23  2  0
 23 24  1  0
 24 25  2  0
 25 26  1  0
 26 27  2  0
 27 28  1  0
 28 29  2  0
 12  7  1  0
 19 13  1  0
 29 20  1  0
 28 23  1  0
  3 30  1  0
  4 31  1  0
  4 32  1  0
  8 33  1  0
  8 34  1  0
  9 35  1  0
  9 36  1  0
 10 37  1  0
 10 38  1  0
 11 39  1  0
 11 40  1  0
 12 41  1  1
 14 42  1  0
 15 43  1  0
 16 44  1  0
 19 45  1  0
 21 46  1  0
 22 47  1  0
 24 48  1  0
 25 49  1  0
 26 50  1  0
 27 51  1  0
M  END
>  <smiles>  (88) 
O=C(NCC(=O)N1CCCCC1c1cccc(Cl)c1)c1ccc2ccccc2n1

>  <score_type>  (88) 
oracle

>  <origin>  (88) 
autodockgpu

>  <m_score__min__energy>  (88) 
-9.2300000000000004

>  <m_primary>  (88) 
energy

>  <rmsd>  (88) 
1.4488052114433887

>  <m_score__min__rmsd>  (88) 
1.4488052114433887

>  <meeko>  (88) 
{"free_energy": -9.1, "intermolecular_energy": -10.6, "internal_energy": -1.32, "cluster_size": 17, "cluster_id": 1, "rank_in_cluster": 3}

>  <energy>  (88) 
-7.98

>  <cluster_rmsd>  (88) 
1.31

>  <cluster>  (88) 
2

$$$$

     RDKit          3D

 51 54  0  0  0  0  0  0  0  0999 V2000
  140.5740   71.5760  221.2910 O   0  0  0  0  0  0  0  0  0  0  0  0
  140.1110   72.0960  222.3610 C   0  0  0  0  0  0  0  0  0  0  0  0
  139.5780   73.4280  222.3440 N   0  0  0  0  0  0  0  0  0  0  0  0
  139.5850   74.1470  221.0920 C   0  0  0  0  0  0  0  0  0  0  0  0
  140.7880   74.9860  220.9470 C   0  0  0  0  0  0  0  0  0  0  0  0
  141.3650   75.4020  221.9830 O   0  0  0  0  0  0  0  0  0  0  0  0
  141.3470   75.3600  219.7010 N   0  0  0  0  0  0  0  0  0  0  0  0
  141.5610   76.7680  219.4340 C   0  0  0  0  0  0  0  0  0  0  0  0
  142.9270   77.0700  218.9070 C   0  0  0  0  0  0  0  0  0  0  0  0
  143.3330   76.1570  217.7990 C   0  0  0  0  0  0  0  0  0  0  0  0
  142.2620   75.1620  217.4710 C   0  0  0  0  0  0  0  0  0  0  0  0
  141.7200   74.4220  218.6650 C   0  0  1  0  0  0  0  0  0  0  0  0
  142.7300   73.4340  219.1050 C   0  0  0  0  0  0  0  0  0  0  0  0
  142.6570   72.0860  218.8510 C   0  0  0  0  0  0  0  0  0  0  0  0
  143.6530   71.2350  219.3120 C   0  0  0  0  0  0  0  0  0  0  0  0
  144.7390   71.7150  220.0360 C   0  0  0  0  0  0  0  0  0  0  0  0
  144.8160   73.0720  220.2940 C   0  0  0  0  0  0  0  0  0  0  0  0
  146.1550   73.7710  221.2020 Cl  0  0  0  0  0  0  0  0  0  0  0  0
  143.8230   73.9080  219.8320 C   0  0  0  0  0  0  0  0  0  0  0  0
  140.1110   71.3500  223.6260 C   0  0  0  0  0  0  0  0  0  0  0  0
  139.6050   70.0590  223.6190 C   0  0  0  0  0  0  0  0  0  0  0  0
  139.5960   69.3380  224.7950 C   0  0  0  0  0  0  0  0  0  0  0  0
  140.0810   69.8830  225.9670 C   0  0  0  0  0  0  0  0  0  0  0  0
  140.0910   69.2000  227.1660 C   0  0  0  0  0  0  0  0  0  0  0  0
  140.5750   69.7370  228.3410 C   0  0  0  0  0  0  0  0  0  0  0  0
  141.0730   71.0430  228.2840 C   0  0  0  0  0  0  0  0  0  0  0  0
  141.0700   71.7510  227.0780 C   0  0  0  0  0  0  0  0  0  0  0  0
  140.5800   71.1890  225.9150 C   0  0  0  0  0  0  0  0  0  0  0  0
  140.5860   71.8860  224.7650 N   0  0  0  0  0  0  0  0  0  0  0  0
  139.2110   73.8090  223.2430 H   0  0  0  0  0  0  0  0  0  0  0  0
  139.5553   73.4220  220.2653 H   0  0  0  0  0  0  0  0  0  0  0  0
  138.7049   74.8066  221.0726 H   0  0  0  0  0  0  0  0  0  0  0  0
  140.8196   77.0991  218.6919 H   0  0  0  0  0  0  0  0  0  0  0  0
  141.4565   77.3002  220.3910 H   0  0  0  0  0  0  0  0  0  0  0  0
  142.9387   78.1043  218.5326 H   0  0  0  0  0  0  0  0  0  0  0  0
  143.6400   76.9273  219.7324 H   0  0  0  0  0  0  0  0  0  0  0  0
  143.5454   76.7585  216.9029 H   0  0  0  0  0  0  0  0  0  0  0  0
  144.2244   75.6015  218.1257 H   0  0  0  0  0  0  0  0  0  0  0  0
  141.4299   75.6969  216.9899 H   0  0  0  0  0  0  0  0  0  0  0  0
  142.7211   74.4086  216.8141 H   0  0  0  0  0  0  0  0  0  0  0  0
  140.8038   73.8705  218.4074 H   0  0  0  0  0  0  0  0  0  0  0  0
  141.8081   71.6798  218.2814 H   0  0  0  0  0  0  0  0  0  0  0  0
  143.5813   70.1580  219.0999 H   0  0  0  0  0  0  0  0  0  0  0  0
  145.5206   71.0299  220.3961 H   0  0  0  0  0  0  0  0  0  0  0  0
  143.8941   74.9852  220.0432 H   0  0  0  0  0  0  0  0  0  0  0  0
  139.2167   69.6165  222.6898 H   0  0  0  0  0  0  0  0  0  0  0  0
  139.1963   68.3132  224.7990 H   0  0  0  0  0  0  0  0  0  0  0  0
  139.6927   68.1748  227.1859 H   0  0  0  0  0  0  0  0  0  0  0  0
  140.5696   69.1642  229.2801 H   0  0  0  0  0  0  0  0  0  0  0  0
  141.4697   71.5164  229.1942 H   0  0  0  0  0  0  0  0  0  0  0  0
  141.4661   72.7769  227.0549 H   0  0  0  0  0  0  0  0  0  0  0  0
  1  2  2  0
  2  3  1  0
  3  4  1  0
  4  5  1  0
  5  6  2  0
  5  7  1  0
  7  8  1  0
  8  9  1  0
  9 10  1  0
 10 11  1  0
 11 12  1  0
 12 13  1  0
 13 14  2  0
 14 15  1  0
 15 16  2  0
 16 17  1  0
 17 18  1  0
 17 19  2  0
  2 20  1  0
 20 21  2  0
 21 22  1  0
 22 23  2  0
 23 24  1  0
 24 25  2  0
 25 26  1  0
 26 27  2  0
 27 28  1  0
 28 29  2  0
 12  7  1  0
 19 13  1  0
 29 20  1  0
 28 23  1  0
  3 30  1  0
  4 31  1  0
  4 32  1  0
  8 33  1  0
  8 34  1  0
  9 35  1  0
  9 36  1  0
 10 37  1  0
 10 38  1  0
 11 39  1  0
 11 40  1  0
 12 41  1  6
 14 42  1  0
 15 43  1  0
 16 44  1  0
 19 45  1  0
 21 46  1  0
 22 47  1  0
 24 48  1  0
 25 49  1  0
 26 50  1  0
 27 51  1  0
M  END
>  <smiles>  (89) 
O=C(NCC(=O)N1CCCCC1c1cccc(Cl)c1)c1ccc2ccccc2n1

>  <score_type>  (89) 
oracle

>  <origin>  (89) 
autodockgpu

>  <m_score__min__energy>  (89) 
-9.2300000000000004

>  <m_primary>  (89) 
energy

>  <rmsd>  (89) 
2.150917369298829

>  <m_score__min__rmsd>  (89) 
2.150917369298829

>  <meeko>  (89) 
{"free_energy": -8.48, "intermolecular_energy": -9.97, "internal_energy": -1.95, "cluster_size": 21, "cluster_id": 2, "rank_in_cluster": 20}

>  <energy>  (89) 
-8.79

>  <cluster_rmsd>  (89) 
0.0

>  <cluster>  (89) 
3

$$$$

     RDKit          3D

 51 54  0  0  0  0  0  0  0  0999 V2000
  141.0730   71.7750  221.4170 O   0  0  0  0  0  0  0  0  0  0  0  0
  140.3190   72.1640  222.3720 C   0  0  0  0  0  0  0  0  0  0  0  0
  139.5370   73.3580  222.2330 N   0  0  0  0  0  0  0  0  0  0  0  0
  139.6320   74.0940  220.9940 C   0  0  0  0  0  0  0  0  0  0  0  0
  140.8790   74.8760  220.9150 C   0  0  0  0  0  0  0  0  0  0  0  0
  141.4890   75.1550  221.9780 O   0  0  0  0  0  0  0  0  0  0  0  0
  141.4460   75.3410  219.7030 N   0  0  0  0  0  0  0  0  0  0  0  0
  141.2220   76.7200  219.3190 C   0  0  0  0  0  0  0  0  0  0  0  0
  142.4720   77.4320  218.9120 C   0  0  0  0  0  0  0  0  0  0  0  0
  143.2970   76.6440  217.9510 C   0  0  0  0  0  0  0  0  0  0  0  0
  142.6640   75.3280  217.6150 C   0  0  0  0  0  0  0  0  0  0  0  0
  142.2400   74.5230  218.8130 C   0  0  1  0  0  0  0  0  0  0  0  0
  143.4480   73.9610  219.4550 C   0  0  0  0  0  0  0  0  0  0  0  0
  144.1820   74.6040  220.4220 C   0  0  0  0  0  0  0  0  0  0  0  0
  145.3090   73.9970  220.9620 C   0  0  0  0  0  0  0  0  0  0  0  0
  145.7230   72.7370  220.5450 C   0  0  0  0  0  0  0  0  0  0  0  0
  144.9860   72.0850  219.5720 C   0  0  0  0  0  0  0  0  0  0  0  0
  145.4340   70.4860  218.9820 Cl  0  0  0  0  0  0  0  0  0  0  0  0
  143.8700   72.6960  219.0430 C   0  0  0  0  0  0  0  0  0  0  0  0
  140.2330   71.4030  223.6250 C   0  0  0  0  0  0  0  0  0  0  0  0
  139.6430   70.1490  223.5850 C   0  0  0  0  0  0  0  0  0  0  0  0
  139.5520   69.4150  224.7500 C   0  0  0  0  0  0  0  0  0  0  0  0
  140.0390   69.9110  225.9420 C   0  0  0  0  0  0  0  0  0  0  0  0
  139.9690   69.2130  227.1300 C   0  0  0  0  0  0  0  0  0  0  0  0
  140.4540   69.7010  228.3260 C   0  0  0  0  0  0  0  0  0  0  0  0
  141.0400   70.9720  228.3030 C   0  0  0  0  0  0  0  0  0  0  0  0
  141.1180   71.6940  227.1070 C   0  0  0  0  0  0  0  0  0  0  0  0
  140.6250   71.1810  225.9230 C   0  0  0  0  0  0  0  0  0  0  0  0
  140.7100   71.8910  224.7840 N   0  0  0  0  0  0  0  0  0  0  0  0
  138.9370   73.6350  223.0400 H   0  0  0  0  0  0  0  0  0  0  0  0
  139.6038   73.3833  220.1549 H   0  0  0  0  0  0  0  0  0  0  0  0
  138.7857   74.7951  220.9475 H   0  0  0  0  0  0  0  0  0  0  0  0
  140.5195   76.7369  218.4727 H   0  0  0  0  0  0  0  0  0  0  0  0
  140.8223   77.2425  220.2006 H   0  0  0  0  0  0  0  0  0  0  0  0
  142.1955   78.3857  218.4387 H   0  0  0  0  0  0  0  0  0  0  0  0
  143.0757   77.5874  219.8183 H   0  0  0  0  0  0  0  0  0  0  0  0
  143.4177   77.2265  217.0257 H   0  0  0  0  0  0  0  0  0  0  0  0
  144.2694   76.4423  218.4240 H   0  0  0  0  0  0  0  0  0  0  0  0
  141.7747   75.5209  216.9969 H   0  0  0  0  0  0  0  0  0  0  0  0
  143.4277   74.7351  217.0904 H   0  0  0  0  0  0  0  0  0  0  0  0
  141.5975   73.6806  218.5172 H   0  0  0  0  0  0  0  0  0  0  0  0
  143.8766   75.6020  220.7696 H   0  0  0  0  0  0  0  0  0  0  0  0
  145.8860   74.5245  221.7359 H   0  0  0  0  0  0  0  0  0  0  0  0
  146.6181   72.2680  220.9796 H   0  0  0  0  0  0  0  0  0  0  0  0
  143.2920   72.1689  218.2697 H   0  0  0  0  0  0  0  0  0  0  0  0
  139.2533   69.7453  222.6389 H   0  0  0  0  0  0  0  0  0  0  0  0
  139.0843   68.4196  224.7281 H   0  0  0  0  0  0  0  0  0  0  0  0
  139.5028   68.2167  227.1234 H   0  0  0  0  0  0  0  0  0  0  0  0
  140.3833   69.1175  229.2558 H   0  0  0  0  0  0  0  0  0  0  0  0
  141.4416   71.4058  229.2307 H   0  0  0  0  0  0  0  0  0  0  0  0
  141.5818   72.6914  227.1097 H   0  0  0  0  0  0  0  0  0  0  0  0
  1  2  2  0
  2  3  1  0
  3  4  1  0
  4  5  1  0
  5  6  2  0
  5  7  1  0
  7  8  1  0
  8  9  1  0
  9 10  1  0
 10 11  1  0
 11 12  1  0
 12 13  1  0
 13 14  2  0
 14 15  1  0
 15 16  2  0
 16 17  1  0
 17 18  1  0
 17 19  2  0
  2 20  1  0
 20 21  2  0
 21 22  1  0
 22 23  2  0
 23 24  1  0
 24 25  2  0
 25 26  1  0
 26 27  2  0
 27 28  1  0
 28 29  2  0
 12  7  1  0
 19 13  1  0
 29 20  1  0
 28 23  1  0
  3 30  1  0
  4 31  1  0
  4 32  1  0
  8 33  1  0
  8 34  1  0
  9 35  1  0
  9 36  1  0
 10 37  1  0
 10 38  1  0
 11 39  1  0
 11 40  1  0
 12 41  1  6
 14 42  1  0
 15 43  1  0
 16 44  1  0
 19 45  1  0
 21 46  1  0
 22 47  1  0
 24 48  1  0
 25 49  1  0
 26 50  1  0
 27 51  1  0
M  END
>  <smiles>  (90) 
O=C(NCC(=O)N1CCCCC1c1cccc(Cl)c1)c1ccc2ccccc2n1

>  <score_type>  (90) 
oracle

>  <origin>  (90) 
autodockgpu

>  <m_score__min__energy>  (90) 
-9.2300000000000004

>  <m_primary>  (90) 
energy

>  <rmsd>  (90) 
2.102408981949102

>  <m_score__min__rmsd>  (90) 
2.102408981949102

>  <meeko>  (90) 
{"free_energy": -8.96, "intermolecular_energy": -10.45, "internal_energy": -1.78, "cluster_size": 21, "cluster_id": 2, "rank_in_cluster": 5}

>  <energy>  (90) 
-8.53

>  <cluster_rmsd>  (90) 
0.0

>  <cluster>  (90) 
4

$$$$

     RDKit          3D

 51 54  0  0  0  0  0  0  0  0999 V2000
  140.3900   71.5850  221.1580 O   0  0  0  0  0  0  0  0  0  0  0  0
  140.1100   72.1540  222.2660 C   0  0  0  0  0  0  0  0  0  0  0  0
  139.7910   73.5520  222.2990 N   0  0  0  0  0  0  0  0  0  0  0  0
  139.7990   74.2810  221.0530 C   0  0  0  0  0  0  0  0  0  0  0  0
  141.1460   74.7730  220.7130 C   0  0  0  0  0  0  0  0  0  0  0  0
  142.1450   74.2040  221.2200 O   0  0  0  0  0  0  0  0  0  0  0  0
  141.3950   75.8600  219.8400 N   0  0  0  0  0  0  0  0  0  0  0  0
  140.9400   75.7620  218.4680 C   0  0  0  0  0  0  0  0  0  0  0  0
  140.1930   76.9710  218.0030 C   0  0  0  0  0  0  0  0  0  0  0  0
  140.8910   78.2450  218.3390 C   0  0  0  0  0  0  0  0  0  0  0  0
  142.1880   78.0040  219.0530 C   0  0  0  0  0  0  0  0  0  0  0  0
  142.0800   77.0730  220.2300 C   0  0  1  0  0  0  0  0  0  0  0  0
  141.4160   77.7910  221.3390 C   0  0  0  0  0  0  0  0  0  0  0  0
  140.1280   77.5530  221.7560 C   0  0  0  0  0  0  0  0  0  0  0  0
  139.5880   78.2850  222.8050 C   0  0  0  0  0  0  0  0  0  0  0  0
  140.3240   79.2670  223.4580 C   0  0  0  0  0  0  0  0  0  0  0  0
  141.6210   79.5100  223.0430 C   0  0  0  0  0  0  0  0  0  0  0  0
  142.6300   80.7340  223.8100 Cl  0  0  0  0  0  0  0  0  0  0  0  0
  142.1480   78.7780  222.0010 C   0  0  0  0  0  0  0  0  0  0  0  0
  140.1050   71.3960  223.5250 C   0  0  0  0  0  0  0  0  0  0  0  0
  139.5860   70.1110  223.5080 C   0  0  0  0  0  0  0  0  0  0  0  0
  139.5720   69.3800  224.6770 C   0  0  0  0  0  0  0  0  0  0  0  0
  140.0660   69.9090  225.8530 C   0  0  0  0  0  0  0  0  0  0  0  0
  140.0720   69.2160  227.0450 C   0  0  0  0  0  0  0  0  0  0  0  0
  140.5630   69.7380  228.2240 C   0  0  0  0  0  0  0  0  0  0  0  0
  141.0750   71.0390  228.1770 C   0  0  0  0  0  0  0  0  0  0  0  0
  141.0760   71.7580  226.9770 C   0  0  0  0  0  0  0  0  0  0  0  0
  140.5780   71.2110  225.8110 C   0  0  0  0  0  0  0  0  0  0  0  0
  140.5880   71.9180  224.6660 N   0  0  0  0  0  0  0  0  0  0  0  0
  139.5680   73.9710  223.2280 H   0  0  0  0  0  0  0  0  0  0  0  0
  139.4500   73.6157  220.2495 H   0  0  0  0  0  0  0  0  0  0  0  0
  139.1357   75.1516  221.1630 H   0  0  0  0  0  0  0  0  0  0  0  0
  141.8170   75.6228  217.8188 H   0  0  0  0  0  0  0  0  0  0  0  0
  140.2453   74.9107  218.4160 H   0  0  0  0  0  0  0  0  0  0  0  0
  140.0742   76.9125  216.9110 H   0  0  0  0  0  0  0  0  0  0  0  0
  139.2214   76.9792  218.5188 H   0  0  0  0  0  0  0  0  0  0  0  0
  141.0949   78.7944  217.4081 H   0  0  0  0  0  0  0  0  0  0  0  0
  140.2375   78.8241  219.0080 H   0  0  0  0  0  0  0  0  0  0  0  0
  142.9016   77.5722  218.3358 H   0  0  0  0  0  0  0  0  0  0  0  0
  142.5169   78.9765  219.4481 H   0  0  0  0  0  0  0  0  0  0  0  0
  143.0745   76.7623  220.5828 H   0  0  0  0  0  0  0  0  0  0  0  0
  139.5237   76.7808  221.2575 H   0  0  0  0  0  0  0  0  0  0  0  0
  138.5554   78.0835  223.1263 H   0  0  0  0  0  0  0  0  0  0  0  0
  139.8839   79.8393  224.2880 H   0  0  0  0  0  0  0  0  0  0  0  0
  143.1809   78.9784  221.6800 H   0  0  0  0  0  0  0  0  0  0  0  0
  139.1911   69.6807  222.5758 H   0  0  0  0  0  0  0  0  0  0  0  0
  139.1610   68.3597  224.6728 H   0  0  0  0  0  0  0  0  0  0  0  0
  139.6644   68.1944  227.0566 H   0  0  0  0  0  0  0  0  0  0  0  0
  140.5524   69.1576  229.1584 H   0  0  0  0  0  0  0  0  0  0  0  0
  141.4797   71.4999  229.0901 H   0  0  0  0  0  0  0  0  0  0  0  0
  141.4819   72.7803  226.9619 H   0  0  0  0  0  0  0  0  0  0  0  0
  1  2  2  0
  2  3  1  0
  3  4  1  0
  4  5  1  0
  5  6  2  0
  5  7  1  0
  7  8  1  0
  8  9  1  0
  9 10  1  0
 10 11  1  0
 11 12  1  0
 12 13  1  0
 13 14  2  0
 14 15  1  0
 15 16  2  0
 16 17  1  0
 17 18  1  0
 17 19  2  0
  2 20  1  0
 20 21  2  0
 21 22  1  0
 22 23  2  0
 23 24  1  0
 24 25  2  0
 25 26  1  0
 26 27  2  0
 27 28  1  0
 28 29  2  0
 12  7  1  0
 19 13  1  0
 29 20  1  0
 28 23  1  0
  3 30  1  0
  4 31  1  0
  4 32  1  0
  8 33  1  0
  8 34  1  0
  9 35  1  0
  9 36  1  0
 10 37  1  0
 10 38  1  0
 11 39  1  0
 11 40  1  0
 12 41  1  1
 14 42  1  0
 15 43  1  0
 16 44  1  0
 19 45  1  0
 21 46  1  0
 22 47  1  0
 24 48  1  0
 25 49  1  0
 26 50  1  0
 27 51  1  0
M  END
>  <smiles>  (91) 
O=C(NCC(=O)N1CCCCC1c1cccc(Cl)c1)c1ccc2ccccc2n1

>  <score_type>  (91) 
oracle

>  <origin>  (91) 
autodockgpu

>  <m_score__min__energy>  (91) 
-9.2300000000000004

>  <m_primary>  (91) 
energy

>  <rmsd>  (91) 
1.5613935304172937

>  <m_score__min__rmsd>  (91) 
1.5613935304172937

>  <meeko>  (91) 
{"free_energy": -8.84, "intermolecular_energy": -10.33, "internal_energy": -1.55, "cluster_size": 17, "cluster_id": 1, "rank_in_cluster": 11}

>  <energy>  (91) 
-8.41

>  <cluster_rmsd>  (91) 
0.0

>  <cluster>  (91) 
5

$$$$

     RDKit          3D

 51 54  0  0  0  0  0  0  0  0999 V2000
  141.3730   72.3090  221.8380 O   0  0  0  0  0  0  0  0  0  0  0  0
  140.3100   72.3660  222.5440 C   0  0  0  0  0  0  0  0  0  0  0  0
  139.2530   73.2660  222.1840 N   0  0  0  0  0  0  0  0  0  0  0  0
  139.4320   74.0920  221.0130 C   0  0  0  0  0  0  0  0  0  0  0  0
  140.4470   75.1390  221.2300 C   0  0  0  0  0  0  0  0  0  0  0  0
  141.0650   75.1670  222.3240 O   0  0  0  0  0  0  0  0  0  0  0  0
  140.7800   76.1290  220.2740 N   0  0  0  0  0  0  0  0  0  0  0  0
  140.2280   76.0130  218.9390 C   0  0  0  0  0  0  0  0  0  0  0  0
  139.6180   77.2830  218.4380 C   0  0  0  0  0  0  0  0  0  0  0  0
  140.4980   78.4680  218.6480 C   0  0  0  0  0  0  0  0  0  0  0  0
  141.7950   78.0950  219.3010 C   0  0  0  0  0  0  0  0  0  0  0  0
  141.6430   77.2580  220.5420 C   0  0  1  0  0  0  0  0  0  0  0  0
  141.1530   78.1230  221.6370 C   0  0  0  0  0  0  0  0  0  0  0  0
  139.8550   78.1390  222.0910 C   0  0  0  0  0  0  0  0  0  0  0  0
  139.4880   78.9930  223.1220 C   0  0  0  0  0  0  0  0  0  0  0  0
  140.4100   79.8460  223.7200 C   0  0  0  0  0  0  0  0  0  0  0  0
  141.7170   79.8320  223.2670 C   0  0  0  0  0  0  0  0  0  0  0  0
  142.9540   80.8770  223.9640 Cl  0  0  0  0  0  0  0  0  0  0  0  0
  142.0720   78.9810  222.2430 C   0  0  0  0  0  0  0  0  0  0  0  0
  140.1450   71.5170  223.7310 C   0  0  0  0  0  0  0  0  0  0  0  0
  139.3920   70.3600  223.6030 C   0  0  0  0  0  0  0  0  0  0  0  0
  139.2230   69.5460  224.7040 C   0  0  0  0  0  0  0  0  0  0  0  0
  139.7920   69.8690  225.9200 C   0  0  0  0  0  0  0  0  0  0  0  0
  139.6490   69.0860  227.0470 C   0  0  0  0  0  0  0  0  0  0  0  0
  140.2150   69.4010  228.2650 C   0  0  0  0  0  0  0  0  0  0  0  0
  140.9640   70.5810  228.3310 C   0  0  0  0  0  0  0  0  0  0  0  0
  141.1190   71.3870  227.1990 C   0  0  0  0  0  0  0  0  0  0  0  0
  140.5420   71.0480  225.9910 C   0  0  0  0  0  0  0  0  0  0  0  0
  140.7020   71.8370  224.9120 N   0  0  0  0  0  0  0  0  0  0  0  0
  138.4050   73.2760  222.7910 H   0  0  0  0  0  0  0  0  0  0  0  0
  139.7507   73.4558  220.1741 H   0  0  0  0  0  0  0  0  0  0  0  0
  138.4738   74.5857  220.7938 H   0  0  0  0  0  0  0  0  0  0  0  0
  141.0351   75.7187  218.2520 H   0  0  0  0  0  0  0  0  0  0  0  0
  139.4258   75.2617  218.9826 H   0  0  0  0  0  0  0  0  0  0  0  0
  139.4213   77.1776  217.3609 H   0  0  0  0  0  0  0  0  0  0  0  0
  138.6919   77.4529  219.0068 H   0  0  0  0  0  0  0  0  0  0  0  0
  140.7112   78.9295  217.6725 H   0  0  0  0  0  0  0  0  0  0  0  0
  139.9718   79.1688  219.3128 H   0  0  0  0  0  0  0  0  0  0  0  0
  142.3965   77.5288  218.5747 H   0  0  0  0  0  0  0  0  0  0  0  0
  142.2745   79.0352  219.6109 H   0  0  0  0  0  0  0  0  0  0  0  0
  142.6091   76.8369  220.8571 H   0  0  0  0  0  0  0  0  0  0  0  0
  139.1061   77.4738  221.6363 H   0  0  0  0  0  0  0  0  0  0  0  0
  138.4457   78.9953  223.4737 H   0  0  0  0  0  0  0  0  0  0  0  0
  140.1060   80.5178  224.5363 H   0  0  0  0  0  0  0  0  0  0  0  0
  143.1143   78.9778  221.8915 H   0  0  0  0  0  0  0  0  0  0  0  0
  138.9360   70.0949  222.6377 H   0  0  0  0  0  0  0  0  0  0  0  0
  138.6264   68.6264  224.6118 H   0  0  0  0  0  0  0  0  0  0  0  0
  139.0537   68.1642  226.9704 H   0  0  0  0  0  0  0  0  0  0  0  0
  140.0834   68.7537  229.1446 H   0  0  0  0  0  0  0  0  0  0  0  0
  141.4343   70.8768  229.2804 H   0  0  0  0  0  0  0  0  0  0  0  0
  141.7127   72.3101  227.2722 H   0  0  0  0  0  0  0  0  0  0  0  0
  1  2  2  0
  2  3  1  0
  3  4  1  0
  4  5  1  0
  5  6  2  0
  5  7  1  0
  7  8  1  0
  8  9  1  0
  9 10  1  0
 10 11  1  0
 11 12  1  0
 12 13  1  0
 13 14  2  0
 14 15  1  0
 15 16  2  0
 16 17  1  0
 17 18  1  0
 17 19  2  0
  2 20  1  0
 20 21  2  0
 21 22  1  0
 22 23  2  0
 23 24  1  0
 24 25  2  0
 25 26  1  0
 26 27  2  0
 27 28  1  0
 28 29  2  0
 12  7  1  0
 19 13  1  0
 29 20  1  0
 28 23  1  0
  3 30  1  0
  4 31  1  0
  4 32  1  0
  8 33  1  0
  8 34  1  0
  9 35  1  0
  9 36  1  0
 10 37  1  0
 10 38  1  0
 11 39  1  0
 11 40  1  0
 12 41  1  1
 14 42  1  0
 15 43  1  0
 16 44  1  0
 19 45  1  0
 21 46  1  0
 22 47  1  0
 24 48  1  0
 25 49  1  0
 26 50  1  0
 27 51  1  0
M  END
>  <smiles>  (92) 
O=C(NCC(=O)N1CCCCC1c1cccc(Cl)c1)c1ccc2ccccc2n1

>  <score_type>  (92) 
oracle

>  <origin>  (92) 
autodockgpu

>  <m_score__min__energy>  (92) 
-9.2300000000000004

>  <m_primary>  (92) 
energy

>  <rmsd>  (92) 
1.5023794275249405

>  <m_score__min__rmsd>  (92) 
1.5023794275249405

>  <meeko>  (92) 
{"free_energy": -9.2, "intermolecular_energy": -10.69, "internal_energy": -1.37, "cluster_size": 17, "cluster_id": 1, "rank_in_cluster": 2}

>  <energy>  (92) 
-8.28

>  <cluster_rmsd>  (92) 
0.0

>  <cluster>  (92) 
6

$$$$

     RDKit          3D

 51 54  0  0  0  0  0  0  0  0999 V2000
  140.5130   71.1590  221.2020 O   0  0  0  0  0  0  0  0  0  0  0  0
  140.1880   71.7870  222.2650 C   0  0  0  0  0  0  0  0  0  0  0  0
  139.8500   73.1800  222.2060 N   0  0  0  0  0  0  0  0  0  0  0  0
  139.8910   73.8360  220.9200 C   0  0  0  0  0  0  0  0  0  0  0  0
  140.8990   74.9110  220.8850 C   0  0  0  0  0  0  0  0  0  0  0  0
  141.2860   75.4150  221.9690 O   0  0  0  0  0  0  0  0  0  0  0  0
  141.4700   75.4210  219.6940 N   0  0  0  0  0  0  0  0  0  0  0  0
  141.2470   76.8150  219.3630 C   0  0  0  0  0  0  0  0  0  0  0  0
  142.4980   77.5410  218.9870 C   0  0  0  0  0  0  0  0  0  0  0  0
  143.3270   76.7910  217.9990 C   0  0  0  0  0  0  0  0  0  0  0  0
  142.6940   75.4890  217.6100 C   0  0  0  0  0  0  0  0  0  0  0  0
  142.2660   74.6380  218.7750 C   0  0  1  0  0  0  0  0  0  0  0  0
  143.4720   74.0520  219.3990 C   0  0  0  0  0  0  0  0  0  0  0  0
  144.2530   74.6920  220.3310 C   0  0  0  0  0  0  0  0  0  0  0  0
  145.3730   74.0610  220.8550 C   0  0  0  0  0  0  0  0  0  0  0  0
  145.7340   72.7780  220.4590 C   0  0  0  0  0  0  0  0  0  0  0  0
  144.9510   72.1290  219.5210 C   0  0  0  0  0  0  0  0  0  0  0  0
  145.3310   70.5030  218.9570 Cl  0  0  0  0  0  0  0  0  0  0  0  0
  143.8420   72.7640  219.0060 C   0  0  0  0  0  0  0  0  0  0  0  0
  140.1500   71.1030  223.5650 C   0  0  0  0  0  0  0  0  0  0  0  0
  139.5930   69.8350  223.6160 C   0  0  0  0  0  0  0  0  0  0  0  0
  139.5480   69.1720  224.8250 C   0  0  0  0  0  0  0  0  0  0  0  0
  140.0460   69.7540  225.9730 C   0  0  0  0  0  0  0  0  0  0  0  0
  140.0210   69.1300  227.2040 C   0  0  0  0  0  0  0  0  0  0  0  0
  140.5180   69.7040  228.3550 C   0  0  0  0  0  0  0  0  0  0  0  0
  141.0670   70.9860  228.2400 C   0  0  0  0  0  0  0  0  0  0  0  0
  141.1010   71.6340  227.0010 C   0  0  0  0  0  0  0  0  0  0  0  0
  140.5970   71.0360  225.8630 C   0  0  0  0  0  0  0  0  0  0  0  0
  140.6380   71.6760  224.6800 N   0  0  0  0  0  0  0  0  0  0  0  0
  139.5910   73.6480  223.1010 H   0  0  0  0  0  0  0  0  0  0  0  0
  140.1375   73.0917  220.1485 H   0  0  0  0  0  0  0  0  0  0  0  0
  138.9047   74.2864  220.7346 H   0  0  0  0  0  0  0  0  0  0  0  0
  140.5465   76.8650  218.5164 H   0  0  0  0  0  0  0  0  0  0  0  0
  140.8451   77.3032  220.2631 H   0  0  0  0  0  0  0  0  0  0  0  0
  142.2228   78.5121  218.5497 H   0  0  0  0  0  0  0  0  0  0  0  0
  143.0989   77.6605  219.9006 H   0  0  0  0  0  0  0  0  0  0  0  0
  143.4513   77.4090  217.0976 H   0  0  0  0  0  0  0  0  0  0  0  0
  144.2979   76.5710  218.4668 H   0  0  0  0  0  0  0  0  0  0  0  0
  141.8066   75.7064  216.9974 H   0  0  0  0  0  0  0  0  0  0  0  0
  143.4589   74.9164  217.0649 H   0  0  0  0  0  0  0  0  0  0  0  0
  141.6244   73.8080  218.4442 H   0  0  0  0  0  0  0  0  0  0  0  0
  143.9900   75.7072  220.6628 H   0  0  0  0  0  0  0  0  0  0  0  0
  145.9882   74.5874  221.5996 H   0  0  0  0  0  0  0  0  0  0  0  0
  146.6236   72.2891  220.8827 H   0  0  0  0  0  0  0  0  0  0  0  0
  143.2273   72.2388  218.2601 H   0  0  0  0  0  0  0  0  0  0  0  0
  139.1927   69.3642  222.7060 H   0  0  0  0  0  0  0  0  0  0  0  0
  139.1088   68.1647  224.8747 H   0  0  0  0  0  0  0  0  0  0  0  0
  139.5822   68.1235  227.2701 H   0  0  0  0  0  0  0  0  0  0  0  0
  140.4844   69.1777  229.3204 H   0  0  0  0  0  0  0  0  0  0  0  0
  141.4746   71.4875  229.1301 H   0  0  0  0  0  0  0  0  0  0  0  0
  141.5383   72.6409  226.9317 H   0  0  0  0  0  0  0  0  0  0  0  0
  1  2  2  0
  2  3  1  0
  3  4  1  0
  4  5  1  0
  5  6  2  0
  5  7  1  0
  7  8  1  0
  8  9  1  0
  9 10  1  0
 10 11  1  0
 11 12  1  0
 12 13  1  0
 13 14  2  0
 14 15  1  0
 15 16  2  0
 16 17  1  0
 17 18  1  0
 17 19  2  0
  2 20  1  0
 20 21  2  0
 21 22  1  0
 22 23  2  0
 23 24  1  0
 24 25  2  0
 25 26  1  0
 26 27  2  0
 27 28  1  0
 28 29  2  0
 12  7  1  0
 19 13  1  0
 29 20  1  0
 28 23  1  0
  3 30  1  0
  4 31  1  0
  4 32  1  0
  8 33  1  0
  8 34  1  0
  9 35  1  0
  9 36  1  0
 10 37  1  0
 10 38  1  0
 11 39  1  0
 11 40  1  0
 12 41  1  6
 14 42  1  0
 15 43  1  0
 16 44  1  0
 19 45  1  0
 21 46  1  0
 22 47  1  0
 24 48  1  0
 25 49  1  0
 26 50  1  0
 27 51  1  0
M  END
>  <smiles>  (93) 
O=C(NCC(=O)N1CCCCC1c1cccc(Cl)c1)c1ccc2ccccc2n1

>  <score_type>  (93) 
oracle

>  <origin>  (93) 
autodockgpu

>  <m_score__min__energy>  (93) 
-9.2300000000000004

>  <m_primary>  (93) 
energy

>  <rmsd>  (93) 
2.0860644912554145

>  <m_score__min__rmsd>  (93) 
2.0860644912554145

>  <meeko>  (93) 
{"free_energy": -8.9, "intermolecular_energy": -10.39, "internal_energy": -1.83, "cluster_size": 21, "cluster_id": 2, "rank_in_cluster": 8}

>  <energy>  (93) 
-7.94

>  <cluster_rmsd>  (93) 
0.0

>  <cluster>  (93) 
7

$$$$

     RDKit          3D

 51 54  0  0  0  0  0  0  0  0999 V2000
  140.2710   70.9990  221.2870 O   0  0  0  0  0  0  0  0  0  0  0  0
  140.0450   71.6060  222.3880 C   0  0  0  0  0  0  0  0  0  0  0  0
  139.7830   73.0160  222.3940 N   0  0  0  0  0  0  0  0  0  0  0  0
  139.7840   73.7140  221.1290 C   0  0  0  0  0  0  0  0  0  0  0  0
  140.4600   75.0200  221.2240 C   0  0  0  0  0  0  0  0  0  0  0  0
  140.5010   75.6020  222.3370 O   0  0  0  0  0  0  0  0  0  0  0  0
  141.0770   75.6720  220.1290 N   0  0  0  0  0  0  0  0  0  0  0  0
  140.9150   77.1070  219.9990 C   0  0  0  0  0  0  0  0  0  0  0  0
  142.2010   77.8290  219.7540 C   0  0  0  0  0  0  0  0  0  0  0  0
  143.0240   77.1950  218.6830 C   0  0  0  0  0  0  0  0  0  0  0  0
  142.3520   75.9890  218.0990 C   0  0  0  0  0  0  0  0  0  0  0  0
  141.8650   74.9980  219.1220 C   0  0  1  0  0  0  0  0  0  0  0  0
  143.0340   74.2800  219.6760 C   0  0  0  0  0  0  0  0  0  0  0  0
  144.0760   74.8870  220.3350 C   0  0  0  0  0  0  0  0  0  0  0  0
  145.1340   74.1270  220.8150 C   0  0  0  0  0  0  0  0  0  0  0  0
  145.1730   72.7480  220.6450 C   0  0  0  0  0  0  0  0  0  0  0  0
  144.1260   72.1320  219.9820 C   0  0  0  0  0  0  0  0  0  0  0  0
  144.0870   70.3900  219.7200 Cl  0  0  0  0  0  0  0  0  0  0  0  0
  143.0800   72.8940  219.5100 C   0  0  0  0  0  0  0  0  0  0  0  0
  140.0470   70.8800  223.6650 C   0  0  0  0  0  0  0  0  0  0  0  0
  139.5400   69.5900  223.6800 C   0  0  0  0  0  0  0  0  0  0  0  0
  139.5320   68.8880  224.8670 C   0  0  0  0  0  0  0  0  0  0  0  0
  140.0200   69.4510  226.0290 C   0  0  0  0  0  0  0  0  0  0  0  0
  140.0310   68.7880  227.2390 C   0  0  0  0  0  0  0  0  0  0  0  0
  140.5170   69.3440  228.4040 C   0  0  0  0  0  0  0  0  0  0  0  0
  141.0160   70.6480  228.3250 C   0  0  0  0  0  0  0  0  0  0  0  0
  141.0120   71.3370  227.1070 C   0  0  0  0  0  0  0  0  0  0  0  0
  140.5200   70.7560  225.9550 C   0  0  0  0  0  0  0  0  0  0  0  0
  140.5240   71.4350  224.7930 N   0  0  0  0  0  0  0  0  0  0  0  0
  139.6040   73.4660  223.3170 H   0  0  0  0  0  0  0  0  0  0  0  0
  140.3054   73.0969  220.3824 H   0  0  0  0  0  0  0  0  0  0  0  0
  138.7387   73.8911  220.8359 H   0  0  0  0  0  0  0  0  0  0  0  0
  140.2368   77.3066  219.1562 H   0  0  0  0  0  0  0  0  0  0  0  0
  140.5114   77.4764  220.9533 H   0  0  0  0  0  0  0  0  0  0  0  0
  141.9726   78.8630  219.4562 H   0  0  0  0  0  0  0  0  0  0  0  0
  142.7844   77.7927  220.6858 H   0  0  0  0  0  0  0  0  0  0  0  0
  143.1926   77.9303  217.8824 H   0  0  0  0  0  0  0  0  0  0  0  0
  143.9745   76.8707  219.1317 H   0  0  0  0  0  0  0  0  0  0  0  0
  141.4881   76.3277  217.5082 H   0  0  0  0  0  0  0  0  0  0  0  0
  143.1073   75.4699  217.4906 H   0  0  0  0  0  0  0  0  0  0  0  0
  141.2004   74.2505  218.6643 H   0  0  0  0  0  0  0  0  0  0  0  0
  144.0718   75.9771  220.4825 H   0  0  0  0  0  0  0  0  0  0  0  0
  145.9600   74.6274  221.3417 H   0  0  0  0  0  0  0  0  0  0  0  0
  146.0185   72.1586  221.0295 H   0  0  0  0  0  0  0  0  0  0  0  0
  142.2530   72.3940  218.9846 H   0  0  0  0  0  0  0  0  0  0  0  0
  139.1498   69.1330  222.7587 H   0  0  0  0  0  0  0  0  0  0  0  0
  139.1307   67.8640  224.8881 H   0  0  0  0  0  0  0  0  0  0  0  0
  139.6318   67.7637  227.2765 H   0  0  0  0  0  0  0  0  0  0  0  0
  140.5123   68.7868  229.3524 H   0  0  0  0  0  0  0  0  0  0  0  0
  141.4146   71.1357  229.2268 H   0  0  0  0  0  0  0  0  0  0  0  0
  141.4088   72.3621  227.0664 H   0  0  0  0  0  0  0  0  0  0  0  0
  1  2  2  0
  2  3  1  0
  3  4  1  0
  4  5  1  0
  5  6  2  0
  5  7  1  0
  7  8  1  0
  8  9  1  0
  9 10  1  0
 10 11  1  0
 11 12  1  0
 12 13  1  0
 13 14  2  0
 14 15  1  0
 15 16  2  0
 16 17  1  0
 17 18  1  0
 17 19  2  0
  2 20  1  0
 20 21  2  0
 21 22  1  0
 22 23  2  0
 23 24  1  0
 24 25  2  0
 25 26  1  0
 26 27  2  0
 27 28  1  0
 28 29  2  0
 12  7  1  0
 19 13  1  0
 29 20  1  0
 28 23  1  0
  3 30  1  0
  4 31  1  0
  4 32  1  0
  8 33  1  0
  8 34  1  0
  9 35  1  0
  9 36  1  0
 10 37  1  0
 10 38  1  0
 11 39  1  0
 11 40  1  0
 12 41  1  6
 14 42  1  0
 15 43  1  0
 16 44  1  0
 19 45  1  0
 21 46  1  0
 22 47  1  0
 24 48  1  0
 25 49  1  0
 26 50  1  0
 27 51  1  0
M  END
>  <smiles>  (94) 
O=C(NCC(=O)N1CCCCC1c1cccc(Cl)c1)c1ccc2ccccc2n1

>  <score_type>  (94) 
oracle

>  <origin>  (94) 
autodockgpu

>  <m_score__min__energy>  (94) 
-9.2300000000000004

>  <m_primary>  (94) 
energy

>  <rmsd>  (94) 
2.0018763140324007

>  <m_score__min__rmsd>  (94) 
2.0018763140324007

>  <meeko>  (94) 
{"free_energy": -8.73, "intermolecular_energy": -10.22, "internal_energy": -2.0, "cluster_size": 21, "cluster_id": 2, "rank_in_cluster": 15}

>  <energy>  (94) 
-7.93

>  <cluster_rmsd>  (94) 
0.07

>  <cluster>  (94) 
7

$$$$

     RDKit          3D

 51 54  0  0  0  0  0  0  0  0999 V2000
  140.9560   71.6430  221.3460 O   0  0  0  0  0  0  0  0  0  0  0  0
  140.2950   72.1140  222.3310 C   0  0  0  0  0  0  0  0  0  0  0  0
  139.6190   73.3740  222.2100 N   0  0  0  0  0  0  0  0  0  0  0  0
  139.7120   74.0780  220.9530 C   0  0  0  0  0  0  0  0  0  0  0  0
  140.9060   74.9410  220.8950 C   0  0  0  0  0  0  0  0  0  0  0  0
  141.4660   75.2750  221.9700 O   0  0  0  0  0  0  0  0  0  0  0  0
  141.4740   75.4260  219.6930 N   0  0  0  0  0  0  0  0  0  0  0  0
  141.2460   76.8110  219.3300 C   0  0  0  0  0  0  0  0  0  0  0  0
  142.4940   77.5330  218.9370 C   0  0  0  0  0  0  0  0  0  0  0  0
  143.3250   76.7640  217.9660 C   0  0  0  0  0  0  0  0  0  0  0  0
  142.6970   75.4510  217.6080 C   0  0  0  0  0  0  0  0  0  0  0  0
  142.2730   74.6250  218.7920 C   0  0  1  0  0  0  0  0  0  0  0  0
  143.4820   74.0580  219.4280 C   0  0  0  0  0  0  0  0  0  0  0  0
  144.2420   74.7110  220.3690 C   0  0  0  0  0  0  0  0  0  0  0  0
  145.3660   74.0970  220.9050 C   0  0  0  0  0  0  0  0  0  0  0  0
  145.7530   72.8210  220.5120 C   0  0  0  0  0  0  0  0  0  0  0  0
  144.9900   72.1590  219.5660 C   0  0  0  0  0  0  0  0  0  0  0  0
  145.4020   70.5400  219.0060 Cl  0  0  0  0  0  0  0  0  0  0  0  0
  143.8770   72.7760  219.0400 C   0  0  0  0  0  0  0  0  0  0  0  0
  140.2090   71.3830  223.6020 C   0  0  0  0  0  0  0  0  0  0  0  0
  139.6340   70.1220  223.5890 C   0  0  0  0  0  0  0  0  0  0  0  0
  139.5430   69.4160  224.7700 C   0  0  0  0  0  0  0  0  0  0  0  0
  140.0160   69.9460  225.9540 C   0  0  0  0  0  0  0  0  0  0  0  0
  139.9460   69.2770  227.1580 C   0  0  0  0  0  0  0  0  0  0  0  0
  140.4160   69.8010  228.3450 C   0  0  0  0  0  0  0  0  0  0  0  0
  140.9870   71.0770  228.2940 C   0  0  0  0  0  0  0  0  0  0  0  0
  141.0660   71.7710  227.0820 C   0  0  0  0  0  0  0  0  0  0  0  0
  140.5870   71.2230  225.9080 C   0  0  0  0  0  0  0  0  0  0  0  0
  140.6720   71.9060  224.7520 N   0  0  0  0  0  0  0  0  0  0  0  0
  139.0910   73.7160  223.0420 H   0  0  0  0  0  0  0  0  0  0  0  0
  139.7642   73.3429  220.1364 H   0  0  0  0  0  0  0  0  0  0  0  0
  138.8229   74.7179  220.8533 H   0  0  0  0  0  0  0  0  0  0  0  0
  140.5451   76.8389  218.4826 H   0  0  0  0  0  0  0  0  0  0  0  0
  140.8427   77.3183  220.2188 H   0  0  0  0  0  0  0  0  0  0  0  0
  142.2150   78.4929  218.4779 H   0  0  0  0  0  0  0  0  0  0  0  0
  143.0949   77.6755  219.8473 H   0  0  0  0  0  0  0  0  0  0  0  0
  143.4459   77.3615  217.0504 H   0  0  0  0  0  0  0  0  0  0  0  0
  144.2973   76.5589  218.4377 H   0  0  0  0  0  0  0  0  0  0  0  0
  141.8084   75.6508  216.9912 H   0  0  0  0  0  0  0  0  0  0  0  0
  143.4642   74.8691  217.0761 H   0  0  0  0  0  0  0  0  0  0  0  0
  141.6345   73.7849  218.4813 H   0  0  0  0  0  0  0  0  0  0  0  0
  143.9592   75.7218  220.6980 H   0  0  0  0  0  0  0  0  0  0  0  0
  145.9637   74.6322  221.6575 H   0  0  0  0  0  0  0  0  0  0  0  0
  146.6470   72.3474  220.9439 H   0  0  0  0  0  0  0  0  0  0  0  0
  143.2784   72.2406  218.2883 H   0  0  0  0  0  0  0  0  0  0  0  0
  139.2558   69.6907  222.6504 H   0  0  0  0  0  0  0  0  0  0  0  0
  139.0865   68.4152  224.7688 H   0  0  0  0  0  0  0  0  0  0  0  0
  139.4925   68.2749  227.1729 H   0  0  0  0  0  0  0  0  0  0  0  0
  140.3448   69.2405  229.2888 H   0  0  0  0  0  0  0  0  0  0  0  0
  141.3767   71.5380  229.2136 H   0  0  0  0  0  0  0  0  0  0  0  0
  141.5187   72.7734  227.0635 H   0  0  0  0  0  0  0  0  0  0  0  0
  1  2  2  0
  2  3  1  0
  3  4  1  0
  4  5  1  0
  5  6  2  0
  5  7  1  0
  7  8  1  0
  8  9  1  0
  9 10  1  0
 10 11  1  0
 11 12  1  0
 12 13  1  0
 13 14  2  0
 14 15  1  0
 15 16  2  0
 16 17  1  0
 17 18  1  0
 17 19  2  0
  2 20  1  0
 20 21  2  0
 21 22  1  0
 22 23  2  0
 23 24  1  0
 24 25  2  0
 25 26  1  0
 26 27  2  0
 27 28  1  0
 28 29  2  0
 12  7  1  0
 19 13  1  0
 29 20  1  0
 28 23  1  0
  3 30  1  0
  4 31  1  0
  4 32  1  0
  8 33  1  0
  8 34  1  0
  9 35  1  0
  9 36  1  0
 10 37  1  0
 10 38  1  0
 11 39  1  0
 11 40  1  0
 12 41  1  6
 14 42  1  0
 15 43  1  0
 16 44  1  0
 19 45  1  0
 21 46  1  0
 22 47  1  0
 24 48  1  0
 25 49  1  0
 26 50  1  0
 27 51  1  0
M  END
>  <smiles>  (95) 
O=C(NCC(=O)N1CCCCC1c1cccc(Cl)c1)c1ccc2ccccc2n1

>  <score_type>  (95) 
oracle

>  <origin>  (95) 
autodockgpu

>  <m_score__min__energy>  (95) 
-9.2300000000000004

>  <m_primary>  (95) 
energy

>  <rmsd>  (95) 
2.11285789935997

>  <m_score__min__rmsd>  (95) 
2.11285789935997

>  <meeko>  (95) 
{"free_energy": -9.02, "intermolecular_energy": -10.51, "internal_energy": -1.77, "cluster_size": 21, "cluster_id": 2, "rank_in_cluster": 1}

>  <energy>  (95) 
-7.93

>  <cluster_rmsd>  (95) 
0.1

>  <cluster>  (95) 
7

$$$$

     RDKit          3D

 51 54  0  0  0  0  0  0  0  0999 V2000
  139.2910   70.2870  221.4530 O   0  0  0  0  0  0  0  0  0  0  0  0
  139.8680   70.8260  222.4570 C   0  0  0  0  0  0  0  0  0  0  0  0
  140.5420   72.0840  222.3120 N   0  0  0  0  0  0  0  0  0  0  0  0
  140.5460   72.7080  221.0090 C   0  0  0  0  0  0  0  0  0  0  0  0
  140.8600   74.1460  221.0900 C   0  0  0  0  0  0  0  0  0  0  0  0
  140.6350   74.7560  222.1660 O   0  0  0  0  0  0  0  0  0  0  0  0
  141.4070   74.8970  220.0220 N   0  0  0  0  0  0  0  0  0  0  0  0
  141.4300   76.3420  220.1350 C   0  0  0  0  0  0  0  0  0  0  0  0
  142.7580   76.9410  219.8020 C   0  0  0  0  0  0  0  0  0  0  0  0
  143.3310   76.4060  218.5330 C   0  0  0  0  0  0  0  0  0  0  0  0
  142.4250   75.4010  217.8880 C   0  0  0  0  0  0  0  0  0  0  0  0
  141.9480   74.3150  218.8140 C   0  0  1  0  0  0  0  0  0  0  0  0
  143.0700   73.3840  219.0640 C   0  0  0  0  0  0  0  0  0  0  0  0
  143.2440   72.1870  218.4120 C   0  0  0  0  0  0  0  0  0  0  0  0
  144.3270   71.3750  218.7220 C   0  0  0  0  0  0  0  0  0  0  0  0
  145.2570   71.7440  219.6880 C   0  0  0  0  0  0  0  0  0  0  0  0
  145.0860   72.9490  220.3460 C   0  0  0  0  0  0  0  0  0  0  0  0
  146.2130   73.4990  221.5850 Cl  0  0  0  0  0  0  0  0  0  0  0  0
  144.0080   73.7470  220.0320 C   0  0  0  0  0  0  0  0  0  0  0  0
  139.8530   70.1780  223.7750 C   0  0  0  0  0  0  0  0  0  0  0  0
  139.1940   68.9650  223.8960 C   0  0  0  0  0  0  0  0  0  0  0  0
  139.1680   68.3370  225.1230 C   0  0  0  0  0  0  0  0  0  0  0  0
  139.7860   68.8980  226.2230 C   0  0  0  0  0  0  0  0  0  0  0  0
  139.7850   68.3070  227.4690 C   0  0  0  0  0  0  0  0  0  0  0  0
  140.4010   68.8620  228.5720 C   0  0  0  0  0  0  0  0  0  0  0  0
  141.0510   70.0870  228.3870 C   0  0  0  0  0  0  0  0  0  0  0  0
  141.0620   70.7020  227.1300 C   0  0  0  0  0  0  0  0  0  0  0  0
  140.4370   70.1240  226.0420 C   0  0  0  0  0  0  0  0  0  0  0  0
  140.4590   70.7310  224.8420 N   0  0  0  0  0  0  0  0  0  0  0  0
  140.9980   72.4840  223.1600 H   0  0  0  0  0  0  0  0  0  0  0  0
  141.3012   72.2138  220.3802 H   0  0  0  0  0  0  0  0  0  0  0  0
  139.5400   72.6022  220.5769 H   0  0  0  0  0  0  0  0  0  0  0  0
  140.6777   76.7577  219.4485 H   0  0  0  0  0  0  0  0  0  0  0  0
  141.2155   76.5896  221.1851 H   0  0  0  0  0  0  0  0  0  0  0  0
  142.6374   78.0298  219.7017 H   0  0  0  0  0  0  0  0  0  0  0  0
  143.4521   76.6807  220.6147 H   0  0  0  0  0  0  0  0  0  0  0  0
  143.4893   77.2412  217.8348 H   0  0  0  0  0  0  0  0  0  0  0  0
  144.2795   75.9035  218.7736 H   0  0  0  0  0  0  0  0  0  0  0  0
  141.5446   75.9317  217.4966 H   0  0  0  0  0  0  0  0  0  0  0  0
  143.0117   74.9078  217.0990 H   0  0  0  0  0  0  0  0  0  0  0  0
  141.1294   73.7374  218.3598 H   0  0  0  0  0  0  0  0  0  0  0  0
  142.5238   71.8713  217.6428 H   0  0  0  0  0  0  0  0  0  0  0  0
  144.4520   70.4192  218.1920 H   0  0  0  0  0  0  0  0  0  0  0  0
  146.1106   71.0915  219.9239 H   0  0  0  0  0  0  0  0  0  0  0  0
  143.8820   74.7026  220.5620 H   0  0  0  0  0  0  0  0  0  0  0  0
  138.6988   68.5098  223.0256 H   0  0  0  0  0  0  0  0  0  0  0  0
  138.6468   67.3740  225.2274 H   0  0  0  0  0  0  0  0  0  0  0  0
  139.2668   67.3442  227.5897 H   0  0  0  0  0  0  0  0  0  0  0  0
  140.3819   68.3638  229.5525 H   0  0  0  0  0  0  0  0  0  0  0  0
  141.5571   70.5702  229.2357 H   0  0  0  0  0  0  0  0  0  0  0  0
  141.5787   71.6651  227.0058 H   0  0  0  0  0  0  0  0  0  0  0  0
  1  2  2  0
  2  3  1  0
  3  4  1  0
  4  5  1  0
  5  6  2  0
  5  7  1  0
  7  8  1  0
  8  9  1  0
  9 10  1  0
 10 11  1  0
 11 12  1  0
 12 13  1  0
 13 14  2  0
 14 15  1  0
 15 16  2  0
 16 17  1  0
 17 18  1  0
 17 19  2  0
  2 20  1  0
 20 21  2  0
 21 22  1  0
 22 23  2  0
 23 24  1  0
 24 25  2  0
 25 26  1  0
 26 27  2  0
 27 28  1  0
 28 29  2  0
 12  7  1  0
 19 13  1  0
 29 20  1  0
 28 23  1  0
  3 30  1  0
  4 31  1  0
  4 32  1  0
  8 33  1  0
  8 34  1  0
  9 35  1  0
  9 36  1  0
 10 37  1  0
 10 38  1  0
 11 39  1  0
 11 40  1  0
 12 41  1  6
 14 42  1  0
 15 43  1  0
 16 44  1  0
 19 45  1  0
 21 46  1  0
 22 47  1  0
 24 48  1  0
 25 49  1  0
 26 50  1  0
 27 51  1  0
M  END
>  <smiles>  (96) 
O=C(NCC(=O)N1CCCCC1c1cccc(Cl)c1)c1ccc2ccccc2n1

>  <score_type>  (96) 
oracle

>  <origin>  (96) 
autodockgpu

>  <m_score__min__energy>  (96) 
-9.2300000000000004

>  <m_primary>  (96) 
energy

>  <rmsd>  (96) 
2.2850488867900327

>  <m_score__min__rmsd>  (96) 
2.2850488867900327

>  <meeko>  (96) 
{"free_energy": -7.98, "intermolecular_energy": -9.47, "internal_energy": -1.99, "cluster_size": 21, "cluster_id": 2, "rank_in_cluster": 21}

>  <energy>  (96) 
-7.92

>  <cluster_rmsd>  (96) 
0.11

>  <cluster>  (96) 
7

$$$$

     RDKit          3D

 51 54  0  0  0  0  0  0  0  0999 V2000
  140.2600   71.0390  221.2870 O   0  0  0  0  0  0  0  0  0  0  0  0
  140.0250   71.6370  222.3910 C   0  0  0  0  0  0  0  0  0  0  0  0
  139.7500   73.0440  222.4040 N   0  0  0  0  0  0  0  0  0  0  0  0
  139.7500   73.7490  221.1430 C   0  0  0  0  0  0  0  0  0  0  0  0
  140.4890   75.0220  221.2260 C   0  0  0  0  0  0  0  0  0  0  0  0
  140.6020   75.5860  222.3430 O   0  0  0  0  0  0  0  0  0  0  0  0
  141.0900   75.6610  220.1140 N   0  0  0  0  0  0  0  0  0  0  0  0
  140.9200   77.0930  219.9660 C   0  0  0  0  0  0  0  0  0  0  0  0
  142.2000   77.8160  219.6950 C   0  0  0  0  0  0  0  0  0  0  0  0
  143.0120   77.1700  218.6230 C   0  0  0  0  0  0  0  0  0  0  0  0
  142.3380   75.9540  218.0650 C   0  0  0  0  0  0  0  0  0  0  0  0
  141.8680   74.9750  219.1060 C   0  0  1  0  0  0  0  0  0  0  0  0
  143.0460   74.2690  219.6560 C   0  0  0  0  0  0  0  0  0  0  0  0
  144.0860   74.8880  220.3070 C   0  0  0  0  0  0  0  0  0  0  0  0
  145.1540   74.1390  220.7820 C   0  0  0  0  0  0  0  0  0  0  0  0
  145.2040   72.7590  220.6170 C   0  0  0  0  0  0  0  0  0  0  0  0
  144.1580   72.1320  219.9620 C   0  0  0  0  0  0  0  0  0  0  0  0
  144.1340   70.3890  219.7060 Cl  0  0  0  0  0  0  0  0  0  0  0  0
  143.1030   72.8840  219.4940 C   0  0  0  0  0  0  0  0  0  0  0  0
  140.0280   70.9040  223.6640 C   0  0  0  0  0  0  0  0  0  0  0  0
  139.5220   69.6140  223.6720 C   0  0  0  0  0  0  0  0  0  0  0  0
  139.5150   68.9050  224.8560 C   0  0  0  0  0  0  0  0  0  0  0  0
  140.0040   69.4620  226.0200 C   0  0  0  0  0  0  0  0  0  0  0  0
  140.0170   68.7920  227.2260 C   0  0  0  0  0  0  0  0  0  0  0  0
  140.5040   69.3410  228.3940 C   0  0  0  0  0  0  0  0  0  0  0  0
  141.0030   70.6470  228.3220 C   0  0  0  0  0  0  0  0  0  0  0  0
  140.9970   71.3420  227.1080 C   0  0  0  0  0  0  0  0  0  0  0  0
  140.5040   70.7680  225.9530 C   0  0  0  0  0  0  0  0  0  0  0  0
  140.5070   71.4520  224.7950 N   0  0  0  0  0  0  0  0  0  0  0  0
  139.5630   73.4880  223.3290 H   0  0  0  0  0  0  0  0  0  0  0  0
  140.2218   73.1128  220.3797 H   0  0  0  0  0  0  0  0  0  0  0  0
  138.7066   73.9766  220.8792 H   0  0  0  0  0  0  0  0  0  0  0  0
  140.2307   77.2780  219.1290 H   0  0  0  0  0  0  0  0  0  0  0  0
  140.5262   77.4744  220.9197 H   0  0  0  0  0  0  0  0  0  0  0  0
  141.9640   78.8449  219.3856 H   0  0  0  0  0  0  0  0  0  0  0  0
  142.7950   77.7949  220.6199 H   0  0  0  0  0  0  0  0  0  0  0  0
  143.1677   77.8944  217.8100 H   0  0  0  0  0  0  0  0  0  0  0  0
  143.9693   76.8558  219.0643 H   0  0  0  0  0  0  0  0  0  0  0  0
  141.4653   76.2812  217.4807 H   0  0  0  0  0  0  0  0  0  0  0  0
  143.0882   75.4296  217.4549 H   0  0  0  0  0  0  0  0  0  0  0  0
  141.2015   74.2185  218.6661 H   0  0  0  0  0  0  0  0  0  0  0  0
  144.0722   75.9783  220.4519 H   0  0  0  0  0  0  0  0  0  0  0  0
  145.9794   74.6486  221.3006 H   0  0  0  0  0  0  0  0  0  0  0  0
  146.0565   72.1781  220.9988 H   0  0  0  0  0  0  0  0  0  0  0  0
  142.2772   72.3755  218.9749 H   0  0  0  0  0  0  0  0  0  0  0  0
  139.1317   69.1618  222.7483 H   0  0  0  0  0  0  0  0  0  0  0  0
  139.1138   67.8809  224.8721 H   0  0  0  0  0  0  0  0  0  0  0  0
  139.6185   67.7672  227.2578 H   0  0  0  0  0  0  0  0  0  0  0  0
  140.5004   68.7782  229.3391 H   0  0  0  0  0  0  0  0  0  0  0  0
  141.4025   71.1299  229.2260 H   0  0  0  0  0  0  0  0  0  0  0  0
  141.3934   72.3675  227.0728 H   0  0  0  0  0  0  0  0  0  0  0  0
  1  2  2  0
  2  3  1  0
  3  4  1  0
  4  5  1  0
  5  6  2  0
  5  7  1  0
  7  8  1  0
  8  9  1  0
  9 10  1  0
 10 11  1  0
 11 12  1  0
 12 13  1  0
 13 14  2  0
 14 15  1  0
 15 16  2  0
 16 17  1  0
 17 18  1  0
 17 19  2  0
  2 20  1  0
 20 21  2  0
 21 22  1  0
 22 23  2  0
 23 24  1  0
 24 25  2  0
 25 26  1  0
 26 27  2  0
 27 28  1  0
 28 29  2  0
 12  7  1  0
 19 13  1  0
 29 20  1  0
 28 23  1  0
  3 30  1  0
  4 31  1  0
  4 32  1  0
  8 33  1  0
  8 34  1  0
  9 35  1  0
  9 36  1  0
 10 37  1  0
 10 38  1  0
 11 39  1  0
 11 40  1  0
 12 41  1  6
 14 42  1  0
 15 43  1  0
 16 44  1  0
 19 45  1  0
 21 46  1  0
 22 47  1  0
 24 48  1  0
 25 49  1  0
 26 50  1  0
 27 51  1  0
M  END
>  <smiles>  (97) 
O=C(NCC(=O)N1CCCCC1c1cccc(Cl)c1)c1ccc2ccccc2n1

>  <score_type>  (97) 
oracle

>  <origin>  (97) 
autodockgpu

>  <m_score__min__energy>  (97) 
-9.2300000000000004

>  <m_primary>  (97) 
energy

>  <rmsd>  (97) 
1.9904189183369287

>  <m_score__min__rmsd>  (97) 
1.9904189183369287

>  <meeko>  (97) 
{"free_energy": -8.75, "intermolecular_energy": -10.24, "internal_energy": -1.97, "cluster_size": 21, "cluster_id": 2, "rank_in_cluster": 13}

>  <energy>  (97) 
-7.92

>  <cluster_rmsd>  (97) 
0.1

>  <cluster>  (97) 
7

$$$$

     RDKit          3D

 51 54  0  0  0  0  0  0  0  0999 V2000
  138.6990   75.4370  221.7120 O   0  0  0  0  0  0  0  0  0  0  0  0
  139.8890   75.8180  221.9750 C   0  0  0  0  0  0  0  0  0  0  0  0
  140.9850   74.9020  221.8470 N   0  0  0  0  0  0  0  0  0  0  0  0
  140.6980   73.5540  221.4170 C   0  0  0  0  0  0  0  0  0  0  0  0
  141.6200   73.1080  220.3560 C   0  0  0  0  0  0  0  0  0  0  0  0
  141.1420   72.5820  219.3200 O   0  0  0  0  0  0  0  0  0  0  0  0
  143.0280   73.2350  220.4270 N   0  0  0  0  0  0  0  0  0  0  0  0
  143.8340   72.0310  220.3810 C   0  0  0  0  0  0  0  0  0  0  0  0
  144.9640   72.1110  219.4060 C   0  0  0  0  0  0  0  0  0  0  0  0
  145.7420   73.3770  219.5280 C   0  0  0  0  0  0  0  0  0  0  0  0
  145.2090   74.2620  220.6140 C   0  0  0  0  0  0  0  0  0  0  0  0
  143.7240   74.4970  220.5450 C   0  0  1  0  0  0  0  0  0  0  0  0
  143.4450   75.4260  219.4280 C   0  0  0  0  0  0  0  0  0  0  0  0
  143.7270   75.1600  218.1100 C   0  0  0  0  0  0  0  0  0  0  0  0
  143.4340   76.1010  217.1310 C   0  0  0  0  0  0  0  0  0  0  0  0
  142.8550   77.3230  217.4500 C   0  0  0  0  0  0  0  0  0  0  0  0
  142.5690   77.5950  218.7760 C   0  0  0  0  0  0  0  0  0  0  0  0
  141.8340   79.1170  219.2770 Cl  0  0  0  0  0  0  0  0  0  0  0  0
  142.8630   76.6560  219.7410 C   0  0  0  0  0  0  0  0  0  0  0  0
  140.1630   77.1940  222.4100 C   0  0  0  0  0  0  0  0  0  0  0  0
  139.0810   78.0140  222.6930 C   0  0  0  0  0  0  0  0  0  0  0  0
  139.3140   79.3100  223.1040 C   0  0  0  0  0  0  0  0  0  0  0  0
  140.6000   79.7940  223.2360 C   0  0  0  0  0  0  0  0  0  0  0  0
  140.8790   81.0830  223.6420 C   0  0  0  0  0  0  0  0  0  0  0  0
  142.1610   81.5740  223.7770 C   0  0  0  0  0  0  0  0  0  0  0  0
  143.2110   80.6980  223.4780 C   0  0  0  0  0  0  0  0  0  0  0  0
  142.9470   79.3890  223.0630 C   0  0  0  0  0  0  0  0  0  0  0  0
  141.6530   78.9220  222.9370 C   0  0  0  0  0  0  0  0  0  0  0  0
  141.4180   77.6600  222.5370 N   0  0  0  0  0  0  0  0  0  0  0  0
  141.9380   75.2610  222.0720 H   0  0  0  0  0  0  0  0  0  0  0  0
  140.7938   72.8776  222.2791 H   0  0  0  0  0  0  0  0  0  0  0  0
  139.6759   73.5357  221.0108 H   0  0  0  0  0  0  0  0  0  0  0  0
  144.2501   71.8513  221.3833 H   0  0  0  0  0  0  0  0  0  0  0  0
  143.1773   71.2126  220.0510 H   0  0  0  0  0  0  0  0  0  0  0  0
  145.6420   71.2631  219.5831 H   0  0  0  0  0  0  0  0  0  0  0  0
  144.5322   72.0830  218.3947 H   0  0  0  0  0  0  0  0  0  0  0  0
  146.7897   73.1295  219.7540 H   0  0  0  0  0  0  0  0  0  0  0  0
  145.6577   73.9204  218.5753 H   0  0  0  0  0  0  0  0  0  0  0  0
  145.4399   73.7959  221.5833 H   0  0  0  0  0  0  0  0  0  0  0  0
  145.6905   75.2429  220.4874 H   0  0  0  0  0  0  0  0  0  0  0  0
  143.3539   74.9654  221.4689 H   0  0  0  0  0  0  0  0  0  0  0  0
  144.1856   74.2003  217.8295 H   0  0  0  0  0  0  0  0  0  0  0  0
  143.6655   75.8736  216.0800 H   0  0  0  0  0  0  0  0  0  0  0  0
  142.6286   78.0590  216.6645 H   0  0  0  0  0  0  0  0  0  0  0  0
  142.6316   76.8830  220.7922 H   0  0  0  0  0  0  0  0  0  0  0  0
  138.0527   77.6367  222.5913 H   0  0  0  0  0  0  0  0  0  0  0  0
  138.4619   79.9679  223.3301 H   0  0  0  0  0  0  0  0  0  0  0  0
  140.0366   81.7528  223.8695 H   0  0  0  0  0  0  0  0  0  0  0  0
  142.3496   82.6070  224.1047 H   0  0  0  0  0  0  0  0  0  0  0  0
  144.2518   81.0419  223.5702 H   0  0  0  0  0  0  0  0  0  0  0  0
  143.7870   78.7173  222.8321 H   0  0  0  0  0  0  0  0  0  0  0  0
  1  2  2  0
  2  3  1  0
  3  4  1  0
  4  5  1  0
  5  6  2  0
  5  7  1  0
  7  8  1  0
  8  9  1  0
  9 10  1  0
 10 11  1  0
 11 12  1  0
 12 13  1  0
 13 14  2  0
 14 15  1  0
 15 16  2  0
 16 17  1  0
 17 18  1  0
 17 19  2  0
  2 20  1  0
 20 21  2  0
 21 22  1  0
 22 23  2  0
 23 24  1  0
 24 25  2  0
 25 26  1  0
 26 27  2  0
 27 28  1  0
 28 29  2  0
 12  7  1  0
 19 13  1  0
 29 20  1  0
 28 23  1  0
  3 30  1  0
  4 31  1  0
  4 32  1  0
  8 33  1  0
  8 34  1  0
  9 35  1  0
  9 36  1  0
 10 37  1  0
 10 38  1  0
 11 39  1  0
 11 40  1  0
 12 41  1  1
 14 42  1  0
 15 43  1  0
 16 44  1  0
 19 45  1  0
 21 46  1  0
 22 47  1  0
 24 48  1  0
 25 49  1  0
 26 50  1  0
 27 51  1  0
M  END
>  <smiles>  (98) 
O=C(NCC(=O)N1CCCCC1c1cccc(Cl)c1)c1ccc2ccccc2n1

>  <score_type>  (98) 
oracle

>  <origin>  (98) 
autodockgpu

>  <m_score__min__energy>  (98) 
-9.2300000000000004

>  <m_primary>  (98) 
energy

>  <rmsd>  (98) 
7.716649224224117

>  <m_score__min__rmsd>  (98) 
7.716649224224117

>  <meeko>  (98) 
{"free_energy": -7.93, "intermolecular_energy": -9.42, "internal_energy": -2.62, "cluster_size": 7, "cluster_id": 7, "rank_in_cluster": 3}

>  <energy>  (98) 
-7.91

>  <cluster_rmsd>  (98) 
0.07

>  <cluster>  (98) 
7

$$$$

     RDKit          3D

 51 54  0  0  0  0  0  0  0  0999 V2000
  141.2430   72.2640  221.7190 O   0  0  0  0  0  0  0  0  0  0  0  0
  140.2600   72.3570  222.5290 C   0  0  0  0  0  0  0  0  0  0  0  0
  139.2140   73.3080  222.2880 N   0  0  0  0  0  0  0  0  0  0  0  0
  139.3110   74.1440  221.1140 C   0  0  0  0  0  0  0  0  0  0  0  0
  140.3560   75.1740  221.2590 C   0  0  0  0  0  0  0  0  0  0  0  0
  141.0620   75.1790  222.2980 O   0  0  0  0  0  0  0  0  0  0  0  0
  140.6220   76.1730  220.2910 N   0  0  0  0  0  0  0  0  0  0  0  0
  139.9890   76.0620  218.9920 C   0  0  0  0  0  0  0  0  0  0  0  0
  139.3410   77.3310  218.5390 C   0  0  0  0  0  0  0  0  0  0  0  0
  140.2250   78.5210  218.7020 C   0  0  0  0  0  0  0  0  0  0  0  0
  141.5620   78.1520  219.2710 C   0  0  0  0  0  0  0  0  0  0  0  0
  141.4930   77.3060  220.5130 C   0  0  1  0  0  0  0  0  0  0  0  0
  141.0660   78.1600  221.6420 C   0  0  0  0  0  0  0  0  0  0  0  0
  139.7970   78.1690  222.1720 C   0  0  0  0  0  0  0  0  0  0  0  0
  139.4900   79.0130  223.2300 C   0  0  0  0  0  0  0  0  0  0  0  0
  140.4430   79.8640  223.7800 C   0  0  0  0  0  0  0  0  0  0  0  0
  141.7210   79.8570  223.2510 C   0  0  0  0  0  0  0  0  0  0  0  0
  142.9940   80.9000  223.8820 Cl  0  0  0  0  0  0  0  0  0  0  0  0
  142.0170   79.0160  222.2010 C   0  0  0  0  0  0  0  0  0  0  0  0
  140.1770   71.4980  223.7180 C   0  0  0  0  0  0  0  0  0  0  0  0
  139.5760   70.2560  223.5810 C   0  0  0  0  0  0  0  0  0  0  0  0
  139.4870   69.4320  224.6830 C   0  0  0  0  0  0  0  0  0  0  0  0
  139.9860   69.8260  225.9090 C   0  0  0  0  0  0  0  0  0  0  0  0
  139.9180   69.0350  227.0370 C   0  0  0  0  0  0  0  0  0  0  0  0
  140.4150   69.4220  228.2650 C   0  0  0  0  0  0  0  0  0  0  0  0
  141.0100   70.6860  228.3390 C   0  0  0  0  0  0  0  0  0  0  0  0
  141.0870   71.5020  227.2050 C   0  0  0  0  0  0  0  0  0  0  0  0
  140.5820   71.0900  225.9880 C   0  0  0  0  0  0  0  0  0  0  0  0
  140.6650   71.8880  224.9080 N   0  0  0  0  0  0  0  0  0  0  0  0
  138.4330   73.3460  222.9770 H   0  0  0  0  0  0  0  0  0  0  0  0
  139.5519   73.5124  220.2462 H   0  0  0  0  0  0  0  0  0  0  0  0
  138.3459   74.6536  220.9769 H   0  0  0  0  0  0  0  0  0  0  0  0
  140.7538   75.7779  218.2542 H   0  0  0  0  0  0  0  0  0  0  0  0
  139.1960   75.3048  219.0799 H   0  0  0  0  0  0  0  0  0  0  0  0
  139.0782   77.2313  217.4755 H   0  0  0  0  0  0  0  0  0  0  0  0
  138.4513   77.4908  219.1657 H   0  0  0  0  0  0  0  0  0  0  0  0
  140.3746   78.9900  217.7183 H   0  0  0  0  0  0  0  0  0  0  0  0
  139.7366   79.2144  219.4025 H   0  0  0  0  0  0  0  0  0  0  0  0
  142.1207   77.5945  218.5048 H   0  0  0  0  0  0  0  0  0  0  0  0
  142.0536   79.0934  219.5575 H   0  0  0  0  0  0  0  0  0  0  0  0
  142.4796   76.8898  220.7646 H   0  0  0  0  0  0  0  0  0  0  0  0
  139.0239   77.5060  221.7565 H   0  0  0  0  0  0  0  0  0  0  0  0
  138.4704   79.0089  223.6428 H   0  0  0  0  0  0  0  0  0  0  0  0
  140.1857   80.5285  224.6180 H   0  0  0  0  0  0  0  0  0  0  0  0
  143.0369   79.0189  221.7890 H   0  0  0  0  0  0  0  0  0  0  0  0
  139.1764   69.9331  222.6083 H   0  0  0  0  0  0  0  0  0  0  0  0
  139.0110   68.4453  224.5841 H   0  0  0  0  0  0  0  0  0  0  0  0
  139.4438   68.0460  226.9536 H   0  0  0  0  0  0  0  0  0  0  0  0
  140.3464   68.7664  229.1456 H   0  0  0  0  0  0  0  0  0  0  0  0
  141.4204   71.0410  229.2959 H   0  0  0  0  0  0  0  0  0  0  0  0
  141.5596   72.4921  227.2848 H   0  0  0  0  0  0  0  0  0  0  0  0
  1  2  2  0
  2  3  1  0
  3  4  1  0
  4  5  1  0
  5  6  2  0
  5  7  1  0
  7  8  1  0
  8  9  1  0
  9 10  1  0
 10 11  1  0
 11 12  1  0
 12 13  1  0
 13 14  2  0
 14 15  1  0
 15 16  2  0
 16 17  1  0
 17 18  1  0
 17 19  2  0
  2 20  1  0
 20 21  2  0
 21 22  1  0
 22 23  2  0
 23 24  1  0
 24 25  2  0
 25 26  1  0
 26 27  2  0
 27 28  1  0
 28 29  2  0
 12  7  1  0
 19 13  1  0
 29 20  1  0
 28 23  1  0
  3 30  1  0
  4 31  1  0
  4 32  1  0
  8 33  1  0
  8 34  1  0
  9 35  1  0
  9 36  1  0
 10 37  1  0
 10 38  1  0
 11 39  1  0
 11 40  1  0
 12 41  1  1
 14 42  1  0
 15 43  1  0
 16 44  1  0
 19 45  1  0
 21 46  1  0
 22 47  1  0
 24 48  1  0
 25 49  1  0
 26 50  1  0
 27 51  1  0
M  END
>  <smiles>  (99) 
O=C(NCC(=O)N1CCCCC1c1cccc(Cl)c1)c1ccc2ccccc2n1

>  <score_type>  (99) 
oracle

>  <origin>  (99) 
autodockgpu

>  <m_score__min__energy>  (99) 
-9.2300000000000004

>  <m_primary>  (99) 
energy

>  <rmsd>  (99) 
1.4599515790079276

>  <m_score__min__rmsd>  (99) 
1.4599515790079276

>  <meeko>  (99) 
{"free_energy": -9.23, "intermolecular_energy": -10.72, "internal_energy": -1.4, "cluster_size": 17, "cluster_id": 1, "rank_in_cluster": 1}

>  <energy>  (99) 
-7.88

>  <cluster_rmsd>  (99) 
0.09

>  <cluster>  (99) 
7

$$$$

     RDKit          3D

 51 54  0  0  0  0  0  0  0  0999 V2000
  140.2380   71.2940  221.2740 O   0  0  0  0  0  0  0  0  0  0  0  0
  140.0740   71.8430  222.4150 C   0  0  0  0  0  0  0  0  0  0  0  0
  139.9420   73.2680  222.5180 N   0  0  0  0  0  0  0  0  0  0  0  0
  139.9990   74.0460  221.3030 C   0  0  0  0  0  0  0  0  0  0  0  0
  139.7400   75.4750  221.5540 C   0  0  0  0  0  0  0  0  0  0  0  0
  139.5850   75.8640  222.7390 O   0  0  0  0  0  0  0  0  0  0  0  0
  139.6530   76.4540  220.5350 N   0  0  0  0  0  0  0  0  0  0  0  0
  138.4770   76.4690  219.6880 C   0  0  0  0  0  0  0  0  0  0  0  0
  137.8690   77.8260  219.5410 C   0  0  0  0  0  0  0  0  0  0  0  0
  138.8780   78.8790  219.2240 C   0  0  0  0  0  0  0  0  0  0  0  0
  140.2630   78.3140  219.1150 C   0  0  0  0  0  0  0  0  0  0  0  0
  140.6700   77.4500  220.2780 C   0  0  1  0  0  0  0  0  0  0  0  0
  140.9420   78.3230  221.4410 C   0  0  0  0  0  0  0  0  0  0  0  0
  142.1990   78.6790  221.8660 C   0  0  0  0  0  0  0  0  0  0  0  0
  142.3540   79.4990  222.9760 C   0  0  0  0  0  0  0  0  0  0  0  0
  141.2560   79.9800  223.6800 C   0  0  0  0  0  0  0  0  0  0  0  0
  139.9880   79.6260  223.2550 C   0  0  0  0  0  0  0  0  0  0  0  0
  138.5380   80.1870  224.0850 Cl  0  0  0  0  0  0  0  0  0  0  0  0
  139.8450   78.8110  222.1530 C   0  0  0  0  0  0  0  0  0  0  0  0
  140.0160   71.0360  223.6410 C   0  0  0  0  0  0  0  0  0  0  0  0
  139.5610   69.7310  223.5390 C   0  0  0  0  0  0  0  0  0  0  0  0
  139.4990   68.9530  224.6760 C   0  0  0  0  0  0  0  0  0  0  0  0
  139.8830   69.4560  225.9030 C   0  0  0  0  0  0  0  0  0  0  0  0
  139.8370   68.7160  227.0660 C   0  0  0  0  0  0  0  0  0  0  0  0
  140.2190   69.2110  228.2960 C   0  0  0  0  0  0  0  0  0  0  0  0
  140.6710   70.5340  228.3350 C   0  0  0  0  0  0  0  0  0  0  0  0
  140.7240   71.3000  227.1650 C   0  0  0  0  0  0  0  0  0  0  0  0
  140.3350   70.7790  225.9470 C   0  0  0  0  0  0  0  0  0  0  0  0
  140.3930   71.5320  224.8330 N   0  0  0  0  0  0  0  0  0  0  0  0
  139.8090   73.6690  223.4710 H   0  0  0  0  0  0  0  0  0  0  0  0
  140.9993   73.9384  220.8582 H   0  0  0  0  0  0  0  0  0  0  0  0
  139.2204   73.6725  220.6216 H   0  0  0  0  0  0  0  0  0  0  0  0
  138.7614   76.1044  218.6899 H   0  0  0  0  0  0  0  0  0  0  0  0
  137.7239   75.8258  220.1665 H   0  0  0  0  0  0  0  0  0  0  0  0
  137.1278   77.7932  218.7289 H   0  0  0  0  0  0  0  0  0  0  0  0
  137.4067   78.0886  220.5040 H   0  0  0  0  0  0  0  0  0  0  0  0
  138.6104   79.3509  218.2671 H   0  0  0  0  0  0  0  0  0  0  0  0
  138.8733   79.6124  220.0438 H   0  0  0  0  0  0  0  0  0  0  0  0
  140.3170   77.7073  218.1990 H   0  0  0  0  0  0  0  0  0  0  0  0
  140.9534   79.1702  219.1004 H   0  0  0  0  0  0  0  0  0  0  0  0
  141.5927   76.8942  220.0549 H   0  0  0  0  0  0  0  0  0  0  0  0
  143.0848   78.3136  221.3258 H   0  0  0  0  0  0  0  0  0  0  0  0
  143.3670   79.7737  223.3051 H   0  0  0  0  0  0  0  0  0  0  0  0
  141.3927   80.6291  224.5575 H   0  0  0  0  0  0  0  0  0  0  0  0
  138.8323   78.5357  221.8233 H   0  0  0  0  0  0  0  0  0  0  0  0
  139.2538   69.3217  222.5653 H   0  0  0  0  0  0  0  0  0  0  0  0
  139.1382   67.9163  224.6042 H   0  0  0  0  0  0  0  0  0  0  0  0
  139.4774   67.6780  227.0101 H   0  0  0  0  0  0  0  0  0  0  0  0
  140.1702   68.5931  229.2047 H   0  0  0  0  0  0  0  0  0  0  0  0
  140.9870   70.9754  229.2917 H   0  0  0  0  0  0  0  0  0  0  0  0
  141.0829   72.3385  227.2168 H   0  0  0  0  0  0  0  0  0  0  0  0
  1  2  2  0
  2  3  1  0
  3  4  1  0
  4  5  1  0
  5  6  2  0
  5  7  1  0
  7  8  1  0
  8  9  1  0
  9 10  1  0
 10 11  1  0
 11 12  1  0
 12 13  1  0
 13 14  2  0
 14 15  1  0
 15 16  2  0
 16 17  1  0
 17 18  1  0
 17 19  2  0
  2 20  1  0
 20 21  2  0
 21 22  1  0
 22 23  2  0
 23 24  1  0
 24 25  2  0
 25 26  1  0
 26 27  2  0
 27 28  1  0
 28 29  2  0
 12  7  1  0
 19 13  1  0
 29 20  1  0
 28 23  1  0
  3 30  1  0
  4 31  1  0
  4 32  1  0
  8 33  1  0
  8 34  1  0
  9 35  1  0
  9 36  1  0
 10 37  1  0
 10 38  1  0
 11 39  1  0
 11 40  1  0
 12 41  1  6
 14 42  1  0
 15 43  1  0
 16 44  1  0
 19 45  1  0
 21 46  1  0
 22 47  1  0
 24 48  1  0
 25 49  1  0
 26 50  1  0
 27 51  1  0
M  END
>  <smiles>  (100) 
O=C(NCC(=O)N1CCCCC1c1cccc(Cl)c1)c1ccc2ccccc2n1

>  <score_type>  (100) 
oracle

>  <origin>  (100) 
autodockgpu

>  <m_score__min__energy>  (100) 
-9.2300000000000004

>  <m_primary>  (100) 
energy

>  <rmsd>  (100) 
1.7300129964704303

>  <m_score__min__rmsd>  (100) 
1.7300129964704303

>  <meeko>  (100) 
{"free_energy": -8.11, "intermolecular_energy": -9.6, "internal_energy": -1.97, "cluster_size": 17, "cluster_id": 1, "rank_in_cluster": 17}

>  <energy>  (100) 
-7.4

>  <cluster_rmsd>  (100) 
0.0

>  <cluster>  (100) 
8

$$$$
