
     RDKit          3D

 48 51  0  0  0  0  0  0  0  0999 V2000
  138.1790   70.6090  221.6590 O   0  0  0  0  0  0  0  0  0  0  0  0
  138.6380   71.3160  222.5940 C   0  0  0  0  0  0  0  0  0  0  0  0
  138.6610   72.7330  222.3900 N   0  0  0  0  0  0  0  0  0  0  0  0
  138.1610   73.2250  221.1400 C   0  0  0  0  0  0  0  0  0  0  0  0
  139.2200   73.4020  220.1260 C   0  0  0  0  0  0  0  0  0  0  0  0
  139.3670   72.6610  219.1200 O   0  0  0  0  0  0  0  0  0  0  0  0
  140.1400   74.4780  220.2900 N   0  0  0  0  0  0  0  0  0  0  0  0
  140.4520   75.4470  219.2520 C   0  0  0  0  0  0  0  0  0  0  0  0
  141.9360   75.6550  219.4770 C   0  0  0  0  0  0  0  0  0  0  0  0
  142.2710   75.0090  220.7970 C   0  0  0  0  0  0  0  0  0  0  0  0
  140.9280   74.8300  221.4600 C   0  0  1  0  0  0  0  0  0  0  0  0
  140.3560   76.0930  221.9760 C   0  0  0  0  0  0  0  0  0  0  0  0
  139.0000   76.1670  222.1930 C   0  0  0  0  0  0  0  0  0  0  0  0
  138.3870   77.3270  222.6790 C   0  0  0  0  0  0  0  0  0  0  0  0
  139.1530   78.4430  222.9530 C   0  0  0  0  0  0  0  0  0  0  0  0
  138.4330   79.9210  223.5630 Cl  0  0  0  0  0  0  0  0  0  0  0  0
  140.5120   78.3830  222.7400 C   0  0  0  0  0  0  0  0  0  0  0  0
  141.4980   79.8030  223.0870 Cl  0  0  0  0  0  0  0  0  0  0  0  0
  141.1050   77.2170  222.2540 C   0  0  0  0  0  0  0  0  0  0  0  0
  139.1320   70.7520  223.8440 C   0  0  0  0  0  0  0  0  0  0  0  0
  139.0190   69.3670  224.0000 C   0  0  0  0  0  0  0  0  0  0  0  0
  139.4950   68.8630  225.1920 C   0  0  0  0  0  0  0  0  0  0  0  0
  140.0500   69.6460  226.1810 C   0  0  0  0  0  0  0  0  0  0  0  0
  140.5280   69.1690  227.3680 C   0  0  0  0  0  0  0  0  0  0  0  0
  141.0810   69.9720  228.3440 C   0  0  0  0  0  0  0  0  0  0  0  0
  141.1670   71.3490  228.1300 C   0  0  0  0  0  0  0  0  0  0  0  0
  140.6830   71.8230  226.9290 C   0  0  0  0  0  0  0  0  0  0  0  0
  140.1330   71.0090  225.9620 C   0  0  0  0  0  0  0  0  0  0  0  0
  139.6740   71.5100  224.8090 N   0  0  0  0  0  0  0  0  0  0  0  0
  139.0260   73.3870  223.1160 H   0  0  0  0  0  0  0  0  0  0  0  0
  137.4203   72.5099  220.7526 H   0  0  0  0  0  0  0  0  0  0  0  0
  137.7167   74.2134  221.3287 H   0  0  0  0  0  0  0  0  0  0  0  0
  140.2495   75.0425  218.2493 H   0  0  0  0  0  0  0  0  0  0  0  0
  139.8549   76.3695  219.3025 H   0  0  0  0  0  0  0  0  0  0  0  0
  142.5117   75.1827  218.6673 H   0  0  0  0  0  0  0  0  0  0  0  0
  142.1875   76.7258  219.4865 H   0  0  0  0  0  0  0  0  0  0  0  0
  142.7652   74.0382  220.6441 H   0  0  0  0  0  0  0  0  0  0  0  0
  142.9671   75.6099  221.4006 H   0  0  0  0  0  0  0  0  0  0  0  0
  140.9644   74.1352  222.3120 H   0  0  0  0  0  0  0  0  0  0  0  0
  138.3775   75.2861  221.9776 H   0  0  0  0  0  0  0  0  0  0  0  0
  137.2994   77.3500  222.8422 H   0  0  0  0  0  0  0  0  0  0  0  0
  142.1923   77.1940  222.0893 H   0  0  0  0  0  0  0  0  0  0  0  0
  138.5799   68.7228  223.2240 H   0  0  0  0  0  0  0  0  0  0  0  0
  139.4282   67.7784  225.3625 H   0  0  0  0  0  0  0  0  0  0  0  0
  140.4689   68.0868  227.5559 H   0  0  0  0  0  0  0  0  0  0  0  0
  141.4506   69.5316  229.2818 H   0  0  0  0  0  0  0  0  0  0  0  0
  141.6001   72.0234  228.8834 H   0  0  0  0  0  0  0  0  0  0  0  0
  140.7385   72.9040  226.7329 H   0  0  0  0  0  0  0  0  0  0  0  0
  1  2  2  0
  2  3  1  0
  3  4  1  0
  4  5  1  0
  5  6  2  0
  5  7  1  0
  7  8  1  0
  8  9  1  0
  9 10  1  0
 10 11  1  0
 11 12  1  0
 12 13  2  0
 13 14  1  0
 14 15  2  0
 15 16  1  0
 15 17  1  0
 17 18  1  0
 17 19  2  0
  2 20  1  0
 20 21  2  0
 21 22  1  0
 22 23  2  0
 23 24  1  0
 24 25  2  0
 25 26  1  0
 26 27  2  0
 27 28  1  0
 28 29  2  0
 11  7  1  0
 19 12  1  0
 29 20  1  0
 28 23  1  0
  3 30  1  0
  4 31  1  0
  4 32  1  0
  8 33  1  0
  8 34  1  0
  9 35  1  0
  9 36  1  0
 10 37  1  0
 10 38  1  0
 11 39  1  1
 13 40  1  0
 14 41  1  0
 19 42  1  0
 21 43  1  0
 22 44  1  0
 24 45  1  0
 25 46  1  0
 26 47  1  0
 27 48  1  0
M  END
>  <smiles>  (1) 
O=C(NCC(=O)N1CCC[C@H]1c1ccc(Cl)c(Cl)c1)c1ccc2ccccc2n1

>  <score_type>  (1) 
oracle

>  <origin>  (1) 
autodockgpu

>  <m_score__min__energy>  (1) 
-9.4299999999999997

>  <m_primary>  (1) 
energy

>  <rmsd>  (1) 
1.9470240640423864

>  <m_score__min__rmsd>  (1) 
1.9470240640423864

>  <meeko>  (1) 
{"free_energy": -8.22, "intermolecular_energy": -9.71, "internal_energy": -1.68, "cluster_size": 16, "cluster_id": 1, "rank_in_cluster": 14}

>  <energy>  (1) 
-9.43

>  <cluster_rmsd>  (1) 
0.0

>  <cluster>  (1) 
1

$$$$

     RDKit          3D

 48 51  0  0  0  0  0  0  0  0999 V2000
  138.1460   71.1010  222.0280 O   0  0  0  0  0  0  0  0  0  0  0  0
  138.9530   71.3590  222.9600 C   0  0  0  0  0  0  0  0  0  0  0  0
  139.5860   72.6430  222.9390 N   0  0  0  0  0  0  0  0  0  0  0  0
  139.2480   73.5240  221.8590 C   0  0  0  0  0  0  0  0  0  0  0  0
  140.1420   74.6960  221.7730 C   0  0  0  0  0  0  0  0  0  0  0  0
  141.3980   74.6280  221.7650 O   0  0  0  0  0  0  0  0  0  0  0  0
  139.5530   75.9910  221.6910 N   0  0  0  0  0  0  0  0  0  0  0  0
  138.4930   76.4610  222.5670 C   0  0  0  0  0  0  0  0  0  0  0  0
  137.6490   77.2720  221.6040 C   0  0  0  0  0  0  0  0  0  0  0  0
  138.4580   77.4270  220.3420 C   0  0  0  0  0  0  0  0  0  0  0  0
  139.8610   77.0730  220.7680 C   0  0  1  0  0  0  0  0  0  0  0  0
  140.5120   78.1280  221.5740 C   0  0  0  0  0  0  0  0  0  0  0  0
  141.1920   77.7680  222.7140 C   0  0  0  0  0  0  0  0  0  0  0  0
  141.8330   78.7090  223.5270 C   0  0  0  0  0  0  0  0  0  0  0  0
  141.7900   80.0480  223.1890 C   0  0  0  0  0  0  0  0  0  0  0  0
  142.5770   81.2660  224.1740 Cl  0  0  0  0  0  0  0  0  0  0  0  0
  141.1120   80.4220  222.0500 C   0  0  0  0  0  0  0  0  0  0  0  0
  141.0520   82.1290  221.6120 Cl  0  0  0  0  0  0  0  0  0  0  0  0
  140.4790   79.4690  221.2530 C   0  0  0  0  0  0  0  0  0  0  0  0
  139.2540   70.4160  224.0300 C   0  0  0  0  0  0  0  0  0  0  0  0
  138.8850   69.0840  223.8200 C   0  0  0  0  0  0  0  0  0  0  0  0
  139.1830   68.2160  224.8500 C   0  0  0  0  0  0  0  0  0  0  0  0
  139.8010   68.6070  226.0180 C   0  0  0  0  0  0  0  0  0  0  0  0
  140.1050   67.7660  227.0500 C   0  0  0  0  0  0  0  0  0  0  0  0
  140.7250   68.1790  228.2120 C   0  0  0  0  0  0  0  0  0  0  0  0
  141.0690   69.5230  228.3640 C   0  0  0  0  0  0  0  0  0  0  0  0
  140.7590   70.3670  227.3170 C   0  0  0  0  0  0  0  0  0  0  0  0
  140.1390   69.9400  226.1610 C   0  0  0  0  0  0  0  0  0  0  0  0
  139.8550   70.7910  225.1690 N   0  0  0  0  0  0  0  0  0  0  0  0
  140.2660   72.9320  223.6740 H   0  0  0  0  0  0  0  0  0  0  0  0
  139.3127   72.9631  220.9150 H   0  0  0  0  0  0  0  0  0  0  0  0
  138.2301   73.8978  222.0438 H   0  0  0  0  0  0  0  0  0  0  0  0
  137.9229   75.6231  222.9947 H   0  0  0  0  0  0  0  0  0  0  0  0
  138.8486   77.0269  223.4407 H   0  0  0  0  0  0  0  0  0  0  0  0
  136.7079   76.7448  221.3884 H   0  0  0  0  0  0  0  0  0  0  0  0
  137.3929   78.2524  222.0321 H   0  0  0  0  0  0  0  0  0  0  0  0
  138.1007   76.7401  219.5607 H   0  0  0  0  0  0  0  0  0  0  0  0
  138.3861   78.4369  219.9121 H   0  0  0  0  0  0  0  0  0  0  0  0
  140.5280   76.8785  219.9152 H   0  0  0  0  0  0  0  0  0  0  0  0
  141.2332   76.7055  222.9958 H   0  0  0  0  0  0  0  0  0  0  0  0
  142.3688   78.3843  224.4312 H   0  0  0  0  0  0  0  0  0  0  0  0
  139.9421   79.7934  220.3494 H   0  0  0  0  0  0  0  0  0  0  0  0
  138.3904   68.7505  222.8958 H   0  0  0  0  0  0  0  0  0  0  0  0
  138.9131   67.1561  224.7328 H   0  0  0  0  0  0  0  0  0  0  0  0
  139.8417   66.7027  226.9499 H   0  0  0  0  0  0  0  0  0  0  0  0
  140.9459   67.4556  229.0107 H   0  0  0  0  0  0  0  0  0  0  0  0
  141.5635   69.8919  229.2747 H   0  0  0  0  0  0  0  0  0  0  0  0
  141.0189   71.4319  227.4087 H   0  0  0  0  0  0  0  0  0  0  0  0
  1  2  2  0
  2  3  1  0
  3  4  1  0
  4  5  1  0
  5  6  2  0
  5  7  1  0
  7  8  1  0
  8  9  1  0
  9 10  1  0
 10 11  1  0
 11 12  1  0
 12 13  2  0
 13 14  1  0
 14 15  2  0
 15 16  1  0
 15 17  1  0
 17 18  1  0
 17 19  2  0
  2 20  1  0
 20 21  2  0
 21 22  1  0
 22 23  2  0
 23 24  1  0
 24 25  2  0
 25 26  1  0
 26 27  2  0
 27 28  1  0
 28 29  2  0
 11  7  1  0
 19 12  1  0
 29 20  1  0
 28 23  1  0
  3 30  1  0
  4 31  1  0
  4 32  1  0
  8 33  1  0
  8 34  1  0
  9 35  1  0
  9 36  1  0
 10 37  1  0
 10 38  1  0
 11 39  1  6
 13 40  1  0
 14 41  1  0
 19 42  1  0
 21 43  1  0
 22 44  1  0
 24 45  1  0
 25 46  1  0
 26 47  1  0
 27 48  1  0
M  END
>  <smiles>  (2) 
O=C(NCC(=O)N1CCC[C@H]1c1ccc(Cl)c(Cl)c1)c1ccc2ccccc2n1

>  <score_type>  (2) 
oracle

>  <origin>  (2) 
autodockgpu

>  <m_score__min__energy>  (2) 
-9.4299999999999997

>  <m_primary>  (2) 
energy

>  <rmsd>  (2) 
2.3430716533175855

>  <m_score__min__rmsd>  (2) 
2.3430716533175855

>  <meeko>  (2) 
{"free_energy": -8.75, "intermolecular_energy": -10.24, "internal_energy": -1.36, "cluster_size": 16, "cluster_id": 1, "rank_in_cluster": 6}

>  <energy>  (2) 
-9.36

>  <cluster_rmsd>  (2) 
0.33

>  <cluster>  (2) 
1

$$$$

     RDKit          3D

 48 51  0  0  0  0  0  0  0  0999 V2000
  137.8060   75.7730  222.5200 O   0  0  0  0  0  0  0  0  0  0  0  0
  139.0020   76.1320  222.3540 C   0  0  0  0  0  0  0  0  0  0  0  0
  139.9010   75.1680  221.7940 N   0  0  0  0  0  0  0  0  0  0  0  0
  139.3640   73.8780  221.4710 C   0  0  0  0  0  0  0  0  0  0  0  0
  140.2110   72.7670  221.9510 C   0  0  0  0  0  0  0  0  0  0  0  0
  141.4670   72.8020  221.9920 O   0  0  0  0  0  0  0  0  0  0  0  0
  139.5710   71.5760  222.4000 N   0  0  0  0  0  0  0  0  0  0  0  0
  139.9500   70.2380  221.9750 C   0  0  0  0  0  0  0  0  0  0  0  0
  138.5970   69.5630  221.8770 C   0  0  0  0  0  0  0  0  0  0  0  0
  137.6010   70.4880  222.5300 C   0  0  0  0  0  0  0  0  0  0  0  0
  138.4600   71.4350  223.3290 C   0  0  1  0  0  0  0  0  0  0  0  0
  139.0240   70.8240  224.5530 C   0  0  0  0  0  0  0  0  0  0  0  0
  138.7230   69.5130  224.8390 C   0  0  0  0  0  0  0  0  0  0  0  0
  139.2190   68.8670  225.9770 C   0  0  0  0  0  0  0  0  0  0  0  0
  140.0370   69.5550  226.8520 C   0  0  0  0  0  0  0  0  0  0  0  0
  140.6840   68.7920  228.2920 Cl  0  0  0  0  0  0  0  0  0  0  0  0
  140.3460   70.8680  226.5780 C   0  0  0  0  0  0  0  0  0  0  0  0
  141.3890   71.7540  227.6900 Cl  0  0  0  0  0  0  0  0  0  0  0  0
  139.8420   71.4950  225.4380 C   0  0  0  0  0  0  0  0  0  0  0  0
  139.4850   77.4620  222.7040 C   0  0  0  0  0  0  0  0  0  0  0  0
  138.5180   78.4220  223.0160 C   0  0  0  0  0  0  0  0  0  0  0  0
  139.0060   79.6710  223.3440 C   0  0  0  0  0  0  0  0  0  0  0  0
  140.3490   79.9790  223.3700 C   0  0  0  0  0  0  0  0  0  0  0  0
  140.8540   81.2060  223.6910 C   0  0  0  0  0  0  0  0  0  0  0  0
  142.2040   81.4930  223.7110 C   0  0  0  0  0  0  0  0  0  0  0  0
  143.1210   80.4910  223.3900 C   0  0  0  0  0  0  0  0  0  0  0  0
  142.6040   79.2540  223.0680 C   0  0  0  0  0  0  0  0  0  0  0  0
  141.2520   78.9820  223.0510 C   0  0  0  0  0  0  0  0  0  0  0  0
  140.7910   77.7660  222.7320 N   0  0  0  0  0  0  0  0  0  0  0  0
  140.9070   75.3880  221.6260 H   0  0  0  0  0  0  0  0  0  0  0  0
  138.3696   73.7861  221.9322 H   0  0  0  0  0  0  0  0  0  0  0  0
  139.3144   73.8058  220.3745 H   0  0  0  0  0  0  0  0  0  0  0  0
  140.4630   70.2547  221.0021 H   0  0  0  0  0  0  0  0  0  0  0  0
  140.6568   69.7341  222.6506 H   0  0  0  0  0  0  0  0  0  0  0  0
  138.3295   69.4020  220.8222 H   0  0  0  0  0  0  0  0  0  0  0  0
  138.6085   68.5813  222.3731 H   0  0  0  0  0  0  0  0  0  0  0  0
  137.0170   71.0323  221.7732 H   0  0  0  0  0  0  0  0  0  0  0  0
  136.8669   69.9531  223.1504 H   0  0  0  0  0  0  0  0  0  0  0  0
  137.9133   72.3327  223.6534 H   0  0  0  0  0  0  0  0  0  0  0  0
  138.0714   68.9542  224.1512 H   0  0  0  0  0  0  0  0  0  0  0  0
  138.9587   67.8165  226.1738 H   0  0  0  0  0  0  0  0  0  0  0  0
  140.1022   72.5455  225.2411 H   0  0  0  0  0  0  0  0  0  0  0  0
  137.4413   78.1974  223.0012 H   0  0  0  0  0  0  0  0  0  0  0  0
  138.2850   80.4620  223.5979 H   0  0  0  0  0  0  0  0  0  0  0  0
  140.1473   82.0090  223.9474 H   0  0  0  0  0  0  0  0  0  0  0  0
  142.5536   82.5014  223.9773 H   0  0  0  0  0  0  0  0  0  0  0  0
  144.2048   80.6792  223.3937 H   0  0  0  0  0  0  0  0  0  0  0  0
  143.3038   78.4448  222.8122 H   0  0  0  0  0  0  0  0  0  0  0  0
  1  2  2  0
  2  3  1  0
  3  4  1  0
  4  5  1  0
  5  6  2  0
  5  7  1  0
  7  8  1  0
  8  9  1  0
  9 10  1  0
 10 11  1  0
 11 12  1  0
 12 13  2  0
 13 14  1  0
 14 15  2  0
 15 16  1  0
 15 17  1  0
 17 18  1  0
 17 19  2  0
  2 20  1  0
 20 21  2  0
 21 22  1  0
 22 23  2  0
 23 24  1  0
 24 25  2  0
 25 26  1  0
 26 27  2  0
 27 28  1  0
 28 29  2  0
 11  7  1  0
 19 12  1  0
 29 20  1  0
 28 23  1  0
  3 30  1  0
  4 31  1  0
  4 32  1  0
  8 33  1  0
  8 34  1  0
  9 35  1  0
  9 36  1  0
 10 37  1  0
 10 38  1  0
 11 39  1  1
 13 40  1  0
 14 41  1  0
 19 42  1  0
 21 43  1  0
 22 44  1  0
 24 45  1  0
 25 46  1  0
 26 47  1  0
 27 48  1  0
M  END
>  <smiles>  (3) 
O=C(NCC(=O)N1CCC[C@H]1c1ccc(Cl)c(Cl)c1)c1ccc2ccccc2n1

>  <score_type>  (3) 
oracle

>  <origin>  (3) 
autodockgpu

>  <m_score__min__energy>  (3) 
-9.4299999999999997

>  <m_primary>  (3) 
energy

>  <rmsd>  (3) 
8.25197645150644

>  <m_score__min__rmsd>  (3) 
8.25197645150644

>  <meeko>  (3) 
{"free_energy": -8.84, "intermolecular_energy": -10.33, "internal_energy": -1.43, "cluster_size": 20, "cluster_id": 2, "rank_in_cluster": 10}

>  <energy>  (3) 
-9.11

>  <cluster_rmsd>  (3) 
0.55

>  <cluster>  (3) 
1

$$$$

     RDKit          3D

 48 51  0  0  0  0  0  0  0  0999 V2000
  140.4150   75.7570  220.3710 O   0  0  0  0  0  0  0  0  0  0  0  0
  139.9790   76.0610  221.5130 C   0  0  0  0  0  0  0  0  0  0  0  0
  139.2340   75.0590  222.2150 N   0  0  0  0  0  0  0  0  0  0  0  0
  139.0480   73.7980  221.5590 C   0  0  0  0  0  0  0  0  0  0  0  0
  139.9840   72.7600  222.0330 C   0  0  0  0  0  0  0  0  0  0  0  0
  141.2350   72.8880  222.0440 O   0  0  0  0  0  0  0  0  0  0  0  0
  139.4460   71.5310  222.5140 N   0  0  0  0  0  0  0  0  0  0  0  0
  139.8770   70.2200  222.0590 C   0  0  0  0  0  0  0  0  0  0  0  0
  138.5630   69.4650  222.0380 C   0  0  0  0  0  0  0  0  0  0  0  0
  137.5550   70.3270  222.7550 C   0  0  0  0  0  0  0  0  0  0  0  0
  138.4030   71.3220  223.5070 C   0  0  1  0  0  0  0  0  0  0  0  0
  139.0750   70.7440  224.6910 C   0  0  0  0  0  0  0  0  0  0  0  0
  139.9630   71.5210  225.3960 C   0  0  0  0  0  0  0  0  0  0  0  0
  140.6360   71.0440  226.5260 C   0  0  0  0  0  0  0  0  0  0  0  0
  140.4130   69.7520  226.9600 C   0  0  0  0  0  0  0  0  0  0  0  0
  141.2310   69.1060  228.3690 Cl  0  0  0  0  0  0  0  0  0  0  0  0
  139.5260   68.9620  226.2630 C   0  0  0  0  0  0  0  0  0  0  0  0
  139.2360   67.3110  226.8100 Cl  0  0  0  0  0  0  0  0  0  0  0  0
  138.8650   69.4560  225.1390 C   0  0  0  0  0  0  0  0  0  0  0  0
  140.2040   77.3640  222.1250 C   0  0  0  0  0  0  0  0  0  0  0  0
  139.0690   78.0840  222.5120 C   0  0  0  0  0  0  0  0  0  0  0  0
  139.3140   79.3130  223.0880 C   0  0  0  0  0  0  0  0  0  0  0  0
  140.5800   79.8230  223.2810 C   0  0  0  0  0  0  0  0  0  0  0  0
  140.8450   81.0370  223.8490 C   0  0  0  0  0  0  0  0  0  0  0  0
  142.1220   81.5280  224.0330 C   0  0  0  0  0  0  0  0  0  0  0  0
  143.2160   80.7620  223.6250 C   0  0  0  0  0  0  0  0  0  0  0  0
  142.9390   79.5380  223.0530 C   0  0  0  0  0  0  0  0  0  0  0  0
  141.6580   79.0590  222.8750 C   0  0  0  0  0  0  0  0  0  0  0  0
  141.4330   77.8650  222.3150 N   0  0  0  0  0  0  0  0  0  0  0  0
  138.8390   75.2330  223.1640 H   0  0  0  0  0  0  0  0  0  0  0  0
  138.0197   73.4543  221.7444 H   0  0  0  0  0  0  0  0  0  0  0  0
  139.2414   73.9520  220.4871 H   0  0  0  0  0  0  0  0  0  0  0  0
  140.3286   70.2700  221.0572 H   0  0  0  0  0  0  0  0  0  0  0  0
  140.6518   69.7575  222.6881 H   0  0  0  0  0  0  0  0  0  0  0  0
  138.2426   69.2909  221.0002 H   0  0  0  0  0  0  0  0  0  0  0  0
  138.6629   68.4844  222.5264 H   0  0  0  0  0  0  0  0  0  0  0  0
  136.8951   70.8373  222.0379 H   0  0  0  0  0  0  0  0  0  0  0  0
  136.8927   69.7477  223.4151 H   0  0  0  0  0  0  0  0  0  0  0  0
  137.8240   72.1845  223.8688 H   0  0  0  0  0  0  0  0  0  0  0  0
  140.1507   72.5517  225.0607 H   0  0  0  0  0  0  0  0  0  0  0  0
  141.3393   71.6948  227.0661 H   0  0  0  0  0  0  0  0  0  0  0  0
  138.1617   68.8055  224.5984 H   0  0  0  0  0  0  0  0  0  0  0  0
  138.0499   77.6963  222.3668 H   0  0  0  0  0  0  0  0  0  0  0  0
  138.4538   79.9181  223.4104 H   0  0  0  0  0  0  0  0  0  0  0  0
  139.9965   81.6555  224.1768 H   0  0  0  0  0  0  0  0  0  0  0  0
  142.2764   82.5135  224.4967 H   0  0  0  0  0  0  0  0  0  0  0  0
  144.2489   81.1177  223.7536 H   0  0  0  0  0  0  0  0  0  0  0  0
  143.7815   78.9128  222.7224 H   0  0  0  0  0  0  0  0  0  0  0  0
  1  2  2  0
  2  3  1  0
  3  4  1  0
  4  5  1  0
  5  6  2  0
  5  7  1  0
  7  8  1  0
  8  9  1  0
  9 10  1  0
 10 11  1  0
 11 12  1  0
 12 13  2  0
 13 14  1  0
 14 15  2  0
 15 16  1  0
 15 17  1  0
 17 18  1  0
 17 19  2  0
  2 20  1  0
 20 21  2  0
 21 22  1  0
 22 23  2  0
 23 24  1  0
 24 25  2  0
 25 26  1  0
 26 27  2  0
 27 28  1  0
 28 29  2  0
 11  7  1  0
 19 12  1  0
 29 20  1  0
 28 23  1  0
  3 30  1  0
  4 31  1  0
  4 32  1  0
  8 33  1  0
  8 34  1  0
  9 35  1  0
  9 36  1  0
 10 37  1  0
 10 38  1  0
 11 39  1  1
 13 40  1  0
 14 41  1  0
 19 42  1  0
 21 43  1  0
 22 44  1  0
 24 45  1  0
 25 46  1  0
 26 47  1  0
 27 48  1  0
M  END
>  <smiles>  (4) 
O=C(NCC(=O)N1CCC[C@H]1c1ccc(Cl)c(Cl)c1)c1ccc2ccccc2n1

>  <score_type>  (4) 
oracle

>  <origin>  (4) 
autodockgpu

>  <m_score__min__energy>  (4) 
-9.4299999999999997

>  <m_primary>  (4) 
energy

>  <rmsd>  (4) 
8.235900161006725

>  <m_score__min__rmsd>  (4) 
8.235900161006725

>  <meeko>  (4) 
{"free_energy": -8.82, "intermolecular_energy": -10.31, "internal_energy": -1.19, "cluster_size": 20, "cluster_id": 2, "rank_in_cluster": 13}

>  <energy>  (4) 
-9.09

>  <cluster_rmsd>  (4) 
0.49

>  <cluster>  (4) 
1

$$$$

     RDKit          3D

 48 51  0  0  0  0  0  0  0  0999 V2000
  137.7480   75.8240  222.5220 O   0  0  0  0  0  0  0  0  0  0  0  0
  138.9440   76.1710  222.3320 C   0  0  0  0  0  0  0  0  0  0  0  0
  139.8310   75.1870  221.7880 N   0  0  0  0  0  0  0  0  0  0  0  0
  139.2830   73.8920  221.5060 C   0  0  0  0  0  0  0  0  0  0  0  0
  140.1570   72.7890  221.9530 C   0  0  0  0  0  0  0  0  0  0  0  0
  141.4130   72.8430  221.9670 O   0  0  0  0  0  0  0  0  0  0  0  0
  139.5460   71.5820  222.4010 N   0  0  0  0  0  0  0  0  0  0  0  0
  139.9560   70.2550  221.9730 C   0  0  0  0  0  0  0  0  0  0  0  0
  138.6190   69.5480  221.8740 C   0  0  0  0  0  0  0  0  0  0  0  0
  137.6020   70.4470  222.5290 C   0  0  0  0  0  0  0  0  0  0  0  0
  138.4390   71.4130  223.3300 C   0  0  1  0  0  0  0  0  0  0  0  0
  139.0180   70.8130  224.5520 C   0  0  0  0  0  0  0  0  0  0  0  0
  138.7300   69.5010  224.8470 C   0  0  0  0  0  0  0  0  0  0  0  0
  139.2410   68.8650  225.9850 C   0  0  0  0  0  0  0  0  0  0  0  0
  140.0610   69.5640  226.8500 C   0  0  0  0  0  0  0  0  0  0  0  0
  140.7250   68.8140  228.2870 Cl  0  0  0  0  0  0  0  0  0  0  0  0
  140.3560   70.8790  226.5660 C   0  0  0  0  0  0  0  0  0  0  0  0
  141.4020   71.7780  227.6640 Cl  0  0  0  0  0  0  0  0  0  0  0  0
  139.8380   71.4950  225.4270 C   0  0  0  0  0  0  0  0  0  0  0  0
  139.4390   77.5070  222.6410 C   0  0  0  0  0  0  0  0  0  0  0  0
  138.4790   78.4960  222.8790 C   0  0  0  0  0  0  0  0  0  0  0  0
  138.9780   79.7490  223.1680 C   0  0  0  0  0  0  0  0  0  0  0  0
  140.3250   80.0360  223.2270 C   0  0  0  0  0  0  0  0  0  0  0  0
  140.8410   81.2680  223.5110 C   0  0  0  0  0  0  0  0  0  0  0  0
  142.1940   81.5330  223.5650 C   0  0  0  0  0  0  0  0  0  0  0  0
  143.1030   80.5040  223.3180 C   0  0  0  0  0  0  0  0  0  0  0  0
  142.5750   79.2620  223.0320 C   0  0  0  0  0  0  0  0  0  0  0  0
  141.2200   79.0110  222.9820 C   0  0  0  0  0  0  0  0  0  0  0  0
  140.7480   77.7910  222.7000 N   0  0  0  0  0  0  0  0  0  0  0  0
  140.8360   75.3960  221.6030 H   0  0  0  0  0  0  0  0  0  0  0  0
  138.3138   73.8017  222.0184 H   0  0  0  0  0  0  0  0  0  0  0  0
  139.1779   73.8084  220.4142 H   0  0  0  0  0  0  0  0  0  0  0  0
  140.4680   70.2861  220.9999 H   0  0  0  0  0  0  0  0  0  0  0  0
  140.6748   69.7665  222.6473 H   0  0  0  0  0  0  0  0  0  0  0  0
  138.3550   69.3830  220.8190 H   0  0  0  0  0  0  0  0  0  0  0  0
  138.6541   68.5658  222.3680 H   0  0  0  0  0  0  0  0  0  0  0  0
  137.0048   70.9788  221.7737 H   0  0  0  0  0  0  0  0  0  0  0  0
  136.8811   69.8934  223.1486 H   0  0  0  0  0  0  0  0  0  0  0  0
  137.8712   72.2968  223.6565 H   0  0  0  0  0  0  0  0  0  0  0  0
  138.0775   68.9332  224.1674 H   0  0  0  0  0  0  0  0  0  0  0  0
  138.9907   67.8135  226.1895 H   0  0  0  0  0  0  0  0  0  0  0  0
  140.0884   72.5463  225.2221 H   0  0  0  0  0  0  0  0  0  0  0  0
  137.3995   78.2886  222.8384 H   0  0  0  0  0  0  0  0  0  0  0  0
  138.2632   80.5624  223.3617 H   0  0  0  0  0  0  0  0  0  0  0  0
  140.1406   82.0932  223.7072 H   0  0  0  0  0  0  0  0  0  0  0  0
  142.5525   82.5459  223.8006 H   0  0  0  0  0  0  0  0  0  0  0  0
  144.1892   80.6748  223.3498 H   0  0  0  0  0  0  0  0  0  0  0  0
  143.2686   78.4315  222.8342 H   0  0  0  0  0  0  0  0  0  0  0  0
  1  2  2  0
  2  3  1  0
  3  4  1  0
  4  5  1  0
  5  6  2  0
  5  7  1  0
  7  8  1  0
  8  9  1  0
  9 10  1  0
 10 11  1  0
 11 12  1  0
 12 13  2  0
 13 14  1  0
 14 15  2  0
 15 16  1  0
 15 17  1  0
 17 18  1  0
 17 19  2  0
  2 20  1  0
 20 21  2  0
 21 22  1  0
 22 23  2  0
 23 24  1  0
 24 25  2  0
 25 26  1  0
 26 27  2  0
 27 28  1  0
 28 29  2  0
 11  7  1  0
 19 12  1  0
 29 20  1  0
 28 23  1  0
  3 30  1  0
  4 31  1  0
  4 32  1  0
  8 33  1  0
  8 34  1  0
  9 35  1  0
  9 36  1  0
 10 37  1  0
 10 38  1  0
 11 39  1  1
 13 40  1  0
 14 41  1  0
 19 42  1  0
 21 43  1  0
 22 44  1  0
 24 45  1  0
 25 46  1  0
 26 47  1  0
 27 48  1  0
M  END
>  <smiles>  (5) 
O=C(NCC(=O)N1CCC[C@H]1c1ccc(Cl)c(Cl)c1)c1ccc2ccccc2n1

>  <score_type>  (5) 
oracle

>  <origin>  (5) 
autodockgpu

>  <m_score__min__energy>  (5) 
-9.4299999999999997

>  <m_primary>  (5) 
energy

>  <rmsd>  (5) 
8.29265534340548

>  <m_score__min__rmsd>  (5) 
8.29265534340548

>  <meeko>  (5) 
{"free_energy": -8.83, "intermolecular_energy": -10.32, "internal_energy": -1.45, "cluster_size": 20, "cluster_id": 2, "rank_in_cluster": 12}

>  <energy>  (5) 
-9.03

>  <cluster_rmsd>  (5) 
0.64

>  <cluster>  (5) 
1

$$$$

     RDKit          3D

 48 51  0  0  0  0  0  0  0  0999 V2000
  140.8640   71.8960  221.8870 O   0  0  0  0  0  0  0  0  0  0  0  0
  139.9160   71.8410  222.7150 C   0  0  0  0  0  0  0  0  0  0  0  0
  138.8320   72.7570  222.5270 N   0  0  0  0  0  0  0  0  0  0  0  0
  138.9180   73.6590  221.4160 C   0  0  0  0  0  0  0  0  0  0  0  0
  139.8820   74.7550  221.6380 C   0  0  0  0  0  0  0  0  0  0  0  0
  141.0750   74.5840  221.9970 O   0  0  0  0  0  0  0  0  0  0  0  0
  139.4420   76.0940  221.4340 N   0  0  0  0  0  0  0  0  0  0  0  0
  138.3140   76.6950  222.1240 C   0  0  0  0  0  0  0  0  0  0  0  0
  137.7070   77.5410  221.0230 C   0  0  0  0  0  0  0  0  0  0  0  0
  138.7070   77.5690  219.8950 C   0  0  0  0  0  0  0  0  0  0  0  0
  139.9890   77.1040  220.5400 C   0  0  1  0  0  0  0  0  0  0  0  0
  140.6120   78.1260  221.4090 C   0  0  0  0  0  0  0  0  0  0  0  0
  141.1350   77.7380  222.6200 C   0  0  0  0  0  0  0  0  0  0  0  0
  141.7400   78.6470  223.4950 C   0  0  0  0  0  0  0  0  0  0  0  0
  141.8230   79.9820  223.1460 C   0  0  0  0  0  0  0  0  0  0  0  0
  142.5700   81.1600  224.2060 Cl  0  0  0  0  0  0  0  0  0  0  0  0
  141.3030   80.3840  221.9360 C   0  0  0  0  0  0  0  0  0  0  0  0
  141.4030   82.0850  221.4830 Cl  0  0  0  0  0  0  0  0  0  0  0  0
  140.7030   79.4620  221.0780 C   0  0  0  0  0  0  0  0  0  0  0  0
  139.8900   70.8980  223.8260 C   0  0  0  0  0  0  0  0  0  0  0  0
  139.2330   69.6830  223.6080 C   0  0  0  0  0  0  0  0  0  0  0  0
  139.2250   68.8130  224.6780 C   0  0  0  0  0  0  0  0  0  0  0  0
  139.8160   69.0930  225.8910 C   0  0  0  0  0  0  0  0  0  0  0  0
  139.8200   68.2470  226.9630 C   0  0  0  0  0  0  0  0  0  0  0  0
  140.4190   68.5490  228.1690 C   0  0  0  0  0  0  0  0  0  0  0  0
  141.0600   69.7790  228.3260 C   0  0  0  0  0  0  0  0  0  0  0  0
  141.0520   70.6290  227.2390 C   0  0  0  0  0  0  0  0  0  0  0  0
  140.4490   70.3130  226.0390 C   0  0  0  0  0  0  0  0  0  0  0  0
  140.4640   71.1670  225.0080 N   0  0  0  0  0  0  0  0  0  0  0  0
  138.0100   72.7750  223.1700 H   0  0  0  0  0  0  0  0  0  0  0  0
  139.2304   73.0917  220.5269 H   0  0  0  0  0  0  0  0  0  0  0  0
  137.9256   74.1146  221.2836 H   0  0  0  0  0  0  0  0  0  0  0  0
  137.6072   75.9314  222.4808 H   0  0  0  0  0  0  0  0  0  0  0  0
  138.5882   77.2607  223.0267 H   0  0  0  0  0  0  0  0  0  0  0  0
  136.7616   77.0952  220.6802 H   0  0  0  0  0  0  0  0  0  0  0  0
  137.4872   78.5575  221.3814 H   0  0  0  0  0  0  0  0  0  0  0  0
  138.4051   76.8870  219.0865 H   0  0  0  0  0  0  0  0  0  0  0  0
  138.7992   78.5628  219.4325 H   0  0  0  0  0  0  0  0  0  0  0  0
  140.7535   76.8139  219.8042 H   0  0  0  0  0  0  0  0  0  0  0  0
  141.0759   76.6787  222.9104 H   0  0  0  0  0  0  0  0  0  0  0  0
  142.1477   78.3008  224.4562 H   0  0  0  0  0  0  0  0  0  0  0  0
  140.2938   79.8077  220.1172 H   0  0  0  0  0  0  0  0  0  0  0  0
  138.7550   69.4378  222.6481 H   0  0  0  0  0  0  0  0  0  0  0  0
  138.7197   67.8435  224.5567 H   0  0  0  0  0  0  0  0  0  0  0  0
  139.3192   67.2731  226.8597 H   0  0  0  0  0  0  0  0  0  0  0  0
  140.3916   67.8273  228.9987 H   0  0  0  0  0  0  0  0  0  0  0  0
  141.5484   70.0575  229.2715 H   0  0  0  0  0  0  0  0  0  0  0  0
  141.5502   71.6051  227.3338 H   0  0  0  0  0  0  0  0  0  0  0  0
  1  2  2  0
  2  3  1  0
  3  4  1  0
  4  5  1  0
  5  6  2  0
  5  7  1  0
  7  8  1  0
  8  9  1  0
  9 10  1  0
 10 11  1  0
 11 12  1  0
 12 13  2  0
 13 14  1  0
 14 15  2  0
 15 16  1  0
 15 17  1  0
 17 18  1  0
 17 19  2  0
  2 20  1  0
 20 21  2  0
 21 22  1  0
 22 23  2  0
 23 24  1  0
 24 25  2  0
 25 26  1  0
 26 27  2  0
 27 28  1  0
 28 29  2  0
 11  7  1  0
 19 12  1  0
 29 20  1  0
 28 23  1  0
  3 30  1  0
  4 31  1  0
  4 32  1  0
  8 33  1  0
  8 34  1  0
  9 35  1  0
  9 36  1  0
 10 37  1  0
 10 38  1  0
 11 39  1  6
 13 40  1  0
 14 41  1  0
 19 42  1  0
 21 43  1  0
 22 44  1  0
 24 45  1  0
 25 46  1  0
 26 47  1  0
 27 48  1  0
M  END
>  <smiles>  (6) 
O=C(NCC(=O)N1CCC[C@H]1c1ccc(Cl)c(Cl)c1)c1ccc2ccccc2n1

>  <score_type>  (6) 
oracle

>  <origin>  (6) 
autodockgpu

>  <m_score__min__energy>  (6) 
-9.4299999999999997

>  <m_primary>  (6) 
energy

>  <rmsd>  (6) 
2.1219435949128735

>  <m_score__min__rmsd>  (6) 
2.1219435949128735

>  <meeko>  (6) 
{"free_energy": -9.36, "intermolecular_energy": -10.85, "internal_energy": -1.13, "cluster_size": 16, "cluster_id": 1, "rank_in_cluster": 2}

>  <energy>  (6) 
-8.75

>  <cluster_rmsd>  (6) 
0.79

>  <cluster>  (6) 
1

$$$$

     RDKit          3D

 48 51  0  0  0  0  0  0  0  0999 V2000
  137.4590   75.9470  222.4360 O   0  0  0  0  0  0  0  0  0  0  0  0
  138.6980   76.1760  222.4440 C   0  0  0  0  0  0  0  0  0  0  0  0
  139.5680   75.0710  222.1760 N   0  0  0  0  0  0  0  0  0  0  0  0
  138.9560   73.7990  221.9220 C   0  0  0  0  0  0  0  0  0  0  0  0
  139.9050   72.6730  222.0290 C   0  0  0  0  0  0  0  0  0  0  0  0
  141.1410   72.7680  221.8150 O   0  0  0  0  0  0  0  0  0  0  0  0
  139.3980   71.3940  222.3990 N   0  0  0  0  0  0  0  0  0  0  0  0
  139.9570   70.1330  221.9420 C   0  0  0  0  0  0  0  0  0  0  0  0
  138.7030   69.3040  221.7500 C   0  0  0  0  0  0  0  0  0  0  0  0
  137.5730   70.0710  222.3880 C   0  0  0  0  0  0  0  0  0  0  0  0
  138.2730   71.0780  223.2660 C   0  0  1  0  0  0  0  0  0  0  0  0
  138.8520   70.4860  224.4910 C   0  0  0  0  0  0  0  0  0  0  0  0
  138.6210   69.1570  224.7580 C   0  0  0  0  0  0  0  0  0  0  0  0
  139.1370   68.5270  225.8970 C   0  0  0  0  0  0  0  0  0  0  0  0
  139.9020   69.2490  226.7920 C   0  0  0  0  0  0  0  0  0  0  0  0
  140.5700   68.5070  228.2320 Cl  0  0  0  0  0  0  0  0  0  0  0  0
  140.1410   70.5810  226.5360 C   0  0  0  0  0  0  0  0  0  0  0  0
  141.1170   71.5100  227.6730 Cl  0  0  0  0  0  0  0  0  0  0  0  0
  139.6180   71.1910  225.3950 C   0  0  0  0  0  0  0  0  0  0  0  0
  139.2570   77.4950  222.7100 C   0  0  0  0  0  0  0  0  0  0  0  0
  138.3470   78.5420  222.8870 C   0  0  0  0  0  0  0  0  0  0  0  0
  138.9060   79.7790  223.1370 C   0  0  0  0  0  0  0  0  0  0  0  0
  140.2640   79.9970  223.2130 C   0  0  0  0  0  0  0  0  0  0  0  0
  140.8400   81.2110  223.4590 C   0  0  0  0  0  0  0  0  0  0  0  0
  142.2040   81.4060  223.5310 C   0  0  0  0  0  0  0  0  0  0  0  0
  143.0620   80.3220  223.3450 C   0  0  0  0  0  0  0  0  0  0  0  0
  142.4740   79.0990  223.0970 C   0  0  0  0  0  0  0  0  0  0  0  0
  141.1090   78.9180  223.0280 C   0  0  0  0  0  0  0  0  0  0  0  0
  140.5780   77.7130  222.7850 N   0  0  0  0  0  0  0  0  0  0  0  0
  140.6050   75.1790  222.1650 H   0  0  0  0  0  0  0  0  0  0  0  0
  138.1471   73.6468  222.6517 H   0  0  0  0  0  0  0  0  0  0  0  0
  138.5780   73.8150  220.8891 H   0  0  0  0  0  0  0  0  0  0  0  0
  140.5073   70.2553  220.9974 H   0  0  0  0  0  0  0  0  0  0  0  0
  140.6893   69.6886  222.6321 H   0  0  0  0  0  0  0  0  0  0  0  0
  138.5049   69.1595  220.6777 H   0  0  0  0  0  0  0  0  0  0  0  0
  138.8130   68.3095  222.2071 H   0  0  0  0  0  0  0  0  0  0  0  0
  136.9611   70.5745  221.6250 H   0  0  0  0  0  0  0  0  0  0  0  0
  136.8829   69.4239  222.9493 H   0  0  0  0  0  0  0  0  0  0  0  0
  137.6065   71.8874  223.5985 H   0  0  0  0  0  0  0  0  0  0  0  0
  138.0117   68.5704  224.0547 H   0  0  0  0  0  0  0  0  0  0  0  0
  138.9339   67.4612  226.0783 H   0  0  0  0  0  0  0  0  0  0  0  0
  139.8211   72.2567  225.2130 H   0  0  0  0  0  0  0  0  0  0  0  0
  137.2590   78.3900  222.8308 H   0  0  0  0  0  0  0  0  0  0  0  0
  138.2317   80.6357  223.2832 H   0  0  0  0  0  0  0  0  0  0  0  0
  140.1813   82.0793  223.6076 H   0  0  0  0  0  0  0  0  0  0  0  0
  142.6113   82.4076  223.7333 H   0  0  0  0  0  0  0  0  0  0  0  0
  144.1549   80.4369  223.3937 H   0  0  0  0  0  0  0  0  0  0  0  0
  143.1259   78.2258  222.9470 H   0  0  0  0  0  0  0  0  0  0  0  0
  1  2  2  0
  2  3  1  0
  3  4  1  0
  4  5  1  0
  5  6  2  0
  5  7  1  0
  7  8  1  0
  8  9  1  0
  9 10  1  0
 10 11  1  0
 11 12  1  0
 12 13  2  0
 13 14  1  0
 14 15  2  0
 15 16  1  0
 15 17  1  0
 17 18  1  0
 17 19  2  0
  2 20  1  0
 20 21  2  0
 21 22  1  0
 22 23  2  0
 23 24  1  0
 24 25  2  0
 25 26  1  0
 26 27  2  0
 27 28  1  0
 28 29  2  0
 11  7  1  0
 19 12  1  0
 29 20  1  0
 28 23  1  0
  3 30  1  0
  4 31  1  0
  4 32  1  0
  8 33  1  0
  8 34  1  0
  9 35  1  0
  9 36  1  0
 10 37  1  0
 10 38  1  0
 11 39  1  1
 13 40  1  0
 14 41  1  0
 19 42  1  0
 21 43  1  0
 22 44  1  0
 24 45  1  0
 25 46  1  0
 26 47  1  0
 27 48  1  0
M  END
>  <smiles>  (7) 
O=C(NCC(=O)N1CCC[C@H]1c1ccc(Cl)c(Cl)c1)c1ccc2ccccc2n1

>  <score_type>  (7) 
oracle

>  <origin>  (7) 
autodockgpu

>  <m_score__min__energy>  (7) 
-9.4299999999999997

>  <m_primary>  (7) 
energy

>  <rmsd>  (7) 
8.3167519367385

>  <m_score__min__rmsd>  (7) 
8.3167519367385

>  <meeko>  (7) 
{"free_energy": -8.75, "intermolecular_energy": -10.25, "internal_energy": -1.57, "cluster_size": 20, "cluster_id": 2, "rank_in_cluster": 16}

>  <energy>  (7) 
-8.65

>  <cluster_rmsd>  (7) 
1.75

>  <cluster>  (7) 
1

$$$$

     RDKit          3D

 48 51  0  0  0  0  0  0  0  0999 V2000
  141.7120   73.8080  220.3640 O   0  0  0  0  0  0  0  0  0  0  0  0
  141.0520   74.5410  221.1470 C   0  0  0  0  0  0  0  0  0  0  0  0
  140.0670   73.9000  221.9660 N   0  0  0  0  0  0  0  0  0  0  0  0
  139.9180   72.4810  221.8250 C   0  0  0  0  0  0  0  0  0  0  0  0
  138.7060   71.9620  222.4910 C   0  0  0  0  0  0  0  0  0  0  0  0
  137.6780   72.6490  222.7240 O   0  0  0  0  0  0  0  0  0  0  0  0
  138.6900   70.5970  222.8990 N   0  0  0  0  0  0  0  0  0  0  0  0
  139.6010   69.5850  222.3910 C   0  0  0  0  0  0  0  0  0  0  0  0
  138.6870   68.3790  222.3030 C   0  0  0  0  0  0  0  0  0  0  0  0
  137.4210   68.7390  223.0380 C   0  0  0  0  0  0  0  0  0  0  0  0
  137.8100   69.9440  223.8560 C   0  0  1  0  0  0  0  0  0  0  0  0
  138.6530   69.6110  225.0260 C   0  0  0  0  0  0  0  0  0  0  0  0
  138.7260   68.3020  225.4390 C   0  0  0  0  0  0  0  0  0  0  0  0
  139.5020   67.9100  226.5360 C   0  0  0  0  0  0  0  0  0  0  0  0
  140.2220   68.8570  227.2380 C   0  0  0  0  0  0  0  0  0  0  0  0
  141.2070   68.4190  228.6200 Cl  0  0  0  0  0  0  0  0  0  0  0  0
  140.1560   70.1720  226.8350 C   0  0  0  0  0  0  0  0  0  0  0  0
  141.0720   71.3880  227.7260 Cl  0  0  0  0  0  0  0  0  0  0  0  0
  139.3780   70.5430  225.7390 C   0  0  0  0  0  0  0  0  0  0  0  0
  141.2530   75.9810  221.2420 C   0  0  0  0  0  0  0  0  0  0  0  0
  141.6630   76.6390  220.0790 C   0  0  0  0  0  0  0  0  0  0  0  0
  141.8460   78.0010  220.2000 C   0  0  0  0  0  0  0  0  0  0  0  0
  141.6460   78.6930  221.3750 C   0  0  0  0  0  0  0  0  0  0  0  0
  141.8200   80.0400  221.5180 C   0  0  0  0  0  0  0  0  0  0  0  0
  141.6140   80.7120  222.7060 C   0  0  0  0  0  0  0  0  0  0  0  0
  141.2050   80.0000  223.8340 C   0  0  0  0  0  0  0  0  0  0  0  0
  141.0300   78.6400  223.6820 C   0  0  0  0  0  0  0  0  0  0  0  0
  141.2400   77.9810  222.4890 C   0  0  0  0  0  0  0  0  0  0  0  0
  141.0600   76.6590  222.3830 N   0  0  0  0  0  0  0  0  0  0  0  0
  139.4800   74.4370  222.6400 H   0  0  0  0  0  0  0  0  0  0  0  0
  139.8609   72.2387  220.7535 H   0  0  0  0  0  0  0  0  0  0  0  0
  140.7872   72.0081  222.3055 H   0  0  0  0  0  0  0  0  0  0  0  0
  139.9994   69.8611  221.4036 H   0  0  0  0  0  0  0  0  0  0  0  0
  140.4936   69.4289  223.0146 H   0  0  0  0  0  0  0  0  0  0  0  0
  138.4622   68.1499  221.2509 H   0  0  0  0  0  0  0  0  0  0  0  0
  139.1615   67.4904  222.7449 H   0  0  0  0  0  0  0  0  0  0  0  0
  136.6153   68.9883  222.3318 H   0  0  0  0  0  0  0  0  0  0  0  0
  137.0374   67.9125  223.6542 H   0  0  0  0  0  0  0  0  0  0  0  0
  136.9389   70.4911  224.2456 H   0  0  0  0  0  0  0  0  0  0  0  0
  138.1563   67.5380  224.8898 H   0  0  0  0  0  0  0  0  0  0  0  0
  139.5383   66.8528  226.8376 H   0  0  0  0  0  0  0  0  0  0  0  0
  139.3417   71.6001  225.4369 H   0  0  0  0  0  0  0  0  0  0  0  0
  141.8286   76.1065  219.1308 H   0  0  0  0  0  0  0  0  0  0  0  0
  142.1685   78.5643  219.3119 H   0  0  0  0  0  0  0  0  0  0  0  0
  142.1413   80.6200  220.6403 H   0  0  0  0  0  0  0  0  0  0  0  0
  141.7709   81.7993  222.7629 H   0  0  0  0  0  0  0  0  0  0  0  0
  141.0304   80.4992  224.7985 H   0  0  0  0  0  0  0  0  0  0  0  0
  140.7074   78.0530  224.5545 H   0  0  0  0  0  0  0  0  0  0  0  0
  1  2  2  0
  2  3  1  0
  3  4  1  0
  4  5  1  0
  5  6  2  0
  5  7  1  0
  7  8  1  0
  8  9  1  0
  9 10  1  0
 10 11  1  0
 11 12  1  0
 12 13  2  0
 13 14  1  0
 14 15  2  0
 15 16  1  0
 15 17  1  0
 17 18  1  0
 17 19  2  0
  2 20  1  0
 20 21  2  0
 21 22  1  0
 22 23  2  0
 23 24  1  0
 24 25  2  0
 25 26  1  0
 26 27  2  0
 27 28  1  0
 28 29  2  0
 11  7  1  0
 19 12  1  0
 29 20  1  0
 28 23  1  0
  3 30  1  0
  4 31  1  0
  4 32  1  0
  8 33  1  0
  8 34  1  0
  9 35  1  0
  9 36  1  0
 10 37  1  0
 10 38  1  0
 11 39  1  1
 13 40  1  0
 14 41  1  0
 19 42  1  0
 21 43  1  0
 22 44  1  0
 24 45  1  0
 25 46  1  0
 26 47  1  0
 27 48  1  0
M  END
>  <smiles>  (8) 
O=C(NCC(=O)N1CCC[C@H]1c1ccc(Cl)c(Cl)c1)c1ccc2ccccc2n1

>  <score_type>  (8) 
oracle

>  <origin>  (8) 
autodockgpu

>  <m_score__min__energy>  (8) 
-9.4299999999999997

>  <m_primary>  (8) 
energy

>  <rmsd>  (8) 
8.349482094452869

>  <m_score__min__rmsd>  (8) 
8.349482094452869

>  <meeko>  (8) 
{"free_energy": -8.56, "intermolecular_energy": -10.05, "internal_energy": -1.53, "cluster_size": 20, "cluster_id": 2, "rank_in_cluster": 20}

>  <energy>  (8) 
-8.63

>  <cluster_rmsd>  (8) 
1.74

>  <cluster>  (8) 
1

$$$$

     RDKit          3D

 48 51  0  0  0  0  0  0  0  0999 V2000
  140.0430   71.3190  221.2260 O   0  0  0  0  0  0  0  0  0  0  0  0
  139.6220   71.8190  222.3030 C   0  0  0  0  0  0  0  0  0  0  0  0
  138.8870   73.0440  222.2100 N   0  0  0  0  0  0  0  0  0  0  0  0
  138.6940   73.5970  220.9010 C   0  0  0  0  0  0  0  0  0  0  0  0
  138.6590   75.0730  220.9000 C   0  0  0  0  0  0  0  0  0  0  0  0
  137.6080   75.7550  220.7930 O   0  0  0  0  0  0  0  0  0  0  0  0
  139.8900   75.7790  221.0310 N   0  0  0  0  0  0  0  0  0  0  0  0
  140.4610   76.1910  222.3020 C   0  0  0  0  0  0  0  0  0  0  0  0
  141.0450   77.5430  221.9420 C   0  0  0  0  0  0  0  0  0  0  0  0
  141.0060   77.6460  220.4380 C   0  0  0  0  0  0  0  0  0  0  0  0
  140.7990   76.2220  219.9850 C   0  0  1  0  0  0  0  0  0  0  0  0
  142.0110   75.3840  220.1140 C   0  0  0  0  0  0  0  0  0  0  0  0
  143.2450   75.9770  219.9820 C   0  0  0  0  0  0  0  0  0  0  0  0
  144.4360   75.2500  220.0910 C   0  0  0  0  0  0  0  0  0  0  0  0
  144.3880   73.8920  220.3380 C   0  0  0  0  0  0  0  0  0  0  0  0
  145.8500   72.9360  220.4830 Cl  0  0  0  0  0  0  0  0  0  0  0  0
  143.1590   73.2850  220.4720 C   0  0  0  0  0  0  0  0  0  0  0  0
  143.0890   71.5520  220.7870 Cl  0  0  0  0  0  0  0  0  0  0  0  0
  141.9830   74.0270  220.3600 C   0  0  0  0  0  0  0  0  0  0  0  0
  139.8540   71.2050  223.6040 C   0  0  0  0  0  0  0  0  0  0  0  0
  139.5100   69.8560  223.7360 C   0  0  0  0  0  0  0  0  0  0  0  0
  139.7400   69.3040  224.9790 C   0  0  0  0  0  0  0  0  0  0  0  0
  140.2730   70.0080  226.0370 C   0  0  0  0  0  0  0  0  0  0  0  0
  140.5100   69.4820  227.2740 C   0  0  0  0  0  0  0  0  0  0  0  0
  141.0440   70.2070  228.3200 C   0  0  0  0  0  0  0  0  0  0  0  0
  141.3680   71.5510  228.1270 C   0  0  0  0  0  0  0  0  0  0  0  0
  141.1260   72.0750  226.8740 C   0  0  0  0  0  0  0  0  0  0  0  0
  140.5910   71.3390  225.8380 C   0  0  0  0  0  0  0  0  0  0  0  0
  140.3720   71.8860  224.6370 N   0  0  0  0  0  0  0  0  0  0  0  0
  138.5060   73.5220  223.0550 H   0  0  0  0  0  0  0  0  0  0  0  0
  139.5198   73.2651  220.2546 H   0  0  0  0  0  0  0  0  0  0  0  0
  137.7192   73.2436  220.5339 H   0  0  0  0  0  0  0  0  0  0  0  0
  139.6887   76.2804  223.0802 H   0  0  0  0  0  0  0  0  0  0  0  0
  141.1913   75.4816  222.7184 H   0  0  0  0  0  0  0  0  0  0  0  0
  140.4449   78.3472  222.3926 H   0  0  0  0  0  0  0  0  0  0  0  0
  142.0737   77.6423  222.3186 H   0  0  0  0  0  0  0  0  0  0  0  0
  140.1737   78.2863  220.1105 H   0  0  0  0  0  0  0  0  0  0  0  0
  141.9172   78.0976  220.0188 H   0  0  0  0  0  0  0  0  0  0  0  0
  140.4836   76.1527  218.9335 H   0  0  0  0  0  0  0  0  0  0  0  0
  143.2975   77.0578  219.7843 H   0  0  0  0  0  0  0  0  0  0  0  0
  145.4055   75.7577  219.9805 H   0  0  0  0  0  0  0  0  0  0  0  0
  141.0133   73.5195  220.4701 H   0  0  0  0  0  0  0  0  0  0  0  0
  139.0847   69.2744  222.9048 H   0  0  0  0  0  0  0  0  0  0  0  0
  139.4844   68.2454  225.1340 H   0  0  0  0  0  0  0  0  0  0  0  0
  140.2623   68.4242  227.4464 H   0  0  0  0  0  0  0  0  0  0  0  0
  141.2128   69.7301  229.2968 H   0  0  0  0  0  0  0  0  0  0  0  0
  141.7956   72.1628  228.9350 H   0  0  0  0  0  0  0  0  0  0  0  0
  141.3719   73.1317  226.6925 H   0  0  0  0  0  0  0  0  0  0  0  0
  1  2  2  0
  2  3  1  0
  3  4  1  0
  4  5  1  0
  5  6  2  0
  5  7  1  0
  7  8  1  0
  8  9  1  0
  9 10  1  0
 10 11  1  0
 11 12  1  0
 12 13  2  0
 13 14  1  0
 14 15  2  0
 15 16  1  0
 15 17  1  0
 17 18  1  0
 17 19  2  0
  2 20  1  0
 20 21  2  0
 21 22  1  0
 22 23  2  0
 23 24  1  0
 24 25  2  0
 25 26  1  0
 26 27  2  0
 27 28  1  0
 28 29  2  0
 11  7  1  0
 19 12  1  0
 29 20  1  0
 28 23  1  0
  3 30  1  0
  4 31  1  0
  4 32  1  0
  8 33  1  0
  8 34  1  0
  9 35  1  0
  9 36  1  0
 10 37  1  0
 10 38  1  0
 11 39  1  6
 13 40  1  0
 14 41  1  0
 19 42  1  0
 21 43  1  0
 22 44  1  0
 24 45  1  0
 25 46  1  0
 26 47  1  0
 27 48  1  0
M  END
>  <smiles>  (9) 
O=C(NCC(=O)N1CCC[C@H]1c1ccc(Cl)c(Cl)c1)c1ccc2ccccc2n1

>  <score_type>  (9) 
oracle

>  <origin>  (9) 
autodockgpu

>  <m_score__min__energy>  (9) 
-9.4299999999999997

>  <m_primary>  (9) 
energy

>  <rmsd>  (9) 
2.2956791808373107

>  <m_score__min__rmsd>  (9) 
2.2956791808373107

>  <meeko>  (9) 
{"free_energy": -8.6, "intermolecular_energy": -10.1, "internal_energy": -1.88, "cluster_size": 14, "cluster_id": 3, "rank_in_cluster": 6}

>  <energy>  (9) 
-8.62

>  <cluster_rmsd>  (9) 
1.88

>  <cluster>  (9) 
1

$$$$

     RDKit          3D

 48 51  0  0  0  0  0  0  0  0999 V2000
  139.5730   71.2110  221.2650 O   0  0  0  0  0  0  0  0  0  0  0  0
  139.5450   71.8550  222.3470 C   0  0  0  0  0  0  0  0  0  0  0  0
  139.2760   73.2590  222.2650 N   0  0  0  0  0  0  0  0  0  0  0  0
  139.0610   73.8120  220.9600 C   0  0  0  0  0  0  0  0  0  0  0  0
  140.3140   73.9960  220.2000 C   0  0  0  0  0  0  0  0  0  0  0  0
  140.9710   73.0580  219.6810 O   0  0  0  0  0  0  0  0  0  0  0  0
  140.8180   75.3190  220.0400 N   0  0  0  0  0  0  0  0  0  0  0  0
  140.3830   76.2360  218.9990 C   0  0  0  0  0  0  0  0  0  0  0  0
  141.6860   76.9250  218.6450 C   0  0  0  0  0  0  0  0  0  0  0  0
  142.6820   76.5440  219.7120 C   0  0  0  0  0  0  0  0  0  0  0  0
  141.8240   76.0110  220.8310 C   0  0  1  0  0  0  0  0  0  0  0  0
  141.1050   77.0690  221.5730 C   0  0  0  0  0  0  0  0  0  0  0  0
  139.8320   76.8130  222.0280 C   0  0  0  0  0  0  0  0  0  0  0  0
  139.0900   77.7640  222.7370 C   0  0  0  0  0  0  0  0  0  0  0  0
  139.6370   79.0050  222.9970 C   0  0  0  0  0  0  0  0  0  0  0  0
  138.7490   80.2310  223.8800 Cl  0  0  0  0  0  0  0  0  0  0  0  0
  140.9110   79.2750  222.5470 C   0  0  0  0  0  0  0  0  0  0  0  0
  141.6180   80.8570  222.8730 Cl  0  0  0  0  0  0  0  0  0  0  0  0
  141.6350   78.3140  221.8410 C   0  0  0  0  0  0  0  0  0  0  0  0
  139.7730   71.2310  223.6440 C   0  0  0  0  0  0  0  0  0  0  0  0
  139.3850   69.8940  223.7790 C   0  0  0  0  0  0  0  0  0  0  0  0
  139.6140   69.3320  225.0180 C   0  0  0  0  0  0  0  0  0  0  0  0
  140.1830   70.0160  226.0700 C   0  0  0  0  0  0  0  0  0  0  0  0
  140.4180   69.4800  227.3030 C   0  0  0  0  0  0  0  0  0  0  0  0
  140.9890   70.1840  228.3430 C   0  0  0  0  0  0  0  0  0  0  0  0
  141.3550   71.5170  228.1480 C   0  0  0  0  0  0  0  0  0  0  0  0
  141.1160   72.0520  226.8990 C   0  0  0  0  0  0  0  0  0  0  0  0
  140.5430   71.3360  225.8690 C   0  0  0  0  0  0  0  0  0  0  0  0
  140.3270   71.8930  224.6710 N   0  0  0  0  0  0  0  0  0  0  0  0
  139.2370   73.8610  223.1160 H   0  0  0  0  0  0  0  0  0  0  0  0
  138.4044   73.1338  220.3953 H   0  0  0  0  0  0  0  0  0  0  0  0
  138.6069   74.8050  221.0931 H   0  0  0  0  0  0  0  0  0  0  0  0
  139.9656   75.6965  218.1360 H   0  0  0  0  0  0  0  0  0  0  0  0
  139.5812   76.9219  219.3097 H   0  0  0  0  0  0  0  0  0  0  0  0
  142.0382   76.5865  217.6594 H   0  0  0  0  0  0  0  0  0  0  0  0
  141.5560   78.0162  218.5968 H   0  0  0  0  0  0  0  0  0  0  0  0
  143.3726   75.7704  219.3451 H   0  0  0  0  0  0  0  0  0  0  0  0
  143.3136   77.3883  220.0254 H   0  0  0  0  0  0  0  0  0  0  0  0
  142.4028   75.4466  221.5770 H   0  0  0  0  0  0  0  0  0  0  0  0
  139.3831   75.8289  221.8279 H   0  0  0  0  0  0  0  0  0  0  0  0
  138.0748   77.5240  223.0860 H   0  0  0  0  0  0  0  0  0  0  0  0
  142.6497   78.5541  221.4907 H   0  0  0  0  0  0  0  0  0  0  0  0
  138.9282   69.3289  222.9532 H   0  0  0  0  0  0  0  0  0  0  0  0
  139.3270   68.2817  225.1743 H   0  0  0  0  0  0  0  0  0  0  0  0
  140.1371   68.4308  227.4768 H   0  0  0  0  0  0  0  0  0  0  0  0
  141.1543   69.6996  229.3167 H   0  0  0  0  0  0  0  0  0  0  0  0
  141.8122   72.1125  228.9520 H   0  0  0  0  0  0  0  0  0  0  0  0
  141.3959   73.0999  226.7159 H   0  0  0  0  0  0  0  0  0  0  0  0
  1  2  2  0
  2  3  1  0
  3  4  1  0
  4  5  1  0
  5  6  2  0
  5  7  1  0
  7  8  1  0
  8  9  1  0
  9 10  1  0
 10 11  1  0
 11 12  1  0
 12 13  2  0
 13 14  1  0
 14 15  2  0
 15 16  1  0
 15 17  1  0
 17 18  1  0
 17 19  2  0
  2 20  1  0
 20 21  2  0
 21 22  1  0
 22 23  2  0
 23 24  1  0
 24 25  2  0
 25 26  1  0
 26 27  2  0
 27 28  1  0
 28 29  2  0
 11  7  1  0
 19 12  1  0
 29 20  1  0
 28 23  1  0
  3 30  1  0
  4 31  1  0
  4 32  1  0
  8 33  1  0
  8 34  1  0
  9 35  1  0
  9 36  1  0
 10 37  1  0
 10 38  1  0
 11 39  1  1
 13 40  1  0
 14 41  1  0
 19 42  1  0
 21 43  1  0
 22 44  1  0
 24 45  1  0
 25 46  1  0
 26 47  1  0
 27 48  1  0
M  END
>  <smiles>  (10) 
O=C(NCC(=O)N1CCC[C@H]1c1ccc(Cl)c(Cl)c1)c1ccc2ccccc2n1

>  <score_type>  (10) 
oracle

>  <origin>  (10) 
autodockgpu

>  <m_score__min__energy>  (10) 
-9.4299999999999997

>  <m_primary>  (10) 
energy

>  <rmsd>  (10) 
1.6084169462677678

>  <m_score__min__rmsd>  (10) 
1.6084169462677678

>  <meeko>  (10) 
{"free_energy": -8.65, "intermolecular_energy": -10.14, "internal_energy": -1.43, "cluster_size": 16, "cluster_id": 1, "rank_in_cluster": 7}

>  <energy>  (10) 
-8.61

>  <cluster_rmsd>  (10) 
1.77

>  <cluster>  (10) 
1

$$$$

     RDKit          3D

 48 51  0  0  0  0  0  0  0  0999 V2000
  140.0230   71.2840  221.2310 O   0  0  0  0  0  0  0  0  0  0  0  0
  139.6610   71.8150  222.3140 C   0  0  0  0  0  0  0  0  0  0  0  0
  138.9890   73.0760  222.2290 N   0  0  0  0  0  0  0  0  0  0  0  0
  138.7860   73.6260  220.9200 C   0  0  0  0  0  0  0  0  0  0  0  0
  138.7070   75.1010  220.9230 C   0  0  0  0  0  0  0  0  0  0  0  0
  137.6310   75.7520  220.9190 O   0  0  0  0  0  0  0  0  0  0  0  0
  139.9240   75.8430  220.9330 N   0  0  0  0  0  0  0  0  0  0  0  0
  140.5160   76.4200  222.1280 C   0  0  0  0  0  0  0  0  0  0  0  0
  141.0590   77.7290  221.5880 C   0  0  0  0  0  0  0  0  0  0  0  0
  140.9800   77.6450  220.0850 C   0  0  0  0  0  0  0  0  0  0  0  0
  140.7970   76.1730  219.8160 C   0  0  1  0  0  0  0  0  0  0  0  0
  142.0310   75.3820  220.0130 C   0  0  0  0  0  0  0  0  0  0  0  0
  143.2470   76.0160  219.9120 C   0  0  0  0  0  0  0  0  0  0  0  0
  144.4580   75.3350  220.0850 C   0  0  0  0  0  0  0  0  0  0  0  0
  144.4480   73.9820  220.3680 C   0  0  0  0  0  0  0  0  0  0  0  0
  145.9360   73.0840  220.5940 Cl  0  0  0  0  0  0  0  0  0  0  0  0
  143.2360   73.3360  220.4720 C   0  0  0  0  0  0  0  0  0  0  0  0
  143.2150   71.6100  220.8320 Cl  0  0  0  0  0  0  0  0  0  0  0  0
  142.0410   74.0320  220.2950 C   0  0  0  0  0  0  0  0  0  0  0  0
  139.8980   71.2010  223.6150 C   0  0  0  0  0  0  0  0  0  0  0  0
  139.5860   69.8440  223.7380 C   0  0  0  0  0  0  0  0  0  0  0  0
  139.8220   69.2920  224.9810 C   0  0  0  0  0  0  0  0  0  0  0  0
  140.3280   70.0050  226.0460 C   0  0  0  0  0  0  0  0  0  0  0  0
  140.5680   69.4800  227.2830 C   0  0  0  0  0  0  0  0  0  0  0  0
  141.0760   70.2130  228.3360 C   0  0  0  0  0  0  0  0  0  0  0  0
  141.3680   71.5660  228.1510 C   0  0  0  0  0  0  0  0  0  0  0  0
  141.1230   72.0890  226.8980 C   0  0  0  0  0  0  0  0  0  0  0  0
  140.6140   71.3440  225.8550 C   0  0  0  0  0  0  0  0  0  0  0  0
  140.3910   71.8910  224.6540 N   0  0  0  0  0  0  0  0  0  0  0  0
  138.6580   73.5800  223.0800 H   0  0  0  0  0  0  0  0  0  0  0  0
  139.6245   73.3206  220.2769 H   0  0  0  0  0  0  0  0  0  0  0  0
  137.8242   73.2443  220.5467 H   0  0  0  0  0  0  0  0  0  0  0  0
  139.7611   76.5892  222.9100 H   0  0  0  0  0  0  0  0  0  0  0  0
  141.2726   75.7825  222.6089 H   0  0  0  0  0  0  0  0  0  0  0  0
  140.4517   78.5704  221.9529 H   0  0  0  0  0  0  0  0  0  0  0  0
  142.0943   77.8946  221.9206 H   0  0  0  0  0  0  0  0  0  0  0  0
  140.1243   78.2222  219.7048 H   0  0  0  0  0  0  0  0  0  0  0  0
  141.8692   78.0608  219.5885 H   0  0  0  0  0  0  0  0  0  0  0  0
  140.4583   75.9686  218.7896 H   0  0  0  0  0  0  0  0  0  0  0  0
  143.2690   77.0927  219.6881 H   0  0  0  0  0  0  0  0  0  0  0  0
  145.4128   75.8740  219.9962 H   0  0  0  0  0  0  0  0  0  0  0  0
  141.0860   73.4931  220.3821 H   0  0  0  0  0  0  0  0  0  0  0  0
  139.1802   69.2562  222.9015 H   0  0  0  0  0  0  0  0  0  0  0  0
  139.5940   68.2261  225.1292 H   0  0  0  0  0  0  0  0  0  0  0  0
  140.3445   68.4159  227.4493 H   0  0  0  0  0  0  0  0  0  0  0  0
  141.2493   69.7360  229.3119 H   0  0  0  0  0  0  0  0  0  0  0  0
  141.7737   72.1849  228.9649 H   0  0  0  0  0  0  0  0  0  0  0  0
  141.3445   73.1521  226.7223 H   0  0  0  0  0  0  0  0  0  0  0  0
  1  2  2  0
  2  3  1  0
  3  4  1  0
  4  5  1  0
  5  6  2  0
  5  7  1  0
  7  8  1  0
  8  9  1  0
  9 10  1  0
 10 11  1  0
 11 12  1  0
 12 13  2  0
 13 14  1  0
 14 15  2  0
 15 16  1  0
 15 17  1  0
 17 18  1  0
 17 19  2  0
  2 20  1  0
 20 21  2  0
 21 22  1  0
 22 23  2  0
 23 24  1  0
 24 25  2  0
 25 26  1  0
 26 27  2  0
 27 28  1  0
 28 29  2  0
 11  7  1  0
 19 12  1  0
 29 20  1  0
 28 23  1  0
  3 30  1  0
  4 31  1  0
  4 32  1  0
  8 33  1  0
  8 34  1  0
  9 35  1  0
  9 36  1  0
 10 37  1  0
 10 38  1  0
 11 39  1  6
 13 40  1  0
 14 41  1  0
 19 42  1  0
 21 43  1  0
 22 44  1  0
 24 45  1  0
 25 46  1  0
 26 47  1  0
 27 48  1  0
M  END
>  <smiles>  (11) 
O=C(NCC(=O)N1CCC[C@H]1c1ccc(Cl)c(Cl)c1)c1ccc2ccccc2n1

>  <score_type>  (11) 
oracle

>  <origin>  (11) 
autodockgpu

>  <m_score__min__energy>  (11) 
-9.4299999999999997

>  <m_primary>  (11) 
energy

>  <rmsd>  (11) 
2.2382053312056938

>  <m_score__min__rmsd>  (11) 
2.2382053312056938

>  <meeko>  (11) 
{"free_energy": -8.63, "intermolecular_energy": -10.12, "internal_energy": -1.86, "cluster_size": 14, "cluster_id": 3, "rank_in_cluster": 5}

>  <energy>  (11) 
-8.59

>  <cluster_rmsd>  (11) 
1.78

>  <cluster>  (11) 
1

$$$$

     RDKit          3D

 48 51  0  0  0  0  0  0  0  0999 V2000
  137.5080   75.9380  222.5120 O   0  0  0  0  0  0  0  0  0  0  0  0
  138.7390   76.1950  222.4390 C   0  0  0  0  0  0  0  0  0  0  0  0
  139.6110   75.1170  222.0810 N   0  0  0  0  0  0  0  0  0  0  0  0
  139.0100   73.8380  221.8380 C   0  0  0  0  0  0  0  0  0  0  0  0
  139.9480   72.7150  222.0360 C   0  0  0  0  0  0  0  0  0  0  0  0
  141.1950   72.8040  221.9000 O   0  0  0  0  0  0  0  0  0  0  0  0
  139.4160   71.4470  222.4080 N   0  0  0  0  0  0  0  0  0  0  0  0
  139.9500   70.1740  221.9530 C   0  0  0  0  0  0  0  0  0  0  0  0
  138.6810   69.3690  221.7610 C   0  0  0  0  0  0  0  0  0  0  0  0
  137.5650   70.1590  222.3970 C   0  0  0  0  0  0  0  0  0  0  0  0
  138.2840   71.1540  223.2740 C   0  0  1  0  0  0  0  0  0  0  0  0
  138.8510   70.5530  224.5010 C   0  0  0  0  0  0  0  0  0  0  0  0
  138.6200   69.2210  224.7540 C   0  0  0  0  0  0  0  0  0  0  0  0
  139.1240   68.5820  225.8920 C   0  0  0  0  0  0  0  0  0  0  0  0
  139.8770   69.2980  226.8020 C   0  0  0  0  0  0  0  0  0  0  0  0
  140.5300   68.5450  228.2440 Cl  0  0  0  0  0  0  0  0  0  0  0  0
  140.1150   70.6330  226.5610 C   0  0  0  0  0  0  0  0  0  0  0  0
  141.0750   71.5550  227.7180 Cl  0  0  0  0  0  0  0  0  0  0  0  0
  139.6040   71.2520  225.4200 C   0  0  0  0  0  0  0  0  0  0  0  0
  139.2870   77.5200  222.6990 C   0  0  0  0  0  0  0  0  0  0  0  0
  138.3680   78.5580  222.8850 C   0  0  0  0  0  0  0  0  0  0  0  0
  138.9180   79.8000  223.1290 C   0  0  0  0  0  0  0  0  0  0  0  0
  140.2740   80.0320  223.1920 C   0  0  0  0  0  0  0  0  0  0  0  0
  140.8390   81.2510  223.4320 C   0  0  0  0  0  0  0  0  0  0  0  0
  142.2020   81.4610  223.4910 C   0  0  0  0  0  0  0  0  0  0  0  0
  143.0690   80.3850  223.2970 C   0  0  0  0  0  0  0  0  0  0  0  0
  142.4910   79.1560  223.0550 C   0  0  0  0  0  0  0  0  0  0  0  0
  141.1270   78.9610  222.9990 C   0  0  0  0  0  0  0  0  0  0  0  0
  140.6070   77.7510  222.7610 N   0  0  0  0  0  0  0  0  0  0  0  0
  140.6420   75.2490  222.0000 H   0  0  0  0  0  0  0  0  0  0  0  0
  138.1617   73.7123  222.5269 H   0  0  0  0  0  0  0  0  0  0  0  0
  138.6895   73.8186  220.7859 H   0  0  0  0  0  0  0  0  0  0  0  0
  140.5033   70.2842  221.0087 H   0  0  0  0  0  0  0  0  0  0  0  0
  140.6725   69.7164  222.6448 H   0  0  0  0  0  0  0  0  0  0  0  0
  138.4812   69.2267  220.6887 H   0  0  0  0  0  0  0  0  0  0  0  0
  138.7715   68.3732  222.2195 H   0  0  0  0  0  0  0  0  0  0  0  0
  136.9635   70.6729  221.6327 H   0  0  0  0  0  0  0  0  0  0  0  0
  136.8620   69.5263  222.9588 H   0  0  0  0  0  0  0  0  0  0  0  0
  137.6325   71.9765  223.6042 H   0  0  0  0  0  0  0  0  0  0  0  0
  138.0198   68.6395  224.0387 H   0  0  0  0  0  0  0  0  0  0  0  0
  138.9215   67.5141  226.0613 H   0  0  0  0  0  0  0  0  0  0  0  0
  139.8061   72.3198  225.2502 H   0  0  0  0  0  0  0  0  0  0  0  0
  137.2810   78.3954  222.8398 H   0  0  0  0  0  0  0  0  0  0  0  0
  138.2368   80.6502  223.2813 H   0  0  0  0  0  0  0  0  0  0  0  0
  140.1725   82.1123  223.5867 H   0  0  0  0  0  0  0  0  0  0  0  0
  142.6008   82.4668  223.6890 H   0  0  0  0  0  0  0  0  0  0  0  0
  144.1611   80.5107  223.3352 H   0  0  0  0  0  0  0  0  0  0  0  0
  143.1503   78.2894  222.8991 H   0  0  0  0  0  0  0  0  0  0  0  0
  1  2  2  0
  2  3  1  0
  3  4  1  0
  4  5  1  0
  5  6  2  0
  5  7  1  0
  7  8  1  0
  8  9  1  0
  9 10  1  0
 10 11  1  0
 11 12  1  0
 12 13  2  0
 13 14  1  0
 14 15  2  0
 15 16  1  0
 15 17  1  0
 17 18  1  0
 17 19  2  0
  2 20  1  0
 20 21  2  0
 21 22  1  0
 22 23  2  0
 23 24  1  0
 24 25  2  0
 25 26  1  0
 26 27  2  0
 27 28  1  0
 28 29  2  0
 11  7  1  0
 19 12  1  0
 29 20  1  0
 28 23  1  0
  3 30  1  0
  4 31  1  0
  4 32  1  0
  8 33  1  0
  8 34  1  0
  9 35  1  0
  9 36  1  0
 10 37  1  0
 10 38  1  0
 11 39  1  1
 13 40  1  0
 14 41  1  0
 19 42  1  0
 21 43  1  0
 22 44  1  0
 24 45  1  0
 25 46  1  0
 26 47  1  0
 27 48  1  0
M  END
>  <smiles>  (12) 
O=C(NCC(=O)N1CCC[C@H]1c1ccc(Cl)c(Cl)c1)c1ccc2ccccc2n1

>  <score_type>  (12) 
oracle

>  <origin>  (12) 
autodockgpu

>  <m_score__min__energy>  (12) 
-9.4299999999999997

>  <m_primary>  (12) 
energy

>  <rmsd>  (12) 
8.326351532537618

>  <m_score__min__rmsd>  (12) 
8.326351532537618

>  <meeko>  (12) 
{"free_energy": -8.8, "intermolecular_energy": -10.3, "internal_energy": -1.54, "cluster_size": 20, "cluster_id": 2, "rank_in_cluster": 15}

>  <energy>  (12) 
-8.59

>  <cluster_rmsd>  (12) 
1.57

>  <cluster>  (12) 
1

$$$$

     RDKit          3D

 48 51  0  0  0  0  0  0  0  0999 V2000
  138.7840   70.8910  221.2440 O   0  0  0  0  0  0  0  0  0  0  0  0
  138.8770   71.5740  222.2980 C   0  0  0  0  0  0  0  0  0  0  0  0
  138.4050   72.9250  222.2440 N   0  0  0  0  0  0  0  0  0  0  0  0
  137.8680   73.3840  220.9960 C   0  0  0  0  0  0  0  0  0  0  0  0
  138.9070   73.6050  219.9700 C   0  0  0  0  0  0  0  0  0  0  0  0
  138.9550   72.9980  218.8700 O   0  0  0  0  0  0  0  0  0  0  0  0
  139.9240   74.5670  220.2350 N   0  0  0  0  0  0  0  0  0  0  0  0
  140.3900   75.5480  219.2680 C   0  0  0  0  0  0  0  0  0  0  0  0
  141.8740   75.5850  219.5720 C   0  0  0  0  0  0  0  0  0  0  0  0
  142.0710   74.8410  220.8690 C   0  0  0  0  0  0  0  0  0  0  0  0
  140.6840   74.7740  221.4590 C   0  0  1  0  0  0  0  0  0  0  0  0
  140.2210   76.0640  222.0160 C   0  0  0  0  0  0  0  0  0  0  0  0
  138.8730   76.2620  222.1980 C   0  0  0  0  0  0  0  0  0  0  0  0
  138.3600   77.4550  222.7200 C   0  0  0  0  0  0  0  0  0  0  0  0
  139.2220   78.4770  223.0680 C   0  0  0  0  0  0  0  0  0  0  0  0
  138.6300   79.9900  223.7250 Cl  0  0  0  0  0  0  0  0  0  0  0  0
  140.5750   78.2910  222.8900 C   0  0  0  0  0  0  0  0  0  0  0  0
  141.6830   79.5900  223.3310 Cl  0  0  0  0  0  0  0  0  0  0  0  0
  141.0670   77.0950  222.3680 C   0  0  0  0  0  0  0  0  0  0  0  0
  139.4340   71.0460  223.5370 C   0  0  0  0  0  0  0  0  0  0  0  0
  140.3910   71.8340  224.1850 C   0  0  0  0  0  0  0  0  0  0  0  0
  140.8990   71.3080  225.3540 C   0  0  0  0  0  0  0  0  0  0  0  0
  140.5100   70.0920  225.8730 C   0  0  0  0  0  0  0  0  0  0  0  0
  140.9990   69.5520  227.0280 C   0  0  0  0  0  0  0  0  0  0  0  0
  140.5940   68.3320  227.5300 C   0  0  0  0  0  0  0  0  0  0  0  0
  139.6350   67.5920  226.8380 C   0  0  0  0  0  0  0  0  0  0  0  0
  139.1450   68.1430  225.6720 C   0  0  0  0  0  0  0  0  0  0  0  0
  139.5590   69.3640  225.1820 C   0  0  0  0  0  0  0  0  0  0  0  0
  139.0580   69.8640  224.0460 N   0  0  0  0  0  0  0  0  0  0  0  0
  138.4470   73.5560  223.0740 H   0  0  0  0  0  0  0  0  0  0  0  0
  137.1588   72.6314  220.6210 H   0  0  0  0  0  0  0  0  0  0  0  0
  137.3778   74.3508  221.1831 H   0  0  0  0  0  0  0  0  0  0  0  0
  140.1987   75.2183  218.2362 H   0  0  0  0  0  0  0  0  0  0  0  0
  139.8910   76.5254  219.3425 H   0  0  0  0  0  0  0  0  0  0  0  0
  142.4384   75.0952  218.7648 H   0  0  0  0  0  0  0  0  0  0  0  0
  142.2351   76.6210  219.6521 H   0  0  0  0  0  0  0  0  0  0  0  0
  142.4681   73.8317  220.6855 H   0  0  0  0  0  0  0  0  0  0  0  0
  142.7941   75.3329  221.5363 H   0  0  0  0  0  0  0  0  0  0  0  0
  140.6040   74.0379  222.2725 H   0  0  0  0  0  0  0  0  0  0  0  0
  138.1750   75.4570  221.9246 H   0  0  0  0  0  0  0  0  0  0  0  0
  137.2750   77.5784  222.8526 H   0  0  0  0  0  0  0  0  0  0  0  0
  142.1518   76.9713  222.2343 H   0  0  0  0  0  0  0  0  0  0  0  0
  140.7163   72.8073  223.7889 H   0  0  0  0  0  0  0  0  0  0  0  0
  141.6550   71.8900  225.9015 H   0  0  0  0  0  0  0  0  0  0  0  0
  141.7563   70.1199  227.5883 H   0  0  0  0  0  0  0  0  0  0  0  0
  141.0232   67.9468  228.4667 H   0  0  0  0  0  0  0  0  0  0  0  0
  139.2860   66.6154  227.2047 H   0  0  0  0  0  0  0  0  0  0  0  0
  138.3875   67.5814  225.1057 H   0  0  0  0  0  0  0  0  0  0  0  0
  1  2  2  0
  2  3  1  0
  3  4  1  0
  4  5  1  0
  5  6  2  0
  5  7  1  0
  7  8  1  0
  8  9  1  0
  9 10  1  0
 10 11  1  0
 11 12  1  0
 12 13  2  0
 13 14  1  0
 14 15  2  0
 15 16  1  0
 15 17  1  0
 17 18  1  0
 17 19  2  0
  2 20  1  0
 20 21  2  0
 21 22  1  0
 22 23  2  0
 23 24  1  0
 24 25  2  0
 25 26  1  0
 26 27  2  0
 27 28  1  0
 28 29  2  0
 11  7  1  0
 19 12  1  0
 29 20  1  0
 28 23  1  0
  3 30  1  0
  4 31  1  0
  4 32  1  0
  8 33  1  0
  8 34  1  0
  9 35  1  0
  9 36  1  0
 10 37  1  0
 10 38  1  0
 11 39  1  1
 13 40  1  0
 14 41  1  0
 19 42  1  0
 21 43  1  0
 22 44  1  0
 24 45  1  0
 25 46  1  0
 26 47  1  0
 27 48  1  0
M  END
>  <smiles>  (13) 
O=C(NCC(=O)N1CCC[C@H]1c1ccc(Cl)c(Cl)c1)c1ccc2ccccc2n1

>  <score_type>  (13) 
oracle

>  <origin>  (13) 
autodockgpu

>  <m_score__min__energy>  (13) 
-9.4299999999999997

>  <m_primary>  (13) 
energy

>  <rmsd>  (13) 
2.8923166093036032

>  <m_score__min__rmsd>  (13) 
2.8923166093036032

>  <meeko>  (13) 
{"free_energy": -8.19, "intermolecular_energy": -9.68, "internal_energy": -1.61, "cluster_size": 16, "cluster_id": 1, "rank_in_cluster": 15}

>  <energy>  (13) 
-8.56

>  <cluster_rmsd>  (13) 
1.4

>  <cluster>  (13) 
1

$$$$

     RDKit          3D

 48 51  0  0  0  0  0  0  0  0999 V2000
  141.3450   74.8090  221.2910 O   0  0  0  0  0  0  0  0  0  0  0  0
  140.3880   75.3080  221.9410 C   0  0  0  0  0  0  0  0  0  0  0  0
  139.3250   74.4260  222.3180 N   0  0  0  0  0  0  0  0  0  0  0  0
  139.4390   73.0520  221.9240 C   0  0  0  0  0  0  0  0  0  0  0  0
  138.2720   72.2410  222.3250 C   0  0  0  0  0  0  0  0  0  0  0  0
  137.0980   72.6820  222.4040 O   0  0  0  0  0  0  0  0  0  0  0  0
  138.4810   70.8680  222.6430 N   0  0  0  0  0  0  0  0  0  0  0  0
  139.5760   70.0680  222.1190 C   0  0  0  0  0  0  0  0  0  0  0  0
  138.8930   68.7310  221.9070 C   0  0  0  0  0  0  0  0  0  0  0  0
  137.5550   68.8120  222.5970 C   0  0  0  0  0  0  0  0  0  0  0  0
  137.6930   70.0050  223.5100 C   0  0  1  0  0  0  0  0  0  0  0  0
  138.5330   69.7400  224.6980 C   0  0  0  0  0  0  0  0  0  0  0  0
  138.5540   68.4700  225.2250 C   0  0  0  0  0  0  0  0  0  0  0  0
  139.3250   68.1430  226.3470 C   0  0  0  0  0  0  0  0  0  0  0  0
  140.0930   69.1150  226.9560 C   0  0  0  0  0  0  0  0  0  0  0  0
  141.0750   68.7570  228.3630 Cl  0  0  0  0  0  0  0  0  0  0  0  0
  140.0810   70.3910  226.4380 C   0  0  0  0  0  0  0  0  0  0  0  0
  141.0590   71.6390  227.2110 Cl  0  0  0  0  0  0  0  0  0  0  0  0
  139.3070   70.6980  225.3200 C   0  0  0  0  0  0  0  0  0  0  0  0
  140.3330   76.7170  222.3110 C   0  0  0  0  0  0  0  0  0  0  0  0
  139.0630   77.2970  222.3960 C   0  0  0  0  0  0  0  0  0  0  0  0
  139.0430   78.6310  222.7480 C   0  0  0  0  0  0  0  0  0  0  0  0
  140.1800   79.3660  223.0040 C   0  0  0  0  0  0  0  0  0  0  0  0
  140.1840   80.6860  223.3540 C   0  0  0  0  0  0  0  0  0  0  0  0
  141.3350   81.4040  223.6060 C   0  0  0  0  0  0  0  0  0  0  0  0
  142.5740   80.7690  223.5040 C   0  0  0  0  0  0  0  0  0  0  0  0
  142.5620   79.4350  223.1510 C   0  0  0  0  0  0  0  0  0  0  0  0
  141.4040   78.7310  222.9020 C   0  0  0  0  0  0  0  0  0  0  0  0
  141.4360   77.4370  222.5610 N   0  0  0  0  0  0  0  0  0  0  0  0
  138.4970   74.7630  222.8560 H   0  0  0  0  0  0  0  0  0  0  0  0
  139.5378   73.0077  220.8293 H   0  0  0  0  0  0  0  0  0  0  0  0
  140.3212   72.6349  222.4317 H   0  0  0  0  0  0  0  0  0  0  0  0
  139.9583   70.4792  221.1731 H   0  0  0  0  0  0  0  0  0  0  0  0
  140.4567   70.0244  222.7767 H   0  0  0  0  0  0  0  0  0  0  0  0
  138.7542   68.5428  220.8322 H   0  0  0  0  0  0  0  0  0  0  0  0
  139.4989   67.9088  222.3154 H   0  0  0  0  0  0  0  0  0  0  0  0
  136.7466   68.9682  221.8675 H   0  0  0  0  0  0  0  0  0  0  0  0
  137.2988   67.8893  223.1383 H   0  0  0  0  0  0  0  0  0  0  0  0
  136.7244   70.3636  223.8884 H   0  0  0  0  0  0  0  0  0  0  0  0
  137.9458   67.6862  224.7500 H   0  0  0  0  0  0  0  0  0  0  0  0
  139.3188   67.1162  226.7414 H   0  0  0  0  0  0  0  0  0  0  0  0
  139.3135   71.7249  224.9257 H   0  0  0  0  0  0  0  0  0  0  0  0
  138.1429   76.7284  222.1958 H   0  0  0  0  0  0  0  0  0  0  0  0
  138.0681   79.1341  222.8285 H   0  0  0  0  0  0  0  0  0  0  0  0
  139.2178   81.2047  223.4396 H   0  0  0  0  0  0  0  0  0  0  0  0
  141.2769   82.4665  223.8846 H   0  0  0  0  0  0  0  0  0  0  0  0
  143.5146   81.3061  223.6958 H   0  0  0  0  0  0  0  0  0  0  0  0
  143.5236   78.9080  223.0642 H   0  0  0  0  0  0  0  0  0  0  0  0
  1  2  2  0
  2  3  1  0
  3  4  1  0
  4  5  1  0
  5  6  2  0
  5  7  1  0
  7  8  1  0
  8  9  1  0
  9 10  1  0
 10 11  1  0
 11 12  1  0
 12 13  2  0
 13 14  1  0
 14 15  2  0
 15 16  1  0
 15 17  1  0
 17 18  1  0
 17 19  2  0
  2 20  1  0
 20 21  2  0
 21 22  1  0
 22 23  2  0
 23 24  1  0
 24 25  2  0
 25 26  1  0
 26 27  2  0
 27 28  1  0
 28 29  2  0
 11  7  1  0
 19 12  1  0
 29 20  1  0
 28 23  1  0
  3 30  1  0
  4 31  1  0
  4 32  1  0
  8 33  1  0
  8 34  1  0
  9 35  1  0
  9 36  1  0
 10 37  1  0
 10 38  1  0
 11 39  1  1
 13 40  1  0
 14 41  1  0
 19 42  1  0
 21 43  1  0
 22 44  1  0
 24 45  1  0
 25 46  1  0
 26 47  1  0
 27 48  1  0
M  END
>  <smiles>  (14) 
O=C(NCC(=O)N1CCC[C@H]1c1ccc(Cl)c(Cl)c1)c1ccc2ccccc2n1

>  <score_type>  (14) 
oracle

>  <origin>  (14) 
autodockgpu

>  <m_score__min__energy>  (14) 
-9.4299999999999997

>  <m_primary>  (14) 
energy

>  <rmsd>  (14) 
8.328393725249734

>  <m_score__min__rmsd>  (14) 
8.328393725249734

>  <meeko>  (14) 
{"free_energy": -9.13, "intermolecular_energy": -10.63, "internal_energy": -1.43, "cluster_size": 20, "cluster_id": 2, "rank_in_cluster": 3}

>  <energy>  (14) 
-8.22

>  <cluster_rmsd>  (14) 
1.84

>  <cluster>  (14) 
1

$$$$

     RDKit          3D

 48 51  0  0  0  0  0  0  0  0999 V2000
  137.6670   75.9150  222.4440 O   0  0  0  0  0  0  0  0  0  0  0  0
  138.8870   76.2160  222.3590 C   0  0  0  0  0  0  0  0  0  0  0  0
  139.7810   75.1940  221.9040 N   0  0  0  0  0  0  0  0  0  0  0  0
  139.2120   73.9170  221.5850 C   0  0  0  0  0  0  0  0  0  0  0  0
  140.0870   72.7880  221.9610 C   0  0  0  0  0  0  0  0  0  0  0  0
  141.3430   72.8450  221.9860 O   0  0  0  0  0  0  0  0  0  0  0  0
  139.4780   71.5520  222.3210 N   0  0  0  0  0  0  0  0  0  0  0  0
  139.9360   70.2530  221.8580 C   0  0  0  0  0  0  0  0  0  0  0  0
  138.6200   69.5280  221.6560 C   0  0  0  0  0  0  0  0  0  0  0  0
  137.5520   70.3790  222.2950 C   0  0  0  0  0  0  0  0  0  0  0  0
  138.3270   71.3220  223.1820 C   0  0  1  0  0  0  0  0  0  0  0  0
  138.8520   70.6780  224.4050 C   0  0  0  0  0  0  0  0  0  0  0  0
  138.5590   69.3540  224.6360 C   0  0  0  0  0  0  0  0  0  0  0  0
  139.0200   68.6770  225.7710 C   0  0  0  0  0  0  0  0  0  0  0  0
  139.7950   69.3460  226.6990 C   0  0  0  0  0  0  0  0  0  0  0  0
  140.3970   68.5430  228.1370 Cl  0  0  0  0  0  0  0  0  0  0  0  0
  140.0960   70.6710  226.4800 C   0  0  0  0  0  0  0  0  0  0  0  0
  141.0840   71.5320  227.6600 Cl  0  0  0  0  0  0  0  0  0  0  0  0
  139.6260   71.3290  225.3430 C   0  0  0  0  0  0  0  0  0  0  0  0
  139.4020   77.5360  222.7000 C   0  0  0  0  0  0  0  0  0  0  0  0
  138.4580   78.5280  222.9830 C   0  0  0  0  0  0  0  0  0  0  0  0
  138.9760   79.7660  223.3030 C   0  0  0  0  0  0  0  0  0  0  0  0
  140.3260   80.0360  223.3480 C   0  0  0  0  0  0  0  0  0  0  0  0
  140.8610   81.2530  223.6610 C   0  0  0  0  0  0  0  0  0  0  0  0
  142.2180   81.5010  223.7000 C   0  0  0  0  0  0  0  0  0  0  0  0
  143.1120   80.4700  223.4080 C   0  0  0  0  0  0  0  0  0  0  0  0
  142.5640   79.2430  223.0930 C   0  0  0  0  0  0  0  0  0  0  0  0
  141.2060   79.0100  223.0570 C   0  0  0  0  0  0  0  0  0  0  0  0
  140.7160   77.8040  222.7460 N   0  0  0  0  0  0  0  0  0  0  0  0
  140.8060   75.3640  221.8070 H   0  0  0  0  0  0  0  0  0  0  0  0
  138.2569   73.8145  222.1210 H   0  0  0  0  0  0  0  0  0  0  0  0
  139.0752   73.8797  220.4942 H   0  0  0  0  0  0  0  0  0  0  0  0
  140.4983   70.3366  220.9163 H   0  0  0  0  0  0  0  0  0  0  0  0
  140.6274   69.7472  222.5480 H   0  0  0  0  0  0  0  0  0  0  0  0
  138.4154   69.4065  220.5820 H   0  0  0  0  0  0  0  0  0  0  0  0
  138.6483   68.5251  222.1070 H   0  0  0  0  0  0  0  0  0  0  0  0
  136.9852   70.9342  221.5331 H   0  0  0  0  0  0  0  0  0  0  0  0
  136.8102   69.7857  222.8498 H   0  0  0  0  0  0  0  0  0  0  0  0
  137.7259   72.1802  223.5169 H   0  0  0  0  0  0  0  0  0  0  0  0
  137.9426   68.8098  223.9053 H   0  0  0  0  0  0  0  0  0  0  0  0
  138.7666   67.6175  225.9235 H   0  0  0  0  0  0  0  0  0  0  0  0
  139.8779   72.3890  225.1914 H   0  0  0  0  0  0  0  0  0  0  0  0
  137.3756   78.3344  222.9526 H   0  0  0  0  0  0  0  0  0  0  0  0
  138.2738   80.5805  223.5344 H   0  0  0  0  0  0  0  0  0  0  0  0
  140.1737   82.0795  223.8944 H   0  0  0  0  0  0  0  0  0  0  0  0
  142.5917   82.5026  223.9590 H   0  0  0  0  0  0  0  0  0  0  0  0
  144.2005   80.6275  223.4279 H   0  0  0  0  0  0  0  0  0  0  0  0
  143.2441   78.4106  222.8593 H   0  0  0  0  0  0  0  0  0  0  0  0
  1  2  2  0
  2  3  1  0
  3  4  1  0
  4  5  1  0
  5  6  2  0
  5  7  1  0
  7  8  1  0
  8  9  1  0
  9 10  1  0
 10 11  1  0
 11 12  1  0
 12 13  2  0
 13 14  1  0
 14 15  2  0
 15 16  1  0
 15 17  1  0
 17 18  1  0
 17 19  2  0
  2 20  1  0
 20 21  2  0
 21 22  1  0
 22 23  2  0
 23 24  1  0
 24 25  2  0
 25 26  1  0
 26 27  2  0
 27 28  1  0
 28 29  2  0
 11  7  1  0
 19 12  1  0
 29 20  1  0
 28 23  1  0
  3 30  1  0
  4 31  1  0
  4 32  1  0
  8 33  1  0
  8 34  1  0
  9 35  1  0
  9 36  1  0
 10 37  1  0
 10 38  1  0
 11 39  1  1
 13 40  1  0
 14 41  1  0
 19 42  1  0
 21 43  1  0
 22 44  1  0
 24 45  1  0
 25 46  1  0
 26 47  1  0
 27 48  1  0
M  END
>  <smiles>  (15) 
O=C(NCC(=O)N1CCC[C@H]1c1ccc(Cl)c(Cl)c1)c1ccc2ccccc2n1

>  <score_type>  (15) 
oracle

>  <origin>  (15) 
autodockgpu

>  <m_score__min__energy>  (15) 
-9.4299999999999997

>  <m_primary>  (15) 
energy

>  <rmsd>  (15) 
8.270080291429146

>  <m_score__min__rmsd>  (15) 
8.270080291429146

>  <meeko>  (15) 
{"free_energy": -8.85, "intermolecular_energy": -10.34, "internal_energy": -1.49, "cluster_size": 20, "cluster_id": 2, "rank_in_cluster": 9}

>  <energy>  (15) 
-8.19

>  <cluster_rmsd>  (15) 
1.84

>  <cluster>  (15) 
1

$$$$

     RDKit          3D

 48 51  0  0  0  0  0  0  0  0999 V2000
  140.5990   73.0120  222.4590 O   0  0  0  0  0  0  0  0  0  0  0  0
  139.6240   72.3210  222.8590 C   0  0  0  0  0  0  0  0  0  0  0  0
  138.3610   72.5450  222.2210 N   0  0  0  0  0  0  0  0  0  0  0  0
  138.3140   73.5330  221.1840 C   0  0  0  0  0  0  0  0  0  0  0  0
  138.5920   74.8970  221.6780 C   0  0  0  0  0  0  0  0  0  0  0  0
  137.9350   75.4680  222.5860 O   0  0  0  0  0  0  0  0  0  0  0  0
  139.6730   75.6200  221.0950 N   0  0  0  0  0  0  0  0  0  0  0  0
  139.6690   76.1340  219.7350 C   0  0  0  0  0  0  0  0  0  0  0  0
  141.1100   75.8990  219.3250 C   0  0  0  0  0  0  0  0  0  0  0  0
  141.8660   75.5430  220.5790 C   0  0  0  0  0  0  0  0  0  0  0  0
  140.9480   75.9870  221.6910 C   0  0  1  0  0  0  0  0  0  0  0  0
  140.9110   77.4540  221.8700 C   0  0  0  0  0  0  0  0  0  0  0  0
  141.8230   78.2280  221.1910 C   0  0  0  0  0  0  0  0  0  0  0  0
  141.8500   79.6230  221.3090 C   0  0  0  0  0  0  0  0  0  0  0  0
  140.9380   80.2570  222.1310 C   0  0  0  0  0  0  0  0  0  0  0  0
  140.9300   82.0000  222.3140 Cl  0  0  0  0  0  0  0  0  0  0  0  0
  140.0200   79.4940  222.8170 C   0  0  0  0  0  0  0  0  0  0  0  0
  138.8540   80.2960  223.8680 Cl  0  0  0  0  0  0  0  0  0  0  0  0
  140.0100   78.1050  222.6860 C   0  0  0  0  0  0  0  0  0  0  0  0
  139.7390   71.3300  223.9210 C   0  0  0  0  0  0  0  0  0  0  0  0
  139.2480   70.0500  223.6450 C   0  0  0  0  0  0  0  0  0  0  0  0
  139.3710   69.1340  224.6700 C   0  0  0  0  0  0  0  0  0  0  0  0
  139.9350   69.4310  225.8910 C   0  0  0  0  0  0  0  0  0  0  0  0
  140.0670   68.5410  226.9180 C   0  0  0  0  0  0  0  0  0  0  0  0
  140.6370   68.8600  228.1340 C   0  0  0  0  0  0  0  0  0  0  0  0
  141.1100   70.1560  228.3490 C   0  0  0  0  0  0  0  0  0  0  0  0
  140.9740   71.0490  227.3070 C   0  0  0  0  0  0  0  0  0  0  0  0
  140.4020   70.7160  226.0970 C   0  0  0  0  0  0  0  0  0  0  0  0
  140.2880   71.6140  225.1110 N   0  0  0  0  0  0  0  0  0  0  0  0
  137.5060   72.0140  222.4960 H   0  0  0  0  0  0  0  0  0  0  0  0
  139.0631   73.2766  220.4204 H   0  0  0  0  0  0  0  0  0  0  0  0
  137.2939   73.5320  220.7725 H   0  0  0  0  0  0  0  0  0  0  0  0
  138.9716   75.5739  219.0948 H   0  0  0  0  0  0  0  0  0  0  0  0
  139.3410   77.1805  219.6496 H   0  0  0  0  0  0  0  0  0  0  0  0
  141.1679   75.0734  218.6005 H   0  0  0  0  0  0  0  0  0  0  0  0
  141.5359   76.7938  218.8476 H   0  0  0  0  0  0  0  0  0  0  0  0
  142.0498   74.4597  220.6316 H   0  0  0  0  0  0  0  0  0  0  0  0
  142.8560   76.0199  220.6287 H   0  0  0  0  0  0  0  0  0  0  0  0
  141.2269   75.5629  222.6669 H   0  0  0  0  0  0  0  0  0  0  0  0
  142.5548   77.7352  220.5340 H   0  0  0  0  0  0  0  0  0  0  0  0
  142.5932   80.2110  220.7504 H   0  0  0  0  0  0  0  0  0  0  0  0
  139.2677   77.5168  223.2455 H   0  0  0  0  0  0  0  0  0  0  0  0
  138.7946   69.7909  222.6769 H   0  0  0  0  0  0  0  0  0  0  0  0
  138.9988   68.1124  224.5029 H   0  0  0  0  0  0  0  0  0  0  0  0
  139.6995   67.5151  226.7684 H   0  0  0  0  0  0  0  0  0  0  0  0
  140.7178   68.1007  228.9258 H   0  0  0  0  0  0  0  0  0  0  0  0
  141.5693   70.4507  229.3041 H   0  0  0  0  0  0  0  0  0  0  0  0
  141.3395   72.0769  227.4477 H   0  0  0  0  0  0  0  0  0  0  0  0
  1  2  2  0
  2  3  1  0
  3  4  1  0
  4  5  1  0
  5  6  2  0
  5  7  1  0
  7  8  1  0
  8  9  1  0
  9 10  1  0
 10 11  1  0
 11 12  1  0
 12 13  2  0
 13 14  1  0
 14 15  2  0
 15 16  1  0
 15 17  1  0
 17 18  1  0
 17 19  2  0
  2 20  1  0
 20 21  2  0
 21 22  1  0
 22 23  2  0
 23 24  1  0
 24 25  2  0
 25 26  1  0
 26 27  2  0
 27 28  1  0
 28 29  2  0
 11  7  1  0
 19 12  1  0
 29 20  1  0
 28 23  1  0
  3 30  1  0
  4 31  1  0
  4 32  1  0
  8 33  1  0
  8 34  1  0
  9 35  1  0
  9 36  1  0
 10 37  1  0
 10 38  1  0
 11 39  1  1
 13 40  1  0
 14 41  1  0
 19 42  1  0
 21 43  1  0
 22 44  1  0
 24 45  1  0
 25 46  1  0
 26 47  1  0
 27 48  1  0
M  END
>  <smiles>  (16) 
O=C(NCC(=O)N1CCC[C@H]1c1ccc(Cl)c(Cl)c1)c1ccc2ccccc2n1

>  <score_type>  (16) 
oracle

>  <origin>  (16) 
autodockgpu

>  <m_score__min__energy>  (16) 
-9.4299999999999997

>  <m_primary>  (16) 
energy

>  <rmsd>  (16) 
1.7342338979211056

>  <m_score__min__rmsd>  (16) 
1.7342338979211056

>  <meeko>  (16) 
{"free_energy": -8.56, "intermolecular_energy": -10.05, "internal_energy": -1.37, "cluster_size": 16, "cluster_id": 1, "rank_in_cluster": 13}

>  <energy>  (16) 
-8.12

>  <cluster_rmsd>  (16) 
1.82

>  <cluster>  (16) 
1

$$$$

     RDKit          3D

 48 51  0  0  0  0  0  0  0  0999 V2000
  140.5540   71.7510  221.8690 O   0  0  0  0  0  0  0  0  0  0  0  0
  139.6820   71.7010  222.7770 C   0  0  0  0  0  0  0  0  0  0  0  0
  138.6110   72.6490  222.7060 N   0  0  0  0  0  0  0  0  0  0  0  0
  138.6220   73.5720  221.6090 C   0  0  0  0  0  0  0  0  0  0  0  0
  139.6750   74.5990  221.7330 C   0  0  0  0  0  0  0  0  0  0  0  0
  140.7990   74.4000  222.2610 O   0  0  0  0  0  0  0  0  0  0  0  0
  139.4120   75.9030  221.2220 N   0  0  0  0  0  0  0  0  0  0  0  0
  138.2050   76.6610  221.5080 C   0  0  0  0  0  0  0  0  0  0  0  0
  137.9540   77.3350  220.1730 C   0  0  0  0  0  0  0  0  0  0  0  0
  139.1940   77.1280  219.3420 C   0  0  0  0  0  0  0  0  0  0  0  0
  140.2400   76.7230  220.3500 C   0  0  1  0  0  0  0  0  0  0  0  0
  140.7200   77.8490  221.1810 C   0  0  0  0  0  0  0  0  0  0  0  0
  141.0880   77.6030  222.4820 C   0  0  0  0  0  0  0  0  0  0  0  0
  141.5530   78.6170  223.3280 C   0  0  0  0  0  0  0  0  0  0  0  0
  141.6490   79.9110  222.8560 C   0  0  0  0  0  0  0  0  0  0  0  0
  142.2250   81.2160  223.8750 Cl  0  0  0  0  0  0  0  0  0  0  0  0
  141.2840   80.1710  221.5540 C   0  0  0  0  0  0  0  0  0  0  0  0
  141.4040   81.8210  220.9430 Cl  0  0  0  0  0  0  0  0  0  0  0  0
  140.8230   79.1470  220.7270 C   0  0  0  0  0  0  0  0  0  0  0  0
  139.7300   70.7360  223.8670 C   0  0  0  0  0  0  0  0  0  0  0  0
  139.1300   69.4940  223.6380 C   0  0  0  0  0  0  0  0  0  0  0  0
  139.1910   68.6020  224.6880 C   0  0  0  0  0  0  0  0  0  0  0  0
  139.7960   68.8870  225.8930 C   0  0  0  0  0  0  0  0  0  0  0  0
  139.8680   68.0200  226.9450 C   0  0  0  0  0  0  0  0  0  0  0  0
  140.4790   68.3270  228.1440 C   0  0  0  0  0  0  0  0  0  0  0  0
  141.0610   69.5840  228.3140 C   0  0  0  0  0  0  0  0  0  0  0  0
  140.9850   70.4540  227.2460 C   0  0  0  0  0  0  0  0  0  0  0  0
  140.3700   70.1340  226.0540 C   0  0  0  0  0  0  0  0  0  0  0  0
  140.3170   71.0080  225.0420 N   0  0  0  0  0  0  0  0  0  0  0  0
  137.8510   72.6730  223.4200 H   0  0  0  0  0  0  0  0  0  0  0  0
  138.7883   73.0093  220.6785 H   0  0  0  0  0  0  0  0  0  0  0  0
  137.6526   74.0919  221.6053 H   0  0  0  0  0  0  0  0  0  0  0  0
  137.3715   76.0002  221.7885 H   0  0  0  0  0  0  0  0  0  0  0  0
  138.3006   77.3580  222.3536 H   0  0  0  0  0  0  0  0  0  0  0  0
  137.0846   76.8796  219.6762 H   0  0  0  0  0  0  0  0  0  0  0  0
  137.7410   78.4061  220.3050 H   0  0  0  0  0  0  0  0  0  0  0  0
  139.0386   76.3330  218.5978 H   0  0  0  0  0  0  0  0  0  0  0  0
  139.4780   78.0246  218.7715 H   0  0  0  0  0  0  0  0  0  0  0  0
  141.1315   76.2799  219.8821 H   0  0  0  0  0  0  0  0  0  0  0  0
  141.0149   76.5767  222.8711 H   0  0  0  0  0  0  0  0  0  0  0  0
  141.8405   78.3839  224.3639 H   0  0  0  0  0  0  0  0  0  0  0  0
  140.5356   79.3796  219.6910 H   0  0  0  0  0  0  0  0  0  0  0  0
  138.6420   69.2450  222.6841 H   0  0  0  0  0  0  0  0  0  0  0  0
  138.7326   67.6107  224.5568 H   0  0  0  0  0  0  0  0  0  0  0  0
  139.4151   67.0240  226.8311 H   0  0  0  0  0  0  0  0  0  0  0  0
  140.5070   67.5877  228.9580 H   0  0  0  0  0  0  0  0  0  0  0  0
  141.5565   69.8674  229.2543 H   0  0  0  0  0  0  0  0  0  0  0  0
  141.4370   71.4514  227.3504 H   0  0  0  0  0  0  0  0  0  0  0  0
  1  2  2  0
  2  3  1  0
  3  4  1  0
  4  5  1  0
  5  6  2  0
  5  7  1  0
  7  8  1  0
  8  9  1  0
  9 10  1  0
 10 11  1  0
 11 12  1  0
 12 13  2  0
 13 14  1  0
 14 15  2  0
 15 16  1  0
 15 17  1  0
 17 18  1  0
 17 19  2  0
  2 20  1  0
 20 21  2  0
 21 22  1  0
 22 23  2  0
 23 24  1  0
 24 25  2  0
 25 26  1  0
 26 27  2  0
 27 28  1  0
 28 29  2  0
 11  7  1  0
 19 12  1  0
 29 20  1  0
 28 23  1  0
  3 30  1  0
  4 31  1  0
  4 32  1  0
  8 33  1  0
  8 34  1  0
  9 35  1  0
  9 36  1  0
 10 37  1  0
 10 38  1  0
 11 39  1  6
 13 40  1  0
 14 41  1  0
 19 42  1  0
 21 43  1  0
 22 44  1  0
 24 45  1  0
 25 46  1  0
 26 47  1  0
 27 48  1  0
M  END
>  <smiles>  (17) 
O=C(NCC(=O)N1CCC[C@H]1c1ccc(Cl)c(Cl)c1)c1ccc2ccccc2n1

>  <score_type>  (17) 
oracle

>  <origin>  (17) 
autodockgpu

>  <m_score__min__energy>  (17) 
-9.4299999999999997

>  <m_primary>  (17) 
energy

>  <rmsd>  (17) 
1.8167295533010321

>  <m_score__min__rmsd>  (17) 
1.8167295533010321

>  <meeko>  (17) 
{"free_energy": -9.11, "intermolecular_energy": -10.6, "internal_energy": -1.18, "cluster_size": 16, "cluster_id": 1, "rank_in_cluster": 3}

>  <energy>  (17) 
-9.42

>  <cluster_rmsd>  (17) 
0.0

>  <cluster>  (17) 
2

$$$$

     RDKit          3D

 48 51  0  0  0  0  0  0  0  0999 V2000
  139.3630   70.7560  221.2310 O   0  0  0  0  0  0  0  0  0  0  0  0
  139.3140   71.5030  222.2440 C   0  0  0  0  0  0  0  0  0  0  0  0
  138.9330   72.8670  222.0300 N   0  0  0  0  0  0  0  0  0  0  0  0
  138.6420   73.2650  220.6840 C   0  0  0  0  0  0  0  0  0  0  0  0
  138.6180   74.7320  220.5110 C   0  0  0  0  0  0  0  0  0  0  0  0
  137.6330   75.3750  220.0650 O   0  0  0  0  0  0  0  0  0  0  0  0
  139.7790   75.4740  220.8710 N   0  0  0  0  0  0  0  0  0  0  0  0
  140.1960   75.7200  222.2410 C   0  0  0  0  0  0  0  0  0  0  0  0
  140.7190   77.1400  222.1430 C   0  0  0  0  0  0  0  0  0  0  0  0
  140.8170   77.4660  220.6750 C   0  0  0  0  0  0  0  0  0  0  0  0
  140.7530   76.1180  220.0020 C   0  0  1  0  0  0  0  0  0  0  0  0
  142.0010   75.3360  220.1340 C   0  0  0  0  0  0  0  0  0  0  0  0
  143.2070   75.9820  219.9940 C   0  0  0  0  0  0  0  0  0  0  0  0
  144.4290   75.3100  220.1060 C   0  0  0  0  0  0  0  0  0  0  0  0
  144.4420   73.9530  220.3650 C   0  0  0  0  0  0  0  0  0  0  0  0
  145.9460   73.0650  220.5150 Cl  0  0  0  0  0  0  0  0  0  0  0  0
  143.2420   73.2940  220.5080 C   0  0  0  0  0  0  0  0  0  0  0  0
  143.2500   71.5620  220.8380 Cl  0  0  0  0  0  0  0  0  0  0  0  0
  142.0340   73.9810  220.3920 C   0  0  0  0  0  0  0  0  0  0  0  0
  139.6230   71.0350  223.5890 C   0  0  0  0  0  0  0  0  0  0  0  0
  139.2980   69.7080  223.8850 C   0  0  0  0  0  0  0  0  0  0  0  0
  139.6030   69.2940  225.1660 C   0  0  0  0  0  0  0  0  0  0  0  0
  140.1870   70.1110  226.1090 C   0  0  0  0  0  0  0  0  0  0  0  0
  140.4970   69.7230  227.3810 C   0  0  0  0  0  0  0  0  0  0  0  0
  141.0830   70.5580  228.3100 C   0  0  0  0  0  0  0  0  0  0  0  0
  141.3830   71.8740  227.9550 C   0  0  0  0  0  0  0  0  0  0  0  0
  141.0680   72.2590  226.6680 C   0  0  0  0  0  0  0  0  0  0  0  0
  140.4820   71.4130  225.7500 C   0  0  0  0  0  0  0  0  0  0  0  0
  140.1920   71.8260  224.5100 N   0  0  0  0  0  0  0  0  0  0  0  0
  138.8690   73.5490  222.8170 H   0  0  0  0  0  0  0  0  0  0  0  0
  139.4120   72.8457  220.0197 H   0  0  0  0  0  0  0  0  0  0  0  0
  137.6389   72.8870  220.4374 H   0  0  0  0  0  0  0  0  0  0  0  0
  139.3482   75.6505  222.9384 H   0  0  0  0  0  0  0  0  0  0  0  0
  140.9294   74.9957  222.6252 H   0  0  0  0  0  0  0  0  0  0  0  0
  140.0255   77.8344  222.6399 H   0  0  0  0  0  0  0  0  0  0  0  0
  141.6980   77.2355  222.6354 H   0  0  0  0  0  0  0  0  0  0  0  0
  139.9777   78.1025  220.3581 H   0  0  0  0  0  0  0  0  0  0  0  0
  141.7309   78.0241  220.4233 H   0  0  0  0  0  0  0  0  0  0  0  0
  140.5462   76.1917  218.9241 H   0  0  0  0  0  0  0  0  0  0  0  0
  143.2110   77.0624  219.7872 H   0  0  0  0  0  0  0  0  0  0  0  0
  145.3747   75.8594  219.9884 H   0  0  0  0  0  0  0  0  0  0  0  0
  141.0882   73.4315  220.5086 H   0  0  0  0  0  0  0  0  0  0  0  0
  138.8309   69.0391  223.1472 H   0  0  0  0  0  0  0  0  0  0  0  0
  139.3674   68.2574  225.4487 H   0  0  0  0  0  0  0  0  0  0  0  0
  140.2673   68.6899  227.6809 H   0  0  0  0  0  0  0  0  0  0  0  0
  141.3116   70.1899  229.3211 H   0  0  0  0  0  0  0  0  0  0  0  0
  141.8484   72.5711  228.6673 H   0  0  0  0  0  0  0  0  0  0  0  0
  141.2952   73.2901  226.3594 H   0  0  0  0  0  0  0  0  0  0  0  0
  1  2  2  0
  2  3  1  0
  3  4  1  0
  4  5  1  0
  5  6  2  0
  5  7  1  0
  7  8  1  0
  8  9  1  0
  9 10  1  0
 10 11  1  0
 11 12  1  0
 12 13  2  0
 13 14  1  0
 14 15  2  0
 15 16  1  0
 15 17  1  0
 17 18  1  0
 17 19  2  0
  2 20  1  0
 20 21  2  0
 21 22  1  0
 22 23  2  0
 23 24  1  0
 24 25  2  0
 25 26  1  0
 26 27  2  0
 27 28  1  0
 28 29  2  0
 11  7  1  0
 19 12  1  0
 29 20  1  0
 28 23  1  0
  3 30  1  0
  4 31  1  0
  4 32  1  0
  8 33  1  0
  8 34  1  0
  9 35  1  0
  9 36  1  0
 10 37  1  0
 10 38  1  0
 11 39  1  6
 13 40  1  0
 14 41  1  0
 19 42  1  0
 21 43  1  0
 22 44  1  0
 24 45  1  0
 25 46  1  0
 26 47  1  0
 27 48  1  0
M  END
>  <smiles>  (18) 
O=C(NCC(=O)N1CCC[C@H]1c1ccc(Cl)c(Cl)c1)c1ccc2ccccc2n1

>  <score_type>  (18) 
oracle

>  <origin>  (18) 
autodockgpu

>  <m_score__min__energy>  (18) 
-9.4299999999999997

>  <m_primary>  (18) 
energy

>  <rmsd>  (18) 
2.303490331334123

>  <m_score__min__rmsd>  (18) 
2.303490331334123

>  <meeko>  (18) 
{"free_energy": -8.31, "intermolecular_energy": -9.8, "internal_energy": -1.87, "cluster_size": 14, "cluster_id": 3, "rank_in_cluster": 11}

>  <energy>  (18) 
-9.36

>  <cluster_rmsd>  (18) 
0.08

>  <cluster>  (18) 
2

$$$$

     RDKit          3D

 48 51  0  0  0  0  0  0  0  0999 V2000
  139.4040   71.3460  221.0520 O   0  0  0  0  0  0  0  0  0  0  0  0
  139.3220   71.9050  222.1780 C   0  0  0  0  0  0  0  0  0  0  0  0
  138.9340   73.2830  222.1960 N   0  0  0  0  0  0  0  0  0  0  0  0
  138.6710   73.9080  220.9330 C   0  0  0  0  0  0  0  0  0  0  0  0
  138.6980   75.3830  221.0060 C   0  0  0  0  0  0  0  0  0  0  0  0
  137.6710   76.1090  221.0220 O   0  0  0  0  0  0  0  0  0  0  0  0
  139.9640   76.0350  221.0640 N   0  0  0  0  0  0  0  0  0  0  0  0
  140.5920   76.4860  222.2950 C   0  0  0  0  0  0  0  0  0  0  0  0
  141.2280   77.7860  221.8450 C   0  0  0  0  0  0  0  0  0  0  0  0
  141.1480   77.8110  220.3400 C   0  0  0  0  0  0  0  0  0  0  0  0
  140.8610   76.3770  219.9710 C   0  0  1  0  0  0  0  0  0  0  0  0
  142.0360   75.4900  220.1120 C   0  0  0  0  0  0  0  0  0  0  0  0
  143.2940   76.0270  219.9710 C   0  0  0  0  0  0  0  0  0  0  0  0
  144.4520   75.2510  220.0900 C   0  0  0  0  0  0  0  0  0  0  0  0
  144.3460   73.8990  220.3570 C   0  0  0  0  0  0  0  0  0  0  0  0
  145.7660   72.8840  220.5150 Cl  0  0  0  0  0  0  0  0  0  0  0  0
  143.0920   73.3490  220.5000 C   0  0  0  0  0  0  0  0  0  0  0  0
  142.9480   71.6240  220.8400 Cl  0  0  0  0  0  0  0  0  0  0  0  0
  141.9490   74.1390  220.3770 C   0  0  0  0  0  0  0  0  0  0  0  0
  139.6040   71.2100  223.4280 C   0  0  0  0  0  0  0  0  0  0  0  0
  139.3520   69.8350  223.4570 C   0  0  0  0  0  0  0  0  0  0  0  0
  139.6280   69.2060  224.6540 C   0  0  0  0  0  0  0  0  0  0  0  0
  140.1190   69.8620  225.7610 C   0  0  0  0  0  0  0  0  0  0  0  0
  140.4000   69.2600  226.9550 C   0  0  0  0  0  0  0  0  0  0  0  0
  140.8910   69.9380  228.0520 C   0  0  0  0  0  0  0  0  0  0  0  0
  141.1220   71.3110  227.9620 C   0  0  0  0  0  0  0  0  0  0  0  0
  140.8380   71.9120  226.7530 C   0  0  0  0  0  0  0  0  0  0  0  0
  140.3460   71.2230  225.6650 C   0  0  0  0  0  0  0  0  0  0  0  0
  140.0820   71.8440  224.5090 N   0  0  0  0  0  0  0  0  0  0  0  0
  138.8450   73.8160  223.0880 H   0  0  0  0  0  0  0  0  0  0  0  0
  139.4337   73.5780  220.2123 H   0  0  0  0  0  0  0  0  0  0  0  0
  137.6587   73.6109  220.6216 H   0  0  0  0  0  0  0  0  0  0  0  0
  139.8485   76.6548  223.0880 H   0  0  0  0  0  0  0  0  0  0  0  0
  141.2999   75.7651  222.7299 H   0  0  0  0  0  0  0  0  0  0  0  0
  140.6809   78.6416  222.2677 H   0  0  0  0  0  0  0  0  0  0  0  0
  142.2715   77.8542  222.1863 H   0  0  0  0  0  0  0  0  0  0  0  0
  140.3369   78.4725  220.0016 H   0  0  0  0  0  0  0  0  0  0  0  0
  142.0661   78.1952  219.8716 H   0  0  0  0  0  0  0  0  0  0  0  0
  140.5111   76.2669  218.9339 H   0  0  0  0  0  0  0  0  0  0  0  0
  143.3931   77.1016  219.7577 H   0  0  0  0  0  0  0  0  0  0  0  0
  145.4424   75.7148  219.9716 H   0  0  0  0  0  0  0  0  0  0  0  0
  140.9583   73.6754  220.4937 H   0  0  0  0  0  0  0  0  0  0  0  0
  138.9602   69.2913  222.5847 H   0  0  0  0  0  0  0  0  0  0  0  0
  139.4463   68.1236  224.7278 H   0  0  0  0  0  0  0  0  0  0  0  0
  140.2256   68.1778  227.0466 H   0  0  0  0  0  0  0  0  0  0  0  0
  141.0985   69.4007  228.9892 H   0  0  0  0  0  0  0  0  0  0  0  0
  141.5119   71.8868  228.8143 H   0  0  0  0  0  0  0  0  0  0  0  0
  141.0126   72.9934  226.6523 H   0  0  0  0  0  0  0  0  0  0  0  0
  1  2  2  0
  2  3  1  0
  3  4  1  0
  4  5  1  0
  5  6  2  0
  5  7  1  0
  7  8  1  0
  8  9  1  0
  9 10  1  0
 10 11  1  0
 11 12  1  0
 12 13  2  0
 13 14  1  0
 14 15  2  0
 15 16  1  0
 15 17  1  0
 17 18  1  0
 17 19  2  0
  2 20  1  0
 20 21  2  0
 21 22  1  0
 22 23  2  0
 23 24  1  0
 24 25  2  0
 25 26  1  0
 26 27  2  0
 27 28  1  0
 28 29  2  0
 11  7  1  0
 19 12  1  0
 29 20  1  0
 28 23  1  0
  3 30  1  0
  4 31  1  0
  4 32  1  0
  8 33  1  0
  8 34  1  0
  9 35  1  0
  9 36  1  0
 10 37  1  0
 10 38  1  0
 11 39  1  6
 13 40  1  0
 14 41  1  0
 19 42  1  0
 21 43  1  0
 22 44  1  0
 24 45  1  0
 25 46  1  0
 26 47  1  0
 27 48  1  0
M  END
>  <smiles>  (19) 
O=C(NCC(=O)N1CCC[C@H]1c1ccc(Cl)c(Cl)c1)c1ccc2ccccc2n1

>  <score_type>  (19) 
oracle

>  <origin>  (19) 
autodockgpu

>  <m_score__min__energy>  (19) 
-9.4299999999999997

>  <m_primary>  (19) 
energy

>  <rmsd>  (19) 
2.261310559997602

>  <m_score__min__rmsd>  (19) 
2.261310559997602

>  <meeko>  (19) 
{"free_energy": -8.41, "intermolecular_energy": -9.9, "internal_energy": -1.93, "cluster_size": 14, "cluster_id": 3, "rank_in_cluster": 10}

>  <energy>  (19) 
-9.13

>  <cluster_rmsd>  (19) 
1.12

>  <cluster>  (19) 
2

$$$$

     RDKit          3D

 48 51  0  0  0  0  0  0  0  0999 V2000
  138.2330   70.9050  221.7790 O   0  0  0  0  0  0  0  0  0  0  0  0
  138.8720   71.3680  222.7600 C   0  0  0  0  0  0  0  0  0  0  0  0
  139.2470   72.7490  222.7020 N   0  0  0  0  0  0  0  0  0  0  0  0
  138.8650   73.4850  221.5320 C   0  0  0  0  0  0  0  0  0  0  0  0
  138.8050   74.9420  221.7650 C   0  0  0  0  0  0  0  0  0  0  0  0
  137.8110   75.5410  222.2490 O   0  0  0  0  0  0  0  0  0  0  0  0
  139.9430   75.7280  221.4220 N   0  0  0  0  0  0  0  0  0  0  0  0
  140.6940   76.5320  222.3730 C   0  0  0  0  0  0  0  0  0  0  0  0
  141.0290   77.7490  221.5340 C   0  0  0  0  0  0  0  0  0  0  0  0
  140.6900   77.4000  220.1070 C   0  0  0  0  0  0  0  0  0  0  0  0
  140.5750   75.8970  220.1220 C   0  0  1  0  0  0  0  0  0  0  0  0
  141.8820   75.2090  220.2090 C   0  0  0  0  0  0  0  0  0  0  0  0
  143.0310   75.9460  220.0400 C   0  0  0  0  0  0  0  0  0  0  0  0
  144.3030   75.3660  220.1090 C   0  0  0  0  0  0  0  0  0  0  0  0
  144.4250   74.0120  220.3510 C   0  0  0  0  0  0  0  0  0  0  0  0
  145.9950   73.2380  220.4460 Cl  0  0  0  0  0  0  0  0  0  0  0  0
  143.2830   73.2630  220.5210 C   0  0  0  0  0  0  0  0  0  0  0  0
  143.4300   71.5330  220.8310 Cl  0  0  0  0  0  0  0  0  0  0  0  0
  142.0240   73.8590  220.4490 C   0  0  0  0  0  0  0  0  0  0  0  0
  139.2300   70.5640  223.9220 C   0  0  0  0  0  0  0  0  0  0  0  0
  138.9590   69.1940  223.8490 C   0  0  0  0  0  0  0  0  0  0  0  0
  139.3100   68.4600  224.9640 C   0  0  0  0  0  0  0  0  0  0  0  0
  139.8890   69.0120  226.0860 C   0  0  0  0  0  0  0  0  0  0  0  0
  140.2430   68.3050  227.1990 C   0  0  0  0  0  0  0  0  0  0  0  0
  140.8230   68.8790  228.3130 C   0  0  0  0  0  0  0  0  0  0  0  0
  141.0690   70.2520  228.3260 C   0  0  0  0  0  0  0  0  0  0  0  0
  140.7080   70.9600  227.1970 C   0  0  0  0  0  0  0  0  0  0  0  0
  140.1300   70.3730  226.0920 C   0  0  0  0  0  0  0  0  0  0  0  0
  139.7940   71.0960  225.0160 N   0  0  0  0  0  0  0  0  0  0  0  0
  139.7780   73.2070  223.4740 H   0  0  0  0  0  0  0  0  0  0  0  0
  139.5989   73.2864  220.7370 H   0  0  0  0  0  0  0  0  0  0  0  0
  137.8552   73.1538  221.2482 H   0  0  0  0  0  0  0  0  0  0  0  0
  140.0807   76.8010  223.2457 H   0  0  0  0  0  0  0  0  0  0  0  0
  141.5713   76.0233  222.7990 H   0  0  0  0  0  0  0  0  0  0  0  0
  140.4333   78.6127  221.8645 H   0  0  0  0  0  0  0  0  0  0  0  0
  142.0912   78.0172  221.6334 H   0  0  0  0  0  0  0  0  0  0  0  0
  139.7387   77.8628  219.8058 H   0  0  0  0  0  0  0  0  0  0  0  0
  141.4420   77.7620  219.3904 H   0  0  0  0  0  0  0  0  0  0  0  0
  140.0751   75.5013  219.2256 H   0  0  0  0  0  0  0  0  0  0  0  0
  142.9476   77.0253  219.8444 H   0  0  0  0  0  0  0  0  0  0  0  0
  145.2012   75.9859  219.9711 H   0  0  0  0  0  0  0  0  0  0  0  0
  141.1259   73.2390  220.5866 H   0  0  0  0  0  0  0  0  0  0  0  0
  138.4976   68.7328  222.9634 H   0  0  0  0  0  0  0  0  0  0  0  0
  139.1173   67.3770  224.9565 H   0  0  0  0  0  0  0  0  0  0  0  0
  140.0563   67.2210  227.2089 H   0  0  0  0  0  0  0  0  0  0  0  0
  141.0886   68.2592  229.1821 H   0  0  0  0  0  0  0  0  0  0  0  0
  141.5286   70.7469  229.1942 H   0  0  0  0  0  0  0  0  0  0  0  0
  140.8904   72.0446  227.1785 H   0  0  0  0  0  0  0  0  0  0  0  0
  1  2  2  0
  2  3  1  0
  3  4  1  0
  4  5  1  0
  5  6  2  0
  5  7  1  0
  7  8  1  0
  8  9  1  0
  9 10  1  0
 10 11  1  0
 11 12  1  0
 12 13  2  0
 13 14  1  0
 14 15  2  0
 15 16  1  0
 15 17  1  0
 17 18  1  0
 17 19  2  0
  2 20  1  0
 20 21  2  0
 21 22  1  0
 22 23  2  0
 23 24  1  0
 24 25  2  0
 25 26  1  0
 26 27  2  0
 27 28  1  0
 28 29  2  0
 11  7  1  0
 19 12  1  0
 29 20  1  0
 28 23  1  0
  3 30  1  0
  4 31  1  0
  4 32  1  0
  8 33  1  0
  8 34  1  0
  9 35  1  0
  9 36  1  0
 10 37  1  0
 10 38  1  0
 11 39  1  6
 13 40  1  0
 14 41  1  0
 19 42  1  0
 21 43  1  0
 22 44  1  0
 24 45  1  0
 25 46  1  0
 26 47  1  0
 27 48  1  0
M  END
>  <smiles>  (20) 
O=C(NCC(=O)N1CCC[C@H]1c1ccc(Cl)c(Cl)c1)c1ccc2ccccc2n1

>  <score_type>  (20) 
oracle

>  <origin>  (20) 
autodockgpu

>  <m_score__min__energy>  (20) 
-9.4299999999999997

>  <m_primary>  (20) 
energy

>  <rmsd>  (20) 
2.223662282936106

>  <m_score__min__rmsd>  (20) 
2.223662282936106

>  <meeko>  (20) 
{"free_energy": -8.48, "intermolecular_energy": -9.97, "internal_energy": -1.59, "cluster_size": 14, "cluster_id": 3, "rank_in_cluster": 9}

>  <energy>  (20) 
-9.09

>  <cluster_rmsd>  (20) 
1.14

>  <cluster>  (20) 
2

$$$$

     RDKit          3D

 48 51  0  0  0  0  0  0  0  0999 V2000
  139.5970   71.1670  221.2430 O   0  0  0  0  0  0  0  0  0  0  0  0
  139.5120   71.8010  222.3280 C   0  0  0  0  0  0  0  0  0  0  0  0
  139.2010   73.1960  222.2460 N   0  0  0  0  0  0  0  0  0  0  0  0
  139.0120   73.7510  220.9370 C   0  0  0  0  0  0  0  0  0  0  0  0
  140.2810   73.9400  220.2050 C   0  0  0  0  0  0  0  0  0  0  0  0
  140.9550   73.0030  219.7060 O   0  0  0  0  0  0  0  0  0  0  0  0
  140.7790   75.2660  220.0480 N   0  0  0  0  0  0  0  0  0  0  0  0
  140.3330   76.1870  219.0160 C   0  0  0  0  0  0  0  0  0  0  0  0
  141.6310   76.8820  218.6560 C   0  0  0  0  0  0  0  0  0  0  0  0
  142.6370   76.4990  219.7120 C   0  0  0  0  0  0  0  0  0  0  0  0
  141.7890   75.9560  220.8350 C   0  0  1  0  0  0  0  0  0  0  0  0
  141.0730   77.0080  221.5900 C   0  0  0  0  0  0  0  0  0  0  0  0
  139.7930   76.7560  222.0260 C   0  0  0  0  0  0  0  0  0  0  0  0
  139.0530   77.7010  222.7450 C   0  0  0  0  0  0  0  0  0  0  0  0
  139.6110   78.9320  223.0340 C   0  0  0  0  0  0  0  0  0  0  0  0
  138.7250   80.1500  223.9310 Cl  0  0  0  0  0  0  0  0  0  0  0  0
  140.8910   79.1970  222.6030 C   0  0  0  0  0  0  0  0  0  0  0  0
  141.6110   80.7650  222.9670 Cl  0  0  0  0  0  0  0  0  0  0  0  0
  141.6130   78.2420  221.8870 C   0  0  0  0  0  0  0  0  0  0  0  0
  139.7160   71.1750  223.6290 C   0  0  0  0  0  0  0  0  0  0  0  0
  139.2940   69.8490  223.7640 C   0  0  0  0  0  0  0  0  0  0  0  0
  139.5000   69.2840  225.0060 C   0  0  0  0  0  0  0  0  0  0  0  0
  140.0800   69.9570  226.0600 C   0  0  0  0  0  0  0  0  0  0  0  0
  140.2930   69.4190  227.2960 C   0  0  0  0  0  0  0  0  0  0  0  0
  140.8760   70.1120  228.3380 C   0  0  0  0  0  0  0  0  0  0  0  0
  141.2760   71.4340  228.1420 C   0  0  0  0  0  0  0  0  0  0  0  0
  141.0580   71.9710  226.8900 C   0  0  0  0  0  0  0  0  0  0  0  0
  140.4740   71.2670  225.8580 C   0  0  0  0  0  0  0  0  0  0  0  0
  140.2790   71.8260  224.6570 N   0  0  0  0  0  0  0  0  0  0  0  0
  139.1140   73.7900  223.0980 H   0  0  0  0  0  0  0  0  0  0  0  0
  138.3698   73.0718  220.3570 H   0  0  0  0  0  0  0  0  0  0  0  0
  138.5516   74.7422  221.0616 H   0  0  0  0  0  0  0  0  0  0  0  0
  139.9106   75.6510  218.1533 H   0  0  0  0  0  0  0  0  0  0  0  0
  139.5313   76.8685  219.3367 H   0  0  0  0  0  0  0  0  0  0  0  0
  141.9764   76.5502  217.6657 H   0  0  0  0  0  0  0  0  0  0  0  0
  141.4968   77.9730  218.6156 H   0  0  0  0  0  0  0  0  0  0  0  0
  143.3276   75.7302  219.3351 H   0  0  0  0  0  0  0  0  0  0  0  0
  143.2682   77.3437  220.0251 H   0  0  0  0  0  0  0  0  0  0  0  0
  142.3752   75.3884  221.5727 H   0  0  0  0  0  0  0  0  0  0  0  0
  139.3366   75.7805  221.8023 H   0  0  0  0  0  0  0  0  0  0  0  0
  138.0317   77.4653  223.0788 H   0  0  0  0  0  0  0  0  0  0  0  0
  142.6340   78.4779  221.5524 H   0  0  0  0  0  0  0  0  0  0  0  0
  138.8292   69.2936  222.9361 H   0  0  0  0  0  0  0  0  0  0  0  0
  139.1848   68.2419  225.1632 H   0  0  0  0  0  0  0  0  0  0  0  0
  139.9838   68.3780  227.4713 H   0  0  0  0  0  0  0  0  0  0  0  0
  141.0238   69.6262  229.3138 H   0  0  0  0  0  0  0  0  0  0  0  0
  141.7429   72.0202  228.9472 H   0  0  0  0  0  0  0  0  0  0  0  0
  141.3649   73.0112  226.7060 H   0  0  0  0  0  0  0  0  0  0  0  0
  1  2  2  0
  2  3  1  0
  3  4  1  0
  4  5  1  0
  5  6  2  0
  5  7  1  0
  7  8  1  0
  8  9  1  0
  9 10  1  0
 10 11  1  0
 11 12  1  0
 12 13  2  0
 13 14  1  0
 14 15  2  0
 15 16  1  0
 15 17  1  0
 17 18  1  0
 17 19  2  0
  2 20  1  0
 20 21  2  0
 21 22  1  0
 22 23  2  0
 23 24  1  0
 24 25  2  0
 25 26  1  0
 26 27  2  0
 27 28  1  0
 28 29  2  0
 11  7  1  0
 19 12  1  0
 29 20  1  0
 28 23  1  0
  3 30  1  0
  4 31  1  0
  4 32  1  0
  8 33  1  0
  8 34  1  0
  9 35  1  0
  9 36  1  0
 10 37  1  0
 10 38  1  0
 11 39  1  1
 13 40  1  0
 14 41  1  0
 19 42  1  0
 21 43  1  0
 22 44  1  0
 24 45  1  0
 25 46  1  0
 26 47  1  0
 27 48  1  0
M  END
>  <smiles>  (21) 
O=C(NCC(=O)N1CCC[C@H]1c1ccc(Cl)c(Cl)c1)c1ccc2ccccc2n1

>  <score_type>  (21) 
oracle

>  <origin>  (21) 
autodockgpu

>  <m_score__min__energy>  (21) 
-9.4299999999999997

>  <m_primary>  (21) 
energy

>  <rmsd>  (21) 
1.5632372249555706

>  <m_score__min__rmsd>  (21) 
1.5632372249555706

>  <meeko>  (21) 
{"free_energy": -8.63, "intermolecular_energy": -10.12, "internal_energy": -1.41, "cluster_size": 16, "cluster_id": 1, "rank_in_cluster": 8}

>  <energy>  (21) 
-9.06

>  <cluster_rmsd>  (21) 
1.05

>  <cluster>  (21) 
2

$$$$

     RDKit          3D

 48 51  0  0  0  0  0  0  0  0999 V2000
  137.4800   75.6880  222.8140 O   0  0  0  0  0  0  0  0  0  0  0  0
  138.6350   76.0540  222.4720 C   0  0  0  0  0  0  0  0  0  0  0  0
  139.4860   75.0630  221.8840 N   0  0  0  0  0  0  0  0  0  0  0  0
  138.9500   73.7410  221.7360 C   0  0  0  0  0  0  0  0  0  0  0  0
  139.8770   72.6910  222.2040 C   0  0  0  0  0  0  0  0  0  0  0  0
  141.1190   72.8440  222.3200 O   0  0  0  0  0  0  0  0  0  0  0  0
  139.3360   71.4190  222.5510 N   0  0  0  0  0  0  0  0  0  0  0  0
  139.8390   70.1540  222.0410 C   0  0  0  0  0  0  0  0  0  0  0  0
  138.5520   69.3730  221.8600 C   0  0  0  0  0  0  0  0  0  0  0  0
  137.4670   70.1580  222.5520 C   0  0  0  0  0  0  0  0  0  0  0  0
  138.2250   71.1140  223.4390 C   0  0  1  0  0  0  0  0  0  0  0  0
  138.8170   70.4660  224.6300 C   0  0  0  0  0  0  0  0  0  0  0  0
  138.6070   69.1220  224.8260 C   0  0  0  0  0  0  0  0  0  0  0  0
  139.1350   68.4390  225.9280 C   0  0  0  0  0  0  0  0  0  0  0  0
  139.8920   69.1240  226.8580 C   0  0  0  0  0  0  0  0  0  0  0  0
  140.5750   68.3160  228.2560 Cl  0  0  0  0  0  0  0  0  0  0  0  0
  140.1100   70.4710  226.6740 C   0  0  0  0  0  0  0  0  0  0  0  0
  141.0760   71.3530  227.8560 Cl  0  0  0  0  0  0  0  0  0  0  0  0
  139.5750   71.1340  225.5690 C   0  0  0  0  0  0  0  0  0  0  0  0
  139.1200   77.4170  222.6510 C   0  0  0  0  0  0  0  0  0  0  0  0
  138.1550   78.4280  222.6990 C   0  0  0  0  0  0  0  0  0  0  0  0
  138.6440   79.7070  222.8690 C   0  0  0  0  0  0  0  0  0  0  0  0
  139.9860   79.9980  222.9860 C   0  0  0  0  0  0  0  0  0  0  0  0
  140.4920   81.2550  223.1550 C   0  0  0  0  0  0  0  0  0  0  0  0
  141.8410   81.5240  223.2710 C   0  0  0  0  0  0  0  0  0  0  0  0
  142.7560   80.4710  223.2150 C   0  0  0  0  0  0  0  0  0  0  0  0
  142.2370   79.2040  223.0450 C   0  0  0  0  0  0  0  0  0  0  0  0
  140.8870   78.9510  222.9300 C   0  0  0  0  0  0  0  0  0  0  0  0
  140.4240   77.7050  222.7660 N   0  0  0  0  0  0  0  0  0  0  0  0
  140.4570   75.2870  221.5750 H   0  0  0  0  0  0  0  0  0  0  0  0
  138.0189   73.6723  222.3177 H   0  0  0  0  0  0  0  0  0  0  0  0
  138.7747   73.5733  220.6631 H   0  0  0  0  0  0  0  0  0  0  0  0
  140.3672   70.2867  221.0853 H   0  0  0  0  0  0  0  0  0  0  0  0
  140.5742   69.6646  222.6967 H   0  0  0  0  0  0  0  0  0  0  0  0
  138.3199   69.2678  220.7899 H   0  0  0  0  0  0  0  0  0  0  0  0
  138.6402   68.3619  222.2841 H   0  0  0  0  0  0  0  0  0  0  0  0
  136.8522   70.7046  221.8218 H   0  0  0  0  0  0  0  0  0  0  0  0
  136.7707   69.5178  223.1134 H   0  0  0  0  0  0  0  0  0  0  0  0
  137.5955   71.9346  223.8135 H   0  0  0  0  0  0  0  0  0  0  0  0
  138.0046   68.5650  224.0933 H   0  0  0  0  0  0  0  0  0  0  0  0
  138.9479   67.3622  226.0525 H   0  0  0  0  0  0  0  0  0  0  0  0
  139.7614   72.2109  225.4442 H   0  0  0  0  0  0  0  0  0  0  0  0
  137.0791   78.2179  222.6075 H   0  0  0  0  0  0  0  0  0  0  0  0
  137.9248   80.5381  222.9135 H   0  0  0  0  0  0  0  0  0  0  0  0
  139.7871   82.0982  223.2012 H   0  0  0  0  0  0  0  0  0  0  0  0
  142.1916   82.5578  223.4062 H   0  0  0  0  0  0  0  0  0  0  0  0
  143.8389   80.6433  223.3022 H   0  0  0  0  0  0  0  0  0  0  0  0
  142.9344   78.3546  222.9990 H   0  0  0  0  0  0  0  0  0  0  0  0
  1  2  2  0
  2  3  1  0
  3  4  1  0
  4  5  1  0
  5  6  2  0
  5  7  1  0
  7  8  1  0
  8  9  1  0
  9 10  1  0
 10 11  1  0
 11 12  1  0
 12 13  2  0
 13 14  1  0
 14 15  2  0
 15 16  1  0
 15 17  1  0
 17 18  1  0
 17 19  2  0
  2 20  1  0
 20 21  2  0
 21 22  1  0
 22 23  2  0
 23 24  1  0
 24 25  2  0
 25 26  1  0
 26 27  2  0
 27 28  1  0
 28 29  2  0
 11  7  1  0
 19 12  1  0
 29 20  1  0
 28 23  1  0
  3 30  1  0
  4 31  1  0
  4 32  1  0
  8 33  1  0
  8 34  1  0
  9 35  1  0
  9 36  1  0
 10 37  1  0
 10 38  1  0
 11 39  1  1
 13 40  1  0
 14 41  1  0
 19 42  1  0
 21 43  1  0
 22 44  1  0
 24 45  1  0
 25 46  1  0
 26 47  1  0
 27 48  1  0
M  END
>  <smiles>  (22) 
O=C(NCC(=O)N1CCC[C@H]1c1ccc(Cl)c(Cl)c1)c1ccc2ccccc2n1

>  <score_type>  (22) 
oracle

>  <origin>  (22) 
autodockgpu

>  <m_score__min__energy>  (22) 
-9.4299999999999997

>  <m_primary>  (22) 
energy

>  <rmsd>  (22) 
8.344674704814482

>  <m_score__min__rmsd>  (22) 
8.344674704814482

>  <meeko>  (22) 
{"free_energy": -8.75, "intermolecular_energy": -10.24, "internal_energy": -1.39, "cluster_size": 20, "cluster_id": 2, "rank_in_cluster": 17}

>  <energy>  (22) 
-9.05

>  <cluster_rmsd>  (22) 
1.27

>  <cluster>  (22) 
2

$$$$

     RDKit          3D

 48 51  0  0  0  0  0  0  0  0999 V2000
  139.1220   70.7760  221.3060 O   0  0  0  0  0  0  0  0  0  0  0  0
  139.2150   71.5370  222.3050 C   0  0  0  0  0  0  0  0  0  0  0  0
  138.9620   72.9300  222.0900 N   0  0  0  0  0  0  0  0  0  0  0  0
  138.6250   73.3390  220.7580 C   0  0  0  0  0  0  0  0  0  0  0  0
  138.6040   74.8070  220.5950 C   0  0  0  0  0  0  0  0  0  0  0  0
  137.6120   75.4580  220.1790 O   0  0  0  0  0  0  0  0  0  0  0  0
  139.7780   75.5410  220.9310 N   0  0  0  0  0  0  0  0  0  0  0  0
  140.2210   75.7910  222.2920 C   0  0  0  0  0  0  0  0  0  0  0  0
  140.7550   77.2040  222.1770 C   0  0  0  0  0  0  0  0  0  0  0  0
  140.8310   77.5220  220.7050 C   0  0  0  0  0  0  0  0  0  0  0  0
  140.7430   76.1700  220.0410 C   0  0  1  0  0  0  0  0  0  0  0  0
  141.9860   75.3780  220.1570 C   0  0  0  0  0  0  0  0  0  0  0  0
  143.1950   76.0130  220.0000 C   0  0  0  0  0  0  0  0  0  0  0  0
  144.4130   75.3310  220.0960 C   0  0  0  0  0  0  0  0  0  0  0  0
  144.4180   73.9740  220.3550 C   0  0  0  0  0  0  0  0  0  0  0  0
  145.9160   73.0730  220.4840 Cl  0  0  0  0  0  0  0  0  0  0  0  0
  143.2140   73.3250  220.5140 C   0  0  0  0  0  0  0  0  0  0  0  0
  143.2120   71.5930  220.8460 Cl  0  0  0  0  0  0  0  0  0  0  0  0
  142.0110   74.0230  220.4150 C   0  0  0  0  0  0  0  0  0  0  0  0
  139.5640   71.0570  223.6360 C   0  0  0  0  0  0  0  0  0  0  0  0
  139.2690   69.7200  223.9220 C   0  0  0  0  0  0  0  0  0  0  0  0
  139.6100   69.2950  225.1890 C   0  0  0  0  0  0  0  0  0  0  0  0
  140.2020   70.1090  226.1300 C   0  0  0  0  0  0  0  0  0  0  0  0
  140.5480   69.7100  227.3890 C   0  0  0  0  0  0  0  0  0  0  0  0
  141.1410   70.5430  228.3160 C   0  0  0  0  0  0  0  0  0  0  0  0
  141.4110   71.8690  227.9720 C   0  0  0  0  0  0  0  0  0  0  0  0
  141.0590   72.2640  226.6980 C   0  0  0  0  0  0  0  0  0  0  0  0
  140.4670   71.4210  225.7820 C   0  0  0  0  0  0  0  0  0  0  0  0
  140.1400   71.8450  224.5550 N   0  0  0  0  0  0  0  0  0  0  0  0
  139.0200   73.6250  222.8660 H   0  0  0  0  0  0  0  0  0  0  0  0
  139.3678   72.9194  220.0636 H   0  0  0  0  0  0  0  0  0  0  0  0
  137.6111   72.9690  220.5458 H   0  0  0  0  0  0  0  0  0  0  0  0
  139.3848   75.7335  223.0044 H   0  0  0  0  0  0  0  0  0  0  0  0
  140.9542   75.0621  222.6676 H   0  0  0  0  0  0  0  0  0  0  0  0
  140.0767   77.9075  222.6820 H   0  0  0  0  0  0  0  0  0  0  0  0
  141.7434   77.2925  222.6517 H   0  0  0  0  0  0  0  0  0  0  0  0
  139.9923   78.1645  220.3989 H   0  0  0  0  0  0  0  0  0  0  0  0
  141.7452   78.0707  220.4345 H   0  0  0  0  0  0  0  0  0  0  0  0
  140.5184   76.2382  218.9663 H   0  0  0  0  0  0  0  0  0  0  0  0
  143.2053   77.0931  219.7920 H   0  0  0  0  0  0  0  0  0  0  0  0
  145.3616   75.8725  219.9659 H   0  0  0  0  0  0  0  0  0  0  0  0
  141.0622   73.4820  220.5453 H   0  0  0  0  0  0  0  0  0  0  0  0
  138.7969   69.0525  223.1861 H   0  0  0  0  0  0  0  0  0  0  0  0
  139.3981   68.2509  225.4628 H   0  0  0  0  0  0  0  0  0  0  0  0
  140.3432   68.6692  227.6801 H   0  0  0  0  0  0  0  0  0  0  0  0
  141.3986   70.1657  229.3166 H   0  0  0  0  0  0  0  0  0  0  0  0
  141.8815   72.5648  228.6823 H   0  0  0  0  0  0  0  0  0  0  0  0
  141.2607   73.3030  226.3983 H   0  0  0  0  0  0  0  0  0  0  0  0
  1  2  2  0
  2  3  1  0
  3  4  1  0
  4  5  1  0
  5  6  2  0
  5  7  1  0
  7  8  1  0
  8  9  1  0
  9 10  1  0
 10 11  1  0
 11 12  1  0
 12 13  2  0
 13 14  1  0
 14 15  2  0
 15 16  1  0
 15 17  1  0
 17 18  1  0
 17 19  2  0
  2 20  1  0
 20 21  2  0
 21 22  1  0
 22 23  2  0
 23 24  1  0
 24 25  2  0
 25 26  1  0
 26 27  2  0
 27 28  1  0
 28 29  2  0
 11  7  1  0
 19 12  1  0
 29 20  1  0
 28 23  1  0
  3 30  1  0
  4 31  1  0
  4 32  1  0
  8 33  1  0
  8 34  1  0
  9 35  1  0
  9 36  1  0
 10 37  1  0
 10 38  1  0
 11 39  1  6
 13 40  1  0
 14 41  1  0
 19 42  1  0
 21 43  1  0
 22 44  1  0
 24 45  1  0
 25 46  1  0
 26 47  1  0
 27 48  1  0
M  END
>  <smiles>  (23) 
O=C(NCC(=O)N1CCC[C@H]1c1ccc(Cl)c(Cl)c1)c1ccc2ccccc2n1

>  <score_type>  (23) 
oracle

>  <origin>  (23) 
autodockgpu

>  <m_score__min__energy>  (23) 
-9.4299999999999997

>  <m_primary>  (23) 
energy

>  <rmsd>  (23) 
2.3227576574605493

>  <m_score__min__rmsd>  (23) 
2.3227576574605493

>  <meeko>  (23) 
{"free_energy": -8.28, "intermolecular_energy": -9.77, "internal_energy": -1.87, "cluster_size": 14, "cluster_id": 3, "rank_in_cluster": 12}

>  <energy>  (23) 
-9.04

>  <cluster_rmsd>  (23) 
1.06

>  <cluster>  (23) 
2

$$$$

     RDKit          3D

 48 51  0  0  0  0  0  0  0  0999 V2000
  140.8800   71.6070  221.5520 O   0  0  0  0  0  0  0  0  0  0  0  0
  140.0800   71.8490  222.4940 C   0  0  0  0  0  0  0  0  0  0  0  0
  139.2010   72.9680  222.3330 N   0  0  0  0  0  0  0  0  0  0  0  0
  139.3070   73.7160  221.1140 C   0  0  0  0  0  0  0  0  0  0  0  0
  140.1440   74.9250  221.2520 C   0  0  0  0  0  0  0  0  0  0  0  0
  141.3980   74.9290  221.1650 O   0  0  0  0  0  0  0  0  0  0  0  0
  139.4980   76.1700  221.4990 N   0  0  0  0  0  0  0  0  0  0  0  0
  138.6130   76.4200  222.6250 C   0  0  0  0  0  0  0  0  0  0  0  0
  137.5620   77.3060  221.9870 C   0  0  0  0  0  0  0  0  0  0  0  0
  138.0970   77.7130  220.6370 C   0  0  0  0  0  0  0  0  0  0  0  0
  139.5700   77.4010  220.7260 C   0  0  1  0  0  0  0  0  0  0  0  0
  140.3240   78.3640  221.5570 C   0  0  0  0  0  0  0  0  0  0  0  0
  141.1210   77.8840  222.5700 C   0  0  0  0  0  0  0  0  0  0  0  0
  141.8640   78.7340  223.3980 C   0  0  0  0  0  0  0  0  0  0  0  0
  141.8050   80.1000  223.2060 C   0  0  0  0  0  0  0  0  0  0  0  0
  142.7160   81.2070  224.2150 Cl  0  0  0  0  0  0  0  0  0  0  0  0
  141.0110   80.5940  222.1950 C   0  0  0  0  0  0  0  0  0  0  0  0
  140.9300   82.3370  221.9420 Cl  0  0  0  0  0  0  0  0  0  0  0  0
  140.2770   79.7310  221.3800 C   0  0  0  0  0  0  0  0  0  0  0  0
  140.0230   71.0480  223.7100 C   0  0  0  0  0  0  0  0  0  0  0  0
  139.3800   69.8100  223.6200 C   0  0  0  0  0  0  0  0  0  0  0  0
  139.3420   69.0750  224.7870 C   0  0  0  0  0  0  0  0  0  0  0  0
  139.8930   69.5050  225.9750 C   0  0  0  0  0  0  0  0  0  0  0  0
  139.8680   68.7940  227.1410 C   0  0  0  0  0  0  0  0  0  0  0  0
  140.4260   69.2450  228.3190 C   0  0  0  0  0  0  0  0  0  0  0  0
  141.0560   70.4910  228.3460 C   0  0  0  0  0  0  0  0  0  0  0  0
  141.0780   71.2020  227.1650 C   0  0  0  0  0  0  0  0  0  0  0  0
  140.5150   70.7390  225.9940 C   0  0  0  0  0  0  0  0  0  0  0  0
  140.5580   71.4620  224.8680 N   0  0  0  0  0  0  0  0  0  0  0  0
  138.5100   73.2340  223.0670 H   0  0  0  0  0  0  0  0  0  0  0  0
  139.7498   73.0688  220.3426 H   0  0  0  0  0  0  0  0  0  0  0  0
  138.2939   74.0456  220.8400 H   0  0  0  0  0  0  0  0  0  0  0  0
  138.1744   75.4864  223.0072 H   0  0  0  0  0  0  0  0  0  0  0  0
  139.1105   76.8686  223.4975 H   0  0  0  0  0  0  0  0  0  0  0  0
  136.6195   76.7511  221.8693 H   0  0  0  0  0  0  0  0  0  0  0  0
  137.3560   78.1873  222.6122 H   0  0  0  0  0  0  0  0  0  0  0  0
  137.6206   77.1305  219.8346 H   0  0  0  0  0  0  0  0  0  0  0  0
  137.8989   78.7690  220.4011 H   0  0  0  0  0  0  0  0  0  0  0  0
  140.0612   77.3893  219.7418 H   0  0  0  0  0  0  0  0  0  0  0  0
  141.1764   76.7978  222.7348 H   0  0  0  0  0  0  0  0  0  0  0  0
  142.4921   78.3153  224.1981 H   0  0  0  0  0  0  0  0  0  0  0  0
  139.6483   80.1495  220.5803 H   0  0  0  0  0  0  0  0  0  0  0  0
  138.9345   69.4465  222.6822 H   0  0  0  0  0  0  0  0  0  0  0  0
  138.8455   68.0936  224.7683 H   0  0  0  0  0  0  0  0  0  0  0  0
  139.3769   67.8097  227.1405 H   0  0  0  0  0  0  0  0  0  0  0  0
  140.3752   68.6289  229.2288 H   0  0  0  0  0  0  0  0  0  0  0  0
  141.5127   70.8862  229.2653 H   0  0  0  0  0  0  0  0  0  0  0  0
  141.5685   72.1866  227.1561 H   0  0  0  0  0  0  0  0  0  0  0  0
  1  2  2  0
  2  3  1  0
  3  4  1  0
  4  5  1  0
  5  6  2  0
  5  7  1  0
  7  8  1  0
  8  9  1  0
  9 10  1  0
 10 11  1  0
 11 12  1  0
 12 13  2  0
 13 14  1  0
 14 15  2  0
 15 16  1  0
 15 17  1  0
 17 18  1  0
 17 19  2  0
  2 20  1  0
 20 21  2  0
 21 22  1  0
 22 23  2  0
 23 24  1  0
 24 25  2  0
 25 26  1  0
 26 27  2  0
 27 28  1  0
 28 29  2  0
 11  7  1  0
 19 12  1  0
 29 20  1  0
 28 23  1  0
  3 30  1  0
  4 31  1  0
  4 32  1  0
  8 33  1  0
  8 34  1  0
  9 35  1  0
  9 36  1  0
 10 37  1  0
 10 38  1  0
 11 39  1  6
 13 40  1  0
 14 41  1  0
 19 42  1  0
 21 43  1  0
 22 44  1  0
 24 45  1  0
 25 46  1  0
 26 47  1  0
 27 48  1  0
M  END
>  <smiles>  (24) 
O=C(NCC(=O)N1CCC[C@H]1c1ccc(Cl)c(Cl)c1)c1ccc2ccccc2n1

>  <score_type>  (24) 
oracle

>  <origin>  (24) 
autodockgpu

>  <m_score__min__energy>  (24) 
-9.4299999999999997

>  <m_primary>  (24) 
energy

>  <rmsd>  (24) 
2.4438532519612552

>  <m_score__min__rmsd>  (24) 
2.4438532519612552

>  <meeko>  (24) 
{"free_energy": -9.09, "intermolecular_energy": -10.58, "internal_energy": -1.07, "cluster_size": 16, "cluster_id": 1, "rank_in_cluster": 4}

>  <energy>  (24) 
-8.91

>  <cluster_rmsd>  (24) 
1.17

>  <cluster>  (24) 
2

$$$$

     RDKit          3D

 48 51  0  0  0  0  0  0  0  0999 V2000
  141.1350   74.4980  221.3680 O   0  0  0  0  0  0  0  0  0  0  0  0
  140.1530   75.0300  221.9490 C   0  0  0  0  0  0  0  0  0  0  0  0
  139.0730   74.1680  222.3260 N   0  0  0  0  0  0  0  0  0  0  0  0
  139.2020   72.7750  222.0110 C   0  0  0  0  0  0  0  0  0  0  0  0
  138.1660   71.9420  222.6530 C   0  0  0  0  0  0  0  0  0  0  0  0
  137.0200   72.3560  222.9650 O   0  0  0  0  0  0  0  0  0  0  0  0
  138.4740   70.5810  222.9400 N   0  0  0  0  0  0  0  0  0  0  0  0
  139.6120   69.8690  222.3820 C   0  0  0  0  0  0  0  0  0  0  0  0
  139.0190   68.4920  222.1560 C   0  0  0  0  0  0  0  0  0  0  0  0
  137.6910   68.4680  222.8700 C   0  0  0  0  0  0  0  0  0  0  0  0
  137.7630   69.6500  223.8040 C   0  0  1  0  0  0  0  0  0  0  0  0
  138.6420   69.4220  224.9720 C   0  0  0  0  0  0  0  0  0  0  0  0
  138.8100   68.1380  225.4330 C   0  0  0  0  0  0  0  0  0  0  0  0
  139.6250   67.8430  226.5320 C   0  0  0  0  0  0  0  0  0  0  0  0
  140.2880   68.8640  227.1860 C   0  0  0  0  0  0  0  0  0  0  0  0
  141.3200   68.5480  228.5670 Cl  0  0  0  0  0  0  0  0  0  0  0  0
  140.1270   70.1550  226.7340 C   0  0  0  0  0  0  0  0  0  0  0  0
  140.9690   71.4640  227.5630 Cl  0  0  0  0  0  0  0  0  0  0  0  0
  139.3100   70.4280  225.6370 C   0  0  0  0  0  0  0  0  0  0  0  0
  140.0830   76.4560  222.2410 C   0  0  0  0  0  0  0  0  0  0  0  0
  138.8530   77.0850  222.0260 C   0  0  0  0  0  0  0  0  0  0  0  0
  138.8190   78.4340  222.3110 C   0  0  0  0  0  0  0  0  0  0  0  0
  139.9060   79.1400  222.7770 C   0  0  0  0  0  0  0  0  0  0  0  0
  139.8950   80.4750  223.0660 C   0  0  0  0  0  0  0  0  0  0  0  0
  140.9970   81.1620  223.5330 C   0  0  0  0  0  0  0  0  0  0  0  0
  142.1980   80.4790  223.7280 C   0  0  0  0  0  0  0  0  0  0  0  0
  142.2020   79.1310  223.4340 C   0  0  0  0  0  0  0  0  0  0  0  0
  141.0920   78.4570  222.9680 C   0  0  0  0  0  0  0  0  0  0  0  0
  141.1380   77.1480  222.6950 N   0  0  0  0  0  0  0  0  0  0  0  0
  138.2240   74.5320  222.8110 H   0  0  0  0  0  0  0  0  0  0  0  0
  139.1242   72.6532  220.9205 H   0  0  0  0  0  0  0  0  0  0  0  0
  140.1779   72.4396  222.3921 H   0  0  0  0  0  0  0  0  0  0  0  0
  139.9475   70.3229  221.4378 H   0  0  0  0  0  0  0  0  0  0  0  0
  140.5057   69.8750  223.0233 H   0  0  0  0  0  0  0  0  0  0  0  0
  138.8740   68.3138  221.0803 H   0  0  0  0  0  0  0  0  0  0  0  0
  139.6874   67.7064  222.5383 H   0  0  0  0  0  0  0  0  0  0  0  0
  136.8608   68.5818  222.1573 H   0  0  0  0  0  0  0  0  0  0  0  0
  137.5086   67.5199  223.3971 H   0  0  0  0  0  0  0  0  0  0  0  0
  136.7793   69.9335  224.2065 H   0  0  0  0  0  0  0  0  0  0  0  0
  138.2873   67.3161  224.9219 H   0  0  0  0  0  0  0  0  0  0  0  0
  139.7372   66.8034  226.8735 H   0  0  0  0  0  0  0  0  0  0  0  0
  139.1963   71.4674  225.2954 H   0  0  0  0  0  0  0  0  0  0  0  0
  137.9721   76.5408  221.6547 H   0  0  0  0  0  0  0  0  0  0  0  0
  137.8735   78.9749  222.1580 H   0  0  0  0  0  0  0  0  0  0  0  0
  138.9580   81.0320  222.9186 H   0  0  0  0  0  0  0  0  0  0  0  0
  140.9292   82.2383  223.7496 H   0  0  0  0  0  0  0  0  0  0  0  0
  143.0985   80.9908  224.0984 H   0  0  0  0  0  0  0  0  0  0  0  0
  143.1350   78.5665  223.5781 H   0  0  0  0  0  0  0  0  0  0  0  0
  1  2  2  0
  2  3  1  0
  3  4  1  0
  4  5  1  0
  5  6  2  0
  5  7  1  0
  7  8  1  0
  8  9  1  0
  9 10  1  0
 10 11  1  0
 11 12  1  0
 12 13  2  0
 13 14  1  0
 14 15  2  0
 15 16  1  0
 15 17  1  0
 17 18  1  0
 17 19  2  0
  2 20  1  0
 20 21  2  0
 21 22  1  0
 22 23  2  0
 23 24  1  0
 24 25  2  0
 25 26  1  0
 26 27  2  0
 27 28  1  0
 28 29  2  0
 11  7  1  0
 19 12  1  0
 29 20  1  0
 28 23  1  0
  3 30  1  0
  4 31  1  0
  4 32  1  0
  8 33  1  0
  8 34  1  0
  9 35  1  0
  9 36  1  0
 10 37  1  0
 10 38  1  0
 11 39  1  1
 13 40  1  0
 14 41  1  0
 19 42  1  0
 21 43  1  0
 22 44  1  0
 24 45  1  0
 25 46  1  0
 26 47  1  0
 27 48  1  0
M  END
>  <smiles>  (25) 
O=C(NCC(=O)N1CCC[C@H]1c1ccc(Cl)c(Cl)c1)c1ccc2ccccc2n1

>  <score_type>  (25) 
oracle

>  <origin>  (25) 
autodockgpu

>  <m_score__min__energy>  (25) 
-9.4299999999999997

>  <m_primary>  (25) 
energy

>  <rmsd>  (25) 
8.319077120984263

>  <m_score__min__rmsd>  (25) 
8.319077120984263

>  <meeko>  (25) 
{"free_energy": -9.05, "intermolecular_energy": -10.54, "internal_energy": -1.48, "cluster_size": 20, "cluster_id": 2, "rank_in_cluster": 6}

>  <energy>  (25) 
-8.85

>  <cluster_rmsd>  (25) 
0.89

>  <cluster>  (25) 
2

$$$$

     RDKit          3D

 48 51  0  0  0  0  0  0  0  0999 V2000
  140.2090   71.4410  221.2490 O   0  0  0  0  0  0  0  0  0  0  0  0
  139.6970   71.8710  222.3160 C   0  0  0  0  0  0  0  0  0  0  0  0
  138.9140   73.0670  222.2270 N   0  0  0  0  0  0  0  0  0  0  0  0
  138.7800   73.6710  220.9330 C   0  0  0  0  0  0  0  0  0  0  0  0
  138.7110   75.1450  220.9920 C   0  0  0  0  0  0  0  0  0  0  0  0
  137.6400   75.8010  221.0530 O   0  0  0  0  0  0  0  0  0  0  0  0
  139.9320   75.8800  220.9810 N   0  0  0  0  0  0  0  0  0  0  0  0
  140.5460   76.4570  222.1660 C   0  0  0  0  0  0  0  0  0  0  0  0
  141.0880   77.7610  221.6150 C   0  0  0  0  0  0  0  0  0  0  0  0
  140.9860   77.6740  220.1130 C   0  0  0  0  0  0  0  0  0  0  0  0
  140.7900   76.2010  219.8510 C   0  0  1  0  0  0  0  0  0  0  0  0
  142.0230   75.4040  220.0320 C   0  0  0  0  0  0  0  0  0  0  0  0
  143.2410   76.0360  219.9390 C   0  0  0  0  0  0  0  0  0  0  0  0
  144.4490   75.3490  220.0980 C   0  0  0  0  0  0  0  0  0  0  0  0
  144.4360   73.9920  220.3570 C   0  0  0  0  0  0  0  0  0  0  0  0
  145.9220   73.0850  220.5640 Cl  0  0  0  0  0  0  0  0  0  0  0  0
  143.2230   73.3470  220.4520 C   0  0  0  0  0  0  0  0  0  0  0  0
  143.1970   71.6150  220.7820 Cl  0  0  0  0  0  0  0  0  0  0  0  0
  142.0290   74.0490  220.2900 C   0  0  0  0  0  0  0  0  0  0  0  0
  139.8710   71.2080  223.6010 C   0  0  0  0  0  0  0  0  0  0  0  0
  139.5030   69.8610  223.6720 C   0  0  0  0  0  0  0  0  0  0  0  0
  139.6800   69.2620  224.9020 C   0  0  0  0  0  0  0  0  0  0  0  0
  140.1830   69.9200  226.0030 C   0  0  0  0  0  0  0  0  0  0  0  0
  140.3670   69.3460  227.2290 C   0  0  0  0  0  0  0  0  0  0  0  0
  140.8730   70.0250  228.3190 C   0  0  0  0  0  0  0  0  0  0  0  0
  141.2220   71.3700  228.1860 C   0  0  0  0  0  0  0  0  0  0  0  0
  141.0350   71.9420  226.9450 C   0  0  0  0  0  0  0  0  0  0  0  0
  140.5280   71.2510  225.8640 C   0  0  0  0  0  0  0  0  0  0  0  0
  140.3610   71.8450  224.6760 N   0  0  0  0  0  0  0  0  0  0  0  0
  138.4560   73.4870  223.0650 H   0  0  0  0  0  0  0  0  0  0  0  0
  139.6473   73.3843  220.3202 H   0  0  0  0  0  0  0  0  0  0  0  0
  137.8354   73.3131  220.4975 H   0  0  0  0  0  0  0  0  0  0  0  0
  139.8042   76.6324  222.9590 H   0  0  0  0  0  0  0  0  0  0  0  0
  141.3063   75.8163  222.6366 H   0  0  0  0  0  0  0  0  0  0  0  0
  140.4910   78.6067  221.9869 H   0  0  0  0  0  0  0  0  0  0  0  0
  142.1291   77.9214  221.9317 H   0  0  0  0  0  0  0  0  0  0  0  0
  140.1281   78.2553  219.7440 H   0  0  0  0  0  0  0  0  0  0  0  0
  141.8698   78.0834  219.6019 H   0  0  0  0  0  0  0  0  0  0  0  0
  140.4346   75.9948  218.8306 H   0  0  0  0  0  0  0  0  0  0  0  0
  143.2660   77.1163  219.7330 H   0  0  0  0  0  0  0  0  0  0  0  0
  145.4052   75.8868  220.0172 H   0  0  0  0  0  0  0  0  0  0  0  0
  141.0727   73.5113  220.3696 H   0  0  0  0  0  0  0  0  0  0  0  0
  139.0997   69.3159  222.8058 H   0  0  0  0  0  0  0  0  0  0  0  0
  139.4048   68.2024  225.0095 H   0  0  0  0  0  0  0  0  0  0  0  0
  140.0977   68.2868  227.3541 H   0  0  0  0  0  0  0  0  0  0  0  0
  141.0000   69.5111  229.2833 H   0  0  0  0  0  0  0  0  0  0  0  0
  141.6270   71.9464  229.0309 H   0  0  0  0  0  0  0  0  0  0  0  0
  141.3031   73.0003  226.8107 H   0  0  0  0  0  0  0  0  0  0  0  0
  1  2  2  0
  2  3  1  0
  3  4  1  0
  4  5  1  0
  5  6  2  0
  5  7  1  0
  7  8  1  0
  8  9  1  0
  9 10  1  0
 10 11  1  0
 11 12  1  0
 12 13  2  0
 13 14  1  0
 14 15  2  0
 15 16  1  0
 15 17  1  0
 17 18  1  0
 17 19  2  0
  2 20  1  0
 20 21  2  0
 21 22  1  0
 22 23  2  0
 23 24  1  0
 24 25  2  0
 25 26  1  0
 26 27  2  0
 27 28  1  0
 28 29  2  0
 11  7  1  0
 19 12  1  0
 29 20  1  0
 28 23  1  0
  3 30  1  0
  4 31  1  0
  4 32  1  0
  8 33  1  0
  8 34  1  0
  9 35  1  0
  9 36  1  0
 10 37  1  0
 10 38  1  0
 11 39  1  6
 13 40  1  0
 14 41  1  0
 19 42  1  0
 21 43  1  0
 22 44  1  0
 24 45  1  0
 25 46  1  0
 26 47  1  0
 27 48  1  0
M  END
>  <smiles>  (26) 
O=C(NCC(=O)N1CCC[C@H]1c1ccc(Cl)c(Cl)c1)c1ccc2ccccc2n1

>  <score_type>  (26) 
oracle

>  <origin>  (26) 
autodockgpu

>  <m_score__min__energy>  (26) 
-9.4299999999999997

>  <m_primary>  (26) 
energy

>  <rmsd>  (26) 
2.227183234031463

>  <m_score__min__rmsd>  (26) 
2.227183234031463

>  <meeko>  (26) 
{"free_energy": -8.68, "intermolecular_energy": -10.17, "internal_energy": -1.8, "cluster_size": 14, "cluster_id": 3, "rank_in_cluster": 3}

>  <energy>  (26) 
-8.84

>  <cluster_rmsd>  (26) 
0.93

>  <cluster>  (26) 
2

$$$$

     RDKit          3D

 48 51  0  0  0  0  0  0  0  0999 V2000
  137.4000   76.0550  222.4090 O   0  0  0  0  0  0  0  0  0  0  0  0
  138.6420   76.2640  222.4540 C   0  0  0  0  0  0  0  0  0  0  0  0
  139.5000   75.1410  222.2240 N   0  0  0  0  0  0  0  0  0  0  0  0
  138.8750   73.8770  221.9630 C   0  0  0  0  0  0  0  0  0  0  0  0
  139.8290   72.7510  221.9750 C   0  0  0  0  0  0  0  0  0  0  0  0
  141.0430   72.8480  221.6580 O   0  0  0  0  0  0  0  0  0  0  0  0
  139.3550   71.4670  222.3720 N   0  0  0  0  0  0  0  0  0  0  0  0
  139.9440   70.2110  221.9360 C   0  0  0  0  0  0  0  0  0  0  0  0
  138.7100   69.3480  221.7650 C   0  0  0  0  0  0  0  0  0  0  0  0
  137.5630   70.0990  222.3920 C   0  0  0  0  0  0  0  0  0  0  0  0
  138.2410   71.1400  223.2480 C   0  0  1  0  0  0  0  0  0  0  0  0
  138.8380   70.5860  224.4820 C   0  0  0  0  0  0  0  0  0  0  0  0
  138.6300   69.2600  224.7830 C   0  0  0  0  0  0  0  0  0  0  0  0
  139.1630   68.6650  225.9320 C   0  0  0  0  0  0  0  0  0  0  0  0
  139.9240   69.4200  226.8030 C   0  0  0  0  0  0  0  0  0  0  0  0
  140.6140   68.7220  228.2560 Cl  0  0  0  0  0  0  0  0  0  0  0  0
  140.1400   70.7480  226.5140 C   0  0  0  0  0  0  0  0  0  0  0  0
  141.1110   71.7190  227.6210 Cl  0  0  0  0  0  0  0  0  0  0  0  0
  139.6000   71.3240  225.3640 C   0  0  0  0  0  0  0  0  0  0  0  0
  139.2140   77.5760  222.7250 C   0  0  0  0  0  0  0  0  0  0  0  0
  138.3160   78.6290  222.9220 C   0  0  0  0  0  0  0  0  0  0  0  0
  138.8880   79.8580  223.1760 C   0  0  0  0  0  0  0  0  0  0  0  0
  140.2490   80.0650  223.2380 C   0  0  0  0  0  0  0  0  0  0  0  0
  140.8370   81.2710  223.4880 C   0  0  0  0  0  0  0  0  0  0  0  0
  142.2030   81.4550  223.5450 C   0  0  0  0  0  0  0  0  0  0  0  0
  143.0500   80.3650  223.3400 C   0  0  0  0  0  0  0  0  0  0  0  0
  142.4490   79.1490  223.0890 C   0  0  0  0  0  0  0  0  0  0  0  0
  141.0820   78.9800  223.0340 C   0  0  0  0  0  0  0  0  0  0  0  0
  140.5380   77.7820  222.7860 N   0  0  0  0  0  0  0  0  0  0  0  0
  140.5390   75.2310  222.2450 H   0  0  0  0  0  0  0  0  0  0  0  0
  138.1107   73.6977  222.7335 H   0  0  0  0  0  0  0  0  0  0  0  0
  138.4367   73.9274  220.9554 H   0  0  0  0  0  0  0  0  0  0  0  0
  140.4875   70.3291  220.9870 H   0  0  0  0  0  0  0  0  0  0  0  0
  140.6899   69.7979  222.6310 H   0  0  0  0  0  0  0  0  0  0  0  0
  138.5121   69.1777  220.6964 H   0  0  0  0  0  0  0  0  0  0  0  0
  138.8461   68.3659  222.2413 H   0  0  0  0  0  0  0  0  0  0  0  0
  136.9365   70.5723  221.6216 H   0  0  0  0  0  0  0  0  0  0  0  0
  136.8907   69.4461  222.9680 H   0  0  0  0  0  0  0  0  0  0  0  0
  137.5556   71.9391  223.5668 H   0  0  0  0  0  0  0  0  0  0  0  0
  138.0251   68.6474  224.0983 H   0  0  0  0  0  0  0  0  0  0  0  0
  138.9768   67.6011  226.1405 H   0  0  0  0  0  0  0  0  0  0  0  0
  139.7855   72.3881  225.1562 H   0  0  0  0  0  0  0  0  0  0  0  0
  137.2261   78.4869  222.8774 H   0  0  0  0  0  0  0  0  0  0  0  0
  138.2224   80.7187  223.3377 H   0  0  0  0  0  0  0  0  0  0  0  0
  140.1869   82.1429  223.6529 H   0  0  0  0  0  0  0  0  0  0  0  0
  142.6208   82.4517  223.7501 H   0  0  0  0  0  0  0  0  0  0  0  0
  144.1443   80.4704  223.3768 H   0  0  0  0  0  0  0  0  0  0  0  0
  143.0918   78.2716  222.9248 H   0  0  0  0  0  0  0  0  0  0  0  0
  1  2  2  0
  2  3  1  0
  3  4  1  0
  4  5  1  0
  5  6  2  0
  5  7  1  0
  7  8  1  0
  8  9  1  0
  9 10  1  0
 10 11  1  0
 11 12  1  0
 12 13  2  0
 13 14  1  0
 14 15  2  0
 15 16  1  0
 15 17  1  0
 17 18  1  0
 17 19  2  0
  2 20  1  0
 20 21  2  0
 21 22  1  0
 22 23  2  0
 23 24  1  0
 24 25  2  0
 25 26  1  0
 26 27  2  0
 27 28  1  0
 28 29  2  0
 11  7  1  0
 19 12  1  0
 29 20  1  0
 28 23  1  0
  3 30  1  0
  4 31  1  0
  4 32  1  0
  8 33  1  0
  8 34  1  0
  9 35  1  0
  9 36  1  0
 10 37  1  0
 10 38  1  0
 11 39  1  1
 13 40  1  0
 14 41  1  0
 19 42  1  0
 21 43  1  0
 22 44  1  0
 24 45  1  0
 25 46  1  0
 26 47  1  0
 27 48  1  0
M  END
>  <smiles>  (27) 
O=C(NCC(=O)N1CCC[C@H]1c1ccc(Cl)c(Cl)c1)c1ccc2ccccc2n1

>  <score_type>  (27) 
oracle

>  <origin>  (27) 
autodockgpu

>  <m_score__min__energy>  (27) 
-9.4299999999999997

>  <m_primary>  (27) 
energy

>  <rmsd>  (27) 
8.33919720697444

>  <m_score__min__rmsd>  (27) 
8.33919720697444

>  <meeko>  (27) 
{"free_energy": -8.69, "intermolecular_energy": -10.18, "internal_energy": -1.57, "cluster_size": 20, "cluster_id": 2, "rank_in_cluster": 18}

>  <energy>  (27) 
-8.83

>  <cluster_rmsd>  (27) 
0.93

>  <cluster>  (27) 
2

$$$$

     RDKit          3D

 48 51  0  0  0  0  0  0  0  0999 V2000
  141.5480   74.6930  221.2790 O   0  0  0  0  0  0  0  0  0  0  0  0
  140.5570   75.0960  221.9450 C   0  0  0  0  0  0  0  0  0  0  0  0
  139.5930   74.1130  222.3390 N   0  0  0  0  0  0  0  0  0  0  0  0
  139.8370   72.7570  221.9430 C   0  0  0  0  0  0  0  0  0  0  0  0
  138.6020   71.9520  221.8600 C   0  0  0  0  0  0  0  0  0  0  0  0
  137.5290   72.3550  221.3420 O   0  0  0  0  0  0  0  0  0  0  0  0
  138.6180   70.6320  222.3950 N   0  0  0  0  0  0  0  0  0  0  0  0
  139.5680   69.6040  222.0010 C   0  0  0  0  0  0  0  0  0  0  0  0
  138.6910   68.3680  222.0150 C   0  0  0  0  0  0  0  0  0  0  0  0
  137.4010   68.7570  222.6900 C   0  0  0  0  0  0  0  0  0  0  0  0
  137.7400   70.0460  223.3960 C   0  0  1  0  0  0  0  0  0  0  0  0
  138.5690   69.8520  224.6060 C   0  0  0  0  0  0  0  0  0  0  0  0
  138.5610   68.6240  225.2260 C   0  0  0  0  0  0  0  0  0  0  0  0
  139.3190   68.3650  226.3730 C   0  0  0  0  0  0  0  0  0  0  0  0
  140.1050   69.3640  226.9140 C   0  0  0  0  0  0  0  0  0  0  0  0
  141.0720   69.0900  228.3500 Cl  0  0  0  0  0  0  0  0  0  0  0  0
  140.1210   70.5980  226.3040 C   0  0  0  0  0  0  0  0  0  0  0  0
  141.1220   71.8790  226.9880 Cl  0  0  0  0  0  0  0  0  0  0  0  0
  139.3590   70.8370  225.1610 C   0  0  0  0  0  0  0  0  0  0  0  0
  140.3680   76.4930  222.3150 C   0  0  0  0  0  0  0  0  0  0  0  0
  139.0500   76.9530  222.3870 C   0  0  0  0  0  0  0  0  0  0  0  0
  138.9030   78.2790  222.7400 C   0  0  0  0  0  0  0  0  0  0  0  0
  139.9640   79.1160  223.0100 C   0  0  0  0  0  0  0  0  0  0  0  0
  139.8420   80.4300  223.3610 C   0  0  0  0  0  0  0  0  0  0  0  0
  140.9190   81.2500  223.6270 C   0  0  0  0  0  0  0  0  0  0  0  0
  142.2120   80.7320  223.5390 C   0  0  0  0  0  0  0  0  0  0  0  0
  142.3280   79.4030  223.1850 C   0  0  0  0  0  0  0  0  0  0  0  0
  141.2420   78.5960  222.9210 C   0  0  0  0  0  0  0  0  0  0  0  0
  141.3970   77.3110  222.5800 N   0  0  0  0  0  0  0  0  0  0  0  0
  138.7450   74.3670  222.8910 H   0  0  0  0  0  0  0  0  0  0  0  0
  140.3203   72.7614  220.9548 H   0  0  0  0  0  0  0  0  0  0  0  0
  140.4787   72.2992  222.7102 H   0  0  0  0  0  0  0  0  0  0  0  0
  139.9766   69.7964  220.9980 H   0  0  0  0  0  0  0  0  0  0  0  0
  140.4530   69.5357  222.6507 H   0  0  0  0  0  0  0  0  0  0  0  0
  138.4938   68.0320  220.9863 H   0  0  0  0  0  0  0  0  0  0  0  0
  139.1823   67.5414  222.5492 H   0  0  0  0  0  0  0  0  0  0  0  0
  136.6028   68.9138  221.9495 H   0  0  0  0  0  0  0  0  0  0  0  0
  137.0283   67.9815  223.3753 H   0  0  0  0  0  0  0  0  0  0  0  0
  136.8463   70.6007  223.7180 H   0  0  0  0  0  0  0  0  0  0  0  0
  137.9386   67.8199  224.8064 H   0  0  0  0  0  0  0  0  0  0  0  0
  139.2893   67.3704  226.8419 H   0  0  0  0  0  0  0  0  0  0  0  0
  139.3885   71.8317  224.6922 H   0  0  0  0  0  0  0  0  0  0  0  0
  138.1885   76.3022  222.1766 H   0  0  0  0  0  0  0  0  0  0  0  0
  137.8849   78.6896  222.8096 H   0  0  0  0  0  0  0  0  0  0  0  0
  138.8312   80.8574  223.4356 H   0  0  0  0  0  0  0  0  0  0  0  0
  140.7602   82.3022  223.9058 H   0  0  0  0  0  0  0  0  0  0  0  0
  143.0966   81.3534  223.7421 H   0  0  0  0  0  0  0  0  0  0  0  0
  143.3351   78.9670  223.1099 H   0  0  0  0  0  0  0  0  0  0  0  0
  1  2  2  0
  2  3  1  0
  3  4  1  0
  4  5  1  0
  5  6  2  0
  5  7  1  0
  7  8  1  0
  8  9  1  0
  9 10  1  0
 10 11  1  0
 11 12  1  0
 12 13  2  0
 13 14  1  0
 14 15  2  0
 15 16  1  0
 15 17  1  0
 17 18  1  0
 17 19  2  0
  2 20  1  0
 20 21  2  0
 21 22  1  0
 22 23  2  0
 23 24  1  0
 24 25  2  0
 25 26  1  0
 26 27  2  0
 27 28  1  0
 28 29  2  0
 11  7  1  0
 19 12  1  0
 29 20  1  0
 28 23  1  0
  3 30  1  0
  4 31  1  0
  4 32  1  0
  8 33  1  0
  8 34  1  0
  9 35  1  0
  9 36  1  0
 10 37  1  0
 10 38  1  0
 11 39  1  1
 13 40  1  0
 14 41  1  0
 19 42  1  0
 21 43  1  0
 22 44  1  0
 24 45  1  0
 25 46  1  0
 26 47  1  0
 27 48  1  0
M  END
>  <smiles>  (28) 
O=C(NCC(=O)N1CCC[C@H]1c1ccc(Cl)c(Cl)c1)c1ccc2ccccc2n1

>  <score_type>  (28) 
oracle

>  <origin>  (28) 
autodockgpu

>  <m_score__min__energy>  (28) 
-9.4299999999999997

>  <m_primary>  (28) 
energy

>  <rmsd>  (28) 
8.271888219172128

>  <m_score__min__rmsd>  (28) 
8.271888219172128

>  <meeko>  (28) 
{"free_energy": -8.91, "intermolecular_energy": -10.4, "internal_energy": -1.33, "cluster_size": 20, "cluster_id": 2, "rank_in_cluster": 8}

>  <energy>  (28) 
-8.83

>  <cluster_rmsd>  (28) 
0.92

>  <cluster>  (28) 
2

$$$$

     RDKit          3D

 48 51  0  0  0  0  0  0  0  0999 V2000
  140.5250   74.6530  220.2450 O   0  0  0  0  0  0  0  0  0  0  0  0
  140.1980   75.4030  221.2030 C   0  0  0  0  0  0  0  0  0  0  0  0
  139.2730   74.8730  222.1590 N   0  0  0  0  0  0  0  0  0  0  0  0
  138.7990   73.5370  221.9450 C   0  0  0  0  0  0  0  0  0  0  0  0
  139.7910   72.5090  222.3170 C   0  0  0  0  0  0  0  0  0  0  0  0
  141.0340   72.7000  222.3360 O   0  0  0  0  0  0  0  0  0  0  0  0
  139.3200   71.2140  222.6810 N   0  0  0  0  0  0  0  0  0  0  0  0
  139.8830   69.9720  222.1790 C   0  0  0  0  0  0  0  0  0  0  0  0
  138.6370   69.1240  222.0170 C   0  0  0  0  0  0  0  0  0  0  0  0
  137.5180   69.8590  222.7100 C   0  0  0  0  0  0  0  0  0  0  0  0
  138.2320   70.8630  223.5810 C   0  0  1  0  0  0  0  0  0  0  0  0
  138.8660   70.2580  224.7730 C   0  0  0  0  0  0  0  0  0  0  0  0
  138.7280   68.9060  224.9840 C   0  0  0  0  0  0  0  0  0  0  0  0
  139.2990   68.2640  226.0880 C   0  0  0  0  0  0  0  0  0  0  0  0
  140.0260   68.9960  227.0060 C   0  0  0  0  0  0  0  0  0  0  0  0
  140.7600   68.2390  228.4060 Cl  0  0  0  0  0  0  0  0  0  0  0  0
  140.1710   70.3510  226.8070 C   0  0  0  0  0  0  0  0  0  0  0  0
  141.0970   71.2940  227.9750 Cl  0  0  0  0  0  0  0  0  0  0  0  0
  139.5940   70.9740  225.7000 C   0  0  0  0  0  0  0  0  0  0  0  0
  140.7180   76.7550  221.3630 C   0  0  0  0  0  0  0  0  0  0  0  0
  140.9350   77.4900  220.1940 C   0  0  0  0  0  0  0  0  0  0  0  0
  141.4280   78.7660  220.3780 C   0  0  0  0  0  0  0  0  0  0  0  0
  141.6960   79.3050  221.6170 C   0  0  0  0  0  0  0  0  0  0  0  0
  142.1830   80.5640  221.8230 C   0  0  0  0  0  0  0  0  0  0  0  0
  142.4450   81.0840  223.0740 C   0  0  0  0  0  0  0  0  0  0  0  0
  142.2080   80.3010  224.2050 C   0  0  0  0  0  0  0  0  0  0  0  0
  141.7150   79.0300  223.9890 C   0  0  0  0  0  0  0  0  0  0  0  0
  141.4590   78.5230  222.7330 C   0  0  0  0  0  0  0  0  0  0  0  0
  140.9810   77.2840  222.5670 N   0  0  0  0  0  0  0  0  0  0  0  0
  138.9530   75.4310  222.9800 H   0  0  0  0  0  0  0  0  0  0  0  0
  137.8926   73.3851  222.5495 H   0  0  0  0  0  0  0  0  0  0  0  0
  138.5969   73.4268  220.8694 H   0  0  0  0  0  0  0  0  0  0  0  0
  140.3956   70.1221  221.2174 H   0  0  0  0  0  0  0  0  0  0  0  0
  140.6479   69.5278  222.8330 H   0  0  0  0  0  0  0  0  0  0  0  0
  138.4022   68.9955  220.9500 H   0  0  0  0  0  0  0  0  0  0  0  0
  138.7808   68.1235  222.4509 H   0  0  0  0  0  0  0  0  0  0  0  0
  136.8699   70.3649  221.9793 H   0  0  0  0  0  0  0  0  0  0  0  0
  136.8605   69.1894  223.2839 H   0  0  0  0  0  0  0  0  0  0  0  0
  137.5640   71.6545  223.9516 H   0  0  0  0  0  0  0  0  0  0  0  0
  138.1503   68.3105  224.2617 H   0  0  0  0  0  0  0  0  0  0  0  0
  139.1694   67.1802  226.2244 H   0  0  0  0  0  0  0  0  0  0  0  0
  139.7223   72.0580  225.5639 H   0  0  0  0  0  0  0  0  0  0  0  0
  140.7269   77.0793  219.1950 H   0  0  0  0  0  0  0  0  0  0  0  0
  141.6168   79.3850  219.4885 H   0  0  0  0  0  0  0  0  0  0  0  0
  142.3768   81.1975  220.9448 H   0  0  0  0  0  0  0  0  0  0  0  0
  142.8371   82.1064  223.1790 H   0  0  0  0  0  0  0  0  0  0  0  0
  142.4046   80.6786  225.2193 H   0  0  0  0  0  0  0  0  0  0  0  0
  141.5167   78.3905  224.8617 H   0  0  0  0  0  0  0  0  0  0  0  0
  1  2  2  0
  2  3  1  0
  3  4  1  0
  4  5  1  0
  5  6  2  0
  5  7  1  0
  7  8  1  0
  8  9  1  0
  9 10  1  0
 10 11  1  0
 11 12  1  0
 12 13  2  0
 13 14  1  0
 14 15  2  0
 15 16  1  0
 15 17  1  0
 17 18  1  0
 17 19  2  0
  2 20  1  0
 20 21  2  0
 21 22  1  0
 22 23  2  0
 23 24  1  0
 24 25  2  0
 25 26  1  0
 26 27  2  0
 27 28  1  0
 28 29  2  0
 11  7  1  0
 19 12  1  0
 29 20  1  0
 28 23  1  0
  3 30  1  0
  4 31  1  0
  4 32  1  0
  8 33  1  0
  8 34  1  0
  9 35  1  0
  9 36  1  0
 10 37  1  0
 10 38  1  0
 11 39  1  1
 13 40  1  0
 14 41  1  0
 19 42  1  0
 21 43  1  0
 22 44  1  0
 24 45  1  0
 25 46  1  0
 26 47  1  0
 27 48  1  0
M  END
>  <smiles>  (29) 
O=C(NCC(=O)N1CCC[C@H]1c1ccc(Cl)c(Cl)c1)c1ccc2ccccc2n1

>  <score_type>  (29) 
oracle

>  <origin>  (29) 
autodockgpu

>  <m_score__min__energy>  (29) 
-9.4299999999999997

>  <m_primary>  (29) 
energy

>  <rmsd>  (29) 
8.242843441382625

>  <m_score__min__rmsd>  (29) 
8.242843441382625

>  <meeko>  (29) 
{"free_energy": -9.04, "intermolecular_energy": -10.53, "internal_energy": -1.19, "cluster_size": 20, "cluster_id": 2, "rank_in_cluster": 7}

>  <energy>  (29) 
-8.82

>  <cluster_rmsd>  (29) 
0.63

>  <cluster>  (29) 
2

$$$$

     RDKit          3D

 48 51  0  0  0  0  0  0  0  0999 V2000
  138.9790   70.9050  221.4110 O   0  0  0  0  0  0  0  0  0  0  0  0
  139.1880   71.4950  222.5040 C   0  0  0  0  0  0  0  0  0  0  0  0
  139.1350   72.9260  222.4940 N   0  0  0  0  0  0  0  0  0  0  0  0
  138.8500   73.5650  221.2430 C   0  0  0  0  0  0  0  0  0  0  0  0
  138.7640   75.0350  221.3550 C   0  0  0  0  0  0  0  0  0  0  0  0
  137.7030   75.6650  221.5940 O   0  0  0  0  0  0  0  0  0  0  0  0
  139.9560   75.7960  221.1830 N   0  0  0  0  0  0  0  0  0  0  0  0
  140.6500   76.4770  222.2640 C   0  0  0  0  0  0  0  0  0  0  0  0
  141.1030   77.7480  221.5720 C   0  0  0  0  0  0  0  0  0  0  0  0
  140.8770   77.5440  220.0960 C   0  0  0  0  0  0  0  0  0  0  0  0
  140.7050   76.0510  219.9620 C   0  0  1  0  0  0  0  0  0  0  0  0
  141.9730   75.3010  220.0930 C   0  0  0  0  0  0  0  0  0  0  0  0
  143.1610   75.9800  219.9690 C   0  0  0  0  0  0  0  0  0  0  0  0
  144.4000   75.3390  220.0810 C   0  0  0  0  0  0  0  0  0  0  0  0
  144.4480   73.9800  220.3230 C   0  0  0  0  0  0  0  0  0  0  0  0
  145.9730   73.1290  220.4710 Cl  0  0  0  0  0  0  0  0  0  0  0  0
  143.2640   73.2870  220.4490 C   0  0  0  0  0  0  0  0  0  0  0  0
  143.3160   71.5520  220.7580 Cl  0  0  0  0  0  0  0  0  0  0  0  0
  142.0390   73.9440  220.3340 C   0  0  0  0  0  0  0  0  0  0  0  0
  139.4740   70.7850  223.7440 C   0  0  0  0  0  0  0  0  0  0  0  0
  139.1970   69.4140  223.7650 C   0  0  0  0  0  0  0  0  0  0  0  0
  139.4790   68.7700  224.9520 C   0  0  0  0  0  0  0  0  0  0  0  0
  139.9970   69.4070  226.0580 C   0  0  0  0  0  0  0  0  0  0  0  0
  140.2830   68.7890  227.2420 C   0  0  0  0  0  0  0  0  0  0  0  0
  140.8020   69.4480  228.3380 C   0  0  0  0  0  0  0  0  0  0  0  0
  141.0570   70.8180  228.2560 C   0  0  0  0  0  0  0  0  0  0  0  0
  140.7670   71.4340  227.0570 C   0  0  0  0  0  0  0  0  0  0  0  0
  140.2470   70.7640  225.9700 C   0  0  0  0  0  0  0  0  0  0  0  0
  139.9790   71.4000  224.8230 N   0  0  0  0  0  0  0  0  0  0  0  0
  139.2980   73.4870  223.3580 H   0  0  0  0  0  0  0  0  0  0  0  0
  139.6492   73.3135  220.5303 H   0  0  0  0  0  0  0  0  0  0  0  0
  137.8690   73.2019  220.9028 H   0  0  0  0  0  0  0  0  0  0  0  0
  139.9729   76.6947  223.1031 H   0  0  0  0  0  0  0  0  0  0  0  0
  141.4667   75.8931  222.7134 H   0  0  0  0  0  0  0  0  0  0  0  0
  140.5139   78.6050  221.9305 H   0  0  0  0  0  0  0  0  0  0  0  0
  142.1619   77.9572  221.7841 H   0  0  0  0  0  0  0  0  0  0  0  0
  139.9735   78.0743  219.7608 H   0  0  0  0  0  0  0  0  0  0  0  0
  141.7013   77.9344  219.4811 H   0  0  0  0  0  0  0  0  0  0  0  0
  140.2706   75.7587  218.9946 H   0  0  0  0  0  0  0  0  0  0  0  0
  143.1375   77.0626  219.7754 H   0  0  0  0  0  0  0  0  0  0  0  0
  145.3314   75.9149  219.9768 H   0  0  0  0  0  0  0  0  0  0  0  0
  141.1070   73.3689  220.4375 H   0  0  0  0  0  0  0  0  0  0  0  0
  138.7824   68.8852  222.8941 H   0  0  0  0  0  0  0  0  0  0  0  0
  139.2796   67.6903  225.0188 H   0  0  0  0  0  0  0  0  0  0  0  0
  140.0895   67.7094  227.3265 H   0  0  0  0  0  0  0  0  0  0  0  0
  141.0127   68.8988  229.2675 H   0  0  0  0  0  0  0  0  0  0  0  0
  141.4696   71.3793  229.1073 H   0  0  0  0  0  0  0  0  0  0  0  0
  140.9600   72.5129  226.9631 H   0  0  0  0  0  0  0  0  0  0  0  0
  1  2  2  0
  2  3  1  0
  3  4  1  0
  4  5  1  0
  5  6  2  0
  5  7  1  0
  7  8  1  0
  8  9  1  0
  9 10  1  0
 10 11  1  0
 11 12  1  0
 12 13  2  0
 13 14  1  0
 14 15  2  0
 15 16  1  0
 15 17  1  0
 17 18  1  0
 17 19  2  0
  2 20  1  0
 20 21  2  0
 21 22  1  0
 22 23  2  0
 23 24  1  0
 24 25  2  0
 25 26  1  0
 26 27  2  0
 27 28  1  0
 28 29  2  0
 11  7  1  0
 19 12  1  0
 29 20  1  0
 28 23  1  0
  3 30  1  0
  4 31  1  0
  4 32  1  0
  8 33  1  0
  8 34  1  0
  9 35  1  0
  9 36  1  0
 10 37  1  0
 10 38  1  0
 11 39  1  6
 13 40  1  0
 14 41  1  0
 19 42  1  0
 21 43  1  0
 22 44  1  0
 24 45  1  0
 25 46  1  0
 26 47  1  0
 27 48  1  0
M  END
>  <smiles>  (30) 
O=C(NCC(=O)N1CCC[C@H]1c1ccc(Cl)c(Cl)c1)c1ccc2ccccc2n1

>  <score_type>  (30) 
oracle

>  <origin>  (30) 
autodockgpu

>  <m_score__min__energy>  (30) 
-9.4299999999999997

>  <m_primary>  (30) 
energy

>  <rmsd>  (30) 
2.1783154588441804

>  <m_score__min__rmsd>  (30) 
2.1783154588441804

>  <meeko>  (30) 
{"free_energy": -8.52, "intermolecular_energy": -10.02, "internal_energy": -1.72, "cluster_size": 14, "cluster_id": 3, "rank_in_cluster": 8}

>  <energy>  (30) 
-8.82

>  <cluster_rmsd>  (30) 
0.57

>  <cluster>  (30) 
2

$$$$

     RDKit          3D

 48 51  0  0  0  0  0  0  0  0999 V2000
  140.3260   71.3330  221.4800 O   0  0  0  0  0  0  0  0  0  0  0  0
  139.6920   71.5740  222.5420 C   0  0  0  0  0  0  0  0  0  0  0  0
  138.8630   72.7410  222.5570 N   0  0  0  0  0  0  0  0  0  0  0  0
  138.8250   73.5350  221.3640 C   0  0  0  0  0  0  0  0  0  0  0  0
  138.7930   74.9860  221.6400 C   0  0  0  0  0  0  0  0  0  0  0  0
  137.8050   75.5910  222.1270 O   0  0  0  0  0  0  0  0  0  0  0  0
  139.9530   75.7560  221.3390 N   0  0  0  0  0  0  0  0  0  0  0  0
  140.6960   76.5280  222.3220 C   0  0  0  0  0  0  0  0  0  0  0  0
  141.0740   77.7540  221.5150 C   0  0  0  0  0  0  0  0  0  0  0  0
  140.7620   77.4380  220.0740 C   0  0  0  0  0  0  0  0  0  0  0  0
  140.6180   75.9370  220.0580 C   0  0  1  0  0  0  0  0  0  0  0  0
  141.9100   75.2240  220.1610 C   0  0  0  0  0  0  0  0  0  0  0  0
  143.0760   75.9380  220.0170 C   0  0  0  0  0  0  0  0  0  0  0  0
  144.3350   75.3330  220.1020 C   0  0  0  0  0  0  0  0  0  0  0  0
  144.4270   73.9750  220.3380 C   0  0  0  0  0  0  0  0  0  0  0  0
  145.9790   73.1690  220.4540 Cl  0  0  0  0  0  0  0  0  0  0  0  0
  143.2670   73.2480  220.4850 C   0  0  0  0  0  0  0  0  0  0  0  0
  143.3750   71.5140  220.7860 Cl  0  0  0  0  0  0  0  0  0  0  0  0
  142.0210   73.8690  220.3960 C   0  0  0  0  0  0  0  0  0  0  0  0
  139.7750   70.7240  223.7230 C   0  0  0  0  0  0  0  0  0  0  0  0
  139.2950   69.4170  223.5950 C   0  0  0  0  0  0  0  0  0  0  0  0
  139.3870   68.6370  224.7300 C   0  0  0  0  0  0  0  0  0  0  0  0
  139.9120   69.0880  225.9210 C   0  0  0  0  0  0  0  0  0  0  0  0
  140.0130   68.3350  227.0560 C   0  0  0  0  0  0  0  0  0  0  0  0
  140.5420   68.8080  228.2390 C   0  0  0  0  0  0  0  0  0  0  0  0
  141.0050   70.1220  228.3050 C   0  0  0  0  0  0  0  0  0  0  0  0
  140.9010   70.8770  227.1550 C   0  0  0  0  0  0  0  0  0  0  0  0
  140.3690   70.3920  225.9790 C   0  0  0  0  0  0  0  0  0  0  0  0
  140.2850   71.1580  224.8850 N   0  0  0  0  0  0  0  0  0  0  0  0
  138.3070   73.0090  223.3980 H   0  0  0  0  0  0  0  0  0  0  0  0
  139.7200   73.3113  220.7648 H   0  0  0  0  0  0  0  0  0  0  0  0
  137.8991   73.2805  220.8274 H   0  0  0  0  0  0  0  0  0  0  0  0
  140.0672   76.7924  223.1849 H   0  0  0  0  0  0  0  0  0  0  0  0
  141.5534   75.9946  222.7583 H   0  0  0  0  0  0  0  0  0  0  0  0
  140.4872   78.6227  221.8481 H   0  0  0  0  0  0  0  0  0  0  0  0
  142.1383   77.9999  221.6444 H   0  0  0  0  0  0  0  0  0  0  0  0
  139.8270   77.9248  219.7597 H   0  0  0  0  0  0  0  0  0  0  0  0
  141.5373   77.7984  219.3819 H   0  0  0  0  0  0  0  0  0  0  0  0
  140.1311   75.5669  219.1437 H   0  0  0  0  0  0  0  0  0  0  0  0
  143.0174   77.0202  219.8288 H   0  0  0  0  0  0  0  0  0  0  0  0
  145.2471   75.9360  219.9815 H   0  0  0  0  0  0  0  0  0  0  0  0
  141.1086   73.2662  220.5156 H   0  0  0  0  0  0  0  0  0  0  0  0
  138.8726   69.0362  222.6534 H   0  0  0  0  0  0  0  0  0  0  0  0
  139.0218   67.6006  224.6809 H   0  0  0  0  0  0  0  0  0  0  0  0
  139.6533   67.2959  227.0252 H   0  0  0  0  0  0  0  0  0  0  0  0
  140.5982   68.1548  229.1222 H   0  0  0  0  0  0  0  0  0  0  0  0
  141.4327   70.5365  229.2298 H   0  0  0  0  0  0  0  0  0  0  0  0
  141.2600   71.9165  227.1773 H   0  0  0  0  0  0  0  0  0  0  0  0
  1  2  2  0
  2  3  1  0
  3  4  1  0
  4  5  1  0
  5  6  2  0
  5  7  1  0
  7  8  1  0
  8  9  1  0
  9 10  1  0
 10 11  1  0
 11 12  1  0
 12 13  2  0
 13 14  1  0
 14 15  2  0
 15 16  1  0
 15 17  1  0
 17 18  1  0
 17 19  2  0
  2 20  1  0
 20 21  2  0
 21 22  1  0
 22 23  2  0
 23 24  1  0
 24 25  2  0
 25 26  1  0
 26 27  2  0
 27 28  1  0
 28 29  2  0
 11  7  1  0
 19 12  1  0
 29 20  1  0
 28 23  1  0
  3 30  1  0
  4 31  1  0
  4 32  1  0
  8 33  1  0
  8 34  1  0
  9 35  1  0
  9 36  1  0
 10 37  1  0
 10 38  1  0
 11 39  1  6
 13 40  1  0
 14 41  1  0
 19 42  1  0
 21 43  1  0
 22 44  1  0
 24 45  1  0
 25 46  1  0
 26 47  1  0
 27 48  1  0
M  END
>  <smiles>  (31) 
O=C(NCC(=O)N1CCC[C@H]1c1ccc(Cl)c(Cl)c1)c1ccc2ccccc2n1

>  <score_type>  (31) 
oracle

>  <origin>  (31) 
autodockgpu

>  <m_score__min__energy>  (31) 
-9.4299999999999997

>  <m_primary>  (31) 
energy

>  <rmsd>  (31) 
2.1963545991017437

>  <m_score__min__rmsd>  (31) 
2.1963545991017437

>  <meeko>  (31) 
{"free_energy": -8.6, "intermolecular_energy": -10.09, "internal_energy": -1.67, "cluster_size": 14, "cluster_id": 3, "rank_in_cluster": 7}

>  <energy>  (31) 
-8.8

>  <cluster_rmsd>  (31) 
0.89

>  <cluster>  (31) 
2

$$$$

     RDKit          3D

 48 51  0  0  0  0  0  0  0  0999 V2000
  139.6280   71.2250  221.2440 O   0  0  0  0  0  0  0  0  0  0  0  0
  139.5500   71.8760  222.3200 C   0  0  0  0  0  0  0  0  0  0  0  0
  139.2250   73.2670  222.2180 N   0  0  0  0  0  0  0  0  0  0  0  0
  139.0170   73.7990  220.9030 C   0  0  0  0  0  0  0  0  0  0  0  0
  140.2730   73.9660  220.1450 C   0  0  0  0  0  0  0  0  0  0  0  0
  140.9020   73.0220  219.6020 O   0  0  0  0  0  0  0  0  0  0  0  0
  140.8150   75.2780  220.0140 N   0  0  0  0  0  0  0  0  0  0  0  0
  140.4350   76.2150  218.9710 C   0  0  0  0  0  0  0  0  0  0  0  0
  141.7650   76.8750  218.6660 C   0  0  0  0  0  0  0  0  0  0  0  0
  142.7170   76.4600  219.7580 C   0  0  0  0  0  0  0  0  0  0  0  0
  141.8110   75.9370  220.8450 C   0  0  1  0  0  0  0  0  0  0  0  0
  141.0950   77.0050  221.5760 C   0  0  0  0  0  0  0  0  0  0  0  0
  139.8170   76.7620  222.0200 C   0  0  0  0  0  0  0  0  0  0  0  0
  139.0760   77.7230  222.7180 C   0  0  0  0  0  0  0  0  0  0  0  0
  139.6330   78.9600  222.9770 C   0  0  0  0  0  0  0  0  0  0  0  0
  138.7480   80.1980  223.8470 Cl  0  0  0  0  0  0  0  0  0  0  0  0
  140.9120   79.2170  222.5370 C   0  0  0  0  0  0  0  0  0  0  0  0
  141.6300   80.7940  222.8620 Cl  0  0  0  0  0  0  0  0  0  0  0  0
  141.6340   78.2460  221.8420 C   0  0  0  0  0  0  0  0  0  0  0  0
  139.7740   71.2740  223.6280 C   0  0  0  0  0  0  0  0  0  0  0  0
  139.3780   69.9420  223.7860 C   0  0  0  0  0  0  0  0  0  0  0  0
  139.6030   69.4000  225.0340 C   0  0  0  0  0  0  0  0  0  0  0  0
  140.1770   70.0990  226.0740 C   0  0  0  0  0  0  0  0  0  0  0  0
  140.4090   69.5840  227.3170 C   0  0  0  0  0  0  0  0  0  0  0  0
  140.9860   70.3020  228.3440 C   0  0  0  0  0  0  0  0  0  0  0  0
  141.3610   71.6290  228.1250 C   0  0  0  0  0  0  0  0  0  0  0  0
  141.1240   72.1430  226.8670 C   0  0  0  0  0  0  0  0  0  0  0  0
  140.5460   71.4130  225.8500 C   0  0  0  0  0  0  0  0  0  0  0  0
  140.3330   71.9500  224.6430 N   0  0  0  0  0  0  0  0  0  0  0  0
  139.1430   73.8750  223.0620 H   0  0  0  0  0  0  0  0  0  0  0  0
  138.3601   73.1138  220.3471 H   0  0  0  0  0  0  0  0  0  0  0  0
  138.5660   74.7957  221.0179 H   0  0  0  0  0  0  0  0  0  0  0  0
  140.0321   75.6947  218.0895 H   0  0  0  0  0  0  0  0  0  0  0  0
  139.6403   76.9170  219.2636 H   0  0  0  0  0  0  0  0  0  0  0  0
  142.1398   76.5378  217.6884 H   0  0  0  0  0  0  0  0  0  0  0  0
  141.6628   77.9695  218.6261 H   0  0  0  0  0  0  0  0  0  0  0  0
  143.3998   75.6733  219.4046 H   0  0  0  0  0  0  0  0  0  0  0  0
  143.3588   77.2855  220.0995 H   0  0  0  0  0  0  0  0  0  0  0  0
  142.3513   75.3514  221.6034 H   0  0  0  0  0  0  0  0  0  0  0  0
  139.3618   75.7807  221.8204 H   0  0  0  0  0  0  0  0  0  0  0  0
  138.0554   77.4941  223.0584 H   0  0  0  0  0  0  0  0  0  0  0  0
  142.6538   78.4752  221.4994 H   0  0  0  0  0  0  0  0  0  0  0  0
  138.9181   69.3655  222.9698 H   0  0  0  0  0  0  0  0  0  0  0  0
  139.3088   68.3546  225.2087 H   0  0  0  0  0  0  0  0  0  0  0  0
  140.1203   68.5403  227.5100 H   0  0  0  0  0  0  0  0  0  0  0  0
  141.1490   69.8336  229.3258 H   0  0  0  0  0  0  0  0  0  0  0  0
  141.8233   72.2356  228.9177 H   0  0  0  0  0  0  0  0  0  0  0  0
  141.4100   73.1859  226.6654 H   0  0  0  0  0  0  0  0  0  0  0  0
  1  2  2  0
  2  3  1  0
  3  4  1  0
  4  5  1  0
  5  6  2  0
  5  7  1  0
  7  8  1  0
  8  9  1  0
  9 10  1  0
 10 11  1  0
 11 12  1  0
 12 13  2  0
 13 14  1  0
 14 15  2  0
 15 16  1  0
 15 17  1  0
 17 18  1  0
 17 19  2  0
  2 20  1  0
 20 21  2  0
 21 22  1  0
 22 23  2  0
 23 24  1  0
 24 25  2  0
 25 26  1  0
 26 27  2  0
 27 28  1  0
 28 29  2  0
 11  7  1  0
 19 12  1  0
 29 20  1  0
 28 23  1  0
  3 30  1  0
  4 31  1  0
  4 32  1  0
  8 33  1  0
  8 34  1  0
  9 35  1  0
  9 36  1  0
 10 37  1  0
 10 38  1  0
 11 39  1  1
 13 40  1  0
 14 41  1  0
 19 42  1  0
 21 43  1  0
 22 44  1  0
 24 45  1  0
 25 46  1  0
 26 47  1  0
 27 48  1  0
M  END
>  <smiles>  (32) 
O=C(NCC(=O)N1CCC[C@H]1c1ccc(Cl)c(Cl)c1)c1ccc2ccccc2n1

>  <score_type>  (32) 
oracle

>  <origin>  (32) 
autodockgpu

>  <m_score__min__energy>  (32) 
-9.4299999999999997

>  <m_primary>  (32) 
energy

>  <rmsd>  (32) 
1.6527512462926526

>  <m_score__min__rmsd>  (32) 
1.6527512462926526

>  <meeko>  (32) 
{"free_energy": -8.61, "intermolecular_energy": -10.1, "internal_energy": -1.45, "cluster_size": 16, "cluster_id": 1, "rank_in_cluster": 10}

>  <energy>  (32) 
-8.75

>  <cluster_rmsd>  (32) 
0.89

>  <cluster>  (32) 
2

$$$$

     RDKit          3D

 48 51  0  0  0  0  0  0  0  0999 V2000
  140.2570   75.7160  220.4250 O   0  0  0  0  0  0  0  0  0  0  0  0
  139.8350   76.0560  221.5620 C   0  0  0  0  0  0  0  0  0  0  0  0
  139.0420   75.1010  222.2760 N   0  0  0  0  0  0  0  0  0  0  0  0
  138.7950   73.8420  221.6360 C   0  0  0  0  0  0  0  0  0  0  0  0
  139.8170   72.8250  221.9580 C   0  0  0  0  0  0  0  0  0  0  0  0
  141.0560   73.0130  221.8630 O   0  0  0  0  0  0  0  0  0  0  0  0
  139.3790   71.5450  222.4070 N   0  0  0  0  0  0  0  0  0  0  0  0
  139.9470   70.2860  221.9560 C   0  0  0  0  0  0  0  0  0  0  0  0
  138.7100   69.4120  221.8810 C   0  0  0  0  0  0  0  0  0  0  0  0
  137.6020   70.1670  222.5690 C   0  0  0  0  0  0  0  0  0  0  0  0
  138.3270   71.2280  223.3600 C   0  0  1  0  0  0  0  0  0  0  0  0
  139.0080   70.6990  224.5620 C   0  0  0  0  0  0  0  0  0  0  0  0
  139.8690   71.5210  225.2510 C   0  0  0  0  0  0  0  0  0  0  0  0
  140.5490   71.0920  226.3970 C   0  0  0  0  0  0  0  0  0  0  0  0
  140.3620   69.8050  226.8630 C   0  0  0  0  0  0  0  0  0  0  0  0
  141.1910   69.2190  228.2920 Cl  0  0  0  0  0  0  0  0  0  0  0  0
  139.5030   68.9720  226.1810 C   0  0  0  0  0  0  0  0  0  0  0  0
  139.2580   67.3280  226.7690 Cl  0  0  0  0  0  0  0  0  0  0  0  0
  138.8340   69.4180  225.0410 C   0  0  0  0  0  0  0  0  0  0  0  0
  140.1220   77.3550  222.1570 C   0  0  0  0  0  0  0  0  0  0  0  0
  139.0250   78.1090  222.5850 C   0  0  0  0  0  0  0  0  0  0  0  0
  139.3290   79.3340  223.1440 C   0  0  0  0  0  0  0  0  0  0  0  0
  140.6150   79.8070  223.2830 C   0  0  0  0  0  0  0  0  0  0  0  0
  140.9390   81.0150  223.8330 C   0  0  0  0  0  0  0  0  0  0  0  0
  142.2350   81.4690  223.9630 C   0  0  0  0  0  0  0  0  0  0  0  0
  143.2890   80.6700  223.5170 C   0  0  0  0  0  0  0  0  0  0  0  0
  142.9550   79.4520  222.9640 C   0  0  0  0  0  0  0  0  0  0  0  0
  141.6540   79.0100  222.8390 C   0  0  0  0  0  0  0  0  0  0  0  0
  141.3720   77.8200  222.2960 N   0  0  0  0  0  0  0  0  0  0  0  0
  138.6550   75.3070  223.2220 H   0  0  0  0  0  0  0  0  0  0  0  0
  137.8130   73.4688  221.9622 H   0  0  0  0  0  0  0  0  0  0  0  0
  138.8274   74.0112  220.5496 H   0  0  0  0  0  0  0  0  0  0  0  0
  140.4267   70.3903  220.9716 H   0  0  0  0  0  0  0  0  0  0  0  0
  140.7395   69.8901  222.6080 H   0  0  0  0  0  0  0  0  0  0  0  0
  138.4436   69.2219  220.8308 H   0  0  0  0  0  0  0  0  0  0  0  0
  138.8840   68.4390  222.3637 H   0  0  0  0  0  0  0  0  0  0  0  0
  136.9225   70.6223  221.8335 H   0  0  0  0  0  0  0  0  0  0  0  0
  136.9744   69.5204  223.1998 H   0  0  0  0  0  0  0  0  0  0  0  0
  137.6586   72.0290  223.7087 H   0  0  0  0  0  0  0  0  0  0  0  0
  140.0283   72.5479  224.8902 H   0  0  0  0  0  0  0  0  0  0  0  0
  141.2294   71.7769  226.9243 H   0  0  0  0  0  0  0  0  0  0  0  0
  138.1536   68.7334  224.5134 H   0  0  0  0  0  0  0  0  0  0  0  0
  137.9901   77.7504  222.4832 H   0  0  0  0  0  0  0  0  0  0  0  0
  138.5005   79.9657  223.4970 H   0  0  0  0  0  0  0  0  0  0  0  0
  140.1229   81.6598  224.1912 H   0  0  0  0  0  0  0  0  0  0  0  0
  142.4361   82.4519  224.4141 H   0  0  0  0  0  0  0  0  0  0  0  0
  144.3360   80.9964  223.6026 H   0  0  0  0  0  0  0  0  0  0  0  0
  143.7655   78.8007  222.6049 H   0  0  0  0  0  0  0  0  0  0  0  0
  1  2  2  0
  2  3  1  0
  3  4  1  0
  4  5  1  0
  5  6  2  0
  5  7  1  0
  7  8  1  0
  8  9  1  0
  9 10  1  0
 10 11  1  0
 11 12  1  0
 12 13  2  0
 13 14  1  0
 14 15  2  0
 15 16  1  0
 15 17  1  0
 17 18  1  0
 17 19  2  0
  2 20  1  0
 20 21  2  0
 21 22  1  0
 22 23  2  0
 23 24  1  0
 24 25  2  0
 25 26  1  0
 26 27  2  0
 27 28  1  0
 28 29  2  0
 11  7  1  0
 19 12  1  0
 29 20  1  0
 28 23  1  0
  3 30  1  0
  4 31  1  0
  4 32  1  0
  8 33  1  0
  8 34  1  0
  9 35  1  0
  9 36  1  0
 10 37  1  0
 10 38  1  0
 11 39  1  1
 13 40  1  0
 14 41  1  0
 19 42  1  0
 21 43  1  0
 22 44  1  0
 24 45  1  0
 25 46  1  0
 26 47  1  0
 27 48  1  0
M  END
>  <smiles>  (33) 
O=C(NCC(=O)N1CCC[C@H]1c1ccc(Cl)c(Cl)c1)c1ccc2ccccc2n1

>  <score_type>  (33) 
oracle

>  <origin>  (33) 
autodockgpu

>  <m_score__min__energy>  (33) 
-9.4299999999999997

>  <m_primary>  (33) 
energy

>  <rmsd>  (33) 
8.221804105500869

>  <m_score__min__rmsd>  (33) 
8.221804105500869

>  <meeko>  (33) 
{"free_energy": -8.82, "intermolecular_energy": -10.31, "internal_energy": -1.22, "cluster_size": 20, "cluster_id": 2, "rank_in_cluster": 14}

>  <energy>  (33) 
-8.75

>  <cluster_rmsd>  (33) 
1.01

>  <cluster>  (33) 
2

$$$$

     RDKit          3D

 48 51  0  0  0  0  0  0  0  0999 V2000
  139.1770   70.8300  221.3740 O   0  0  0  0  0  0  0  0  0  0  0  0
  139.1150   71.5450  222.4090 C   0  0  0  0  0  0  0  0  0  0  0  0
  138.5130   72.8380  222.2740 N   0  0  0  0  0  0  0  0  0  0  0  0
  138.0320   73.2070  220.9750 C   0  0  0  0  0  0  0  0  0  0  0  0
  139.1170   73.3810  219.9890 C   0  0  0  0  0  0  0  0  0  0  0  0
  139.2410   72.6930  218.9430 O   0  0  0  0  0  0  0  0  0  0  0  0
  140.0920   74.3930  220.2290 N   0  0  0  0  0  0  0  0  0  0  0  0
  140.5350   75.3500  219.2290 C   0  0  0  0  0  0  0  0  0  0  0  0
  142.0110   75.4580  219.5530 C   0  0  0  0  0  0  0  0  0  0  0  0
  142.2150   74.7770  220.8830 C   0  0  0  0  0  0  0  0  0  0  0  0
  140.8220   74.6800  221.4540 C   0  0  1  0  0  0  0  0  0  0  0  0
  140.3000   75.9720  221.9490 C   0  0  0  0  0  0  0  0  0  0  0  0
  138.9440   76.1170  222.1220 C   0  0  0  0  0  0  0  0  0  0  0  0
  138.3760   77.3090  222.5870 C   0  0  0  0  0  0  0  0  0  0  0  0
  139.1910   78.3840  222.8860 C   0  0  0  0  0  0  0  0  0  0  0  0
  138.5300   79.8980  223.4710 Cl  0  0  0  0  0  0  0  0  0  0  0  0
  140.5510   78.2520  222.7170 C   0  0  0  0  0  0  0  0  0  0  0  0
  141.5980   79.6190  223.0960 Cl  0  0  0  0  0  0  0  0  0  0  0  0
  141.0980   77.0560  222.2520 C   0  0  0  0  0  0  0  0  0  0  0  0
  139.6240   71.1100  223.7030 C   0  0  0  0  0  0  0  0  0  0  0  0
  140.5390   71.9550  224.3380 C   0  0  0  0  0  0  0  0  0  0  0  0
  141.0020   71.5150  225.5610 C   0  0  0  0  0  0  0  0  0  0  0  0
  140.6080   70.3300  226.1420 C   0  0  0  0  0  0  0  0  0  0  0  0
  141.0530   69.8760  227.3510 C   0  0  0  0  0  0  0  0  0  0  0  0
  140.6440   68.6840  227.9140 C   0  0  0  0  0  0  0  0  0  0  0  0
  139.7270   67.8830  227.2310 C   0  0  0  0  0  0  0  0  0  0  0  0
  139.2820   68.3480  226.0110 C   0  0  0  0  0  0  0  0  0  0  0  0
  139.7000   69.5420  225.4600 C   0  0  0  0  0  0  0  0  0  0  0  0
  139.2430   69.9570  224.2730 N   0  0  0  0  0  0  0  0  0  0  0  0
  138.4240   73.4890  223.0840 H   0  0  0  0  0  0  0  0  0  0  0  0
  137.3536   72.4195  220.6151 H   0  0  0  0  0  0  0  0  0  0  0  0
  137.5188   74.1747  221.0755 H   0  0  0  0  0  0  0  0  0  0  0  0
  140.3735   74.9704  218.2093 H   0  0  0  0  0  0  0  0  0  0  0  0
  139.9973   76.3093  219.2548 H   0  0  0  0  0  0  0  0  0  0  0  0
  142.6071   74.9575  218.7757 H   0  0  0  0  0  0  0  0  0  0  0  0
  142.3305   76.5098  219.5945 H   0  0  0  0  0  0  0  0  0  0  0  0
  142.6540   73.7774  220.7484 H   0  0  0  0  0  0  0  0  0  0  0  0
  142.9072   75.3242  221.5398 H   0  0  0  0  0  0  0  0  0  0  0  0
  140.7569   73.9757  222.2964 H   0  0  0  0  0  0  0  0  0  0  0  0
  138.2839   75.2689  221.8874 H   0  0  0  0  0  0  0  0  0  0  0  0
  137.2863   77.3894  222.7137 H   0  0  0  0  0  0  0  0  0  0  0  0
  142.1876   76.9755  222.1243 H   0  0  0  0  0  0  0  0  0  0  0  0
  140.8674   72.9058  223.8929 H   0  0  0  0  0  0  0  0  0  0  0  0
  141.7246   72.1444  226.1010 H   0  0  0  0  0  0  0  0  0  0  0  0
  141.7755   70.4930  227.9053 H   0  0  0  0  0  0  0  0  0  0  0  0
  141.0369   68.3681  228.8917 H   0  0  0  0  0  0  0  0  0  0  0  0
  139.3761   66.9266  227.6460 H   0  0  0  0  0  0  0  0  0  0  0  0
  138.5590   67.7375  225.4502 H   0  0  0  0  0  0  0  0  0  0  0  0
  1  2  2  0
  2  3  1  0
  3  4  1  0
  4  5  1  0
  5  6  2  0
  5  7  1  0
  7  8  1  0
  8  9  1  0
  9 10  1  0
 10 11  1  0
 11 12  1  0
 12 13  2  0
 13 14  1  0
 14 15  2  0
 15 16  1  0
 15 17  1  0
 17 18  1  0
 17 19  2  0
  2 20  1  0
 20 21  2  0
 21 22  1  0
 22 23  2  0
 23 24  1  0
 24 25  2  0
 25 26  1  0
 26 27  2  0
 27 28  1  0
 28 29  2  0
 11  7  1  0
 19 12  1  0
 29 20  1  0
 28 23  1  0
  3 30  1  0
  4 31  1  0
  4 32  1  0
  8 33  1  0
  8 34  1  0
  9 35  1  0
  9 36  1  0
 10 37  1  0
 10 38  1  0
 11 39  1  1
 13 40  1  0
 14 41  1  0
 19 42  1  0
 21 43  1  0
 22 44  1  0
 24 45  1  0
 25 46  1  0
 26 47  1  0
 27 48  1  0
M  END
>  <smiles>  (34) 
O=C(NCC(=O)N1CCC[C@H]1c1ccc(Cl)c(Cl)c1)c1ccc2ccccc2n1

>  <score_type>  (34) 
oracle

>  <origin>  (34) 
autodockgpu

>  <m_score__min__energy>  (34) 
-9.4299999999999997

>  <m_primary>  (34) 
energy

>  <rmsd>  (34) 
2.9195523755333923

>  <m_score__min__rmsd>  (34) 
2.9195523755333923

>  <meeko>  (34) 
{"free_energy": -8.12, "intermolecular_energy": -9.61, "internal_energy": -1.63, "cluster_size": 16, "cluster_id": 1, "rank_in_cluster": 16}

>  <energy>  (34) 
-8.69

>  <cluster_rmsd>  (34) 
0.88

>  <cluster>  (34) 
2

$$$$

     RDKit          3D

 48 51  0  0  0  0  0  0  0  0999 V2000
  140.7170   73.1710  222.7110 O   0  0  0  0  0  0  0  0  0  0  0  0
  139.9740   72.1890  222.9780 C   0  0  0  0  0  0  0  0  0  0  0  0
  138.9120   71.9070  222.0600 N   0  0  0  0  0  0  0  0  0  0  0  0
  138.7830   72.7650  220.9190 C   0  0  0  0  0  0  0  0  0  0  0  0
  138.5480   74.1760  221.2840 C   0  0  0  0  0  0  0  0  0  0  0  0
  137.4710   74.6110  221.7680 O   0  0  0  0  0  0  0  0  0  0  0  0
  139.6020   75.1120  221.0820 N   0  0  0  0  0  0  0  0  0  0  0  0
  140.1610   75.9490  222.1310 C   0  0  0  0  0  0  0  0  0  0  0  0
  140.4110   77.2410  221.3790 C   0  0  0  0  0  0  0  0  0  0  0  0
  140.2420   76.9310  219.9130 C   0  0  0  0  0  0  0  0  0  0  0  0
  140.3160   75.4260  219.8530 C   0  0  1  0  0  0  0  0  0  0  0  0
  141.6870   74.8990  220.0300 C   0  0  0  0  0  0  0  0  0  0  0  0
  142.7480   75.7690  219.9370 C   0  0  0  0  0  0  0  0  0  0  0  0
  144.0730   75.3450  220.0930 C   0  0  0  0  0  0  0  0  0  0  0  0
  144.3400   74.0130  220.3460 C   0  0  0  0  0  0  0  0  0  0  0  0
  145.9820   73.4320  220.5480 Cl  0  0  0  0  0  0  0  0  0  0  0  0
  143.2860   73.1320  220.4410 C   0  0  0  0  0  0  0  0  0  0  0  0
  143.6190   71.4310  220.7640 Cl  0  0  0  0  0  0  0  0  0  0  0  0
  141.9730   73.5740  220.2830 C   0  0  0  0  0  0  0  0  0  0  0  0
  140.1590   71.3550  224.1580 C   0  0  0  0  0  0  0  0  0  0  0  0
  140.9840   71.8620  225.1670 C   0  0  0  0  0  0  0  0  0  0  0  0
  141.1390   71.0490  226.2710 C   0  0  0  0  0  0  0  0  0  0  0  0
  140.5350   69.8180  226.3990 C   0  0  0  0  0  0  0  0  0  0  0  0
  140.6750   68.9970  227.4820 C   0  0  0  0  0  0  0  0  0  0  0  0
  140.0600   67.7670  227.5890 C   0  0  0  0  0  0  0  0  0  0  0  0
  139.2470   67.3140  226.5480 C   0  0  0  0  0  0  0  0  0  0  0  0
  139.1110   68.1480  225.4580 C   0  0  0  0  0  0  0  0  0  0  0  0
  139.7320   69.3760  225.3640 C   0  0  0  0  0  0  0  0  0  0  0  0
  139.5730   70.1550  224.2880 N   0  0  0  0  0  0  0  0  0  0  0  0
  138.2530   71.1120  222.2110 H   0  0  0  0  0  0  0  0  0  0  0  0
  139.7090   72.7049  220.3284 H   0  0  0  0  0  0  0  0  0  0  0  0
  137.9087   72.4226  220.3461 H   0  0  0  0  0  0  0  0  0  0  0  0
  139.4459   76.0942  222.9542 H   0  0  0  0  0  0  0  0  0  0  0  0
  141.0555   75.5286  222.6138 H   0  0  0  0  0  0  0  0  0  0  0  0
  139.6854   78.0069  221.6903 H   0  0  0  0  0  0  0  0  0  0  0  0
  141.4187   77.6302  221.5867 H   0  0  0  0  0  0  0  0  0  0  0  0
  139.2694   77.2905  219.5460 H   0  0  0  0  0  0  0  0  0  0  0  0
  141.0010   77.4197  219.2845 H   0  0  0  0  0  0  0  0  0  0  0  0
  139.9480   75.0210  218.8988 H   0  0  0  0  0  0  0  0  0  0  0  0
  142.5492   76.8316  219.7336 H   0  0  0  0  0  0  0  0  0  0  0  0
  144.8977   76.0687  220.0146 H   0  0  0  0  0  0  0  0  0  0  0  0
  141.1481   72.8506  220.3618 H   0  0  0  0  0  0  0  0  0  0  0  0
  141.4760   72.8425  225.0860 H   0  0  0  0  0  0  0  0  0  0  0  0
  141.7791   71.4029  227.0926 H   0  0  0  0  0  0  0  0  0  0  0  0
  141.3120   69.3348  228.3127 H   0  0  0  0  0  0  0  0  0  0  0  0
  140.2087   67.1485  228.4864 H   0  0  0  0  0  0  0  0  0  0  0  0
  138.7396   66.3392  226.5950 H   0  0  0  0  0  0  0  0  0  0  0  0
  138.4761   67.8176  224.6226 H   0  0  0  0  0  0  0  0  0  0  0  0
  1  2  2  0
  2  3  1  0
  3  4  1  0
  4  5  1  0
  5  6  2  0
  5  7  1  0
  7  8  1  0
  8  9  1  0
  9 10  1  0
 10 11  1  0
 11 12  1  0
 12 13  2  0
 13 14  1  0
 14 15  2  0
 15 16  1  0
 15 17  1  0
 17 18  1  0
 17 19  2  0
  2 20  1  0
 20 21  2  0
 21 22  1  0
 22 23  2  0
 23 24  1  0
 24 25  2  0
 25 26  1  0
 26 27  2  0
 27 28  1  0
 28 29  2  0
 11  7  1  0
 19 12  1  0
 29 20  1  0
 28 23  1  0
  3 30  1  0
  4 31  1  0
  4 32  1  0
  8 33  1  0
  8 34  1  0
  9 35  1  0
  9 36  1  0
 10 37  1  0
 10 38  1  0
 11 39  1  6
 13 40  1  0
 14 41  1  0
 19 42  1  0
 21 43  1  0
 22 44  1  0
 24 45  1  0
 25 46  1  0
 26 47  1  0
 27 48  1  0
M  END
>  <smiles>  (35) 
O=C(NCC(=O)N1CCC[C@H]1c1ccc(Cl)c(Cl)c1)c1ccc2ccccc2n1

>  <score_type>  (35) 
oracle

>  <origin>  (35) 
autodockgpu

>  <m_score__min__energy>  (35) 
-9.4299999999999997

>  <m_primary>  (35) 
energy

>  <rmsd>  (35) 
3.1986694806751297

>  <m_score__min__rmsd>  (35) 
3.1986694806751297

>  <meeko>  (35) 
{"free_energy": -8.06, "intermolecular_energy": -9.55, "internal_energy": -1.85, "cluster_size": 14, "cluster_id": 3, "rank_in_cluster": 14}

>  <energy>  (35) 
-8.62

>  <cluster_rmsd>  (35) 
0.91

>  <cluster>  (35) 
2

$$$$

     RDKit          3D

 48 51  0  0  0  0  0  0  0  0999 V2000
  140.0890   75.8120  220.6470 O   0  0  0  0  0  0  0  0  0  0  0  0
  139.6920   76.2020  221.7770 C   0  0  0  0  0  0  0  0  0  0  0  0
  138.8980   75.2880  222.5410 N   0  0  0  0  0  0  0  0  0  0  0  0
  138.6230   74.0080  221.9560 C   0  0  0  0  0  0  0  0  0  0  0  0
  139.7380   73.0530  222.1140 C   0  0  0  0  0  0  0  0  0  0  0  0
  140.9540   73.3660  222.0400 O   0  0  0  0  0  0  0  0  0  0  0  0
  139.4260   71.6860  222.3680 N   0  0  0  0  0  0  0  0  0  0  0  0
  140.2050   70.5660  221.8670 C   0  0  0  0  0  0  0  0  0  0  0  0
  139.1130   69.5650  221.5440 C   0  0  0  0  0  0  0  0  0  0  0  0
  137.8420   70.0950  222.1570 C   0  0  0  0  0  0  0  0  0  0  0  0
  138.3230   71.1330  223.1400 C   0  0  1  0  0  0  0  0  0  0  0  0
  138.9270   70.5520  224.3590 C   0  0  0  0  0  0  0  0  0  0  0  0
  138.7780   69.2050  224.5950 C   0  0  0  0  0  0  0  0  0  0  0  0
  139.3210   68.5830  225.7250 C   0  0  0  0  0  0  0  0  0  0  0  0
  140.0290   69.3330  226.6440 C   0  0  0  0  0  0  0  0  0  0  0  0
  140.7280   68.6020  228.0760 Cl  0  0  0  0  0  0  0  0  0  0  0  0
  140.1850   70.6820  226.4200 C   0  0  0  0  0  0  0  0  0  0  0  0
  141.0880   71.6460  227.5890 Cl  0  0  0  0  0  0  0  0  0  0  0  0
  139.6370   71.2840  225.2880 C   0  0  0  0  0  0  0  0  0  0  0  0
  140.0080   77.5190  222.3160 C   0  0  0  0  0  0  0  0  0  0  0  0
  138.9260   78.3380  222.6560 C   0  0  0  0  0  0  0  0  0  0  0  0
  139.2570   79.5770  223.1630 C   0  0  0  0  0  0  0  0  0  0  0  0
  140.5540   80.0070  223.3340 C   0  0  0  0  0  0  0  0  0  0  0  0
  140.9050   81.2290  223.8330 C   0  0  0  0  0  0  0  0  0  0  0  0
  142.2120   81.6390  223.9950 C   0  0  0  0  0  0  0  0  0  0  0  0
  143.2500   80.7770  223.6370 C   0  0  0  0  0  0  0  0  0  0  0  0
  142.8880   79.5440  223.1340 C   0  0  0  0  0  0  0  0  0  0  0  0
  141.5770   79.1480  222.9770 C   0  0  0  0  0  0  0  0  0  0  0  0
  141.2690   77.9420  222.4840 N   0  0  0  0  0  0  0  0  0  0  0  0
  138.5310   75.5360  223.4860 H   0  0  0  0  0  0  0  0  0  0  0  0
  137.7287   73.5865  222.4382 H   0  0  0  0  0  0  0  0  0  0  0  0
  138.4715   74.1634  220.8776 H   0  0  0  0  0  0  0  0  0  0  0  0
  140.7761   70.8427  220.9685 H   0  0  0  0  0  0  0  0  0  0  0  0
  140.9631   70.1937  222.5717 H   0  0  0  0  0  0  0  0  0  0  0  0
  138.9969   69.4696  220.4543 H   0  0  0  0  0  0  0  0  0  0  0  0
  139.3589   68.5698  221.9430 H   0  0  0  0  0  0  0  0  0  0  0  0
  137.1972   70.5499  221.3906 H   0  0  0  0  0  0  0  0  0  0  0  0
  137.2375   69.3077  222.6310 H   0  0  0  0  0  0  0  0  0  0  0  0
  137.5171   71.7998  223.4806 H   0  0  0  0  0  0  0  0  0  0  0  0
  138.2139   68.5972  223.8723 H   0  0  0  0  0  0  0  0  0  0  0  0
  139.1847   67.5026  225.8806 H   0  0  0  0  0  0  0  0  0  0  0  0
  139.7736   72.3644  225.1326 H   0  0  0  0  0  0  0  0  0  0  0  0
  137.8822   78.0156  222.5277 H   0  0  0  0  0  0  0  0  0  0  0  0
  138.4412   80.2584  223.4460 H   0  0  0  0  0  0  0  0  0  0  0  0
  140.1022   81.9236  224.1212 H   0  0  0  0  0  0  0  0  0  0  0  0
  142.4344   82.6362  224.4026 H   0  0  0  0  0  0  0  0  0  0  0  0
  144.3052   81.0665  223.7503 H   0  0  0  0  0  0  0  0  0  0  0  0
  143.6845   78.8429  222.8442 H   0  0  0  0  0  0  0  0  0  0  0  0
  1  2  2  0
  2  3  1  0
  3  4  1  0
  4  5  1  0
  5  6  2  0
  5  7  1  0
  7  8  1  0
  8  9  1  0
  9 10  1  0
 10 11  1  0
 11 12  1  0
 12 13  2  0
 13 14  1  0
 14 15  2  0
 15 16  1  0
 15 17  1  0
 17 18  1  0
 17 19  2  0
  2 20  1  0
 20 21  2  0
 21 22  1  0
 22 23  2  0
 23 24  1  0
 24 25  2  0
 25 26  1  0
 26 27  2  0
 27 28  1  0
 28 29  2  0
 11  7  1  0
 19 12  1  0
 29 20  1  0
 28 23  1  0
  3 30  1  0
  4 31  1  0
  4 32  1  0
  8 33  1  0
  8 34  1  0
  9 35  1  0
  9 36  1  0
 10 37  1  0
 10 38  1  0
 11 39  1  1
 13 40  1  0
 14 41  1  0
 19 42  1  0
 21 43  1  0
 22 44  1  0
 24 45  1  0
 25 46  1  0
 26 47  1  0
 27 48  1  0
M  END
>  <smiles>  (36) 
O=C(NCC(=O)N1CCC[C@H]1c1ccc(Cl)c(Cl)c1)c1ccc2ccccc2n1

>  <score_type>  (36) 
oracle

>  <origin>  (36) 
autodockgpu

>  <m_score__min__energy>  (36) 
-9.4299999999999997

>  <m_primary>  (36) 
energy

>  <rmsd>  (36) 
8.251159235646442

>  <m_score__min__rmsd>  (36) 
8.251159235646442

>  <meeko>  (36) 
{"free_energy": -9.42, "intermolecular_energy": -10.91, "internal_energy": -1.17, "cluster_size": 20, "cluster_id": 2, "rank_in_cluster": 1}

>  <energy>  (36) 
-8.56

>  <cluster_rmsd>  (36) 
1.61

>  <cluster>  (36) 
2

$$$$

     RDKit          3D

 48 51  0  0  0  0  0  0  0  0999 V2000
  140.8690   71.7940  221.9420 O   0  0  0  0  0  0  0  0  0  0  0  0
  139.9200   71.7290  222.7670 C   0  0  0  0  0  0  0  0  0  0  0  0
  138.8350   72.6470  222.5860 N   0  0  0  0  0  0  0  0  0  0  0  0
  138.9220   73.5590  221.4840 C   0  0  0  0  0  0  0  0  0  0  0  0
  139.8300   74.6940  221.7480 C   0  0  0  0  0  0  0  0  0  0  0  0
  141.0630   74.5770  221.9670 O   0  0  0  0  0  0  0  0  0  0  0  0
  139.2830   76.0100  221.7560 N   0  0  0  0  0  0  0  0  0  0  0  0
  138.3050   76.4790  222.7230 C   0  0  0  0  0  0  0  0  0  0  0  0
  137.4220   77.3530  221.8550 C   0  0  0  0  0  0  0  0  0  0  0  0
  138.1430   77.5300  220.5430 C   0  0  0  0  0  0  0  0  0  0  0  0
  139.5600   77.1160  220.8520 C   0  0  1  0  0  0  0  0  0  0  0  0
  140.3040   78.1170  221.6460 C   0  0  0  0  0  0  0  0  0  0  0  0
  141.0680   77.6890  222.7060 C   0  0  0  0  0  0  0  0  0  0  0  0
  141.8000   78.5780  223.5020 C   0  0  0  0  0  0  0  0  0  0  0  0
  141.7630   79.9310  223.2290 C   0  0  0  0  0  0  0  0  0  0  0  0
  142.6610   81.0850  224.1960 Cl  0  0  0  0  0  0  0  0  0  0  0  0
  141.0020   80.3730  222.1700 C   0  0  0  0  0  0  0  0  0  0  0  0
  140.9500   82.0990  221.8140 Cl  0  0  0  0  0  0  0  0  0  0  0  0
  140.2800   79.4720  221.3880 C   0  0  0  0  0  0  0  0  0  0  0  0
  139.8920   70.7760  223.8680 C   0  0  0  0  0  0  0  0  0  0  0  0
  139.2200   69.5700  223.6430 C   0  0  0  0  0  0  0  0  0  0  0  0
  139.2110   68.6890  224.7040 C   0  0  0  0  0  0  0  0  0  0  0  0
  139.8140   68.9510  225.9150 C   0  0  0  0  0  0  0  0  0  0  0  0
  139.8180   68.0930  226.9780 C   0  0  0  0  0  0  0  0  0  0  0  0
  140.4290   68.3770  228.1820 C   0  0  0  0  0  0  0  0  0  0  0  0
  141.0850   69.5980  228.3470 C   0  0  0  0  0  0  0  0  0  0  0  0
  141.0780   70.4580  227.2690 C   0  0  0  0  0  0  0  0  0  0  0  0
  140.4620   70.1620  226.0710 C   0  0  0  0  0  0  0  0  0  0  0  0
  140.4780   71.0260  225.0490 N   0  0  0  0  0  0  0  0  0  0  0  0
  138.0120   72.6570  223.2270 H   0  0  0  0  0  0  0  0  0  0  0  0
  139.2906   73.0119  220.6038 H   0  0  0  0  0  0  0  0  0  0  0  0
  137.9164   73.9724  221.3172 H   0  0  0  0  0  0  0  0  0  0  0  0
  137.7388   75.6434  223.1603 H   0  0  0  0  0  0  0  0  0  0  0  0
  138.7417   76.9994  223.5882 H   0  0  0  0  0  0  0  0  0  0  0  0
  136.4500   76.8650  221.6905 H   0  0  0  0  0  0  0  0  0  0  0  0
  137.2314   78.3238  222.3357 H   0  0  0  0  0  0  0  0  0  0  0  0
  137.7069   76.8848  219.7661 H   0  0  0  0  0  0  0  0  0  0  0  0
  138.0750   78.5573  220.1556 H   0  0  0  0  0  0  0  0  0  0  0  0
  140.1558   76.9340  219.9455 H   0  0  0  0  0  0  0  0  0  0  0  0
  141.1052   76.6139  222.9359 H   0  0  0  0  0  0  0  0  0  0  0  0
  142.4022   78.2002  224.3415 H   0  0  0  0  0  0  0  0  0  0  0  0
  139.6787   79.8496  220.5478 H   0  0  0  0  0  0  0  0  0  0  0  0
  138.7317   69.3399  222.6846 H   0  0  0  0  0  0  0  0  0  0  0  0
  138.6950   67.7259  224.5768 H   0  0  0  0  0  0  0  0  0  0  0  0
  139.3073   67.1249  226.8683 H   0  0  0  0  0  0  0  0  0  0  0  0
  140.3994   67.6475  229.0048 H   0  0  0  0  0  0  0  0  0  0  0  0
  141.5836   69.8615  229.2915 H   0  0  0  0  0  0  0  0  0  0  0  0
  141.5885   71.4272  227.3695 H   0  0  0  0  0  0  0  0  0  0  0  0
  1  2  2  0
  2  3  1  0
  3  4  1  0
  4  5  1  0
  5  6  2  0
  5  7  1  0
  7  8  1  0
  8  9  1  0
  9 10  1  0
 10 11  1  0
 11 12  1  0
 12 13  2  0
 13 14  1  0
 14 15  2  0
 15 16  1  0
 15 17  1  0
 17 18  1  0
 17 19  2  0
  2 20  1  0
 20 21  2  0
 21 22  1  0
 22 23  2  0
 23 24  1  0
 24 25  2  0
 25 26  1  0
 26 27  2  0
 27 28  1  0
 28 29  2  0
 11  7  1  0
 19 12  1  0
 29 20  1  0
 28 23  1  0
  3 30  1  0
  4 31  1  0
  4 32  1  0
  8 33  1  0
  8 34  1  0
  9 35  1  0
  9 36  1  0
 10 37  1  0
 10 38  1  0
 11 39  1  6
 13 40  1  0
 14 41  1  0
 19 42  1  0
 21 43  1  0
 22 44  1  0
 24 45  1  0
 25 46  1  0
 26 47  1  0
 27 48  1  0
M  END
>  <smiles>  (37) 
O=C(NCC(=O)N1CCC[C@H]1c1ccc(Cl)c(Cl)c1)c1ccc2ccccc2n1

>  <score_type>  (37) 
oracle

>  <origin>  (37) 
autodockgpu

>  <m_score__min__energy>  (37) 
-9.4299999999999997

>  <m_primary>  (37) 
energy

>  <rmsd>  (37) 
2.450925345846223

>  <m_score__min__rmsd>  (37) 
2.450925345846223

>  <meeko>  (37) 
{"free_energy": -9.43, "intermolecular_energy": -10.92, "internal_energy": -1.13, "cluster_size": 16, "cluster_id": 1, "rank_in_cluster": 1}

>  <energy>  (37) 
-8.71

>  <cluster_rmsd>  (37) 
0.0

>  <cluster>  (37) 
3

$$$$

     RDKit          3D

 48 51  0  0  0  0  0  0  0  0999 V2000
  139.5010   70.9000  221.1650 O   0  0  0  0  0  0  0  0  0  0  0  0
  139.3330   71.6020  222.1970 C   0  0  0  0  0  0  0  0  0  0  0  0
  138.8380   72.9330  222.0080 N   0  0  0  0  0  0  0  0  0  0  0  0
  138.5760   73.3510  220.6620 C   0  0  0  0  0  0  0  0  0  0  0  0
  138.5910   74.8190  220.5030 C   0  0  0  0  0  0  0  0  0  0  0  0
  137.6390   75.4890  220.0290 O   0  0  0  0  0  0  0  0  0  0  0  0
  139.7550   75.5310  220.9130 N   0  0  0  0  0  0  0  0  0  0  0  0
  140.1650   75.6940  222.2980 C   0  0  0  0  0  0  0  0  0  0  0  0
  140.6970   77.1130  222.2860 C   0  0  0  0  0  0  0  0  0  0  0  0
  140.8080   77.5240  220.8400 C   0  0  0  0  0  0  0  0  0  0  0  0
  140.7390   76.2180  220.0890 C   0  0  1  0  0  0  0  0  0  0  0  0
  141.9810   75.4210  220.1840 C   0  0  0  0  0  0  0  0  0  0  0  0
  143.1900   76.0550  220.0230 C   0  0  0  0  0  0  0  0  0  0  0  0
  144.4070   75.3690  220.0990 C   0  0  0  0  0  0  0  0  0  0  0  0
  144.4110   74.0090  220.3420 C   0  0  0  0  0  0  0  0  0  0  0  0
  145.9080   73.1020  220.4460 Cl  0  0  0  0  0  0  0  0  0  0  0  0
  143.2070   73.3610  220.5050 C   0  0  0  0  0  0  0  0  0  0  0  0
  143.2040   71.6250  220.8160 Cl  0  0  0  0  0  0  0  0  0  0  0  0
  142.0050   74.0630  220.4250 C   0  0  0  0  0  0  0  0  0  0  0  0
  139.6190   71.1160  223.5410 C   0  0  0  0  0  0  0  0  0  0  0  0
  139.2450   69.7990  223.8280 C   0  0  0  0  0  0  0  0  0  0  0  0
  139.5290   69.3680  225.1080 C   0  0  0  0  0  0  0  0  0  0  0  0
  140.1380   70.1570  226.0580 C   0  0  0  0  0  0  0  0  0  0  0  0
  140.4290   69.7510  227.3290 C   0  0  0  0  0  0  0  0  0  0  0  0
  141.0400   70.5600  228.2660 C   0  0  0  0  0  0  0  0  0  0  0  0
  141.3900   71.8660  227.9190 C   0  0  0  0  0  0  0  0  0  0  0  0
  141.0940   72.2690  226.6340 C   0  0  0  0  0  0  0  0  0  0  0  0
  140.4820   71.4500  225.7080 C   0  0  0  0  0  0  0  0  0  0  0  0
  140.2120   71.8800  224.4700 N   0  0  0  0  0  0  0  0  0  0  0  0
  138.6730   73.5770  222.8120 H   0  0  0  0  0  0  0  0  0  0  0  0
  139.3446   72.9189  220.0044 H   0  0  0  0  0  0  0  0  0  0  0  0
  137.5673   73.0006  220.3980 H   0  0  0  0  0  0  0  0  0  0  0  0
  139.3124   75.5895  222.9852 H   0  0  0  0  0  0  0  0  0  0  0  0
  140.8914   74.9438  222.6437 H   0  0  0  0  0  0  0  0  0  0  0  0
  140.0041   77.7818  222.8177 H   0  0  0  0  0  0  0  0  0  0  0  0
  141.6732   77.1729  222.7895 H   0  0  0  0  0  0  0  0  0  0  0  0
  139.9756   78.1844  220.5552 H   0  0  0  0  0  0  0  0  0  0  0  0
  141.7276   78.0890  220.6275 H   0  0  0  0  0  0  0  0  0  0  0  0
  140.5396   76.3558  219.0160 H   0  0  0  0  0  0  0  0  0  0  0  0
  143.2010   77.1375  219.8279 H   0  0  0  0  0  0  0  0  0  0  0  0
  145.3557   75.9097  219.9660 H   0  0  0  0  0  0  0  0  0  0  0  0
  141.0560   73.5226  220.5568 H   0  0  0  0  0  0  0  0  0  0  0  0
  138.7578   69.1512  223.0844 H   0  0  0  0  0  0  0  0  0  0  0  0
  139.2542   68.3393  225.3840 H   0  0  0  0  0  0  0  0  0  0  0  0
  140.1624   68.7247  227.6217 H   0  0  0  0  0  0  0  0  0  0  0  0
  141.2491   70.1791  229.2765 H   0  0  0  0  0  0  0  0  0  0  0  0
  141.8787   72.5415  228.6365 H   0  0  0  0  0  0  0  0  0  0  0  0
  141.3587   73.2933  226.3327 H   0  0  0  0  0  0  0  0  0  0  0  0
  1  2  2  0
  2  3  1  0
  3  4  1  0
  4  5  1  0
  5  6  2  0
  5  7  1  0
  7  8  1  0
  8  9  1  0
  9 10  1  0
 10 11  1  0
 11 12  1  0
 12 13  2  0
 13 14  1  0
 14 15  2  0
 15 16  1  0
 15 17  1  0
 17 18  1  0
 17 19  2  0
  2 20  1  0
 20 21  2  0
 21 22  1  0
 22 23  2  0
 23 24  1  0
 24 25  2  0
 25 26  1  0
 26 27  2  0
 27 28  1  0
 28 29  2  0
 11  7  1  0
 19 12  1  0
 29 20  1  0
 28 23  1  0
  3 30  1  0
  4 31  1  0
  4 32  1  0
  8 33  1  0
  8 34  1  0
  9 35  1  0
  9 36  1  0
 10 37  1  0
 10 38  1  0
 11 39  1  6
 13 40  1  0
 14 41  1  0
 19 42  1  0
 21 43  1  0
 22 44  1  0
 24 45  1  0
 25 46  1  0
 26 47  1  0
 27 48  1  0
M  END
>  <smiles>  (38) 
O=C(NCC(=O)N1CCC[C@H]1c1ccc(Cl)c(Cl)c1)c1ccc2ccccc2n1

>  <score_type>  (38) 
oracle

>  <origin>  (38) 
autodockgpu

>  <m_score__min__energy>  (38) 
-9.4299999999999997

>  <m_primary>  (38) 
energy

>  <rmsd>  (38) 
2.3359650053199825

>  <m_score__min__rmsd>  (38) 
2.3359650053199825

>  <meeko>  (38) 
{"free_energy": -8.28, "intermolecular_energy": -9.77, "internal_energy": -1.86, "cluster_size": 14, "cluster_id": 3, "rank_in_cluster": 13}

>  <energy>  (38) 
-8.68

>  <cluster_rmsd>  (38) 
0.17

>  <cluster>  (38) 
3

$$$$

     RDKit          3D

 48 51  0  0  0  0  0  0  0  0999 V2000
  140.5500   74.6160  220.3100 O   0  0  0  0  0  0  0  0  0  0  0  0
  140.1900   75.3910  221.2350 C   0  0  0  0  0  0  0  0  0  0  0  0
  139.2250   74.8890  222.1670 N   0  0  0  0  0  0  0  0  0  0  0  0
  138.7520   73.5510  221.9670 C   0  0  0  0  0  0  0  0  0  0  0  0
  139.7550   72.5280  222.3220 C   0  0  0  0  0  0  0  0  0  0  0  0
  140.9970   72.7260  222.3220 O   0  0  0  0  0  0  0  0  0  0  0  0
  139.2970   71.2300  222.6910 N   0  0  0  0  0  0  0  0  0  0  0  0
  139.8760   69.9910  222.2000 C   0  0  0  0  0  0  0  0  0  0  0  0
  138.6400   69.1290  222.0370 C   0  0  0  0  0  0  0  0  0  0  0  0
  137.5100   69.8550  222.7210 C   0  0  0  0  0  0  0  0  0  0  0  0
  138.2090   70.8710  223.5890 C   0  0  1  0  0  0  0  0  0  0  0  0
  138.8440   70.2810  224.7870 C   0  0  0  0  0  0  0  0  0  0  0  0
  138.7010   68.9330  225.0170 C   0  0  0  0  0  0  0  0  0  0  0  0
  139.2720   68.3030  226.1290 C   0  0  0  0  0  0  0  0  0  0  0  0
  140.0060   69.0450  227.0340 C   0  0  0  0  0  0  0  0  0  0  0  0
  140.7420   68.3040  228.4420 Cl  0  0  0  0  0  0  0  0  0  0  0  0
  140.1570   70.3960  226.8150 C   0  0  0  0  0  0  0  0  0  0  0  0
  141.0920   71.3510  227.9650 Cl  0  0  0  0  0  0  0  0  0  0  0  0
  139.5800   71.0060  225.7010 C   0  0  0  0  0  0  0  0  0  0  0  0
  140.7110   76.7430  221.3830 C   0  0  0  0  0  0  0  0  0  0  0  0
  140.9180   77.4720  220.2070 C   0  0  0  0  0  0  0  0  0  0  0  0
  141.4120   78.7480  220.3790 C   0  0  0  0  0  0  0  0  0  0  0  0
  141.6920   79.2950  221.6130 C   0  0  0  0  0  0  0  0  0  0  0  0
  142.1810   80.5550  221.8070 C   0  0  0  0  0  0  0  0  0  0  0  0
  142.4530   81.0830  223.0520 C   0  0  0  0  0  0  0  0  0  0  0  0
  142.2260   80.3070  224.1900 C   0  0  0  0  0  0  0  0  0  0  0  0
  141.7320   79.0350  223.9860 C   0  0  0  0  0  0  0  0  0  0  0  0
  141.4640   78.5210  222.7350 C   0  0  0  0  0  0  0  0  0  0  0  0
  140.9850   77.2800  222.5810 N   0  0  0  0  0  0  0  0  0  0  0  0
  138.8760   75.4690  222.9610 H   0  0  0  0  0  0  0  0  0  0  0  0
  137.8586   73.3977  222.5902 H   0  0  0  0  0  0  0  0  0  0  0  0
  138.5286   73.4365  220.8960 H   0  0  0  0  0  0  0  0  0  0  0  0
  140.3921   70.1404  221.2401 H   0  0  0  0  0  0  0  0  0  0  0  0
  140.6422   69.5592  222.8607 H   0  0  0  0  0  0  0  0  0  0  0  0
  138.4115   68.9925  220.9697 H   0  0  0  0  0  0  0  0  0  0  0  0
  138.7928   68.1325  222.4770 H   0  0  0  0  0  0  0  0  0  0  0  0
  136.8594   70.3498  221.9848 H   0  0  0  0  0  0  0  0  0  0  0  0
  136.8573   69.1813  223.2957 H   0  0  0  0  0  0  0  0  0  0  0  0
  137.5305   71.6568  223.9526 H   0  0  0  0  0  0  0  0  0  0  0  0
  138.1192   68.3302  224.3042 H   0  0  0  0  0  0  0  0  0  0  0  0
  139.1369   67.2220  226.2815 H   0  0  0  0  0  0  0  0  0  0  0  0
  139.7147   72.0870  225.5484 H   0  0  0  0  0  0  0  0  0  0  0  0
  140.7013   77.0555  219.2122 H   0  0  0  0  0  0  0  0  0  0  0  0
  141.5922   79.3618  219.4841 H   0  0  0  0  0  0  0  0  0  0  0  0
  142.3680   81.1826  220.9232 H   0  0  0  0  0  0  0  0  0  0  0  0
  142.8452   82.1063  223.1472 H   0  0  0  0  0  0  0  0  0  0  0  0
  142.4310   80.6910  225.2002 H   0  0  0  0  0  0  0  0  0  0  0  0
  141.5427   78.4001  224.8641 H   0  0  0  0  0  0  0  0  0  0  0  0
  1  2  2  0
  2  3  1  0
  3  4  1  0
  4  5  1  0
  5  6  2  0
  5  7  1  0
  7  8  1  0
  8  9  1  0
  9 10  1  0
 10 11  1  0
 11 12  1  0
 12 13  2  0
 13 14  1  0
 14 15  2  0
 15 16  1  0
 15 17  1  0
 17 18  1  0
 17 19  2  0
  2 20  1  0
 20 21  2  0
 21 22  1  0
 22 23  2  0
 23 24  1  0
 24 25  2  0
 25 26  1  0
 26 27  2  0
 27 28  1  0
 28 29  2  0
 11  7  1  0
 19 12  1  0
 29 20  1  0
 28 23  1  0
  3 30  1  0
  4 31  1  0
  4 32  1  0
  8 33  1  0
  8 34  1  0
  9 35  1  0
  9 36  1  0
 10 37  1  0
 10 38  1  0
 11 39  1  1
 13 40  1  0
 14 41  1  0
 19 42  1  0
 21 43  1  0
 22 44  1  0
 24 45  1  0
 25 46  1  0
 26 47  1  0
 27 48  1  0
M  END
>  <smiles>  (39) 
O=C(NCC(=O)N1CCC[C@H]1c1ccc(Cl)c(Cl)c1)c1ccc2ccccc2n1

>  <score_type>  (39) 
oracle

>  <origin>  (39) 
autodockgpu

>  <m_score__min__energy>  (39) 
-9.4299999999999997

>  <m_primary>  (39) 
energy

>  <rmsd>  (39) 
8.240811255387603

>  <m_score__min__rmsd>  (39) 
8.240811255387603

>  <meeko>  (39) 
{"free_energy": -9.06, "intermolecular_energy": -10.55, "internal_energy": -1.18, "cluster_size": 20, "cluster_id": 2, "rank_in_cluster": 5}

>  <energy>  (39) 
-8.68

>  <cluster_rmsd>  (39) 
0.09

>  <cluster>  (39) 
3

$$$$

     RDKit          3D

 48 51  0  0  0  0  0  0  0  0999 V2000
  140.0420   75.8290  220.6400 O   0  0  0  0  0  0  0  0  0  0  0  0
  139.6600   76.2210  221.7740 C   0  0  0  0  0  0  0  0  0  0  0  0
  138.8730   75.3090  222.5490 N   0  0  0  0  0  0  0  0  0  0  0  0
  138.5890   74.0290  221.9680 C   0  0  0  0  0  0  0  0  0  0  0  0
  139.7190   73.0840  222.0790 C   0  0  0  0  0  0  0  0  0  0  0  0
  140.9290   73.4150  221.9870 O   0  0  0  0  0  0  0  0  0  0  0  0
  139.4300   71.7080  222.3060 N   0  0  0  0  0  0  0  0  0  0  0  0
  140.2510   70.6120  221.8190 C   0  0  0  0  0  0  0  0  0  0  0  0
  139.1940   69.5910  221.4460 C   0  0  0  0  0  0  0  0  0  0  0  0
  137.8910   70.0850  222.0210 C   0  0  0  0  0  0  0  0  0  0  0  0
  138.3140   71.1210  223.0320 C   0  0  1  0  0  0  0  0  0  0  0  0
  138.8870   70.5380  224.2650 C   0  0  0  0  0  0  0  0  0  0  0  0
  138.7030   69.1980  224.5120 C   0  0  0  0  0  0  0  0  0  0  0  0
  139.2150   68.5750  225.6560 C   0  0  0  0  0  0  0  0  0  0  0  0
  139.9310   69.3160  226.5760 C   0  0  0  0  0  0  0  0  0  0  0  0
  140.5940   68.5840  228.0240 Cl  0  0  0  0  0  0  0  0  0  0  0  0
  140.1230   70.6590  226.3400 C   0  0  0  0  0  0  0  0  0  0  0  0
  141.0360   71.6130  227.5100 Cl  0  0  0  0  0  0  0  0  0  0  0  0
  139.6040   71.2620  225.1940 C   0  0  0  0  0  0  0  0  0  0  0  0
  139.9840   77.5380  222.3070 C   0  0  0  0  0  0  0  0  0  0  0  0
  138.9080   78.3660  222.6410 C   0  0  0  0  0  0  0  0  0  0  0  0
  139.2470   79.6060  223.1420 C   0  0  0  0  0  0  0  0  0  0  0  0
  140.5470   80.0270  223.3140 C   0  0  0  0  0  0  0  0  0  0  0  0
  140.9060   81.2480  223.8080 C   0  0  0  0  0  0  0  0  0  0  0  0
  142.2160   81.6490  223.9710 C   0  0  0  0  0  0  0  0  0  0  0  0
  143.2480   80.7770  223.6190 C   0  0  0  0  0  0  0  0  0  0  0  0
  142.8780   79.5450  223.1210 C   0  0  0  0  0  0  0  0  0  0  0  0
  141.5640   79.1580  222.9630 C   0  0  0  0  0  0  0  0  0  0  0  0
  141.2480   77.9520  222.4750 N   0  0  0  0  0  0  0  0  0  0  0  0
  138.5180   75.5590  223.4970 H   0  0  0  0  0  0  0  0  0  0  0  0
  137.7177   73.5961  222.4812 H   0  0  0  0  0  0  0  0  0  0  0  0
  138.3957   74.1882  220.8969 H   0  0  0  0  0  0  0  0  0  0  0  0
  140.8465   70.9128  220.9444 H   0  0  0  0  0  0  0  0  0  0  0  0
  140.9924   70.2476  222.5453 H   0  0  0  0  0  0  0  0  0  0  0  0
  139.1177   69.5070  220.3519 H   0  0  0  0  0  0  0  0  0  0  0  0
  139.4484   68.5964  221.8410 H   0  0  0  0  0  0  0  0  0  0  0  0
  137.2627   70.5350  221.2382 H   0  0  0  0  0  0  0  0  0  0  0  0
  137.2888   69.2785  222.4647 H   0  0  0  0  0  0  0  0  0  0  0  0
  137.4822   71.7660  223.3517 H   0  0  0  0  0  0  0  0  0  0  0  0
  138.1351   68.5962  223.7872 H   0  0  0  0  0  0  0  0  0  0  0  0
  139.0480   67.5004  225.8217 H   0  0  0  0  0  0  0  0  0  0  0  0
  139.7701   72.3367  225.0282 H   0  0  0  0  0  0  0  0  0  0  0  0
  137.8621   78.0502  222.5130 H   0  0  0  0  0  0  0  0  0  0  0  0
  138.4356   80.2952  223.4189 H   0  0  0  0  0  0  0  0  0  0  0  0
  140.1078   81.9499  224.0913 H   0  0  0  0  0  0  0  0  0  0  0  0
  142.4452   82.6463  224.3745 H   0  0  0  0  0  0  0  0  0  0  0  0
  144.3051   81.0588  223.7333 H   0  0  0  0  0  0  0  0  0  0  0  0
  143.6699   78.8367  222.8360 H   0  0  0  0  0  0  0  0  0  0  0  0
  1  2  2  0
  2  3  1  0
  3  4  1  0
  4  5  1  0
  5  6  2  0
  5  7  1  0
  7  8  1  0
  8  9  1  0
  9 10  1  0
 10 11  1  0
 11 12  1  0
 12 13  2  0
 13 14  1  0
 14 15  2  0
 15 16  1  0
 15 17  1  0
 17 18  1  0
 17 19  2  0
  2 20  1  0
 20 21  2  0
 21 22  1  0
 22 23  2  0
 23 24  1  0
 24 25  2  0
 25 26  1  0
 26 27  2  0
 27 28  1  0
 28 29  2  0
 11  7  1  0
 19 12  1  0
 29 20  1  0
 28 23  1  0
  3 30  1  0
  4 31  1  0
  4 32  1  0
  8 33  1  0
  8 34  1  0
  9 35  1  0
  9 36  1  0
 10 37  1  0
 10 38  1  0
 11 39  1  1
 13 40  1  0
 14 41  1  0
 19 42  1  0
 21 43  1  0
 22 44  1  0
 24 45  1  0
 25 46  1  0
 26 47  1  0
 27 48  1  0
M  END
>  <smiles>  (40) 
O=C(NCC(=O)N1CCC[C@H]1c1ccc(Cl)c(Cl)c1)c1ccc2ccccc2n1

>  <score_type>  (40) 
oracle

>  <origin>  (40) 
autodockgpu

>  <m_score__min__energy>  (40) 
-9.4299999999999997

>  <m_primary>  (40) 
energy

>  <rmsd>  (40) 
8.245610773615212

>  <m_score__min__rmsd>  (40) 
8.245610773615212

>  <meeko>  (40) 
{"free_energy": -9.36, "intermolecular_energy": -10.85, "internal_energy": -1.19, "cluster_size": 20, "cluster_id": 2, "rank_in_cluster": 2}

>  <energy>  (40) 
-8.64

>  <cluster_rmsd>  (40) 
0.79

>  <cluster>  (40) 
3

$$$$

     RDKit          3D

 48 51  0  0  0  0  0  0  0  0999 V2000
  140.8530   72.9480  222.3480 O   0  0  0  0  0  0  0  0  0  0  0  0
  139.9580   72.0890  222.5640 C   0  0  0  0  0  0  0  0  0  0  0  0
  138.9100   71.9810  221.5940 N   0  0  0  0  0  0  0  0  0  0  0  0
  138.9690   72.8580  220.4610 C   0  0  0  0  0  0  0  0  0  0  0  0
  138.5790   74.2450  220.7880 C   0  0  0  0  0  0  0  0  0  0  0  0
  137.4150   74.5950  221.1070 O   0  0  0  0  0  0  0  0  0  0  0  0
  139.5810   75.2570  220.7420 N   0  0  0  0  0  0  0  0  0  0  0  0
  139.7610   76.1740  219.6290 C   0  0  0  0  0  0  0  0  0  0  0  0
  141.2720   76.2830  219.5750 C   0  0  0  0  0  0  0  0  0  0  0  0
  141.7990   75.6500  220.8370 C   0  0  0  0  0  0  0  0  0  0  0  0
  140.5910   75.5830  221.7370 C   0  0  1  0  0  0  0  0  0  0  0  0
  140.2050   76.8970  222.2980 C   0  0  0  0  0  0  0  0  0  0  0  0
  138.8730   77.1590  222.5170 C   0  0  0  0  0  0  0  0  0  0  0  0
  138.4310   78.3770  223.0450 C   0  0  0  0  0  0  0  0  0  0  0  0
  139.3500   79.3600  223.3610 C   0  0  0  0  0  0  0  0  0  0  0  0
  138.8490   80.9030  224.0240 Cl  0  0  0  0  0  0  0  0  0  0  0  0
  140.6870   79.1100  223.1460 C   0  0  0  0  0  0  0  0  0  0  0  0
  141.8670   80.3580  223.5450 Cl  0  0  0  0  0  0  0  0  0  0  0  0
  141.1080   77.8890  222.6180 C   0  0  0  0  0  0  0  0  0  0  0  0
  139.9550   71.2260  223.7380 C   0  0  0  0  0  0  0  0  0  0  0  0
  139.3980   69.9530  223.5850 C   0  0  0  0  0  0  0  0  0  0  0  0
  139.4100   69.1600  224.7140 C   0  0  0  0  0  0  0  0  0  0  0  0
  139.9300   69.5670  225.9230 C   0  0  0  0  0  0  0  0  0  0  0  0
  139.9530   68.8000  227.0530 C   0  0  0  0  0  0  0  0  0  0  0  0
  140.4790   69.2290  228.2540 C   0  0  0  0  0  0  0  0  0  0  0  0
  141.0220   70.5110  228.3450 C   0  0  0  0  0  0  0  0  0  0  0  0
  140.9960   71.2810  227.2000 C   0  0  0  0  0  0  0  0  0  0  0  0
  140.4670   70.8390  226.0060 C   0  0  0  0  0  0  0  0  0  0  0  0
  140.4600   71.6180  224.9180 N   0  0  0  0  0  0  0  0  0  0  0  0
  138.1310   71.2950  221.7010 H   0  0  0  0  0  0  0  0  0  0  0  0
  139.9991   72.8645  220.0752 H   0  0  0  0  0  0  0  0  0  0  0  0
  138.2550   72.4813  219.7138 H   0  0  0  0  0  0  0  0  0  0  0  0
  139.3536   75.7589  218.6953 H   0  0  0  0  0  0  0  0  0  0  0  0
  139.2440   77.1373  219.7509 H   0  0  0  0  0  0  0  0  0  0  0  0
  141.6590   75.7502  218.6939 H   0  0  0  0  0  0  0  0  0  0  0  0
  141.5897   77.3333  219.4975 H   0  0  0  0  0  0  0  0  0  0  0  0
  142.1937   74.6433  220.6352 H   0  0  0  0  0  0  0  0  0  0  0  0
  142.6303   76.2164  221.2821 H   0  0  0  0  0  0  0  0  0  0  0  0
  140.7374   74.9096  222.5944 H   0  0  0  0  0  0  0  0  0  0  0  0
  138.1308   76.3859  222.2690 H   0  0  0  0  0  0  0  0  0  0  0  0
  137.3572   78.5515  223.2079 H   0  0  0  0  0  0  0  0  0  0  0  0
  142.1815   77.7142  222.4537 H   0  0  0  0  0  0  0  0  0  0  0  0
  138.9784   69.6069  222.6289 H   0  0  0  0  0  0  0  0  0  0  0  0
  138.9816   68.1492  224.6451 H   0  0  0  0  0  0  0  0  0  0  0  0
  139.5295   67.7861  227.0027 H   0  0  0  0  0  0  0  0  0  0  0  0
  140.4704   68.5663  229.1319 H   0  0  0  0  0  0  0  0  0  0  0  0
  141.4504   70.8899  229.2846 H   0  0  0  0  0  0  0  0  0  0  0  0
  141.4176   72.2961  227.2420 H   0  0  0  0  0  0  0  0  0  0  0  0
  1  2  2  0
  2  3  1  0
  3  4  1  0
  4  5  1  0
  5  6  2  0
  5  7  1  0
  7  8  1  0
  8  9  1  0
  9 10  1  0
 10 11  1  0
 11 12  1  0
 12 13  2  0
 13 14  1  0
 14 15  2  0
 15 16  1  0
 15 17  1  0
 17 18  1  0
 17 19  2  0
  2 20  1  0
 20 21  2  0
 21 22  1  0
 22 23  2  0
 23 24  1  0
 24 25  2  0
 25 26  1  0
 26 27  2  0
 27 28  1  0
 28 29  2  0
 11  7  1  0
 19 12  1  0
 29 20  1  0
 28 23  1  0
  3 30  1  0
  4 31  1  0
  4 32  1  0
  8 33  1  0
  8 34  1  0
  9 35  1  0
  9 36  1  0
 10 37  1  0
 10 38  1  0
 11 39  1  1
 13 40  1  0
 14 41  1  0
 19 42  1  0
 21 43  1  0
 22 44  1  0
 24 45  1  0
 25 46  1  0
 26 47  1  0
 27 48  1  0
M  END
>  <smiles>  (41) 
O=C(NCC(=O)N1CCC[C@H]1c1ccc(Cl)c(Cl)c1)c1ccc2ccccc2n1

>  <score_type>  (41) 
oracle

>  <origin>  (41) 
autodockgpu

>  <m_score__min__energy>  (41) 
-9.4299999999999997

>  <m_primary>  (41) 
energy

>  <rmsd>  (41) 
1.904371027180733

>  <m_score__min__rmsd>  (41) 
1.904371027180733

>  <meeko>  (41) 
{"free_energy": -8.59, "intermolecular_energy": -10.08, "internal_energy": -1.41, "cluster_size": 16, "cluster_id": 1, "rank_in_cluster": 12}

>  <energy>  (41) 
-8.63

>  <cluster_rmsd>  (41) 
0.2

>  <cluster>  (41) 
3

$$$$

     RDKit          3D

 48 51  0  0  0  0  0  0  0  0999 V2000
  140.7320   73.0590  222.7070 O   0  0  0  0  0  0  0  0  0  0  0  0
  139.7670   72.2750  222.9090 C   0  0  0  0  0  0  0  0  0  0  0  0
  138.6100   72.4380  222.0820 N   0  0  0  0  0  0  0  0  0  0  0  0
  138.6480   73.4790  221.0960 C   0  0  0  0  0  0  0  0  0  0  0  0
  138.7160   74.8290  221.6890 C   0  0  0  0  0  0  0  0  0  0  0  0
  137.8470   75.3060  222.4640 O   0  0  0  0  0  0  0  0  0  0  0  0
  139.8350   75.6520  221.3700 N   0  0  0  0  0  0  0  0  0  0  0  0
  140.5570   76.4570  222.3420 C   0  0  0  0  0  0  0  0  0  0  0  0
  140.8650   77.6990  221.5290 C   0  0  0  0  0  0  0  0  0  0  0  0
  140.5450   77.3690  220.0930 C   0  0  0  0  0  0  0  0  0  0  0  0
  140.4700   75.8630  220.0780 C   0  0  1  0  0  0  0  0  0  0  0  0
  141.7940   75.2090  220.1610 C   0  0  0  0  0  0  0  0  0  0  0  0
  142.9240   75.9810  220.0300 C   0  0  0  0  0  0  0  0  0  0  0  0
  144.2110   75.4350  220.0970 C   0  0  0  0  0  0  0  0  0  0  0  0
  144.3680   74.0770  220.2990 C   0  0  0  0  0  0  0  0  0  0  0  0
  145.9570   73.3430  220.3900 Cl  0  0  0  0  0  0  0  0  0  0  0  0
  143.2440   73.2920  220.4320 C   0  0  0  0  0  0  0  0  0  0  0  0
  143.4350   71.5590  220.6900 Cl  0  0  0  0  0  0  0  0  0  0  0  0
  141.9700   73.8560  220.3620 C   0  0  0  0  0  0  0  0  0  0  0  0
  139.7930   71.2360  223.9300 C   0  0  0  0  0  0  0  0  0  0  0  0
  139.1910   70.0160  223.6050 C   0  0  0  0  0  0  0  0  0  0  0  0
  139.2310   69.0520  224.5910 C   0  0  0  0  0  0  0  0  0  0  0  0
  139.8170   69.2490  225.8220 C   0  0  0  0  0  0  0  0  0  0  0  0
  139.8680   68.3110  226.8130 C   0  0  0  0  0  0  0  0  0  0  0  0
  140.4610   68.5300  228.0400 C   0  0  0  0  0  0  0  0  0  0  0  0
  141.0450   69.7690  228.3060 C   0  0  0  0  0  0  0  0  0  0  0  0
  140.9900   70.7120  227.3010 C   0  0  0  0  0  0  0  0  0  0  0  0
  140.3940   70.4790  226.0790 C   0  0  0  0  0  0  0  0  0  0  0  0
  140.3620   71.4220  225.1300 N   0  0  0  0  0  0  0  0  0  0  0  0
  137.7700   71.8290  222.1870 H   0  0  0  0  0  0  0  0  0  0  0  0
  139.5339   73.3293  220.4614 H   0  0  0  0  0  0  0  0  0  0  0  0
  137.7149   73.4194  220.5166 H   0  0  0  0  0  0  0  0  0  0  0  0
  139.9304   76.6923  223.2149 H   0  0  0  0  0  0  0  0  0  0  0  0
  141.4447   75.9638  222.7649 H   0  0  0  0  0  0  0  0  0  0  0  0
  140.2442   78.5398  221.8719 H   0  0  0  0  0  0  0  0  0  0  0  0
  141.9189   77.9934  221.6413 H   0  0  0  0  0  0  0  0  0  0  0  0
  139.5837   77.8122  219.7939 H   0  0  0  0  0  0  0  0  0  0  0  0
  141.2919   77.7647  219.3890 H   0  0  0  0  0  0  0  0  0  0  0  0
  139.9865   75.4717  219.1708 H   0  0  0  0  0  0  0  0  0  0  0  0
  142.8130   77.0632  219.8672 H   0  0  0  0  0  0  0  0  0  0  0  0
  145.0930   76.0835  219.9894 H   0  0  0  0  0  0  0  0  0  0  0  0
  141.0875   73.2082  220.4693 H   0  0  0  0  0  0  0  0  0  0  0  0
  138.7173   69.8372  222.6284 H   0  0  0  0  0  0  0  0  0  0  0  0
  138.7708   68.0747  224.3833 H   0  0  0  0  0  0  0  0  0  0  0  0
  139.4120   67.3281  226.6233 H   0  0  0  0  0  0  0  0  0  0  0  0
  140.4731   67.7355  228.8007 H   0  0  0  0  0  0  0  0  0  0  0  0
  141.5264   69.9835  229.2715 H   0  0  0  0  0  0  0  0  0  0  0  0
  141.4434   71.6976  227.4827 H   0  0  0  0  0  0  0  0  0  0  0  0
  1  2  2  0
  2  3  1  0
  3  4  1  0
  4  5  1  0
  5  6  2  0
  5  7  1  0
  7  8  1  0
  8  9  1  0
  9 10  1  0
 10 11  1  0
 11 12  1  0
 12 13  2  0
 13 14  1  0
 14 15  2  0
 15 16  1  0
 15 17  1  0
 17 18  1  0
 17 19  2  0
  2 20  1  0
 20 21  2  0
 21 22  1  0
 22 23  2  0
 23 24  1  0
 24 25  2  0
 25 26  1  0
 26 27  2  0
 27 28  1  0
 28 29  2  0
 11  7  1  0
 19 12  1  0
 29 20  1  0
 28 23  1  0
  3 30  1  0
  4 31  1  0
  4 32  1  0
  8 33  1  0
  8 34  1  0
  9 35  1  0
  9 36  1  0
 10 37  1  0
 10 38  1  0
 11 39  1  6
 13 40  1  0
 14 41  1  0
 19 42  1  0
 21 43  1  0
 22 44  1  0
 24 45  1  0
 25 46  1  0
 26 47  1  0
 27 48  1  0
M  END
>  <smiles>  (42) 
O=C(NCC(=O)N1CCC[C@H]1c1ccc(Cl)c(Cl)c1)c1ccc2ccccc2n1

>  <score_type>  (42) 
oracle

>  <origin>  (42) 
autodockgpu

>  <m_score__min__energy>  (42) 
-9.4299999999999997

>  <m_primary>  (42) 
energy

>  <rmsd>  (42) 
2.293103872859118

>  <m_score__min__rmsd>  (42) 
2.293103872859118

>  <meeko>  (42) 
{"free_energy": -8.64, "intermolecular_energy": -10.13, "internal_energy": -1.62, "cluster_size": 14, "cluster_id": 3, "rank_in_cluster": 4}

>  <energy>  (42) 
-8.6

>  <cluster_rmsd>  (42) 
0.25

>  <cluster>  (42) 
3

$$$$

     RDKit          3D

 48 51  0  0  0  0  0  0  0  0999 V2000
  140.5430   71.7220  221.8940 O   0  0  0  0  0  0  0  0  0  0  0  0
  139.6680   71.6790  222.7990 C   0  0  0  0  0  0  0  0  0  0  0  0
  138.6060   72.6370  222.7260 N   0  0  0  0  0  0  0  0  0  0  0  0
  138.6290   73.5620  221.6310 C   0  0  0  0  0  0  0  0  0  0  0  0
  139.7240   74.5480  221.7360 C   0  0  0  0  0  0  0  0  0  0  0  0
  140.8160   74.3330  222.3210 O   0  0  0  0  0  0  0  0  0  0  0  0
  139.5410   75.8280  221.1360 N   0  0  0  0  0  0  0  0  0  0  0  0
  138.3210   76.6100  221.2430 C   0  0  0  0  0  0  0  0  0  0  0  0
  138.2350   77.2200  219.8580 C   0  0  0  0  0  0  0  0  0  0  0  0
  139.5600   76.9600  219.1870 C   0  0  0  0  0  0  0  0  0  0  0  0
  140.4760   76.5960  220.3280 C   0  0  1  0  0  0  0  0  0  0  0  0
  140.8750   77.7560  221.1540 C   0  0  0  0  0  0  0  0  0  0  0  0
  141.1710   77.5560  222.4810 C   0  0  0  0  0  0  0  0  0  0  0  0
  141.5550   78.6040  223.3250 C   0  0  0  0  0  0  0  0  0  0  0  0
  141.6440   79.8880  222.8230 C   0  0  0  0  0  0  0  0  0  0  0  0
  142.1210   81.2360  223.8380 Cl  0  0  0  0  0  0  0  0  0  0  0  0
  141.3500   80.1030  221.4950 C   0  0  0  0  0  0  0  0  0  0  0  0
  141.4610   81.7390  220.8470 Cl  0  0  0  0  0  0  0  0  0  0  0  0
  140.9680   79.0450  220.6710 C   0  0  0  0  0  0  0  0  0  0  0  0
  139.7020   70.7100  223.8870 C   0  0  0  0  0  0  0  0  0  0  0  0
  139.0830   69.4780  223.6550 C   0  0  0  0  0  0  0  0  0  0  0  0
  139.1320   68.5830  224.7040 C   0  0  0  0  0  0  0  0  0  0  0  0
  139.7430   68.8560  225.9080 C   0  0  0  0  0  0  0  0  0  0  0  0
  139.8030   67.9860  226.9590 C   0  0  0  0  0  0  0  0  0  0  0  0
  140.4210   68.2810  228.1570 C   0  0  0  0  0  0  0  0  0  0  0  0
  141.0220   69.5290  228.3290 C   0  0  0  0  0  0  0  0  0  0  0  0
  140.9570   70.4020  227.2630 C   0  0  0  0  0  0  0  0  0  0  0  0
  140.3360   70.0940  226.0710 C   0  0  0  0  0  0  0  0  0  0  0  0
  140.2950   70.9710  225.0610 N   0  0  0  0  0  0  0  0  0  0  0  0
  137.8440   72.6670  223.4380 H   0  0  0  0  0  0  0  0  0  0  0  0
  138.7542   72.9963  220.6959 H   0  0  0  0  0  0  0  0  0  0  0  0
  137.6802   74.1184  221.6481 H   0  0  0  0  0  0  0  0  0  0  0  0
  137.4511   75.9714  221.4562 H   0  0  0  0  0  0  0  0  0  0  0  0
  138.3292   77.3470  222.0595 H   0  0  0  0  0  0  0  0  0  0  0  0
  137.4217   76.7492  219.2863 H   0  0  0  0  0  0  0  0  0  0  0  0
  138.0241   78.2982  219.9129 H   0  0  0  0  0  0  0  0  0  0  0  0
  139.4796   76.1304  218.4691 H   0  0  0  0  0  0  0  0  0  0  0  0
  139.9216   77.8242  218.6104 H   0  0  0  0  0  0  0  0  0  0  0  0
  141.4088   76.1222  219.9882 H   0  0  0  0  0  0  0  0  0  0  0  0
  141.1039   76.5384  222.8934 H   0  0  0  0  0  0  0  0  0  0  0  0
  141.7847   78.4065  224.3825 H   0  0  0  0  0  0  0  0  0  0  0  0
  140.7360   79.2422  219.6140 H   0  0  0  0  0  0  0  0  0  0  0  0
  138.5904   69.2385  222.7011 H   0  0  0  0  0  0  0  0  0  0  0  0
  138.6580   67.5992  224.5718 H   0  0  0  0  0  0  0  0  0  0  0  0
  139.3338   66.9977  226.8445 H   0  0  0  0  0  0  0  0  0  0  0  0
  140.4399   67.5393  228.9691 H   0  0  0  0  0  0  0  0  0  0  0  0
  141.5232   69.8030  229.2691 H   0  0  0  0  0  0  0  0  0  0  0  0
  141.4235   71.3925  227.3690 H   0  0  0  0  0  0  0  0  0  0  0  0
  1  2  2  0
  2  3  1  0
  3  4  1  0
  4  5  1  0
  5  6  2  0
  5  7  1  0
  7  8  1  0
  8  9  1  0
  9 10  1  0
 10 11  1  0
 11 12  1  0
 12 13  2  0
 13 14  1  0
 14 15  2  0
 15 16  1  0
 15 17  1  0
 17 18  1  0
 17 19  2  0
  2 20  1  0
 20 21  2  0
 21 22  1  0
 22 23  2  0
 23 24  1  0
 24 25  2  0
 25 26  1  0
 26 27  2  0
 27 28  1  0
 28 29  2  0
 11  7  1  0
 19 12  1  0
 29 20  1  0
 28 23  1  0
  3 30  1  0
  4 31  1  0
  4 32  1  0
  8 33  1  0
  8 34  1  0
  9 35  1  0
  9 36  1  0
 10 37  1  0
 10 38  1  0
 11 39  1  6
 13 40  1  0
 14 41  1  0
 19 42  1  0
 21 43  1  0
 22 44  1  0
 24 45  1  0
 25 46  1  0
 26 47  1  0
 27 48  1  0
M  END
>  <smiles>  (43) 
O=C(NCC(=O)N1CCC[C@H]1c1ccc(Cl)c(Cl)c1)c1ccc2ccccc2n1

>  <score_type>  (43) 
oracle

>  <origin>  (43) 
autodockgpu

>  <m_score__min__energy>  (43) 
-9.4299999999999997

>  <m_primary>  (43) 
energy

>  <rmsd>  (43) 
1.6791075491036649

>  <m_score__min__rmsd>  (43) 
1.6791075491036649

>  <meeko>  (43) 
{"free_energy": -9.03, "intermolecular_energy": -10.52, "internal_energy": -1.18, "cluster_size": 16, "cluster_id": 1, "rank_in_cluster": 5}

>  <energy>  (43) 
-8.6

>  <cluster_rmsd>  (43) 
0.54

>  <cluster>  (43) 
3

$$$$

     RDKit          3D

 48 51  0  0  0  0  0  0  0  0999 V2000
  137.3220   75.9530  222.4520 O   0  0  0  0  0  0  0  0  0  0  0  0
  138.5620   76.1750  222.4380 C   0  0  0  0  0  0  0  0  0  0  0  0
  139.4210   75.0640  222.1600 N   0  0  0  0  0  0  0  0  0  0  0  0
  138.7970   73.7950  221.9200 C   0  0  0  0  0  0  0  0  0  0  0  0
  139.7660   72.6820  221.8550 C   0  0  0  0  0  0  0  0  0  0  0  0
  140.9630   72.8070  221.4910 O   0  0  0  0  0  0  0  0  0  0  0  0
  139.3260   71.3800  222.2300 N   0  0  0  0  0  0  0  0  0  0  0  0
  139.9490   70.1480  221.7770 C   0  0  0  0  0  0  0  0  0  0  0  0
  138.7390   69.2540  221.5880 C   0  0  0  0  0  0  0  0  0  0  0  0
  137.5710   69.9640  222.2240 C   0  0  0  0  0  0  0  0  0  0  0  0
  138.2180   71.0090  223.0980 C   0  0  1  0  0  0  0  0  0  0  0  0
  138.8280   70.4520  224.3250 C   0  0  0  0  0  0  0  0  0  0  0  0
  138.6440   69.1190  224.6100 C   0  0  0  0  0  0  0  0  0  0  0  0
  139.1900   68.5200  225.7510 C   0  0  0  0  0  0  0  0  0  0  0  0
  139.9380   69.2790  226.6310 C   0  0  0  0  0  0  0  0  0  0  0  0
  140.6420   68.5770  228.0740 Cl  0  0  0  0  0  0  0  0  0  0  0  0
  140.1290   70.6150  226.3570 C   0  0  0  0  0  0  0  0  0  0  0  0
  141.0820   71.5910  227.4750 Cl  0  0  0  0  0  0  0  0  0  0  0  0
  139.5770   71.1930  225.2140 C   0  0  0  0  0  0  0  0  0  0  0  0
  139.1330   77.4920  222.6910 C   0  0  0  0  0  0  0  0  0  0  0  0
  138.2330   78.5500  222.8500 C   0  0  0  0  0  0  0  0  0  0  0  0
  138.8030   79.7840  223.0880 C   0  0  0  0  0  0  0  0  0  0  0  0
  140.1630   79.9900  223.1680 C   0  0  0  0  0  0  0  0  0  0  0  0
  140.7490   81.2010  223.4020 C   0  0  0  0  0  0  0  0  0  0  0  0
  142.1150   81.3830  223.4780 C   0  0  0  0  0  0  0  0  0  0  0  0
  142.9630   80.2880  223.3100 C   0  0  0  0  0  0  0  0  0  0  0  0
  142.3640   79.0680  223.0750 C   0  0  0  0  0  0  0  0  0  0  0  0
  140.9970   78.9000  223.0010 C   0  0  0  0  0  0  0  0  0  0  0  0
  140.4560   77.6980  222.7700 N   0  0  0  0  0  0  0  0  0  0  0  0
  140.4590   75.1660  222.1310 H   0  0  0  0  0  0  0  0  0  0  0  0
  138.0854   73.5940  222.7344 H   0  0  0  0  0  0  0  0  0  0  0  0
  138.2946   73.8533  220.9431 H   0  0  0  0  0  0  0  0  0  0  0  0
  140.4921   70.2955  220.8318 H   0  0  0  0  0  0  0  0  0  0  0  0
  140.7032   69.7443  222.4685 H   0  0  0  0  0  0  0  0  0  0  0  0
  138.5484   69.0959  220.5162 H   0  0  0  0  0  0  0  0  0  0  0  0
  138.9003   68.2680  222.0481 H   0  0  0  0  0  0  0  0  0  0  0  0
  136.9336   70.4324  221.4596 H   0  0  0  0  0  0  0  0  0  0  0  0
  136.9156   69.2840  222.7880 H   0  0  0  0  0  0  0  0  0  0  0  0
  137.5099   71.7837  223.4274 H   0  0  0  0  0  0  0  0  0  0  0  0
  138.0487   68.5041  223.9190 H   0  0  0  0  0  0  0  0  0  0  0  0
  139.0246   67.4502  225.9464 H   0  0  0  0  0  0  0  0  0  0  0  0
  139.7428   72.2626  225.0178 H   0  0  0  0  0  0  0  0  0  0  0  0
  137.1438   78.4083  222.7895 H   0  0  0  0  0  0  0  0  0  0  0  0
  138.1364   80.6489  223.2209 H   0  0  0  0  0  0  0  0  0  0  0  0
  140.0982   82.0775  223.5370 H   0  0  0  0  0  0  0  0  0  0  0  0
  142.5316   82.3829  223.6694 H   0  0  0  0  0  0  0  0  0  0  0  0
  144.0568   80.3926  223.3624 H   0  0  0  0  0  0  0  0  0  0  0  0
  143.0077   78.1863  222.9400 H   0  0  0  0  0  0  0  0  0  0  0  0
  1  2  2  0
  2  3  1  0
  3  4  1  0
  4  5  1  0
  5  6  2  0
  5  7  1  0
  7  8  1  0
  8  9  1  0
  9 10  1  0
 10 11  1  0
 11 12  1  0
 12 13  2  0
 13 14  1  0
 14 15  2  0
 15 16  1  0
 15 17  1  0
 17 18  1  0
 17 19  2  0
  2 20  1  0
 20 21  2  0
 21 22  1  0
 22 23  2  0
 23 24  1  0
 24 25  2  0
 25 26  1  0
 26 27  2  0
 27 28  1  0
 28 29  2  0
 11  7  1  0
 19 12  1  0
 29 20  1  0
 28 23  1  0
  3 30  1  0
  4 31  1  0
  4 32  1  0
  8 33  1  0
  8 34  1  0
  9 35  1  0
  9 36  1  0
 10 37  1  0
 10 38  1  0
 11 39  1  1
 13 40  1  0
 14 41  1  0
 19 42  1  0
 21 43  1  0
 22 44  1  0
 24 45  1  0
 25 46  1  0
 26 47  1  0
 27 48  1  0
M  END
>  <smiles>  (44) 
O=C(NCC(=O)N1CCC[C@H]1c1ccc(Cl)c(Cl)c1)c1ccc2ccccc2n1

>  <score_type>  (44) 
oracle

>  <origin>  (44) 
autodockgpu

>  <m_score__min__energy>  (44) 
-9.4299999999999997

>  <m_primary>  (44) 
energy

>  <rmsd>  (44) 
8.303287132214878

>  <m_score__min__rmsd>  (44) 
8.303287132214878

>  <meeko>  (44) 
{"free_energy": -8.62, "intermolecular_energy": -10.11, "internal_energy": -1.57, "cluster_size": 20, "cluster_id": 2, "rank_in_cluster": 19}

>  <energy>  (44) 
-8.52

>  <cluster_rmsd>  (44) 
0.49

>  <cluster>  (44) 
3

$$$$

     RDKit          3D

 48 51  0  0  0  0  0  0  0  0999 V2000
  140.3360   71.5680  221.3140 O   0  0  0  0  0  0  0  0  0  0  0  0
  139.7400   71.9300  222.3630 C   0  0  0  0  0  0  0  0  0  0  0  0
  138.8910   73.0790  222.2680 N   0  0  0  0  0  0  0  0  0  0  0  0
  138.7920   73.7190  220.9880 C   0  0  0  0  0  0  0  0  0  0  0  0
  138.7390   75.1910  221.0850 C   0  0  0  0  0  0  0  0  0  0  0  0
  137.6810   75.8520  221.2440 O   0  0  0  0  0  0  0  0  0  0  0  0
  139.9610   75.9190  220.9940 N   0  0  0  0  0  0  0  0  0  0  0  0
  140.6120   76.5620  222.1230 C   0  0  0  0  0  0  0  0  0  0  0  0
  141.1400   77.8290  221.4810 C   0  0  0  0  0  0  0  0  0  0  0  0
  140.9910   77.6560  219.9900 C   0  0  0  0  0  0  0  0  0  0  0  0
  140.7840   76.1710  219.8210 C   0  0  1  0  0  0  0  0  0  0  0  0
  142.0200   75.3810  220.0090 C   0  0  0  0  0  0  0  0  0  0  0  0
  143.2340   76.0200  219.9260 C   0  0  0  0  0  0  0  0  0  0  0  0
  144.4460   75.3390  220.0930 C   0  0  0  0  0  0  0  0  0  0  0  0
  144.4390   73.9820  220.3500 C   0  0  0  0  0  0  0  0  0  0  0  0
  145.9280   73.0840  220.5670 Cl  0  0  0  0  0  0  0  0  0  0  0  0
  143.2290   73.3300  220.4350 C   0  0  0  0  0  0  0  0  0  0  0  0
  143.2100   71.5970  220.7620 Cl  0  0  0  0  0  0  0  0  0  0  0  0
  142.0320   74.0260  220.2650 C   0  0  0  0  0  0  0  0  0  0  0  0
  139.8850   71.2350  223.6360 C   0  0  0  0  0  0  0  0  0  0  0  0
  139.4980   69.8910  223.6680 C   0  0  0  0  0  0  0  0  0  0  0  0
  139.6460   69.2600  224.8860 C   0  0  0  0  0  0  0  0  0  0  0  0
  140.1400   69.8850  226.0110 C   0  0  0  0  0  0  0  0  0  0  0  0
  140.2950   69.2810  227.2250 C   0  0  0  0  0  0  0  0  0  0  0  0
  140.7920   69.9270  228.3390 C   0  0  0  0  0  0  0  0  0  0  0  0
  141.1620   71.2690  228.2440 C   0  0  0  0  0  0  0  0  0  0  0  0
  141.0020   71.8730  227.0140 C   0  0  0  0  0  0  0  0  0  0  0  0
  140.5040   71.2150  225.9090 C   0  0  0  0  0  0  0  0  0  0  0  0
  140.3650   71.8380  224.7330 N   0  0  0  0  0  0  0  0  0  0  0  0
  138.3640   73.4430  223.0920 H   0  0  0  0  0  0  0  0  0  0  0  0
  139.6690   73.4381  220.3863 H   0  0  0  0  0  0  0  0  0  0  0  0
  137.8528   73.3845  220.5232 H   0  0  0  0  0  0  0  0  0  0  0  0
  139.8951   76.7866  222.9265 H   0  0  0  0  0  0  0  0  0  0  0  0
  141.3850   75.9468  222.6067 H   0  0  0  0  0  0  0  0  0  0  0  0
  140.5572   78.6975  221.8217 H   0  0  0  0  0  0  0  0  0  0  0  0
  142.1910   78.0025  221.7554 H   0  0  0  0  0  0  0  0  0  0  0  0
  140.1232   78.2182  219.6147 H   0  0  0  0  0  0  0  0  0  0  0  0
  141.8589   78.0320  219.4285 H   0  0  0  0  0  0  0  0  0  0  0  0
  140.3963   75.9075  218.8259 H   0  0  0  0  0  0  0  0  0  0  0  0
  143.2541   77.1007  219.7219 H   0  0  0  0  0  0  0  0  0  0  0  0
  145.3996   75.8824  220.0198 H   0  0  0  0  0  0  0  0  0  0  0  0
  141.0781   73.4828  220.3366 H   0  0  0  0  0  0  0  0  0  0  0  0
  139.1025   69.3725  222.7822 H   0  0  0  0  0  0  0  0  0  0  0  0
  139.3544   68.2022  224.9635 H   0  0  0  0  0  0  0  0  0  0  0  0
  140.0087   68.2232  227.3208 H   0  0  0  0  0  0  0  0  0  0  0  0
  140.8954   69.3888  229.2928 H   0  0  0  0  0  0  0  0  0  0  0  0
  141.5621   71.8191  229.1085 H   0  0  0  0  0  0  0  0  0  0  0  0
  141.2854   72.9307  226.9096 H   0  0  0  0  0  0  0  0  0  0  0  0
  1  2  2  0
  2  3  1  0
  3  4  1  0
  4  5  1  0
  5  6  2  0
  5  7  1  0
  7  8  1  0
  8  9  1  0
  9 10  1  0
 10 11  1  0
 11 12  1  0
 12 13  2  0
 13 14  1  0
 14 15  2  0
 15 16  1  0
 15 17  1  0
 17 18  1  0
 17 19  2  0
  2 20  1  0
 20 21  2  0
 21 22  1  0
 22 23  2  0
 23 24  1  0
 24 25  2  0
 25 26  1  0
 26 27  2  0
 27 28  1  0
 28 29  2  0
 11  7  1  0
 19 12  1  0
 29 20  1  0
 28 23  1  0
  3 30  1  0
  4 31  1  0
  4 32  1  0
  8 33  1  0
  8 34  1  0
  9 35  1  0
  9 36  1  0
 10 37  1  0
 10 38  1  0
 11 39  1  6
 13 40  1  0
 14 41  1  0
 19 42  1  0
 21 43  1  0
 22 44  1  0
 24 45  1  0
 25 46  1  0
 26 47  1  0
 27 48  1  0
M  END
>  <smiles>  (45) 
O=C(NCC(=O)N1CCC[C@H]1c1ccc(Cl)c(Cl)c1)c1ccc2ccccc2n1

>  <score_type>  (45) 
oracle

>  <origin>  (45) 
autodockgpu

>  <m_score__min__energy>  (45) 
-9.4299999999999997

>  <m_primary>  (45) 
energy

>  <rmsd>  (45) 
2.2112638737504384

>  <m_score__min__rmsd>  (45) 
2.2112638737504384

>  <meeko>  (45) 
{"free_energy": -8.71, "intermolecular_energy": -10.2, "internal_energy": -1.74, "cluster_size": 14, "cluster_id": 3, "rank_in_cluster": 1}

>  <energy>  (45) 
-8.48

>  <cluster_rmsd>  (45) 
0.8

>  <cluster>  (45) 
3

$$$$

     RDKit          3D

 48 51  0  0  0  0  0  0  0  0999 V2000
  140.1960   71.4860  221.2460 O   0  0  0  0  0  0  0  0  0  0  0  0
  139.9920   72.0480  222.3540 C   0  0  0  0  0  0  0  0  0  0  0  0
  139.7220   73.4550  222.3320 N   0  0  0  0  0  0  0  0  0  0  0  0
  139.7090   74.1020  221.0530 C   0  0  0  0  0  0  0  0  0  0  0  0
  141.0330   74.6220  220.6580 C   0  0  0  0  0  0  0  0  0  0  0  0
  142.1270   74.1190  221.0210 O   0  0  0  0  0  0  0  0  0  0  0  0
  141.0850   75.7660  219.8110 N   0  0  0  0  0  0  0  0  0  0  0  0
  139.9320   76.3240  219.1240 C   0  0  0  0  0  0  0  0  0  0  0  0
  140.5440   76.7370  217.8010 C   0  0  0  0  0  0  0  0  0  0  0  0
  142.0400   76.6410  217.9650 C   0  0  0  0  0  0  0  0  0  0  0  0
  142.2340   76.5870  219.4600 C   0  0  1  0  0  0  0  0  0  0  0  0
  142.0260   77.8910  220.1260 C   0  0  0  0  0  0  0  0  0  0  0  0
  142.0490   79.0360  219.3650 C   0  0  0  0  0  0  0  0  0  0  0  0
  141.8600   80.3050  219.9230 C   0  0  0  0  0  0  0  0  0  0  0  0
  141.6430   80.4290  221.2820 C   0  0  0  0  0  0  0  0  0  0  0  0
  141.4010   81.9950  222.0300 Cl  0  0  0  0  0  0  0  0  0  0  0  0
  141.6180   79.2900  222.0560 C   0  0  0  0  0  0  0  0  0  0  0  0
  141.3410   79.4400  223.7910 Cl  0  0  0  0  0  0  0  0  0  0  0  0
  141.8080   78.0340  221.4800 C   0  0  0  0  0  0  0  0  0  0  0  0
  140.0200   71.3310  223.6220 C   0  0  0  0  0  0  0  0  0  0  0  0
  139.5440   70.0160  223.6150 C   0  0  0  0  0  0  0  0  0  0  0  0
  139.5830   69.3640  224.8300 C   0  0  0  0  0  0  0  0  0  0  0  0
  140.0540   69.9430  225.9880 C   0  0  0  0  0  0  0  0  0  0  0  0
  140.1030   69.3160  227.2010 C   0  0  0  0  0  0  0  0  0  0  0  0
  140.5790   69.9160  228.3490 C   0  0  0  0  0  0  0  0  0  0  0  0
  141.0410   71.2320  228.2930 C   0  0  0  0  0  0  0  0  0  0  0  0
  140.9900   71.8580  227.0650 C   0  0  0  0  0  0  0  0  0  0  0  0
  140.5110   71.2460  225.9260 C   0  0  0  0  0  0  0  0  0  0  0  0
  140.4780   71.8900  224.7530 N   0  0  0  0  0  0  0  0  0  0  0  0
  139.5440   73.9930  223.2080 H   0  0  0  0  0  0  0  0  0  0  0  0
  139.3770   73.3762  220.2960 H   0  0  0  0  0  0  0  0  0  0  0  0
  139.0254   74.9608  221.1248 H   0  0  0  0  0  0  0  0  0  0  0  0
  139.1430   75.5703  218.9846 H   0  0  0  0  0  0  0  0  0  0  0  0
  139.4382   77.1436  219.6666 H   0  0  0  0  0  0  0  0  0  0  0  0
  140.2066   76.0622  217.0005 H   0  0  0  0  0  0  0  0  0  0  0  0
  140.2413   77.7586  217.5275 H   0  0  0  0  0  0  0  0  0  0  0  0
  142.4293   75.7305  217.4859 H   0  0  0  0  0  0  0  0  0  0  0  0
  142.5746   77.4803  217.4962 H   0  0  0  0  0  0  0  0  0  0  0  0
  143.2418   76.2507  219.7451 H   0  0  0  0  0  0  0  0  0  0  0  0
  142.2217   78.9515  218.2819 H   0  0  0  0  0  0  0  0  0  0  0  0
  141.8840   81.1994  219.2831 H   0  0  0  0  0  0  0  0  0  0  0  0
  141.7834   77.1390  222.1191 H   0  0  0  0  0  0  0  0  0  0  0  0
  139.1641   69.5341  222.7021 H   0  0  0  0  0  0  0  0  0  0  0  0
  139.2188   68.3271  224.8768 H   0  0  0  0  0  0  0  0  0  0  0  0
  139.7441   68.2782  227.2659 H   0  0  0  0  0  0  0  0  0  0  0  0
  140.5942   69.3623  229.2994 H   0  0  0  0  0  0  0  0  0  0  0  0
  141.4274   71.7454  229.1858 H   0  0  0  0  0  0  0  0  0  0  0  0
  141.3487   72.8952  226.9907 H   0  0  0  0  0  0  0  0  0  0  0  0
  1  2  2  0
  2  3  1  0
  3  4  1  0
  4  5  1  0
  5  6  2  0
  5  7  1  0
  7  8  1  0
  8  9  1  0
  9 10  1  0
 10 11  1  0
 11 12  1  0
 12 13  2  0
 13 14  1  0
 14 15  2  0
 15 16  1  0
 15 17  1  0
 17 18  1  0
 17 19  2  0
  2 20  1  0
 20 21  2  0
 21 22  1  0
 22 23  2  0
 23 24  1  0
 24 25  2  0
 25 26  1  0
 26 27  2  0
 27 28  1  0
 28 29  2  0
 11  7  1  0
 19 12  1  0
 29 20  1  0
 28 23  1  0
  3 30  1  0
  4 31  1  0
  4 32  1  0
  8 33  1  0
  8 34  1  0
  9 35  1  0
  9 36  1  0
 10 37  1  0
 10 38  1  0
 11 39  1  6
 13 40  1  0
 14 41  1  0
 19 42  1  0
 21 43  1  0
 22 44  1  0
 24 45  1  0
 25 46  1  0
 26 47  1  0
 27 48  1  0
M  END
>  <smiles>  (46) 
O=C(NCC(=O)N1CCC[C@H]1c1ccc(Cl)c(Cl)c1)c1ccc2ccccc2n1

>  <score_type>  (46) 
oracle

>  <origin>  (46) 
autodockgpu

>  <m_score__min__energy>  (46) 
-9.4299999999999997

>  <m_primary>  (46) 
energy

>  <rmsd>  (46) 
1.4128839177748684

>  <m_score__min__rmsd>  (46) 
1.4128839177748684

>  <meeko>  (46) 
{"free_energy": -8.59, "intermolecular_energy": -10.08, "internal_energy": -1.35, "cluster_size": 16, "cluster_id": 1, "rank_in_cluster": 11}

>  <energy>  (46) 
-8.41

>  <cluster_rmsd>  (46) 
0.34

>  <cluster>  (46) 
3

$$$$

     RDKit          3D

 48 51  0  0  0  0  0  0  0  0999 V2000
  140.1320   71.3740  221.2520 O   0  0  0  0  0  0  0  0  0  0  0  0
  139.6740   71.8470  222.3250 C   0  0  0  0  0  0  0  0  0  0  0  0
  138.9230   73.0630  222.2330 N   0  0  0  0  0  0  0  0  0  0  0  0
  138.7570   73.6370  220.9300 C   0  0  0  0  0  0  0  0  0  0  0  0
  138.6890   75.1120  220.9560 C   0  0  0  0  0  0  0  0  0  0  0  0
  137.6180   75.7700  220.9340 O   0  0  0  0  0  0  0  0  0  0  0  0
  139.9100   75.8450  221.0100 N   0  0  0  0  0  0  0  0  0  0  0  0
  140.5010   76.3510  222.2380 C   0  0  0  0  0  0  0  0  0  0  0  0
  141.0530   77.6840  221.7730 C   0  0  0  0  0  0  0  0  0  0  0  0
  140.9800   77.6850  220.2680 C   0  0  0  0  0  0  0  0  0  0  0  0
  140.7880   76.2310  219.9170 C   0  0  1  0  0  0  0  0  0  0  0  0
  142.0170   75.4230  220.0740 C   0  0  0  0  0  0  0  0  0  0  0  0
  143.2390   76.0420  219.9470 C   0  0  0  0  0  0  0  0  0  0  0  0
  144.4440   75.3450  220.0820 C   0  0  0  0  0  0  0  0  0  0  0  0
  144.4250   73.9900  220.3510 C   0  0  0  0  0  0  0  0  0  0  0  0
  145.9060   73.0700  220.5290 Cl  0  0  0  0  0  0  0  0  0  0  0  0
  143.2080   73.3570  220.4800 C   0  0  0  0  0  0  0  0  0  0  0  0
  143.1740   71.6280  220.8230 Cl  0  0  0  0  0  0  0  0  0  0  0  0
  142.0170   74.0700  220.3410 C   0  0  0  0  0  0  0  0  0  0  0  0
  139.8780   71.2130  223.6210 C   0  0  0  0  0  0  0  0  0  0  0  0
  139.5280   69.8640  223.7260 C   0  0  0  0  0  0  0  0  0  0  0  0
  139.7330   69.2920  224.9650 C   0  0  0  0  0  0  0  0  0  0  0  0
  140.2470   69.9790  226.0430 C   0  0  0  0  0  0  0  0  0  0  0  0
  140.4580   69.4330  227.2770 C   0  0  0  0  0  0  0  0  0  0  0  0
  140.9740   70.1410  228.3440 C   0  0  0  0  0  0  0  0  0  0  0  0
  141.3050   71.4860  228.1770 C   0  0  0  0  0  0  0  0  0  0  0  0
  141.0890   72.0300  226.9280 C   0  0  0  0  0  0  0  0  0  0  0  0
  140.5730   71.3110  225.8710 C   0  0  0  0  0  0  0  0  0  0  0  0
  140.3780   71.8770  224.6740 N   0  0  0  0  0  0  0  0  0  0  0  0
  138.5110   73.5190  223.0760 H   0  0  0  0  0  0  0  0  0  0  0  0
  139.6090   73.3360  220.3027 H   0  0  0  0  0  0  0  0  0  0  0  0
  137.8018   73.2696  220.5268 H   0  0  0  0  0  0  0  0  0  0  0  0
  139.7442   76.4810  223.0257 H   0  0  0  0  0  0  0  0  0  0  0  0
  141.2519   75.6833  222.6857 H   0  0  0  0  0  0  0  0  0  0  0  0
  140.4488   78.5073  222.1819 H   0  0  0  0  0  0  0  0  0  0  0  0
  142.0881   77.8242  222.1178 H   0  0  0  0  0  0  0  0  0  0  0  0
  140.1299   78.2885  219.9172 H   0  0  0  0  0  0  0  0  0  0  0  0
  141.8739   78.1218  219.7987 H   0  0  0  0  0  0  0  0  0  0  0  0
  140.4510   76.0860  218.8800 H   0  0  0  0  0  0  0  0  0  0  0  0
  143.2693   77.1204  219.7323 H   0  0  0  0  0  0  0  0  0  0  0  0
  145.4028   75.8734  219.9745 H   0  0  0  0  0  0  0  0  0  0  0  0
  141.0578   73.5420  220.4466 H   0  0  0  0  0  0  0  0  0  0  0  0
  139.1168   69.2965  222.8782 H   0  0  0  0  0  0  0  0  0  0  0  0
  139.4723   68.2318  225.0990 H   0  0  0  0  0  0  0  0  0  0  0  0
  140.2035   68.3737  227.4286 H   0  0  0  0  0  0  0  0  0  0  0  0
  141.1228   69.6493  229.3167 H   0  0  0  0  0  0  0  0  0  0  0  0
  141.7186   72.0843  229.0023 H   0  0  0  0  0  0  0  0  0  0  0  0
  141.3407   73.0887  226.7676 H   0  0  0  0  0  0  0  0  0  0  0  0
  1  2  2  0
  2  3  1  0
  3  4  1  0
  4  5  1  0
  5  6  2  0
  5  7  1  0
  7  8  1  0
  8  9  1  0
  9 10  1  0
 10 11  1  0
 11 12  1  0
 12 13  2  0
 13 14  1  0
 14 15  2  0
 15 16  1  0
 15 17  1  0
 17 18  1  0
 17 19  2  0
  2 20  1  0
 20 21  2  0
 21 22  1  0
 22 23  2  0
 23 24  1  0
 24 25  2  0
 25 26  1  0
 26 27  2  0
 27 28  1  0
 28 29  2  0
 11  7  1  0
 19 12  1  0
 29 20  1  0
 28 23  1  0
  3 30  1  0
  4 31  1  0
  4 32  1  0
  8 33  1  0
  8 34  1  0
  9 35  1  0
  9 36  1  0
 10 37  1  0
 10 38  1  0
 11 39  1  6
 13 40  1  0
 14 41  1  0
 19 42  1  0
 21 43  1  0
 22 44  1  0
 24 45  1  0
 25 46  1  0
 26 47  1  0
 27 48  1  0
M  END
>  <smiles>  (47) 
O=C(NCC(=O)N1CCC[C@H]1c1ccc(Cl)c(Cl)c1)c1ccc2ccccc2n1

>  <score_type>  (47) 
oracle

>  <origin>  (47) 
autodockgpu

>  <m_score__min__energy>  (47) 
-9.4299999999999997

>  <m_primary>  (47) 
energy

>  <rmsd>  (47) 
2.2680658975241927

>  <m_score__min__rmsd>  (47) 
2.2680658975241927

>  <meeko>  (47) 
{"free_energy": -8.68, "intermolecular_energy": -10.17, "internal_energy": -1.84, "cluster_size": 14, "cluster_id": 3, "rank_in_cluster": 2}

>  <energy>  (47) 
-8.31

>  <cluster_rmsd>  (47) 
0.55

>  <cluster>  (47) 
3

$$$$

     RDKit          3D

 48 51  0  0  0  0  0  0  0  0999 V2000
  141.4150   74.7370  221.2960 O   0  0  0  0  0  0  0  0  0  0  0  0
  140.4480   75.2110  221.9490 C   0  0  0  0  0  0  0  0  0  0  0  0
  139.4070   74.3020  222.3260 N   0  0  0  0  0  0  0  0  0  0  0  0
  139.5550   72.9330  221.9290 C   0  0  0  0  0  0  0  0  0  0  0  0
  138.3430   72.1280  222.1790 C   0  0  0  0  0  0  0  0  0  0  0  0
  137.1690   72.5660  222.0730 O   0  0  0  0  0  0  0  0  0  0  0  0
  138.5030   70.7660  222.5660 N   0  0  0  0  0  0  0  0  0  0  0  0
  139.5620   69.8990  222.0750 C   0  0  0  0  0  0  0  0  0  0  0  0
  138.8280   68.5800  221.9380 C   0  0  0  0  0  0  0  0  0  0  0  0
  137.5000   68.7470  222.6330 C   0  0  0  0  0  0  0  0  0  0  0  0
  137.6920   69.9790  223.4820 C   0  0  1  0  0  0  0  0  0  0  0  0
  138.5340   69.7430  224.6750 C   0  0  0  0  0  0  0  0  0  0  0  0
  138.5510   68.4880  225.2370 C   0  0  0  0  0  0  0  0  0  0  0  0
  139.3230   68.1880  226.3650 C   0  0  0  0  0  0  0  0  0  0  0  0
  140.0960   69.1740  226.9470 C   0  0  0  0  0  0  0  0  0  0  0  0
  141.0800   68.8510  228.3620 Cl  0  0  0  0  0  0  0  0  0  0  0  0
  140.0870   70.4350  226.3950 C   0  0  0  0  0  0  0  0  0  0  0  0
  141.0710   71.7000  227.1310 Cl  0  0  0  0  0  0  0  0  0  0  0  0
  139.3120   70.7140  225.2700 C   0  0  0  0  0  0  0  0  0  0  0  0
  140.3580   76.6170  222.3220 C   0  0  0  0  0  0  0  0  0  0  0  0
  139.0750   77.1680  222.4020 C   0  0  0  0  0  0  0  0  0  0  0  0
  139.0220   78.5000  222.7580 C   0  0  0  0  0  0  0  0  0  0  0  0
  140.1400   79.2610  223.0210 C   0  0  0  0  0  0  0  0  0  0  0  0
  140.1120   80.5800  223.3740 C   0  0  0  0  0  0  0  0  0  0  0  0
  141.2450   81.3230  223.6340 C   0  0  0  0  0  0  0  0  0  0  0  0
  142.4990   80.7170  223.5370 C   0  0  0  0  0  0  0  0  0  0  0  0
  142.5200   79.3850  223.1810 C   0  0  0  0  0  0  0  0  0  0  0  0
  141.3790   78.6540  222.9240 C   0  0  0  0  0  0  0  0  0  0  0  0
  141.4430   77.3620  222.5800 N   0  0  0  0  0  0  0  0  0  0  0  0
  138.5730   74.6170  222.8670 H   0  0  0  0  0  0  0  0  0  0  0  0
  139.7810   72.9021  220.8529 H   0  0  0  0  0  0  0  0  0  0  0  0
  140.3681   72.5009  222.5307 H   0  0  0  0  0  0  0  0  0  0  0  0
  139.9497   70.2464  221.1060 H   0  0  0  0  0  0  0  0  0  0  0  0
  140.4469   69.8560  222.7269 H   0  0  0  0  0  0  0  0  0  0  0  0
  138.6722   68.3418  220.8755 H   0  0  0  0  0  0  0  0  0  0  0  0
  139.4067   67.7577  222.3841 H   0  0  0  0  0  0  0  0  0  0  0  0
  136.6912   68.8964  221.9025 H   0  0  0  0  0  0  0  0  0  0  0  0
  137.2139   67.8637  223.2228 H   0  0  0  0  0  0  0  0  0  0  0  0
  136.7413   70.3930  223.8491 H   0  0  0  0  0  0  0  0  0  0  0  0
  137.9379   67.6942  224.7852 H   0  0  0  0  0  0  0  0  0  0  0  0
  139.3144   67.1719  226.7862 H   0  0  0  0  0  0  0  0  0  0  0  0
  139.3213   71.7299  224.8482 H   0  0  0  0  0  0  0  0  0  0  0  0
  138.1692   76.5791  222.1950 H   0  0  0  0  0  0  0  0  0  0  0  0
  138.0351   78.9796  222.8359 H   0  0  0  0  0  0  0  0  0  0  0  0
  139.1338   81.0765  223.4553 H   0  0  0  0  0  0  0  0  0  0  0  0
  141.1611   82.3831  223.9152 H   0  0  0  0  0  0  0  0  0  0  0  0
  143.4258   81.2753  223.7351 H   0  0  0  0  0  0  0  0  0  0  0  0
  143.4942   78.8809  223.0979 H   0  0  0  0  0  0  0  0  0  0  0  0
  1  2  2  0
  2  3  1  0
  3  4  1  0
  4  5  1  0
  5  6  2  0
  5  7  1  0
  7  8  1  0
  8  9  1  0
  9 10  1  0
 10 11  1  0
 11 12  1  0
 12 13  2  0
 13 14  1  0
 14 15  2  0
 15 16  1  0
 15 17  1  0
 17 18  1  0
 17 19  2  0
  2 20  1  0
 20 21  2  0
 21 22  1  0
 22 23  2  0
 23 24  1  0
 24 25  2  0
 25 26  1  0
 26 27  2  0
 27 28  1  0
 28 29  2  0
 11  7  1  0
 19 12  1  0
 29 20  1  0
 28 23  1  0
  3 30  1  0
  4 31  1  0
  4 32  1  0
  8 33  1  0
  8 34  1  0
  9 35  1  0
  9 36  1  0
 10 37  1  0
 10 38  1  0
 11 39  1  1
 13 40  1  0
 14 41  1  0
 19 42  1  0
 21 43  1  0
 22 44  1  0
 24 45  1  0
 25 46  1  0
 26 47  1  0
 27 48  1  0
M  END
>  <smiles>  (48) 
O=C(NCC(=O)N1CCC[C@H]1c1ccc(Cl)c(Cl)c1)c1ccc2ccccc2n1

>  <score_type>  (48) 
oracle

>  <origin>  (48) 
autodockgpu

>  <m_score__min__energy>  (48) 
-9.4299999999999997

>  <m_primary>  (48) 
energy

>  <rmsd>  (48) 
8.305030240223092

>  <m_score__min__rmsd>  (48) 
8.305030240223092

>  <meeko>  (48) 
{"free_energy": -9.09, "intermolecular_energy": -10.59, "internal_energy": -1.4, "cluster_size": 20, "cluster_id": 2, "rank_in_cluster": 4}

>  <energy>  (48) 
-8.28

>  <cluster_rmsd>  (48) 
0.55

>  <cluster>  (48) 
3

$$$$

     RDKit          3D

 48 51  0  0  0  0  0  0  0  0999 V2000
  137.7860   75.8060  222.5690 O   0  0  0  0  0  0  0  0  0  0  0  0
  138.9770   76.1640  222.3670 C   0  0  0  0  0  0  0  0  0  0  0  0
  139.8630   75.1910  221.8020 N   0  0  0  0  0  0  0  0  0  0  0  0
  139.3210   73.8960  221.5150 C   0  0  0  0  0  0  0  0  0  0  0  0
  140.1900   72.7940  221.9750 C   0  0  0  0  0  0  0  0  0  0  0  0
  141.4460   72.8480  222.0020 O   0  0  0  0  0  0  0  0  0  0  0  0
  139.5750   71.5890  222.4220 N   0  0  0  0  0  0  0  0  0  0  0  0
  139.9850   70.2600  222.0000 C   0  0  0  0  0  0  0  0  0  0  0  0
  138.6480   69.5550  221.8940 C   0  0  0  0  0  0  0  0  0  0  0  0
  137.6280   70.4570  222.5400 C   0  0  0  0  0  0  0  0  0  0  0  0
  138.4610   71.4240  223.3440 C   0  0  1  0  0  0  0  0  0  0  0  0
  139.0310   70.8260  224.5710 C   0  0  0  0  0  0  0  0  0  0  0  0
  138.7420   69.5140  224.8660 C   0  0  0  0  0  0  0  0  0  0  0  0
  139.2440   68.8810  226.0080 C   0  0  0  0  0  0  0  0  0  0  0  0
  140.0560   69.5820  226.8790 C   0  0  0  0  0  0  0  0  0  0  0  0
  140.7100   68.8340  228.3230 Cl  0  0  0  0  0  0  0  0  0  0  0  0
  140.3530   70.8960  226.5950 C   0  0  0  0  0  0  0  0  0  0  0  0
  141.3890   71.7980  227.7010 Cl  0  0  0  0  0  0  0  0  0  0  0  0
  139.8430   71.5100  225.4520 C   0  0  0  0  0  0  0  0  0  0  0  0
  139.4660   77.5000  222.6830 C   0  0  0  0  0  0  0  0  0  0  0  0
  138.5030   78.4840  222.9230 C   0  0  0  0  0  0  0  0  0  0  0  0
  138.9970   79.7380  223.2190 C   0  0  0  0  0  0  0  0  0  0  0  0
  140.3420   80.0300  223.2800 C   0  0  0  0  0  0  0  0  0  0  0  0
  140.8530   81.2630  223.5710 C   0  0  0  0  0  0  0  0  0  0  0  0
  142.2050   81.5320  223.6270 C   0  0  0  0  0  0  0  0  0  0  0  0
  143.1190   80.5080  223.3770 C   0  0  0  0  0  0  0  0  0  0  0  0
  142.5950   79.2650  223.0850 C   0  0  0  0  0  0  0  0  0  0  0  0
  141.2410   79.0100  223.0320 C   0  0  0  0  0  0  0  0  0  0  0  0
  140.7740   77.7890  222.7440 N   0  0  0  0  0  0  0  0  0  0  0  0
  140.8640   75.4100  221.6060 H   0  0  0  0  0  0  0  0  0  0  0  0
  138.3452   73.8054  222.0147 H   0  0  0  0  0  0  0  0  0  0  0  0
  139.2309   73.8109  220.4220 H   0  0  0  0  0  0  0  0  0  0  0  0
  140.5034   70.2877  221.0302 H   0  0  0  0  0  0  0  0  0  0  0  0
  140.6983   69.7719  222.6804 H   0  0  0  0  0  0  0  0  0  0  0  0
  138.3907   69.3878  220.8377 H   0  0  0  0  0  0  0  0  0  0  0  0
  138.6784   68.5740  222.3907 H   0  0  0  0  0  0  0  0  0  0  0  0
  137.0365   70.9876  221.7794 H   0  0  0  0  0  0  0  0  0  0  0  0
  136.9024   69.9060  223.1563 H   0  0  0  0  0  0  0  0  0  0  0  0
  137.8923   72.3095  223.6642 H   0  0  0  0  0  0  0  0  0  0  0  0
  138.0956   68.9444  224.1821 H   0  0  0  0  0  0  0  0  0  0  0  0
  138.9934   67.8295  226.2118 H   0  0  0  0  0  0  0  0  0  0  0  0
  140.0932   72.5616  225.2483 H   0  0  0  0  0  0  0  0  0  0  0  0
  137.4243   78.2731  222.8789 H   0  0  0  0  0  0  0  0  0  0  0  0
  138.2788   80.5474  223.4167 H   0  0  0  0  0  0  0  0  0  0  0  0
  140.1495   82.0846  223.7712 H   0  0  0  0  0  0  0  0  0  0  0  0
  142.5594   82.5454  223.8668 H   0  0  0  0  0  0  0  0  0  0  0  0
  144.2045   80.6828  223.4110 H   0  0  0  0  0  0  0  0  0  0  0  0
  143.2915   78.4375  222.8848 H   0  0  0  0  0  0  0  0  0  0  0  0
  1  2  2  0
  2  3  1  0
  3  4  1  0
  4  5  1  0
  5  6  2  0
  5  7  1  0
  7  8  1  0
  8  9  1  0
  9 10  1  0
 10 11  1  0
 11 12  1  0
 12 13  2  0
 13 14  1  0
 14 15  2  0
 15 16  1  0
 15 17  1  0
 17 18  1  0
 17 19  2  0
  2 20  1  0
 20 21  2  0
 21 22  1  0
 22 23  2  0
 23 24  1  0
 24 25  2  0
 25 26  1  0
 26 27  2  0
 27 28  1  0
 28 29  2  0
 11  7  1  0
 19 12  1  0
 29 20  1  0
 28 23  1  0
  3 30  1  0
  4 31  1  0
  4 32  1  0
  8 33  1  0
  8 34  1  0
  9 35  1  0
  9 36  1  0
 10 37  1  0
 10 38  1  0
 11 39  1  1
 13 40  1  0
 14 41  1  0
 19 42  1  0
 21 43  1  0
 22 44  1  0
 24 45  1  0
 25 46  1  0
 26 47  1  0
 27 48  1  0
M  END
>  <smiles>  (49) 
O=C(NCC(=O)N1CCC[C@H]1c1ccc(Cl)c(Cl)c1)c1ccc2ccccc2n1

>  <score_type>  (49) 
oracle

>  <origin>  (49) 
autodockgpu

>  <m_score__min__energy>  (49) 
-9.4299999999999997

>  <m_primary>  (49) 
energy

>  <rmsd>  (49) 
8.28411867245462

>  <m_score__min__rmsd>  (49) 
8.28411867245462

>  <meeko>  (49) 
{"free_energy": -8.83, "intermolecular_energy": -10.32, "internal_energy": -1.43, "cluster_size": 20, "cluster_id": 2, "rank_in_cluster": 11}

>  <energy>  (49) 
-8.28

>  <cluster_rmsd>  (49) 
0.53

>  <cluster>  (49) 
3

$$$$

     RDKit          3D

 48 51  0  0  0  0  0  0  0  0999 V2000
  140.5350   71.5650  221.2670 O   0  0  0  0  0  0  0  0  0  0  0  0
  140.1760   72.0990  222.3500 C   0  0  0  0  0  0  0  0  0  0  0  0
  139.7830   73.4750  222.3010 N   0  0  0  0  0  0  0  0  0  0  0  0
  139.8320   74.1270  221.0250 C   0  0  0  0  0  0  0  0  0  0  0  0
  141.1700   74.6610  220.7030 C   0  0  0  0  0  0  0  0  0  0  0  0
  142.2420   74.2260  221.1960 O   0  0  0  0  0  0  0  0  0  0  0  0
  141.2630   75.7380  219.7750 N   0  0  0  0  0  0  0  0  0  0  0  0
  140.1550   76.2100  218.9610 C   0  0  0  0  0  0  0  0  0  0  0  0
  140.8600   76.5370  217.6590 C   0  0  0  0  0  0  0  0  0  0  0  0
  142.3400   76.4940  217.9440 C   0  0  0  0  0  0  0  0  0  0  0  0
  142.4190   76.5600  219.4480 C   0  0  1  0  0  0  0  0  0  0  0  0
  142.1320   77.9050  219.9920 C   0  0  0  0  0  0  0  0  0  0  0  0
  142.1770   78.9870  219.1440 C   0  0  0  0  0  0  0  0  0  0  0  0
  141.9170   80.2890  219.5850 C   0  0  0  0  0  0  0  0  0  0  0  0
  141.6050   80.5140  220.9120 C   0  0  0  0  0  0  0  0  0  0  0  0
  141.2720   82.1260  221.5140 Cl  0  0  0  0  0  0  0  0  0  0  0  0
  141.5580   79.4390  221.7720 C   0  0  0  0  0  0  0  0  0  0  0  0
  141.1610   79.7160  223.4680 Cl  0  0  0  0  0  0  0  0  0  0  0  0
  141.8200   78.1480  221.3130 C   0  0  0  0  0  0  0  0  0  0  0  0
  140.1490   71.3780  223.6170 C   0  0  0  0  0  0  0  0  0  0  0  0
  139.6120   70.0880  223.5980 C   0  0  0  0  0  0  0  0  0  0  0  0
  139.6010   69.4320  224.8110 C   0  0  0  0  0  0  0  0  0  0  0  0
  140.0790   69.9850  225.9790 C   0  0  0  0  0  0  0  0  0  0  0  0
  140.0780   69.3540  227.1900 C   0  0  0  0  0  0  0  0  0  0  0  0
  140.5630   69.9280  228.3470 C   0  0  0  0  0  0  0  0  0  0  0  0
  141.0880   71.2200  228.3030 C   0  0  0  0  0  0  0  0  0  0  0  0
  141.0860   71.8510  227.0760 C   0  0  0  0  0  0  0  0  0  0  0  0
  140.5980   71.2650  225.9270 C   0  0  0  0  0  0  0  0  0  0  0  0
  140.6140   71.9120  224.7560 N   0  0  0  0  0  0  0  0  0  0  0  0
  139.4740   73.9890  223.1540 H   0  0  0  0  0  0  0  0  0  0  0  0
  139.5479   73.4011  220.2489 H   0  0  0  0  0  0  0  0  0  0  0  0
  139.1373   74.9790  221.0631 H   0  0  0  0  0  0  0  0  0  0  0  0
  139.3954   75.4266  218.8218 H   0  0  0  0  0  0  0  0  0  0  0  0
  139.6029   77.0548  219.3985 H   0  0  0  0  0  0  0  0  0  0  0  0
  140.6003   75.7941  216.8905 H   0  0  0  0  0  0  0  0  0  0  0  0
  140.5583   77.5260  217.2836 H   0  0  0  0  0  0  0  0  0  0  0  0
  142.7843   75.5602  217.5689 H   0  0  0  0  0  0  0  0  0  0  0  0
  142.8915   77.3094  217.4530 H   0  0  0  0  0  0  0  0  0  0  0  0
  143.4087   76.2738  219.8334 H   0  0  0  0  0  0  0  0  0  0  0  0
  142.4254   78.8233  218.0850 H   0  0  0  0  0  0  0  0  0  0  0  0
  141.9608   81.1305  218.8779 H   0  0  0  0  0  0  0  0  0  0  0  0
  141.7768   77.3062  222.0197 H   0  0  0  0  0  0  0  0  0  0  0  0
  139.2242   69.6269  222.6776 H   0  0  0  0  0  0  0  0  0  0  0  0
  139.1886   68.4129  224.8481 H   0  0  0  0  0  0  0  0  0  0  0  0
  139.6690   68.3344  227.2460 H   0  0  0  0  0  0  0  0  0  0  0  0
  140.5361   69.3720  229.2958 H   0  0  0  0  0  0  0  0  0  0  0  0
  141.4845   71.7120  229.2034 H   0  0  0  0  0  0  0  0  0  0  0  0
  141.4933   72.8707  227.0112 H   0  0  0  0  0  0  0  0  0  0  0  0
  1  2  2  0
  2  3  1  0
  3  4  1  0
  4  5  1  0
  5  6  2  0
  5  7  1  0
  7  8  1  0
  8  9  1  0
  9 10  1  0
 10 11  1  0
 11 12  1  0
 12 13  2  0
 13 14  1  0
 14 15  2  0
 15 16  1  0
 15 17  1  0
 17 18  1  0
 17 19  2  0
  2 20  1  0
 20 21  2  0
 21 22  1  0
 22 23  2  0
 23 24  1  0
 24 25  2  0
 25 26  1  0
 26 27  2  0
 27 28  1  0
 28 29  2  0
 11  7  1  0
 19 12  1  0
 29 20  1  0
 28 23  1  0
  3 30  1  0
  4 31  1  0
  4 32  1  0
  8 33  1  0
  8 34  1  0
  9 35  1  0
  9 36  1  0
 10 37  1  0
 10 38  1  0
 11 39  1  1
 13 40  1  0
 14 41  1  0
 19 42  1  0
 21 43  1  0
 22 44  1  0
 24 45  1  0
 25 46  1  0
 26 47  1  0
 27 48  1  0
M  END
>  <smiles>  (50) 
O=C(NCC(=O)N1CCC[C@H]1c1ccc(Cl)c(Cl)c1)c1ccc2ccccc2n1

>  <score_type>  (50) 
oracle

>  <origin>  (50) 
autodockgpu

>  <m_score__min__energy>  (50) 
-9.4299999999999997

>  <m_primary>  (50) 
energy

>  <rmsd>  (50) 
1.5066859383856683

>  <m_score__min__rmsd>  (50) 
1.5066859383856683

>  <meeko>  (50) 
{"free_energy": -8.62, "intermolecular_energy": -10.11, "internal_energy": -1.32, "cluster_size": 16, "cluster_id": 1, "rank_in_cluster": 9}

>  <energy>  (50) 
-8.06

>  <cluster_rmsd>  (50) 
1.12

>  <cluster>  (50) 
3

$$$$
