
     RDKit          3D

 52 55  0  0  0  0  0  0  0  0999 V2000
  141.1620   72.2440  221.6690 O   0  0  0  0  0  0  0  0  0  0  0  0
  140.2810   72.4130  222.5720 C   0  0  0  0  0  0  0  0  0  0  0  0
  139.3860   73.5080  222.3470 N   0  0  0  0  0  0  0  0  0  0  0  0
  139.5960   74.2740  221.1360 C   0  0  0  0  0  0  0  0  0  0  0  0
  140.7350   75.1920  221.2670 C   0  0  0  0  0  0  0  0  0  0  0  0
  141.9290   74.7850  221.3830 O   0  0  0  0  0  0  0  0  0  0  0  0
  140.4710   76.5910  221.2620 N   0  0  0  0  0  0  0  0  0  0  0  0
  139.3130   77.2880  220.6790 C   0  0  0  0  0  0  0  0  0  0  0  0
  139.0440   78.3420  221.7380 C   0  0  0  0  0  0  0  0  0  0  0  0
  140.1890   78.2830  222.7200 C   0  0  0  0  0  0  0  0  0  0  0  0
  141.2760   77.6720  221.8290 C   0  0  2  0  0  0  0  0  0  0  0  0
  141.5990   78.5690  220.6800 C   0  0  0  0  0  0  0  0  0  0  0  0
  142.0490   78.0260  219.4900 C   0  0  0  0  0  0  0  0  0  0  0  0
  142.3600   78.8370  218.3960 C   0  0  0  0  0  0  0  0  0  0  0  0
  142.2190   80.2080  218.4930 C   0  0  0  0  0  0  0  0  0  0  0  0
  141.7720   80.7710  219.6720 C   0  0  0  0  0  0  0  0  0  0  0  0
  141.6150   82.1400  219.8180 O   0  0  0  0  0  0  0  0  0  0  0  0
  140.8140   82.6930  220.8420 C   0  0  0  0  0  0  0  0  0  0  0  0
  139.5510   82.1250  220.8200 F   0  0  0  0  0  0  0  0  0  0  0  0
  141.4420   82.4830  222.0620 F   0  0  0  0  0  0  0  0  0  0  0  0
  140.6830   84.0520  220.5650 F   0  0  0  0  0  0  0  0  0  0  0  0
  141.4720   79.9330  220.7380 C   0  0  0  0  0  0  0  0  0  0  0  0
  140.1980   71.5580  223.7340 C   0  0  0  0  0  0  0  0  0  0  0  0
  139.5960   70.3340  223.6030 C   0  0  0  0  0  0  0  0  0  0  0  0
  139.4720   69.4530  224.6550 C   0  0  0  0  0  0  0  0  0  0  0  0
  139.9650   69.7960  225.8920 C   0  0  0  0  0  0  0  0  0  0  0  0
  139.8460   68.9280  226.9430 C   0  0  0  0  0  0  0  0  0  0  0  0
  140.3480   69.3040  228.1580 C   0  0  0  0  0  0  0  0  0  0  0  0
  140.9670   70.5500  228.3120 C   0  0  0  0  0  0  0  0  0  0  0  0
  141.0780   71.4210  227.2310 C   0  0  0  0  0  0  0  0  0  0  0  0
  140.5730   71.0450  226.0040 C   0  0  0  0  0  0  0  0  0  0  0  0
  140.6770   71.8850  224.9500 N   0  0  0  0  0  0  0  0  0  0  0  0
  138.6330   73.7150  223.0420 H   0  0  0  0  0  0  0  0  0  0  0  0
  139.7902   73.5807  220.3044 H   0  0  0  0  0  0  0  0  0  0  0  0
  138.6924   74.8720  220.9464 H   0  0  0  0  0  0  0  0  0  0  0  0
  139.5625   77.7442  219.7096 H   0  0  0  0  0  0  0  0  0  0  0  0
  138.4545   76.6357  220.4610 H   0  0  0  0  0  0  0  0  0  0  0  0
  138.9943   79.3386  221.2751 H   0  0  0  0  0  0  0  0  0  0  0  0
  138.0843   78.1559  222.2423 H   0  0  0  0  0  0  0  0  0  0  0  0
  140.4707   79.2840  223.0786 H   0  0  0  0  0  0  0  0  0  0  0  0
  139.9783   77.7224  223.6427 H   0  0  0  0  0  0  0  0  0  0  0  0
  142.2169   77.4374  222.3483 H   0  0  0  0  0  0  0  0  0  0  0  0
  142.1641   76.9355  219.4036 H   0  0  0  0  0  0  0  0  0  0  0  0
  142.7166   78.3848  217.4588 H   0  0  0  0  0  0  0  0  0  0  0  0
  142.4622   80.8495  217.6331 H   0  0  0  0  0  0  0  0  0  0  0  0
  141.1150   80.3857  221.6748 H   0  0  0  0  0  0  0  0  0  0  0  0
  139.1964   70.0437  222.6201 H   0  0  0  0  0  0  0  0  0  0  0  0
  138.9810   68.4800  224.5061 H   0  0  0  0  0  0  0  0  0  0  0  0
  139.3580   67.9507  226.8135 H   0  0  0  0  0  0  0  0  0  0  0  0
  140.2650   68.6240  229.0187 H   0  0  0  0  0  0  0  0  0  0  0  0
  141.3684   70.8431  229.2933 H   0  0  0  0  0  0  0  0  0  0  0  0
  141.5641   72.4000  227.3547 H   0  0  0  0  0  0  0  0  0  0  0  0
  1  2  2  0
  2  3  1  0
  3  4  1  0
  4  5  1  0
  5  6  2  0
  5  7  1  0
  7  8  1  0
  8  9  1  0
  9 10  1  0
 10 11  1  0
 11 12  1  0
 12 13  2  0
 13 14  1  0
 14 15  2  0
 15 16  1  0
 16 17  1  0
 17 18  1  0
 18 19  1  0
 18 20  1  0
 18 21  1  0
 16 22  2  0
  2 23  1  0
 23 24  2  0
 24 25  1  0
 25 26  2  0
 26 27  1  0
 27 28  2  0
 28 29  1  0
 29 30  2  0
 30 31  1  0
 31 32  2  0
 11  7  1  0
 22 12  1  0
 32 23  1  0
 31 26  1  0
  3 33  1  0
  4 34  1  0
  4 35  1  0
  8 36  1  0
  8 37  1  0
  9 38  1  0
  9 39  1  0
 10 40  1  0
 10 41  1  0
 11 42  1  1
 13 43  1  0
 14 44  1  0
 15 45  1  0
 22 46  1  0
 24 47  1  0
 25 48  1  0
 27 49  1  0
 28 50  1  0
 29 51  1  0
 30 52  1  0
M  END
>  <smiles>  (1) 
O=C(NCC(=O)N1CCCC1c1cccc(OC(F)(F)F)c1)c1ccc2ccccc2n1

>  <score_type>  (1) 
oracle

>  <origin>  (1) 
autodockgpu

>  <m_score__min__energy>  (1) 
-8.5999999999999996

>  <m_primary>  (1) 
energy

>  <rmsd>  (1) 
2.4936464659597286

>  <m_score__min__rmsd>  (1) 
2.4936464659597286

>  <meeko>  (1) 
{"free_energy": -7.87, "intermolecular_energy": -9.96, "internal_energy": -1.25, "cluster_size": 23, "cluster_id": 2, "rank_in_cluster": 17}

>  <energy>  (1) 
-8.6

>  <cluster_rmsd>  (1) 
0.0

>  <cluster>  (1) 
1

$$$$

     RDKit          3D

 52 55  0  0  0  0  0  0  0  0999 V2000
  139.9070   73.2930  222.6560 O   0  0  0  0  0  0  0  0  0  0  0  0
  140.1220   72.0380  222.6580 C   0  0  0  0  0  0  0  0  0  0  0  0
  140.2140   71.4390  221.3610 N   0  0  0  0  0  0  0  0  0  0  0  0
  140.0540   72.3270  220.2270 C   0  0  0  0  0  0  0  0  0  0  0  0
  141.3380   72.5970  219.5670 C   0  0  0  0  0  0  0  0  0  0  0  0
  141.8940   71.7640  218.7900 O   0  0  0  0  0  0  0  0  0  0  0  0
  141.9710   73.8460  219.8200 N   0  0  0  0  0  0  0  0  0  0  0  0
  143.0390   74.1370  220.7910 C   0  0  0  0  0  0  0  0  0  0  0  0
  143.9090   75.0900  219.9920 C   0  0  0  0  0  0  0  0  0  0  0  0
  143.1560   75.4160  218.7240 C   0  0  0  0  0  0  0  0  0  0  0  0
  141.7210   75.1390  219.1850 C   0  0  2  0  0  0  0  0  0  0  0  0
  141.3250   76.0550  220.2950 C   0  0  0  0  0  0  0  0  0  0  0  0
  140.3560   75.6600  221.2000 C   0  0  0  0  0  0  0  0  0  0  0  0
  139.9630   76.4930  222.2500 C   0  0  0  0  0  0  0  0  0  0  0  0
  140.5450   77.7370  222.3980 C   0  0  0  0  0  0  0  0  0  0  0  0
  141.5140   78.1530  221.5050 C   0  0  0  0  0  0  0  0  0  0  0  0
  142.1270   79.3900  221.6110 O   0  0  0  0  0  0  0  0  0  0  0  0
  142.4470   79.9580  222.8650 C   0  0  0  0  0  0  0  0  0  0  0  0
  142.3070   79.0120  223.8680 F   0  0  0  0  0  0  0  0  0  0  0  0
  143.7430   80.4520  222.8120 F   0  0  0  0  0  0  0  0  0  0  0  0
  141.5250   80.9760  223.0970 F   0  0  0  0  0  0  0  0  0  0  0  0
  141.8800   77.2960  220.4740 C   0  0  0  0  0  0  0  0  0  0  0  0
  140.2610   71.2840  223.8830 C   0  0  0  0  0  0  0  0  0  0  0  0
  140.8430   71.8920  224.9630 C   0  0  0  0  0  0  0  0  0  0  0  0
  141.0170   71.2520  226.1700 C   0  0  0  0  0  0  0  0  0  0  0  0
  140.5960   69.9510  226.3170 C   0  0  0  0  0  0  0  0  0  0  0  0
  140.7650   69.3070  227.5120 C   0  0  0  0  0  0  0  0  0  0  0  0
  140.3340   68.0130  227.6200 C   0  0  0  0  0  0  0  0  0  0  0  0
  139.7370   67.3730  226.5280 C   0  0  0  0  0  0  0  0  0  0  0  0
  139.5740   68.0450  225.3190 C   0  0  0  0  0  0  0  0  0  0  0  0
  140.0070   69.3500  225.2070 C   0  0  0  0  0  0  0  0  0  0  0  0
  139.8520   70.0090  224.0370 N   0  0  0  0  0  0  0  0  0  0  0  0
  140.3890   70.4120  221.2740 H   0  0  0  0  0  0  0  0  0  0  0  0
  139.3709   71.8606  219.5019 H   0  0  0  0  0  0  0  0  0  0  0  0
  139.6470   73.2816  220.5920 H   0  0  0  0  0  0  0  0  0  0  0  0
  142.6408   74.6174  221.6969 H   0  0  0  0  0  0  0  0  0  0  0  0
  143.5670   73.2466  221.1631 H   0  0  0  0  0  0  0  0  0  0  0  0
  144.0926   76.0082  220.5692 H   0  0  0  0  0  0  0  0  0  0  0  0
  144.8840   74.6346  219.7640 H   0  0  0  0  0  0  0  0  0  0  0  0
  143.2933   76.4661  218.4267 H   0  0  0  0  0  0  0  0  0  0  0  0
  143.4748   74.8476  217.8378 H   0  0  0  0  0  0  0  0  0  0  0  0
  140.9613   75.2201  218.3936 H   0  0  0  0  0  0  0  0  0  0  0  0
  139.8863   74.6714  221.0906 H   0  0  0  0  0  0  0  0  0  0  0  0
  139.1907   76.1587  222.9584 H   0  0  0  0  0  0  0  0  0  0  0  0
  140.2379   78.3947  223.2245 H   0  0  0  0  0  0  0  0  0  0  0  0
  142.6533   77.6298  219.7665 H   0  0  0  0  0  0  0  0  0  0  0  0
  141.1851   72.9326  224.8626 H   0  0  0  0  0  0  0  0  0  0  0  0
  141.4902   71.7786  227.0119 H   0  0  0  0  0  0  0  0  0  0  0  0
  141.2359   69.8171  228.3653 H   0  0  0  0  0  0  0  0  0  0  0  0
  140.4574   67.4728  228.5702 H   0  0  0  0  0  0  0  0  0  0  0  0
  139.3942   66.3323  226.6252 H   0  0  0  0  0  0  0  0  0  0  0  0
  139.1046   67.5401  224.4618 H   0  0  0  0  0  0  0  0  0  0  0  0
  1  2  2  0
  2  3  1  0
  3  4  1  0
  4  5  1  0
  5  6  2  0
  5  7  1  0
  7  8  1  0
  8  9  1  0
  9 10  1  0
 10 11  1  0
 11 12  1  0
 12 13  2  0
 13 14  1  0
 14 15  2  0
 15 16  1  0
 16 17  1  0
 17 18  1  0
 18 19  1  0
 18 20  1  0
 18 21  1  0
 16 22  2  0
  2 23  1  0
 23 24  2  0
 24 25  1  0
 25 26  2  0
 26 27  1  0
 27 28  2  0
 28 29  1  0
 29 30  2  0
 30 31  1  0
 31 32  2  0
 11  7  1  0
 22 12  1  0
 32 23  1  0
 31 26  1  0
  3 33  1  0
  4 34  1  0
  4 35  1  0
  8 36  1  0
  8 37  1  0
  9 38  1  0
  9 39  1  0
 10 40  1  0
 10 41  1  0
 11 42  1  6
 13 43  1  0
 14 44  1  0
 15 45  1  0
 22 46  1  0
 24 47  1  0
 25 48  1  0
 27 49  1  0
 28 50  1  0
 29 51  1  0
 30 52  1  0
M  END
>  <smiles>  (2) 
O=C(NCC(=O)N1CCCC1c1cccc(OC(F)(F)F)c1)c1ccc2ccccc2n1

>  <score_type>  (2) 
oracle

>  <origin>  (2) 
autodockgpu

>  <m_score__min__energy>  (2) 
-8.5999999999999996

>  <m_primary>  (2) 
energy

>  <rmsd>  (2) 
3.538167237042749

>  <m_score__min__rmsd>  (2) 
3.538167237042749

>  <meeko>  (2) 
{"free_energy": -7.65, "intermolecular_energy": -9.74, "internal_energy": -1.54, "cluster_size": 4, "cluster_id": 6, "rank_in_cluster": 4}

>  <energy>  (2) 
-8.56

>  <cluster_rmsd>  (2) 
0.07

>  <cluster>  (2) 
1

$$$$

     RDKit          3D

 52 55  0  0  0  0  0  0  0  0999 V2000
  139.6060   73.2980  222.6390 O   0  0  0  0  0  0  0  0  0  0  0  0
  139.7620   72.0350  222.6340 C   0  0  0  0  0  0  0  0  0  0  0  0
  139.6180   71.4120  221.3530 N   0  0  0  0  0  0  0  0  0  0  0  0
  139.3190   72.2900  220.2400 C   0  0  0  0  0  0  0  0  0  0  0  0
  140.4160   72.3160  219.2630 C   0  0  0  0  0  0  0  0  0  0  0  0
  140.4350   71.5690  218.2390 O   0  0  0  0  0  0  0  0  0  0  0  0
  141.4910   73.2210  219.4880 N   0  0  0  0  0  0  0  0  0  0  0  0
  142.1700   74.0780  218.5030 C   0  0  0  0  0  0  0  0  0  0  0  0
  142.3610   75.3520  219.3060 C   0  0  0  0  0  0  0  0  0  0  0  0
  141.9630   75.0400  220.7290 C   0  0  0  0  0  0  0  0  0  0  0  0
  142.1800   73.5230  220.7420 C   0  0  2  0  0  0  0  0  0  0  0  0
  143.6120   73.1810  220.4980 C   0  0  0  0  0  0  0  0  0  0  0  0
  144.6030   74.0790  220.8510 C   0  0  0  0  0  0  0  0  0  0  0  0
  145.9530   73.7900  220.6350 C   0  0  0  0  0  0  0  0  0  0  0  0
  146.3170   72.5880  220.0600 C   0  0  0  0  0  0  0  0  0  0  0  0
  145.3440   71.6760  219.6990 C   0  0  0  0  0  0  0  0  0  0  0  0
  145.6580   70.4590  219.1190 O   0  0  0  0  0  0  0  0  0  0  0  0
  144.6820   69.4580  218.9120 C   0  0  0  0  0  0  0  0  0  0  0  0
  144.0770   69.1250  220.1120 F   0  0  0  0  0  0  0  0  0  0  0  0
  143.7560   69.9230  217.9890 F   0  0  0  0  0  0  0  0  0  0  0  0
  145.3510   68.3320  218.4370 F   0  0  0  0  0  0  0  0  0  0  0  0
  144.0120   71.9980  219.9290 C   0  0  0  0  0  0  0  0  0  0  0  0
  140.0610   71.2930  223.8380 C   0  0  0  0  0  0  0  0  0  0  0  0
  140.7900   71.9080  224.8200 C   0  0  0  0  0  0  0  0  0  0  0  0
  141.1220   71.2800  226.0010 C   0  0  0  0  0  0  0  0  0  0  0  0
  140.7150   69.9850  226.2200 C   0  0  0  0  0  0  0  0  0  0  0  0
  141.0410   69.3520  227.3890 C   0  0  0  0  0  0  0  0  0  0  0  0
  140.6190   68.0650  227.5710 C   0  0  0  0  0  0  0  0  0  0  0  0
  139.8730   67.4180  226.5790 C   0  0  0  0  0  0  0  0  0  0  0  0
  139.5520   68.0770  225.3950 C   0  0  0  0  0  0  0  0  0  0  0  0
  139.9760   69.3770  225.2080 C   0  0  0  0  0  0  0  0  0  0  0  0
  139.6680   70.0240  224.0620 N   0  0  0  0  0  0  0  0  0  0  0  0
  139.7310   70.3770  221.2620 H   0  0  0  0  0  0  0  0  0  0  0  0
  138.4048   71.9357  219.7412 H   0  0  0  0  0  0  0  0  0  0  0  0
  139.1825   73.3087  220.6319 H   0  0  0  0  0  0  0  0  0  0  0  0
  143.1338   73.6491  218.1914 H   0  0  0  0  0  0  0  0  0  0  0  0
  141.6148   74.2146  217.5633 H   0  0  0  0  0  0  0  0  0  0  0  0
  143.4140   75.6679  219.2687 H   0  0  0  0  0  0  0  0  0  0  0  0
  141.7490   76.1695  218.8972 H   0  0  0  0  0  0  0  0  0  0  0  0
  142.6120   75.5511  221.4554 H   0  0  0  0  0  0  0  0  0  0  0  0
  140.9495   75.3646  221.0075 H   0  0  0  0  0  0  0  0  0  0  0  0
  141.8672   73.0231  221.6706 H   0  0  0  0  0  0  0  0  0  0  0  0
  144.3232   75.0386  221.3103 H   0  0  0  0  0  0  0  0  0  0  0  0
  146.7250   74.5189  220.9226 H   0  0  0  0  0  0  0  0  0  0  0  0
  147.3790   72.3574  219.8899 H   0  0  0  0  0  0  0  0  0  0  0  0
  143.2404   71.2689  219.6409 H   0  0  0  0  0  0  0  0  0  0  0  0
  141.1238   72.9439  224.6602 H   0  0  0  0  0  0  0  0  0  0  0  0
  141.7093   71.8118  226.7641 H   0  0  0  0  0  0  0  0  0  0  0  0
  141.6286   69.8669  228.1634 H   0  0  0  0  0  0  0  0  0  0  0  0
  140.8670   67.5346  228.5022 H   0  0  0  0  0  0  0  0  0  0  0  0
  139.5381   66.3820  226.7357 H   0  0  0  0  0  0  0  0  0  0  0  0
  138.9662   67.5664  224.6164 H   0  0  0  0  0  0  0  0  0  0  0  0
  1  2  2  0
  2  3  1  0
  3  4  1  0
  4  5  1  0
  5  6  2  0
  5  7  1  0
  7  8  1  0
  8  9  1  0
  9 10  1  0
 10 11  1  0
 11 12  1  0
 12 13  2  0
 13 14  1  0
 14 15  2  0
 15 16  1  0
 16 17  1  0
 17 18  1  0
 18 19  1  0
 18 20  1  0
 18 21  1  0
 16 22  2  0
  2 23  1  0
 23 24  2  0
 24 25  1  0
 25 26  2  0
 26 27  1  0
 27 28  2  0
 28 29  1  0
 29 30  2  0
 30 31  1  0
 31 32  2  0
 11  7  1  0
 22 12  1  0
 32 23  1  0
 31 26  1  0
  3 33  1  0
  4 34  1  0
  4 35  1  0
  8 36  1  0
  8 37  1  0
  9 38  1  0
  9 39  1  0
 10 40  1  0
 10 41  1  0
 11 42  1  1
 13 43  1  0
 14 44  1  0
 15 45  1  0
 22 46  1  0
 24 47  1  0
 25 48  1  0
 27 49  1  0
 28 50  1  0
 29 51  1  0
 30 52  1  0
M  END
>  <smiles>  (3) 
O=C(NCC(=O)N1CCCC1c1cccc(OC(F)(F)F)c1)c1ccc2ccccc2n1

>  <score_type>  (3) 
oracle

>  <origin>  (3) 
autodockgpu

>  <m_score__min__energy>  (3) 
-8.5999999999999996

>  <m_primary>  (3) 
energy

>  <rmsd>  (3) 
3.453568003089153

>  <m_score__min__rmsd>  (3) 
3.453568003089153

>  <meeko>  (3) 
{"free_energy": -7.22, "intermolecular_energy": -9.31, "internal_energy": -1.71, "cluster_size": 1, "cluster_id": 8, "rank_in_cluster": 1}

>  <energy>  (3) 
-8.4

>  <cluster_rmsd>  (3) 
1.0

>  <cluster>  (3) 
1

$$$$

     RDKit          3D

 52 55  0  0  0  0  0  0  0  0999 V2000
  140.4320   73.4720  222.4320 O   0  0  0  0  0  0  0  0  0  0  0  0
  140.0680   72.2520  222.4270 C   0  0  0  0  0  0  0  0  0  0  0  0
  139.6520   71.7500  221.1530 N   0  0  0  0  0  0  0  0  0  0  0  0
  139.7000   72.6820  220.0450 C   0  0  0  0  0  0  0  0  0  0  0  0
  141.0710   72.8650  219.5520 C   0  0  0  0  0  0  0  0  0  0  0  0
  141.6730   71.9840  218.8680 O   0  0  0  0  0  0  0  0  0  0  0  0
  141.7370   74.0840  219.8620 N   0  0  0  0  0  0  0  0  0  0  0  0
  142.8090   74.3020  220.8460 C   0  0  0  0  0  0  0  0  0  0  0  0
  143.7070   75.2660  220.0920 C   0  0  0  0  0  0  0  0  0  0  0  0
  142.9670   75.6690  218.8380 C   0  0  0  0  0  0  0  0  0  0  0  0
  141.5240   75.4110  219.2840 C   0  0  2  0  0  0  0  0  0  0  0  0
  141.1500   76.2860  220.4340 C   0  0  0  0  0  0  0  0  0  0  0  0
  140.1010   75.9250  221.2610 C   0  0  0  0  0  0  0  0  0  0  0  0
  139.7250   76.7220  222.3440 C   0  0  0  0  0  0  0  0  0  0  0  0
  140.4060   77.8950  222.6060 C   0  0  0  0  0  0  0  0  0  0  0  0
  141.4560   78.2760  221.7930 C   0  0  0  0  0  0  0  0  0  0  0  0
  142.1690   79.4430  222.0140 O   0  0  0  0  0  0  0  0  0  0  0  0
  142.1810   80.0810  223.2750 C   0  0  0  0  0  0  0  0  0  0  0  0
  143.3350   80.8330  223.4190 F   0  0  0  0  0  0  0  0  0  0  0  0
  141.0450   80.8720  223.3840 F   0  0  0  0  0  0  0  0  0  0  0  0
  142.1940   79.0760  224.2380 F   0  0  0  0  0  0  0  0  0  0  0  0
  141.8010   77.4570  220.7250 C   0  0  0  0  0  0  0  0  0  0  0  0
  140.0770   71.4430  223.6250 C   0  0  0  0  0  0  0  0  0  0  0  0
  139.5590   70.1770  223.5630 C   0  0  0  0  0  0  0  0  0  0  0  0
  139.5260   69.3360  224.6530 C   0  0  0  0  0  0  0  0  0  0  0  0
  140.0280   69.7650  225.8590 C   0  0  0  0  0  0  0  0  0  0  0  0
  139.9990   68.9360  226.9480 C   0  0  0  0  0  0  0  0  0  0  0  0
  140.5070   69.3980  228.1310 C   0  0  0  0  0  0  0  0  0  0  0  0
  141.0410   70.6890  228.2150 C   0  0  0  0  0  0  0  0  0  0  0  0
  141.0610   71.5180  227.0970 C   0  0  0  0  0  0  0  0  0  0  0  0
  140.5490   71.0560  225.9020 C   0  0  0  0  0  0  0  0  0  0  0  0
  140.5660   71.8550  224.8120 N   0  0  0  0  0  0  0  0  0  0  0  0
  139.3390   70.7570  221.0630 H   0  0  0  0  0  0  0  0  0  0  0  0
  139.0748   72.2960  219.2264 H   0  0  0  0  0  0  0  0  0  0  0  0
  139.3282   73.6554  220.3976 H   0  0  0  0  0  0  0  0  0  0  0  0
  142.4214   74.7520  221.7719 H   0  0  0  0  0  0  0  0  0  0  0  0
  143.3116   73.3818  221.1785 H   0  0  0  0  0  0  0  0  0  0  0  0
  143.9135   76.1521  220.7102 H   0  0  0  0  0  0  0  0  0  0  0  0
  144.6700   74.7948  219.8456 H   0  0  0  0  0  0  0  0  0  0  0  0
  143.1338   76.7272  218.5882 H   0  0  0  0  0  0  0  0  0  0  0  0
  143.2728   75.1325  217.9277 H   0  0  0  0  0  0  0  0  0  0  0  0
  140.7694   75.5485  218.4955 H   0  0  0  0  0  0  0  0  0  0  0  0
  139.5529   74.9924  221.0614 H   0  0  0  0  0  0  0  0  0  0  0  0
  138.8873   76.4162  222.9880 H   0  0  0  0  0  0  0  0  0  0  0  0
  140.1131   78.5239  223.4596 H   0  0  0  0  0  0  0  0  0  0  0  0
  142.6383   77.7634  220.0807 H   0  0  0  0  0  0  0  0  0  0  0  0
  139.1536   69.8179  222.6056 H   0  0  0  0  0  0  0  0  0  0  0  0
  139.1002   68.3261  224.5593 H   0  0  0  0  0  0  0  0  0  0  0  0
  139.5773   67.9228  226.8735 H   0  0  0  0  0  0  0  0  0  0  0  0
  140.4958   68.7516  229.0209 H   0  0  0  0  0  0  0  0  0  0  0  0
  141.4476   71.0509  229.1709 H   0  0  0  0  0  0  0  0  0  0  0  0
  141.4812   72.5323  227.1656 H   0  0  0  0  0  0  0  0  0  0  0  0
  1  2  2  0
  2  3  1  0
  3  4  1  0
  4  5  1  0
  5  6  2  0
  5  7  1  0
  7  8  1  0
  8  9  1  0
  9 10  1  0
 10 11  1  0
 11 12  1  0
 12 13  2  0
 13 14  1  0
 14 15  2  0
 15 16  1  0
 16 17  1  0
 17 18  1  0
 18 19  1  0
 18 20  1  0
 18 21  1  0
 16 22  2  0
  2 23  1  0
 23 24  2  0
 24 25  1  0
 25 26  2  0
 26 27  1  0
 27 28  2  0
 28 29  1  0
 29 30  2  0
 30 31  1  0
 31 32  2  0
 11  7  1  0
 22 12  1  0
 32 23  1  0
 31 26  1  0
  3 33  1  0
  4 34  1  0
  4 35  1  0
  8 36  1  0
  8 37  1  0
  9 38  1  0
  9 39  1  0
 10 40  1  0
 10 41  1  0
 11 42  1  6
 13 43  1  0
 14 44  1  0
 15 45  1  0
 22 46  1  0
 24 47  1  0
 25 48  1  0
 27 49  1  0
 28 50  1  0
 29 51  1  0
 30 52  1  0
M  END
>  <smiles>  (4) 
O=C(NCC(=O)N1CCCC1c1cccc(OC(F)(F)F)c1)c1ccc2ccccc2n1

>  <score_type>  (4) 
oracle

>  <origin>  (4) 
autodockgpu

>  <m_score__min__energy>  (4) 
-8.5999999999999996

>  <m_primary>  (4) 
energy

>  <rmsd>  (4) 
2.576225586634926

>  <m_score__min__rmsd>  (4) 
2.576225586634926

>  <meeko>  (4) 
{"free_energy": -7.85, "intermolecular_energy": -9.94, "internal_energy": -1.39, "cluster_size": 4, "cluster_id": 6, "rank_in_cluster": 1}

>  <energy>  (4) 
-8.29

>  <cluster_rmsd>  (4) 
0.36

>  <cluster>  (4) 
1

$$$$

     RDKit          3D

 52 55  0  0  0  0  0  0  0  0999 V2000
  139.3050   70.9740  221.3210 O   0  0  0  0  0  0  0  0  0  0  0  0
  139.2420   71.6880  222.3730 C   0  0  0  0  0  0  0  0  0  0  0  0
  138.8070   73.0360  222.1640 N   0  0  0  0  0  0  0  0  0  0  0  0
  138.4990   73.4100  220.7990 C   0  0  0  0  0  0  0  0  0  0  0  0
  138.1900   74.8420  220.6880 C   0  0  0  0  0  0  0  0  0  0  0  0
  137.0430   75.2680  220.3570 O   0  0  0  0  0  0  0  0  0  0  0  0
  139.2280   75.7750  220.9670 N   0  0  0  0  0  0  0  0  0  0  0  0
  140.2920   75.6640  221.9780 C   0  0  0  0  0  0  0  0  0  0  0  0
  141.4800   76.2210  221.2140 C   0  0  0  0  0  0  0  0  0  0  0  0
  140.9460   76.7850  219.9180 C   0  0  0  0  0  0  0  0  0  0  0  0
  139.4940   77.0610  220.3250 C   0  0  2  0  0  0  0  0  0  0  0  0
  139.4230   78.0720  221.4200 C   0  0  0  0  0  0  0  0  0  0  0  0
  138.3260   78.0970  222.2630 C   0  0  0  0  0  0  0  0  0  0  0  0
  138.2290   79.0300  223.2980 C   0  0  0  0  0  0  0  0  0  0  0  0
  139.2410   79.9500  223.4930 C   0  0  0  0  0  0  0  0  0  0  0  0
  140.3450   79.9440  222.6640 C   0  0  0  0  0  0  0  0  0  0  0  0
  141.3850   80.8450  222.8190 O   0  0  0  0  0  0  0  0  0  0  0  0
  142.5090   80.5540  223.6250 C   0  0  0  0  0  0  0  0  0  0  0  0
  142.2880   79.3980  224.3540 F   0  0  0  0  0  0  0  0  0  0  0  0
  143.6230   80.4310  222.8060 F   0  0  0  0  0  0  0  0  0  0  0  0
  142.6510   81.6120  224.5200 F   0  0  0  0  0  0  0  0  0  0  0  0
  140.4070   79.0000  221.6460 C   0  0  0  0  0  0  0  0  0  0  0  0
  139.5850   71.1670  223.6760 C   0  0  0  0  0  0  0  0  0  0  0  0
  139.2980   69.8560  223.9530 C   0  0  0  0  0  0  0  0  0  0  0  0
  139.5880   69.2740  225.1670 C   0  0  0  0  0  0  0  0  0  0  0  0
  140.1900   70.0200  226.1530 C   0  0  0  0  0  0  0  0  0  0  0  0
  140.4820   69.4500  227.3620 C   0  0  0  0  0  0  0  0  0  0  0  0
  141.0800   70.2240  228.3180 C   0  0  0  0  0  0  0  0  0  0  0  0
  141.3820   71.5650  228.0560 C   0  0  0  0  0  0  0  0  0  0  0  0
  141.0770   72.1280  226.8190 C   0  0  0  0  0  0  0  0  0  0  0  0
  140.4730   71.3500  225.8520 C   0  0  0  0  0  0  0  0  0  0  0  0
  140.1740   71.8890  224.6490 N   0  0  0  0  0  0  0  0  0  0  0  0
  138.7280   73.6880  222.9770 H   0  0  0  0  0  0  0  0  0  0  0  0
  139.3659   73.1813  220.1618 H   0  0  0  0  0  0  0  0  0  0  0  0
  137.6144   72.8409  220.4772 H   0  0  0  0  0  0  0  0  0  0  0  0
  140.0664   76.2678  222.8694 H   0  0  0  0  0  0  0  0  0  0  0  0
  140.4415   74.6463  222.3679 H   0  0  0  0  0  0  0  0  0  0  0  0
  141.9671   77.0148  221.7993 H   0  0  0  0  0  0  0  0  0  0  0  0
  142.2268   75.4364  221.0227 H   0  0  0  0  0  0  0  0  0  0  0  0
  141.4707   77.7071  219.6274 H   0  0  0  0  0  0  0  0  0  0  0  0
  141.0649   76.1284  219.0435 H   0  0  0  0  0  0  0  0  0  0  0  0
  138.8462   77.4060  219.5057 H   0  0  0  0  0  0  0  0  0  0  0  0
  137.5151   77.3685  222.1153 H   0  0  0  0  0  0  0  0  0  0  0  0
  137.3481   79.0322  223.9568 H   0  0  0  0  0  0  0  0  0  0  0  0
  139.1673   80.6859  224.3072 H   0  0  0  0  0  0  0  0  0  0  0  0
  141.2892   78.9970  220.9889 H   0  0  0  0  0  0  0  0  0  0  0  0
  138.8172   69.2446  223.1752 H   0  0  0  0  0  0  0  0  0  0  0  0
  139.3393   68.2177  225.3471 H   0  0  0  0  0  0  0  0  0  0  0  0
  140.2417   68.3950  227.5603 H   0  0  0  0  0  0  0  0  0  0  0  0
  141.3250   69.7898  229.2985 H   0  0  0  0  0  0  0  0  0  0  0  0
  141.8633   72.1785  228.8319 H   0  0  0  0  0  0  0  0  0  0  0  0
  141.3151   73.1823  226.6148 H   0  0  0  0  0  0  0  0  0  0  0  0
  1  2  2  0
  2  3  1  0
  3  4  1  0
  4  5  1  0
  5  6  2  0
  5  7  1  0
  7  8  1  0
  8  9  1  0
  9 10  1  0
 10 11  1  0
 11 12  1  0
 12 13  2  0
 13 14  1  0
 14 15  2  0
 15 16  1  0
 16 17  1  0
 17 18  1  0
 18 19  1  0
 18 20  1  0
 18 21  1  0
 16 22  2  0
  2 23  1  0
 23 24  2  0
 24 25  1  0
 25 26  2  0
 26 27  1  0
 27 28  2  0
 28 29  1  0
 29 30  2  0
 30 31  1  0
 31 32  2  0
 11  7  1  0
 22 12  1  0
 32 23  1  0
 31 26  1  0
  3 33  1  0
  4 34  1  0
  4 35  1  0
  8 36  1  0
  8 37  1  0
  9 38  1  0
  9 39  1  0
 10 40  1  0
 10 41  1  0
 11 42  1  6
 13 43  1  0
 14 44  1  0
 15 45  1  0
 22 46  1  0
 24 47  1  0
 25 48  1  0
 27 49  1  0
 28 50  1  0
 29 51  1  0
 30 52  1  0
M  END
>  <smiles>  (5) 
O=C(NCC(=O)N1CCCC1c1cccc(OC(F)(F)F)c1)c1ccc2ccccc2n1

>  <score_type>  (5) 
oracle

>  <origin>  (5) 
autodockgpu

>  <m_score__min__energy>  (5) 
-8.5999999999999996

>  <m_primary>  (5) 
energy

>  <rmsd>  (5) 
2.1718480908636346

>  <m_score__min__rmsd>  (5) 
2.1718480908636346

>  <meeko>  (5) 
{"free_energy": -7.4, "intermolecular_energy": -9.49, "internal_energy": -1.39, "cluster_size": 9, "cluster_id": 3, "rank_in_cluster": 9}

>  <energy>  (5) 
-8.22

>  <cluster_rmsd>  (5) 
1.05

>  <cluster>  (5) 
1

$$$$

     RDKit          3D

 52 55  0  0  0  0  0  0  0  0999 V2000
  140.9010   71.8110  221.4150 O   0  0  0  0  0  0  0  0  0  0  0  0
  140.2990   72.2440  222.4500 C   0  0  0  0  0  0  0  0  0  0  0  0
  139.7380   73.5540  222.3190 N   0  0  0  0  0  0  0  0  0  0  0  0
  139.9240   74.2110  221.0420 C   0  0  0  0  0  0  0  0  0  0  0  0
  141.2600   74.8110  220.9330 C   0  0  0  0  0  0  0  0  0  0  0  0
  142.3240   74.1400  221.0910 O   0  0  0  0  0  0  0  0  0  0  0  0
  141.3480   76.2010  220.6380 N   0  0  0  0  0  0  0  0  0  0  0  0
  142.5080   76.9400  220.1150 C   0  0  0  0  0  0  0  0  0  0  0  0
  141.8360   77.8820  219.1330 C   0  0  0  0  0  0  0  0  0  0  0  0
  140.3460   77.7380  219.3340 C   0  0  0  0  0  0  0  0  0  0  0  0
  140.3180   77.2290  220.7790 C   0  0  2  0  0  0  0  0  0  0  0  0
  140.8920   78.2370  221.7180 C   0  0  0  0  0  0  0  0  0  0  0  0
  141.3980   77.8290  222.9390 C   0  0  0  0  0  0  0  0  0  0  0  0
  141.9420   78.7480  223.8400 C   0  0  0  0  0  0  0  0  0  0  0  0
  141.9800   80.0900  223.5180 C   0  0  0  0  0  0  0  0  0  0  0  0
  141.4800   80.5200  222.3040 C   0  0  0  0  0  0  0  0  0  0  0  0
  141.4960   81.8540  221.9350 O   0  0  0  0  0  0  0  0  0  0  0  0
  140.9970   82.2880  220.6860 C   0  0  0  0  0  0  0  0  0  0  0  0
  139.6910   81.8570  220.5180 F   0  0  0  0  0  0  0  0  0  0  0  0
  141.0840   83.6720  220.6270 F   0  0  0  0  0  0  0  0  0  0  0  0
  141.7820   81.6870  219.7040 F   0  0  0  0  0  0  0  0  0  0  0  0
  140.9480   79.5770  221.4330 C   0  0  0  0  0  0  0  0  0  0  0  0
  140.1950   71.4620  223.6610 C   0  0  0  0  0  0  0  0  0  0  0  0
  139.5620   70.2490  223.6040 C   0  0  0  0  0  0  0  0  0  0  0  0
  139.4160   69.4370  224.7070 C   0  0  0  0  0  0  0  0  0  0  0  0
  139.9190   69.8410  225.9210 C   0  0  0  0  0  0  0  0  0  0  0  0
  139.7790   69.0410  227.0220 C   0  0  0  0  0  0  0  0  0  0  0  0
  140.2920   69.4760  228.2120 C   0  0  0  0  0  0  0  0  0  0  0  0
  140.9440   70.7120  228.2920 C   0  0  0  0  0  0  0  0  0  0  0  0
  141.0770   71.5130  227.1600 C   0  0  0  0  0  0  0  0  0  0  0  0
  140.5600   71.0770  225.9580 C   0  0  0  0  0  0  0  0  0  0  0  0
  140.6850   71.8490  224.8550 N   0  0  0  0  0  0  0  0  0  0  0  0
  139.2260   73.9820  223.1240 H   0  0  0  0  0  0  0  0  0  0  0  0
  139.7982   73.4709  220.2380 H   0  0  0  0  0  0  0  0  0  0  0  0
  139.1776   75.0145  220.9562 H   0  0  0  0  0  0  0  0  0  0  0  0
  143.0278   77.4917  220.9122 H   0  0  0  0  0  0  0  0  0  0  0  0
  143.2870   76.3033  219.6703 H   0  0  0  0  0  0  0  0  0  0  0  0
  142.1457   78.9187  219.3313 H   0  0  0  0  0  0  0  0  0  0  0  0
  142.1184   77.6381  218.0982 H   0  0  0  0  0  0  0  0  0  0  0  0
  139.8255   78.7016  219.2309 H   0  0  0  0  0  0  0  0  0  0  0  0
  139.8418   77.0871  218.6046 H   0  0  0  0  0  0  0  0  0  0  0  0
  139.3192   76.9544  221.1491 H   0  0  0  0  0  0  0  0  0  0  0  0
  141.3716   76.7621  223.2054 H   0  0  0  0  0  0  0  0  0  0  0  0
  142.3399   78.4024  224.8055 H   0  0  0  0  0  0  0  0  0  0  0  0
  142.4073   80.8151  224.2263 H   0  0  0  0  0  0  0  0  0  0  0  0
  140.5521   79.9228  220.4667 H   0  0  0  0  0  0  0  0  0  0  0  0
  139.1544   69.9100  222.6402 H   0  0  0  0  0  0  0  0  0  0  0  0
  138.8995   68.4700  224.6169 H   0  0  0  0  0  0  0  0  0  0  0  0
  139.2657   68.0707  226.9513 H   0  0  0  0  0  0  0  0  0  0  0  0
  140.1919   68.8512  229.1118 H   0  0  0  0  0  0  0  0  0  0  0  0
  141.3537   71.0528  229.2543 H   0  0  0  0  0  0  0  0  0  0  0  0
  141.5896   72.4842  227.2242 H   0  0  0  0  0  0  0  0  0  0  0  0
  1  2  2  0
  2  3  1  0
  3  4  1  0
  4  5  1  0
  5  6  2  0
  5  7  1  0
  7  8  1  0
  8  9  1  0
  9 10  1  0
 10 11  1  0
 11 12  1  0
 12 13  2  0
 13 14  1  0
 14 15  2  0
 15 16  1  0
 16 17  1  0
 17 18  1  0
 18 19  1  0
 18 20  1  0
 18 21  1  0
 16 22  2  0
  2 23  1  0
 23 24  2  0
 24 25  1  0
 25 26  2  0
 26 27  1  0
 27 28  2  0
 28 29  1  0
 29 30  2  0
 30 31  1  0
 31 32  2  0
 11  7  1  0
 22 12  1  0
 32 23  1  0
 31 26  1  0
  3 33  1  0
  4 34  1  0
  4 35  1  0
  8 36  1  0
  8 37  1  0
  9 38  1  0
  9 39  1  0
 10 40  1  0
 10 41  1  0
 11 42  1  1
 13 43  1  0
 14 44  1  0
 15 45  1  0
 22 46  1  0
 24 47  1  0
 25 48  1  0
 27 49  1  0
 28 50  1  0
 29 51  1  0
 30 52  1  0
M  END
>  <smiles>  (6) 
O=C(NCC(=O)N1CCCC1c1cccc(OC(F)(F)F)c1)c1ccc2ccccc2n1

>  <score_type>  (6) 
oracle

>  <origin>  (6) 
autodockgpu

>  <m_score__min__energy>  (6) 
-8.5999999999999996

>  <m_primary>  (6) 
energy

>  <rmsd>  (6) 
2.1482551559452516

>  <m_score__min__rmsd>  (6) 
2.1482551559452516

>  <meeko>  (6) 
{"free_energy": -8.43, "intermolecular_energy": -10.52, "internal_energy": -1.25, "cluster_size": 23, "cluster_id": 2, "rank_in_cluster": 5}

>  <energy>  (6) 
-8.5

>  <cluster_rmsd>  (6) 
0.0

>  <cluster>  (6) 
2

$$$$

     RDKit          3D

 52 55  0  0  0  0  0  0  0  0999 V2000
  141.2530   71.5440  221.5450 O   0  0  0  0  0  0  0  0  0  0  0  0
  140.5510   71.9700  222.5180 C   0  0  0  0  0  0  0  0  0  0  0  0
  140.0230   73.2900  222.3500 N   0  0  0  0  0  0  0  0  0  0  0  0
  140.3500   73.9630  221.1100 C   0  0  0  0  0  0  0  0  0  0  0  0
  140.6370   75.3870  221.3270 C   0  0  0  0  0  0  0  0  0  0  0  0
  140.3250   75.9900  222.3970 O   0  0  0  0  0  0  0  0  0  0  0  0
  141.2900   76.1050  220.2860 N   0  0  0  0  0  0  0  0  0  0  0  0
  142.7370   76.2580  220.0660 C   0  0  0  0  0  0  0  0  0  0  0  0
  142.8180   76.1380  218.5550 C   0  0  0  0  0  0  0  0  0  0  0  0
  141.3990   76.1340  218.0370 C   0  0  0  0  0  0  0  0  0  0  0  0
  140.6920   76.8610  219.1860 C   0  0  2  0  0  0  0  0  0  0  0  0
  141.2040   78.2540  219.3400 C   0  0  0  0  0  0  0  0  0  0  0  0
  141.6660   78.9430  218.2320 C   0  0  0  0  0  0  0  0  0  0  0  0
  142.1530   80.2480  218.3420 C   0  0  0  0  0  0  0  0  0  0  0  0
  142.1780   80.8730  219.5740 C   0  0  0  0  0  0  0  0  0  0  0  0
  141.7220   80.2040  220.6930 C   0  0  0  0  0  0  0  0  0  0  0  0
  141.7270   80.7870  221.9490 O   0  0  0  0  0  0  0  0  0  0  0  0
  142.2450   80.1170  223.0800 C   0  0  0  0  0  0  0  0  0  0  0  0
  143.3550   79.3690  222.7260 F   0  0  0  0  0  0  0  0  0  0  0  0
  142.5580   81.0580  224.0510 F   0  0  0  0  0  0  0  0  0  0  0  0
  141.2550   79.2420  223.5210 F   0  0  0  0  0  0  0  0  0  0  0  0
  141.2450   78.9070  220.5450 C   0  0  0  0  0  0  0  0  0  0  0  0
  140.3120   71.1730  223.6990 C   0  0  0  0  0  0  0  0  0  0  0  0
  139.5820   70.0200  223.5740 C   0  0  0  0  0  0  0  0  0  0  0  0
  139.3040   69.1980  224.6440 C   0  0  0  0  0  0  0  0  0  0  0  0
  139.7690   69.5300  225.8950 C   0  0  0  0  0  0  0  0  0  0  0  0
  139.4970   68.7200  226.9640 C   0  0  0  0  0  0  0  0  0  0  0  0
  139.9750   69.0820  228.1920 C   0  0  0  0  0  0  0  0  0  0  0  0
  140.7230   70.2560  228.3430 C   0  0  0  0  0  0  0  0  0  0  0  0
  140.9880   71.0680  227.2430 C   0  0  0  0  0  0  0  0  0  0  0  0
  140.5080   70.7060  226.0020 C   0  0  0  0  0  0  0  0  0  0  0  0
  140.7610   71.4890  224.9300 N   0  0  0  0  0  0  0  0  0  0  0  0
  139.4360   73.7140  223.1040 H   0  0  0  0  0  0  0  0  0  0  0  0
  141.2354   73.4840  220.6666 H   0  0  0  0  0  0  0  0  0  0  0  0
  139.4830   73.8854  220.4374 H   0  0  0  0  0  0  0  0  0  0  0  0
  143.0963   77.2382  220.4127 H   0  0  0  0  0  0  0  0  0  0  0  0
  143.3566   75.5308  220.6112 H   0  0  0  0  0  0  0  0  0  0  0  0
  143.3706   76.9924  218.1370 H   0  0  0  0  0  0  0  0  0  0  0  0
  143.3463   75.2189  218.2614 H   0  0  0  0  0  0  0  0  0  0  0  0
  141.3092   76.6849  217.0892 H   0  0  0  0  0  0  0  0  0  0  0  0
  140.9953   75.1382  217.8018 H   0  0  0  0  0  0  0  0  0  0  0  0
  139.5974   76.9130  219.0908 H   0  0  0  0  0  0  0  0  0  0  0  0
  141.6495   78.4542  217.2467 H   0  0  0  0  0  0  0  0  0  0  0  0
  142.5161   80.7773  217.4487 H   0  0  0  0  0  0  0  0  0  0  0  0
  142.5600   81.9006  219.6634 H   0  0  0  0  0  0  0  0  0  0  0  0
  140.8824   78.3782  221.4388 H   0  0  0  0  0  0  0  0  0  0  0  0
  139.2031   69.7398  222.5801 H   0  0  0  0  0  0  0  0  0  0  0  0
  138.7135   68.2814  224.4986 H   0  0  0  0  0  0  0  0  0  0  0  0
  138.9078   67.7997  226.8378 H   0  0  0  0  0  0  0  0  0  0  0  0
  139.7709   68.4474  229.0670 H   0  0  0  0  0  0  0  0  0  0  0  0
  141.1034   70.5384  229.3358 H   0  0  0  0  0  0  0  0  0  0  0  0
  141.5753   71.9903  227.3631 H   0  0  0  0  0  0  0  0  0  0  0  0
  1  2  2  0
  2  3  1  0
  3  4  1  0
  4  5  1  0
  5  6  2  0
  5  7  1  0
  7  8  1  0
  8  9  1  0
  9 10  1  0
 10 11  1  0
 11 12  1  0
 12 13  2  0
 13 14  1  0
 14 15  2  0
 15 16  1  0
 16 17  1  0
 17 18  1  0
 18 19  1  0
 18 20  1  0
 18 21  1  0
 16 22  2  0
  2 23  1  0
 23 24  2  0
 24 25  1  0
 25 26  2  0
 26 27  1  0
 27 28  2  0
 28 29  1  0
 29 30  2  0
 30 31  1  0
 31 32  2  0
 11  7  1  0
 22 12  1  0
 32 23  1  0
 31 26  1  0
  3 33  1  0
  4 34  1  0
  4 35  1  0
  8 36  1  0
  8 37  1  0
  9 38  1  0
  9 39  1  0
 10 40  1  0
 10 41  1  0
 11 42  1  6
 13 43  1  0
 14 44  1  0
 15 45  1  0
 22 46  1  0
 24 47  1  0
 25 48  1  0
 27 49  1  0
 28 50  1  0
 29 51  1  0
 30 52  1  0
M  END
>  <smiles>  (7) 
O=C(NCC(=O)N1CCCC1c1cccc(OC(F)(F)F)c1)c1ccc2ccccc2n1

>  <score_type>  (7) 
oracle

>  <origin>  (7) 
autodockgpu

>  <m_score__min__energy>  (7) 
-8.5999999999999996

>  <m_primary>  (7) 
energy

>  <rmsd>  (7) 
2.1419885198017092

>  <m_score__min__rmsd>  (7) 
2.1419885198017092

>  <meeko>  (7) 
{"free_energy": -7.92, "intermolecular_energy": -10.01, "internal_energy": -1.49, "cluster_size": 23, "cluster_id": 2, "rank_in_cluster": 16}

>  <energy>  (7) 
-8.47

>  <cluster_rmsd>  (7) 
0.42

>  <cluster>  (7) 
2

$$$$

     RDKit          3D

 52 55  0  0  0  0  0  0  0  0999 V2000
  140.2130   75.4360  220.3980 O   0  0  0  0  0  0  0  0  0  0  0  0
  139.8570   75.8050  221.5630 C   0  0  0  0  0  0  0  0  0  0  0  0
  139.1900   74.8030  222.3380 N   0  0  0  0  0  0  0  0  0  0  0  0
  139.0090   73.5130  221.7040 C   0  0  0  0  0  0  0  0  0  0  0  0
  139.8040   72.4690  222.3660 C   0  0  0  0  0  0  0  0  0  0  0  0
  141.0680   72.5240  222.4460 O   0  0  0  0  0  0  0  0  0  0  0  0
  139.1150   71.3620  222.9340 N   0  0  0  0  0  0  0  0  0  0  0  0
  137.9070   71.3850  223.7750 C   0  0  0  0  0  0  0  0  0  0  0  0
  137.1480   70.1890  223.2300 C   0  0  0  0  0  0  0  0  0  0  0  0
  138.0770   69.4740  222.2770 C   0  0  0  0  0  0  0  0  0  0  0  0
  139.4310   69.9380  222.8240 C   0  0  2  0  0  0  0  0  0  0  0  0
  139.6360   69.4700  224.2270 C   0  0  0  0  0  0  0  0  0  0  0  0
  139.0020   68.3210  224.6660 C   0  0  0  0  0  0  0  0  0  0  0  0
  139.1730   67.8560  225.9730 C   0  0  0  0  0  0  0  0  0  0  0  0
  139.9860   68.5470  226.8500 C   0  0  0  0  0  0  0  0  0  0  0  0
  140.6270   69.6960  226.4320 C   0  0  0  0  0  0  0  0  0  0  0  0
  141.4520   70.4240  227.2740 O   0  0  0  0  0  0  0  0  0  0  0  0
  141.0140   71.6100  227.9040 C   0  0  0  0  0  0  0  0  0  0  0  0
  141.8110   71.8910  229.0020 F   0  0  0  0  0  0  0  0  0  0  0  0
  141.0460   72.6440  226.9790 F   0  0  0  0  0  0  0  0  0  0  0  0
  139.7180   71.3740  228.3580 F   0  0  0  0  0  0  0  0  0  0  0  0
  140.4350   70.1280  225.1260 C   0  0  0  0  0  0  0  0  0  0  0  0
  140.1130   77.1390  222.0580 C   0  0  0  0  0  0  0  0  0  0  0  0
  139.0450   77.9600  222.3050 C   0  0  0  0  0  0  0  0  0  0  0  0
  139.1920   79.2460  222.7770 C   0  0  0  0  0  0  0  0  0  0  0  0
  140.4520   79.7420  223.0170 C   0  0  0  0  0  0  0  0  0  0  0  0
  140.6080   81.0180  223.4860 C   0  0  0  0  0  0  0  0  0  0  0  0
  141.8760   81.4780  223.7120 C   0  0  0  0  0  0  0  0  0  0  0  0
  142.9810   80.6540  223.4660 C   0  0  0  0  0  0  0  0  0  0  0  0
  142.8020   79.3580  222.9890 C   0  0  0  0  0  0  0  0  0  0  0  0
  141.5240   78.8920  222.7590 C   0  0  0  0  0  0  0  0  0  0  0  0
  141.3430   77.6350  222.2960 N   0  0  0  0  0  0  0  0  0  0  0  0
  138.8660   75.0250  223.3060 H   0  0  0  0  0  0  0  0  0  0  0  0
  137.9453   73.2370  221.7533 H   0  0  0  0  0  0  0  0  0  0  0  0
  139.3460   73.5922  220.6599 H   0  0  0  0  0  0  0  0  0  0  0  0
  138.1537   71.2555  224.8391 H   0  0  0  0  0  0  0  0  0  0  0  0
  137.3475   72.3313  223.7370 H   0  0  0  0  0  0  0  0  0  0  0  0
  136.8601   69.5174  224.0523 H   0  0  0  0  0  0  0  0  0  0  0  0
  136.2285   70.5077  222.7173 H   0  0  0  0  0  0  0  0  0  0  0  0
  137.9643   68.3816  222.3400 H   0  0  0  0  0  0  0  0  0  0  0  0
  137.9077   69.6950  221.2128 H   0  0  0  0  0  0  0  0  0  0  0  0
  140.2993   69.6157  222.2305 H   0  0  0  0  0  0  0  0  0  0  0  0
  138.3524   67.7641  223.9747 H   0  0  0  0  0  0  0  0  0  0  0  0
  138.6604   66.9403  226.3029 H   0  0  0  0  0  0  0  0  0  0  0  0
  140.1224   68.1827  227.8789 H   0  0  0  0  0  0  0  0  0  0  0  0
  140.9493   71.0430  224.7968 H   0  0  0  0  0  0  0  0  0  0  0  0
  138.0304   77.5778  222.1193 H   0  0  0  0  0  0  0  0  0  0  0  0
  138.3066   79.8724  222.9608 H   0  0  0  0  0  0  0  0  0  0  0  0
  139.7343   81.6586  223.6767 H   0  0  0  0  0  0  0  0  0  0  0  0
  142.0285   82.5001  224.0888 H   0  0  0  0  0  0  0  0  0  0  0  0
  143.9971   81.0328  223.6507 H   0  0  0  0  0  0  0  0  0  0  0  0
  143.6714   78.7119  222.7974 H   0  0  0  0  0  0  0  0  0  0  0  0
  1  2  2  0
  2  3  1  0
  3  4  1  0
  4  5  1  0
  5  6  2  0
  5  7  1  0
  7  8  1  0
  8  9  1  0
  9 10  1  0
 10 11  1  0
 11 12  1  0
 12 13  2  0
 13 14  1  0
 14 15  2  0
 15 16  1  0
 16 17  1  0
 17 18  1  0
 18 19  1  0
 18 20  1  0
 18 21  1  0
 16 22  2  0
  2 23  1  0
 23 24  2  0
 24 25  1  0
 25 26  2  0
 26 27  1  0
 27 28  2  0
 28 29  1  0
 29 30  2  0
 30 31  1  0
 31 32  2  0
 11  7  1  0
 22 12  1  0
 32 23  1  0
 31 26  1  0
  3 33  1  0
  4 34  1  0
  4 35  1  0
  8 36  1  0
  8 37  1  0
  9 38  1  0
  9 39  1  0
 10 40  1  0
 10 41  1  0
 11 42  1  6
 13 43  1  0
 14 44  1  0
 15 45  1  0
 22 46  1  0
 24 47  1  0
 25 48  1  0
 27 49  1  0
 28 50  1  0
 29 51  1  0
 30 52  1  0
M  END
>  <smiles>  (8) 
O=C(NCC(=O)N1CCCC1c1cccc(OC(F)(F)F)c1)c1ccc2ccccc2n1

>  <score_type>  (8) 
oracle

>  <origin>  (8) 
autodockgpu

>  <m_score__min__energy>  (8) 
-8.5999999999999996

>  <m_primary>  (8) 
energy

>  <rmsd>  (8) 
8.388940019985322

>  <m_score__min__rmsd>  (8) 
8.388940019985322

>  <meeko>  (8) 
{"free_energy": -8.4, "intermolecular_energy": -10.49, "internal_energy": -1.17, "cluster_size": 5, "cluster_id": 1, "rank_in_cluster": 3}

>  <energy>  (8) 
-8.47

>  <cluster_rmsd>  (8) 
0.06

>  <cluster>  (8) 
2

$$$$

     RDKit          3D

 52 55  0  0  0  0  0  0  0  0999 V2000
  139.8910   71.0610  221.1780 O   0  0  0  0  0  0  0  0  0  0  0  0
  139.7310   71.7650  222.2270 C   0  0  0  0  0  0  0  0  0  0  0  0
  139.3600   73.1270  221.9900 N   0  0  0  0  0  0  0  0  0  0  0  0
  139.2140   73.5240  220.6040 C   0  0  0  0  0  0  0  0  0  0  0  0
  139.7310   74.8800  220.3740 C   0  0  0  0  0  0  0  0  0  0  0  0
  139.0540   75.9200  220.6290 O   0  0  0  0  0  0  0  0  0  0  0  0
  141.0450   75.0140  219.8440 N   0  0  0  0  0  0  0  0  0  0  0  0
  141.5340   74.5840  218.5240 C   0  0  0  0  0  0  0  0  0  0  0  0
  142.4380   75.7460  218.1540 C   0  0  0  0  0  0  0  0  0  0  0  0
  142.5430   76.6280  219.3750 C   0  0  0  0  0  0  0  0  0  0  0  0
  142.2250   75.6080  220.4720 C   0  0  2  0  0  0  0  0  0  0  0  0
  143.2440   74.5180  220.5080 C   0  0  0  0  0  0  0  0  0  0  0  0
  144.5880   74.8310  220.4130 C   0  0  0  0  0  0  0  0  0  0  0  0
  145.5680   73.8350  220.4430 C   0  0  0  0  0  0  0  0  0  0  0  0
  145.1990   72.5100  220.5680 C   0  0  0  0  0  0  0  0  0  0  0  0
  143.8630   72.1740  220.6630 C   0  0  0  0  0  0  0  0  0  0  0  0
  143.4440   70.8600  220.7900 O   0  0  0  0  0  0  0  0  0  0  0  0
  143.1180   70.0700  219.6650 C   0  0  0  0  0  0  0  0  0  0  0  0
  141.8340   69.5650  219.7910 F   0  0  0  0  0  0  0  0  0  0  0  0
  143.2460   70.8470  218.5220 F   0  0  0  0  0  0  0  0  0  0  0  0
  144.0070   68.9970  219.6520 F   0  0  0  0  0  0  0  0  0  0  0  0
  142.9170   73.1920  220.6310 C   0  0  0  0  0  0  0  0  0  0  0  0
  139.9130   71.2200  223.5530 C   0  0  0  0  0  0  0  0  0  0  0  0
  139.5720   69.9130  223.7750 C   0  0  0  0  0  0  0  0  0  0  0  0
  139.7110   69.3090  225.0060 C   0  0  0  0  0  0  0  0  0  0  0  0
  140.2110   70.0300  226.0650 C   0  0  0  0  0  0  0  0  0  0  0  0
  140.3520   69.4390  227.2910 C   0  0  0  0  0  0  0  0  0  0  0  0
  140.8530   70.1880  228.3200 C   0  0  0  0  0  0  0  0  0  0  0  0
  141.2080   71.5260  228.1130 C   0  0  0  0  0  0  0  0  0  0  0  0
  141.0560   72.1100  226.8580 C   0  0  0  0  0  0  0  0  0  0  0  0
  140.5520   71.3580  225.8180 C   0  0  0  0  0  0  0  0  0  0  0  0
  140.4020   71.9180  224.5970 N   0  0  0  0  0  0  0  0  0  0  0  0
  139.2090   73.7720  222.7980 H   0  0  0  0  0  0  0  0  0  0  0  0
  139.7694   72.8175  219.9696 H   0  0  0  0  0  0  0  0  0  0  0  0
  138.1427   73.5166  220.3543 H   0  0  0  0  0  0  0  0  0  0  0  0
  142.0959   73.6406  218.5896 H   0  0  0  0  0  0  0  0  0  0  0  0
  140.7390   74.3786  217.7921 H   0  0  0  0  0  0  0  0  0  0  0  0
  143.4335   75.3747  217.8692 H   0  0  0  0  0  0  0  0  0  0  0  0
  142.0297   76.3050  217.2992 H   0  0  0  0  0  0  0  0  0  0  0  0
  143.5533   77.0478  219.4891 H   0  0  0  0  0  0  0  0  0  0  0  0
  141.8897   77.5129  219.3634 H   0  0  0  0  0  0  0  0  0  0  0  0
  142.1495   76.0323  221.4840 H   0  0  0  0  0  0  0  0  0  0  0  0
  144.8912   75.8836  220.3119 H   0  0  0  0  0  0  0  0  0  0  0  0
  146.6314   74.1060  220.3672 H   0  0  0  0  0  0  0  0  0  0  0  0
  145.9680   71.7238  220.5918 H   0  0  0  0  0  0  0  0  0  0  0  0
  141.8538   72.9205  220.7081 H   0  0  0  0  0  0  0  0  0  0  0  0
  139.1715   69.3218  222.9383 H   0  0  0  0  0  0  0  0  0  0  0  0
  139.4235   68.2558  225.1407 H   0  0  0  0  0  0  0  0  0  0  0  0
  140.0694   68.3872  227.4453 H   0  0  0  0  0  0  0  0  0  0  0  0
  140.9776   69.7365  229.3153 H   0  0  0  0  0  0  0  0  0  0  0  0
  141.6097   72.1201  228.9471 H   0  0  0  0  0  0  0  0  0  0  0  0
  141.3355   73.1618  226.6978 H   0  0  0  0  0  0  0  0  0  0  0  0
  1  2  2  0
  2  3  1  0
  3  4  1  0
  4  5  1  0
  5  6  2  0
  5  7  1  0
  7  8  1  0
  8  9  1  0
  9 10  1  0
 10 11  1  0
 11 12  1  0
 12 13  2  0
 13 14  1  0
 14 15  2  0
 15 16  1  0
 16 17  1  0
 17 18  1  0
 18 19  1  0
 18 20  1  0
 18 21  1  0
 16 22  2  0
  2 23  1  0
 23 24  2  0
 24 25  1  0
 25 26  2  0
 26 27  1  0
 27 28  2  0
 28 29  1  0
 29 30  2  0
 30 31  1  0
 31 32  2  0
 11  7  1  0
 22 12  1  0
 32 23  1  0
 31 26  1  0
  3 33  1  0
  4 34  1  0
  4 35  1  0
  8 36  1  0
  8 37  1  0
  9 38  1  0
  9 39  1  0
 10 40  1  0
 10 41  1  0
 11 42  1  1
 13 43  1  0
 14 44  1  0
 15 45  1  0
 22 46  1  0
 24 47  1  0
 25 48  1  0
 27 49  1  0
 28 50  1  0
 29 51  1  0
 30 52  1  0
M  END
>  <smiles>  (9) 
O=C(NCC(=O)N1CCCC1c1cccc(OC(F)(F)F)c1)c1ccc2ccccc2n1

>  <score_type>  (9) 
oracle

>  <origin>  (9) 
autodockgpu

>  <m_score__min__energy>  (9) 
-8.5999999999999996

>  <m_primary>  (9) 
energy

>  <rmsd>  (9) 
1.7888845423142248

>  <m_score__min__rmsd>  (9) 
1.7888845423142248

>  <meeko>  (9) 
{"free_energy": -7.27, "intermolecular_energy": -9.36, "internal_energy": -1.8, "cluster_size": 5, "cluster_id": 5, "rank_in_cluster": 5}

>  <energy>  (9) 
-8.43

>  <cluster_rmsd>  (9) 
0.36

>  <cluster>  (9) 
2

$$$$

     RDKit          3D

 52 55  0  0  0  0  0  0  0  0999 V2000
  141.2790   72.1230  221.6580 O   0  0  0  0  0  0  0  0  0  0  0  0
  140.4010   72.3720  222.5450 C   0  0  0  0  0  0  0  0  0  0  0  0
  139.5970   73.5300  222.2930 N   0  0  0  0  0  0  0  0  0  0  0  0
  139.8820   74.2600  221.0750 C   0  0  0  0  0  0  0  0  0  0  0  0
  140.2140   75.6640  221.3510 C   0  0  0  0  0  0  0  0  0  0  0  0
  141.4090   76.0760  221.4450 O   0  0  0  0  0  0  0  0  0  0  0  0
  139.1420   76.5850  221.5180 N   0  0  0  0  0  0  0  0  0  0  0  0
  138.5540   77.4760  220.5060 C   0  0  0  0  0  0  0  0  0  0  0  0
  137.0780   77.3690  220.8440 C   0  0  0  0  0  0  0  0  0  0  0  0
  136.9770   76.5950  222.1370 C   0  0  0  0  0  0  0  0  0  0  0  0
  138.3660   76.8710  222.7240 C   0  0  2  0  0  0  0  0  0  0  0  0
  138.5620   78.3280  222.9830 C   0  0  0  0  0  0  0  0  0  0  0  0
  137.4650   79.1370  223.2180 C   0  0  0  0  0  0  0  0  0  0  0  0
  137.6140   80.5040  223.4630 C   0  0  0  0  0  0  0  0  0  0  0  0
  138.8740   81.0700  223.4750 C   0  0  0  0  0  0  0  0  0  0  0  0
  139.9830   80.2800  223.2430 C   0  0  0  0  0  0  0  0  0  0  0  0
  141.2670   80.8000  223.2440 O   0  0  0  0  0  0  0  0  0  0  0  0
  142.4080   79.9680  223.3190 C   0  0  0  0  0  0  0  0  0  0  0  0
  143.5350   80.7260  223.5900 F   0  0  0  0  0  0  0  0  0  0  0  0
  142.1950   79.0090  224.2990 F   0  0  0  0  0  0  0  0  0  0  0  0
  142.5680   79.3860  222.0640 F   0  0  0  0  0  0  0  0  0  0  0  0
  139.7970   78.9240  223.0030 C   0  0  0  0  0  0  0  0  0  0  0  0
  140.2360   71.5420  223.7170 C   0  0  0  0  0  0  0  0  0  0  0  0
  139.5800   70.3470  223.5840 C   0  0  0  0  0  0  0  0  0  0  0  0
  139.3760   69.4910  224.6440 C   0  0  0  0  0  0  0  0  0  0  0  0
  139.8410   69.8320  225.8920 C   0  0  0  0  0  0  0  0  0  0  0  0
  139.6430   68.9880  226.9510 C   0  0  0  0  0  0  0  0  0  0  0  0
  140.1200   69.3610  228.1780 C   0  0  0  0  0  0  0  0  0  0  0  0
  140.7920   70.5780  228.3350 C   0  0  0  0  0  0  0  0  0  0  0  0
  140.9840   71.4240  227.2450 C   0  0  0  0  0  0  0  0  0  0  0  0
  140.5050   71.0510  226.0070 C   0  0  0  0  0  0  0  0  0  0  0  0
  140.6870   71.8670  224.9440 N   0  0  0  0  0  0  0  0  0  0  0  0
  138.8520   73.8030  222.9730 H   0  0  0  0  0  0  0  0  0  0  0  0
  140.7335   73.7854  220.5653 H   0  0  0  0  0  0  0  0  0  0  0  0
  138.9827   74.2372  220.4419 H   0  0  0  0  0  0  0  0  0  0  0  0
  138.9193   78.5078  220.6157 H   0  0  0  0  0  0  0  0  0  0  0  0
  138.8010   77.2072  219.4684 H   0  0  0  0  0  0  0  0  0  0  0  0
  136.6453   78.3725  220.9695 H   0  0  0  0  0  0  0  0  0  0  0  0
  136.5262   76.8623  220.0386 H   0  0  0  0  0  0  0  0  0  0  0  0
  136.1764   76.9836  222.7835 H   0  0  0  0  0  0  0  0  0  0  0  0
  136.7274   75.5301  222.0203 H   0  0  0  0  0  0  0  0  0  0  0  0
  138.5860   76.3298  223.6561 H   0  0  0  0  0  0  0  0  0  0  0  0
  136.4573   78.6960  223.2118 H   0  0  0  0  0  0  0  0  0  0  0  0
  136.7281   81.1298  223.6464 H   0  0  0  0  0  0  0  0  0  0  0  0
  138.9938   82.1462  223.6687 H   0  0  0  0  0  0  0  0  0  0  0  0
  140.6831   78.2984  222.8202 H   0  0  0  0  0  0  0  0  0  0  0  0
  139.2013   70.0595  222.5921 H   0  0  0  0  0  0  0  0  0  0  0  0
  138.8441   68.5401  224.4927 H   0  0  0  0  0  0  0  0  0  0  0  0
  139.1133   68.0330  226.8190 H   0  0  0  0  0  0  0  0  0  0  0  0
  139.9743   68.7005  229.0455 H   0  0  0  0  0  0  0  0  0  0  0  0
  141.1713   70.8688  229.3257 H   0  0  0  0  0  0  0  0  0  0  0  0
  141.5126   72.3804  227.3707 H   0  0  0  0  0  0  0  0  0  0  0  0
  1  2  2  0
  2  3  1  0
  3  4  1  0
  4  5  1  0
  5  6  2  0
  5  7  1  0
  7  8  1  0
  8  9  1  0
  9 10  1  0
 10 11  1  0
 11 12  1  0
 12 13  2  0
 13 14  1  0
 14 15  2  0
 15 16  1  0
 16 17  1  0
 17 18  1  0
 18 19  1  0
 18 20  1  0
 18 21  1  0
 16 22  2  0
  2 23  1  0
 23 24  2  0
 24 25  1  0
 25 26  2  0
 26 27  1  0
 27 28  2  0
 28 29  1  0
 29 30  2  0
 30 31  1  0
 31 32  2  0
 11  7  1  0
 22 12  1  0
 32 23  1  0
 31 26  1  0
  3 33  1  0
  4 34  1  0
  4 35  1  0
  8 36  1  0
  8 37  1  0
  9 38  1  0
  9 39  1  0
 10 40  1  0
 10 41  1  0
 11 42  1  1
 13 43  1  0
 14 44  1  0
 15 45  1  0
 22 46  1  0
 24 47  1  0
 25 48  1  0
 27 49  1  0
 28 50  1  0
 29 51  1  0
 30 52  1  0
M  END
>  <smiles>  (10) 
O=C(NCC(=O)N1CCCC1c1cccc(OC(F)(F)F)c1)c1ccc2ccccc2n1

>  <score_type>  (10) 
oracle

>  <origin>  (10) 
autodockgpu

>  <m_score__min__energy>  (10) 
-8.5999999999999996

>  <m_primary>  (10) 
energy

>  <rmsd>  (10) 
2.8918136628295183

>  <m_score__min__rmsd>  (10) 
2.8918136628295183

>  <meeko>  (10) 
{"free_energy": -7.96, "intermolecular_energy": -10.04, "internal_energy": -1.25, "cluster_size": 9, "cluster_id": 3, "rank_in_cluster": 4}

>  <energy>  (10) 
-8.43

>  <cluster_rmsd>  (10) 
0.31

>  <cluster>  (10) 
2

$$$$

     RDKit          3D

 52 55  0  0  0  0  0  0  0  0999 V2000
  139.3810   71.0780  221.3210 O   0  0  0  0  0  0  0  0  0  0  0  0
  139.3100   71.7430  222.4030 C   0  0  0  0  0  0  0  0  0  0  0  0
  138.9320   73.1150  222.2470 N   0  0  0  0  0  0  0  0  0  0  0  0
  138.6800   73.5650  220.8940 C   0  0  0  0  0  0  0  0  0  0  0  0
  138.6340   75.0310  220.8110 C   0  0  0  0  0  0  0  0  0  0  0  0
  137.5450   75.6760  220.7460 O   0  0  0  0  0  0  0  0  0  0  0  0
  139.8680   75.7400  220.8050 N   0  0  0  0  0  0  0  0  0  0  0  0
  141.0980   75.4170  221.5460 C   0  0  0  0  0  0  0  0  0  0  0  0
  142.1580   75.7340  220.5070 C   0  0  0  0  0  0  0  0  0  0  0  0
  141.4540   76.4000  219.3480 C   0  0  0  0  0  0  0  0  0  0  0  0
  140.2180   76.9530  220.0670 C   0  0  2  0  0  0  0  0  0  0  0  0
  140.6020   77.9510  221.1080 C   0  0  0  0  0  0  0  0  0  0  0  0
  141.8090   78.6200  221.0070 C   0  0  0  0  0  0  0  0  0  0  0  0
  142.1980   79.5600  221.9640 C   0  0  0  0  0  0  0  0  0  0  0  0
  141.3710   79.8360  223.0360 C   0  0  0  0  0  0  0  0  0  0  0  0
  140.1620   79.1790  223.1570 C   0  0  0  0  0  0  0  0  0  0  0  0
  139.2980   79.4210  224.2120 O   0  0  0  0  0  0  0  0  0  0  0  0
  138.2090   80.3130  224.0950 C   0  0  0  0  0  0  0  0  0  0  0  0
  137.1630   79.7040  223.4190 F   0  0  0  0  0  0  0  0  0  0  0  0
  137.8240   80.7160  225.3660 F   0  0  0  0  0  0  0  0  0  0  0  0
  138.6490   81.3920  223.3310 F   0  0  0  0  0  0  0  0  0  0  0  0
  139.8080   78.2510  222.1850 C   0  0  0  0  0  0  0  0  0  0  0  0
  139.5930   71.1490  223.6900 C   0  0  0  0  0  0  0  0  0  0  0  0
  139.3230   69.8180  223.8680 C   0  0  0  0  0  0  0  0  0  0  0  0
  139.5600   69.1660  225.0590 C   0  0  0  0  0  0  0  0  0  0  0  0
  140.0870   69.8620  226.1220 C   0  0  0  0  0  0  0  0  0  0  0  0
  140.3260   69.2230  227.3080 C   0  0  0  0  0  0  0  0  0  0  0  0
  140.8500   69.9470  228.3430 C   0  0  0  0  0  0  0  0  0  0  0  0
  141.1330   71.3090  228.1810 C   0  0  0  0  0  0  0  0  0  0  0  0
  140.8830   71.9420  226.9660 C   0  0  0  0  0  0  0  0  0  0  0  0
  140.3540   71.2140  225.9200 C   0  0  0  0  0  0  0  0  0  0  0  0
  140.1090   71.8210  224.7380 N   0  0  0  0  0  0  0  0  0  0  0  0
  138.8500   73.7310  223.0880 H   0  0  0  0  0  0  0  0  0  0  0  0
  139.4832   73.1955  220.2395 H   0  0  0  0  0  0  0  0  0  0  0  0
  137.7027   73.1718  220.5772 H   0  0  0  0  0  0  0  0  0  0  0  0
  141.2079   76.0484  222.4400 H   0  0  0  0  0  0  0  0  0  0  0  0
  141.1364   74.3875  221.9315 H   0  0  0  0  0  0  0  0  0  0  0  0
  142.9123   76.4129  220.9316 H   0  0  0  0  0  0  0  0  0  0  0  0
  142.6738   74.8191  220.1801 H   0  0  0  0  0  0  0  0  0  0  0  0
  142.0632   77.2031  218.9077 H   0  0  0  0  0  0  0  0  0  0  0  0
  141.2365   75.7381  218.4968 H   0  0  0  0  0  0  0  0  0  0  0  0
  139.4750   77.4231  219.4060 H   0  0  0  0  0  0  0  0  0  0  0  0
  142.4745   78.4076  220.1573 H   0  0  0  0  0  0  0  0  0  0  0  0
  143.1621   80.0802  221.8644 H   0  0  0  0  0  0  0  0  0  0  0  0
  141.6745   80.5766  223.7906 H   0  0  0  0  0  0  0  0  0  0  0  0
  138.8435   77.7316  222.2845 H   0  0  0  0  0  0  0  0  0  0  0  0
  138.9006   69.2473  223.0278 H   0  0  0  0  0  0  0  0  0  0  0  0
  139.3290   68.0952  225.1589 H   0  0  0  0  0  0  0  0  0  0  0  0
  140.1020   68.1525  227.4261 H   0  0  0  0  0  0  0  0  0  0  0  0
  141.0502   69.4573  229.3074 H   0  0  0  0  0  0  0  0  0  0  0  0
  141.5556   71.8826  229.0191 H   0  0  0  0  0  0  0  0  0  0  0  0
  141.1051   73.0121  226.8414 H   0  0  0  0  0  0  0  0  0  0  0  0
  1  2  2  0
  2  3  1  0
  3  4  1  0
  4  5  1  0
  5  6  2  0
  5  7  1  0
  7  8  1  0
  8  9  1  0
  9 10  1  0
 10 11  1  0
 11 12  1  0
 12 13  2  0
 13 14  1  0
 14 15  2  0
 15 16  1  0
 16 17  1  0
 17 18  1  0
 18 19  1  0
 18 20  1  0
 18 21  1  0
 16 22  2  0
  2 23  1  0
 23 24  2  0
 24 25  1  0
 25 26  2  0
 26 27  1  0
 27 28  2  0
 28 29  1  0
 29 30  2  0
 30 31  1  0
 31 32  2  0
 11  7  1  0
 22 12  1  0
 32 23  1  0
 31 26  1  0
  3 33  1  0
  4 34  1  0
  4 35  1  0
  8 36  1  0
  8 37  1  0
  9 38  1  0
  9 39  1  0
 10 40  1  0
 10 41  1  0
 11 42  1  6
 13 43  1  0
 14 44  1  0
 15 45  1  0
 22 46  1  0
 24 47  1  0
 25 48  1  0
 27 49  1  0
 28 50  1  0
 29 51  1  0
 30 52  1  0
M  END
>  <smiles>  (11) 
O=C(NCC(=O)N1CCCC1c1cccc(OC(F)(F)F)c1)c1ccc2ccccc2n1

>  <score_type>  (11) 
oracle

>  <origin>  (11) 
autodockgpu

>  <m_score__min__energy>  (11) 
-8.5999999999999996

>  <m_primary>  (11) 
energy

>  <rmsd>  (11) 
1.9992734072823015

>  <m_score__min__rmsd>  (11) 
1.9992734072823015

>  <meeko>  (11) 
{"free_energy": -7.74, "intermolecular_energy": -9.83, "internal_energy": -1.31, "cluster_size": 23, "cluster_id": 2, "rank_in_cluster": 20}

>  <energy>  (11) 
-8.43

>  <cluster_rmsd>  (11) 
0.07

>  <cluster>  (11) 
2

$$$$

     RDKit          3D

 52 55  0  0  0  0  0  0  0  0999 V2000
  141.4100   72.2100  221.7280 O   0  0  0  0  0  0  0  0  0  0  0  0
  140.4590   72.3880  222.5540 C   0  0  0  0  0  0  0  0  0  0  0  0
  139.5780   73.4720  222.2390 N   0  0  0  0  0  0  0  0  0  0  0  0
  139.8790   74.2180  221.0340 C   0  0  0  0  0  0  0  0  0  0  0  0
  140.5280   75.5000  221.3400 C   0  0  0  0  0  0  0  0  0  0  0  0
  140.5080   76.0150  222.4980 O   0  0  0  0  0  0  0  0  0  0  0  0
  141.2010   76.1780  220.2850 N   0  0  0  0  0  0  0  0  0  0  0  0
  142.6530   76.3020  220.0740 C   0  0  0  0  0  0  0  0  0  0  0  0
  142.7440   76.1380  218.5680 C   0  0  0  0  0  0  0  0  0  0  0  0
  141.3300   76.1420  218.0370 C   0  0  0  0  0  0  0  0  0  0  0  0
  140.6240   76.9120  219.1600 C   0  0  2  0  0  0  0  0  0  0  0  0
  141.1580   78.3010  219.2790 C   0  0  0  0  0  0  0  0  0  0  0  0
  141.6090   78.9630  218.1510 C   0  0  0  0  0  0  0  0  0  0  0  0
  142.1140   80.2630  218.2280 C   0  0  0  0  0  0  0  0  0  0  0  0
  142.1690   80.9100  219.4480 C   0  0  0  0  0  0  0  0  0  0  0  0
  141.7240   80.2670  220.5870 C   0  0  0  0  0  0  0  0  0  0  0  0
  141.7580   80.8740  221.8310 O   0  0  0  0  0  0  0  0  0  0  0  0
  142.1540   80.1710  222.9920 C   0  0  0  0  0  0  0  0  0  0  0  0
  141.1290   79.3460  223.4240 F   0  0  0  0  0  0  0  0  0  0  0  0
  143.3010   79.4450  222.7030 F   0  0  0  0  0  0  0  0  0  0  0  0
  142.3910   81.1230  223.9810 F   0  0  0  0  0  0  0  0  0  0  0  0
  141.2280   78.9750  220.4710 C   0  0  0  0  0  0  0  0  0  0  0  0
  140.2890   71.5530  223.7210 C   0  0  0  0  0  0  0  0  0  0  0  0
  139.6260   70.3620  223.5820 C   0  0  0  0  0  0  0  0  0  0  0  0
  139.4170   69.5020  224.6380 C   0  0  0  0  0  0  0  0  0  0  0  0
  139.8840   69.8330  225.8880 C   0  0  0  0  0  0  0  0  0  0  0  0
  139.6810   68.9850  226.9420 C   0  0  0  0  0  0  0  0  0  0  0  0
  140.1600   69.3480  228.1710 C   0  0  0  0  0  0  0  0  0  0  0  0
  140.8400   70.5610  228.3340 C   0  0  0  0  0  0  0  0  0  0  0  0
  141.0370   71.4110  227.2490 C   0  0  0  0  0  0  0  0  0  0  0  0
  140.5550   71.0480  226.0080 C   0  0  0  0  0  0  0  0  0  0  0  0
  140.7420   71.8680  224.9500 N   0  0  0  0  0  0  0  0  0  0  0  0
  138.7710   73.6850  222.8670 H   0  0  0  0  0  0  0  0  0  0  0  0
  140.5514   73.6193  220.4020 H   0  0  0  0  0  0  0  0  0  0  0  0
  138.9329   74.4268  220.5131 H   0  0  0  0  0  0  0  0  0  0  0  0
  143.0251   77.2858  220.3961 H   0  0  0  0  0  0  0  0  0  0  0  0
  143.2566   75.5812  220.6451 H   0  0  0  0  0  0  0  0  0  0  0  0
  143.3140   76.9712  218.1310 H   0  0  0  0  0  0  0  0  0  0  0  0
  143.2592   75.2022  218.3055 H   0  0  0  0  0  0  0  0  0  0  0  0
  141.2575   76.6680  217.0736 H   0  0  0  0  0  0  0  0  0  0  0  0
  140.9125   75.1466  217.8253 H   0  0  0  0  0  0  0  0  0  0  0  0
  139.5311   76.9784  219.0545 H   0  0  0  0  0  0  0  0  0  0  0  0
  141.5691   78.4562  217.1755 H   0  0  0  0  0  0  0  0  0  0  0  0
  142.4675   80.7712  217.3187 H   0  0  0  0  0  0  0  0  0  0  0  0
  142.5659   81.9339  219.5120 H   0  0  0  0  0  0  0  0  0  0  0  0
  140.8738   78.4673  221.3803 H   0  0  0  0  0  0  0  0  0  0  0  0
  139.2458   70.0815  222.5886 H   0  0  0  0  0  0  0  0  0  0  0  0
  138.8792   68.5553  224.4817 H   0  0  0  0  0  0  0  0  0  0  0  0
  139.1455   68.0340  226.8047 H   0  0  0  0  0  0  0  0  0  0  0  0
  140.0102   68.6839  229.0350 H   0  0  0  0  0  0  0  0  0  0  0  0
  141.2212   70.8444  229.3261 H   0  0  0  0  0  0  0  0  0  0  0  0
  141.5720   72.3632  227.3798 H   0  0  0  0  0  0  0  0  0  0  0  0
  1  2  2  0
  2  3  1  0
  3  4  1  0
  4  5  1  0
  5  6  2  0
  5  7  1  0
  7  8  1  0
  8  9  1  0
  9 10  1  0
 10 11  1  0
 11 12  1  0
 12 13  2  0
 13 14  1  0
 14 15  2  0
 15 16  1  0
 16 17  1  0
 17 18  1  0
 18 19  1  0
 18 20  1  0
 18 21  1  0
 16 22  2  0
  2 23  1  0
 23 24  2  0
 24 25  1  0
 25 26  2  0
 26 27  1  0
 27 28  2  0
 28 29  1  0
 29 30  2  0
 30 31  1  0
 31 32  2  0
 11  7  1  0
 22 12  1  0
 32 23  1  0
 31 26  1  0
  3 33  1  0
  4 34  1  0
  4 35  1  0
  8 36  1  0
  8 37  1  0
  9 38  1  0
  9 39  1  0
 10 40  1  0
 10 41  1  0
 11 42  1  6
 13 43  1  0
 14 44  1  0
 15 45  1  0
 22 46  1  0
 24 47  1  0
 25 48  1  0
 27 49  1  0
 28 50  1  0
 29 51  1  0
 30 52  1  0
M  END
>  <smiles>  (12) 
O=C(NCC(=O)N1CCCC1c1cccc(OC(F)(F)F)c1)c1ccc2ccccc2n1

>  <score_type>  (12) 
oracle

>  <origin>  (12) 
autodockgpu

>  <m_score__min__energy>  (12) 
-8.5999999999999996

>  <m_primary>  (12) 
energy

>  <rmsd>  (12) 
2.11674302824258

>  <m_score__min__rmsd>  (12) 
2.11674302824258

>  <meeko>  (12) 
{"free_energy": -8.0, "intermolecular_energy": -10.09, "internal_energy": -1.37, "cluster_size": 23, "cluster_id": 2, "rank_in_cluster": 12}

>  <energy>  (12) 
-8.37

>  <cluster_rmsd>  (12) 
1.12

>  <cluster>  (12) 
2

$$$$

     RDKit          3D

 52 55  0  0  0  0  0  0  0  0999 V2000
  140.0890   73.5600  222.4410 O   0  0  0  0  0  0  0  0  0  0  0  0
  139.9920   72.2920  222.3990 C   0  0  0  0  0  0  0  0  0  0  0  0
  139.8240   71.7410  221.0890 N   0  0  0  0  0  0  0  0  0  0  0  0
  139.7890   72.6860  219.9920 C   0  0  0  0  0  0  0  0  0  0  0  0
  141.1250   72.8990  219.4190 C   0  0  0  0  0  0  0  0  0  0  0  0
  141.6770   72.0610  218.6450 O   0  0  0  0  0  0  0  0  0  0  0  0
  141.8140   74.0980  219.7560 N   0  0  0  0  0  0  0  0  0  0  0  0
  142.8190   74.2940  220.8130 C   0  0  0  0  0  0  0  0  0  0  0  0
  143.8070   75.2080  220.1110 C   0  0  0  0  0  0  0  0  0  0  0  0
  143.1770   75.6130  218.7990 C   0  0  0  0  0  0  0  0  0  0  0  0
  141.6960   75.4200  219.1420 C   0  0  2  0  0  0  0  0  0  0  0  0
  141.2740   76.3320  220.2450 C   0  0  0  0  0  0  0  0  0  0  0  0
  140.2320   75.9670  221.0780 C   0  0  0  0  0  0  0  0  0  0  0  0
  139.8120   76.7980  222.1200 C   0  0  0  0  0  0  0  0  0  0  0  0
  140.4420   78.0090  222.3310 C   0  0  0  0  0  0  0  0  0  0  0  0
  141.4840   78.3940  221.5110 C   0  0  0  0  0  0  0  0  0  0  0  0
  142.1460   79.5990  221.6820 O   0  0  0  0  0  0  0  0  0  0  0  0
  142.6350   80.0070  222.9440 C   0  0  0  0  0  0  0  0  0  0  0  0
  142.0560   81.2090  223.3150 F   0  0  0  0  0  0  0  0  0  0  0  0
  142.3660   79.0090  223.8700 F   0  0  0  0  0  0  0  0  0  0  0  0
  144.0060   80.2110  222.8010 F   0  0  0  0  0  0  0  0  0  0  0  0
  141.8740   77.5420  220.4860 C   0  0  0  0  0  0  0  0  0  0  0  0
  140.0470   71.4770  223.5920 C   0  0  0  0  0  0  0  0  0  0  0  0
  139.5690   70.1960  223.5320 C   0  0  0  0  0  0  0  0  0  0  0  0
  139.5810   69.3480  224.6180 C   0  0  0  0  0  0  0  0  0  0  0  0
  140.0890   69.7860  225.8180 C   0  0  0  0  0  0  0  0  0  0  0  0
  140.1050   68.9520  226.9010 C   0  0  0  0  0  0  0  0  0  0  0  0
  140.6180   69.4230  228.0780 C   0  0  0  0  0  0  0  0  0  0  0  0
  141.1110   70.7300  228.1610 C   0  0  0  0  0  0  0  0  0  0  0  0
  141.0860   71.5650  227.0470 C   0  0  0  0  0  0  0  0  0  0  0  0
  140.5700   71.0930  225.8580 C   0  0  0  0  0  0  0  0  0  0  0  0
  140.5420   71.8980  224.7730 N   0  0  0  0  0  0  0  0  0  0  0  0
  139.7370   70.7060  220.9670 H   0  0  0  0  0  0  0  0  0  0  0  0
  139.1219   72.2983  219.2080 H   0  0  0  0  0  0  0  0  0  0  0  0
  139.4229   73.6486  220.3786 H   0  0  0  0  0  0  0  0  0  0  0  0
  142.3828   74.7766  221.7001 H   0  0  0  0  0  0  0  0  0  0  0  0
  143.2591   73.3620  221.1973 H   0  0  0  0  0  0  0  0  0  0  0  0
  144.0022   76.0980  220.7272 H   0  0  0  0  0  0  0  0  0  0  0  0
  144.7664   74.6961  219.9449 H   0  0  0  0  0  0  0  0  0  0  0  0
  143.4036   76.6586  218.5432 H   0  0  0  0  0  0  0  0  0  0  0  0
  143.5267   75.0463  217.9235 H   0  0  0  0  0  0  0  0  0  0  0  0
  141.0065   75.5705  218.2983 H   0  0  0  0  0  0  0  0  0  0  0  0
  139.7243   75.0045  220.9173 H   0  0  0  0  0  0  0  0  0  0  0  0
  138.9812   76.4883  222.7710 H   0  0  0  0  0  0  0  0  0  0  0  0
  140.1142   78.6653  223.1506 H   0  0  0  0  0  0  0  0  0  0  0  0
  142.7048   77.8526  219.8354 H   0  0  0  0  0  0  0  0  0  0  0  0
  139.1592   69.8290  222.5795 H   0  0  0  0  0  0  0  0  0  0  0  0
  139.1860   68.3256  224.5252 H   0  0  0  0  0  0  0  0  0  0  0  0
  139.7145   67.9263  226.8275 H   0  0  0  0  0  0  0  0  0  0  0  0
  140.6432   68.7712  228.9638 H   0  0  0  0  0  0  0  0  0  0  0  0
  141.5209   71.1001  229.1123 H   0  0  0  0  0  0  0  0  0  0  0  0
  141.4743   72.5920  227.1145 H   0  0  0  0  0  0  0  0  0  0  0  0
  1  2  2  0
  2  3  1  0
  3  4  1  0
  4  5  1  0
  5  6  2  0
  5  7  1  0
  7  8  1  0
  8  9  1  0
  9 10  1  0
 10 11  1  0
 11 12  1  0
 12 13  2  0
 13 14  1  0
 14 15  2  0
 15 16  1  0
 16 17  1  0
 17 18  1  0
 18 19  1  0
 18 20  1  0
 18 21  1  0
 16 22  2  0
  2 23  1  0
 23 24  2  0
 24 25  1  0
 25 26  2  0
 26 27  1  0
 27 28  2  0
 28 29  1  0
 29 30  2  0
 30 31  1  0
 31 32  2  0
 11  7  1  0
 22 12  1  0
 32 23  1  0
 31 26  1  0
  3 33  1  0
  4 34  1  0
  4 35  1  0
  8 36  1  0
  8 37  1  0
  9 38  1  0
  9 39  1  0
 10 40  1  0
 10 41  1  0
 11 42  1  6
 13 43  1  0
 14 44  1  0
 15 45  1  0
 22 46  1  0
 24 47  1  0
 25 48  1  0
 27 49  1  0
 28 50  1  0
 29 51  1  0
 30 52  1  0
M  END
>  <smiles>  (13) 
O=C(NCC(=O)N1CCCC1c1cccc(OC(F)(F)F)c1)c1ccc2ccccc2n1

>  <score_type>  (13) 
oracle

>  <origin>  (13) 
autodockgpu

>  <m_score__min__energy>  (13) 
-8.5999999999999996

>  <m_primary>  (13) 
energy

>  <rmsd>  (13) 
2.6295743062796944

>  <m_score__min__rmsd>  (13) 
2.6295743062796944

>  <meeko>  (13) 
{"free_energy": -7.79, "intermolecular_energy": -9.88, "internal_energy": -1.44, "cluster_size": 4, "cluster_id": 6, "rank_in_cluster": 2}

>  <energy>  (13) 
-8.27

>  <cluster_rmsd>  (13) 
0.22

>  <cluster>  (13) 
2

$$$$

     RDKit          3D

 52 55  0  0  0  0  0  0  0  0999 V2000
  140.5670   71.6340  221.3600 O   0  0  0  0  0  0  0  0  0  0  0  0
  140.1720   72.1660  222.4460 C   0  0  0  0  0  0  0  0  0  0  0  0
  139.7830   73.5400  222.3410 N   0  0  0  0  0  0  0  0  0  0  0  0
  139.8870   74.1400  221.0270 C   0  0  0  0  0  0  0  0  0  0  0  0
  141.2400   74.6540  220.7730 C   0  0  0  0  0  0  0  0  0  0  0  0
  142.2630   73.9060  220.7690 O   0  0  0  0  0  0  0  0  0  0  0  0
  141.3910   76.0470  220.5240 N   0  0  0  0  0  0  0  0  0  0  0  0
  142.6060   76.7610  220.0990 C   0  0  0  0  0  0  0  0  0  0  0  0
  142.0300   77.7500  219.1020 C   0  0  0  0  0  0  0  0  0  0  0  0
  140.5260   77.6510  219.2020 C   0  0  0  0  0  0  0  0  0  0  0  0
  140.3870   77.1050  220.6270 C   0  0  2  0  0  0  0  0  0  0  0  0
  140.9290   78.0690  221.6290 C   0  0  0  0  0  0  0  0  0  0  0  0
  141.2680   77.6250  222.8950 C   0  0  0  0  0  0  0  0  0  0  0  0
  141.7780   78.5020  223.8560 C   0  0  0  0  0  0  0  0  0  0  0  0
  141.9510   79.8370  223.5490 C   0  0  0  0  0  0  0  0  0  0  0  0
  141.6190   80.3010  222.2910 C   0  0  0  0  0  0  0  0  0  0  0  0
  141.7750   81.6310  221.9350 O   0  0  0  0  0  0  0  0  0  0  0  0
  140.8570   82.2870  221.0840 C   0  0  0  0  0  0  0  0  0  0  0  0
  141.1300   81.9820  219.7610 F   0  0  0  0  0  0  0  0  0  0  0  0
  139.5700   81.9030  221.4360 F   0  0  0  0  0  0  0  0  0  0  0  0
  141.0460   83.6550  221.2620 F   0  0  0  0  0  0  0  0  0  0  0  0
  141.1150   79.4010  221.3610 C   0  0  0  0  0  0  0  0  0  0  0  0
  140.1240   71.4290  223.6890 C   0  0  0  0  0  0  0  0  0  0  0  0
  139.5610   70.1810  223.6870 C   0  0  0  0  0  0  0  0  0  0  0  0
  139.4710   69.4060  224.8230 C   0  0  0  0  0  0  0  0  0  0  0  0
  139.9600   69.8870  226.0140 C   0  0  0  0  0  0  0  0  0  0  0  0
  139.8750   69.1260  227.1480 C   0  0  0  0  0  0  0  0  0  0  0  0
  140.3710   69.6370  228.3150 C   0  0  0  0  0  0  0  0  0  0  0  0
  140.9500   70.9120  228.3380 C   0  0  0  0  0  0  0  0  0  0  0  0
  141.0270   71.6730  227.1740 C   0  0  0  0  0  0  0  0  0  0  0  0
  140.5270   71.1590  225.9950 C   0  0  0  0  0  0  0  0  0  0  0  0
  140.5990   71.8920  224.8620 N   0  0  0  0  0  0  0  0  0  0  0  0
  139.4450   74.0500  223.1880 H   0  0  0  0  0  0  0  0  0  0  0  0
  139.6449   73.3815  220.2680 H   0  0  0  0  0  0  0  0  0  0  0  0
  139.1832   74.9839  220.9772 H   0  0  0  0  0  0  0  0  0  0  0  0
  143.0887   77.2743  220.9437 H   0  0  0  0  0  0  0  0  0  0  0  0
  143.3926   76.1109  219.6885 H   0  0  0  0  0  0  0  0  0  0  0  0
  142.3588   78.7703  219.3487 H   0  0  0  0  0  0  0  0  0  0  0  0
  142.3718   77.5233  218.0813 H   0  0  0  0  0  0  0  0  0  0  0  0
  140.0444   78.6340  219.0931 H   0  0  0  0  0  0  0  0  0  0  0  0
  140.0502   77.0370  218.4231 H   0  0  0  0  0  0  0  0  0  0  0  0
  139.3581   76.8536  220.9238 H   0  0  0  0  0  0  0  0  0  0  0  0
  141.1337   76.5633  223.1493 H   0  0  0  0  0  0  0  0  0  0  0  0
  142.0415   78.1289  224.8567 H   0  0  0  0  0  0  0  0  0  0  0  0
  142.3521   80.5291  224.3041 H   0  0  0  0  0  0  0  0  0  0  0  0
  140.8522   79.7749  220.3604 H   0  0  0  0  0  0  0  0  0  0  0  0
  139.1651   69.7813  222.7418 H   0  0  0  0  0  0  0  0  0  0  0  0
  139.0104   68.4081  224.7768 H   0  0  0  0  0  0  0  0  0  0  0  0
  139.4180   68.1258  227.1212 H   0  0  0  0  0  0  0  0  0  0  0  0
  140.3151   69.0442  229.2399 H   0  0  0  0  0  0  0  0  0  0  0  0
  141.3466   71.3151  229.2815 H   0  0  0  0  0  0  0  0  0  0  0  0
  141.4821   72.6742  227.1943 H   0  0  0  0  0  0  0  0  0  0  0  0
  1  2  2  0
  2  3  1  0
  3  4  1  0
  4  5  1  0
  5  6  2  0
  5  7  1  0
  7  8  1  0
  8  9  1  0
  9 10  1  0
 10 11  1  0
 11 12  1  0
 12 13  2  0
 13 14  1  0
 14 15  2  0
 15 16  1  0
 16 17  1  0
 17 18  1  0
 18 19  1  0
 18 20  1  0
 18 21  1  0
 16 22  2  0
  2 23  1  0
 23 24  2  0
 24 25  1  0
 25 26  2  0
 26 27  1  0
 27 28  2  0
 28 29  1  0
 29 30  2  0
 30 31  1  0
 31 32  2  0
 11  7  1  0
 22 12  1  0
 32 23  1  0
 31 26  1  0
  3 33  1  0
  4 34  1  0
  4 35  1  0
  8 36  1  0
  8 37  1  0
  9 38  1  0
  9 39  1  0
 10 40  1  0
 10 41  1  0
 11 42  1  1
 13 43  1  0
 14 44  1  0
 15 45  1  0
 22 46  1  0
 24 47  1  0
 25 48  1  0
 27 49  1  0
 28 50  1  0
 29 51  1  0
 30 52  1  0
M  END
>  <smiles>  (14) 
O=C(NCC(=O)N1CCCC1c1cccc(OC(F)(F)F)c1)c1ccc2ccccc2n1

>  <score_type>  (14) 
oracle

>  <origin>  (14) 
autodockgpu

>  <m_score__min__energy>  (14) 
-8.5999999999999996

>  <m_primary>  (14) 
energy

>  <rmsd>  (14) 
2.122562327326102

>  <m_score__min__rmsd>  (14) 
2.122562327326102

>  <meeko>  (14) 
{"free_energy": -8.43, "intermolecular_energy": -10.52, "internal_energy": -1.29, "cluster_size": 23, "cluster_id": 2, "rank_in_cluster": 6}

>  <energy>  (14) 
-8.06

>  <cluster_rmsd>  (14) 
1.85

>  <cluster>  (14) 
2

$$$$

     RDKit          3D

 52 55  0  0  0  0  0  0  0  0999 V2000
  141.3550   71.8360  222.2290 O   0  0  0  0  0  0  0  0  0  0  0  0
  140.4160   71.9400  223.0820 C   0  0  0  0  0  0  0  0  0  0  0  0
  139.3330   72.7900  222.6890 N   0  0  0  0  0  0  0  0  0  0  0  0
  139.4430   73.4140  221.3870 C   0  0  0  0  0  0  0  0  0  0  0  0
  140.4550   74.4800  221.3820 C   0  0  0  0  0  0  0  0  0  0  0  0
  141.6950   74.2420  221.4910 O   0  0  0  0  0  0  0  0  0  0  0  0
  140.0100   75.8250  221.2490 N   0  0  0  0  0  0  0  0  0  0  0  0
  140.4070   76.8100  220.2300 C   0  0  0  0  0  0  0  0  0  0  0  0
  139.0780   77.4860  219.9440 C   0  0  0  0  0  0  0  0  0  0  0  0
  138.0930   76.9710  220.9660 C   0  0  0  0  0  0  0  0  0  0  0  0
  139.0570   76.5550  222.0830 C   0  0  2  0  0  0  0  0  0  0  0  0
  139.8120   77.7310  222.6090 C   0  0  0  0  0  0  0  0  0  0  0  0
  141.1010   77.5640  223.0820 C   0  0  0  0  0  0  0  0  0  0  0  0
  141.8340   78.6430  223.5810 C   0  0  0  0  0  0  0  0  0  0  0  0
  141.2720   79.9040  223.6080 C   0  0  0  0  0  0  0  0  0  0  0  0
  139.9860   80.0940  223.1420 C   0  0  0  0  0  0  0  0  0  0  0  0
  139.3790   81.3390  223.1490 O   0  0  0  0  0  0  0  0  0  0  0  0
  139.2620   82.1170  221.9750 C   0  0  0  0  0  0  0  0  0  0  0  0
  140.4770   82.7060  221.6690 F   0  0  0  0  0  0  0  0  0  0  0  0
  138.8200   81.3010  220.9420 F   0  0  0  0  0  0  0  0  0  0  0  0
  138.3450   83.1290  222.2500 F   0  0  0  0  0  0  0  0  0  0  0  0
  139.2880   78.9970  222.6520 C   0  0  0  0  0  0  0  0  0  0  0  0
  140.4500   71.2470  224.3500 C   0  0  0  0  0  0  0  0  0  0  0  0
  141.0270   71.8740  225.4220 C   0  0  0  0  0  0  0  0  0  0  0  0
  141.1050   71.2910  226.6680 C   0  0  0  0  0  0  0  0  0  0  0  0
  140.5880   70.0310  226.8630 C   0  0  0  0  0  0  0  0  0  0  0  0
  140.6610   69.4440  228.0970 C   0  0  0  0  0  0  0  0  0  0  0  0
  140.1360   68.1910  228.2530 C   0  0  0  0  0  0  0  0  0  0  0  0
  139.5420   67.5330  227.1690 C   0  0  0  0  0  0  0  0  0  0  0  0
  139.4780   68.1470  225.9210 C   0  0  0  0  0  0  0  0  0  0  0  0
  140.0060   69.4110  225.7600 C   0  0  0  0  0  0  0  0  0  0  0  0
  139.9470   70.0130  224.5510 N   0  0  0  0  0  0  0  0  0  0  0  0
  138.5220   72.9290  223.3330 H   0  0  0  0  0  0  0  0  0  0  0  0
  139.7255   72.6501  220.6477 H   0  0  0  0  0  0  0  0  0  0  0  0
  138.4700   73.8619  221.1367 H   0  0  0  0  0  0  0  0  0  0  0  0
  141.1459   77.5231  220.6243 H   0  0  0  0  0  0  0  0  0  0  0  0
  140.8930   76.3744  219.3445 H   0  0  0  0  0  0  0  0  0  0  0  0
  139.1817   78.5773  220.0354 H   0  0  0  0  0  0  0  0  0  0  0  0
  138.7362   77.2643  218.9222 H   0  0  0  0  0  0  0  0  0  0  0  0
  137.4002   77.7585  221.2976 H   0  0  0  0  0  0  0  0  0  0  0  0
  137.4295   76.1708  220.6062 H   0  0  0  0  0  0  0  0  0  0  0  0
  138.5804   76.0507  222.9365 H   0  0  0  0  0  0  0  0  0  0  0  0
  141.5571   76.5632  223.0648 H   0  0  0  0  0  0  0  0  0  0  0  0
  142.8579   78.4885  223.9521 H   0  0  0  0  0  0  0  0  0  0  0  0
  141.8475   80.7555  223.9999 H   0  0  0  0  0  0  0  0  0  0  0  0
  138.2644   79.1521  222.2802 H   0  0  0  0  0  0  0  0  0  0  0  0
  141.4444   72.8822  225.2830 H   0  0  0  0  0  0  0  0  0  0  0  0
  141.5780   71.8299  227.5022 H   0  0  0  0  0  0  0  0  0  0  0  0
  141.1306   69.9674  228.9429 H   0  0  0  0  0  0  0  0  0  0  0  0
  140.1805   67.6974  229.2351 H   0  0  0  0  0  0  0  0  0  0  0  0
  139.1234   66.5248  227.3043 H   0  0  0  0  0  0  0  0  0  0  0  0
  139.0104   67.6286  225.0709 H   0  0  0  0  0  0  0  0  0  0  0  0
  1  2  2  0
  2  3  1  0
  3  4  1  0
  4  5  1  0
  5  6  2  0
  5  7  1  0
  7  8  1  0
  8  9  1  0
  9 10  1  0
 10 11  1  0
 11 12  1  0
 12 13  2  0
 13 14  1  0
 14 15  2  0
 15 16  1  0
 16 17  1  0
 17 18  1  0
 18 19  1  0
 18 20  1  0
 18 21  1  0
 16 22  2  0
  2 23  1  0
 23 24  2  0
 24 25  1  0
 25 26  2  0
 26 27  1  0
 27 28  2  0
 28 29  1  0
 29 30  2  0
 30 31  1  0
 31 32  2  0
 11  7  1  0
 22 12  1  0
 32 23  1  0
 31 26  1  0
  3 33  1  0
  4 34  1  0
  4 35  1  0
  8 36  1  0
  8 37  1  0
  9 38  1  0
  9 39  1  0
 10 40  1  0
 10 41  1  0
 11 42  1  1
 13 43  1  0
 14 44  1  0
 15 45  1  0
 22 46  1  0
 24 47  1  0
 25 48  1  0
 27 49  1  0
 28 50  1  0
 29 51  1  0
 30 52  1  0
M  END
>  <smiles>  (15) 
O=C(NCC(=O)N1CCCC1c1cccc(OC(F)(F)F)c1)c1ccc2ccccc2n1

>  <score_type>  (15) 
oracle

>  <origin>  (15) 
autodockgpu

>  <m_score__min__energy>  (15) 
-8.5999999999999996

>  <m_primary>  (15) 
energy

>  <rmsd>  (15) 
3.232223729078849

>  <m_score__min__rmsd>  (15) 
3.232223729078849

>  <meeko>  (15) 
{"free_energy": -7.83, "intermolecular_energy": -9.92, "internal_energy": -1.22, "cluster_size": 23, "cluster_id": 2, "rank_in_cluster": 19}

>  <energy>  (15) 
-8.06

>  <cluster_rmsd>  (15) 
1.77

>  <cluster>  (15) 
2

$$$$

     RDKit          3D

 52 55  0  0  0  0  0  0  0  0999 V2000
  140.6760   71.2070  221.3640 O   0  0  0  0  0  0  0  0  0  0  0  0
  140.2790   71.7770  222.4300 C   0  0  0  0  0  0  0  0  0  0  0  0
  139.9330   73.1590  222.2840 N   0  0  0  0  0  0  0  0  0  0  0  0
  140.0780   73.7230  220.9580 C   0  0  0  0  0  0  0  0  0  0  0  0
  140.8940   74.9450  220.9760 C   0  0  0  0  0  0  0  0  0  0  0  0
  142.1560   74.9230  220.8620 O   0  0  0  0  0  0  0  0  0  0  0  0
  140.2270   76.1930  221.1300 N   0  0  0  0  0  0  0  0  0  0  0  0
  140.2320   77.3380  220.2050 C   0  0  0  0  0  0  0  0  0  0  0  0
  138.7850   77.7880  220.2900 C   0  0  0  0  0  0  0  0  0  0  0  0
  138.1410   76.9950  221.4020 C   0  0  0  0  0  0  0  0  0  0  0  0
  139.3790   76.6430  222.2330 C   0  0  2  0  0  0  0  0  0  0  0  0
  140.0400   77.8720  222.7630 C   0  0  0  0  0  0  0  0  0  0  0  0
  141.4100   77.8860  222.9600 C   0  0  0  0  0  0  0  0  0  0  0  0
  142.0580   79.0200  223.4550 C   0  0  0  0  0  0  0  0  0  0  0  0
  141.3300   80.1540  223.7560 C   0  0  0  0  0  0  0  0  0  0  0  0
  139.9620   80.1630  223.5670 C   0  0  0  0  0  0  0  0  0  0  0  0
  139.1890   81.2750  223.8540 O   0  0  0  0  0  0  0  0  0  0  0  0
  137.7830   81.1950  223.9720 C   0  0  0  0  0  0  0  0  0  0  0  0
  137.2710   82.4040  224.4150 F   0  0  0  0  0  0  0  0  0  0  0  0
  137.2520   80.8420  222.7390 F   0  0  0  0  0  0  0  0  0  0  0  0
  137.5110   80.2290  224.9370 F   0  0  0  0  0  0  0  0  0  0  0  0
  139.3510   79.0170  223.0730 C   0  0  0  0  0  0  0  0  0  0  0  0
  140.1860   71.0740  223.6890 C   0  0  0  0  0  0  0  0  0  0  0  0
  139.5820   69.8450  223.7080 C   0  0  0  0  0  0  0  0  0  0  0  0
  139.4490   69.1020  224.8610 C   0  0  0  0  0  0  0  0  0  0  0  0
  139.9360   69.5960  226.0490 C   0  0  0  0  0  0  0  0  0  0  0  0
  139.8080   68.8660  227.1990 C   0  0  0  0  0  0  0  0  0  0  0  0
  140.3040   69.3900  228.3600 C   0  0  0  0  0  0  0  0  0  0  0  0
  140.9250   70.6450  228.3620 C   0  0  0  0  0  0  0  0  0  0  0  0
  141.0450   71.3740  227.1810 C   0  0  0  0  0  0  0  0  0  0  0  0
  140.5460   70.8480  226.0080 C   0  0  0  0  0  0  0  0  0  0  0  0
  140.6590   71.5490  224.8580 N   0  0  0  0  0  0  0  0  0  0  0  0
  139.5970   73.7010  223.1120 H   0  0  0  0  0  0  0  0  0  0  0  0
  140.5610   72.9809  220.3053 H   0  0  0  0  0  0  0  0  0  0  0  0
  139.0770   73.9833  220.5835 H   0  0  0  0  0  0  0  0  0  0  0  0
  140.9204   78.1267  220.5427 H   0  0  0  0  0  0  0  0  0  0  0  0
  140.5717   77.0961  219.1871 H   0  0  0  0  0  0  0  0  0  0  0  0
  138.7364   78.8635  220.5158 H   0  0  0  0  0  0  0  0  0  0  0  0
  138.2647   77.6198  219.3355 H   0  0  0  0  0  0  0  0  0  0  0  0
  137.4249   77.6029  221.9745 H   0  0  0  0  0  0  0  0  0  0  0  0
  137.5466   76.1312  221.0695 H   0  0  0  0  0  0  0  0  0  0  0  0
  139.1854   75.9710  223.0821 H   0  0  0  0  0  0  0  0  0  0  0  0
  141.9990   76.9879  222.7225 H   0  0  0  0  0  0  0  0  0  0  0  0
  143.1477   79.0097  223.6050 H   0  0  0  0  0  0  0  0  0  0  0  0
  141.8385   81.0483  224.1455 H   0  0  0  0  0  0  0  0  0  0  0  0
  138.2613   79.0285  222.9231 H   0  0  0  0  0  0  0  0  0  0  0  0
  139.1877   69.4351  222.7664 H   0  0  0  0  0  0  0  0  0  0  0  0
  138.9560   68.1191  224.8316 H   0  0  0  0  0  0  0  0  0  0  0  0
  139.3178   67.8813  227.1896 H   0  0  0  0  0  0  0  0  0  0  0  0
  140.2148   68.8225  229.2981 H   0  0  0  0  0  0  0  0  0  0  0  0
  141.3205   71.0577  229.3018 H   0  0  0  0  0  0  0  0  0  0  0  0
  141.5331   72.3598  227.1841 H   0  0  0  0  0  0  0  0  0  0  0  0
  1  2  2  0
  2  3  1  0
  3  4  1  0
  4  5  1  0
  5  6  2  0
  5  7  1  0
  7  8  1  0
  8  9  1  0
  9 10  1  0
 10 11  1  0
 11 12  1  0
 12 13  2  0
 13 14  1  0
 14 15  2  0
 15 16  1  0
 16 17  1  0
 17 18  1  0
 18 19  1  0
 18 20  1  0
 18 21  1  0
 16 22  2  0
  2 23  1  0
 23 24  2  0
 24 25  1  0
 25 26  2  0
 26 27  1  0
 27 28  2  0
 28 29  1  0
 29 30  2  0
 30 31  1  0
 31 32  2  0
 11  7  1  0
 22 12  1  0
 32 23  1  0
 31 26  1  0
  3 33  1  0
  4 34  1  0
  4 35  1  0
  8 36  1  0
  8 37  1  0
  9 38  1  0
  9 39  1  0
 10 40  1  0
 10 41  1  0
 11 42  1  1
 13 43  1  0
 14 44  1  0
 15 45  1  0
 22 46  1  0
 24 47  1  0
 25 48  1  0
 27 49  1  0
 28 50  1  0
 29 51  1  0
 30 52  1  0
M  END
>  <smiles>  (16) 
O=C(NCC(=O)N1CCCC1c1cccc(OC(F)(F)F)c1)c1ccc2ccccc2n1

>  <score_type>  (16) 
oracle

>  <origin>  (16) 
autodockgpu

>  <m_score__min__energy>  (16) 
-8.5999999999999996

>  <m_primary>  (16) 
energy

>  <rmsd>  (16) 
2.408179776774055

>  <m_score__min__rmsd>  (16) 
2.408179776774055

>  <meeko>  (16) 
{"free_energy": -8.06, "intermolecular_energy": -10.15, "internal_energy": -1.31, "cluster_size": 23, "cluster_id": 2, "rank_in_cluster": 10}

>  <energy>  (16) 
-8.03

>  <cluster_rmsd>  (16) 
1.83

>  <cluster>  (16) 
2

$$$$

     RDKit          3D

 52 55  0  0  0  0  0  0  0  0999 V2000
  141.1470   71.5550  221.5040 O   0  0  0  0  0  0  0  0  0  0  0  0
  140.4920   71.9930  222.5030 C   0  0  0  0  0  0  0  0  0  0  0  0
  139.9870   73.3250  222.3590 N   0  0  0  0  0  0  0  0  0  0  0  0
  140.2830   73.9950  221.1090 C   0  0  0  0  0  0  0  0  0  0  0  0
  140.6240   75.4080  221.3210 C   0  0  0  0  0  0  0  0  0  0  0  0
  140.3400   76.0250  222.3910 O   0  0  0  0  0  0  0  0  0  0  0  0
  141.3000   76.0980  220.2760 N   0  0  0  0  0  0  0  0  0  0  0  0
  142.7520   76.2470  220.0850 C   0  0  0  0  0  0  0  0  0  0  0  0
  142.8670   76.0850  218.5800 C   0  0  0  0  0  0  0  0  0  0  0  0
  141.4600   76.0630  218.0300 C   0  0  0  0  0  0  0  0  0  0  0  0
  140.7260   76.8210  219.1420 C   0  0  2  0  0  0  0  0  0  0  0  0
  141.2330   78.2190  219.2680 C   0  0  0  0  0  0  0  0  0  0  0  0
  141.6730   78.8940  218.1430 C   0  0  0  0  0  0  0  0  0  0  0  0
  142.1530   80.2030  218.2270 C   0  0  0  0  0  0  0  0  0  0  0  0
  142.1950   80.8460  219.4490 C   0  0  0  0  0  0  0  0  0  0  0  0
  141.7610   80.1900  220.5840 C   0  0  0  0  0  0  0  0  0  0  0  0
  141.7830   80.7920  221.8320 O   0  0  0  0  0  0  0  0  0  0  0  0
  142.1590   80.0820  222.9950 C   0  0  0  0  0  0  0  0  0  0  0  0
  141.1380   79.2330  223.3880 F   0  0  0  0  0  0  0  0  0  0  0  0
  143.3280   79.3810  222.7300 F   0  0  0  0  0  0  0  0  0  0  0  0
  142.3490   81.0260  224.0010 F   0  0  0  0  0  0  0  0  0  0  0  0
  141.2890   78.8890  220.4630 C   0  0  0  0  0  0  0  0  0  0  0  0
  140.2790   71.1970  223.6910 C   0  0  0  0  0  0  0  0  0  0  0  0
  139.5680   70.0320  223.5780 C   0  0  0  0  0  0  0  0  0  0  0  0
  139.3150   69.2100  224.6550 C   0  0  0  0  0  0  0  0  0  0  0  0
  139.7880   69.5550  225.8990 C   0  0  0  0  0  0  0  0  0  0  0  0
  139.5420   68.7450  226.9740 C   0  0  0  0  0  0  0  0  0  0  0  0
  140.0280   69.1210  228.1960 C   0  0  0  0  0  0  0  0  0  0  0  0
  140.7570   70.3080  228.3330 C   0  0  0  0  0  0  0  0  0  0  0  0
  140.9970   71.1200  227.2270 C   0  0  0  0  0  0  0  0  0  0  0  0
  140.5080   70.7430  225.9930 C   0  0  0  0  0  0  0  0  0  0  0  0
  140.7370   71.5260  224.9150 N   0  0  0  0  0  0  0  0  0  0  0  0
  139.4380   73.7600  223.1350 H   0  0  0  0  0  0  0  0  0  0  0  0
  141.1333   73.4910  220.6263 H   0  0  0  0  0  0  0  0  0  0  0  0
  139.3867   73.9488  220.4729 H   0  0  0  0  0  0  0  0  0  0  0  0
  143.1026   77.2370  220.4123 H   0  0  0  0  0  0  0  0  0  0  0  0
  143.3598   75.5364  220.6643 H   0  0  0  0  0  0  0  0  0  0  0  0
  143.4274   76.9287  218.1508 H   0  0  0  0  0  0  0  0  0  0  0  0
  143.4032   75.1592  218.3244 H   0  0  0  0  0  0  0  0  0  0  0  0
  141.3909   76.5866  217.0651 H   0  0  0  0  0  0  0  0  0  0  0  0
  141.0633   75.0601  217.8139 H   0  0  0  0  0  0  0  0  0  0  0  0
  139.6337   76.8681  219.0207 H   0  0  0  0  0  0  0  0  0  0  0  0
  141.6443   78.3908  217.1653 H   0  0  0  0  0  0  0  0  0  0  0  0
  142.4975   80.7218  217.3203 H   0  0  0  0  0  0  0  0  0  0  0  0
  142.5728   81.8768  219.5177 H   0  0  0  0  0  0  0  0  0  0  0  0
  140.9434   78.3712  221.3699 H   0  0  0  0  0  0  0  0  0  0  0  0
  139.1839   69.7410  222.5892 H   0  0  0  0  0  0  0  0  0  0  0  0
  138.7380   68.2833  224.5200 H   0  0  0  0  0  0  0  0  0  0  0  0
  138.9674   67.8142  226.8583 H   0  0  0  0  0  0  0  0  0  0  0  0
  139.8449   68.4870  229.0761 H   0  0  0  0  0  0  0  0  0  0  0  0
  141.1429   70.6015  229.3204 H   0  0  0  0  0  0  0  0  0  0  0  0
  141.5705   72.0523  227.3362 H   0  0  0  0  0  0  0  0  0  0  0  0
  1  2  2  0
  2  3  1  0
  3  4  1  0
  4  5  1  0
  5  6  2  0
  5  7  1  0
  7  8  1  0
  8  9  1  0
  9 10  1  0
 10 11  1  0
 11 12  1  0
 12 13  2  0
 13 14  1  0
 14 15  2  0
 15 16  1  0
 16 17  1  0
 17 18  1  0
 18 19  1  0
 18 20  1  0
 18 21  1  0
 16 22  2  0
  2 23  1  0
 23 24  2  0
 24 25  1  0
 25 26  2  0
 26 27  1  0
 27 28  2  0
 28 29  1  0
 29 30  2  0
 30 31  1  0
 31 32  2  0
 11  7  1  0
 22 12  1  0
 32 23  1  0
 31 26  1  0
  3 33  1  0
  4 34  1  0
  4 35  1  0
  8 36  1  0
  8 37  1  0
  9 38  1  0
  9 39  1  0
 10 40  1  0
 10 41  1  0
 11 42  1  6
 13 43  1  0
 14 44  1  0
 15 45  1  0
 22 46  1  0
 24 47  1  0
 25 48  1  0
 27 49  1  0
 28 50  1  0
 29 51  1  0
 30 52  1  0
M  END
>  <smiles>  (17) 
O=C(NCC(=O)N1CCCC1c1cccc(OC(F)(F)F)c1)c1ccc2ccccc2n1

>  <score_type>  (17) 
oracle

>  <origin>  (17) 
autodockgpu

>  <m_score__min__energy>  (17) 
-8.5999999999999996

>  <m_primary>  (17) 
energy

>  <rmsd>  (17) 
2.1412247712091945

>  <m_score__min__rmsd>  (17) 
2.1412247712091945

>  <meeko>  (17) 
{"free_energy": -7.93, "intermolecular_energy": -10.02, "internal_energy": -1.49, "cluster_size": 23, "cluster_id": 2, "rank_in_cluster": 15}

>  <energy>  (17) 
-8.0

>  <cluster_rmsd>  (17) 
1.88

>  <cluster>  (17) 
2

$$$$

     RDKit          3D

 52 55  0  0  0  0  0  0  0  0999 V2000
  141.5020   72.2990  221.9960 O   0  0  0  0  0  0  0  0  0  0  0  0
  140.4810   72.3130  222.7560 C   0  0  0  0  0  0  0  0  0  0  0  0
  139.5550   73.3750  222.5040 N   0  0  0  0  0  0  0  0  0  0  0  0
  139.8940   74.2850  221.4290 C   0  0  0  0  0  0  0  0  0  0  0  0
  139.0130   75.4610  221.4190 C   0  0  0  0  0  0  0  0  0  0  0  0
  137.7820   75.3930  221.7130 O   0  0  0  0  0  0  0  0  0  0  0  0
  139.5780   76.7180  221.0640 N   0  0  0  0  0  0  0  0  0  0  0  0
  140.8200   76.9690  220.3140 C   0  0  0  0  0  0  0  0  0  0  0  0
  140.4010   78.1340  219.4360 C   0  0  0  0  0  0  0  0  0  0  0  0
  139.0340   78.5720  219.9070 C   0  0  0  0  0  0  0  0  0  0  0  0
  139.0710   78.0590  221.3510 C   0  0  2  0  0  0  0  0  0  0  0  0
  140.1490   78.7300  222.1350 C   0  0  0  0  0  0  0  0  0  0  0  0
  140.8570   78.0130  223.0830 C   0  0  0  0  0  0  0  0  0  0  0  0
  141.8720   78.6120  223.8340 C   0  0  0  0  0  0  0  0  0  0  0  0
  142.1840   79.9430  223.6340 C   0  0  0  0  0  0  0  0  0  0  0  0
  141.4900   80.6770  222.6920 C   0  0  0  0  0  0  0  0  0  0  0  0
  141.7660   82.0130  222.4550 O   0  0  0  0  0  0  0  0  0  0  0  0
  141.0530   82.7620  221.4910 C   0  0  0  0  0  0  0  0  0  0  0  0
  139.6900   82.6190  221.6870 F   0  0  0  0  0  0  0  0  0  0  0  0
  141.4420   84.0910  221.5830 F   0  0  0  0  0  0  0  0  0  0  0  0
  141.3710   82.2250  220.2450 F   0  0  0  0  0  0  0  0  0  0  0  0
  140.4880   80.0480  221.9640 C   0  0  0  0  0  0  0  0  0  0  0  0
  140.2820   71.3270  223.7930 C   0  0  0  0  0  0  0  0  0  0  0  0
  139.6000   70.1810  223.4830 C   0  0  0  0  0  0  0  0  0  0  0  0
  139.3620   69.1860  224.4060 C   0  0  0  0  0  0  0  0  0  0  0  0
  139.8200   69.3300  225.6940 C   0  0  0  0  0  0  0  0  0  0  0  0
  139.5880   68.3480  226.6180 C   0  0  0  0  0  0  0  0  0  0  0  0
  140.0580   68.5270  227.8900 C   0  0  0  0  0  0  0  0  0  0  0  0
  140.7570   69.6920  228.2280 C   0  0  0  0  0  0  0  0  0  0  0  0
  140.9820   70.6810  227.2740 C   0  0  0  0  0  0  0  0  0  0  0  0
  140.5100   70.5030  225.9900 C   0  0  0  0  0  0  0  0  0  0  0  0
  140.7250   71.4590  225.0590 N   0  0  0  0  0  0  0  0  0  0  0  0
  138.6890   73.4580  223.0840 H   0  0  0  0  0  0  0  0  0  0  0  0
  140.9341   74.6190  221.5584 H   0  0  0  0  0  0  0  0  0  0  0  0
  139.7687   73.7526  220.4746 H   0  0  0  0  0  0  0  0  0  0  0  0
  141.6471   77.2459  220.9842 H   0  0  0  0  0  0  0  0  0  0  0  0
  141.1975   76.0973  219.7593 H   0  0  0  0  0  0  0  0  0  0  0  0
  141.1188   78.9613  219.5379 H   0  0  0  0  0  0  0  0  0  0  0  0
  140.3754   77.8383  218.3768 H   0  0  0  0  0  0  0  0  0  0  0  0
  138.9190   79.6652  219.8653 H   0  0  0  0  0  0  0  0  0  0  0  0
  138.1944   78.1960  219.3038 H   0  0  0  0  0  0  0  0  0  0  0  0
  138.1278   78.1789  221.9042 H   0  0  0  0  0  0  0  0  0  0  0  0
  140.6167   76.9524  223.2486 H   0  0  0  0  0  0  0  0  0  0  0  0
  142.4220   78.0243  224.5837 H   0  0  0  0  0  0  0  0  0  0  0  0
  142.9829   80.4168  224.2233 H   0  0  0  0  0  0  0  0  0  0  0  0
  139.9394   80.6359  221.2134 H   0  0  0  0  0  0  0  0  0  0  0  0
  139.2273   70.0494  222.4565 H   0  0  0  0  0  0  0  0  0  0  0  0
  138.8085   68.2814  224.1137 H   0  0  0  0  0  0  0  0  0  0  0  0
  139.0367   67.4363  226.3445 H   0  0  0  0  0  0  0  0  0  0  0  0
  139.8859   67.7518  228.6512 H   0  0  0  0  0  0  0  0  0  0  0  0
  141.1308   69.8269  229.2537 H   0  0  0  0  0  0  0  0  0  0  0  0
  141.5310   71.5958  227.5417 H   0  0  0  0  0  0  0  0  0  0  0  0
  1  2  2  0
  2  3  1  0
  3  4  1  0
  4  5  1  0
  5  6  2  0
  5  7  1  0
  7  8  1  0
  8  9  1  0
  9 10  1  0
 10 11  1  0
 11 12  1  0
 12 13  2  0
 13 14  1  0
 14 15  2  0
 15 16  1  0
 16 17  1  0
 17 18  1  0
 18 19  1  0
 18 20  1  0
 18 21  1  0
 16 22  2  0
  2 23  1  0
 23 24  2  0
 24 25  1  0
 25 26  2  0
 26 27  1  0
 27 28  2  0
 28 29  1  0
 29 30  2  0
 30 31  1  0
 31 32  2  0
 11  7  1  0
 22 12  1  0
 32 23  1  0
 31 26  1  0
  3 33  1  0
  4 34  1  0
  4 35  1  0
  8 36  1  0
  8 37  1  0
  9 38  1  0
  9 39  1  0
 10 40  1  0
 10 41  1  0
 11 42  1  1
 13 43  1  0
 14 44  1  0
 15 45  1  0
 22 46  1  0
 24 47  1  0
 25 48  1  0
 27 49  1  0
 28 50  1  0
 29 51  1  0
 30 52  1  0
M  END
>  <smiles>  (18) 
O=C(NCC(=O)N1CCCC1c1cccc(OC(F)(F)F)c1)c1ccc2ccccc2n1

>  <score_type>  (18) 
oracle

>  <origin>  (18) 
autodockgpu

>  <m_score__min__energy>  (18) 
-8.5999999999999996

>  <m_primary>  (18) 
energy

>  <rmsd>  (18) 
2.2958573089717595

>  <m_score__min__rmsd>  (18) 
2.2958573089717595

>  <meeko>  (18) 
{"free_energy": -7.87, "intermolecular_energy": -9.96, "internal_energy": -1.38, "cluster_size": 23, "cluster_id": 2, "rank_in_cluster": 18}

>  <energy>  (18) 
-7.98

>  <cluster_rmsd>  (18) 
1.85

>  <cluster>  (18) 
2

$$$$

     RDKit          3D

 52 55  0  0  0  0  0  0  0  0999 V2000
  140.7770   71.5880  221.6650 O   0  0  0  0  0  0  0  0  0  0  0  0
  139.9420   71.7420  222.6130 C   0  0  0  0  0  0  0  0  0  0  0  0
  138.9840   72.7870  222.4110 N   0  0  0  0  0  0  0  0  0  0  0  0
  139.0870   73.5250  221.1690 C   0  0  0  0  0  0  0  0  0  0  0  0
  140.2800   74.3810  221.1470 C   0  0  0  0  0  0  0  0  0  0  0  0
  140.5300   75.2260  222.0580 O   0  0  0  0  0  0  0  0  0  0  0  0
  141.1820   74.2440  220.0550 N   0  0  0  0  0  0  0  0  0  0  0  0
  141.2080   73.1840  219.0340 C   0  0  0  0  0  0  0  0  0  0  0  0
  141.5260   73.9880  217.7860 C   0  0  0  0  0  0  0  0  0  0  0  0
  141.8530   75.3920  218.2370 C   0  0  0  0  0  0  0  0  0  0  0  0
  142.2960   75.1140  219.6780 C   0  0  2  0  0  0  0  0  0  0  0  0
  143.5070   74.2420  219.7120 C   0  0  0  0  0  0  0  0  0  0  0  0
  143.7830   73.4930  220.8420 C   0  0  0  0  0  0  0  0  0  0  0  0
  144.9080   72.6670  220.9050 C   0  0  0  0  0  0  0  0  0  0  0  0
  145.7680   72.5890  219.8270 C   0  0  0  0  0  0  0  0  0  0  0  0
  145.5110   73.3280  218.6890 C   0  0  0  0  0  0  0  0  0  0  0  0
  146.3430   73.2840  217.5820 O   0  0  0  0  0  0  0  0  0  0  0  0
  145.8440   73.4360  216.2690 C   0  0  0  0  0  0  0  0  0  0  0  0
  146.7970   73.0370  215.3460 F   0  0  0  0  0  0  0  0  0  0  0  0
  144.6780   72.6940  216.1460 F   0  0  0  0  0  0  0  0  0  0  0  0
  145.6030   74.7960  216.0820 F   0  0  0  0  0  0  0  0  0  0  0  0
  144.3830   74.1380  218.6610 C   0  0  0  0  0  0  0  0  0  0  0  0
  139.9660   70.9180  223.8000 C   0  0  0  0  0  0  0  0  0  0  0  0
  139.3980   69.6730  223.7440 C   0  0  0  0  0  0  0  0  0  0  0  0
  139.3750   68.8190  224.8250 C   0  0  0  0  0  0  0  0  0  0  0  0
  139.9400   69.2130  226.0150 C   0  0  0  0  0  0  0  0  0  0  0  0
  139.9210   68.3720  227.0940 C   0  0  0  0  0  0  0  0  0  0  0  0
  140.4920   68.7980  228.2610 C   0  0  0  0  0  0  0  0  0  0  0  0
  141.0780   70.0670  228.3400 C   0  0  0  0  0  0  0  0  0  0  0  0
  141.0870   70.9090  227.2310 C   0  0  0  0  0  0  0  0  0  0  0  0
  140.5120   70.4820  226.0520 C   0  0  0  0  0  0  0  0  0  0  0  0
  140.5160   71.2940  224.9710 N   0  0  0  0  0  0  0  0  0  0  0  0
  138.2620   72.9780  223.1430 H   0  0  0  0  0  0  0  0  0  0  0  0
  139.1438   72.8118  220.3335 H   0  0  0  0  0  0  0  0  0  0  0  0
  138.1997   74.1685  221.0762 H   0  0  0  0  0  0  0  0  0  0  0  0
  141.9901   72.4398  219.2448 H   0  0  0  0  0  0  0  0  0  0  0  0
  140.2809   72.5955  218.9691 H   0  0  0  0  0  0  0  0  0  0  0  0
  142.3883   73.5487  217.2631 H   0  0  0  0  0  0  0  0  0  0  0  0
  140.6736   73.9874  217.0907 H   0  0  0  0  0  0  0  0  0  0  0  0
  142.6635   75.8342  217.6391 H   0  0  0  0  0  0  0  0  0  0  0  0
  141.0289   76.1138  218.1373 H   0  0  0  0  0  0  0  0  0  0  0  0
  142.5118   76.0138  220.2729 H   0  0  0  0  0  0  0  0  0  0  0  0
  143.1047   73.5488  221.7061 H   0  0  0  0  0  0  0  0  0  0  0  0
  145.1088   72.0790  221.8127 H   0  0  0  0  0  0  0  0  0  0  0  0
  146.6550   71.9402  219.8748 H   0  0  0  0  0  0  0  0  0  0  0  0
  144.1822   74.7245  217.7523 H   0  0  0  0  0  0  0  0  0  0  0  0
  138.9424   69.3419  222.7991 H   0  0  0  0  0  0  0  0  0  0  0  0
  138.9072   67.8274  224.7365 H   0  0  0  0  0  0  0  0  0  0  0  0
  139.4574   67.3769  227.0243 H   0  0  0  0  0  0  0  0  0  0  0  0
  140.4910   68.1401  229.1426 H   0  0  0  0  0  0  0  0  0  0  0  0
  141.5340   70.4009  229.2837 H   0  0  0  0  0  0  0  0  0  0  0  0
  141.5484   71.9055  227.2945 H   0  0  0  0  0  0  0  0  0  0  0  0
  1  2  2  0
  2  3  1  0
  3  4  1  0
  4  5  1  0
  5  6  2  0
  5  7  1  0
  7  8  1  0
  8  9  1  0
  9 10  1  0
 10 11  1  0
 11 12  1  0
 12 13  2  0
 13 14  1  0
 14 15  2  0
 15 16  1  0
 16 17  1  0
 17 18  1  0
 18 19  1  0
 18 20  1  0
 18 21  1  0
 16 22  2  0
  2 23  1  0
 23 24  2  0
 24 25  1  0
 25 26  2  0
 26 27  1  0
 27 28  2  0
 28 29  1  0
 29 30  2  0
 30 31  1  0
 31 32  2  0
 11  7  1  0
 22 12  1  0
 32 23  1  0
 31 26  1  0
  3 33  1  0
  4 34  1  0
  4 35  1  0
  8 36  1  0
  8 37  1  0
  9 38  1  0
  9 39  1  0
 10 40  1  0
 10 41  1  0
 11 42  1  1
 13 43  1  0
 14 44  1  0
 15 45  1  0
 22 46  1  0
 24 47  1  0
 25 48  1  0
 27 49  1  0
 28 50  1  0
 29 51  1  0
 30 52  1  0
M  END
>  <smiles>  (19) 
O=C(NCC(=O)N1CCCC1c1cccc(OC(F)(F)F)c1)c1ccc2ccccc2n1

>  <score_type>  (19) 
oracle

>  <origin>  (19) 
autodockgpu

>  <m_score__min__energy>  (19) 
-8.5999999999999996

>  <m_primary>  (19) 
energy

>  <rmsd>  (19) 
1.747468517216327

>  <m_score__min__rmsd>  (19) 
1.747468517216327

>  <meeko>  (19) 
{"free_energy": -7.8, "intermolecular_energy": -9.89, "internal_energy": -1.54, "cluster_size": 5, "cluster_id": 5, "rank_in_cluster": 2}

>  <energy>  (19) 
-7.95

>  <cluster_rmsd>  (19) 
1.88

>  <cluster>  (19) 
2

$$$$

     RDKit          3D

 52 55  0  0  0  0  0  0  0  0999 V2000
  141.4520   71.6550  221.9720 O   0  0  0  0  0  0  0  0  0  0  0  0
  140.5520   71.9010  222.8390 C   0  0  0  0  0  0  0  0  0  0  0  0
  139.5980   72.8980  222.4540 N   0  0  0  0  0  0  0  0  0  0  0  0
  139.7770   73.4900  221.1450 C   0  0  0  0  0  0  0  0  0  0  0  0
  140.5330   74.7480  221.2190 C   0  0  0  0  0  0  0  0  0  0  0  0
  141.7990   74.7860  221.1740 O   0  0  0  0  0  0  0  0  0  0  0  0
  139.8010   75.9620  221.3460 N   0  0  0  0  0  0  0  0  0  0  0  0
  139.5260   76.9630  220.3040 C   0  0  0  0  0  0  0  0  0  0  0  0
  138.0880   77.3310  220.6230 C   0  0  0  0  0  0  0  0  0  0  0  0
  137.7440   76.6640  221.9340 C   0  0  0  0  0  0  0  0  0  0  0  0
  139.1460   76.5100  222.5330 C   0  0  2  0  0  0  0  0  0  0  0  0
  139.7850   77.8400  222.7590 C   0  0  0  0  0  0  0  0  0  0  0  0
  141.1640   77.9540  222.7230 C   0  0  0  0  0  0  0  0  0  0  0  0
  141.7930   79.1840  222.9300 C   0  0  0  0  0  0  0  0  0  0  0  0
  141.0360   80.3130  223.1760 C   0  0  0  0  0  0  0  0  0  0  0  0
  139.6590   80.2210  223.2170 C   0  0  0  0  0  0  0  0  0  0  0  0
  138.8570   81.3240  223.4600 O   0  0  0  0  0  0  0  0  0  0  0  0
  137.6610   81.2260  224.2070 C   0  0  0  0  0  0  0  0  0  0  0  0
  137.2270   82.4870  224.5800 F   0  0  0  0  0  0  0  0  0  0  0  0
  136.7100   80.5700  223.4390 F   0  0  0  0  0  0  0  0  0  0  0  0
  137.9630   80.5110  225.3630 F   0  0  0  0  0  0  0  0  0  0  0  0
  139.0680   78.9820  223.0060 C   0  0  0  0  0  0  0  0  0  0  0  0
  140.5060   71.2200  224.1120 C   0  0  0  0  0  0  0  0  0  0  0  0
  140.9350   71.8890  225.2280 C   0  0  0  0  0  0  0  0  0  0  0  0
  140.9270   71.3190  226.4820 C   0  0  0  0  0  0  0  0  0  0  0  0
  140.4740   70.0310  226.6420 C   0  0  0  0  0  0  0  0  0  0  0  0
  140.4620   69.4580  227.8840 C   0  0  0  0  0  0  0  0  0  0  0  0
  140.0050   68.1750  228.0040 C   0  0  0  0  0  0  0  0  0  0  0  0
  139.5620   67.4730  226.8770 C   0  0  0  0  0  0  0  0  0  0  0  0
  139.5810   68.0740  225.6200 C   0  0  0  0  0  0  0  0  0  0  0  0
  140.0420   69.3680  225.4960 C   0  0  0  0  0  0  0  0  0  0  0  0
  140.0640   69.9580  224.2790 N   0  0  0  0  0  0  0  0  0  0  0  0
  138.8270   73.1580  223.1090 H   0  0  0  0  0  0  0  0  0  0  0  0
  140.3238   72.7821  220.5048 H   0  0  0  0  0  0  0  0  0  0  0  0
  138.7831   73.7099  220.7280 H   0  0  0  0  0  0  0  0  0  0  0  0
  140.1941   77.8322  220.3933 H   0  0  0  0  0  0  0  0  0  0  0  0
  139.6829   76.6014  219.2771 H   0  0  0  0  0  0  0  0  0  0  0  0
  137.9889   78.4225  220.7166 H   0  0  0  0  0  0  0  0  0  0  0  0
  137.4102   76.9989  219.8229 H   0  0  0  0  0  0  0  0  0  0  0  0
  137.1011   77.3009  222.5593 H   0  0  0  0  0  0  0  0  0  0  0  0
  137.1755   75.7269  221.8408 H   0  0  0  0  0  0  0  0  0  0  0  0
  139.1811   75.9537  223.4813 H   0  0  0  0  0  0  0  0  0  0  0  0
  141.7752   77.0605  222.5280 H   0  0  0  0  0  0  0  0  0  0  0  0
  142.8903   79.2535  222.8971 H   0  0  0  0  0  0  0  0  0  0  0  0
  141.5290   81.2828  223.3388 H   0  0  0  0  0  0  0  0  0  0  0  0
  137.9706   78.9137  223.0387 H   0  0  0  0  0  0  0  0  0  0  0  0
  141.2998   72.9209  225.1184 H   0  0  0  0  0  0  0  0  0  0  0  0
  141.2815   71.8919  227.3515 H   0  0  0  0  0  0  0  0  0  0  0  0
  140.8116   70.0160  228.7651 H   0  0  0  0  0  0  0  0  0  0  0  0
  139.9854   67.6917  228.9919 H   0  0  0  0  0  0  0  0  0  0  0  0
  139.1968   66.4410  226.9842 H   0  0  0  0  0  0  0  0  0  0  0  0
  139.2317   67.5218  224.7351 H   0  0  0  0  0  0  0  0  0  0  0  0
  1  2  2  0
  2  3  1  0
  3  4  1  0
  4  5  1  0
  5  6  2  0
  5  7  1  0
  7  8  1  0
  8  9  1  0
  9 10  1  0
 10 11  1  0
 11 12  1  0
 12 13  2  0
 13 14  1  0
 14 15  2  0
 15 16  1  0
 16 17  1  0
 17 18  1  0
 18 19  1  0
 18 20  1  0
 18 21  1  0
 16 22  2  0
  2 23  1  0
 23 24  2  0
 24 25  1  0
 25 26  2  0
 26 27  1  0
 27 28  2  0
 28 29  1  0
 29 30  2  0
 30 31  1  0
 31 32  2  0
 11  7  1  0
 22 12  1  0
 32 23  1  0
 31 26  1  0
  3 33  1  0
  4 34  1  0
  4 35  1  0
  8 36  1  0
  8 37  1  0
  9 38  1  0
  9 39  1  0
 10 40  1  0
 10 41  1  0
 11 42  1  1
 13 43  1  0
 14 44  1  0
 15 45  1  0
 22 46  1  0
 24 47  1  0
 25 48  1  0
 27 49  1  0
 28 50  1  0
 29 51  1  0
 30 52  1  0
M  END
>  <smiles>  (20) 
O=C(NCC(=O)N1CCCC1c1cccc(OC(F)(F)F)c1)c1ccc2ccccc2n1

>  <score_type>  (20) 
oracle

>  <origin>  (20) 
autodockgpu

>  <m_score__min__energy>  (20) 
-8.5999999999999996

>  <m_primary>  (20) 
energy

>  <rmsd>  (20) 
3.400692519838951

>  <m_score__min__rmsd>  (20) 
3.400692519838951

>  <meeko>  (20) 
{"free_energy": -8.05, "intermolecular_energy": -10.14, "internal_energy": -1.31, "cluster_size": 2, "cluster_id": 4, "rank_in_cluster": 1}

>  <energy>  (20) 
-7.93

>  <cluster_rmsd>  (20) 
1.9

>  <cluster>  (20) 
2

$$$$

     RDKit          3D

 52 55  0  0  0  0  0  0  0  0999 V2000
  138.6490   71.9510  221.9890 O   0  0  0  0  0  0  0  0  0  0  0  0
  139.7180   71.8450  222.6720 C   0  0  0  0  0  0  0  0  0  0  0  0
  140.8270   72.6060  222.1830 N   0  0  0  0  0  0  0  0  0  0  0  0
  140.5940   73.3900  220.9880 C   0  0  0  0  0  0  0  0  0  0  0  0
  140.5450   74.8280  221.2860 C   0  0  0  0  0  0  0  0  0  0  0  0
  139.9860   75.2900  222.3250 O   0  0  0  0  0  0  0  0  0  0  0  0
  141.1550   75.7230  220.3630 N   0  0  0  0  0  0  0  0  0  0  0  0
  142.5880   75.8770  220.0660 C   0  0  0  0  0  0  0  0  0  0  0  0
  142.5570   76.0650  218.5600 C   0  0  0  0  0  0  0  0  0  0  0  0
  141.1060   76.2070  218.1640 C   0  0  0  0  0  0  0  0  0  0  0  0
  140.5140   76.7040  219.4870 C   0  0  2  0  0  0  0  0  0  0  0  0
  141.0960   78.0220  219.8770 C   0  0  0  0  0  0  0  0  0  0  0  0
  141.4200   78.9460  218.9000 C   0  0  0  0  0  0  0  0  0  0  0  0
  141.9670   80.1880  219.2320 C   0  0  0  0  0  0  0  0  0  0  0  0
  142.1920   80.5110  220.5560 C   0  0  0  0  0  0  0  0  0  0  0  0
  141.8770   79.6030  221.5480 C   0  0  0  0  0  0  0  0  0  0  0  0
  142.0850   79.8790  222.8890 O   0  0  0  0  0  0  0  0  0  0  0  0
  141.3440   80.8730  223.5680 C   0  0  0  0  0  0  0  0  0  0  0  0
  140.2290   80.3110  224.1690 F   0  0  0  0  0  0  0  0  0  0  0  0
  142.1690   81.4840  224.5020 F   0  0  0  0  0  0  0  0  0  0  0  0
  140.9070   81.7810  222.6060 F   0  0  0  0  0  0  0  0  0  0  0  0
  141.3340   78.3780  221.1800 C   0  0  0  0  0  0  0  0  0  0  0  0
  139.7940   71.0150  223.8540 C   0  0  0  0  0  0  0  0  0  0  0  0
  139.2310   69.7680  223.8140 C   0  0  0  0  0  0  0  0  0  0  0  0
  139.2560   68.9090  224.8910 C   0  0  0  0  0  0  0  0  0  0  0  0
  139.8660   69.3000  226.0600 C   0  0  0  0  0  0  0  0  0  0  0  0
  139.8950   68.4540  227.1350 C   0  0  0  0  0  0  0  0  0  0  0  0
  140.5100   68.8780  228.2800 C   0  0  0  0  0  0  0  0  0  0  0  0
  141.0910   70.1500  228.3410 C   0  0  0  0  0  0  0  0  0  0  0  0
  141.0510   70.9980  227.2370 C   0  0  0  0  0  0  0  0  0  0  0  0
  140.4320   70.5730  226.0800 C   0  0  0  0  0  0  0  0  0  0  0  0
  140.3880   71.3900  225.0040 N   0  0  0  0  0  0  0  0  0  0  0  0
  141.7420   72.5740  222.6880 H   0  0  0  0  0  0  0  0  0  0  0  0
  141.4080   73.2011  220.2727 H   0  0  0  0  0  0  0  0  0  0  0  0
  139.6230   73.0928  220.5652 H   0  0  0  0  0  0  0  0  0  0  0  0
  143.0129   76.7556  220.5735 H   0  0  0  0  0  0  0  0  0  0  0  0
  143.2125   75.0368  220.4039 H   0  0  0  0  0  0  0  0  0  0  0  0
  143.1155   76.9705  218.2805 H   0  0  0  0  0  0  0  0  0  0  0  0
  143.0227   75.2104  218.0474 H   0  0  0  0  0  0  0  0  0  0  0  0
  140.9737   76.9420  217.3564 H   0  0  0  0  0  0  0  0  0  0  0  0
  140.6438   75.2919  217.7654 H   0  0  0  0  0  0  0  0  0  0  0  0
  139.4186   76.8049  219.4901 H   0  0  0  0  0  0  0  0  0  0  0  0
  141.2439   78.6985  217.8428 H   0  0  0  0  0  0  0  0  0  0  0  0
  142.2183   80.9082  218.4395 H   0  0  0  0  0  0  0  0  0  0  0  0
  142.6210   81.4890  220.8197 H   0  0  0  0  0  0  0  0  0  0  0  0
  141.0826   77.6582  221.9729 H   0  0  0  0  0  0  0  0  0  0  0  0
  138.7397   69.4390  222.8864 H   0  0  0  0  0  0  0  0  0  0  0  0
  138.7903   67.9152  224.8162 H   0  0  0  0  0  0  0  0  0  0  0  0
  139.4345   67.4566  227.0793 H   0  0  0  0  0  0  0  0  0  0  0  0
  140.5484   68.2162  229.1578 H   0  0  0  0  0  0  0  0  0  0  0  0
  141.5826   70.4821  229.2673 H   0  0  0  0  0  0  0  0  0  0  0  0
  141.5086   71.9970  227.2872 H   0  0  0  0  0  0  0  0  0  0  0  0
  1  2  2  0
  2  3  1  0
  3  4  1  0
  4  5  1  0
  5  6  2  0
  5  7  1  0
  7  8  1  0
  8  9  1  0
  9 10  1  0
 10 11  1  0
 11 12  1  0
 12 13  2  0
 13 14  1  0
 14 15  2  0
 15 16  1  0
 16 17  1  0
 17 18  1  0
 18 19  1  0
 18 20  1  0
 18 21  1  0
 16 22  2  0
  2 23  1  0
 23 24  2  0
 24 25  1  0
 25 26  2  0
 26 27  1  0
 27 28  2  0
 28 29  1  0
 29 30  2  0
 30 31  1  0
 31 32  2  0
 11  7  1  0
 22 12  1  0
 32 23  1  0
 31 26  1  0
  3 33  1  0
  4 34  1  0
  4 35  1  0
  8 36  1  0
  8 37  1  0
  9 38  1  0
  9 39  1  0
 10 40  1  0
 10 41  1  0
 11 42  1  6
 13 43  1  0
 14 44  1  0
 15 45  1  0
 22 46  1  0
 24 47  1  0
 25 48  1  0
 27 49  1  0
 28 50  1  0
 29 51  1  0
 30 52  1  0
M  END
>  <smiles>  (21) 
O=C(NCC(=O)N1CCCC1c1cccc(OC(F)(F)F)c1)c1ccc2ccccc2n1

>  <score_type>  (21) 
oracle

>  <origin>  (21) 
autodockgpu

>  <m_score__min__energy>  (21) 
-8.5999999999999996

>  <m_primary>  (21) 
energy

>  <rmsd>  (21) 
2.0739876791655925

>  <m_score__min__rmsd>  (21) 
2.0739876791655925

>  <meeko>  (21) 
{"free_energy": -7.49, "intermolecular_energy": -9.57, "internal_energy": -1.18, "cluster_size": 23, "cluster_id": 2, "rank_in_cluster": 22}

>  <energy>  (21) 
-7.92

>  <cluster_rmsd>  (21) 
1.91

>  <cluster>  (21) 
2

$$$$

     RDKit          3D

 52 55  0  0  0  0  0  0  0  0999 V2000
  140.9300   71.8930  221.3850 O   0  0  0  0  0  0  0  0  0  0  0  0
  140.3050   72.3130  222.4100 C   0  0  0  0  0  0  0  0  0  0  0  0
  139.7390   73.6210  222.2800 N   0  0  0  0  0  0  0  0  0  0  0  0
  139.9480   74.2910  221.0130 C   0  0  0  0  0  0  0  0  0  0  0  0
  141.2130   75.0370  220.9990 C   0  0  0  0  0  0  0  0  0  0  0  0
  142.3350   74.4810  221.1960 O   0  0  0  0  0  0  0  0  0  0  0  0
  141.1620   76.4380  220.7520 N   0  0  0  0  0  0  0  0  0  0  0  0
  142.1380   77.2620  220.0210 C   0  0  0  0  0  0  0  0  0  0  0  0
  141.2180   78.1910  219.2500 C   0  0  0  0  0  0  0  0  0  0  0  0
  139.8190   77.9510  219.7640 C   0  0  0  0  0  0  0  0  0  0  0  0
  140.1350   77.3970  221.1570 C   0  0  2  0  0  0  0  0  0  0  0  0
  140.8480   78.4090  221.9910 C   0  0  0  0  0  0  0  0  0  0  0  0
  141.4720   78.0180  223.1620 C   0  0  0  0  0  0  0  0  0  0  0  0
  142.1470   78.9410  223.9650 C   0  0  0  0  0  0  0  0  0  0  0  0
  142.1990   80.2700  223.5940 C   0  0  0  0  0  0  0  0  0  0  0  0
  141.5820   80.6830  222.4290 C   0  0  0  0  0  0  0  0  0  0  0  0
  141.6070   82.0040  222.0140 O   0  0  0  0  0  0  0  0  0  0  0  0
  140.5810   82.5520  221.2110 C   0  0  0  0  0  0  0  0  0  0  0  0
  139.3410   82.1580  221.6850 F   0  0  0  0  0  0  0  0  0  0  0  0
  140.7070   83.9340  221.2090 F   0  0  0  0  0  0  0  0  0  0  0  0
  140.7430   82.0250  219.9310 F   0  0  0  0  0  0  0  0  0  0  0  0
  140.9210   79.7370  221.6550 C   0  0  0  0  0  0  0  0  0  0  0  0
  140.1810   71.5190  223.6120 C   0  0  0  0  0  0  0  0  0  0  0  0
  139.5280   70.3180  223.5380 C   0  0  0  0  0  0  0  0  0  0  0  0
  139.3620   69.4950  224.6310 C   0  0  0  0  0  0  0  0  0  0  0  0
  139.8640   69.8780  225.8520 C   0  0  0  0  0  0  0  0  0  0  0  0
  139.7030   69.0680  226.9430 C   0  0  0  0  0  0  0  0  0  0  0  0
  140.2150   69.4810  228.1420 C   0  0  0  0  0  0  0  0  0  0  0  0
  140.8860   70.7060  228.2390 C   0  0  0  0  0  0  0  0  0  0  0  0
  141.0390   71.5180  227.1180 C   0  0  0  0  0  0  0  0  0  0  0  0
  140.5230   71.1030  225.9070 C   0  0  0  0  0  0  0  0  0  0  0  0
  140.6680   71.8850  224.8140 N   0  0  0  0  0  0  0  0  0  0  0  0
  139.2090   74.0390  223.0780 H   0  0  0  0  0  0  0  0  0  0  0  0
  139.9679   73.5390  220.2104 H   0  0  0  0  0  0  0  0  0  0  0  0
  139.1253   75.0052  220.8613 H   0  0  0  0  0  0  0  0  0  0  0  0
  142.7905   77.8199  220.7088 H   0  0  0  0  0  0  0  0  0  0  0  0
  142.8325   76.6875  219.3903 H   0  0  0  0  0  0  0  0  0  0  0  0
  141.5089   79.2381  219.4204 H   0  0  0  0  0  0  0  0  0  0  0  0
  141.2785   77.9962  218.1691 H   0  0  0  0  0  0  0  0  0  0  0  0
  139.2390   78.8841  219.8183 H   0  0  0  0  0  0  0  0  0  0  0  0
  139.2019   77.2932  219.1343 H   0  0  0  0  0  0  0  0  0  0  0  0
  139.2573   77.0511  221.7226 H   0  0  0  0  0  0  0  0  0  0  0  0
  141.4362   76.9616  223.4665 H   0  0  0  0  0  0  0  0  0  0  0  0
  142.6368   78.6090  224.8923 H   0  0  0  0  0  0  0  0  0  0  0  0
  142.7304   80.9981  224.2245 H   0  0  0  0  0  0  0  0  0  0  0  0
  140.4323   80.0694  220.7273 H   0  0  0  0  0  0  0  0  0  0  0  0
  139.1198   69.9973  222.5682 H   0  0  0  0  0  0  0  0  0  0  0  0
  138.8309   68.5373  224.5269 H   0  0  0  0  0  0  0  0  0  0  0  0
  139.1742   68.1072  226.8577 H   0  0  0  0  0  0  0  0  0  0  0  0
  140.0991   68.8480  229.0341 H   0  0  0  0  0  0  0  0  0  0  0  0
  141.2952   71.0293  229.2075 H   0  0  0  0  0  0  0  0  0  0  0  0
  141.5658   72.4804  227.1969 H   0  0  0  0  0  0  0  0  0  0  0  0
  1  2  2  0
  2  3  1  0
  3  4  1  0
  4  5  1  0
  5  6  2  0
  5  7  1  0
  7  8  1  0
  8  9  1  0
  9 10  1  0
 10 11  1  0
 11 12  1  0
 12 13  2  0
 13 14  1  0
 14 15  2  0
 15 16  1  0
 16 17  1  0
 17 18  1  0
 18 19  1  0
 18 20  1  0
 18 21  1  0
 16 22  2  0
  2 23  1  0
 23 24  2  0
 24 25  1  0
 25 26  2  0
 26 27  1  0
 27 28  2  0
 28 29  1  0
 29 30  2  0
 30 31  1  0
 31 32  2  0
 11  7  1  0
 22 12  1  0
 32 23  1  0
 31 26  1  0
  3 33  1  0
  4 34  1  0
  4 35  1  0
  8 36  1  0
  8 37  1  0
  9 38  1  0
  9 39  1  0
 10 40  1  0
 10 41  1  0
 11 42  1  1
 13 43  1  0
 14 44  1  0
 15 45  1  0
 22 46  1  0
 24 47  1  0
 25 48  1  0
 27 49  1  0
 28 50  1  0
 29 51  1  0
 30 52  1  0
M  END
>  <smiles>  (22) 
O=C(NCC(=O)N1CCCC1c1cccc(OC(F)(F)F)c1)c1ccc2ccccc2n1

>  <score_type>  (22) 
oracle

>  <origin>  (22) 
autodockgpu

>  <m_score__min__energy>  (22) 
-8.5999999999999996

>  <m_primary>  (22) 
energy

>  <rmsd>  (22) 
2.1969648077655526

>  <m_score__min__rmsd>  (22) 
2.1969648077655526

>  <meeko>  (22) 
{"free_energy": -8.47, "intermolecular_energy": -10.56, "internal_energy": -1.16, "cluster_size": 23, "cluster_id": 2, "rank_in_cluster": 2}

>  <energy>  (22) 
-7.87

>  <cluster_rmsd>  (22) 
1.36

>  <cluster>  (22) 
2

$$$$

     RDKit          3D

 52 55  0  0  0  0  0  0  0  0999 V2000
  140.7860   71.5780  221.3970 O   0  0  0  0  0  0  0  0  0  0  0  0
  140.2750   72.0580  222.4600 C   0  0  0  0  0  0  0  0  0  0  0  0
  139.7820   73.3970  222.3430 N   0  0  0  0  0  0  0  0  0  0  0  0
  139.9250   74.0260  221.0460 C   0  0  0  0  0  0  0  0  0  0  0  0
  140.5540   75.3500  221.1540 C   0  0  0  0  0  0  0  0  0  0  0  0
  141.8040   75.5010  221.3020 O   0  0  0  0  0  0  0  0  0  0  0  0
  139.7140   76.4970  221.0890 N   0  0  0  0  0  0  0  0  0  0  0  0
  139.8520   77.6670  220.2070 C   0  0  0  0  0  0  0  0  0  0  0  0
  138.4030   77.9270  219.8370 C   0  0  0  0  0  0  0  0  0  0  0  0
  137.5590   77.0180  220.6970 C   0  0  0  0  0  0  0  0  0  0  0  0
  138.5160   76.7950  221.8730 C   0  0  2  0  0  0  0  0  0  0  0  0
  138.8130   78.0770  222.5770 C   0  0  0  0  0  0  0  0  0  0  0  0
  137.8050   79.0040  222.7710 C   0  0  0  0  0  0  0  0  0  0  0  0
  138.0500   80.2130  223.4260 C   0  0  0  0  0  0  0  0  0  0  0  0
  139.3180   80.5000  223.8920 C   0  0  0  0  0  0  0  0  0  0  0  0
  140.3400   79.5890  223.7080 C   0  0  0  0  0  0  0  0  0  0  0  0
  141.6280   79.8310  224.1570 O   0  0  0  0  0  0  0  0  0  0  0  0
  142.5920   80.4710  223.3460 C   0  0  0  0  0  0  0  0  0  0  0  0
  142.9960   79.6240  222.3260 F   0  0  0  0  0  0  0  0  0  0  0  0
  142.0450   81.6430  222.8440 F   0  0  0  0  0  0  0  0  0  0  0  0
  143.6950   80.7310  224.1560 F   0  0  0  0  0  0  0  0  0  0  0  0
  140.0590   78.3970  223.0530 C   0  0  0  0  0  0  0  0  0  0  0  0
  140.2020   71.2990  223.6880 C   0  0  0  0  0  0  0  0  0  0  0  0
  139.6160   70.0620  223.6580 C   0  0  0  0  0  0  0  0  0  0  0  0
  139.5030   69.2680  224.7780 C   0  0  0  0  0  0  0  0  0  0  0  0
  139.9900   69.7170  225.9820 C   0  0  0  0  0  0  0  0  0  0  0  0
  139.8820   68.9360  227.1000 C   0  0  0  0  0  0  0  0  0  0  0  0
  140.3780   69.4170  228.2810 C   0  0  0  0  0  0  0  0  0  0  0  0
  140.9800   70.6790  228.3330 C   0  0  0  0  0  0  0  0  0  0  0  0
  141.0810   71.4600  227.1840 C   0  0  0  0  0  0  0  0  0  0  0  0
  140.5820   70.9780  225.9920 C   0  0  0  0  0  0  0  0  0  0  0  0
  140.6760   71.7310  224.8730 N   0  0  0  0  0  0  0  0  0  0  0  0
  139.3460   73.8650  223.1700 H   0  0  0  0  0  0  0  0  0  0  0  0
  140.5489   73.3854  220.4053 H   0  0  0  0  0  0  0  0  0  0  0  0
  138.9219   74.1555  220.6136 H   0  0  0  0  0  0  0  0  0  0  0  0
  140.2926   78.5233  220.7386 H   0  0  0  0  0  0  0  0  0  0  0  0
  140.5173   77.5081  219.3455 H   0  0  0  0  0  0  0  0  0  0  0  0
  138.1458   78.9785  220.0327 H   0  0  0  0  0  0  0  0  0  0  0  0
  138.2289   77.7305  218.7688 H   0  0  0  0  0  0  0  0  0  0  0  0
  136.6276   77.5082  221.0166 H   0  0  0  0  0  0  0  0  0  0  0  0
  137.2158   76.0988  220.1997 H   0  0  0  0  0  0  0  0  0  0  0  0
  138.1610   76.0729  222.6230 H   0  0  0  0  0  0  0  0  0  0  0  0
  136.7919   78.7851  222.4027 H   0  0  0  0  0  0  0  0  0  0  0  0
  137.2337   80.9360  223.5706 H   0  0  0  0  0  0  0  0  0  0  0  0
  139.5136   81.4514  224.4083 H   0  0  0  0  0  0  0  0  0  0  0  0
  140.8756   77.6742  222.9089 H   0  0  0  0  0  0  0  0  0  0  0  0
  139.2200   69.6876  222.7025 H   0  0  0  0  0  0  0  0  0  0  0  0
  139.0254   68.2795  224.7089 H   0  0  0  0  0  0  0  0  0  0  0  0
  139.4076   67.9448  227.0507 H   0  0  0  0  0  0  0  0  0  0  0  0
  140.3031   68.8084  229.1943 H   0  0  0  0  0  0  0  0  0  0  0  0
  141.3760   71.0568  229.2872 H   0  0  0  0  0  0  0  0  0  0  0  0
  141.5544   72.4520  227.2270 H   0  0  0  0  0  0  0  0  0  0  0  0
  1  2  2  0
  2  3  1  0
  3  4  1  0
  4  5  1  0
  5  6  2  0
  5  7  1  0
  7  8  1  0
  8  9  1  0
  9 10  1  0
 10 11  1  0
 11 12  1  0
 12 13  2  0
 13 14  1  0
 14 15  2  0
 15 16  1  0
 16 17  1  0
 17 18  1  0
 18 19  1  0
 18 20  1  0
 18 21  1  0
 16 22  2  0
  2 23  1  0
 23 24  2  0
 24 25  1  0
 25 26  2  0
 26 27  1  0
 27 28  2  0
 28 29  1  0
 29 30  2  0
 30 31  1  0
 31 32  2  0
 11  7  1  0
 22 12  1  0
 32 23  1  0
 31 26  1  0
  3 33  1  0
  4 34  1  0
  4 35  1  0
  8 36  1  0
  8 37  1  0
  9 38  1  0
  9 39  1  0
 10 40  1  0
 10 41  1  0
 11 42  1  1
 13 43  1  0
 14 44  1  0
 15 45  1  0
 22 46  1  0
 24 47  1  0
 25 48  1  0
 27 49  1  0
 28 50  1  0
 29 51  1  0
 30 52  1  0
M  END
>  <smiles>  (23) 
O=C(NCC(=O)N1CCCC1c1cccc(OC(F)(F)F)c1)c1ccc2ccccc2n1

>  <score_type>  (23) 
oracle

>  <origin>  (23) 
autodockgpu

>  <m_score__min__energy>  (23) 
-8.5999999999999996

>  <m_primary>  (23) 
energy

>  <rmsd>  (23) 
2.457763301053598

>  <m_score__min__rmsd>  (23) 
2.457763301053598

>  <meeko>  (23) 
{"free_energy": -7.87, "intermolecular_energy": -9.96, "internal_energy": -1.24, "cluster_size": 9, "cluster_id": 3, "rank_in_cluster": 6}

>  <energy>  (23) 
-7.87

>  <cluster_rmsd>  (23) 
1.21

>  <cluster>  (23) 
2

$$$$

     RDKit          3D

 52 55  0  0  0  0  0  0  0  0999 V2000
  141.3570   72.3420  222.3210 O   0  0  0  0  0  0  0  0  0  0  0  0
  140.3330   72.1420  223.0490 C   0  0  0  0  0  0  0  0  0  0  0  0
  139.1290   72.7620  222.5840 N   0  0  0  0  0  0  0  0  0  0  0  0
  139.2300   73.5280  221.3590 C   0  0  0  0  0  0  0  0  0  0  0  0
  139.7350   74.8850  221.6090 C   0  0  0  0  0  0  0  0  0  0  0  0
  139.4020   75.5580  222.6310 O   0  0  0  0  0  0  0  0  0  0  0  0
  140.6310   75.4520  220.6600 N   0  0  0  0  0  0  0  0  0  0  0  0
  142.1030   75.4360  220.6870 C   0  0  0  0  0  0  0  0  0  0  0  0
  142.4190   75.1980  219.2220 C   0  0  0  0  0  0  0  0  0  0  0  0
  141.1160   75.3050  218.4660 C   0  0  0  0  0  0  0  0  0  0  0  0
  140.3160   76.1830  219.4340 C   0  0  2  0  0  0  0  0  0  0  0  0
  140.9540   77.5230  219.5990 C   0  0  0  0  0  0  0  0  0  0  0  0
  141.6320   78.0960  218.5370 C   0  0  0  0  0  0  0  0  0  0  0  0
  142.2400   79.3480  218.6590 C   0  0  0  0  0  0  0  0  0  0  0  0
  142.1690   80.0360  219.8540 C   0  0  0  0  0  0  0  0  0  0  0  0
  141.4980   79.4820  220.9270 C   0  0  0  0  0  0  0  0  0  0  0  0
  141.4000   80.1330  222.1460 O   0  0  0  0  0  0  0  0  0  0  0  0
  142.2780   79.8460  223.2160 C   0  0  0  0  0  0  0  0  0  0  0  0
  141.9190   78.6540  223.8220 F   0  0  0  0  0  0  0  0  0  0  0  0
  143.5750   79.7950  222.7260 F   0  0  0  0  0  0  0  0  0  0  0  0
  142.1270   80.8700  224.1480 F   0  0  0  0  0  0  0  0  0  0  0  0
  140.9050   78.2360  220.7690 C   0  0  0  0  0  0  0  0  0  0  0  0
  140.3900   71.3460  224.2540 C   0  0  0  0  0  0  0  0  0  0  0  0
  140.9950   71.8790  225.3610 C   0  0  0  0  0  0  0  0  0  0  0  0
  141.0970   71.1940  226.5530 C   0  0  0  0  0  0  0  0  0  0  0  0
  140.5770   69.9250  226.6540 C   0  0  0  0  0  0  0  0  0  0  0  0
  140.6730   69.2380  227.8330 C   0  0  0  0  0  0  0  0  0  0  0  0
  140.1450   67.9780  227.8970 C   0  0  0  0  0  0  0  0  0  0  0  0
  139.5220   67.4150  226.7770 C   0  0  0  0  0  0  0  0  0  0  0  0
  139.4340   68.1310  225.5850 C   0  0  0  0  0  0  0  0  0  0  0  0
  139.9660   69.4020  225.5170 C   0  0  0  0  0  0  0  0  0  0  0  0
  139.8840   70.1020  224.3640 N   0  0  0  0  0  0  0  0  0  0  0  0
  138.2420   72.6470  223.1250 H   0  0  0  0  0  0  0  0  0  0  0  0
  139.9168   73.0127  220.6715 H   0  0  0  0  0  0  0  0  0  0  0  0
  138.2242   73.6107  220.9213 H   0  0  0  0  0  0  0  0  0  0  0  0
  142.5107   76.3958  221.0371 H   0  0  0  0  0  0  0  0  0  0  0  0
  142.5351   74.6900  221.3702 H   0  0  0  0  0  0  0  0  0  0  0  0
  143.1288   75.9567  218.8606 H   0  0  0  0  0  0  0  0  0  0  0  0
  142.8779   74.2092  219.0751 H   0  0  0  0  0  0  0  0  0  0  0  0
  141.2500   75.7924  217.4890 H   0  0  0  0  0  0  0  0  0  0  0  0
  140.6450   74.3425  218.2174 H   0  0  0  0  0  0  0  0  0  0  0  0
  139.2658   76.3414  219.1478 H   0  0  0  0  0  0  0  0  0  0  0  0
  141.6932   77.5563  217.5804 H   0  0  0  0  0  0  0  0  0  0  0  0
  142.7751   79.7855  217.8033 H   0  0  0  0  0  0  0  0  0  0  0  0
  142.6455   81.0227  219.9514 H   0  0  0  0  0  0  0  0  0  0  0  0
  140.3695   77.7996  221.6250 H   0  0  0  0  0  0  0  0  0  0  0  0
  141.4160   72.8932  225.2965 H   0  0  0  0  0  0  0  0  0  0  0  0
  141.5914   71.6598  227.4182 H   0  0  0  0  0  0  0  0  0  0  0  0
  141.1632   69.6883  228.7088 H   0  0  0  0  0  0  0  0  0  0  0  0
  140.2102   67.4042  228.8332 H   0  0  0  0  0  0  0  0  0  0  0  0
  139.0994   66.4013  226.8383 H   0  0  0  0  0  0  0  0  0  0  0  0
  138.9446   67.6867  224.7058 H   0  0  0  0  0  0  0  0  0  0  0  0
  1  2  2  0
  2  3  1  0
  3  4  1  0
  4  5  1  0
  5  6  2  0
  5  7  1  0
  7  8  1  0
  8  9  1  0
  9 10  1  0
 10 11  1  0
 11 12  1  0
 12 13  2  0
 13 14  1  0
 14 15  2  0
 15 16  1  0
 16 17  1  0
 17 18  1  0
 18 19  1  0
 18 20  1  0
 18 21  1  0
 16 22  2  0
  2 23  1  0
 23 24  2  0
 24 25  1  0
 25 26  2  0
 26 27  1  0
 27 28  2  0
 28 29  1  0
 29 30  2  0
 30 31  1  0
 31 32  2  0
 11  7  1  0
 22 12  1  0
 32 23  1  0
 31 26  1  0
  3 33  1  0
  4 34  1  0
  4 35  1  0
  8 36  1  0
  8 37  1  0
  9 38  1  0
  9 39  1  0
 10 40  1  0
 10 41  1  0
 11 42  1  6
 13 43  1  0
 14 44  1  0
 15 45  1  0
 22 46  1  0
 24 47  1  0
 25 48  1  0
 27 49  1  0
 28 50  1  0
 29 51  1  0
 30 52  1  0
M  END
>  <smiles>  (24) 
O=C(NCC(=O)N1CCCC1c1cccc(OC(F)(F)F)c1)c1ccc2ccccc2n1

>  <score_type>  (24) 
oracle

>  <origin>  (24) 
autodockgpu

>  <m_score__min__energy>  (24) 
-8.5999999999999996

>  <m_primary>  (24) 
energy

>  <rmsd>  (24) 
3.0578711436435198

>  <m_score__min__rmsd>  (24) 
3.0578711436435198

>  <meeko>  (24) 
{"free_energy": -7.66, "intermolecular_energy": -9.75, "internal_energy": -1.41, "cluster_size": 4, "cluster_id": 6, "rank_in_cluster": 3}

>  <energy>  (24) 
-7.83

>  <cluster_rmsd>  (24) 
1.42

>  <cluster>  (24) 
2

$$$$

     RDKit          3D

 52 55  0  0  0  0  0  0  0  0999 V2000
  140.9210   72.0240  221.6580 O   0  0  0  0  0  0  0  0  0  0  0  0
  140.0600   72.1810  222.5820 C   0  0  0  0  0  0  0  0  0  0  0  0
  139.1040   73.2210  222.3500 N   0  0  0  0  0  0  0  0  0  0  0  0
  139.2380   73.9540  221.1070 C   0  0  0  0  0  0  0  0  0  0  0  0
  140.4650   74.7620  221.0860 C   0  0  0  0  0  0  0  0  0  0  0  0
  140.7310   75.6200  221.9790 O   0  0  0  0  0  0  0  0  0  0  0  0
  141.3800   74.5610  220.0140 N   0  0  0  0  0  0  0  0  0  0  0  0
  141.3580   73.4980  218.9970 C   0  0  0  0  0  0  0  0  0  0  0  0
  141.7560   74.2750  217.7540 C   0  0  0  0  0  0  0  0  0  0  0  0
  142.1650   75.6560  218.2100 C   0  0  0  0  0  0  0  0  0  0  0  0
  142.5560   75.3550  219.6610 C   0  0  2  0  0  0  0  0  0  0  0  0
  143.7060   74.4050  219.7240 C   0  0  0  0  0  0  0  0  0  0  0  0
  144.0060   73.7670  220.9140 C   0  0  0  0  0  0  0  0  0  0  0  0
  145.0760   72.8730  221.0060 C   0  0  0  0  0  0  0  0  0  0  0  0
  145.8550   72.6140  219.8960 C   0  0  0  0  0  0  0  0  0  0  0  0
  145.5740   73.2410  218.6980 C   0  0  0  0  0  0  0  0  0  0  0  0
  146.3270   73.0140  217.5570 O   0  0  0  0  0  0  0  0  0  0  0  0
  145.8830   73.4220  216.2790 C   0  0  0  0  0  0  0  0  0  0  0  0
  145.7760   74.8020  216.2270 F   0  0  0  0  0  0  0  0  0  0  0  0
  146.7730   72.9470  215.3260 F   0  0  0  0  0  0  0  0  0  0  0  0
  144.6110   72.8810  216.1000 F   0  0  0  0  0  0  0  0  0  0  0  0
  144.5020   74.1230  218.6430 C   0  0  0  0  0  0  0  0  0  0  0  0
  140.0560   71.3630  223.7740 C   0  0  0  0  0  0  0  0  0  0  0  0
  139.5050   70.1100  223.7050 C   0  0  0  0  0  0  0  0  0  0  0  0
  139.4570   69.2610  224.7900 C   0  0  0  0  0  0  0  0  0  0  0  0
  139.9770   69.6680  225.9960 C   0  0  0  0  0  0  0  0  0  0  0  0
  139.9330   68.8320  227.0780 C   0  0  0  0  0  0  0  0  0  0  0  0
  140.4600   69.2710  228.2610 C   0  0  0  0  0  0  0  0  0  0  0  0
  141.0270   70.5480  228.3520 C   0  0  0  0  0  0  0  0  0  0  0  0
  141.0610   71.3850  227.2400 C   0  0  0  0  0  0  0  0  0  0  0  0
  140.5310   70.9450  226.0450 C   0  0  0  0  0  0  0  0  0  0  0  0
  140.5610   71.7520  224.9610 N   0  0  0  0  0  0  0  0  0  0  0  0
  138.3630   73.4140  223.0610 H   0  0  0  0  0  0  0  0  0  0  0  0
  139.2672   73.2386  220.2719 H   0  0  0  0  0  0  0  0  0  0  0  0
  138.3773   74.6324  221.0127 H   0  0  0  0  0  0  0  0  0  0  0  0
  142.0843   72.7045  219.2268 H   0  0  0  0  0  0  0  0  0  0  0  0
  140.3957   72.9717  218.9130 H   0  0  0  0  0  0  0  0  0  0  0  0
  142.5987   73.7779  217.2512 H   0  0  0  0  0  0  0  0  0  0  0  0
  140.9213   74.3281  217.0396 H   0  0  0  0  0  0  0  0  0  0  0  0
  143.0163   76.0416  217.6298 H   0  0  0  0  0  0  0  0  0  0  0  0
  141.3926   76.4300  218.0904 H   0  0  0  0  0  0  0  0  0  0  0  0
  142.8166   76.2409  220.2587 H   0  0  0  0  0  0  0  0  0  0  0  0
  143.3912   73.9670  221.8040 H   0  0  0  0  0  0  0  0  0  0  0  0
  145.2975   72.3760  221.9620 H   0  0  0  0  0  0  0  0  0  0  0  0
  146.6973   71.9100  219.9656 H   0  0  0  0  0  0  0  0  0  0  0  0
  144.2809   74.6191  217.6865 H   0  0  0  0  0  0  0  0  0  0  0  0
  139.0851   69.7688  222.7473 H   0  0  0  0  0  0  0  0  0  0  0  0
  139.0050   68.2630  224.6914 H   0  0  0  0  0  0  0  0  0  0  0  0
  139.4845   67.8308  226.9983 H   0  0  0  0  0  0  0  0  0  0  0  0
  140.4384   68.6176  229.1456 H   0  0  0  0  0  0  0  0  0  0  0  0
  141.4482   70.8921  229.3081 H   0  0  0  0  0  0  0  0  0  0  0  0
  141.5065   72.3881  227.3137 H   0  0  0  0  0  0  0  0  0  0  0  0
  1  2  2  0
  2  3  1  0
  3  4  1  0
  4  5  1  0
  5  6  2  0
  5  7  1  0
  7  8  1  0
  8  9  1  0
  9 10  1  0
 10 11  1  0
 11 12  1  0
 12 13  2  0
 13 14  1  0
 14 15  2  0
 15 16  1  0
 16 17  1  0
 17 18  1  0
 18 19  1  0
 18 20  1  0
 18 21  1  0
 16 22  2  0
  2 23  1  0
 23 24  2  0
 24 25  1  0
 25 26  2  0
 26 27  1  0
 27 28  2  0
 28 29  1  0
 29 30  2  0
 30 31  1  0
 31 32  2  0
 11  7  1  0
 22 12  1  0
 32 23  1  0
 31 26  1  0
  3 33  1  0
  4 34  1  0
  4 35  1  0
  8 36  1  0
  8 37  1  0
  9 38  1  0
  9 39  1  0
 10 40  1  0
 10 41  1  0
 11 42  1  1
 13 43  1  0
 14 44  1  0
 15 45  1  0
 22 46  1  0
 24 47  1  0
 25 48  1  0
 27 49  1  0
 28 50  1  0
 29 51  1  0
 30 52  1  0
M  END
>  <smiles>  (25) 
O=C(NCC(=O)N1CCCC1c1cccc(OC(F)(F)F)c1)c1ccc2ccccc2n1

>  <score_type>  (25) 
oracle

>  <origin>  (25) 
autodockgpu

>  <m_score__min__energy>  (25) 
-8.5999999999999996

>  <m_primary>  (25) 
energy

>  <rmsd>  (25) 
1.7907948014031307

>  <m_score__min__rmsd>  (25) 
1.7907948014031307

>  <meeko>  (25) 
{"free_energy": -7.99, "intermolecular_energy": -10.07, "internal_energy": -1.43, "cluster_size": 5, "cluster_id": 5, "rank_in_cluster": 1}

>  <energy>  (25) 
-7.74

>  <cluster_rmsd>  (25) 
1.98

>  <cluster>  (25) 
2

$$$$

     RDKit          3D

 52 55  0  0  0  0  0  0  0  0999 V2000
  140.9250   71.8940  221.4120 O   0  0  0  0  0  0  0  0  0  0  0  0
  140.3160   72.3140  222.4470 C   0  0  0  0  0  0  0  0  0  0  0  0
  139.7430   73.6200  222.3240 N   0  0  0  0  0  0  0  0  0  0  0  0
  139.9270   74.2880  221.0520 C   0  0  0  0  0  0  0  0  0  0  0  0
  141.2480   74.9260  220.9630 C   0  0  0  0  0  0  0  0  0  0  0  0
  142.3270   74.2880  221.1480 O   0  0  0  0  0  0  0  0  0  0  0  0
  141.3000   76.3150  220.6560 N   0  0  0  0  0  0  0  0  0  0  0  0
  142.4290   77.0710  220.0910 C   0  0  0  0  0  0  0  0  0  0  0  0
  141.7090   77.9940  219.1240 C   0  0  0  0  0  0  0  0  0  0  0  0
  140.2290   77.8240  219.3740 C   0  0  0  0  0  0  0  0  0  0  0  0
  140.2560   77.3250  220.8230 C   0  0  2  0  0  0  0  0  0  0  0  0
  140.8410   78.3510  221.7360 C   0  0  0  0  0  0  0  0  0  0  0  0
  141.3950   77.9610  222.9420 C   0  0  0  0  0  0  0  0  0  0  0  0
  141.9500   78.8960  223.8190 C   0  0  0  0  0  0  0  0  0  0  0  0
  141.9520   80.2370  223.4870 C   0  0  0  0  0  0  0  0  0  0  0  0
  141.4040   80.6480  222.2880 C   0  0  0  0  0  0  0  0  0  0  0  0
  141.3810   81.9800  221.9100 O   0  0  0  0  0  0  0  0  0  0  0  0
  140.9010   82.3880  220.6450 C   0  0  0  0  0  0  0  0  0  0  0  0
  141.6820   81.8460  219.6390 F   0  0  0  0  0  0  0  0  0  0  0  0
  139.5750   81.9950  220.5240 F   0  0  0  0  0  0  0  0  0  0  0  0
  141.0260   83.7750  220.5920 F   0  0  0  0  0  0  0  0  0  0  0  0
  140.8610   79.6900  221.4410 C   0  0  0  0  0  0  0  0  0  0  0  0
  140.2160   71.5230  223.6530 C   0  0  0  0  0  0  0  0  0  0  0  0
  139.5970   70.3040  223.5850 C   0  0  0  0  0  0  0  0  0  0  0  0
  139.4550   69.4820  224.6820 C   0  0  0  0  0  0  0  0  0  0  0  0
  139.9490   69.8830  225.9010 C   0  0  0  0  0  0  0  0  0  0  0  0
  139.8130   69.0740  226.9960 C   0  0  0  0  0  0  0  0  0  0  0  0
  140.3160   69.5070  228.1910 C   0  0  0  0  0  0  0  0  0  0  0  0
  140.9520   70.7500  228.2820 C   0  0  0  0  0  0  0  0  0  0  0  0
  141.0810   71.5610  227.1570 C   0  0  0  0  0  0  0  0  0  0  0  0
  140.5750   71.1270  225.9490 C   0  0  0  0  0  0  0  0  0  0  0  0
  140.6960   71.9080  224.8520 N   0  0  0  0  0  0  0  0  0  0  0  0
  139.2250   74.0380  223.1300 H   0  0  0  0  0  0  0  0  0  0  0  0
  139.8324   73.5484  220.2432 H   0  0  0  0  0  0  0  0  0  0  0  0
  139.1596   75.0707  220.9598 H   0  0  0  0  0  0  0  0  0  0  0  0
  142.9637   77.6379  220.8674 H   0  0  0  0  0  0  0  0  0  0  0  0
  143.2048   76.4450  219.6259 H   0  0  0  0  0  0  0  0  0  0  0  0
  142.0058   79.0376  219.3053 H   0  0  0  0  0  0  0  0  0  0  0  0
  141.9630   77.7482  218.0823 H   0  0  0  0  0  0  0  0  0  0  0  0
  139.6877   78.7771  219.2810 H   0  0  0  0  0  0  0  0  0  0  0  0
  139.7142   77.1583  218.6656 H   0  0  0  0  0  0  0  0  0  0  0  0
  139.2749   77.0346  221.2269 H   0  0  0  0  0  0  0  0  0  0  0  0
  141.3986   76.8955  223.2153 H   0  0  0  0  0  0  0  0  0  0  0  0
  142.3852   78.5647  224.7734 H   0  0  0  0  0  0  0  0  0  0  0  0
  142.3888   80.9752  224.1757 H   0  0  0  0  0  0  0  0  0  0  0  0
  140.4257   80.0219  220.4869 H   0  0  0  0  0  0  0  0  0  0  0  0
  139.1973   69.9674  222.6170 H   0  0  0  0  0  0  0  0  0  0  0  0
  138.9491   68.5102  224.5830 H   0  0  0  0  0  0  0  0  0  0  0  0
  139.3109   68.0985  226.9166 H   0  0  0  0  0  0  0  0  0  0  0  0
  140.2202   68.8748  229.0860 H   0  0  0  0  0  0  0  0  0  0  0  0
  141.3529   71.0890  229.2486 H   0  0  0  0  0  0  0  0  0  0  0  0
  141.5813   72.5378  227.2309 H   0  0  0  0  0  0  0  0  0  0  0  0
  1  2  2  0
  2  3  1  0
  3  4  1  0
  4  5  1  0
  5  6  2  0
  5  7  1  0
  7  8  1  0
  8  9  1  0
  9 10  1  0
 10 11  1  0
 11 12  1  0
 12 13  2  0
 13 14  1  0
 14 15  2  0
 15 16  1  0
 16 17  1  0
 17 18  1  0
 18 19  1  0
 18 20  1  0
 18 21  1  0
 16 22  2  0
  2 23  1  0
 23 24  2  0
 24 25  1  0
 25 26  2  0
 26 27  1  0
 27 28  2  0
 28 29  1  0
 29 30  2  0
 30 31  1  0
 31 32  2  0
 11  7  1  0
 22 12  1  0
 32 23  1  0
 31 26  1  0
  3 33  1  0
  4 34  1  0
  4 35  1  0
  8 36  1  0
  8 37  1  0
  9 38  1  0
  9 39  1  0
 10 40  1  0
 10 41  1  0
 11 42  1  1
 13 43  1  0
 14 44  1  0
 15 45  1  0
 22 46  1  0
 24 47  1  0
 25 48  1  0
 27 49  1  0
 28 50  1  0
 29 51  1  0
 30 52  1  0
M  END
>  <smiles>  (26) 
O=C(NCC(=O)N1CCCC1c1cccc(OC(F)(F)F)c1)c1ccc2ccccc2n1

>  <score_type>  (26) 
oracle

>  <origin>  (26) 
autodockgpu

>  <m_score__min__energy>  (26) 
-8.5999999999999996

>  <m_primary>  (26) 
energy

>  <rmsd>  (26) 
2.1706802124874782

>  <m_score__min__rmsd>  (26) 
2.1706802124874782

>  <meeko>  (26) 
{"free_energy": -8.43, "intermolecular_energy": -10.52, "internal_energy": -1.27, "cluster_size": 23, "cluster_id": 2, "rank_in_cluster": 4}

>  <energy>  (26) 
-7.55

>  <cluster_rmsd>  (26) 
1.88

>  <cluster>  (26) 
2

$$$$

     RDKit          3D

 52 55  0  0  0  0  0  0  0  0999 V2000
  138.5040   71.6790  221.9930 O   0  0  0  0  0  0  0  0  0  0  0  0
  139.5200   71.7270  222.7580 C   0  0  0  0  0  0  0  0  0  0  0  0
  140.5130   72.6890  222.3850 N   0  0  0  0  0  0  0  0  0  0  0  0
  140.2370   73.4740  221.2000 C   0  0  0  0  0  0  0  0  0  0  0  0
  140.9150   74.7770  221.2450 C   0  0  0  0  0  0  0  0  0  0  0  0
  142.1720   74.8950  221.1330 O   0  0  0  0  0  0  0  0  0  0  0  0
  140.1170   75.9410  221.4220 N   0  0  0  0  0  0  0  0  0  0  0  0
  139.6280   76.8660  220.3860 C   0  0  0  0  0  0  0  0  0  0  0  0
  138.2230   77.1480  220.8860 C   0  0  0  0  0  0  0  0  0  0  0  0
  138.1100   76.5270  222.2580 C   0  0  0  0  0  0  0  0  0  0  0  0
  139.5870   76.5030  222.6640 C   0  0  2  0  0  0  0  0  0  0  0  0
  140.1480   77.8840  222.7440 C   0  0  0  0  0  0  0  0  0  0  0  0
  141.4630   78.1140  222.3790 C   0  0  0  0  0  0  0  0  0  0  0  0
  142.0180   79.3940  222.4430 C   0  0  0  0  0  0  0  0  0  0  0  0
  141.2500   80.4580  222.8760 C   0  0  0  0  0  0  0  0  0  0  0  0
  139.9350   80.2510  223.2450 C   0  0  0  0  0  0  0  0  0  0  0  0
  139.1250   81.2840  223.6850 O   0  0  0  0  0  0  0  0  0  0  0  0
  137.7150   81.2010  223.6320 C   0  0  0  0  0  0  0  0  0  0  0  0
  137.2590   80.2560  224.5360 F   0  0  0  0  0  0  0  0  0  0  0  0
  137.1840   82.4550  223.8990 F   0  0  0  0  0  0  0  0  0  0  0  0
  137.3820   80.7700  222.3500 F   0  0  0  0  0  0  0  0  0  0  0  0
  139.4170   78.9640  223.1680 C   0  0  0  0  0  0  0  0  0  0  0  0
  139.6510   70.8710  223.9150 C   0  0  0  0  0  0  0  0  0  0  0  0
  139.1250   69.6080  223.8560 C   0  0  0  0  0  0  0  0  0  0  0  0
  139.2020   68.7230  224.9100 C   0  0  0  0  0  0  0  0  0  0  0  0
  139.8290   69.1030  226.0730 C   0  0  0  0  0  0  0  0  0  0  0  0
  139.9110   68.2310  227.1240 C   0  0  0  0  0  0  0  0  0  0  0  0
  140.5420   68.6450  228.2640 C   0  0  0  0  0  0  0  0  0  0  0  0
  141.0870   69.9320  228.3450 C   0  0  0  0  0  0  0  0  0  0  0  0
  140.9930   70.8050  227.2640 C   0  0  0  0  0  0  0  0  0  0  0  0
  140.3580   70.3910  226.1120 C   0  0  0  0  0  0  0  0  0  0  0  0
  140.2630   71.2340  225.0590 N   0  0  0  0  0  0  0  0  0  0  0  0
  141.3790   72.7910  222.9610 H   0  0  0  0  0  0  0  0  0  0  0  0
  140.5857   72.9204  220.3157 H   0  0  0  0  0  0  0  0  0  0  0  0
  139.1526   73.6516  221.1495 H   0  0  0  0  0  0  0  0  0  0  0  0
  140.2337   77.7833  220.3456 H   0  0  0  0  0  0  0  0  0  0  0  0
  139.6721   76.4640  219.3630 H   0  0  0  0  0  0  0  0  0  0  0  0
  138.0546   78.2333  220.9475 H   0  0  0  0  0  0  0  0  0  0  0  0
  137.4710   76.7281  220.2018 H   0  0  0  0  0  0  0  0  0  0  0  0
  137.5099   77.1485  222.9389 H   0  0  0  0  0  0  0  0  0  0  0  0
  137.6075   75.5488  222.2829 H   0  0  0  0  0  0  0  0  0  0  0  0
  139.7909   76.0007  223.6211 H   0  0  0  0  0  0  0  0  0  0  0  0
  142.0822   77.2735  222.0322 H   0  0  0  0  0  0  0  0  0  0  0  0
  143.0657   79.5550  222.1489 H   0  0  0  0  0  0  0  0  0  0  0  0
  141.6846   81.4672  222.9268 H   0  0  0  0  0  0  0  0  0  0  0  0
  138.3691   78.8036  223.4616 H   0  0  0  0  0  0  0  0  0  0  0  0
  138.6217   69.2874  222.9320 H   0  0  0  0  0  0  0  0  0  0  0  0
  138.7640   67.7179  224.8210 H   0  0  0  0  0  0  0  0  0  0  0  0
  139.4798   67.2215  227.0535 H   0  0  0  0  0  0  0  0  0  0  0  0
  140.6220   67.9626  229.1230 H   0  0  0  0  0  0  0  0  0  0  0  0
  141.5921   70.2553  229.2672 H   0  0  0  0  0  0  0  0  0  0  0  0
  141.4215   71.8160  227.3285 H   0  0  0  0  0  0  0  0  0  0  0  0
  1  2  2  0
  2  3  1  0
  3  4  1  0
  4  5  1  0
  5  6  2  0
  5  7  1  0
  7  8  1  0
  8  9  1  0
  9 10  1  0
 10 11  1  0
 11 12  1  0
 12 13  2  0
 13 14  1  0
 14 15  2  0
 15 16  1  0
 16 17  1  0
 17 18  1  0
 18 19  1  0
 18 20  1  0
 18 21  1  0
 16 22  2  0
  2 23  1  0
 23 24  2  0
 24 25  1  0
 25 26  2  0
 26 27  1  0
 27 28  2  0
 28 29  1  0
 29 30  2  0
 30 31  1  0
 31 32  2  0
 11  7  1  0
 22 12  1  0
 32 23  1  0
 31 26  1  0
  3 33  1  0
  4 34  1  0
  4 35  1  0
  8 36  1  0
  8 37  1  0
  9 38  1  0
  9 39  1  0
 10 40  1  0
 10 41  1  0
 11 42  1  1
 13 43  1  0
 14 44  1  0
 15 45  1  0
 22 46  1  0
 24 47  1  0
 25 48  1  0
 27 49  1  0
 28 50  1  0
 29 51  1  0
 30 52  1  0
M  END
>  <smiles>  (27) 
O=C(NCC(=O)N1CCCC1c1cccc(OC(F)(F)F)c1)c1ccc2ccccc2n1

>  <score_type>  (27) 
oracle

>  <origin>  (27) 
autodockgpu

>  <m_score__min__energy>  (27) 
-8.5999999999999996

>  <m_primary>  (27) 
energy

>  <rmsd>  (27) 
2.5519552450189664

>  <m_score__min__rmsd>  (27) 
2.5519552450189664

>  <meeko>  (27) 
{"free_energy": -7.37, "intermolecular_energy": -9.46, "internal_energy": -1.41, "cluster_size": 23, "cluster_id": 2, "rank_in_cluster": 23}

>  <energy>  (27) 
-7.49

>  <cluster_rmsd>  (27) 
1.74

>  <cluster>  (27) 
2

$$$$

     RDKit          3D

 52 55  0  0  0  0  0  0  0  0999 V2000
  141.1840   72.5210  221.9860 O   0  0  0  0  0  0  0  0  0  0  0  0
  140.1440   72.3970  222.7100 C   0  0  0  0  0  0  0  0  0  0  0  0
  139.0460   73.2380  222.3410 N   0  0  0  0  0  0  0  0  0  0  0  0
  139.2560   74.1110  221.2040 C   0  0  0  0  0  0  0  0  0  0  0  0
  139.8950   75.3730  221.6030 C   0  0  0  0  0  0  0  0  0  0  0  0
  141.0920   75.4300  222.0160 O   0  0  0  0  0  0  0  0  0  0  0  0
  139.1280   76.5680  221.5160 N   0  0  0  0  0  0  0  0  0  0  0  0
  139.2070   77.6180  220.4870 C   0  0  0  0  0  0  0  0  0  0  0  0
  137.7380   77.9490  220.2950 C   0  0  0  0  0  0  0  0  0  0  0  0
  136.9750   77.2120  221.3700 C   0  0  0  0  0  0  0  0  0  0  0  0
  138.0810   77.0460  222.4180 C   0  0  2  0  0  0  0  0  0  0  0  0
  138.5590   78.3720  222.9110 C   0  0  0  0  0  0  0  0  0  0  0  0
  137.6550   79.4010  223.1030 C   0  0  0  0  0  0  0  0  0  0  0  0
  138.0700   80.6530  223.5630 C   0  0  0  0  0  0  0  0  0  0  0  0
  139.4050   80.8800  223.8350 C   0  0  0  0  0  0  0  0  0  0  0  0
  140.3250   79.8670  223.6500 C   0  0  0  0  0  0  0  0  0  0  0  0
  141.6740   80.0450  223.9090 O   0  0  0  0  0  0  0  0  0  0  0  0
  142.5900   80.3870  222.8890 C   0  0  0  0  0  0  0  0  0  0  0  0
  142.1810   81.5450  222.2480 F   0  0  0  0  0  0  0  0  0  0  0  0
  143.8490   80.5380  223.4520 F   0  0  0  0  0  0  0  0  0  0  0  0
  142.5700   79.3480  221.9610 F   0  0  0  0  0  0  0  0  0  0  0  0
  139.8760   78.6340  223.1920 C   0  0  0  0  0  0  0  0  0  0  0  0
  140.0870   71.4730  223.8190 C   0  0  0  0  0  0  0  0  0  0  0  0
  139.4950   70.2540  223.6250 C   0  0  0  0  0  0  0  0  0  0  0  0
  139.3940   69.3100  224.6240 C   0  0  0  0  0  0  0  0  0  0  0  0
  139.9030   69.5840  225.8710 C   0  0  0  0  0  0  0  0  0  0  0  0
  139.8080   68.6530  226.8700 C   0  0  0  0  0  0  0  0  0  0  0  0
  140.3250   68.9610  228.0980 C   0  0  0  0  0  0  0  0  0  0  0  0
  140.9350   70.2020  228.3180 C   0  0  0  0  0  0  0  0  0  0  0  0
  141.0220   71.1370  227.2890 C   0  0  0  0  0  0  0  0  0  0  0  0
  140.5010   70.8290  226.0490 C   0  0  0  0  0  0  0  0  0  0  0  0
  140.5820   71.7320  225.0460 N   0  0  0  0  0  0  0  0  0  0  0  0
  138.1550   73.1970  222.8840 H   0  0  0  0  0  0  0  0  0  0  0  0
  139.9010   73.5989  220.4748 H   0  0  0  0  0  0  0  0  0  0  0  0
  138.2755   74.3454  220.7638 H   0  0  0  0  0  0  0  0  0  0  0  0
  139.7742   78.4905  220.8433 H   0  0  0  0  0  0  0  0  0  0  0  0
  139.7262   77.3120  219.5668 H   0  0  0  0  0  0  0  0  0  0  0  0
  137.5789   79.0329  220.3945 H   0  0  0  0  0  0  0  0  0  0  0  0
  137.3954   77.6479  219.2940 H   0  0  0  0  0  0  0  0  0  0  0  0
  136.1344   77.8079  221.7550 H   0  0  0  0  0  0  0  0  0  0  0  0
  136.5039   76.2736  221.0421 H   0  0  0  0  0  0  0  0  0  0  0  0
  137.7975   76.4425  223.2929 H   0  0  0  0  0  0  0  0  0  0  0  0
  136.5895   79.2303  222.8895 H   0  0  0  0  0  0  0  0  0  0  0  0
  137.3341   81.4576  223.7085 H   0  0  0  0  0  0  0  0  0  0  0  0
  139.7343   81.8648  224.1979 H   0  0  0  0  0  0  0  0  0  0  0  0
  140.6121   77.8294  223.0479 H   0  0  0  0  0  0  0  0  0  0  0  0
  139.0836   70.0186  222.6324 H   0  0  0  0  0  0  0  0  0  0  0  0
  138.9089   68.3431  224.4246 H   0  0  0  0  0  0  0  0  0  0  0  0
  139.3272   67.6803  226.6893 H   0  0  0  0  0  0  0  0  0  0  0  0
  140.2613   68.2299  228.9174 H   0  0  0  0  0  0  0  0  0  0  0  0
  141.3480   70.4401  229.3093 H   0  0  0  0  0  0  0  0  0  0  0  0
  141.5015   72.1115  227.4634 H   0  0  0  0  0  0  0  0  0  0  0  0
  1  2  2  0
  2  3  1  0
  3  4  1  0
  4  5  1  0
  5  6  2  0
  5  7  1  0
  7  8  1  0
  8  9  1  0
  9 10  1  0
 10 11  1  0
 11 12  1  0
 12 13  2  0
 13 14  1  0
 14 15  2  0
 15 16  1  0
 16 17  1  0
 17 18  1  0
 18 19  1  0
 18 20  1  0
 18 21  1  0
 16 22  2  0
  2 23  1  0
 23 24  2  0
 24 25  1  0
 25 26  2  0
 26 27  1  0
 27 28  2  0
 28 29  1  0
 29 30  2  0
 30 31  1  0
 31 32  2  0
 11  7  1  0
 22 12  1  0
 32 23  1  0
 31 26  1  0
  3 33  1  0
  4 34  1  0
  4 35  1  0
  8 36  1  0
  8 37  1  0
  9 38  1  0
  9 39  1  0
 10 40  1  0
 10 41  1  0
 11 42  1  1
 13 43  1  0
 14 44  1  0
 15 45  1  0
 22 46  1  0
 24 47  1  0
 25 48  1  0
 27 49  1  0
 28 50  1  0
 29 51  1  0
 30 52  1  0
M  END
>  <smiles>  (28) 
O=C(NCC(=O)N1CCCC1c1cccc(OC(F)(F)F)c1)c1ccc2ccccc2n1

>  <score_type>  (28) 
oracle

>  <origin>  (28) 
autodockgpu

>  <m_score__min__energy>  (28) 
-8.5999999999999996

>  <m_primary>  (28) 
energy

>  <rmsd>  (28) 
2.6995311159029693

>  <m_score__min__rmsd>  (28) 
2.6995311159029693

>  <meeko>  (28) 
{"free_energy": -8.21, "intermolecular_energy": -10.3, "internal_energy": -1.23, "cluster_size": 9, "cluster_id": 3, "rank_in_cluster": 1}

>  <energy>  (28) 
-7.37

>  <cluster_rmsd>  (28) 
1.92

>  <cluster>  (28) 
2

$$$$

     RDKit          3D

 52 55  0  0  0  0  0  0  0  0999 V2000
  140.5810   71.6600  221.3550 O   0  0  0  0  0  0  0  0  0  0  0  0
  140.1790   72.1840  222.4420 C   0  0  0  0  0  0  0  0  0  0  0  0
  139.7830   73.5560  222.3420 N   0  0  0  0  0  0  0  0  0  0  0  0
  139.8890   74.1640  221.0320 C   0  0  0  0  0  0  0  0  0  0  0  0
  141.2400   74.6880  220.7870 C   0  0  0  0  0  0  0  0  0  0  0  0
  142.2690   73.9480  220.7950 O   0  0  0  0  0  0  0  0  0  0  0  0
  141.3820   76.0810  220.5330 N   0  0  0  0  0  0  0  0  0  0  0  0
  142.5880   76.7990  220.0920 C   0  0  0  0  0  0  0  0  0  0  0  0
  141.9960   77.7840  219.1000 C   0  0  0  0  0  0  0  0  0  0  0  0
  140.4940   77.6780  219.2170 C   0  0  0  0  0  0  0  0  0  0  0  0
  140.3740   77.1340  220.6450 C   0  0  2  0  0  0  0  0  0  0  0  0
  140.9230   78.1030  221.6390 C   0  0  0  0  0  0  0  0  0  0  0  0
  141.2570   77.6690  222.9090 C   0  0  0  0  0  0  0  0  0  0  0  0
  141.7740   78.5500  223.8630 C   0  0  0  0  0  0  0  0  0  0  0  0
  141.9590   79.8810  223.5430 C   0  0  0  0  0  0  0  0  0  0  0  0
  141.6310   80.3360  222.2810 C   0  0  0  0  0  0  0  0  0  0  0  0
  141.7990   81.6610  221.9120 O   0  0  0  0  0  0  0  0  0  0  0  0
  140.8600   82.3310  221.0950 C   0  0  0  0  0  0  0  0  0  0  0  0
  139.5730   81.9470  221.4330 F   0  0  0  0  0  0  0  0  0  0  0  0
  141.0360   83.7000  221.2460 F   0  0  0  0  0  0  0  0  0  0  0  0
  141.1040   81.9290  219.7840 F   0  0  0  0  0  0  0  0  0  0  0  0
  141.1210   79.4310  221.3580 C   0  0  0  0  0  0  0  0  0  0  0  0
  140.1290   71.4410  223.6810 C   0  0  0  0  0  0  0  0  0  0  0  0
  139.5500   70.1990  223.6750 C   0  0  0  0  0  0  0  0  0  0  0  0
  139.4580   69.4190  224.8070 C   0  0  0  0  0  0  0  0  0  0  0  0
  139.9600   69.8870  225.9990 C   0  0  0  0  0  0  0  0  0  0  0  0
  139.8730   69.1200  227.1280 C   0  0  0  0  0  0  0  0  0  0  0  0
  140.3830   69.6190  228.2940 C   0  0  0  0  0  0  0  0  0  0  0  0
  140.9780   70.8860  228.3220 C   0  0  0  0  0  0  0  0  0  0  0  0
  141.0580   71.6520  227.1620 C   0  0  0  0  0  0  0  0  0  0  0  0
  140.5440   71.1520  225.9830 C   0  0  0  0  0  0  0  0  0  0  0  0
  140.6170   71.8900  224.8530 N   0  0  0  0  0  0  0  0  0  0  0  0
  139.4390   74.0610  223.1910 H   0  0  0  0  0  0  0  0  0  0  0  0
  139.6551   73.4083  220.2676 H   0  0  0  0  0  0  0  0  0  0  0  0
  139.1801   75.0037  220.9838 H   0  0  0  0  0  0  0  0  0  0  0  0
  143.0788   77.3159  220.9298 H   0  0  0  0  0  0  0  0  0  0  0  0
  143.3721   76.1513  219.6730 H   0  0  0  0  0  0  0  0  0  0  0  0
  142.3227   78.8062  219.3416 H   0  0  0  0  0  0  0  0  0  0  0  0
  142.3274   77.5574  218.0759 H   0  0  0  0  0  0  0  0  0  0  0  0
  140.0065   78.6584  219.1117 H   0  0  0  0  0  0  0  0  0  0  0  0
  140.0123   77.0603  218.4447 H   0  0  0  0  0  0  0  0  0  0  0  0
  139.3497   76.8780  220.9538 H   0  0  0  0  0  0  0  0  0  0  0  0
  141.1131   76.6109  223.1732 H   0  0  0  0  0  0  0  0  0  0  0  0
  142.0332   78.1839  224.8674 H   0  0  0  0  0  0  0  0  0  0  0  0
  142.3665   80.5766  224.2914 H   0  0  0  0  0  0  0  0  0  0  0  0
  140.8636   79.7973  220.3532 H   0  0  0  0  0  0  0  0  0  0  0  0
  139.1430   69.8098  222.7301 H   0  0  0  0  0  0  0  0  0  0  0  0
  138.9854   68.4269  224.7577 H   0  0  0  0  0  0  0  0  0  0  0  0
  139.4039   68.1255  227.0985 H   0  0  0  0  0  0  0  0  0  0  0  0
  140.3255   69.0215  229.2158 H   0  0  0  0  0  0  0  0  0  0  0  0
  141.3846   71.2785  229.2657 H   0  0  0  0  0  0  0  0  0  0  0  0
  141.5267   72.6469  227.1852 H   0  0  0  0  0  0  0  0  0  0  0  0
  1  2  2  0
  2  3  1  0
  3  4  1  0
  4  5  1  0
  5  6  2  0
  5  7  1  0
  7  8  1  0
  8  9  1  0
  9 10  1  0
 10 11  1  0
 11 12  1  0
 12 13  2  0
 13 14  1  0
 14 15  2  0
 15 16  1  0
 16 17  1  0
 17 18  1  0
 18 19  1  0
 18 20  1  0
 18 21  1  0
 16 22  2  0
  2 23  1  0
 23 24  2  0
 24 25  1  0
 25 26  2  0
 26 27  1  0
 27 28  2  0
 28 29  1  0
 29 30  2  0
 30 31  1  0
 31 32  2  0
 11  7  1  0
 22 12  1  0
 32 23  1  0
 31 26  1  0
  3 33  1  0
  4 34  1  0
  4 35  1  0
  8 36  1  0
  8 37  1  0
  9 38  1  0
  9 39  1  0
 10 40  1  0
 10 41  1  0
 11 42  1  1
 13 43  1  0
 14 44  1  0
 15 45  1  0
 22 46  1  0
 24 47  1  0
 25 48  1  0
 27 49  1  0
 28 50  1  0
 29 51  1  0
 30 52  1  0
M  END
>  <smiles>  (29) 
O=C(NCC(=O)N1CCCC1c1cccc(OC(F)(F)F)c1)c1ccc2ccccc2n1

>  <score_type>  (29) 
oracle

>  <origin>  (29) 
autodockgpu

>  <m_score__min__energy>  (29) 
-8.5999999999999996

>  <m_primary>  (29) 
energy

>  <rmsd>  (29) 
2.126003184883428

>  <m_score__min__rmsd>  (29) 
2.126003184883428

>  <meeko>  (29) 
{"free_energy": -8.47, "intermolecular_energy": -10.55, "internal_energy": -1.27, "cluster_size": 23, "cluster_id": 2, "rank_in_cluster": 3}

>  <energy>  (29) 
-8.21

>  <cluster_rmsd>  (29) 
0.0

>  <cluster>  (29) 
3

$$$$

     RDKit          3D

 52 55  0  0  0  0  0  0  0  0999 V2000
  140.5710   74.9710  221.0670 O   0  0  0  0  0  0  0  0  0  0  0  0
  139.8060   75.5660  221.8940 C   0  0  0  0  0  0  0  0  0  0  0  0
  138.6950   74.7900  222.3560 N   0  0  0  0  0  0  0  0  0  0  0  0
  138.5840   73.4450  221.8300 C   0  0  0  0  0  0  0  0  0  0  0  0
  139.4920   72.5190  222.5220 C   0  0  0  0  0  0  0  0  0  0  0  0
  140.7080   72.7970  222.7460 O   0  0  0  0  0  0  0  0  0  0  0  0
  138.9700   71.2660  222.9500 N   0  0  0  0  0  0  0  0  0  0  0  0
  137.6280   70.9820  223.4820 C   0  0  0  0  0  0  0  0  0  0  0  0
  137.3250   69.6520  222.8160 C   0  0  0  0  0  0  0  0  0  0  0  0
  138.5950   69.2010  222.1340 C   0  0  0  0  0  0  0  0  0  0  0  0
  139.6320   69.9620  222.9680 C   0  0  2  0  0  0  0  0  0  0  0  0
  139.6040   69.5240  224.3950 C   0  0  0  0  0  0  0  0  0  0  0  0
  139.2120   68.2360  224.7100 C   0  0  0  0  0  0  0  0  0  0  0  0
  139.1740   67.7950  226.0350 C   0  0  0  0  0  0  0  0  0  0  0  0
  139.5330   68.6520  227.0580 C   0  0  0  0  0  0  0  0  0  0  0  0
  139.9260   69.9430  226.7650 C   0  0  0  0  0  0  0  0  0  0  0  0
  140.2950   70.8390  227.7550 O   0  0  0  0  0  0  0  0  0  0  0  0
  141.3550   71.7560  227.5730 C   0  0  0  0  0  0  0  0  0  0  0  0
  142.1540   71.7940  228.7030 F   0  0  0  0  0  0  0  0  0  0  0  0
  142.0810   71.3800  226.4510 F   0  0  0  0  0  0  0  0  0  0  0  0
  140.7790   73.0130  227.4070 F   0  0  0  0  0  0  0  0  0  0  0  0
  139.9520   70.3460  225.4360 C   0  0  0  0  0  0  0  0  0  0  0  0
  140.0520   76.9230  222.3270 C   0  0  0  0  0  0  0  0  0  0  0  0
  138.9780   77.7150  222.6320 C   0  0  0  0  0  0  0  0  0  0  0  0
  139.1150   79.0200  223.0530 C   0  0  0  0  0  0  0  0  0  0  0  0
  140.3710   79.5650  223.1790 C   0  0  0  0  0  0  0  0  0  0  0  0
  140.5180   80.8600  223.5960 C   0  0  0  0  0  0  0  0  0  0  0  0
  141.7820   81.3680  223.7090 C   0  0  0  0  0  0  0  0  0  0  0  0
  142.8940   80.5740  223.4020 C   0  0  0  0  0  0  0  0  0  0  0  0
  142.7250   79.2590  222.9780 C   0  0  0  0  0  0  0  0  0  0  0  0
  141.4500   78.7430  222.8630 C   0  0  0  0  0  0  0  0  0  0  0  0
  141.2780   77.4670  222.4530 N   0  0  0  0  0  0  0  0  0  0  0  0
  138.0190   75.2050  223.0370 H   0  0  0  0  0  0  0  0  0  0  0  0
  137.5494   73.0948  221.9598 H   0  0  0  0  0  0  0  0  0  0  0  0
  138.8594   73.4671  220.7653 H   0  0  0  0  0  0  0  0  0  0  0  0
  137.6394   70.8911  224.5782 H   0  0  0  0  0  0  0  0  0  0  0  0
  136.8857   71.7684  223.2805 H   0  0  0  0  0  0  0  0  0  0  0  0
  137.0182   68.9127  223.5706 H   0  0  0  0  0  0  0  0  0  0  0  0
  136.5044   69.7538  222.0906 H   0  0  0  0  0  0  0  0  0  0  0  0
  138.7325   68.1121  222.2068 H   0  0  0  0  0  0  0  0  0  0  0  0
  138.6350   69.3995  221.0528 H   0  0  0  0  0  0  0  0  0  0  0  0
  140.6673   69.8702  222.6077 H   0  0  0  0  0  0  0  0  0  0  0  0
  138.9249   67.5462  223.9027 H   0  0  0  0  0  0  0  0  0  0  0  0
  138.8585   66.7664  226.2639 H   0  0  0  0  0  0  0  0  0  0  0  0
  139.5058   68.3069  228.1021 H   0  0  0  0  0  0  0  0  0  0  0  0
  140.2671   71.3748  225.2074 H   0  0  0  0  0  0  0  0  0  0  0  0
  137.9664   77.2934  222.5374 H   0  0  0  0  0  0  0  0  0  0  0  0
  138.2247   79.6222  223.2869 H   0  0  0  0  0  0  0  0  0  0  0  0
  139.6397   81.4777  223.8346 H   0  0  0  0  0  0  0  0  0  0  0  0
  141.9265   82.4061  224.0429 H   0  0  0  0  0  0  0  0  0  0  0  0
  143.9071   80.9920  223.4965 H   0  0  0  0  0  0  0  0  0  0  0  0
  143.5995   78.6368  222.7368 H   0  0  0  0  0  0  0  0  0  0  0  0
  1  2  2  0
  2  3  1  0
  3  4  1  0
  4  5  1  0
  5  6  2  0
  5  7  1  0
  7  8  1  0
  8  9  1  0
  9 10  1  0
 10 11  1  0
 11 12  1  0
 12 13  2  0
 13 14  1  0
 14 15  2  0
 15 16  1  0
 16 17  1  0
 17 18  1  0
 18 19  1  0
 18 20  1  0
 18 21  1  0
 16 22  2  0
  2 23  1  0
 23 24  2  0
 24 25  1  0
 25 26  2  0
 26 27  1  0
 27 28  2  0
 28 29  1  0
 29 30  2  0
 30 31  1  0
 31 32  2  0
 11  7  1  0
 22 12  1  0
 32 23  1  0
 31 26  1  0
  3 33  1  0
  4 34  1  0
  4 35  1  0
  8 36  1  0
  8 37  1  0
  9 38  1  0
  9 39  1  0
 10 40  1  0
 10 41  1  0
 11 42  1  6
 13 43  1  0
 14 44  1  0
 15 45  1  0
 22 46  1  0
 24 47  1  0
 25 48  1  0
 27 49  1  0
 28 50  1  0
 29 51  1  0
 30 52  1  0
M  END
>  <smiles>  (30) 
O=C(NCC(=O)N1CCCC1c1cccc(OC(F)(F)F)c1)c1ccc2ccccc2n1

>  <score_type>  (30) 
oracle

>  <origin>  (30) 
autodockgpu

>  <m_score__min__energy>  (30) 
-8.5999999999999996

>  <m_primary>  (30) 
energy

>  <rmsd>  (30) 
8.292952012690824

>  <m_score__min__rmsd>  (30) 
8.292952012690824

>  <meeko>  (30) 
{"free_energy": -8.22, "intermolecular_energy": -10.31, "internal_energy": -1.03, "cluster_size": 5, "cluster_id": 1, "rank_in_cluster": 5}

>  <energy>  (30) 
-8.2

>  <cluster_rmsd>  (30) 
0.21

>  <cluster>  (30) 
3

$$$$

     RDKit          3D

 52 55  0  0  0  0  0  0  0  0999 V2000
  141.1510   72.0470  221.6100 O   0  0  0  0  0  0  0  0  0  0  0  0
  140.3290   72.3180  222.5440 C   0  0  0  0  0  0  0  0  0  0  0  0
  139.5330   73.4880  222.3280 N   0  0  0  0  0  0  0  0  0  0  0  0
  139.7610   74.2040  221.0900 C   0  0  0  0  0  0  0  0  0  0  0  0
  140.2280   75.5750  221.3370 C   0  0  0  0  0  0  0  0  0  0  0  0
  141.4570   75.8770  221.3970 O   0  0  0  0  0  0  0  0  0  0  0  0
  139.2490   76.5930  221.5150 N   0  0  0  0  0  0  0  0  0  0  0  0
  138.8070   77.6000  220.5370 C   0  0  0  0  0  0  0  0  0  0  0  0
  137.3130   77.6300  220.8030 C   0  0  0  0  0  0  0  0  0  0  0  0
  137.0680   76.7960  222.0380 C   0  0  0  0  0  0  0  0  0  0  0  0
  138.4470   76.8880  222.7020 C   0  0  2  0  0  0  0  0  0  0  0  0
  138.7780   78.2980  223.0620 C   0  0  0  0  0  0  0  0  0  0  0  0
  137.7600   79.2110  223.2700 C   0  0  0  0  0  0  0  0  0  0  0  0
  138.0370   80.5380  223.6090 C   0  0  0  0  0  0  0  0  0  0  0  0
  139.3460   80.9580  223.7410 C   0  0  0  0  0  0  0  0  0  0  0  0
  140.3780   80.0620  223.5370 C   0  0  0  0  0  0  0  0  0  0  0  0
  141.7060   80.4350  223.6580 O   0  0  0  0  0  0  0  0  0  0  0  0
  142.6120   80.3280  222.5780 C   0  0  0  0  0  0  0  0  0  0  0  0
  142.5540   79.0570  222.0310 F   0  0  0  0  0  0  0  0  0  0  0  0
  142.2990   81.2990  221.6370 F   0  0  0  0  0  0  0  0  0  0  0  0
  143.8890   80.5180  223.1000 F   0  0  0  0  0  0  0  0  0  0  0  0
  140.0650   78.7510  223.2030 C   0  0  0  0  0  0  0  0  0  0  0  0
  140.2160   71.4980  223.7290 C   0  0  0  0  0  0  0  0  0  0  0  0
  139.5950   70.2820  223.6260 C   0  0  0  0  0  0  0  0  0  0  0  0
  139.4410   69.4350  224.7010 C   0  0  0  0  0  0  0  0  0  0  0  0
  139.9230   69.8060  225.9340 C   0  0  0  0  0  0  0  0  0  0  0  0
  139.7750   68.9710  227.0080 C   0  0  0  0  0  0  0  0  0  0  0  0
  140.2670   69.3750  228.2180 C   0  0  0  0  0  0  0  0  0  0  0  0
  140.9040   70.6140  228.3450 C   0  0  0  0  0  0  0  0  0  0  0  0
  141.0450   71.4510  227.2410 C   0  0  0  0  0  0  0  0  0  0  0  0
  140.5500   71.0470  226.0180 C   0  0  0  0  0  0  0  0  0  0  0  0
  140.6840   71.8530  224.9420 N   0  0  0  0  0  0  0  0  0  0  0  0
  138.8320   73.7790  223.0470 H   0  0  0  0  0  0  0  0  0  0  0  0
  140.5211   73.6683  220.5024 H   0  0  0  0  0  0  0  0  0  0  0  0
  138.8082   74.2581  220.5430 H   0  0  0  0  0  0  0  0  0  0  0  0
  139.2706   78.5790  220.7283 H   0  0  0  0  0  0  0  0  0  0  0  0
  139.0766   77.3684  219.4960 H   0  0  0  0  0  0  0  0  0  0  0  0
  136.9803   78.6645  220.9735 H   0  0  0  0  0  0  0  0  0  0  0  0
  136.7530   77.2329  219.9435 H   0  0  0  0  0  0  0  0  0  0  0  0
  136.2802   77.2283  222.6724 H   0  0  0  0  0  0  0  0  0  0  0  0
  136.7162   75.7723  221.8424 H   0  0  0  0  0  0  0  0  0  0  0  0
  138.5635   76.2725  223.6062 H   0  0  0  0  0  0  0  0  0  0  0  0
  136.7140   78.8868  223.1668 H   0  0  0  0  0  0  0  0  0  0  0  0
  137.2125   81.2480  223.7707 H   0  0  0  0  0  0  0  0  0  0  0  0
  139.5663   82.0022  224.0076 H   0  0  0  0  0  0  0  0  0  0  0  0
  140.8898   78.0408  223.0437 H   0  0  0  0  0  0  0  0  0  0  0  0
  139.2039   69.9695  222.6465 H   0  0  0  0  0  0  0  0  0  0  0  0
  138.9349   68.4666  224.5738 H   0  0  0  0  0  0  0  0  0  0  0  0
  139.2724   67.9984  226.9005 H   0  0  0  0  0  0  0  0  0  0  0  0
  140.1613   68.7219  229.0968 H   0  0  0  0  0  0  0  0  0  0  0  0
  141.2961   70.9291  229.3233 H   0  0  0  0  0  0  0  0  0  0  0  0
  141.5462   72.4249  227.3429 H   0  0  0  0  0  0  0  0  0  0  0  0
  1  2  2  0
  2  3  1  0
  3  4  1  0
  4  5  1  0
  5  6  2  0
  5  7  1  0
  7  8  1  0
  8  9  1  0
  9 10  1  0
 10 11  1  0
 11 12  1  0
 12 13  2  0
 13 14  1  0
 14 15  2  0
 15 16  1  0
 16 17  1  0
 17 18  1  0
 18 19  1  0
 18 20  1  0
 18 21  1  0
 16 22  2  0
  2 23  1  0
 23 24  2  0
 24 25  1  0
 25 26  2  0
 26 27  1  0
 27 28  2  0
 28 29  1  0
 29 30  2  0
 30 31  1  0
 31 32  2  0
 11  7  1  0
 22 12  1  0
 32 23  1  0
 31 26  1  0
  3 33  1  0
  4 34  1  0
  4 35  1  0
  8 36  1  0
  8 37  1  0
  9 38  1  0
  9 39  1  0
 10 40  1  0
 10 41  1  0
 11 42  1  1
 13 43  1  0
 14 44  1  0
 15 45  1  0
 22 46  1  0
 24 47  1  0
 25 48  1  0
 27 49  1  0
 28 50  1  0
 29 51  1  0
 30 52  1  0
M  END
>  <smiles>  (31) 
O=C(NCC(=O)N1CCCC1c1cccc(OC(F)(F)F)c1)c1ccc2ccccc2n1

>  <score_type>  (31) 
oracle

>  <origin>  (31) 
autodockgpu

>  <m_score__min__energy>  (31) 
-8.5999999999999996

>  <m_primary>  (31) 
energy

>  <rmsd>  (31) 
2.8389718817386034

>  <m_score__min__rmsd>  (31) 
2.8389718817386034

>  <meeko>  (31) 
{"free_energy": -8.08, "intermolecular_energy": -10.17, "internal_energy": -1.23, "cluster_size": 9, "cluster_id": 3, "rank_in_cluster": 3}

>  <energy>  (31) 
-8.08

>  <cluster_rmsd>  (31) 
0.44

>  <cluster>  (31) 
3

$$$$

     RDKit          3D

 52 55  0  0  0  0  0  0  0  0999 V2000
  141.0840   72.3020  222.2840 O   0  0  0  0  0  0  0  0  0  0  0  0
  140.1000   72.0680  223.0570 C   0  0  0  0  0  0  0  0  0  0  0  0
  138.8450   72.5970  222.6160 N   0  0  0  0  0  0  0  0  0  0  0  0
  138.8550   73.3220  221.3620 C   0  0  0  0  0  0  0  0  0  0  0  0
  138.7710   74.7730  221.5760 C   0  0  0  0  0  0  0  0  0  0  0  0
  137.7400   75.3320  222.0570 O   0  0  0  0  0  0  0  0  0  0  0  0
  139.8990   75.5680  221.2260 N   0  0  0  0  0  0  0  0  0  0  0  0
  141.2920   75.4020  221.6700 C   0  0  0  0  0  0  0  0  0  0  0  0
  142.0460   75.7050  220.3880 C   0  0  0  0  0  0  0  0  0  0  0  0
  141.0320   76.2130  219.3900 C   0  0  0  0  0  0  0  0  0  0  0  0
  139.9520   76.7340  220.3460 C   0  0  2  0  0  0  0  0  0  0  0  0
  140.4750   77.8450  221.1940 C   0  0  0  0  0  0  0  0  0  0  0  0
  141.6720   78.4560  220.8670 C   0  0  0  0  0  0  0  0  0  0  0  0
  142.1890   79.4980  221.6400 C   0  0  0  0  0  0  0  0  0  0  0  0
  141.5000   79.9370  222.7540 C   0  0  0  0  0  0  0  0  0  0  0  0
  140.3030   79.3410  223.1000 C   0  0  0  0  0  0  0  0  0  0  0  0
  139.5750   79.7450  224.2080 O   0  0  0  0  0  0  0  0  0  0  0  0
  138.3730   80.4760  224.0830 C   0  0  0  0  0  0  0  0  0  0  0  0
  138.5630   81.5730  223.2590 F   0  0  0  0  0  0  0  0  0  0  0  0
  137.3890   79.6340  223.5840 F   0  0  0  0  0  0  0  0  0  0  0  0
  138.0470   80.9410  225.3550 F   0  0  0  0  0  0  0  0  0  0  0  0
  139.8200   78.3080  222.3070 C   0  0  0  0  0  0  0  0  0  0  0  0
  140.2490   71.3210  224.2860 C   0  0  0  0  0  0  0  0  0  0  0  0
  140.9730   71.8800  225.3060 C   0  0  0  0  0  0  0  0  0  0  0  0
  141.1680   71.2420  226.5120 C   0  0  0  0  0  0  0  0  0  0  0  0
  140.6230   69.9970  226.7190 C   0  0  0  0  0  0  0  0  0  0  0  0
  140.8110   69.3570  227.9130 C   0  0  0  0  0  0  0  0  0  0  0  0
  140.2540   68.1190  228.0830 C   0  0  0  0  0  0  0  0  0  0  0  0
  139.5110   67.5310  227.0530 C   0  0  0  0  0  0  0  0  0  0  0  0
  139.3310   68.1980  225.8440 C   0  0  0  0  0  0  0  0  0  0  0  0
  139.8910   69.4470  225.6700 C   0  0  0  0  0  0  0  0  0  0  0  0
  139.7200   70.1010  224.4990 N   0  0  0  0  0  0  0  0  0  0  0  0
  137.9870   72.4480  223.1940 H   0  0  0  0  0  0  0  0  0  0  0  0
  139.7875   73.0937  220.8250 H   0  0  0  0  0  0  0  0  0  0  0  0
  137.9780   73.0091  220.7764 H   0  0  0  0  0  0  0  0  0  0  0  0
  141.5490   76.1149  222.4673 H   0  0  0  0  0  0  0  0  0  0  0  0
  141.5142   74.4155  222.1029 H   0  0  0  0  0  0  0  0  0  0  0  0
  142.8121   76.4726  220.5725 H   0  0  0  0  0  0  0  0  0  0  0  0
  142.5541   74.8060  220.0090 H   0  0  0  0  0  0  0  0  0  0  0  0
  141.4443   77.0174  218.7631 H   0  0  0  0  0  0  0  0  0  0  0  0
  140.6839   75.4647  218.6627 H   0  0  0  0  0  0  0  0  0  0  0  0
  139.0344   77.0880  219.8533 H   0  0  0  0  0  0  0  0  0  0  0  0
  142.2275   78.1147  219.9810 H   0  0  0  0  0  0  0  0  0  0  0  0
  143.1436   79.9686  221.3621 H   0  0  0  0  0  0  0  0  0  0  0  0
  141.9035   80.7588  223.3637 H   0  0  0  0  0  0  0  0  0  0  0  0
  138.8652   77.8379  222.5851 H   0  0  0  0  0  0  0  0  0  0  0  0
  141.4155   72.8759  225.1567 H   0  0  0  0  0  0  0  0  0  0  0  0
  141.7567   71.7265  227.3049 H   0  0  0  0  0  0  0  0  0  0  0  0
  141.3961   69.8265  228.7175 H   0  0  0  0  0  0  0  0  0  0  0  0
  140.3908   67.5832  229.0339 H   0  0  0  0  0  0  0  0  0  0  0  0
  139.0664   66.5356  227.1994 H   0  0  0  0  0  0  0  0  0  0  0  0
  138.7478   67.7335  225.0352 H   0  0  0  0  0  0  0  0  0  0  0  0
  1  2  2  0
  2  3  1  0
  3  4  1  0
  4  5  1  0
  5  6  2  0
  5  7  1  0
  7  8  1  0
  8  9  1  0
  9 10  1  0
 10 11  1  0
 11 12  1  0
 12 13  2  0
 13 14  1  0
 14 15  2  0
 15 16  1  0
 16 17  1  0
 17 18  1  0
 18 19  1  0
 18 20  1  0
 18 21  1  0
 16 22  2  0
  2 23  1  0
 23 24  2  0
 24 25  1  0
 25 26  2  0
 26 27  1  0
 27 28  2  0
 28 29  1  0
 29 30  2  0
 30 31  1  0
 31 32  2  0
 11  7  1  0
 22 12  1  0
 32 23  1  0
 31 26  1  0
  3 33  1  0
  4 34  1  0
  4 35  1  0
  8 36  1  0
  8 37  1  0
  9 38  1  0
  9 39  1  0
 10 40  1  0
 10 41  1  0
 11 42  1  6
 13 43  1  0
 14 44  1  0
 15 45  1  0
 22 46  1  0
 24 47  1  0
 25 48  1  0
 27 49  1  0
 28 50  1  0
 29 51  1  0
 30 52  1  0
M  END
>  <smiles>  (32) 
O=C(NCC(=O)N1CCCC1c1cccc(OC(F)(F)F)c1)c1ccc2ccccc2n1

>  <score_type>  (32) 
oracle

>  <origin>  (32) 
autodockgpu

>  <m_score__min__energy>  (32) 
-8.5999999999999996

>  <m_primary>  (32) 
energy

>  <rmsd>  (32) 
3.0854145267017765

>  <m_score__min__rmsd>  (32) 
3.0854145267017765

>  <meeko>  (32) 
{"free_energy": -7.72, "intermolecular_energy": -9.8, "internal_energy": -1.17, "cluster_size": 2, "cluster_id": 4, "rank_in_cluster": 2}

>  <energy>  (32) 
-7.96

>  <cluster_rmsd>  (32) 
0.67

>  <cluster>  (32) 
3

$$$$

     RDKit          3D

 52 55  0  0  0  0  0  0  0  0999 V2000
  141.1590   71.5330  221.4520 O   0  0  0  0  0  0  0  0  0  0  0  0
  140.4270   72.0400  222.3610 C   0  0  0  0  0  0  0  0  0  0  0  0
  139.8090   73.2840  222.0160 N   0  0  0  0  0  0  0  0  0  0  0  0
  140.0930   73.8000  220.6930 C   0  0  0  0  0  0  0  0  0  0  0  0
  140.6880   75.1420  220.7530 C   0  0  0  0  0  0  0  0  0  0  0  0
  141.8670   75.3830  220.3530 O   0  0  0  0  0  0  0  0  0  0  0  0
  139.9000   76.2020  221.2820 N   0  0  0  0  0  0  0  0  0  0  0  0
  139.0630   77.1600  220.5420 C   0  0  0  0  0  0  0  0  0  0  0  0
  137.8530   77.2570  221.4540 C   0  0  0  0  0  0  0  0  0  0  0  0
  138.1960   76.5110  222.7220 C   0  0  0  0  0  0  0  0  0  0  0  0
  139.7250   76.5970  222.6790 C   0  0  2  0  0  0  0  0  0  0  0  0
  140.1870   78.0150  222.7480 C   0  0  0  0  0  0  0  0  0  0  0  0
  141.4010   78.3710  222.1880 C   0  0  0  0  0  0  0  0  0  0  0  0
  141.8620   79.6890  222.2370 C   0  0  0  0  0  0  0  0  0  0  0  0
  141.1010   80.6630  222.8520 C   0  0  0  0  0  0  0  0  0  0  0  0
  139.8860   80.3300  223.4190 C   0  0  0  0  0  0  0  0  0  0  0  0
  139.0880   81.2710  224.0470 O   0  0  0  0  0  0  0  0  0  0  0  0
  137.6810   81.2670  223.9080 C   0  0  0  0  0  0  0  0  0  0  0  0
  137.3250   80.7510  222.6730 F   0  0  0  0  0  0  0  0  0  0  0  0
  137.1330   80.5240  224.9440 F   0  0  0  0  0  0  0  0  0  0  0  0
  137.2640   82.5950  223.9600 F   0  0  0  0  0  0  0  0  0  0  0  0
  139.4600   79.0100  223.3510 C   0  0  0  0  0  0  0  0  0  0  0  0
  140.2390   71.3980  223.6420 C   0  0  0  0  0  0  0  0  0  0  0  0
  139.5460   70.2180  223.6870 C   0  0  0  0  0  0  0  0  0  0  0  0
  139.3180   69.5360  224.8630 C   0  0  0  0  0  0  0  0  0  0  0  0
  139.7980   70.0430  226.0470 C   0  0  0  0  0  0  0  0  0  0  0  0
  139.5770   69.3730  227.2200 C   0  0  0  0  0  0  0  0  0  0  0  0
  140.0700   69.9080  228.3770 C   0  0  0  0  0  0  0  0  0  0  0  0
  140.7820   71.1130  228.3530 C   0  0  0  0  0  0  0  0  0  0  0  0
  140.9960   71.7810  227.1500 C   0  0  0  0  0  0  0  0  0  0  0  0
  140.5010   71.2440  225.9800 C   0  0  0  0  0  0  0  0  0  0  0  0
  140.7050   71.8870  224.8080 N   0  0  0  0  0  0  0  0  0  0  0  0
  139.1910   73.7660  222.7080 H   0  0  0  0  0  0  0  0  0  0  0  0
  140.7950   73.1204  220.1877 H   0  0  0  0  0  0  0  0  0  0  0  0
  139.1451   73.8680  220.1390 H   0  0  0  0  0  0  0  0  0  0  0  0
  139.5644   78.1329  220.4320 H   0  0  0  0  0  0  0  0  0  0  0  0
  138.8293   76.8546  219.5114 H   0  0  0  0  0  0  0  0  0  0  0  0
  137.6355   78.3108  221.6825 H   0  0  0  0  0  0  0  0  0  0  0  0
  136.9627   76.8257  220.9729 H   0  0  0  0  0  0  0  0  0  0  0  0
  137.7844   77.0091  223.6122 H   0  0  0  0  0  0  0  0  0  0  0  0
  137.7919   75.4896  222.7812 H   0  0  0  0  0  0  0  0  0  0  0  0
  140.2379   76.0349  223.4733 H   0  0  0  0  0  0  0  0  0  0  0  0
  142.0145   77.6024  221.6952 H   0  0  0  0  0  0  0  0  0  0  0  0
  142.8306   79.9504  221.7859 H   0  0  0  0  0  0  0  0  0  0  0  0
  141.4612   81.7016  222.8905 H   0  0  0  0  0  0  0  0  0  0  0  0
  138.4917   78.7493  223.8030 H   0  0  0  0  0  0  0  0  0  0  0  0
  139.1560   69.7979  222.7482 H   0  0  0  0  0  0  0  0  0  0  0  0
  138.7549   68.5911  224.8540 H   0  0  0  0  0  0  0  0  0  0  0  0
  139.0161   68.4268  227.2312 H   0  0  0  0  0  0  0  0  0  0  0  0
  139.9063   69.3886  229.3327 H   0  0  0  0  0  0  0  0  0  0  0  0
  141.1748   71.5347  229.2899 H   0  0  0  0  0  0  0  0  0  0  0  0
  141.5548   72.7284  227.1330 H   0  0  0  0  0  0  0  0  0  0  0  0
  1  2  2  0
  2  3  1  0
  3  4  1  0
  4  5  1  0
  5  6  2  0
  5  7  1  0
  7  8  1  0
  8  9  1  0
  9 10  1  0
 10 11  1  0
 11 12  1  0
 12 13  2  0
 13 14  1  0
 14 15  2  0
 15 16  1  0
 16 17  1  0
 17 18  1  0
 18 19  1  0
 18 20  1  0
 18 21  1  0
 16 22  2  0
  2 23  1  0
 23 24  2  0
 24 25  1  0
 25 26  2  0
 26 27  1  0
 27 28  2  0
 28 29  1  0
 29 30  2  0
 30 31  1  0
 31 32  2  0
 11  7  1  0
 22 12  1  0
 32 23  1  0
 31 26  1  0
  3 33  1  0
  4 34  1  0
  4 35  1  0
  8 36  1  0
  8 37  1  0
  9 38  1  0
  9 39  1  0
 10 40  1  0
 10 41  1  0
 11 42  1  1
 13 43  1  0
 14 44  1  0
 15 45  1  0
 22 46  1  0
 24 47  1  0
 25 48  1  0
 27 49  1  0
 28 50  1  0
 29 51  1  0
 30 52  1  0
M  END
>  <smiles>  (33) 
O=C(NCC(=O)N1CCCC1c1cccc(OC(F)(F)F)c1)c1ccc2ccccc2n1

>  <score_type>  (33) 
oracle

>  <origin>  (33) 
autodockgpu

>  <m_score__min__energy>  (33) 
-8.5999999999999996

>  <m_primary>  (33) 
energy

>  <rmsd>  (33) 
2.74210171411215

>  <m_score__min__rmsd>  (33) 
2.74210171411215

>  <meeko>  (33) 
{"free_energy": -7.95, "intermolecular_energy": -10.04, "internal_energy": -1.41, "cluster_size": 23, "cluster_id": 2, "rank_in_cluster": 14}

>  <energy>  (33) 
-7.92

>  <cluster_rmsd>  (33) 
1.01

>  <cluster>  (33) 
3

$$$$

     RDKit          3D

 52 55  0  0  0  0  0  0  0  0999 V2000
  140.9030   71.4780  221.3220 O   0  0  0  0  0  0  0  0  0  0  0  0
  140.2690   71.9960  222.2970 C   0  0  0  0  0  0  0  0  0  0  0  0
  139.6440   73.2530  222.0120 N   0  0  0  0  0  0  0  0  0  0  0  0
  139.8120   73.7670  220.6690 C   0  0  0  0  0  0  0  0  0  0  0  0
  140.4760   75.0780  220.6710 C   0  0  0  0  0  0  0  0  0  0  0  0
  141.6450   75.2510  220.2140 O   0  0  0  0  0  0  0  0  0  0  0  0
  139.7650   76.1870  221.2120 N   0  0  0  0  0  0  0  0  0  0  0  0
  139.0240   77.2270  220.4800 C   0  0  0  0  0  0  0  0  0  0  0  0
  137.8090   77.4020  221.3720 C   0  0  0  0  0  0  0  0  0  0  0  0
  138.0640   76.6010  222.6270 C   0  0  0  0  0  0  0  0  0  0  0  0
  139.5960   76.5630  222.6140 C   0  0  2  0  0  0  0  0  0  0  0  0
  140.1700   77.9370  222.7260 C   0  0  0  0  0  0  0  0  0  0  0  0
  141.4530   78.1840  222.2710 C   0  0  0  0  0  0  0  0  0  0  0  0
  142.0200   79.4580  222.3620 C   0  0  0  0  0  0  0  0  0  0  0  0
  141.2960   80.4970  222.9140 C   0  0  0  0  0  0  0  0  0  0  0  0
  140.0140   80.2720  223.3750 C   0  0  0  0  0  0  0  0  0  0  0  0
  139.2480   81.2810  223.9370 O   0  0  0  0  0  0  0  0  0  0  0  0
  137.8360   81.2570  223.8920 C   0  0  0  0  0  0  0  0  0  0  0  0
  137.3290   82.5220  224.1400 F   0  0  0  0  0  0  0  0  0  0  0  0
  137.4370   80.7870  222.6480 F   0  0  0  0  0  0  0  0  0  0  0  0
  137.4120   80.4110  224.9140 F   0  0  0  0  0  0  0  0  0  0  0  0
  139.4830   78.9930  223.2680 C   0  0  0  0  0  0  0  0  0  0  0  0
  140.1900   71.3550  223.5900 C   0  0  0  0  0  0  0  0  0  0  0  0
  139.6000   70.1220  223.6730 C   0  0  0  0  0  0  0  0  0  0  0  0
  139.4800   69.4360  224.8620 C   0  0  0  0  0  0  0  0  0  0  0  0
  139.9660   69.9940  226.0210 C   0  0  0  0  0  0  0  0  0  0  0  0
  139.8520   69.3200  227.2060 C   0  0  0  0  0  0  0  0  0  0  0  0
  140.3460   69.9070  228.3380 C   0  0  0  0  0  0  0  0  0  0  0  0
  140.9530   71.1670  228.2750 C   0  0  0  0  0  0  0  0  0  0  0  0
  141.0600   71.8370  227.0590 C   0  0  0  0  0  0  0  0  0  0  0  0
  140.5620   71.2480  225.9150 C   0  0  0  0  0  0  0  0  0  0  0  0
  140.6620   71.8930  224.7310 N   0  0  0  0  0  0  0  0  0  0  0  0
  139.1030   73.7440  222.7590 H   0  0  0  0  0  0  0  0  0  0  0  0
  140.4221   73.0587  220.0893 H   0  0  0  0  0  0  0  0  0  0  0  0
  138.8154   73.8866  220.2191 H   0  0  0  0  0  0  0  0  0  0  0  0
  139.6052   78.1577  220.4024 H   0  0  0  0  0  0  0  0  0  0  0  0
  138.7868   76.9653  219.4382 H   0  0  0  0  0  0  0  0  0  0  0  0
  137.6743   78.4645  221.6228 H   0  0  0  0  0  0  0  0  0  0  0  0
  136.8962   77.0568  220.8644 H   0  0  0  0  0  0  0  0  0  0  0  0
  137.6761   77.1100  223.5217 H   0  0  0  0  0  0  0  0  0  0  0  0
  137.5770   75.6150  222.6535 H   0  0  0  0  0  0  0  0  0  0  0  0
  140.0463   75.9433  223.4034 H   0  0  0  0  0  0  0  0  0  0  0  0
  142.0371   77.3630  221.8298 H   0  0  0  0  0  0  0  0  0  0  0  0
  143.0418   79.6333  221.9944 H   0  0  0  0  0  0  0  0  0  0  0  0
  141.7396   81.5010  222.9861 H   0  0  0  0  0  0  0  0  0  0  0  0
  138.4612   78.8185  223.6361 H   0  0  0  0  0  0  0  0  0  0  0  0
  139.2066   69.6613  222.7549 H   0  0  0  0  0  0  0  0  0  0  0  0
  138.9981   68.4474  224.8839 H   0  0  0  0  0  0  0  0  0  0  0  0
  139.3746   68.3299  227.2472 H   0  0  0  0  0  0  0  0  0  0  0  0
  140.2660   69.3862  229.3036 H   0  0  0  0  0  0  0  0  0  0  0  0
  141.3477   71.6303  229.1913 H   0  0  0  0  0  0  0  0  0  0  0  0
  141.5372   72.8269  227.0109 H   0  0  0  0  0  0  0  0  0  0  0  0
  1  2  2  0
  2  3  1  0
  3  4  1  0
  4  5  1  0
  5  6  2  0
  5  7  1  0
  7  8  1  0
  8  9  1  0
  9 10  1  0
 10 11  1  0
 11 12  1  0
 12 13  2  0
 13 14  1  0
 14 15  2  0
 15 16  1  0
 16 17  1  0
 17 18  1  0
 18 19  1  0
 18 20  1  0
 18 21  1  0
 16 22  2  0
  2 23  1  0
 23 24  2  0
 24 25  1  0
 25 26  2  0
 26 27  1  0
 27 28  2  0
 28 29  1  0
 29 30  2  0
 30 31  1  0
 31 32  2  0
 11  7  1  0
 22 12  1  0
 32 23  1  0
 31 26  1  0
  3 33  1  0
  4 34  1  0
  4 35  1  0
  8 36  1  0
  8 37  1  0
  9 38  1  0
  9 39  1  0
 10 40  1  0
 10 41  1  0
 11 42  1  1
 13 43  1  0
 14 44  1  0
 15 45  1  0
 22 46  1  0
 24 47  1  0
 25 48  1  0
 27 49  1  0
 28 50  1  0
 29 51  1  0
 30 52  1  0
M  END
>  <smiles>  (34) 
O=C(NCC(=O)N1CCCC1c1cccc(OC(F)(F)F)c1)c1ccc2ccccc2n1

>  <score_type>  (34) 
oracle

>  <origin>  (34) 
autodockgpu

>  <m_score__min__energy>  (34) 
-8.5999999999999996

>  <m_primary>  (34) 
energy

>  <rmsd>  (34) 
2.6936581560068316

>  <m_score__min__rmsd>  (34) 
2.6936581560068316

>  <meeko>  (34) 
{"free_energy": -7.98, "intermolecular_energy": -10.07, "internal_energy": -1.39, "cluster_size": 23, "cluster_id": 2, "rank_in_cluster": 13}

>  <energy>  (34) 
-7.87

>  <cluster_rmsd>  (34) 
0.63

>  <cluster>  (34) 
3

$$$$

     RDKit          3D

 52 55  0  0  0  0  0  0  0  0999 V2000
  140.9080   74.2380  220.7180 O   0  0  0  0  0  0  0  0  0  0  0  0
  140.2650   75.0710  221.4340 C   0  0  0  0  0  0  0  0  0  0  0  0
  139.0940   74.5460  222.0680 N   0  0  0  0  0  0  0  0  0  0  0  0
  138.7950   73.1510  221.8170 C   0  0  0  0  0  0  0  0  0  0  0  0
  139.6030   72.2640  222.6650 C   0  0  0  0  0  0  0  0  0  0  0  0
  140.8450   72.4410  222.8470 O   0  0  0  0  0  0  0  0  0  0  0  0
  138.9530   71.1700  223.3010 N   0  0  0  0  0  0  0  0  0  0  0  0
  137.8190   71.2140  224.2380 C   0  0  0  0  0  0  0  0  0  0  0  0
  137.0060   70.0210  223.7710 C   0  0  0  0  0  0  0  0  0  0  0  0
  137.8460   69.2870  222.7520 C   0  0  0  0  0  0  0  0  0  0  0  0
  139.2450   69.7420  223.1800 C   0  0  2  0  0  0  0  0  0  0  0  0
  139.5610   69.2850  224.5660 C   0  0  0  0  0  0  0  0  0  0  0  0
  139.0440   68.0880  225.0290 C   0  0  0  0  0  0  0  0  0  0  0  0
  139.3200   67.6320  226.3200 C   0  0  0  0  0  0  0  0  0  0  0  0
  140.1220   68.3820  227.1590 C   0  0  0  0  0  0  0  0  0  0  0  0
  140.6480   69.5800  226.7180 C   0  0  0  0  0  0  0  0  0  0  0  0
  141.4570   70.3660  227.5210 O   0  0  0  0  0  0  0  0  0  0  0  0
  140.9950   71.5760  228.0860 C   0  0  0  0  0  0  0  0  0  0  0  0
  141.0640   72.5970  227.1530 F   0  0  0  0  0  0  0  0  0  0  0  0
  139.6960   71.3900  228.5380 F   0  0  0  0  0  0  0  0  0  0  0  0
  141.8570   71.8890  229.1350 F   0  0  0  0  0  0  0  0  0  0  0  0
  140.3520   70.0010  225.4270 C   0  0  0  0  0  0  0  0  0  0  0  0
  140.6940   76.4420  221.5890 C   0  0  0  0  0  0  0  0  0  0  0  0
  140.7180   77.2490  220.4830 C   0  0  0  0  0  0  0  0  0  0  0  0
  141.1120   78.5680  220.5350 C   0  0  0  0  0  0  0  0  0  0  0  0
  141.4990   79.1150  221.7360 C   0  0  0  0  0  0  0  0  0  0  0  0
  141.8930   80.4240  221.7980 C   0  0  0  0  0  0  0  0  0  0  0  0
  142.2710   80.9330  223.0090 C   0  0  0  0  0  0  0  0  0  0  0  0
  142.2540   80.1260  224.1520 C   0  0  0  0  0  0  0  0  0  0  0  0
  141.8510   78.7950  224.0700 C   0  0  0  0  0  0  0  0  0  0  0  0
  141.4680   78.2780  222.8490 C   0  0  0  0  0  0  0  0  0  0  0  0
  141.0760   76.9880  222.7610 N   0  0  0  0  0  0  0  0  0  0  0  0
  138.5090   75.1650  222.6740 H   0  0  0  0  0  0  0  0  0  0  0  0
  137.7299   72.9711  222.0250 H   0  0  0  0  0  0  0  0  0  0  0  0
  139.0322   72.9319  220.7655 H   0  0  0  0  0  0  0  0  0  0  0  0
  138.1515   71.0927  225.2795 H   0  0  0  0  0  0  0  0  0  0  0  0
  137.2674   72.1657  224.2356 H   0  0  0  0  0  0  0  0  0  0  0  0
  136.7810   69.3607  224.6215 H   0  0  0  0  0  0  0  0  0  0  0  0
  136.0501   70.3441  223.3330 H   0  0  0  0  0  0  0  0  0  0  0  0
  137.7283   68.1965  222.8357 H   0  0  0  0  0  0  0  0  0  0  0  0
  137.5912   69.4994  221.7032 H   0  0  0  0  0  0  0  0  0  0  0  0
  140.0580   69.4052  222.5200 H   0  0  0  0  0  0  0  0  0  0  0  0
  138.4041   67.4846  224.3684 H   0  0  0  0  0  0  0  0  0  0  0  0
  138.8995   66.6771  226.6684 H   0  0  0  0  0  0  0  0  0  0  0  0
  140.3409   68.0253  228.1763 H   0  0  0  0  0  0  0  0  0  0  0  0
  140.7731   70.9557  225.0789 H   0  0  0  0  0  0  0  0  0  0  0  0
  140.4105   76.8273  219.5147 H   0  0  0  0  0  0  0  0  0  0  0  0
  141.1170   79.1802  219.6211 H   0  0  0  0  0  0  0  0  0  0  0  0
  141.9053   81.0517  220.8948 H   0  0  0  0  0  0  0  0  0  0  0  0
  142.5903   81.9829  223.0854 H   0  0  0  0  0  0  0  0  0  0  0  0
  142.5608   80.5453  225.1215 H   0  0  0  0  0  0  0  0  0  0  0  0
  141.8382   78.1622  224.9697 H   0  0  0  0  0  0  0  0  0  0  0  0
  1  2  2  0
  2  3  1  0
  3  4  1  0
  4  5  1  0
  5  6  2  0
  5  7  1  0
  7  8  1  0
  8  9  1  0
  9 10  1  0
 10 11  1  0
 11 12  1  0
 12 13  2  0
 13 14  1  0
 14 15  2  0
 15 16  1  0
 16 17  1  0
 17 18  1  0
 18 19  1  0
 18 20  1  0
 18 21  1  0
 16 22  2  0
  2 23  1  0
 23 24  2  0
 24 25  1  0
 25 26  2  0
 26 27  1  0
 27 28  2  0
 28 29  1  0
 29 30  2  0
 30 31  1  0
 31 32  2  0
 11  7  1  0
 22 12  1  0
 32 23  1  0
 31 26  1  0
  3 33  1  0
  4 34  1  0
  4 35  1  0
  8 36  1  0
  8 37  1  0
  9 38  1  0
  9 39  1  0
 10 40  1  0
 10 41  1  0
 11 42  1  6
 13 43  1  0
 14 44  1  0
 15 45  1  0
 22 46  1  0
 24 47  1  0
 25 48  1  0
 27 49  1  0
 28 50  1  0
 29 51  1  0
 30 52  1  0
M  END
>  <smiles>  (35) 
O=C(NCC(=O)N1CCCC1c1cccc(OC(F)(F)F)c1)c1ccc2ccccc2n1

>  <score_type>  (35) 
oracle

>  <origin>  (35) 
autodockgpu

>  <m_score__min__energy>  (35) 
-8.5999999999999996

>  <m_primary>  (35) 
energy

>  <rmsd>  (35) 
8.34987518526963

>  <m_score__min__rmsd>  (35) 
8.34987518526963

>  <meeko>  (35) 
{"free_energy": -8.29, "intermolecular_energy": -10.38, "internal_energy": -1.24, "cluster_size": 5, "cluster_id": 1, "rank_in_cluster": 4}

>  <energy>  (35) 
-7.76

>  <cluster_rmsd>  (35) 
1.41

>  <cluster>  (35) 
3

$$$$

     RDKit          3D

 52 55  0  0  0  0  0  0  0  0999 V2000
  140.6540   73.1660  222.3490 O   0  0  0  0  0  0  0  0  0  0  0  0
  139.8090   72.2550  222.6250 C   0  0  0  0  0  0  0  0  0  0  0  0
  138.7470   72.1060  221.6760 N   0  0  0  0  0  0  0  0  0  0  0  0
  138.7710   73.0010  220.5370 C   0  0  0  0  0  0  0  0  0  0  0  0
  137.7420   74.0430  220.6470 C   0  0  0  0  0  0  0  0  0  0  0  0
  136.5350   73.8480  220.3120 O   0  0  0  0  0  0  0  0  0  0  0  0
  138.1300   75.3160  221.1520 N   0  0  0  0  0  0  0  0  0  0  0  0
  137.6990   76.6430  220.6810 C   0  0  0  0  0  0  0  0  0  0  0  0
  137.5340   77.3800  221.9980 C   0  0  0  0  0  0  0  0  0  0  0  0
  138.0800   76.4790  223.0800 C   0  0  0  0  0  0  0  0  0  0  0  0
  139.0430   75.6200  222.2530 C   0  0  2  0  0  0  0  0  0  0  0  0
  140.1260   76.4520  221.6500 C   0  0  0  0  0  0  0  0  0  0  0  0
  140.7990   75.9970  220.5310 C   0  0  0  0  0  0  0  0  0  0  0  0
  141.8180   76.7510  219.9430 C   0  0  0  0  0  0  0  0  0  0  0  0
  142.1680   77.9740  220.4800 C   0  0  0  0  0  0  0  0  0  0  0  0
  141.5090   78.4470  221.5980 C   0  0  0  0  0  0  0  0  0  0  0  0
  141.8230   79.6680  222.1730 O   0  0  0  0  0  0  0  0  0  0  0  0
  141.7290   79.8810  223.5670 C   0  0  0  0  0  0  0  0  0  0  0  0
  142.0850   78.7300  224.2510 F   0  0  0  0  0  0  0  0  0  0  0  0
  142.5470   80.9480  223.9110 F   0  0  0  0  0  0  0  0  0  0  0  0
  140.3920   80.1550  223.8460 F   0  0  0  0  0  0  0  0  0  0  0  0
  140.5000   77.6700  222.1550 C   0  0  0  0  0  0  0  0  0  0  0  0
  139.9220   71.4370  223.8110 C   0  0  0  0  0  0  0  0  0  0  0  0
  139.4840   70.1400  223.7550 C   0  0  0  0  0  0  0  0  0  0  0  0
  139.5520   69.2880  224.8350 C   0  0  0  0  0  0  0  0  0  0  0  0
  140.0780   69.7360  226.0240 C   0  0  0  0  0  0  0  0  0  0  0  0
  140.1500   68.8960  227.1020 C   0  0  0  0  0  0  0  0  0  0  0  0
  140.6780   69.3780  228.2670 C   0  0  0  0  0  0  0  0  0  0  0  0
  141.1310   70.7000  228.3460 C   0  0  0  0  0  0  0  0  0  0  0  0
  141.0500   71.5400  227.2380 C   0  0  0  0  0  0  0  0  0  0  0  0
  140.5170   71.0570  226.0600 C   0  0  0  0  0  0  0  0  0  0  0  0
  140.4350   71.8670  224.9810 N   0  0  0  0  0  0  0  0  0  0  0  0
  138.0120   71.3800  221.8290 H   0  0  0  0  0  0  0  0  0  0  0  0
  139.7596   73.4800  220.4801 H   0  0  0  0  0  0  0  0  0  0  0  0
  138.5679   72.4109  219.6312 H   0  0  0  0  0  0  0  0  0  0  0  0
  138.4646   77.1148  220.0475 H   0  0  0  0  0  0  0  0  0  0  0  0
  136.7957   76.6294  220.0534 H   0  0  0  0  0  0  0  0  0  0  0  0
  138.0957   78.3255  221.9747 H   0  0  0  0  0  0  0  0  0  0  0  0
  136.4766   77.6199  222.1836 H   0  0  0  0  0  0  0  0  0  0  0  0
  138.6081   77.0497  223.8581 H   0  0  0  0  0  0  0  0  0  0  0  0
  137.3195   75.9138  223.6387 H   0  0  0  0  0  0  0  0  0  0  0  0
  139.5186   74.7992  222.8099 H   0  0  0  0  0  0  0  0  0  0  0  0
  140.5273   75.0239  220.0959 H   0  0  0  0  0  0  0  0  0  0  0  0
  142.3409   76.3706  219.0531 H   0  0  0  0  0  0  0  0  0  0  0  0
  142.9693   78.5699  220.0188 H   0  0  0  0  0  0  0  0  0  0  0  0
  139.9763   78.0511  223.0441 H   0  0  0  0  0  0  0  0  0  0  0  0
  139.0618   69.7647  222.8111 H   0  0  0  0  0  0  0  0  0  0  0  0
  139.1873   68.2540  224.7469 H   0  0  0  0  0  0  0  0  0  0  0  0
  139.7917   67.8583  227.0326 H   0  0  0  0  0  0  0  0  0  0  0  0
  140.7473   68.7229  229.1479 H   0  0  0  0  0  0  0  0  0  0  0  0
  141.5535   71.0778  229.2888 H   0  0  0  0  0  0  0  0  0  0  0  0
  141.4074   72.5784  227.3011 H   0  0  0  0  0  0  0  0  0  0  0  0
  1  2  2  0
  2  3  1  0
  3  4  1  0
  4  5  1  0
  5  6  2  0
  5  7  1  0
  7  8  1  0
  8  9  1  0
  9 10  1  0
 10 11  1  0
 11 12  1  0
 12 13  2  0
 13 14  1  0
 14 15  2  0
 15 16  1  0
 16 17  1  0
 17 18  1  0
 18 19  1  0
 18 20  1  0
 18 21  1  0
 16 22  2  0
  2 23  1  0
 23 24  2  0
 24 25  1  0
 25 26  2  0
 26 27  1  0
 27 28  2  0
 28 29  1  0
 29 30  2  0
 30 31  1  0
 31 32  2  0
 11  7  1  0
 22 12  1  0
 32 23  1  0
 31 26  1  0
  3 33  1  0
  4 34  1  0
  4 35  1  0
  8 36  1  0
  8 37  1  0
  9 38  1  0
  9 39  1  0
 10 40  1  0
 10 41  1  0
 11 42  1  1
 13 43  1  0
 14 44  1  0
 15 45  1  0
 22 46  1  0
 24 47  1  0
 25 48  1  0
 27 49  1  0
 28 50  1  0
 29 51  1  0
 30 52  1  0
M  END
>  <smiles>  (36) 
O=C(NCC(=O)N1CCCC1c1cccc(OC(F)(F)F)c1)c1ccc2ccccc2n1

>  <score_type>  (36) 
oracle

>  <origin>  (36) 
autodockgpu

>  <m_score__min__energy>  (36) 
-8.5999999999999996

>  <m_primary>  (36) 
energy

>  <rmsd>  (36) 
2.903192161591215

>  <m_score__min__rmsd>  (36) 
2.903192161591215

>  <meeko>  (36) 
{"free_energy": -7.41, "intermolecular_energy": -9.5, "internal_energy": -1.57, "cluster_size": 9, "cluster_id": 3, "rank_in_cluster": 8}

>  <energy>  (36) 
-7.41

>  <cluster_rmsd>  (36) 
1.96

>  <cluster>  (36) 
3

$$$$

     RDKit          3D

 52 55  0  0  0  0  0  0  0  0999 V2000
  140.6950   71.7130  221.3780 O   0  0  0  0  0  0  0  0  0  0  0  0
  140.2240   72.2210  222.4460 C   0  0  0  0  0  0  0  0  0  0  0  0
  139.7690   73.5730  222.3230 N   0  0  0  0  0  0  0  0  0  0  0  0
  139.9000   74.1820  221.0160 C   0  0  0  0  0  0  0  0  0  0  0  0
  141.2570   74.7000  220.7950 C   0  0  0  0  0  0  0  0  0  0  0  0
  142.2840   73.9570  220.8240 O   0  0  0  0  0  0  0  0  0  0  0  0
  141.4090   76.0920  220.5400 N   0  0  0  0  0  0  0  0  0  0  0  0
  142.6190   76.8010  220.0930 C   0  0  0  0  0  0  0  0  0  0  0  0
  142.0310   77.7890  219.1030 C   0  0  0  0  0  0  0  0  0  0  0  0
  140.5280   77.6950  219.2270 C   0  0  0  0  0  0  0  0  0  0  0  0
  140.4100   77.1530  220.6550 C   0  0  2  0  0  0  0  0  0  0  0  0
  140.9710   78.1180  221.6460 C   0  0  0  0  0  0  0  0  0  0  0  0
  141.3140   77.6800  222.9130 C   0  0  0  0  0  0  0  0  0  0  0  0
  141.8410   78.5580  223.8640 C   0  0  0  0  0  0  0  0  0  0  0  0
  142.0290   79.8890  223.5450 C   0  0  0  0  0  0  0  0  0  0  0  0
  141.6930   80.3470  222.2860 C   0  0  0  0  0  0  0  0  0  0  0  0
  141.8620   81.6720  221.9190 O   0  0  0  0  0  0  0  0  0  0  0  0
  140.9340   82.3390  221.0880 C   0  0  0  0  0  0  0  0  0  0  0  0
  141.0660   83.7110  221.2290 F   0  0  0  0  0  0  0  0  0  0  0  0
  141.1450   81.9420  219.7750 F   0  0  0  0  0  0  0  0  0  0  0  0
  139.6630   81.9780  221.5290 F   0  0  0  0  0  0  0  0  0  0  0  0
  141.1720   79.4460  221.3660 C   0  0  0  0  0  0  0  0  0  0  0  0
  140.1580   71.4800  223.6850 C   0  0  0  0  0  0  0  0  0  0  0  0
  139.5470   70.2540  223.6810 C   0  0  0  0  0  0  0  0  0  0  0  0
  139.4370   69.4770  224.8140 C   0  0  0  0  0  0  0  0  0  0  0  0
  139.9550   69.9320  226.0030 C   0  0  0  0  0  0  0  0  0  0  0  0
  139.8510   69.1680  227.1330 C   0  0  0  0  0  0  0  0  0  0  0  0
  140.3780   69.6530  228.2980 C   0  0  0  0  0  0  0  0  0  0  0  0
  141.0070   70.9030  228.3230 C   0  0  0  0  0  0  0  0  0  0  0  0
  141.1030   71.6670  227.1630 C   0  0  0  0  0  0  0  0  0  0  0  0
  140.5720   71.1810  225.9860 C   0  0  0  0  0  0  0  0  0  0  0  0
  140.6620   71.9170  224.8560 N   0  0  0  0  0  0  0  0  0  0  0  0
  139.3680   74.0640  223.1550 H   0  0  0  0  0  0  0  0  0  0  0  0
  139.6758   73.4283  220.2468 H   0  0  0  0  0  0  0  0  0  0  0  0
  139.1957   75.0249  220.9567 H   0  0  0  0  0  0  0  0  0  0  0  0
  143.1171   77.3150  220.9283 H   0  0  0  0  0  0  0  0  0  0  0  0
  143.3964   76.1469  219.6713 H   0  0  0  0  0  0  0  0  0  0  0  0
  142.3670   78.8088  219.3419 H   0  0  0  0  0  0  0  0  0  0  0  0
  142.3560   77.5588  218.0777 H   0  0  0  0  0  0  0  0  0  0  0  0
  140.0478   78.6792  219.1233 H   0  0  0  0  0  0  0  0  0  0  0  0
  140.0380   77.0807  218.4572 H   0  0  0  0  0  0  0  0  0  0  0  0
  139.3849   76.9054  220.9680 H   0  0  0  0  0  0  0  0  0  0  0  0
  141.1693   76.6218  223.1763 H   0  0  0  0  0  0  0  0  0  0  0  0
  142.1060   78.1895  224.8660 H   0  0  0  0  0  0  0  0  0  0  0  0
  142.4450   80.5818  224.2913 H   0  0  0  0  0  0  0  0  0  0  0  0
  140.9077   79.8153  220.3641 H   0  0  0  0  0  0  0  0  0  0  0  0
  139.1280   69.8750  222.7372 H   0  0  0  0  0  0  0  0  0  0  0  0
  138.9374   68.4981  224.7669 H   0  0  0  0  0  0  0  0  0  0  0  0
  139.3551   68.1865  227.1052 H   0  0  0  0  0  0  0  0  0  0  0  0
  140.3072   69.0576  229.2202 H   0  0  0  0  0  0  0  0  0  0  0  0
  141.4282   71.2842  229.2650 H   0  0  0  0  0  0  0  0  0  0  0  0
  141.5977   72.6492  227.1847 H   0  0  0  0  0  0  0  0  0  0  0  0
  1  2  2  0
  2  3  1  0
  3  4  1  0
  4  5  1  0
  5  6  2  0
  5  7  1  0
  7  8  1  0
  8  9  1  0
  9 10  1  0
 10 11  1  0
 11 12  1  0
 12 13  2  0
 13 14  1  0
 14 15  2  0
 15 16  1  0
 16 17  1  0
 17 18  1  0
 18 19  1  0
 18 20  1  0
 18 21  1  0
 16 22  2  0
  2 23  1  0
 23 24  2  0
 24 25  1  0
 25 26  2  0
 26 27  1  0
 27 28  2  0
 28 29  1  0
 29 30  2  0
 30 31  1  0
 31 32  2  0
 11  7  1  0
 22 12  1  0
 32 23  1  0
 31 26  1  0
  3 33  1  0
  4 34  1  0
  4 35  1  0
  8 36  1  0
  8 37  1  0
  9 38  1  0
  9 39  1  0
 10 40  1  0
 10 41  1  0
 11 42  1  1
 13 43  1  0
 14 44  1  0
 15 45  1  0
 22 46  1  0
 24 47  1  0
 25 48  1  0
 27 49  1  0
 28 50  1  0
 29 51  1  0
 30 52  1  0
M  END
>  <smiles>  (37) 
O=C(NCC(=O)N1CCCC1c1cccc(OC(F)(F)F)c1)c1ccc2ccccc2n1

>  <score_type>  (37) 
oracle

>  <origin>  (37) 
autodockgpu

>  <m_score__min__energy>  (37) 
-8.5999999999999996

>  <m_primary>  (37) 
energy

>  <rmsd>  (37) 
2.146555670390363

>  <m_score__min__rmsd>  (37) 
2.146555670390363

>  <meeko>  (37) 
{"free_energy": -8.5, "intermolecular_energy": -10.59, "internal_energy": -1.25, "cluster_size": 23, "cluster_id": 2, "rank_in_cluster": 1}

>  <energy>  (37) 
-7.4

>  <cluster_rmsd>  (37) 
1.4

>  <cluster>  (37) 
3

$$$$

     RDKit          3D

 52 55  0  0  0  0  0  0  0  0999 V2000
  140.7170   74.1040  220.5520 O   0  0  0  0  0  0  0  0  0  0  0  0
  140.2640   74.9320  221.4070 C   0  0  0  0  0  0  0  0  0  0  0  0
  139.2460   74.4150  222.2690 N   0  0  0  0  0  0  0  0  0  0  0  0
  138.8650   73.0320  222.0620 C   0  0  0  0  0  0  0  0  0  0  0  0
  139.6980   72.1180  222.8560 C   0  0  0  0  0  0  0  0  0  0  0  0
  140.9320   72.3240  223.0600 O   0  0  0  0  0  0  0  0  0  0  0  0
  139.0800   70.9620  223.4100 N   0  0  0  0  0  0  0  0  0  0  0  0
  137.8550   70.8950  224.2220 C   0  0  0  0  0  0  0  0  0  0  0  0
  137.2010   69.6450  223.6630 C   0  0  0  0  0  0  0  0  0  0  0  0
  138.2030   69.0020  222.7340 C   0  0  0  0  0  0  0  0  0  0  0  0
  139.5060   69.5670  223.3110 C   0  0  2  0  0  0  0  0  0  0  0  0
  139.7120   69.1160  224.7190 C   0  0  0  0  0  0  0  0  0  0  0  0
  139.2140   67.8910  225.1280 C   0  0  0  0  0  0  0  0  0  0  0  0
  139.3890   67.4400  226.4390 C   0  0  0  0  0  0  0  0  0  0  0  0
  140.0700   68.2220  227.3520 C   0  0  0  0  0  0  0  0  0  0  0  0
  140.5750   69.4480  226.9650 C   0  0  0  0  0  0  0  0  0  0  0  0
  141.2650   70.2670  227.8430 O   0  0  0  0  0  0  0  0  0  0  0  0
  141.0210   71.6570  227.9130 C   0  0  0  0  0  0  0  0  0  0  0  0
  139.7630   71.8960  228.4420 F   0  0  0  0  0  0  0  0  0  0  0  0
  142.0140   72.2460  228.6820 F   0  0  0  0  0  0  0  0  0  0  0  0
  141.0400   72.1380  226.6050 F   0  0  0  0  0  0  0  0  0  0  0  0
  140.3820   69.8630  225.6530 C   0  0  0  0  0  0  0  0  0  0  0  0
  140.7500   76.2900  221.4920 C   0  0  0  0  0  0  0  0  0  0  0  0
  141.1670   76.9090  220.3430 C   0  0  0  0  0  0  0  0  0  0  0  0
  141.6450   78.2010  220.3290 C   0  0  0  0  0  0  0  0  0  0  0  0
  141.7140   78.9140  221.5020 C   0  0  0  0  0  0  0  0  0  0  0  0
  142.1870   80.1980  221.4970 C   0  0  0  0  0  0  0  0  0  0  0  0
  142.2410   80.8760  222.6840 C   0  0  0  0  0  0  0  0  0  0  0  0
  141.8200   80.2620  223.8690 C   0  0  0  0  0  0  0  0  0  0  0  0
  141.3420   78.9540  223.8540 C   0  0  0  0  0  0  0  0  0  0  0  0
  141.2860   78.2670  222.6590 C   0  0  0  0  0  0  0  0  0  0  0  0
  140.8220   76.9980  222.6360 N   0  0  0  0  0  0  0  0  0  0  0  0
  138.8220   75.0300  223.0000 H   0  0  0  0  0  0  0  0  0  0  0  0
  137.8130   72.9034  222.3565 H   0  0  0  0  0  0  0  0  0  0  0  0
  139.0068   72.7910  220.9981 H   0  0  0  0  0  0  0  0  0  0  0  0
  138.0857   70.7855  225.2919 H   0  0  0  0  0  0  0  0  0  0  0  0
  137.2270   71.7965  224.1682 H   0  0  0  0  0  0  0  0  0  0  0  0
  136.9456   68.9543  224.4801 H   0  0  0  0  0  0  0  0  0  0  0  0
  136.2720   69.8927  223.1286 H   0  0  0  0  0  0  0  0  0  0  0  0
  138.1714   67.9043  222.7969 H   0  0  0  0  0  0  0  0  0  0  0  0
  138.0423   69.2094  221.6657 H   0  0  0  0  0  0  0  0  0  0  0  0
  140.4103   69.3115  222.7391 H   0  0  0  0  0  0  0  0  0  0  0  0
  138.6707   67.2612  224.4081 H   0  0  0  0  0  0  0  0  0  0  0  0
  138.9850   66.4633  226.7438 H   0  0  0  0  0  0  0  0  0  0  0  0
  140.2097   67.8691  228.3845 H   0  0  0  0  0  0  0  0  0  0  0  0
  140.7870   70.8394  225.3487 H   0  0  0  0  0  0  0  0  0  0  0  0
  141.1183   76.3529  219.3952 H   0  0  0  0  0  0  0  0  0  0  0  0
  141.9699   78.6598  219.3835 H   0  0  0  0  0  0  0  0  0  0  0  0
  142.5159   80.6735  220.5612 H   0  0  0  0  0  0  0  0  0  0  0  0
  142.6174   81.9094  222.7071 H   0  0  0  0  0  0  0  0  0  0  0  0
  141.8669   80.8159  224.8182 H   0  0  0  0  0  0  0  0  0  0  0  0
  141.0121   78.4730  224.7866 H   0  0  0  0  0  0  0  0  0  0  0  0
  1  2  2  0
  2  3  1  0
  3  4  1  0
  4  5  1  0
  5  6  2  0
  5  7  1  0
  7  8  1  0
  8  9  1  0
  9 10  1  0
 10 11  1  0
 11 12  1  0
 12 13  2  0
 13 14  1  0
 14 15  2  0
 15 16  1  0
 16 17  1  0
 17 18  1  0
 18 19  1  0
 18 20  1  0
 18 21  1  0
 16 22  2  0
  2 23  1  0
 23 24  2  0
 24 25  1  0
 25 26  2  0
 26 27  1  0
 27 28  2  0
 28 29  1  0
 29 30  2  0
 30 31  1  0
 31 32  2  0
 11  7  1  0
 22 12  1  0
 32 23  1  0
 31 26  1  0
  3 33  1  0
  4 34  1  0
  4 35  1  0
  8 36  1  0
  8 37  1  0
  9 38  1  0
  9 39  1  0
 10 40  1  0
 10 41  1  0
 11 42  1  6
 13 43  1  0
 14 44  1  0
 15 45  1  0
 22 46  1  0
 24 47  1  0
 25 48  1  0
 27 49  1  0
 28 50  1  0
 29 51  1  0
 30 52  1  0
M  END
>  <smiles>  (38) 
O=C(NCC(=O)N1CCCC1c1cccc(OC(F)(F)F)c1)c1ccc2ccccc2n1

>  <score_type>  (38) 
oracle

>  <origin>  (38) 
autodockgpu

>  <m_score__min__energy>  (38) 
-8.5999999999999996

>  <m_primary>  (38) 
energy

>  <rmsd>  (38) 
8.391415203658513

>  <m_score__min__rmsd>  (38) 
8.391415203658513

>  <meeko>  (38) 
{"free_energy": -8.56, "intermolecular_energy": -10.65, "internal_energy": -1.21, "cluster_size": 5, "cluster_id": 1, "rank_in_cluster": 2}

>  <energy>  (38) 
-8.05

>  <cluster_rmsd>  (38) 
0.0

>  <cluster>  (38) 
4

$$$$

     RDKit          3D

 52 55  0  0  0  0  0  0  0  0999 V2000
  140.8760   71.4090  221.3420 O   0  0  0  0  0  0  0  0  0  0  0  0
  140.3740   71.9920  222.3560 C   0  0  0  0  0  0  0  0  0  0  0  0
  139.9550   73.3420  222.1310 N   0  0  0  0  0  0  0  0  0  0  0  0
  140.1530   73.8650  220.7950 C   0  0  0  0  0  0  0  0  0  0  0  0
  140.8190   75.1750  220.8210 C   0  0  0  0  0  0  0  0  0  0  0  0
  142.0450   75.3210  220.5370 O   0  0  0  0  0  0  0  0  0  0  0  0
  140.0440   76.3130  221.1790 N   0  0  0  0  0  0  0  0  0  0  0  0
  139.6080   77.4180  220.3100 C   0  0  0  0  0  0  0  0  0  0  0  0
  138.1960   77.6490  220.8170 C   0  0  0  0  0  0  0  0  0  0  0  0
  138.0280   76.8020  222.0550 C   0  0  0  0  0  0  0  0  0  0  0  0
  139.4920   76.6640  222.4870 C   0  0  2  0  0  0  0  0  0  0  0  0
  140.0830   77.9940  222.8210 C   0  0  0  0  0  0  0  0  0  0  0  0
  141.4330   78.2170  222.6140 C   0  0  0  0  0  0  0  0  0  0  0  0
  142.0170   79.4500  222.9170 C   0  0  0  0  0  0  0  0  0  0  0  0
  141.2430   80.4710  223.4330 C   0  0  0  0  0  0  0  0  0  0  0  0
  139.8940   80.2690  223.6480 C   0  0  0  0  0  0  0  0  0  0  0  0
  139.0770   81.2620  224.1630 O   0  0  0  0  0  0  0  0  0  0  0  0
  137.6850   81.2840  223.9180 C   0  0  0  0  0  0  0  0  0  0  0  0
  137.0680   80.2320  224.5750 F   0  0  0  0  0  0  0  0  0  0  0  0
  137.1780   82.5070  224.3330 F   0  0  0  0  0  0  0  0  0  0  0  0
  137.5120   81.1010  222.5480 F   0  0  0  0  0  0  0  0  0  0  0  0
  139.3480   79.0310  223.3340 C   0  0  0  0  0  0  0  0  0  0  0  0
  140.2420   71.3310  223.6340 C   0  0  0  0  0  0  0  0  0  0  0  0
  139.6200   70.1120  223.6780 C   0  0  0  0  0  0  0  0  0  0  0  0
  139.4490   69.4090  224.8510 C   0  0  0  0  0  0  0  0  0  0  0  0
  139.9140   69.9340  226.0330 C   0  0  0  0  0  0  0  0  0  0  0  0
  139.7480   69.2440  227.2030 C   0  0  0  0  0  0  0  0  0  0  0  0
  140.2230   69.7980  228.3590 C   0  0  0  0  0  0  0  0  0  0  0  0
  140.8620   71.0430  228.3350 C   0  0  0  0  0  0  0  0  0  0  0  0
  141.0210   71.7320  227.1350 C   0  0  0  0  0  0  0  0  0  0  0  0
  140.5430   71.1750  225.9670 C   0  0  0  0  0  0  0  0  0  0  0  0
  140.6940   71.8380  224.7980 N   0  0  0  0  0  0  0  0  0  0  0  0
  139.5320   73.8920  222.9130 H   0  0  0  0  0  0  0  0  0  0  0  0
  140.7745   73.1597  220.2238 H   0  0  0  0  0  0  0  0  0  0  0  0
  139.1667   73.9893  220.3240 H   0  0  0  0  0  0  0  0  0  0  0  0
  140.2366   78.3104  220.4459 H   0  0  0  0  0  0  0  0  0  0  0  0
  139.6722   77.1996  219.2338 H   0  0  0  0  0  0  0  0  0  0  0  0
  138.0521   78.7113  221.0636 H   0  0  0  0  0  0  0  0  0  0  0  0
  137.4544   77.3770  220.0514 H   0  0  0  0  0  0  0  0  0  0  0  0
  137.4236   77.3124  222.8194 H   0  0  0  0  0  0  0  0  0  0  0  0
  137.5013   75.8496  221.8955 H   0  0  0  0  0  0  0  0  0  0  0  0
  139.6560   75.9963  223.3457 H   0  0  0  0  0  0  0  0  0  0  0  0
  142.0574   77.4096  222.2038 H   0  0  0  0  0  0  0  0  0  0  0  0
  143.0920   79.6072  222.7447 H   0  0  0  0  0  0  0  0  0  0  0  0
  141.7000   81.4426  223.6721 H   0  0  0  0  0  0  0  0  0  0  0  0
  138.2727   78.8751  223.5055 H   0  0  0  0  0  0  0  0  0  0  0  0
  139.2422   69.6770  222.7409 H   0  0  0  0  0  0  0  0  0  0  0  0
  138.9428   68.4324  224.8413 H   0  0  0  0  0  0  0  0  0  0  0  0
  139.2441   68.2663  227.2131 H   0  0  0  0  0  0  0  0  0  0  0  0
  140.1025   69.2628  229.3124 H   0  0  0  0  0  0  0  0  0  0  0  0
  141.2413   71.4804  229.2703 H   0  0  0  0  0  0  0  0  0  0  0  0
  141.5228   72.7107  227.1188 H   0  0  0  0  0  0  0  0  0  0  0  0
  1  2  2  0
  2  3  1  0
  3  4  1  0
  4  5  1  0
  5  6  2  0
  5  7  1  0
  7  8  1  0
  8  9  1  0
  9 10  1  0
 10 11  1  0
 11 12  1  0
 12 13  2  0
 13 14  1  0
 14 15  2  0
 15 16  1  0
 16 17  1  0
 17 18  1  0
 18 19  1  0
 18 20  1  0
 18 21  1  0
 16 22  2  0
  2 23  1  0
 23 24  2  0
 24 25  1  0
 25 26  2  0
 26 27  1  0
 27 28  2  0
 28 29  1  0
 29 30  2  0
 30 31  1  0
 31 32  2  0
 11  7  1  0
 22 12  1  0
 32 23  1  0
 31 26  1  0
  3 33  1  0
  4 34  1  0
  4 35  1  0
  8 36  1  0
  8 37  1  0
  9 38  1  0
  9 39  1  0
 10 40  1  0
 10 41  1  0
 11 42  1  1
 13 43  1  0
 14 44  1  0
 15 45  1  0
 22 46  1  0
 24 47  1  0
 25 48  1  0
 27 49  1  0
 28 50  1  0
 29 51  1  0
 30 52  1  0
M  END
>  <smiles>  (39) 
O=C(NCC(=O)N1CCCC1c1cccc(OC(F)(F)F)c1)c1ccc2ccccc2n1

>  <score_type>  (39) 
oracle

>  <origin>  (39) 
autodockgpu

>  <m_score__min__energy>  (39) 
-8.5999999999999996

>  <m_primary>  (39) 
energy

>  <rmsd>  (39) 
2.611016747318766

>  <m_score__min__rmsd>  (39) 
2.611016747318766

>  <meeko>  (39) 
{"free_energy": -8.03, "intermolecular_energy": -10.12, "internal_energy": -1.37, "cluster_size": 23, "cluster_id": 2, "rank_in_cluster": 11}

>  <energy>  (39) 
-7.72

>  <cluster_rmsd>  (39) 
1.3

>  <cluster>  (39) 
4

$$$$

     RDKit          3D

 52 55  0  0  0  0  0  0  0  0999 V2000
  140.3250   71.5750  221.3090 O   0  0  0  0  0  0  0  0  0  0  0  0
  140.0650   72.1310  222.4240 C   0  0  0  0  0  0  0  0  0  0  0  0
  139.7570   73.5270  222.3470 N   0  0  0  0  0  0  0  0  0  0  0  0
  139.7800   74.1200  221.0250 C   0  0  0  0  0  0  0  0  0  0  0  0
  141.1370   74.5310  220.6410 C   0  0  0  0  0  0  0  0  0  0  0  0
  142.0860   73.7020  220.5010 O   0  0  0  0  0  0  0  0  0  0  0  0
  141.3800   75.9160  220.4200 N   0  0  0  0  0  0  0  0  0  0  0  0
  142.6570   76.5650  220.0830 C   0  0  0  0  0  0  0  0  0  0  0  0
  142.2010   77.5950  219.0640 C   0  0  0  0  0  0  0  0  0  0  0  0
  140.6910   77.5780  219.0660 C   0  0  0  0  0  0  0  0  0  0  0  0
  140.4300   77.0260  220.4720 C   0  0  2  0  0  0  0  0  0  0  0  0
  140.9590   77.9490  221.5200 C   0  0  0  0  0  0  0  0  0  0  0  0
  141.2330   77.4650  222.7870 C   0  0  0  0  0  0  0  0  0  0  0  0
  141.7280   78.3030  223.7900 C   0  0  0  0  0  0  0  0  0  0  0  0
  141.9520   79.6400  223.5230 C   0  0  0  0  0  0  0  0  0  0  0  0
  141.6840   80.1440  222.2660 C   0  0  0  0  0  0  0  0  0  0  0  0
  141.8930   81.4760  221.9500 O   0  0  0  0  0  0  0  0  0  0  0  0
  141.0320   82.1780  221.0770 C   0  0  0  0  0  0  0  0  0  0  0  0
  141.1320   83.5420  221.3010 F   0  0  0  0  0  0  0  0  0  0  0  0
  141.3640   81.8550  219.7680 F   0  0  0  0  0  0  0  0  0  0  0  0
  139.7320   81.7820  221.3840 F   0  0  0  0  0  0  0  0  0  0  0  0
  141.1940   79.2810  221.2930 C   0  0  0  0  0  0  0  0  0  0  0  0
  140.0820   71.3990  223.6700 C   0  0  0  0  0  0  0  0  0  0  0  0
  139.5650   70.1310  223.6910 C   0  0  0  0  0  0  0  0  0  0  0  0
  139.5390   69.3590  224.8320 C   0  0  0  0  0  0  0  0  0  0  0  0
  140.0470   69.8640  226.0060 C   0  0  0  0  0  0  0  0  0  0  0  0
  140.0250   69.1050  227.1440 C   0  0  0  0  0  0  0  0  0  0  0  0
  140.5390   69.6400  228.2930 C   0  0  0  0  0  0  0  0  0  0  0  0
  141.0720   70.9340  228.2930 C   0  0  0  0  0  0  0  0  0  0  0  0
  141.0850   71.6920  227.1250 C   0  0  0  0  0  0  0  0  0  0  0  0
  140.5670   71.1550  225.9640 C   0  0  0  0  0  0  0  0  0  0  0  0
  140.5760   71.8840  224.8260 N   0  0  0  0  0  0  0  0  0  0  0  0
  139.5320   74.0590  223.2180 H   0  0  0  0  0  0  0  0  0  0  0  0
  139.4105   73.3832  220.2966 H   0  0  0  0  0  0  0  0  0  0  0  0
  139.1399   75.0145  221.0376 H   0  0  0  0  0  0  0  0  0  0  0  0
  143.1119   77.0423  220.9635 H   0  0  0  0  0  0  0  0  0  0  0  0
  143.4315   75.8761  219.7148 H   0  0  0  0  0  0  0  0  0  0  0  0
  142.5681   78.5931  219.3452 H   0  0  0  0  0  0  0  0  0  0  0  0
  142.5953   77.3601  218.0643 H   0  0  0  0  0  0  0  0  0  0  0  0
  140.2717   78.5871  218.9398 H   0  0  0  0  0  0  0  0  0  0  0  0
  140.2342   76.9989  218.2499 H   0  0  0  0  0  0  0  0  0  0  0  0
  139.3717   76.8287  220.6982 H   0  0  0  0  0  0  0  0  0  0  0  0
  141.0581   76.4019  223.0087 H   0  0  0  0  0  0  0  0  0  0  0  0
  141.9390   77.8986  224.7909 H   0  0  0  0  0  0  0  0  0  0  0  0
  142.3430   80.3014  224.3102 H   0  0  0  0  0  0  0  0  0  0  0  0
  140.9844   79.6861  220.2920 H   0  0  0  0  0  0  0  0  0  0  0  0
  139.1543   69.7124  222.7603 H   0  0  0  0  0  0  0  0  0  0  0  0
  139.1144   68.3446  224.8040 H   0  0  0  0  0  0  0  0  0  0  0  0
  139.6040   68.0888  227.1351 H   0  0  0  0  0  0  0  0  0  0  0  0
  140.5334   69.0503  229.2216 H   0  0  0  0  0  0  0  0  0  0  0  0
  141.4835   71.3552  229.2221 H   0  0  0  0  0  0  0  0  0  0  0  0
  141.5041   72.7090  227.1277 H   0  0  0  0  0  0  0  0  0  0  0  0
  1  2  2  0
  2  3  1  0
  3  4  1  0
  4  5  1  0
  5  6  2  0
  5  7  1  0
  7  8  1  0
  8  9  1  0
  9 10  1  0
 10 11  1  0
 11 12  1  0
 12 13  2  0
 13 14  1  0
 14 15  2  0
 15 16  1  0
 16 17  1  0
 17 18  1  0
 18 19  1  0
 18 20  1  0
 18 21  1  0
 16 22  2  0
  2 23  1  0
 23 24  2  0
 24 25  1  0
 25 26  2  0
 26 27  1  0
 27 28  2  0
 28 29  1  0
 29 30  2  0
 30 31  1  0
 31 32  2  0
 11  7  1  0
 22 12  1  0
 32 23  1  0
 31 26  1  0
  3 33  1  0
  4 34  1  0
  4 35  1  0
  8 36  1  0
  8 37  1  0
  9 38  1  0
  9 39  1  0
 10 40  1  0
 10 41  1  0
 11 42  1  1
 13 43  1  0
 14 44  1  0
 15 45  1  0
 22 46  1  0
 24 47  1  0
 25 48  1  0
 27 49  1  0
 28 50  1  0
 29 51  1  0
 30 52  1  0
M  END
>  <smiles>  (40) 
O=C(NCC(=O)N1CCCC1c1cccc(OC(F)(F)F)c1)c1ccc2ccccc2n1

>  <score_type>  (40) 
oracle

>  <origin>  (40) 
autodockgpu

>  <m_score__min__energy>  (40) 
-8.5999999999999996

>  <m_primary>  (40) 
energy

>  <rmsd>  (40) 
2.0811779222017543

>  <m_score__min__rmsd>  (40) 
2.0811779222017543

>  <meeko>  (40) 
{"free_energy": -8.27, "intermolecular_energy": -10.36, "internal_energy": -1.33, "cluster_size": 23, "cluster_id": 2, "rank_in_cluster": 8}

>  <energy>  (40) 
-7.99

>  <cluster_rmsd>  (40) 
0.0

>  <cluster>  (40) 
5

$$$$

     RDKit          3D

 52 55  0  0  0  0  0  0  0  0999 V2000
  139.6240   71.5450  221.2280 O   0  0  0  0  0  0  0  0  0  0  0  0
  139.5890   72.0970  222.3740 C   0  0  0  0  0  0  0  0  0  0  0  0
  139.3520   73.5090  222.3580 N   0  0  0  0  0  0  0  0  0  0  0  0
  139.1840   74.1200  221.0550 C   0  0  0  0  0  0  0  0  0  0  0  0
  140.0800   75.2710  220.8780 C   0  0  0  0  0  0  0  0  0  0  0  0
  139.9100   76.3670  221.4920 O   0  0  0  0  0  0  0  0  0  0  0  0
  141.1760   75.1340  219.9810 N   0  0  0  0  0  0  0  0  0  0  0  0
  141.1760   74.5170  218.6450 C   0  0  0  0  0  0  0  0  0  0  0  0
  142.0740   75.4730  217.8810 C   0  0  0  0  0  0  0  0  0  0  0  0
  142.6660   76.4250  218.8930 C   0  0  0  0  0  0  0  0  0  0  0  0
  142.5600   75.5700  220.1600 C   0  0  2  0  0  0  0  0  0  0  0  0
  143.3820   74.3300  220.0440 C   0  0  0  0  0  0  0  0  0  0  0  0
  143.0770   73.2270  220.8220 C   0  0  0  0  0  0  0  0  0  0  0  0
  143.8270   72.0520  220.7370 C   0  0  0  0  0  0  0  0  0  0  0  0
  144.8960   71.9770  219.8650 C   0  0  0  0  0  0  0  0  0  0  0  0
  145.2190   73.0660  219.0800 C   0  0  0  0  0  0  0  0  0  0  0  0
  146.2810   73.0400  218.1920 O   0  0  0  0  0  0  0  0  0  0  0  0
  146.1060   73.3040  216.8140 C   0  0  0  0  0  0  0  0  0  0  0  0
  144.7660   73.5100  216.5330 F   0  0  0  0  0  0  0  0  0  0  0  0
  146.8710   74.4110  216.4720 F   0  0  0  0  0  0  0  0  0  0  0  0
  146.5240   72.1660  216.1270 F   0  0  0  0  0  0  0  0  0  0  0  0
  144.4500   74.2180  219.1910 C   0  0  0  0  0  0  0  0  0  0  0  0
  139.7760   71.3470  223.5950 C   0  0  0  0  0  0  0  0  0  0  0  0
  139.4610   70.0140  223.5980 C   0  0  0  0  0  0  0  0  0  0  0  0
  139.6060   69.2200  224.7140 C   0  0  0  0  0  0  0  0  0  0  0  0
  140.0850   69.7680  225.8810 C   0  0  0  0  0  0  0  0  0  0  0  0
  140.2320   68.9870  226.9950 C   0  0  0  0  0  0  0  0  0  0  0  0
  140.7110   69.5670  228.1370 C   0  0  0  0  0  0  0  0  0  0  0  0
  141.0400   70.9280  228.1550 C   0  0  0  0  0  0  0  0  0  0  0  0
  140.8820   71.7060  227.0110 C   0  0  0  0  0  0  0  0  0  0  0  0
  140.3990   71.1240  225.8580 C   0  0  0  0  0  0  0  0  0  0  0  0
  140.2440   71.8740  224.7430 N   0  0  0  0  0  0  0  0  0  0  0  0
  139.3080   74.0390  223.2580 H   0  0  0  0  0  0  0  0  0  0  0  0
  139.4054   73.3725  220.2789 H   0  0  0  0  0  0  0  0  0  0  0  0
  138.1464   74.4758  220.9729 H   0  0  0  0  0  0  0  0  0  0  0  0
  141.5968   73.5010  218.6698 H   0  0  0  0  0  0  0  0  0  0  0  0
  140.1755   74.3882  218.2064 H   0  0  0  0  0  0  0  0  0  0  0  0
  142.8747   74.9152  217.3733 H   0  0  0  0  0  0  0  0  0  0  0  0
  141.5048   76.0187  217.1140 H   0  0  0  0  0  0  0  0  0  0  0  0
  143.7107   76.6747  218.6557 H   0  0  0  0  0  0  0  0  0  0  0  0
  142.1684   77.4042  218.9530 H   0  0  0  0  0  0  0  0  0  0  0  0
  142.8545   76.0851  221.0863 H   0  0  0  0  0  0  0  0  0  0  0  0
  142.2284   73.2766  221.5201 H   0  0  0  0  0  0  0  0  0  0  0  0
  143.5667   71.1865  221.3641 H   0  0  0  0  0  0  0  0  0  0  0  0
  145.4880   71.0525  219.7963 H   0  0  0  0  0  0  0  0  0  0  0  0
  144.7108   75.0830  218.5635 H   0  0  0  0  0  0  0  0  0  0  0  0
  139.0771   69.5597  222.6727 H   0  0  0  0  0  0  0  0  0  0  0  0
  139.3402   68.1534  224.6722 H   0  0  0  0  0  0  0  0  0  0  0  0
  139.9712   67.9186  226.9724 H   0  0  0  0  0  0  0  0  0  0  0  0
  140.8385   68.9612  229.0463 H   0  0  0  0  0  0  0  0  0  0  0  0
  141.4255   71.3852  229.0782 H   0  0  0  0  0  0  0  0  0  0  0  0
  141.1402   72.7752  227.0269 H   0  0  0  0  0  0  0  0  0  0  0  0
  1  2  2  0
  2  3  1  0
  3  4  1  0
  4  5  1  0
  5  6  2  0
  5  7  1  0
  7  8  1  0
  8  9  1  0
  9 10  1  0
 10 11  1  0
 11 12  1  0
 12 13  2  0
 13 14  1  0
 14 15  2  0
 15 16  1  0
 16 17  1  0
 17 18  1  0
 18 19  1  0
 18 20  1  0
 18 21  1  0
 16 22  2  0
  2 23  1  0
 23 24  2  0
 24 25  1  0
 25 26  2  0
 26 27  1  0
 27 28  2  0
 28 29  1  0
 29 30  2  0
 30 31  1  0
 31 32  2  0
 11  7  1  0
 22 12  1  0
 32 23  1  0
 31 26  1  0
  3 33  1  0
  4 34  1  0
  4 35  1  0
  8 36  1  0
  8 37  1  0
  9 38  1  0
  9 39  1  0
 10 40  1  0
 10 41  1  0
 11 42  1  1
 13 43  1  0
 14 44  1  0
 15 45  1  0
 22 46  1  0
 24 47  1  0
 25 48  1  0
 27 49  1  0
 28 50  1  0
 29 51  1  0
 30 52  1  0
M  END
>  <smiles>  (41) 
O=C(NCC(=O)N1CCCC1c1cccc(OC(F)(F)F)c1)c1ccc2ccccc2n1

>  <score_type>  (41) 
oracle

>  <origin>  (41) 
autodockgpu

>  <m_score__min__energy>  (41) 
-8.5999999999999996

>  <m_primary>  (41) 
energy

>  <rmsd>  (41) 
1.6307349679230847

>  <m_score__min__rmsd>  (41) 
1.6307349679230847

>  <meeko>  (41) 
{"free_energy": -7.62, "intermolecular_energy": -9.71, "internal_energy": -1.71, "cluster_size": 5, "cluster_id": 5, "rank_in_cluster": 4}

>  <energy>  (41) 
-7.8

>  <cluster_rmsd>  (41) 
0.38

>  <cluster>  (41) 
5

$$$$

     RDKit          3D

 52 55  0  0  0  0  0  0  0  0999 V2000
  141.0900   71.5370  221.4170 O   0  0  0  0  0  0  0  0  0  0  0  0
  140.4200   72.0550  222.3670 C   0  0  0  0  0  0  0  0  0  0  0  0
  139.8490   73.3350  222.0760 N   0  0  0  0  0  0  0  0  0  0  0  0
  140.1050   73.8700  220.7540 C   0  0  0  0  0  0  0  0  0  0  0  0
  140.7640   75.1810  220.8190 C   0  0  0  0  0  0  0  0  0  0  0  0
  141.9880   75.3440  220.5310 O   0  0  0  0  0  0  0  0  0  0  0  0
  139.9860   76.3020  221.2240 N   0  0  0  0  0  0  0  0  0  0  0  0
  139.4740   77.3950  220.3830 C   0  0  0  0  0  0  0  0  0  0  0  0
  138.0900   77.5950  220.9740 C   0  0  0  0  0  0  0  0  0  0  0  0
  138.0170   76.7460  222.2210 C   0  0  0  0  0  0  0  0  0  0  0  0
  139.5070   76.6420  222.5630 C   0  0  2  0  0  0  0  0  0  0  0  0
  140.0870   77.9850  222.8600 C   0  0  0  0  0  0  0  0  0  0  0  0
  141.4260   78.2270  222.6090 C   0  0  0  0  0  0  0  0  0  0  0  0
  141.9990   79.4720  222.8760 C   0  0  0  0  0  0  0  0  0  0  0  0
  141.2250   80.4890  223.4020 C   0  0  0  0  0  0  0  0  0  0  0  0
  139.8870   80.2700  223.6610 C   0  0  0  0  0  0  0  0  0  0  0  0
  139.0700   81.2570  224.1870 O   0  0  0  0  0  0  0  0  0  0  0  0
  137.6830   81.2970  223.9190 C   0  0  0  0  0  0  0  0  0  0  0  0
  137.0370   80.2700  224.5880 F   0  0  0  0  0  0  0  0  0  0  0  0
  137.1910   82.5380  224.3010 F   0  0  0  0  0  0  0  0  0  0  0  0
  137.5280   81.0890  222.5510 F   0  0  0  0  0  0  0  0  0  0  0  0
  139.3510   79.0190  223.3810 C   0  0  0  0  0  0  0  0  0  0  0  0
  140.2530   71.3920  223.6400 C   0  0  0  0  0  0  0  0  0  0  0  0
  139.5730   70.2040  223.6740 C   0  0  0  0  0  0  0  0  0  0  0  0
  139.3650   69.5010  224.8410 C   0  0  0  0  0  0  0  0  0  0  0  0
  139.8520   69.9960  226.0280 C   0  0  0  0  0  0  0  0  0  0  0  0
  139.6510   69.3060  227.1920 C   0  0  0  0  0  0  0  0  0  0  0  0
  140.1490   69.8290  228.3530 C   0  0  0  0  0  0  0  0  0  0  0  0
  140.8460   71.0420  228.3400 C   0  0  0  0  0  0  0  0  0  0  0  0
  141.0410   71.7310  227.1450 C   0  0  0  0  0  0  0  0  0  0  0  0
  140.5400   71.2060  225.9720 C   0  0  0  0  0  0  0  0  0  0  0  0
  140.7250   71.8680  224.8090 N   0  0  0  0  0  0  0  0  0  0  0  0
  139.2830   73.8290  222.8020 H   0  0  0  0  0  0  0  0  0  0  0  0
  140.7539   73.1712  220.2057 H   0  0  0  0  0  0  0  0  0  0  0  0
  139.1400   73.9953  220.2410 H   0  0  0  0  0  0  0  0  0  0  0  0
  140.0894   78.3015  220.4807 H   0  0  0  0  0  0  0  0  0  0  0  0
  139.4783   77.1764  219.3049 H   0  0  0  0  0  0  0  0  0  0  0  0
  137.9370   78.6542  221.2283 H   0  0  0  0  0  0  0  0  0  0  0  0
  137.3098   77.3052  220.2548 H   0  0  0  0  0  0  0  0  0  0  0  0
  137.4489   77.2439  223.0206 H   0  0  0  0  0  0  0  0  0  0  0  0
  137.5034   75.7816  222.0942 H   0  0  0  0  0  0  0  0  0  0  0  0
  139.7380   75.9795  223.4102 H   0  0  0  0  0  0  0  0  0  0  0  0
  142.0507   77.4237  222.1913 H   0  0  0  0  0  0  0  0  0  0  0  0
  143.0655   79.6432  222.6679 H   0  0  0  0  0  0  0  0  0  0  0  0
  141.6741   81.4706  223.6137 H   0  0  0  0  0  0  0  0  0  0  0  0
  138.2839   78.8493  223.5872 H   0  0  0  0  0  0  0  0  0  0  0  0
  139.1772   69.7946  222.7329 H   0  0  0  0  0  0  0  0  0  0  0  0
  138.8128   68.5498  224.8231 H   0  0  0  0  0  0  0  0  0  0  0  0
  139.1017   68.3530  227.1939 H   0  0  0  0  0  0  0  0  0  0  0  0
  140.0009   69.2932  229.3022 H   0  0  0  0  0  0  0  0  0  0  0  0
  141.2426   71.4544  229.2795 H   0  0  0  0  0  0  0  0  0  0  0  0
  141.5893   72.6846  227.1370 H   0  0  0  0  0  0  0  0  0  0  0  0
  1  2  2  0
  2  3  1  0
  3  4  1  0
  4  5  1  0
  5  6  2  0
  5  7  1  0
  7  8  1  0
  8  9  1  0
  9 10  1  0
 10 11  1  0
 11 12  1  0
 12 13  2  0
 13 14  1  0
 14 15  2  0
 15 16  1  0
 16 17  1  0
 17 18  1  0
 18 19  1  0
 18 20  1  0
 18 21  1  0
 16 22  2  0
  2 23  1  0
 23 24  2  0
 24 25  1  0
 25 26  2  0
 26 27  1  0
 27 28  2  0
 28 29  1  0
 29 30  2  0
 30 31  1  0
 31 32  2  0
 11  7  1  0
 22 12  1  0
 32 23  1  0
 31 26  1  0
  3 33  1  0
  4 34  1  0
  4 35  1  0
  8 36  1  0
  8 37  1  0
  9 38  1  0
  9 39  1  0
 10 40  1  0
 10 41  1  0
 11 42  1  1
 13 43  1  0
 14 44  1  0
 15 45  1  0
 22 46  1  0
 24 47  1  0
 25 48  1  0
 27 49  1  0
 28 50  1  0
 29 51  1  0
 30 52  1  0
M  END
>  <smiles>  (42) 
O=C(NCC(=O)N1CCCC1c1cccc(OC(F)(F)F)c1)c1ccc2ccccc2n1

>  <score_type>  (42) 
oracle

>  <origin>  (42) 
autodockgpu

>  <m_score__min__energy>  (42) 
-8.5999999999999996

>  <m_primary>  (42) 
energy

>  <rmsd>  (42) 
2.6612066745663405

>  <m_score__min__rmsd>  (42) 
2.6612066745663405

>  <meeko>  (42) 
{"free_energy": -8.06, "intermolecular_energy": -10.15, "internal_energy": -1.39, "cluster_size": 23, "cluster_id": 2, "rank_in_cluster": 9}

>  <energy>  (42) 
-7.7

>  <cluster_rmsd>  (42) 
0.7

>  <cluster>  (42) 
5

$$$$

     RDKit          3D

 52 55  0  0  0  0  0  0  0  0999 V2000
  141.0090   72.3710  221.7600 O   0  0  0  0  0  0  0  0  0  0  0  0
  140.0340   72.3610  222.5790 C   0  0  0  0  0  0  0  0  0  0  0  0
  139.0420   73.3670  222.3490 N   0  0  0  0  0  0  0  0  0  0  0  0
  139.2710   74.2560  221.2290 C   0  0  0  0  0  0  0  0  0  0  0  0
  140.3090   75.2500  221.5330 C   0  0  0  0  0  0  0  0  0  0  0  0
  141.4630   74.9270  221.9460 O   0  0  0  0  0  0  0  0  0  0  0  0
  139.9910   76.6260  221.3510 N   0  0  0  0  0  0  0  0  0  0  0  0
  140.3260   77.4850  220.2030 C   0  0  0  0  0  0  0  0  0  0  0  0
  139.0480   78.2900  220.0580 C   0  0  0  0  0  0  0  0  0  0  0  0
  138.1840   77.9650  221.2530 C   0  0  0  0  0  0  0  0  0  0  0  0
  139.2600   77.5180  222.2490 C   0  0  2  0  0  0  0  0  0  0  0  0
  140.2060   78.6310  222.5560 C   0  0  0  0  0  0  0  0  0  0  0  0
  141.4420   78.3500  223.1100 C   0  0  0  0  0  0  0  0  0  0  0  0
  142.3500   79.3680  223.4100 C   0  0  0  0  0  0  0  0  0  0  0  0
  142.0190   80.6850  223.1520 C   0  0  0  0  0  0  0  0  0  0  0  0
  140.7900   80.9880  222.5990 C   0  0  0  0  0  0  0  0  0  0  0  0
  140.4130   82.2920  222.3220 O   0  0  0  0  0  0  0  0  0  0  0  0
  140.5470   82.8480  221.0300 C   0  0  0  0  0  0  0  0  0  0  0  0
  141.0260   84.1450  221.1160 F   0  0  0  0  0  0  0  0  0  0  0  0
  141.3980   82.0430  220.2850 F   0  0  0  0  0  0  0  0  0  0  0  0
  139.2710   82.8920  220.4730 F   0  0  0  0  0  0  0  0  0  0  0  0
  139.9130   79.9490  222.3140 C   0  0  0  0  0  0  0  0  0  0  0  0
  139.9450   71.4010  223.6550 C   0  0  0  0  0  0  0  0  0  0  0  0
  139.2910   70.2200  223.4260 C   0  0  0  0  0  0  0  0  0  0  0  0
  139.1570   69.2460  224.3920 C   0  0  0  0  0  0  0  0  0  0  0  0
  139.6940   69.4490  225.6410 C   0  0  0  0  0  0  0  0  0  0  0  0
  139.5660   68.4890  226.6070 C   0  0  0  0  0  0  0  0  0  0  0  0
  140.1130   68.7260  227.8370 C   0  0  0  0  0  0  0  0  0  0  0  0
  140.7860   69.9270  228.0920 C   0  0  0  0  0  0  0  0  0  0  0  0
  140.9060   70.8930  227.0970 C   0  0  0  0  0  0  0  0  0  0  0  0
  140.3550   70.6570  225.8540 C   0  0  0  0  0  0  0  0  0  0  0  0
  140.4680   71.5900  224.8830 N   0  0  0  0  0  0  0  0  0  0  0  0
  138.2080   73.4260  222.9770 H   0  0  0  0  0  0  0  0  0  0  0  0
  139.5893   73.6613  220.3601 H   0  0  0  0  0  0  0  0  0  0  0  0
  138.3336   74.7906  221.0160 H   0  0  0  0  0  0  0  0  0  0  0  0
  141.1881   78.1323  220.4214 H   0  0  0  0  0  0  0  0  0  0  0  0
  140.6197   76.9350  219.2968 H   0  0  0  0  0  0  0  0  0  0  0  0
  139.2788   79.3654  220.0399 H   0  0  0  0  0  0  0  0  0  0  0  0
  138.5308   78.0402  219.1199 H   0  0  0  0  0  0  0  0  0  0  0  0
  137.6369   78.8487  221.6131 H   0  0  0  0  0  0  0  0  0  0  0  0
  137.3929   77.2245  221.0638 H   0  0  0  0  0  0  0  0  0  0  0  0
  138.8707   77.1331  223.2031 H   0  0  0  0  0  0  0  0  0  0  0  0
  141.7149   77.3049  223.3182 H   0  0  0  0  0  0  0  0  0  0  0  0
  143.3272   79.1220  223.8510 H   0  0  0  0  0  0  0  0  0  0  0  0
  142.7320   81.4892  223.3863 H   0  0  0  0  0  0  0  0  0  0  0  0
  138.9359   80.1952  221.8727 H   0  0  0  0  0  0  0  0  0  0  0  0
  138.8553   70.0415  222.4318 H   0  0  0  0  0  0  0  0  0  0  0  0
  138.6233   68.3114  224.1647 H   0  0  0  0  0  0  0  0  0  0  0  0
  139.0353   67.5483  226.3988 H   0  0  0  0  0  0  0  0  0  0  0  0
  140.0240   67.9694  228.6305 H   0  0  0  0  0  0  0  0  0  0  0  0
  141.2228   70.1084  229.0851 H   0  0  0  0  0  0  0  0  0  0  0  0
  141.4352   71.8358  227.2996 H   0  0  0  0  0  0  0  0  0  0  0  0
  1  2  2  0
  2  3  1  0
  3  4  1  0
  4  5  1  0
  5  6  2  0
  5  7  1  0
  7  8  1  0
  8  9  1  0
  9 10  1  0
 10 11  1  0
 11 12  1  0
 12 13  2  0
 13 14  1  0
 14 15  2  0
 15 16  1  0
 16 17  1  0
 17 18  1  0
 18 19  1  0
 18 20  1  0
 18 21  1  0
 16 22  2  0
  2 23  1  0
 23 24  2  0
 24 25  1  0
 25 26  2  0
 26 27  1  0
 27 28  2  0
 28 29  1  0
 29 30  2  0
 30 31  1  0
 31 32  2  0
 11  7  1  0
 22 12  1  0
 32 23  1  0
 31 26  1  0
  3 33  1  0
  4 34  1  0
  4 35  1  0
  8 36  1  0
  8 37  1  0
  9 38  1  0
  9 39  1  0
 10 40  1  0
 10 41  1  0
 11 42  1  1
 13 43  1  0
 14 44  1  0
 15 45  1  0
 22 46  1  0
 24 47  1  0
 25 48  1  0
 27 49  1  0
 28 50  1  0
 29 51  1  0
 30 52  1  0
M  END
>  <smiles>  (43) 
O=C(NCC(=O)N1CCCC1c1cccc(OC(F)(F)F)c1)c1ccc2ccccc2n1

>  <score_type>  (43) 
oracle

>  <origin>  (43) 
autodockgpu

>  <m_score__min__energy>  (43) 
-8.5999999999999996

>  <m_primary>  (43) 
energy

>  <rmsd>  (43) 
2.3746874549449304

>  <m_score__min__rmsd>  (43) 
2.3746874549449304

>  <meeko>  (43) 
{"free_energy": -8.37, "intermolecular_energy": -10.46, "internal_energy": -1.13, "cluster_size": 23, "cluster_id": 2, "rank_in_cluster": 7}

>  <energy>  (43) 
-7.62

>  <cluster_rmsd>  (43) 
0.78

>  <cluster>  (43) 
5

$$$$

     RDKit          3D

 52 55  0  0  0  0  0  0  0  0999 V2000
  140.6230   71.7220  221.3840 O   0  0  0  0  0  0  0  0  0  0  0  0
  140.1460   72.1920  222.4670 C   0  0  0  0  0  0  0  0  0  0  0  0
  139.6220   73.5210  222.3710 N   0  0  0  0  0  0  0  0  0  0  0  0
  139.7010   74.1530  221.0690 C   0  0  0  0  0  0  0  0  0  0  0  0
  140.7830   75.1450  221.0150 C   0  0  0  0  0  0  0  0  0  0  0  0
  140.8590   76.1150  221.8270 O   0  0  0  0  0  0  0  0  0  0  0  0
  141.7760   74.9980  220.0070 N   0  0  0  0  0  0  0  0  0  0  0  0
  141.5910   74.5560  218.6150 C   0  0  0  0  0  0  0  0  0  0  0  0
  142.5360   75.4910  217.8830 C   0  0  0  0  0  0  0  0  0  0  0  0
  143.3220   76.2360  218.9360 C   0  0  0  0  0  0  0  0  0  0  0  0
  143.2140   75.2470  220.1010 C   0  0  2  0  0  0  0  0  0  0  0  0
  143.8640   73.9460  219.7660 C   0  0  0  0  0  0  0  0  0  0  0  0
  143.5400   72.8110  220.4880 C   0  0  0  0  0  0  0  0  0  0  0  0
  144.1310   71.5780  220.2000 C   0  0  0  0  0  0  0  0  0  0  0  0
  145.0550   71.4780  219.1780 C   0  0  0  0  0  0  0  0  0  0  0  0
  145.3930   72.5990  218.4460 C   0  0  0  0  0  0  0  0  0  0  0  0
  146.3150   72.5500  217.4130 O   0  0  0  0  0  0  0  0  0  0  0  0
  146.0820   73.1920  216.1760 C   0  0  0  0  0  0  0  0  0  0  0  0
  146.8430   72.6020  215.1800 F   0  0  0  0  0  0  0  0  0  0  0  0
  144.7270   73.1230  215.8860 F   0  0  0  0  0  0  0  0  0  0  0  0
  146.5040   74.5120  216.3200 F   0  0  0  0  0  0  0  0  0  0  0  0
  144.7850   73.8080  218.7600 C   0  0  0  0  0  0  0  0  0  0  0  0
  140.1380   71.4320  223.6960 C   0  0  0  0  0  0  0  0  0  0  0  0
  139.6210   70.1640  223.6770 C   0  0  0  0  0  0  0  0  0  0  0  0
  139.5720   69.3670  224.8000 C   0  0  0  0  0  0  0  0  0  0  0  0
  140.0570   69.8440  225.9950 C   0  0  0  0  0  0  0  0  0  0  0  0
  140.0130   69.0590  227.1150 C   0  0  0  0  0  0  0  0  0  0  0  0
  140.5040   69.5680  228.2850 C   0  0  0  0  0  0  0  0  0  0  0  0
  141.0380   70.8610  228.3260 C   0  0  0  0  0  0  0  0  0  0  0  0
  141.0740   71.6450  227.1750 C   0  0  0  0  0  0  0  0  0  0  0  0
  140.5790   71.1350  225.9920 C   0  0  0  0  0  0  0  0  0  0  0  0
  140.6110   71.8900  224.8720 N   0  0  0  0  0  0  0  0  0  0  0  0
  139.2110   73.9800  223.2150 H   0  0  0  0  0  0  0  0  0  0  0  0
  139.8862   73.3808  220.3078 H   0  0  0  0  0  0  0  0  0  0  0  0
  138.7493   74.6708  220.8792 H   0  0  0  0  0  0  0  0  0  0  0  0
  141.8827   73.5035  218.4837 H   0  0  0  0  0  0  0  0  0  0  0  0
  140.5501   74.5975  218.2619 H   0  0  0  0  0  0  0  0  0  0  0  0
  143.2173   74.9133  217.2410 H   0  0  0  0  0  0  0  0  0  0  0  0
  141.9790   76.1893  217.2410 H   0  0  0  0  0  0  0  0  0  0  0  0
  144.3668   76.3932  218.6300 H   0  0  0  0  0  0  0  0  0  0  0  0
  142.9564   77.2501  219.1548 H   0  0  0  0  0  0  0  0  0  0  0  0
  143.6447   75.6048  221.0478 H   0  0  0  0  0  0  0  0  0  0  0  0
  142.8044   72.8805  221.3029 H   0  0  0  0  0  0  0  0  0  0  0  0
  143.8607   70.6876  220.7867 H   0  0  0  0  0  0  0  0  0  0  0  0
  145.5202   70.5081  218.9480 H   0  0  0  0  0  0  0  0  0  0  0  0
  145.0558   74.6979  218.1728 H   0  0  0  0  0  0  0  0  0  0  0  0
  139.2298   69.7665  222.7289 H   0  0  0  0  0  0  0  0  0  0  0  0
  139.1470   68.3541  224.7408 H   0  0  0  0  0  0  0  0  0  0  0  0
  139.5928   68.0432  227.0749 H   0  0  0  0  0  0  0  0  0  0  0  0
  140.4792   68.9576  229.1997 H   0  0  0  0  0  0  0  0  0  0  0  0
  141.4315   71.2605  229.2724 H   0  0  0  0  0  0  0  0  0  0  0  0
  141.4932   72.6614  227.2088 H   0  0  0  0  0  0  0  0  0  0  0  0
  1  2  2  0
  2  3  1  0
  3  4  1  0
  4  5  1  0
  5  6  2  0
  5  7  1  0
  7  8  1  0
  8  9  1  0
  9 10  1  0
 10 11  1  0
 11 12  1  0
 12 13  2  0
 13 14  1  0
 14 15  2  0
 15 16  1  0
 16 17  1  0
 17 18  1  0
 18 19  1  0
 18 20  1  0
 18 21  1  0
 16 22  2  0
  2 23  1  0
 23 24  2  0
 24 25  1  0
 25 26  2  0
 26 27  1  0
 27 28  2  0
 28 29  1  0
 29 30  2  0
 30 31  1  0
 31 32  2  0
 11  7  1  0
 22 12  1  0
 32 23  1  0
 31 26  1  0
  3 33  1  0
  4 34  1  0
  4 35  1  0
  8 36  1  0
  8 37  1  0
  9 38  1  0
  9 39  1  0
 10 40  1  0
 10 41  1  0
 11 42  1  1
 13 43  1  0
 14 44  1  0
 15 45  1  0
 22 46  1  0
 24 47  1  0
 25 48  1  0
 27 49  1  0
 28 50  1  0
 29 51  1  0
 30 52  1  0
M  END
>  <smiles>  (44) 
O=C(NCC(=O)N1CCCC1c1cccc(OC(F)(F)F)c1)c1ccc2ccccc2n1

>  <score_type>  (44) 
oracle

>  <origin>  (44) 
autodockgpu

>  <m_score__min__energy>  (44) 
-8.5999999999999996

>  <m_primary>  (44) 
energy

>  <rmsd>  (44) 
1.9813732313251975

>  <m_score__min__rmsd>  (44) 
1.9813732313251975

>  <meeko>  (44) 
{"free_energy": -7.7, "intermolecular_energy": -9.79, "internal_energy": -1.65, "cluster_size": 5, "cluster_id": 5, "rank_in_cluster": 3}

>  <energy>  (44) 
-7.27

>  <cluster_rmsd>  (44) 
1.91

>  <cluster>  (44) 
5

$$$$

     RDKit          3D

 52 55  0  0  0  0  0  0  0  0999 V2000
  140.4250   73.3890  222.4110 O   0  0  0  0  0  0  0  0  0  0  0  0
  140.1820   72.1410  222.4550 C   0  0  0  0  0  0  0  0  0  0  0  0
  139.9820   71.5180  221.1820 N   0  0  0  0  0  0  0  0  0  0  0  0
  140.0820   72.3780  220.0210 C   0  0  0  0  0  0  0  0  0  0  0  0
  141.4710   72.5000  219.5570 C   0  0  0  0  0  0  0  0  0  0  0  0
  142.0790   71.5570  218.9680 O   0  0  0  0  0  0  0  0  0  0  0  0
  142.1470   73.7310  219.7860 N   0  0  0  0  0  0  0  0  0  0  0  0
  143.1450   74.0330  220.8250 C   0  0  0  0  0  0  0  0  0  0  0  0
  144.1280   74.8880  220.0470 C   0  0  0  0  0  0  0  0  0  0  0  0
  143.5020   75.1650  218.7010 C   0  0  0  0  0  0  0  0  0  0  0  0
  142.0210   74.9900  219.0520 C   0  0  2  0  0  0  0  0  0  0  0  0
  141.5840   75.9950  220.0650 C   0  0  0  0  0  0  0  0  0  0  0  0
  142.2050   77.2310  220.1190 C   0  0  0  0  0  0  0  0  0  0  0  0
  141.8200   78.1940  221.0550 C   0  0  0  0  0  0  0  0  0  0  0  0
  140.8030   77.9190  221.9480 C   0  0  0  0  0  0  0  0  0  0  0  0
  140.1700   76.6920  221.9130 C   0  0  0  0  0  0  0  0  0  0  0  0
  139.1450   76.3700  222.7870 O   0  0  0  0  0  0  0  0  0  0  0  0
  137.9020   75.8780  222.3290 C   0  0  0  0  0  0  0  0  0  0  0  0
  137.4630   76.6220  221.2460 F   0  0  0  0  0  0  0  0  0  0  0  0
  138.0480   74.5380  221.9970 F   0  0  0  0  0  0  0  0  0  0  0  0
  136.9910   76.0470  223.3690 F   0  0  0  0  0  0  0  0  0  0  0  0
  140.5790   75.7600  220.9680 C   0  0  0  0  0  0  0  0  0  0  0  0
  140.1140   71.4160  223.7040 C   0  0  0  0  0  0  0  0  0  0  0  0
  139.4960   70.1940  223.7170 C   0  0  0  0  0  0  0  0  0  0  0  0
  139.3850   69.4320  224.8600 C   0  0  0  0  0  0  0  0  0  0  0  0
  139.9090   69.8990  226.0420 C   0  0  0  0  0  0  0  0  0  0  0  0
  139.8030   69.1490  227.1820 C   0  0  0  0  0  0  0  0  0  0  0  0
  140.3350   69.6460  228.3400 C   0  0  0  0  0  0  0  0  0  0  0  0
  140.9710   70.8930  228.3470 C   0  0  0  0  0  0  0  0  0  0  0  0
  141.0690   71.6420  227.1770 C   0  0  0  0  0  0  0  0  0  0  0  0
  140.5330   71.1430  226.0080 C   0  0  0  0  0  0  0  0  0  0  0  0
  140.6240   71.8640  224.8680 N   0  0  0  0  0  0  0  0  0  0  0  0
  139.7780   70.4940  221.1310 H   0  0  0  0  0  0  0  0  0  0  0  0
  139.4704   71.9557  219.2101 H   0  0  0  0  0  0  0  0  0  0  0  0
  139.7237   73.3793  220.3023 H   0  0  0  0  0  0  0  0  0  0  0  0
  142.6998   74.5906  221.6621 H   0  0  0  0  0  0  0  0  0  0  0  0
  143.5917   73.1444  221.2949 H   0  0  0  0  0  0  0  0  0  0  0  0
  144.3116   75.8326  220.5800 H   0  0  0  0  0  0  0  0  0  0  0  0
  145.0929   74.3722  219.9329 H   0  0  0  0  0  0  0  0  0  0  0  0
  143.7205   76.1850  218.3518 H   0  0  0  0  0  0  0  0  0  0  0  0
  143.8621   74.5237  217.8830 H   0  0  0  0  0  0  0  0  0  0  0  0
  141.3357   75.0559  218.1941 H   0  0  0  0  0  0  0  0  0  0  0  0
  143.0163   77.4591  219.4121 H   0  0  0  0  0  0  0  0  0  0  0  0
  142.3263   79.1702  221.0807 H   0  0  0  0  0  0  0  0  0  0  0  0
  140.4977   78.6757  222.6857 H   0  0  0  0  0  0  0  0  0  0  0  0
  140.0714   74.7845  220.9426 H   0  0  0  0  0  0  0  0  0  0  0  0
  139.0719   69.8057  222.7792 H   0  0  0  0  0  0  0  0  0  0  0  0
  138.8798   68.4554  224.8267 H   0  0  0  0  0  0  0  0  0  0  0  0
  139.3019   68.1699  227.1673 H   0  0  0  0  0  0  0  0  0  0  0  0
  140.2627   69.0631  229.2700 H   0  0  0  0  0  0  0  0  0  0  0  0
  141.3963   71.2840  229.2831 H   0  0  0  0  0  0  0  0  0  0  0  0
  141.5689   72.6218  227.1850 H   0  0  0  0  0  0  0  0  0  0  0  0
  1  2  2  0
  2  3  1  0
  3  4  1  0
  4  5  1  0
  5  6  2  0
  5  7  1  0
  7  8  1  0
  8  9  1  0
  9 10  1  0
 10 11  1  0
 11 12  1  0
 12 13  2  0
 13 14  1  0
 14 15  2  0
 15 16  1  0
 16 17  1  0
 17 18  1  0
 18 19  1  0
 18 20  1  0
 18 21  1  0
 16 22  2  0
  2 23  1  0
 23 24  2  0
 24 25  1  0
 25 26  2  0
 26 27  1  0
 27 28  2  0
 28 29  1  0
 29 30  2  0
 30 31  1  0
 31 32  2  0
 11  7  1  0
 22 12  1  0
 32 23  1  0
 31 26  1  0
  3 33  1  0
  4 34  1  0
  4 35  1  0
  8 36  1  0
  8 37  1  0
  9 38  1  0
  9 39  1  0
 10 40  1  0
 10 41  1  0
 11 42  1  6
 13 43  1  0
 14 44  1  0
 15 45  1  0
 22 46  1  0
 24 47  1  0
 25 48  1  0
 27 49  1  0
 28 50  1  0
 29 51  1  0
 30 52  1  0
M  END
>  <smiles>  (45) 
O=C(NCC(=O)N1CCCC1c1cccc(OC(F)(F)F)c1)c1ccc2ccccc2n1

>  <score_type>  (45) 
oracle

>  <origin>  (45) 
autodockgpu

>  <m_score__min__energy>  (45) 
-8.5999999999999996

>  <m_primary>  (45) 
energy

>  <rmsd>  (45) 
2.8569641607680754

>  <m_score__min__rmsd>  (45) 
2.8569641607680754

>  <meeko>  (45) 
{"free_energy": -7.41, "intermolecular_energy": -9.5, "internal_energy": -1.72, "cluster_size": 1, "cluster_id": 7, "rank_in_cluster": 1}

>  <energy>  (45) 
-7.85

>  <cluster_rmsd>  (45) 
0.0

>  <cluster>  (45) 
6

$$$$

     RDKit          3D

 52 55  0  0  0  0  0  0  0  0999 V2000
  141.3340   72.2850  221.9140 O   0  0  0  0  0  0  0  0  0  0  0  0
  140.3200   72.2800  222.6840 C   0  0  0  0  0  0  0  0  0  0  0  0
  139.3070   73.2370  222.3570 N   0  0  0  0  0  0  0  0  0  0  0  0
  139.5620   74.0790  221.2060 C   0  0  0  0  0  0  0  0  0  0  0  0
  140.0970   75.3880  221.6030 C   0  0  0  0  0  0  0  0  0  0  0  0
  141.3000   75.5520  221.9670 O   0  0  0  0  0  0  0  0  0  0  0  0
  139.2180   76.5070  221.5720 N   0  0  0  0  0  0  0  0  0  0  0  0
  139.1020   77.5350  220.5250 C   0  0  0  0  0  0  0  0  0  0  0  0
  137.5980   77.7280  220.4700 C   0  0  0  0  0  0  0  0  0  0  0  0
  137.0110   76.9500  221.6240 C   0  0  0  0  0  0  0  0  0  0  0  0
  138.2210   76.9100  222.5630 C   0  0  2  0  0  0  0  0  0  0  0  0
  138.6190   78.2840  222.9880 C   0  0  0  0  0  0  0  0  0  0  0  0
  137.6500   79.2530  223.1760 C   0  0  0  0  0  0  0  0  0  0  0  0
  137.9890   80.5490  223.5730 C   0  0  0  0  0  0  0  0  0  0  0  0
  139.3130   80.8800  223.7860 C   0  0  0  0  0  0  0  0  0  0  0  0
  140.2970   79.9290  223.6040 C   0  0  0  0  0  0  0  0  0  0  0  0
  141.6380   80.2120  223.8050 O   0  0  0  0  0  0  0  0  0  0  0  0
  142.5570   80.2680  222.7320 C   0  0  0  0  0  0  0  0  0  0  0  0
  142.5820   79.0560  222.0610 F   0  0  0  0  0  0  0  0  0  0  0  0
  142.1930   81.3070  221.8880 F   0  0  0  0  0  0  0  0  0  0  0  0
  143.8160   80.4820  223.2880 F   0  0  0  0  0  0  0  0  0  0  0  0
  139.9220   78.6500  223.2090 C   0  0  0  0  0  0  0  0  0  0  0  0
  140.2090   71.3700  223.8010 C   0  0  0  0  0  0  0  0  0  0  0  0
  139.5750   70.1720  223.6080 C   0  0  0  0  0  0  0  0  0  0  0  0
  139.4220   69.2430  224.6150 C   0  0  0  0  0  0  0  0  0  0  0  0
  139.9190   69.5110  225.8680 C   0  0  0  0  0  0  0  0  0  0  0  0
  139.7720   68.5950  226.8740 C   0  0  0  0  0  0  0  0  0  0  0  0
  140.2800   68.8960  228.1070 C   0  0  0  0  0  0  0  0  0  0  0  0
  140.9320   70.1150  228.3260 C   0  0  0  0  0  0  0  0  0  0  0  0
  141.0710   71.0350  227.2900 C   0  0  0  0  0  0  0  0  0  0  0  0
  140.5600   70.7350  226.0440 C   0  0  0  0  0  0  0  0  0  0  0  0
  140.6920   71.6230  225.0330 N   0  0  0  0  0  0  0  0  0  0  0  0
  138.4410   73.2970  222.9390 H   0  0  0  0  0  0  0  0  0  0  0  0
  140.2912   73.5786  220.5519 H   0  0  0  0  0  0  0  0  0  0  0  0
  138.6096   74.2412  220.6799 H   0  0  0  0  0  0  0  0  0  0  0  0
  139.6177   78.4633  220.8120 H   0  0  0  0  0  0  0  0  0  0  0  0
  139.5576   77.2550  219.5637 H   0  0  0  0  0  0  0  0  0  0  0  0
  137.3501   78.7951  220.5688 H   0  0  0  0  0  0  0  0  0  0  0  0
  137.1915   77.3747  219.5109 H   0  0  0  0  0  0  0  0  0  0  0  0
  136.1587   77.4759  222.0790 H   0  0  0  0  0  0  0  0  0  0  0  0
  136.6001   75.9653  221.3567 H   0  0  0  0  0  0  0  0  0  0  0  0
  138.0778   76.3046  223.4702 H   0  0  0  0  0  0  0  0  0  0  0  0
  136.5928   78.9985  223.0098 H   0  0  0  0  0  0  0  0  0  0  0  0
  137.2026   81.3047  223.7157 H   0  0  0  0  0  0  0  0  0  0  0  0
  139.5827   81.8991  224.1000 H   0  0  0  0  0  0  0  0  0  0  0  0
  140.7089   77.8946  223.0668 H   0  0  0  0  0  0  0  0  0  0  0  0
  139.1720   69.9418  222.6107 H   0  0  0  0  0  0  0  0  0  0  0  0
  138.9050   68.2925  224.4167 H   0  0  0  0  0  0  0  0  0  0  0  0
  139.2574   67.6394  226.6948 H   0  0  0  0  0  0  0  0  0  0  0  0
  140.1757   68.1759  228.9319 H   0  0  0  0  0  0  0  0  0  0  0  0
  141.3369   70.3475  229.3220 H   0  0  0  0  0  0  0  0  0  0  0  0
  141.5837   71.9926  227.4635 H   0  0  0  0  0  0  0  0  0  0  0  0
  1  2  2  0
  2  3  1  0
  3  4  1  0
  4  5  1  0
  5  6  2  0
  5  7  1  0
  7  8  1  0
  8  9  1  0
  9 10  1  0
 10 11  1  0
 11 12  1  0
 12 13  2  0
 13 14  1  0
 14 15  2  0
 15 16  1  0
 16 17  1  0
 17 18  1  0
 18 19  1  0
 18 20  1  0
 18 21  1  0
 16 22  2  0
  2 23  1  0
 23 24  2  0
 24 25  1  0
 25 26  2  0
 26 27  1  0
 27 28  2  0
 28 29  1  0
 29 30  2  0
 30 31  1  0
 31 32  2  0
 11  7  1  0
 22 12  1  0
 32 23  1  0
 31 26  1  0
  3 33  1  0
  4 34  1  0
  4 35  1  0
  8 36  1  0
  8 37  1  0
  9 38  1  0
  9 39  1  0
 10 40  1  0
 10 41  1  0
 11 42  1  1
 13 43  1  0
 14 44  1  0
 15 45  1  0
 22 46  1  0
 24 47  1  0
 25 48  1  0
 27 49  1  0
 28 50  1  0
 29 51  1  0
 30 52  1  0
M  END
>  <smiles>  (46) 
O=C(NCC(=O)N1CCCC1c1cccc(OC(F)(F)F)c1)c1ccc2ccccc2n1

>  <score_type>  (46) 
oracle

>  <origin>  (46) 
autodockgpu

>  <m_score__min__energy>  (46) 
-8.5999999999999996

>  <m_primary>  (46) 
energy

>  <rmsd>  (46) 
2.7417444207955377

>  <m_score__min__rmsd>  (46) 
2.7417444207955377

>  <meeko>  (46) 
{"free_energy": -8.2, "intermolecular_energy": -10.29, "internal_energy": -1.27, "cluster_size": 9, "cluster_id": 3, "rank_in_cluster": 2}

>  <energy>  (46) 
-7.79

>  <cluster_rmsd>  (46) 
0.35

>  <cluster>  (46) 
6

$$$$

     RDKit          3D

 52 55  0  0  0  0  0  0  0  0999 V2000
  141.2380   72.3800  222.3640 O   0  0  0  0  0  0  0  0  0  0  0  0
  140.2370   72.1720  223.1230 C   0  0  0  0  0  0  0  0  0  0  0  0
  139.0210   72.8000  222.7030 N   0  0  0  0  0  0  0  0  0  0  0  0
  139.0840   73.5800  221.4850 C   0  0  0  0  0  0  0  0  0  0  0  0
  139.6260   74.9230  221.7310 C   0  0  0  0  0  0  0  0  0  0  0  0
  140.8540   75.1290  221.9700 O   0  0  0  0  0  0  0  0  0  0  0  0
  138.7260   76.0250  221.6960 N   0  0  0  0  0  0  0  0  0  0  0  0
  138.3230   76.8240  220.5280 C   0  0  0  0  0  0  0  0  0  0  0  0
  136.8440   77.0210  220.8060 C   0  0  0  0  0  0  0  0  0  0  0  0
  136.5830   76.4980  222.1980 C   0  0  0  0  0  0  0  0  0  0  0  0
  137.9860   76.6310  222.8020 C   0  0  2  0  0  0  0  0  0  0  0  0
  138.4250   78.0570  222.8370 C   0  0  0  0  0  0  0  0  0  0  0  0
  137.5030   79.0540  223.1040 C   0  0  0  0  0  0  0  0  0  0  0  0
  137.8820   80.3980  223.1430 C   0  0  0  0  0  0  0  0  0  0  0  0
  139.1970   80.7510  222.9130 C   0  0  0  0  0  0  0  0  0  0  0  0
  140.1340   79.7720  222.6440 C   0  0  0  0  0  0  0  0  0  0  0  0
  141.4640   80.0760  222.4070 O   0  0  0  0  0  0  0  0  0  0  0  0
  142.4230   80.0830  223.4450 C   0  0  0  0  0  0  0  0  0  0  0  0
  143.6940   79.9100  222.9230 F   0  0  0  0  0  0  0  0  0  0  0  0
  142.3200   81.2810  224.1380 F   0  0  0  0  0  0  0  0  0  0  0  0
  142.1400   78.9950  224.2670 F   0  0  0  0  0  0  0  0  0  0  0  0
  139.7210   78.4460  222.6140 C   0  0  0  0  0  0  0  0  0  0  0  0
  140.3320   71.3620  224.3150 C   0  0  0  0  0  0  0  0  0  0  0  0
  140.9730   71.8800  225.4090 C   0  0  0  0  0  0  0  0  0  0  0  0
  141.1120   71.1810  226.5880 C   0  0  0  0  0  0  0  0  0  0  0  0
  140.5920   69.9120  226.6910 C   0  0  0  0  0  0  0  0  0  0  0  0
  140.7250   69.2100  227.8580 C   0  0  0  0  0  0  0  0  0  0  0  0
  140.1960   67.9500  227.9230 C   0  0  0  0  0  0  0  0  0  0  0  0
  139.5370   67.4020  226.8160 C   0  0  0  0  0  0  0  0  0  0  0  0
  139.4120   68.1320  225.6370 C   0  0  0  0  0  0  0  0  0  0  0  0
  139.9450   69.4030  225.5680 C   0  0  0  0  0  0  0  0  0  0  0  0
  139.8280   70.1170  224.4260 N   0  0  0  0  0  0  0  0  0  0  0  0
  138.1510   72.6790  223.2710 H   0  0  0  0  0  0  0  0  0  0  0  0
  139.7302   73.0611  220.7617 H   0  0  0  0  0  0  0  0  0  0  0  0
  138.0623   73.6877  221.0919 H   0  0  0  0  0  0  0  0  0  0  0  0
  138.8583   77.7843  220.4917 H   0  0  0  0  0  0  0  0  0  0  0  0
  138.5426   76.3520  219.5590 H   0  0  0  0  0  0  0  0  0  0  0  0
  136.5881   78.0893  220.7497 H   0  0  0  0  0  0  0  0  0  0  0  0
  136.2308   76.4875  220.0648 H   0  0  0  0  0  0  0  0  0  0  0  0
  135.8477   77.1156  222.7346 H   0  0  0  0  0  0  0  0  0  0  0  0
  136.1558   75.4852  222.2390 H   0  0  0  0  0  0  0  0  0  0  0  0
  138.0895   76.2215  223.8177 H   0  0  0  0  0  0  0  0  0  0  0  0
  136.4530   78.7833  223.2888 H   0  0  0  0  0  0  0  0  0  0  0  0
  137.1331   81.1748  223.3569 H   0  0  0  0  0  0  0  0  0  0  0  0
  139.4977   81.8087  222.9439 H   0  0  0  0  0  0  0  0  0  0  0  0
  140.4706   77.6696  222.4008 H   0  0  0  0  0  0  0  0  0  0  0  0
  141.3935   72.8943  225.3436 H   0  0  0  0  0  0  0  0  0  0  0  0
  141.6358   71.6352  227.4420 H   0  0  0  0  0  0  0  0  0  0  0  0
  141.2447   69.6481  228.7229 H   0  0  0  0  0  0  0  0  0  0  0  0
  140.2889   67.3646  228.8496 H   0  0  0  0  0  0  0  0  0  0  0  0
  139.1152   66.3880  226.8781 H   0  0  0  0  0  0  0  0  0  0  0  0
  138.8932   67.6997  224.7687 H   0  0  0  0  0  0  0  0  0  0  0  0
  1  2  2  0
  2  3  1  0
  3  4  1  0
  4  5  1  0
  5  6  2  0
  5  7  1  0
  7  8  1  0
  8  9  1  0
  9 10  1  0
 10 11  1  0
 11 12  1  0
 12 13  2  0
 13 14  1  0
 14 15  2  0
 15 16  1  0
 16 17  1  0
 17 18  1  0
 18 19  1  0
 18 20  1  0
 18 21  1  0
 16 22  2  0
  2 23  1  0
 23 24  2  0
 24 25  1  0
 25 26  2  0
 26 27  1  0
 27 28  2  0
 28 29  1  0
 29 30  2  0
 30 31  1  0
 31 32  2  0
 11  7  1  0
 22 12  1  0
 32 23  1  0
 31 26  1  0
  3 33  1  0
  4 34  1  0
  4 35  1  0
  8 36  1  0
  8 37  1  0
  9 38  1  0
  9 39  1  0
 10 40  1  0
 10 41  1  0
 11 42  1  1
 13 43  1  0
 14 44  1  0
 15 45  1  0
 22 46  1  0
 24 47  1  0
 25 48  1  0
 27 49  1  0
 28 50  1  0
 29 51  1  0
 30 52  1  0
M  END
>  <smiles>  (47) 
O=C(NCC(=O)N1CCCC1c1cccc(OC(F)(F)F)c1)c1ccc2ccccc2n1

>  <score_type>  (47) 
oracle

>  <origin>  (47) 
autodockgpu

>  <m_score__min__energy>  (47) 
-8.5999999999999996

>  <m_primary>  (47) 
energy

>  <rmsd>  (47) 
3.6673712925005457

>  <m_score__min__rmsd>  (47) 
3.6673712925005457

>  <meeko>  (47) 
{"free_energy": -7.92, "intermolecular_energy": -10.01, "internal_energy": -1.23, "cluster_size": 9, "cluster_id": 3, "rank_in_cluster": 5}

>  <energy>  (47) 
-7.66

>  <cluster_rmsd>  (47) 
1.6

>  <cluster>  (47) 
6

$$$$

     RDKit          3D

 52 55  0  0  0  0  0  0  0  0999 V2000
  138.9980   72.8970  222.2340 O   0  0  0  0  0  0  0  0  0  0  0  0
  140.0320   72.2370  222.5730 C   0  0  0  0  0  0  0  0  0  0  0  0
  141.1460   72.3600  221.6820 N   0  0  0  0  0  0  0  0  0  0  0  0
  140.9560   73.2090  220.5240 C   0  0  0  0  0  0  0  0  0  0  0  0
  141.3980   74.5850  220.7850 C   0  0  0  0  0  0  0  0  0  0  0  0
  142.6210   74.9000  220.8920 O   0  0  0  0  0  0  0  0  0  0  0  0
  140.4030   75.5940  220.9190 N   0  0  0  0  0  0  0  0  0  0  0  0
  140.0970   76.6900  219.9860 C   0  0  0  0  0  0  0  0  0  0  0  0
  138.5810   76.7120  220.0470 C   0  0  0  0  0  0  0  0  0  0  0  0
  138.1700   75.7720  221.1560 C   0  0  0  0  0  0  0  0  0  0  0  0
  139.4450   75.7890  222.0070 C   0  0  2  0  0  0  0  0  0  0  0  0
  139.7220   77.1570  222.5370 C   0  0  0  0  0  0  0  0  0  0  0  0
  138.6720   78.0230  222.7850 C   0  0  0  0  0  0  0  0  0  0  0  0
  138.8980   79.3100  223.2810 C   0  0  0  0  0  0  0  0  0  0  0  0
  140.1880   79.7360  223.5310 C   0  0  0  0  0  0  0  0  0  0  0  0
  141.2500   78.8880  223.2890 C   0  0  0  0  0  0  0  0  0  0  0  0
  142.5610   79.2690  223.5240 O   0  0  0  0  0  0  0  0  0  0  0  0
  143.0430   80.5460  223.1570 C   0  0  0  0  0  0  0  0  0  0  0  0
  144.4260   80.5700  223.2160 F   0  0  0  0  0  0  0  0  0  0  0  0
  142.5860   80.8450  221.8800 F   0  0  0  0  0  0  0  0  0  0  0  0
  142.5520   81.4500  224.0960 F   0  0  0  0  0  0  0  0  0  0  0  0
  140.9880   77.6160  222.7970 C   0  0  0  0  0  0  0  0  0  0  0  0
  140.0700   71.4280  223.7700 C   0  0  0  0  0  0  0  0  0  0  0  0
  139.5690   70.1550  223.7150 C   0  0  0  0  0  0  0  0  0  0  0  0
  139.5620   69.3120  224.8050 C   0  0  0  0  0  0  0  0  0  0  0  0
  140.0750   69.7480  226.0040 C   0  0  0  0  0  0  0  0  0  0  0  0
  140.0730   68.9190  227.0920 C   0  0  0  0  0  0  0  0  0  0  0  0
  140.5910   69.3860  228.2680 C   0  0  0  0  0  0  0  0  0  0  0  0
  141.1080   70.6850  228.3460 C   0  0  0  0  0  0  0  0  0  0  0  0
  141.1010   71.5150  227.2280 C   0  0  0  0  0  0  0  0  0  0  0  0
  140.5790   71.0460  226.0400 C   0  0  0  0  0  0  0  0  0  0  0  0
  140.5690   71.8460  224.9500 N   0  0  0  0  0  0  0  0  0  0  0  0
  142.0350   71.8500  221.8890 H   0  0  0  0  0  0  0  0  0  0  0  0
  141.5360   72.8010  219.6831 H   0  0  0  0  0  0  0  0  0  0  0  0
  139.8823   73.2315  220.2859 H   0  0  0  0  0  0  0  0  0  0  0  0
  140.5283   77.6426  220.3273 H   0  0  0  0  0  0  0  0  0  0  0  0
  140.5068   76.5506  218.9748 H   0  0  0  0  0  0  0  0  0  0  0  0
  138.2264   77.7304  220.2641 H   0  0  0  0  0  0  0  0  0  0  0  0
  138.1449   76.4004  219.0864 H   0  0  0  0  0  0  0  0  0  0  0  0
  137.3021   76.1536  221.7137 H   0  0  0  0  0  0  0  0  0  0  0  0
  137.8496   74.7741  220.8220 H   0  0  0  0  0  0  0  0  0  0  0  0
  139.4371   75.0927  222.8585 H   0  0  0  0  0  0  0  0  0  0  0  0
  137.6413   77.6929  222.5884 H   0  0  0  0  0  0  0  0  0  0  0  0
  138.0493   79.9831  223.4721 H   0  0  0  0  0  0  0  0  0  0  0  0
  140.3685   80.7482  223.9219 H   0  0  0  0  0  0  0  0  0  0  0  0
  141.8375   76.9437  222.6065 H   0  0  0  0  0  0  0  0  0  0  0  0
  139.1557   69.7907  222.7629 H   0  0  0  0  0  0  0  0  0  0  0  0
  139.1486   68.2965  224.7165 H   0  0  0  0  0  0  0  0  0  0  0  0
  139.6641   67.9002  227.0224 H   0  0  0  0  0  0  0  0  0  0  0  0
  140.6017   68.7383  229.1570 H   0  0  0  0  0  0  0  0  0  0  0  0
  141.5223   71.0521  229.2966 H   0  0  0  0  0  0  0  0  0  0  0  0
  141.5078   72.5350  227.2913 H   0  0  0  0  0  0  0  0  0  0  0  0
  1  2  2  0
  2  3  1  0
  3  4  1  0
  4  5  1  0
  5  6  2  0
  5  7  1  0
  7  8  1  0
  8  9  1  0
  9 10  1  0
 10 11  1  0
 11 12  1  0
 12 13  2  0
 13 14  1  0
 14 15  2  0
 15 16  1  0
 16 17  1  0
 17 18  1  0
 18 19  1  0
 18 20  1  0
 18 21  1  0
 16 22  2  0
  2 23  1  0
 23 24  2  0
 24 25  1  0
 25 26  2  0
 26 27  1  0
 27 28  2  0
 28 29  1  0
 29 30  2  0
 30 31  1  0
 31 32  2  0
 11  7  1  0
 22 12  1  0
 32 23  1  0
 31 26  1  0
  3 33  1  0
  4 34  1  0
  4 35  1  0
  8 36  1  0
  8 37  1  0
  9 38  1  0
  9 39  1  0
 10 40  1  0
 10 41  1  0
 11 42  1  1
 13 43  1  0
 14 44  1  0
 15 45  1  0
 22 46  1  0
 24 47  1  0
 25 48  1  0
 27 49  1  0
 28 50  1  0
 29 51  1  0
 30 52  1  0
M  END
>  <smiles>  (48) 
O=C(NCC(=O)N1CCCC1c1cccc(OC(F)(F)F)c1)c1ccc2ccccc2n1

>  <score_type>  (48) 
oracle

>  <origin>  (48) 
autodockgpu

>  <m_score__min__energy>  (48) 
-8.5999999999999996

>  <m_primary>  (48) 
energy

>  <rmsd>  (48) 
2.5236337554605117

>  <m_score__min__rmsd>  (48) 
2.5236337554605117

>  <meeko>  (48) 
{"free_energy": -7.76, "intermolecular_energy": -9.85, "internal_energy": -1.46, "cluster_size": 9, "cluster_id": 3, "rank_in_cluster": 7}

>  <energy>  (48) 
-7.65

>  <cluster_rmsd>  (48) 
0.78

>  <cluster>  (48) 
6

$$$$

     RDKit          3D

 52 55  0  0  0  0  0  0  0  0999 V2000
  140.7210   74.1300  220.6010 O   0  0  0  0  0  0  0  0  0  0  0  0
  140.2660   74.9640  221.4480 C   0  0  0  0  0  0  0  0  0  0  0  0
  139.2330   74.4570  222.3010 N   0  0  0  0  0  0  0  0  0  0  0  0
  138.8440   73.0770  222.0920 C   0  0  0  0  0  0  0  0  0  0  0  0
  139.6890   72.1550  222.8640 C   0  0  0  0  0  0  0  0  0  0  0  0
  140.9250   72.3590  223.0520 O   0  0  0  0  0  0  0  0  0  0  0  0
  139.0800   70.9930  223.4160 N   0  0  0  0  0  0  0  0  0  0  0  0
  137.8490   70.9150  224.2190 C   0  0  0  0  0  0  0  0  0  0  0  0
  137.2130   69.6560  223.6570 C   0  0  0  0  0  0  0  0  0  0  0  0
  138.2300   69.0220  222.7370 C   0  0  0  0  0  0  0  0  0  0  0  0
  139.5210   69.6030  223.3230 C   0  0  2  0  0  0  0  0  0  0  0  0
  139.7220   69.1560  224.7330 C   0  0  0  0  0  0  0  0  0  0  0  0
  139.2100   67.9390  225.1480 C   0  0  0  0  0  0  0  0  0  0  0  0
  139.3800   67.4930  226.4610 C   0  0  0  0  0  0  0  0  0  0  0  0
  140.0690   68.2720  227.3710 C   0  0  0  0  0  0  0  0  0  0  0  0
  140.5860   69.4910  226.9780 C   0  0  0  0  0  0  0  0  0  0  0  0
  141.2840   70.3070  227.8530 O   0  0  0  0  0  0  0  0  0  0  0  0
  141.0080   71.6890  227.9630 C   0  0  0  0  0  0  0  0  0  0  0  0
  140.9920   72.2740  226.7080 F   0  0  0  0  0  0  0  0  0  0  0  0
  139.7920   71.8500  228.6120 F   0  0  0  0  0  0  0  0  0  0  0  0
  142.0520   72.2530  228.6920 F   0  0  0  0  0  0  0  0  0  0  0  0
  140.3990   69.9010  225.6640 C   0  0  0  0  0  0  0  0  0  0  0  0
  140.7620   76.3180  221.5360 C   0  0  0  0  0  0  0  0  0  0  0  0
  141.1550   76.9460  220.3840 C   0  0  0  0  0  0  0  0  0  0  0  0
  141.6410   78.2360  220.3710 C   0  0  0  0  0  0  0  0  0  0  0  0
  141.7410   78.9370  221.5500 C   0  0  0  0  0  0  0  0  0  0  0  0
  142.2210   80.2180  221.5470 C   0  0  0  0  0  0  0  0  0  0  0  0
  142.3070   80.8830  222.7390 C   0  0  0  0  0  0  0  0  0  0  0  0
  141.9100   80.2590  223.9270 C   0  0  0  0  0  0  0  0  0  0  0  0
  141.4240   78.9550  223.9100 C   0  0  0  0  0  0  0  0  0  0  0  0
  141.3360   78.2800  222.7100 C   0  0  0  0  0  0  0  0  0  0  0  0
  140.8650   77.0140  222.6860 N   0  0  0  0  0  0  0  0  0  0  0  0
  138.8060   75.0780  223.0250 H   0  0  0  0  0  0  0  0  0  0  0  0
  137.7973   72.9496  222.4054 H   0  0  0  0  0  0  0  0  0  0  0  0
  138.9650   72.8429  221.0240 H   0  0  0  0  0  0  0  0  0  0  0  0
  138.0724   70.8104  225.2910 H   0  0  0  0  0  0  0  0  0  0  0  0
  137.2118   71.8096  224.1586 H   0  0  0  0  0  0  0  0  0  0  0  0
  136.9587   68.9641  224.4735 H   0  0  0  0  0  0  0  0  0  0  0  0
  136.2857   69.8924  223.1146 H   0  0  0  0  0  0  0  0  0  0  0  0
  138.2104   67.9241  222.8022 H   0  0  0  0  0  0  0  0  0  0  0  0
  138.0755   69.2249  221.6670 H   0  0  0  0  0  0  0  0  0  0  0  0
  140.4323   69.3570  222.7582 H   0  0  0  0  0  0  0  0  0  0  0  0
  138.6595   67.3118  224.4314 H   0  0  0  0  0  0  0  0  0  0  0  0
  138.9656   66.5221  226.7703 H   0  0  0  0  0  0  0  0  0  0  0  0
  140.2053   67.9224  228.4050 H   0  0  0  0  0  0  0  0  0  0  0  0
  140.8146   70.8715  225.3550 H   0  0  0  0  0  0  0  0  0  0  0  0
  141.0799   76.3998  219.4322 H   0  0  0  0  0  0  0  0  0  0  0  0
  141.9472   78.7021  219.4228 H   0  0  0  0  0  0  0  0  0  0  0  0
  142.5303   80.7015  220.6086 H   0  0  0  0  0  0  0  0  0  0  0  0
  142.6903   81.9138  222.7640 H   0  0  0  0  0  0  0  0  0  0  0  0
  141.9825   80.8027  224.8805 H   0  0  0  0  0  0  0  0  0  0  0  0
  141.1127   78.4668  224.8453 H   0  0  0  0  0  0  0  0  0  0  0  0
  1  2  2  0
  2  3  1  0
  3  4  1  0
  4  5  1  0
  5  6  2  0
  5  7  1  0
  7  8  1  0
  8  9  1  0
  9 10  1  0
 10 11  1  0
 11 12  1  0
 12 13  2  0
 13 14  1  0
 14 15  2  0
 15 16  1  0
 16 17  1  0
 17 18  1  0
 18 19  1  0
 18 20  1  0
 18 21  1  0
 16 22  2  0
  2 23  1  0
 23 24  2  0
 24 25  1  0
 25 26  2  0
 26 27  1  0
 27 28  2  0
 28 29  1  0
 29 30  2  0
 30 31  1  0
 31 32  2  0
 11  7  1  0
 22 12  1  0
 32 23  1  0
 31 26  1  0
  3 33  1  0
  4 34  1  0
  4 35  1  0
  8 36  1  0
  8 37  1  0
  9 38  1  0
  9 39  1  0
 10 40  1  0
 10 41  1  0
 11 42  1  6
 13 43  1  0
 14 44  1  0
 15 45  1  0
 22 46  1  0
 24 47  1  0
 25 48  1  0
 27 49  1  0
 28 50  1  0
 29 51  1  0
 30 52  1  0
M  END
>  <smiles>  (49) 
O=C(NCC(=O)N1CCCC1c1cccc(OC(F)(F)F)c1)c1ccc2ccccc2n1

>  <score_type>  (49) 
oracle

>  <origin>  (49) 
autodockgpu

>  <m_score__min__energy>  (49) 
-8.5999999999999996

>  <m_primary>  (49) 
energy

>  <rmsd>  (49) 
8.385889324751417

>  <m_score__min__rmsd>  (49) 
8.385889324751417

>  <meeko>  (49) 
{"free_energy": -8.6, "intermolecular_energy": -10.69, "internal_energy": -1.27, "cluster_size": 5, "cluster_id": 1, "rank_in_cluster": 1}

>  <energy>  (49) 
-7.41

>  <cluster_rmsd>  (49) 
0.0

>  <cluster>  (49) 
7

$$$$

     RDKit          3D

 52 55  0  0  0  0  0  0  0  0999 V2000
  138.9890   70.7800  221.4040 O   0  0  0  0  0  0  0  0  0  0  0  0
  139.1720   71.5530  222.3980 C   0  0  0  0  0  0  0  0  0  0  0  0
  138.9860   72.9460  222.1240 N   0  0  0  0  0  0  0  0  0  0  0  0
  138.6160   73.2920  220.7670 C   0  0  0  0  0  0  0  0  0  0  0  0
  139.7960   73.4160  219.9010 C   0  0  0  0  0  0  0  0  0  0  0  0
  139.9950   72.6540  218.9080 O   0  0  0  0  0  0  0  0  0  0  0  0
  140.7430   74.4350  220.2010 N   0  0  0  0  0  0  0  0  0  0  0  0
  141.8130   74.4030  221.2110 C   0  0  0  0  0  0  0  0  0  0  0  0
  142.9440   75.0840  220.4610 C   0  0  0  0  0  0  0  0  0  0  0  0
  142.3590   75.6220  219.1770 C   0  0  0  0  0  0  0  0  0  0  0  0
  140.8880   75.7530  219.5850 C   0  0  2  0  0  0  0  0  0  0  0  0
  140.7240   76.7300  220.7020 C   0  0  0  0  0  0  0  0  0  0  0  0
  139.7110   76.5520  221.6270 C   0  0  0  0  0  0  0  0  0  0  0  0
  139.5290   77.4490  222.6830 C   0  0  0  0  0  0  0  0  0  0  0  0
  140.3710   78.5370  222.8160 C   0  0  0  0  0  0  0  0  0  0  0  0
  141.3880   78.7340  221.9030 C   0  0  0  0  0  0  0  0  0  0  0  0
  142.2570   79.8090  221.9940 O   0  0  0  0  0  0  0  0  0  0  0  0
  142.7040   80.3020  223.2410 C   0  0  0  0  0  0  0  0  0  0  0  0
  142.3840   79.4100  224.2510 F   0  0  0  0  0  0  0  0  0  0  0  0
  144.0730   80.5170  223.1700 F   0  0  0  0  0  0  0  0  0  0  0  0
  142.0150   81.4900  223.4770 F   0  0  0  0  0  0  0  0  0  0  0  0
  141.5380   77.8210  220.8670 C   0  0  0  0  0  0  0  0  0  0  0  0
  139.5410   71.0520  223.7030 C   0  0  0  0  0  0  0  0  0  0  0  0
  139.3020   69.7340  223.9880 C   0  0  0  0  0  0  0  0  0  0  0  0
  139.6200   69.1690  225.2040 C   0  0  0  0  0  0  0  0  0  0  0  0
  140.2000   69.9420  226.1820 C   0  0  0  0  0  0  0  0  0  0  0  0
  140.5190   69.3910  227.3930 C   0  0  0  0  0  0  0  0  0  0  0  0
  141.0940   70.1900  228.3410 C   0  0  0  0  0  0  0  0  0  0  0  0
  141.3460   71.5400  228.0700 C   0  0  0  0  0  0  0  0  0  0  0  0
  141.0140   72.0840  226.8320 C   0  0  0  0  0  0  0  0  0  0  0  0
  140.4330   71.2800  225.8730 C   0  0  0  0  0  0  0  0  0  0  0  0
  140.1090   71.8010  224.6680 N   0  0  0  0  0  0  0  0  0  0  0  0
  139.1170   73.6470  222.8880 H   0  0  0  0  0  0  0  0  0  0  0  0
  137.9586   72.5071  220.3648 H   0  0  0  0  0  0  0  0  0  0  0  0
  138.1000   74.2633  220.7875 H   0  0  0  0  0  0  0  0  0  0  0  0
  141.5322   74.9646  222.1142 H   0  0  0  0  0  0  0  0  0  0  0  0
  142.0569   73.3958  221.5798 H   0  0  0  0  0  0  0  0  0  0  0  0
  143.3552   75.9075  221.0634 H   0  0  0  0  0  0  0  0  0  0  0  0
  143.7611   74.3769  220.2550 H   0  0  0  0  0  0  0  0  0  0  0  0
  142.7952   76.5949  218.9065 H   0  0  0  0  0  0  0  0  0  0  0  0
  142.5384   74.9968  218.2899 H   0  0  0  0  0  0  0  0  0  0  0  0
  140.2113   76.0527  218.7712 H   0  0  0  0  0  0  0  0  0  0  0  0
  139.0364   75.6886  221.5296 H   0  0  0  0  0  0  0  0  0  0  0  0
  138.7167   77.2894  223.4074 H   0  0  0  0  0  0  0  0  0  0  0  0
  140.2313   79.2441  223.6470 H   0  0  0  0  0  0  0  0  0  0  0  0
  142.3503   77.9812  220.1428 H   0  0  0  0  0  0  0  0  0  0  0  0
  138.8382   69.1019  223.2164 H   0  0  0  0  0  0  0  0  0  0  0  0
  139.4110   68.1054  225.3912 H   0  0  0  0  0  0  0  0  0  0  0  0
  140.3173   68.3294  227.5989 H   0  0  0  0  0  0  0  0  0  0  0  0
  141.3602   69.7700  229.3222 H   0  0  0  0  0  0  0  0  0  0  0  0
  141.8091   72.1749  228.8397 H   0  0  0  0  0  0  0  0  0  0  0  0
  141.2131   73.1450  226.6205 H   0  0  0  0  0  0  0  0  0  0  0  0
  1  2  2  0
  2  3  1  0
  3  4  1  0
  4  5  1  0
  5  6  2  0
  5  7  1  0
  7  8  1  0
  8  9  1  0
  9 10  1  0
 10 11  1  0
 11 12  1  0
 12 13  2  0
 13 14  1  0
 14 15  2  0
 15 16  1  0
 16 17  1  0
 17 18  1  0
 18 19  1  0
 18 20  1  0
 18 21  1  0
 16 22  2  0
  2 23  1  0
 23 24  2  0
 24 25  1  0
 25 26  2  0
 26 27  1  0
 27 28  2  0
 28 29  1  0
 29 30  2  0
 30 31  1  0
 31 32  2  0
 11  7  1  0
 22 12  1  0
 32 23  1  0
 31 26  1  0
  3 33  1  0
  4 34  1  0
  4 35  1  0
  8 36  1  0
  8 37  1  0
  9 38  1  0
  9 39  1  0
 10 40  1  0
 10 41  1  0
 11 42  1  6
 13 43  1  0
 14 44  1  0
 15 45  1  0
 22 46  1  0
 24 47  1  0
 25 48  1  0
 27 49  1  0
 28 50  1  0
 29 51  1  0
 30 52  1  0
M  END
>  <smiles>  (50) 
O=C(NCC(=O)N1CCCC1c1cccc(OC(F)(F)F)c1)c1ccc2ccccc2n1

>  <score_type>  (50) 
oracle

>  <origin>  (50) 
autodockgpu

>  <m_score__min__energy>  (50) 
-8.5999999999999996

>  <m_primary>  (50) 
energy

>  <rmsd>  (50) 
2.20067245706938

>  <m_score__min__rmsd>  (50) 
2.20067245706938

>  <meeko>  (50) 
{"free_energy": -7.55, "intermolecular_energy": -9.63, "internal_energy": -1.47, "cluster_size": 23, "cluster_id": 2, "rank_in_cluster": 21}

>  <energy>  (50) 
-7.22

>  <cluster_rmsd>  (50) 
0.0

>  <cluster>  (50) 
8

$$$$

     RDKit          3D

 52 55  0  0  0  0  0  0  0  0999 V2000
  139.0050   70.8510  221.3510 O   0  0  0  0  0  0  0  0  0  0  0  0
  139.2060   71.5610  222.3760 C   0  0  0  0  0  0  0  0  0  0  0  0
  139.1230   72.9850  222.3090 N   0  0  0  0  0  0  0  0  0  0  0  0
  138.8070   73.6800  221.0800 C   0  0  0  0  0  0  0  0  0  0  0  0
  139.9980   73.9240  220.2470 C   0  0  0  0  0  0  0  0  0  0  0  0
  140.5950   73.0520  219.5770 O   0  0  0  0  0  0  0  0  0  0  0  0
  140.5130   75.2470  220.1980 N   0  0  0  0  0  0  0  0  0  0  0  0
  140.2070   76.2880  219.2190 C   0  0  0  0  0  0  0  0  0  0  0  0
  141.3800   77.2520  219.2270 C   0  0  0  0  0  0  0  0  0  0  0  0
  142.3830   76.5260  220.0930 C   0  0  0  0  0  0  0  0  0  0  0  0
  141.4680   75.8880  221.1080 C   0  0  1  0  0  0  0  0  0  0  0  0
  140.8010   76.9500  221.8930 C   0  0  0  0  0  0  0  0  0  0  0  0
  139.4210   76.8590  222.0080 C   0  0  0  0  0  0  0  0  0  0  0  0
  138.6860   77.7830  222.7160 C   0  0  0  0  0  0  0  0  0  0  0  0
  139.2990   78.8520  223.3460 C   0  0  0  0  0  0  0  0  0  0  0  0
  140.6720   78.9390  223.2290 C   0  0  0  0  0  0  0  0  0  0  0  0
  141.3290   80.0020  223.8500 O   0  0  0  0  0  0  0  0  0  0  0  0
  142.2380   80.8540  223.1940 C   0  0  0  0  0  0  0  0  0  0  0  0
  143.4160   80.1290  223.0080 F   0  0  0  0  0  0  0  0  0  0  0  0
  142.5580   81.9840  223.8830 F   0  0  0  0  0  0  0  0  0  0  0  0
  141.6950   81.1000  221.9410 F   0  0  0  0  0  0  0  0  0  0  0  0
  141.4110   77.9940  222.5080 C   0  0  0  0  0  0  0  0  0  0  0  0
  139.5320   70.9320  223.6620 C   0  0  0  0  0  0  0  0  0  0  0  0
  139.2990   69.5970  223.8660 C   0  0  0  0  0  0  0  0  0  0  0  0
  139.6120   69.0050  225.0910 C   0  0  0  0  0  0  0  0  0  0  0  0
  140.1600   69.7970  226.0890 C   0  0  0  0  0  0  0  0  0  0  0  0
  140.5000   69.2890  227.3350 C   0  0  0  0  0  0  0  0  0  0  0  0
  141.0490   70.1050  228.3200 C   0  0  0  0  0  0  0  0  0  0  0  0
  141.2680   71.4470  228.0750 C   0  0  0  0  0  0  0  0  0  0  0  0
  140.9200   71.9260  226.8200 C   0  0  0  0  0  0  0  0  0  0  0  0
  140.3790   71.1220  225.8520 C   0  0  0  0  0  0  0  0  0  0  0  0
  140.0690   71.6600  224.6660 N   0  0  0  0  0  0  0  0  0  0  0  0
  139.3040   73.5200  223.2090 H   0  0  0  0  0  0  0  0  0  0  0  0
  138.0928   73.0725  220.5049 H   0  0  0  0  0  0  0  0  0  0  0  0
  138.3815   74.6580  221.3492 H   0  0  0  0  0  0  0  0  0  0  0  0
  140.0871   75.8450  218.2193 H   0  0  0  0  0  0  0  0  0  0  0  0
  139.2686   76.8042  219.4701 H   0  0  0  0  0  0  0  0  0  0  0  0
  141.7717   77.4122  218.2117 H   0  0  0  0  0  0  0  0  0  0  0  0
  141.1239   78.2565  219.5949 H   0  0  0  0  0  0  0  0  0  0  0  0
  142.9415   75.7711  219.5201 H   0  0  0  0  0  0  0  0  0  0  0  0
  143.1639   77.1698  220.5240 H   0  0  0  0  0  0  0  0  0  0  0  0
  141.9417   75.2148  221.8377 H   0  0  0  0  0  0  0  0  0  0  0  0
  138.8988   76.0236  221.5188 H   0  0  0  0  0  0  0  0  0  0  0  0
  137.5938   77.6698  222.7821 H   0  0  0  0  0  0  0  0  0  0  0  0
  138.7203   79.5964  223.9126 H   0  0  0  0  0  0  0  0  0  0  0  0
  142.5037   78.0995  222.4389 H   0  0  0  0  0  0  0  0  0  0  0  0
  138.8629   68.9885  223.0600 H   0  0  0  0  0  0  0  0  0  0  0  0
  139.4280   67.9339  225.2609 H   0  0  0  0  0  0  0  0  0  0  0  0
  140.3327   68.2228  227.5479 H   0  0  0  0  0  0  0  0  0  0  0  0
  141.3102   69.6787  229.2998 H   0  0  0  0  0  0  0  0  0  0  0  0
  141.6996   72.1072  228.8417 H   0  0  0  0  0  0  0  0  0  0  0  0
  141.0846   72.9900  226.5944 H   0  0  0  0  0  0  0  0  0  0  0  0
  1  2  2  0
  2  3  1  0
  3  4  1  0
  4  5  1  0
  5  6  2  0
  5  7  1  0
  7  8  1  0
  8  9  1  0
  9 10  1  0
 10 11  1  0
 11 12  1  0
 12 13  2  0
 13 14  1  0
 14 15  2  0
 15 16  1  0
 16 17  1  0
 17 18  1  0
 18 19  1  0
 18 20  1  0
 18 21  1  0
 16 22  2  0
  2 23  1  0
 23 24  2  0
 24 25  1  0
 25 26  2  0
 26 27  1  0
 27 28  2  0
 28 29  1  0
 29 30  2  0
 30 31  1  0
 31 32  2  0
 11  7  1  0
 22 12  1  0
 32 23  1  0
 31 26  1  0
  3 33  1  0
  4 34  1  0
  4 35  1  0
  8 36  1  0
  8 37  1  0
  9 38  1  0
  9 39  1  0
 10 40  1  0
 10 41  1  0
 11 42  1  1
 13 43  1  0
 14 44  1  0
 15 45  1  0
 22 46  1  0
 24 47  1  0
 25 48  1  0
 27 49  1  0
 28 50  1  0
 29 51  1  0
 30 52  1  0
M  END
>  <smiles>  (51) 
O=C(NCC(=O)N1CCCC1c1cccc(OC(F)(F)F)c1)c1ccc2ccccc2n1

>  <score_type>  (51) 
oracle

>  <origin>  (51) 
autodockgpu

>  <m_score__min__energy>  (51) 
-8.7100000000000009

>  <m_primary>  (51) 
energy

>  <rmsd>  (51) 
1.582583996719428

>  <m_score__min__rmsd>  (51) 
1.582583996719428

>  <meeko>  (51) 
{"free_energy": -7.85, "intermolecular_energy": -9.94, "internal_energy": -1.63, "cluster_size": 10, "cluster_id": 4, "rank_in_cluster": 5}

>  <energy>  (51) 
-8.71

>  <cluster_rmsd>  (51) 
0.0

>  <cluster>  (51) 
1

$$$$

     RDKit          3D

 52 55  0  0  0  0  0  0  0  0999 V2000
  133.6080   70.4770  226.5170 O   0  0  0  0  0  0  0  0  0  0  0  0
  133.8380   71.6300  226.0550 C   0  0  0  0  0  0  0  0  0  0  0  0
  134.7380   71.8150  224.9620 N   0  0  0  0  0  0  0  0  0  0  0  0
  135.4240   70.7070  224.3340 C   0  0  0  0  0  0  0  0  0  0  0  0
  136.7230   71.1000  223.7600 C   0  0  0  0  0  0  0  0  0  0  0  0
  137.0320   72.2620  223.4140 O   0  0  0  0  0  0  0  0  0  0  0  0
  137.7030   70.0860  223.5820 N   0  0  0  0  0  0  0  0  0  0  0  0
  138.8420   70.0980  222.6670 C   0  0  0  0  0  0  0  0  0  0  0  0
  139.2150   68.6470  222.4160 C   0  0  0  0  0  0  0  0  0  0  0  0
  138.0720   67.9070  223.0720 C   0  0  0  0  0  0  0  0  0  0  0  0
  137.8120   68.7930  224.2650 C   0  0  1  0  0  0  0  0  0  0  0  0
  138.9970   68.7740  225.1490 C   0  0  0  0  0  0  0  0  0  0  0  0
  139.4650   67.5230  225.5280 C   0  0  0  0  0  0  0  0  0  0  0  0
  140.5620   67.3710  226.3450 C   0  0  0  0  0  0  0  0  0  0  0  0
  141.2500   68.4720  226.8280 C   0  0  0  0  0  0  0  0  0  0  0  0
  140.7820   69.7140  226.4490 C   0  0  0  0  0  0  0  0  0  0  0  0
  141.4480   70.8480  226.9140 O   0  0  0  0  0  0  0  0  0  0  0  0
  140.9720   71.6640  227.9590 C   0  0  0  0  0  0  0  0  0  0  0  0
  139.7520   71.1290  228.3730 F   0  0  0  0  0  0  0  0  0  0  0  0
  140.7530   72.9630  227.6120 F   0  0  0  0  0  0  0  0  0  0  0  0
  141.8740   71.5110  229.0020 F   0  0  0  0  0  0  0  0  0  0  0  0
  139.6660   69.8570  225.6170 C   0  0  0  0  0  0  0  0  0  0  0  0
  133.1810   72.8070  226.6370 C   0  0  0  0  0  0  0  0  0  0  0  0
  132.0150   72.6770  227.3450 C   0  0  0  0  0  0  0  0  0  0  0  0
  131.3950   73.8000  227.8970 C   0  0  0  0  0  0  0  0  0  0  0  0
  131.9870   75.0410  227.7120 C   0  0  0  0  0  0  0  0  0  0  0  0
  131.4370   76.2070  228.2260 C   0  0  0  0  0  0  0  0  0  0  0  0
  132.0500   77.4410  228.0250 C   0  0  0  0  0  0  0  0  0  0  0  0
  133.2260   77.5290  227.3050 C   0  0  0  0  0  0  0  0  0  0  0  0
  133.7520   76.3470  226.8050 C   0  0  0  0  0  0  0  0  0  0  0  0
  133.1480   75.1340  227.0020 C   0  0  0  0  0  0  0  0  0  0  0  0
  133.7170   74.0370  226.4860 N   0  0  0  0  0  0  0  0  0  0  0  0
  134.8850   72.8130  224.6240 H   0  0  0  0  0  0  0  0  0  0  0  0
  135.5938   69.9242  225.0879 H   0  0  0  0  0  0  0  0  0  0  0  0
  134.7906   70.3450  223.5108 H   0  0  0  0  0  0  0  0  0  0  0  0
  138.5639   70.5870  221.7217 H   0  0  0  0  0  0  0  0  0  0  0  0
  139.6879   70.6558  223.0952 H   0  0  0  0  0  0  0  0  0  0  0  0
  139.2660   68.4286  221.3391 H   0  0  0  0  0  0  0  0  0  0  0  0
  140.2044   68.3704  222.8092 H   0  0  0  0  0  0  0  0  0  0  0  0
  137.1944   67.8492  222.4113 H   0  0  0  0  0  0  0  0  0  0  0  0
  138.2910   66.8583  223.3217 H   0  0  0  0  0  0  0  0  0  0  0  0
  136.9515   68.5236  224.8951 H   0  0  0  0  0  0  0  0  0  0  0  0
  138.9429   66.6258  225.1641 H   0  0  0  0  0  0  0  0  0  0  0  0
  140.8976   66.3598  226.6186 H   0  0  0  0  0  0  0  0  0  0  0  0
  142.1274   68.3618  227.4823 H   0  0  0  0  0  0  0  0  0  0  0  0
  139.3255   70.8650  225.3378 H   0  0  0  0  0  0  0  0  0  0  0  0
  131.5648   71.6824  227.4793 H   0  0  0  0  0  0  0  0  0  0  0  0
  130.4584   73.7028  228.4656 H   0  0  0  0  0  0  0  0  0  0  0  0
  130.5012   76.1554  228.8018 H   0  0  0  0  0  0  0  0  0  0  0  0
  131.5951   78.3516  228.4421 H   0  0  0  0  0  0  0  0  0  0  0  0
  133.7238   78.4952  227.1356 H   0  0  0  0  0  0  0  0  0  0  0  0
  134.6885   76.3854  226.2292 H   0  0  0  0  0  0  0  0  0  0  0  0
  1  2  2  0
  2  3  1  0
  3  4  1  0
  4  5  1  0
  5  6  2  0
  5  7  1  0
  7  8  1  0
  8  9  1  0
  9 10  1  0
 10 11  1  0
 11 12  1  0
 12 13  2  0
 13 14  1  0
 14 15  2  0
 15 16  1  0
 16 17  1  0
 17 18  1  0
 18 19  1  0
 18 20  1  0
 18 21  1  0
 16 22  2  0
  2 23  1  0
 23 24  2  0
 24 25  1  0
 25 26  2  0
 26 27  1  0
 27 28  2  0
 28 29  1  0
 29 30  2  0
 30 31  1  0
 31 32  2  0
 11  7  1  0
 22 12  1  0
 32 23  1  0
 31 26  1  0
  3 33  1  0
  4 34  1  0
  4 35  1  0
  8 36  1  0
  8 37  1  0
  9 38  1  0
  9 39  1  0
 10 40  1  0
 10 41  1  0
 11 42  1  1
 13 43  1  0
 14 44  1  0
 15 45  1  0
 22 46  1  0
 24 47  1  0
 25 48  1  0
 27 49  1  0
 28 50  1  0
 29 51  1  0
 30 52  1  0
M  END
>  <smiles>  (52) 
O=C(NCC(=O)N1CCCC1c1cccc(OC(F)(F)F)c1)c1ccc2ccccc2n1

>  <score_type>  (52) 
oracle

>  <origin>  (52) 
autodockgpu

>  <m_score__min__energy>  (52) 
-8.7100000000000009

>  <m_primary>  (52) 
energy

>  <rmsd>  (52) 
8.715051913316522

>  <m_score__min__rmsd>  (52) 
8.715051913316522

>  <meeko>  (52) 
{"free_energy": -7.54, "intermolecular_energy": -9.63, "internal_energy": -1.76, "cluster_size": 1, "cluster_id": 7, "rank_in_cluster": 1}

>  <energy>  (52) 
-8.71

>  <cluster_rmsd>  (52) 
0.09

>  <cluster>  (52) 
1

$$$$

     RDKit          3D

 52 55  0  0  0  0  0  0  0  0999 V2000
  139.6690   71.0230  221.2340 O   0  0  0  0  0  0  0  0  0  0  0  0
  139.6760   71.6500  222.3310 C   0  0  0  0  0  0  0  0  0  0  0  0
  139.6140   73.0770  222.3580 N   0  0  0  0  0  0  0  0  0  0  0  0
  139.5400   73.8670  221.1490 C   0  0  0  0  0  0  0  0  0  0  0  0
  140.2440   75.1560  221.2720 C   0  0  0  0  0  0  0  0  0  0  0  0
  140.6940   75.6270  222.3410 O   0  0  0  0  0  0  0  0  0  0  0  0
  140.4260   75.9280  220.0940 N   0  0  0  0  0  0  0  0  0  0  0  0
  139.3940   76.4670  219.2120 C   0  0  0  0  0  0  0  0  0  0  0  0
  140.0450   76.6780  217.8560 C   0  0  0  0  0  0  0  0  0  0  0  0
  141.3900   76.0140  218.0420 C   0  0  0  0  0  0  0  0  0  0  0  0
  141.6820   76.3700  219.4790 C   0  0  1  0  0  0  0  0  0  0  0  0
  141.8260   77.8370  219.5930 C   0  0  0  0  0  0  0  0  0  0  0  0
  142.2760   78.5040  218.4630 C   0  0  0  0  0  0  0  0  0  0  0  0
  142.4470   79.8700  218.4410 C   0  0  0  0  0  0  0  0  0  0  0  0
  142.1760   80.6410  219.5580 C   0  0  0  0  0  0  0  0  0  0  0  0
  141.7290   79.9740  220.6810 C   0  0  0  0  0  0  0  0  0  0  0  0
  141.4440   80.7150  221.8280 O   0  0  0  0  0  0  0  0  0  0  0  0
  142.0750   80.5120  223.0710 C   0  0  0  0  0  0  0  0  0  0  0  0
  141.4660   79.4040  223.6620 F   0  0  0  0  0  0  0  0  0  0  0  0
  141.9650   81.5530  223.9430 F   0  0  0  0  0  0  0  0  0  0  0  0
  143.3870   80.1640  222.7810 F   0  0  0  0  0  0  0  0  0  0  0  0
  141.5570   78.5860  220.6930 C   0  0  0  0  0  0  0  0  0  0  0  0
  139.7490   70.9210  223.6030 C   0  0  0  0  0  0  0  0  0  0  0  0
  139.2960   69.6310  223.6950 C   0  0  0  0  0  0  0  0  0  0  0  0
  139.3680   68.9420  224.9080 C   0  0  0  0  0  0  0  0  0  0  0  0
  139.9070   69.5940  226.0080 C   0  0  0  0  0  0  0  0  0  0  0  0
  140.0160   68.9830  227.2490 C   0  0  0  0  0  0  0  0  0  0  0  0
  140.5600   69.6590  228.3390 C   0  0  0  0  0  0  0  0  0  0  0  0
  141.0060   70.9600  228.2030 C   0  0  0  0  0  0  0  0  0  0  0  0
  140.8840   71.5430  226.9500 C   0  0  0  0  0  0  0  0  0  0  0  0
  140.3480   70.8780  225.8800 C   0  0  0  0  0  0  0  0  0  0  0  0
  140.2650   71.5100  224.7030 N   0  0  0  0  0  0  0  0  0  0  0  0
  139.6240   73.5390  223.3150 H   0  0  0  0  0  0  0  0  0  0  0  0
  139.9929   73.2950  220.3258 H   0  0  0  0  0  0  0  0  0  0  0  0
  138.4789   74.0833  220.9560 H   0  0  0  0  0  0  0  0  0  0  0  0
  138.5598   75.7552  219.1254 H   0  0  0  0  0  0  0  0  0  0  0  0
  138.9889   77.4102  219.6074 H   0  0  0  0  0  0  0  0  0  0  0  0
  139.4673   76.1919  217.0560 H   0  0  0  0  0  0  0  0  0  0  0  0
  140.1112   77.7345  217.5571 H   0  0  0  0  0  0  0  0  0  0  0  0
  141.3276   74.9251  217.8989 H   0  0  0  0  0  0  0  0  0  0  0  0
  142.1608   76.3361  217.3264 H   0  0  0  0  0  0  0  0  0  0  0  0
  142.5932   75.9347  219.9151 H   0  0  0  0  0  0  0  0  0  0  0  0
  142.5032   77.9237  217.5566 H   0  0  0  0  0  0  0  0  0  0  0  0
  142.8046   80.3562  217.5213 H   0  0  0  0  0  0  0  0  0  0  0  0
  142.3103   81.7327  219.5513 H   0  0  0  0  0  0  0  0  0  0  0  0
  141.1980   78.0932  221.6085 H   0  0  0  0  0  0  0  0  0  0  0  0
  138.8733   69.1352  222.8087 H   0  0  0  0  0  0  0  0  0  0  0  0
  139.0058   67.9065  224.9894 H   0  0  0  0  0  0  0  0  0  0  0  0
  139.6670   67.9474  227.3743 H   0  0  0  0  0  0  0  0  0  0  0  0
  140.6350   69.1543  229.3135 H   0  0  0  0  0  0  0  0  0  0  0  0
  141.4391   71.5096  229.0517 H   0  0  0  0  0  0  0  0  0  0  0  0
  141.2307   72.5777  226.8111 H   0  0  0  0  0  0  0  0  0  0  0  0
  1  2  2  0
  2  3  1  0
  3  4  1  0
  4  5  1  0
  5  6  2  0
  5  7  1  0
  7  8  1  0
  8  9  1  0
  9 10  1  0
 10 11  1  0
 11 12  1  0
 12 13  2  0
 13 14  1  0
 14 15  2  0
 15 16  1  0
 16 17  1  0
 17 18  1  0
 18 19  1  0
 18 20  1  0
 18 21  1  0
 16 22  2  0
  2 23  1  0
 23 24  2  0
 24 25  1  0
 25 26  2  0
 26 27  1  0
 27 28  2  0
 28 29  1  0
 29 30  2  0
 30 31  1  0
 31 32  2  0
 11  7  1  0
 22 12  1  0
 32 23  1  0
 31 26  1  0
  3 33  1  0
  4 34  1  0
  4 35  1  0
  8 36  1  0
  8 37  1  0
  9 38  1  0
  9 39  1  0
 10 40  1  0
 10 41  1  0
 11 42  1  1
 13 43  1  0
 14 44  1  0
 15 45  1  0
 22 46  1  0
 24 47  1  0
 25 48  1  0
 27 49  1  0
 28 50  1  0
 29 51  1  0
 30 52  1  0
M  END
>  <smiles>  (53) 
O=C(NCC(=O)N1CCCC1c1cccc(OC(F)(F)F)c1)c1ccc2ccccc2n1

>  <score_type>  (53) 
oracle

>  <origin>  (53) 
autodockgpu

>  <m_score__min__energy>  (53) 
-8.7100000000000009

>  <m_primary>  (53) 
energy

>  <rmsd>  (53) 
1.2065230619041607

>  <m_score__min__rmsd>  (53) 
1.2065230619041607

>  <meeko>  (53) 
{"free_energy": -7.74, "intermolecular_energy": -9.82, "internal_energy": -1.64, "cluster_size": 1, "cluster_id": 5, "rank_in_cluster": 1}

>  <energy>  (53) 
-8.69

>  <cluster_rmsd>  (53) 
0.14

>  <cluster>  (53) 
1

$$$$

     RDKit          3D

 52 55  0  0  0  0  0  0  0  0999 V2000
  140.4490   75.4220  220.7170 O   0  0  0  0  0  0  0  0  0  0  0  0
  139.7760   75.8050  221.7150 C   0  0  0  0  0  0  0  0  0  0  0  0
  138.8380   74.9310  222.3440 N   0  0  0  0  0  0  0  0  0  0  0  0
  138.6130   73.5800  221.8780 C   0  0  0  0  0  0  0  0  0  0  0  0
  139.6830   72.6540  222.2920 C   0  0  0  0  0  0  0  0  0  0  0  0
  140.8900   72.9600  222.4070 O   0  0  0  0  0  0  0  0  0  0  0  0
  139.3210   71.3110  222.5820 N   0  0  0  0  0  0  0  0  0  0  0  0
  139.9210   70.0910  222.0460 C   0  0  0  0  0  0  0  0  0  0  0  0
  138.8720   68.9990  222.1680 C   0  0  0  0  0  0  0  0  0  0  0  0
  137.6470   69.7800  222.5850 C   0  0  0  0  0  0  0  0  0  0  0  0
  138.2700   70.8230  223.4800 C   0  0  1  0  0  0  0  0  0  0  0  0
  138.8660   70.1550  224.6580 C   0  0  0  0  0  0  0  0  0  0  0  0
  138.3900   68.8850  224.9540 C   0  0  0  0  0  0  0  0  0  0  0  0
  138.8670   68.1580  226.0210 C   0  0  0  0  0  0  0  0  0  0  0  0
  139.8480   68.6700  226.8520 C   0  0  0  0  0  0  0  0  0  0  0  0
  140.3190   69.9340  226.5550 C   0  0  0  0  0  0  0  0  0  0  0  0
  141.3090   70.4860  227.3670 O   0  0  0  0  0  0  0  0  0  0  0  0
  141.1960   71.7380  228.0020 C   0  0  0  0  0  0  0  0  0  0  0  0
  142.0800   71.7300  229.0820 F   0  0  0  0  0  0  0  0  0  0  0  0
  139.9550   72.0190  228.4910 F   0  0  0  0  0  0  0  0  0  0  0  0
  141.6590   72.6730  227.0870 F   0  0  0  0  0  0  0  0  0  0  0  0
  139.8290   70.6640  225.4670 C   0  0  0  0  0  0  0  0  0  0  0  0
  139.9460   77.1620  222.2480 C   0  0  0  0  0  0  0  0  0  0  0  0
  138.8560   77.9300  222.5620 C   0  0  0  0  0  0  0  0  0  0  0  0
  139.0250   79.2210  223.0700 C   0  0  0  0  0  0  0  0  0  0  0  0
  140.3140   79.6990  223.2460 C   0  0  0  0  0  0  0  0  0  0  0  0
  140.5700   80.9690  223.7450 C   0  0  0  0  0  0  0  0  0  0  0  0
  141.8750   81.4270  223.9120 C   0  0  0  0  0  0  0  0  0  0  0  0
  142.9470   80.6200  223.5830 C   0  0  0  0  0  0  0  0  0  0  0  0
  142.6600   79.3570  223.0880 C   0  0  0  0  0  0  0  0  0  0  0  0
  141.3770   78.9080  222.9230 C   0  0  0  0  0  0  0  0  0  0  0  0
  141.1810   77.6740  222.4390 N   0  0  0  0  0  0  0  0  0  0  0  0
  138.3060   75.3180  223.1790 H   0  0  0  0  0  0  0  0  0  0  0  0
  137.6574   73.2203  222.2872 H   0  0  0  0  0  0  0  0  0  0  0  0
  138.5989   73.6039  220.7784 H   0  0  0  0  0  0  0  0  0  0  0  0
  140.1966   70.2359  220.9910 H   0  0  0  0  0  0  0  0  0  0  0  0
  140.8354   69.8247  222.5965 H   0  0  0  0  0  0  0  0  0  0  0  0
  138.7123   68.4898  221.2061 H   0  0  0  0  0  0  0  0  0  0  0  0
  139.1466   68.1988  222.8710 H   0  0  0  0  0  0  0  0  0  0  0  0
  137.1439   70.2367  221.7200 H   0  0  0  0  0  0  0  0  0  0  0  0
  136.8629   69.1763  223.0653 H   0  0  0  0  0  0  0  0  0  0  0  0
  137.5940   71.5974  223.8716 H   0  0  0  0  0  0  0  0  0  0  0  0
  137.6081   68.4464  224.3166 H   0  0  0  0  0  0  0  0  0  0  0  0
  138.4620   67.1541  226.2163 H   0  0  0  0  0  0  0  0  0  0  0  0
  140.2343   68.0976  227.7083 H   0  0  0  0  0  0  0  0  0  0  0  0
  140.2311   71.6675  225.2639 H   0  0  0  0  0  0  0  0  0  0  0  0
  137.8427   77.5286  222.4136 H   0  0  0  0  0  0  0  0  0  0  0  0
  138.1546   79.8437  223.3244 H   0  0  0  0  0  0  0  0  0  0  0  0
  139.7283   81.6246  224.0130 H   0  0  0  0  0  0  0  0  0  0  0  0
  142.0530   82.4376  224.3083 H   0  0  0  0  0  0  0  0  0  0  0  0
  143.9840   80.9647  223.7084 H   0  0  0  0  0  0  0  0  0  0  0  0
  143.4933   78.6916  222.8180 H   0  0  0  0  0  0  0  0  0  0  0  0
  1  2  2  0
  2  3  1  0
  3  4  1  0
  4  5  1  0
  5  6  2  0
  5  7  1  0
  7  8  1  0
  8  9  1  0
  9 10  1  0
 10 11  1  0
 11 12  1  0
 12 13  2  0
 13 14  1  0
 14 15  2  0
 15 16  1  0
 16 17  1  0
 17 18  1  0
 18 19  1  0
 18 20  1  0
 18 21  1  0
 16 22  2  0
  2 23  1  0
 23 24  2  0
 24 25  1  0
 25 26  2  0
 26 27  1  0
 27 28  2  0
 28 29  1  0
 29 30  2  0
 30 31  1  0
 31 32  2  0
 11  7  1  0
 22 12  1  0
 32 23  1  0
 31 26  1  0
  3 33  1  0
  4 34  1  0
  4 35  1  0
  8 36  1  0
  8 37  1  0
  9 38  1  0
  9 39  1  0
 10 40  1  0
 10 41  1  0
 11 42  1  1
 13 43  1  0
 14 44  1  0
 15 45  1  0
 22 46  1  0
 24 47  1  0
 25 48  1  0
 27 49  1  0
 28 50  1  0
 29 51  1  0
 30 52  1  0
M  END
>  <smiles>  (54) 
O=C(NCC(=O)N1CCCC1c1cccc(OC(F)(F)F)c1)c1ccc2ccccc2n1

>  <score_type>  (54) 
oracle

>  <origin>  (54) 
autodockgpu

>  <m_score__min__energy>  (54) 
-8.7100000000000009

>  <m_primary>  (54) 
energy

>  <rmsd>  (54) 
8.252017789014863

>  <m_score__min__rmsd>  (54) 
8.252017789014863

>  <meeko>  (54) 
{"free_energy": -8.62, "intermolecular_energy": -10.7, "internal_energy": -0.99, "cluster_size": 3, "cluster_id": 2, "rank_in_cluster": 1}

>  <energy>  (54) 
-8.67

>  <cluster_rmsd>  (54) 
0.11

>  <cluster>  (54) 
1

$$$$

     RDKit          3D

 52 55  0  0  0  0  0  0  0  0999 V2000
  141.3460   72.3260  221.7660 O   0  0  0  0  0  0  0  0  0  0  0  0
  140.3640   72.4450  222.5500 C   0  0  0  0  0  0  0  0  0  0  0  0
  139.3790   73.4580  222.3430 N   0  0  0  0  0  0  0  0  0  0  0  0
  139.4540   74.3880  221.2380 C   0  0  0  0  0  0  0  0  0  0  0  0
  140.5600   75.3510  221.3830 C   0  0  0  0  0  0  0  0  0  0  0  0
  140.7560   76.0700  222.3890 O   0  0  0  0  0  0  0  0  0  0  0  0
  141.4750   75.4790  220.3040 N   0  0  0  0  0  0  0  0  0  0  0  0
  142.2640   76.6540  219.9390 C   0  0  0  0  0  0  0  0  0  0  0  0
  142.6000   76.5120  218.4640 C   0  0  0  0  0  0  0  0  0  0  0  0
  141.7560   75.3250  218.0590 C   0  0  0  0  0  0  0  0  0  0  0  0
  141.8490   74.4760  219.3020 C   0  0  1  0  0  0  0  0  0  0  0  0
  143.2530   74.0530  219.4940 C   0  0  0  0  0  0  0  0  0  0  0  0
  143.7030   73.9790  220.8050 C   0  0  0  0  0  0  0  0  0  0  0  0
  144.9880   73.5930  221.1150 C   0  0  0  0  0  0  0  0  0  0  0  0
  145.8920   73.2620  220.1210 C   0  0  0  0  0  0  0  0  0  0  0  0
  145.4420   73.3370  218.8180 C   0  0  0  0  0  0  0  0  0  0  0  0
  146.3230   73.0100  217.7870 O   0  0  0  0  0  0  0  0  0  0  0  0
  146.1830   73.4660  216.4620 C   0  0  0  0  0  0  0  0  0  0  0  0
  147.4400   73.3690  215.8620 F   0  0  0  0  0  0  0  0  0  0  0  0
  145.7730   74.7600  216.3450 F   0  0  0  0  0  0  0  0  0  0  0  0
  145.3460   72.5560  215.8320 F   0  0  0  0  0  0  0  0  0  0  0  0
  144.1340   73.7280  218.5140 C   0  0  0  0  0  0  0  0  0  0  0  0
  140.2160   71.5390  223.6970 C   0  0  0  0  0  0  0  0  0  0  0  0
  139.6050   70.3210  223.5500 C   0  0  0  0  0  0  0  0  0  0  0  0
  139.4680   69.4640  224.6450 C   0  0  0  0  0  0  0  0  0  0  0  0
  139.9620   69.8750  225.8730 C   0  0  0  0  0  0  0  0  0  0  0  0
  139.8680   69.0860  227.0110 C   0  0  0  0  0  0  0  0  0  0  0  0
  140.3710   69.5220  228.2340 C   0  0  0  0  0  0  0  0  0  0  0  0
  140.9810   70.7570  228.3390 C   0  0  0  0  0  0  0  0  0  0  0  0
  141.0610   71.5230  227.1850 C   0  0  0  0  0  0  0  0  0  0  0  0
  140.5650   71.0940  225.9840 C   0  0  0  0  0  0  0  0  0  0  0  0
  140.6810   71.8920  224.9150 N   0  0  0  0  0  0  0  0  0  0  0  0
  138.5800   73.5010  223.0420 H   0  0  0  0  0  0  0  0  0  0  0  0
  139.6015   73.8193  220.3081 H   0  0  0  0  0  0  0  0  0  0  0  0
  138.5144   74.9596  221.2188 H   0  0  0  0  0  0  0  0  0  0  0  0
  141.6800   77.5706  220.1084 H   0  0  0  0  0  0  0  0  0  0  0  0
  143.1772   76.7229  220.5484 H   0  0  0  0  0  0  0  0  0  0  0  0
  142.3166   77.4138  217.9015 H   0  0  0  0  0  0  0  0  0  0  0  0
  143.6738   76.3794  218.2658 H   0  0  0  0  0  0  0  0  0  0  0  0
  140.7177   75.6199  217.8468 H   0  0  0  0  0  0  0  0  0  0  0  0
  142.0877   74.8229  217.1382 H   0  0  0  0  0  0  0  0  0  0  0  0
  141.2442   73.5573  219.3125 H   0  0  0  0  0  0  0  0  0  0  0  0
  143.0120   74.2365  221.6212 H   0  0  0  0  0  0  0  0  0  0  0  0
  145.3006   73.5471  222.1687 H   0  0  0  0  0  0  0  0  0  0  0  0
  146.9209   72.9536  220.3579 H   0  0  0  0  0  0  0  0  0  0  0  0
  143.8138   73.7729  217.4626 H   0  0  0  0  0  0  0  0  0  0  0  0
  139.2206   70.0167  222.5653 H   0  0  0  0  0  0  0  0  0  0  0  0
  138.9789   68.4849  224.5349 H   0  0  0  0  0  0  0  0  0  0  0  0
  139.3875   68.0986  226.9456 H   0  0  0  0  0  0  0  0  0  0  0  0
  140.2821   68.8790  229.1221 H   0  0  0  0  0  0  0  0  0  0  0  0
  141.3858   71.1175  229.2962 H   0  0  0  0  0  0  0  0  0  0  0  0
  141.5408   72.5115  227.2374 H   0  0  0  0  0  0  0  0  0  0  0  0
  1  2  2  0
  2  3  1  0
  3  4  1  0
  4  5  1  0
  5  6  2  0
  5  7  1  0
  7  8  1  0
  8  9  1  0
  9 10  1  0
 10 11  1  0
 11 12  1  0
 12 13  2  0
 13 14  1  0
 14 15  2  0
 15 16  1  0
 16 17  1  0
 17 18  1  0
 18 19  1  0
 18 20  1  0
 18 21  1  0
 16 22  2  0
  2 23  1  0
 23 24  2  0
 24 25  1  0
 25 26  2  0
 26 27  1  0
 27 28  2  0
 28 29  1  0
 29 30  2  0
 30 31  1  0
 31 32  2  0
 11  7  1  0
 22 12  1  0
 32 23  1  0
 31 26  1  0
  3 33  1  0
  4 34  1  0
  4 35  1  0
  8 36  1  0
  8 37  1  0
  9 38  1  0
  9 39  1  0
 10 40  1  0
 10 41  1  0
 11 42  1  6
 13 43  1  0
 14 44  1  0
 15 45  1  0
 22 46  1  0
 24 47  1  0
 25 48  1  0
 27 49  1  0
 28 50  1  0
 29 51  1  0
 30 52  1  0
M  END
>  <smiles>  (55) 
O=C(NCC(=O)N1CCCC1c1cccc(OC(F)(F)F)c1)c1ccc2ccccc2n1

>  <score_type>  (55) 
oracle

>  <origin>  (55) 
autodockgpu

>  <m_score__min__energy>  (55) 
-8.7100000000000009

>  <m_primary>  (55) 
energy

>  <rmsd>  (55) 
2.1858173519824624

>  <m_score__min__rmsd>  (55) 
2.1858173519824624

>  <meeko>  (55) 
{"free_energy": -8.55, "intermolecular_energy": -10.63, "internal_energy": -1.71, "cluster_size": 5, "cluster_id": 3, "rank_in_cluster": 2}

>  <energy>  (55) 
-8.62

>  <cluster_rmsd>  (55) 
0.25

>  <cluster>  (55) 
1

$$$$

     RDKit          3D

 52 55  0  0  0  0  0  0  0  0999 V2000
  138.9450   70.6940  221.3590 O   0  0  0  0  0  0  0  0  0  0  0  0
  139.1360   71.4200  222.3750 C   0  0  0  0  0  0  0  0  0  0  0  0
  139.0400   72.8430  222.2880 N   0  0  0  0  0  0  0  0  0  0  0  0
  138.7220   73.5170  221.0480 C   0  0  0  0  0  0  0  0  0  0  0  0
  139.9090   73.7290  220.2000 C   0  0  0  0  0  0  0  0  0  0  0  0
  140.4560   72.8460  219.5020 O   0  0  0  0  0  0  0  0  0  0  0  0
  140.4780   75.0300  220.1680 N   0  0  0  0  0  0  0  0  0  0  0  0
  140.2610   76.0750  219.1700 C   0  0  0  0  0  0  0  0  0  0  0  0
  141.4700   76.9920  219.2290 C   0  0  0  0  0  0  0  0  0  0  0  0
  142.4010   76.2330  220.1460 C   0  0  0  0  0  0  0  0  0  0  0  0
  141.4130   75.6390  221.1190 C   0  0  1  0  0  0  0  0  0  0  0  0
  140.7530   76.7320  221.8660 C   0  0  0  0  0  0  0  0  0  0  0  0
  139.3800   76.6240  222.0340 C   0  0  0  0  0  0  0  0  0  0  0  0
  138.6510   77.5740  222.7140 C   0  0  0  0  0  0  0  0  0  0  0  0
  139.2650   78.6880  223.2610 C   0  0  0  0  0  0  0  0  0  0  0  0
  140.6310   78.7920  223.0900 C   0  0  0  0  0  0  0  0  0  0  0  0
  141.2880   79.9000  223.6270 O   0  0  0  0  0  0  0  0  0  0  0  0
  142.2230   80.6780  222.9170 C   0  0  0  0  0  0  0  0  0  0  0  0
  141.8790   82.0150  223.1210 F   0  0  0  0  0  0  0  0  0  0  0  0
  142.2410   80.4610  221.5730 F   0  0  0  0  0  0  0  0  0  0  0  0
  143.4470   80.4610  223.5330 F   0  0  0  0  0  0  0  0  0  0  0  0
  141.3630   77.8210  222.3990 C   0  0  0  0  0  0  0  0  0  0  0  0
  139.4630   70.8120  223.6710 C   0  0  0  0  0  0  0  0  0  0  0  0
  139.2320   69.4800  223.8950 C   0  0  0  0  0  0  0  0  0  0  0  0
  139.5460   68.9070  225.1300 C   0  0  0  0  0  0  0  0  0  0  0  0
  140.0940   69.7160  226.1140 C   0  0  0  0  0  0  0  0  0  0  0  0
  140.4350   69.2280  227.3680 C   0  0  0  0  0  0  0  0  0  0  0  0
  140.9840   70.0600  228.3400 C   0  0  0  0  0  0  0  0  0  0  0  0
  141.2010   71.3980  228.0730 C   0  0  0  0  0  0  0  0  0  0  0  0
  140.8520   71.8570  226.8120 C   0  0  0  0  0  0  0  0  0  0  0  0
  140.3110   71.0380  225.8570 C   0  0  0  0  0  0  0  0  0  0  0  0
  140.0000   71.5560  224.6620 N   0  0  0  0  0  0  0  0  0  0  0  0
  139.2140   73.3910  223.1810 H   0  0  0  0  0  0  0  0  0  0  0  0
  137.9952   72.9071  220.4914 H   0  0  0  0  0  0  0  0  0  0  0  0
  138.3111   74.5056  221.3009 H   0  0  0  0  0  0  0  0  0  0  0  0
  140.1713   75.6298  218.1681 H   0  0  0  0  0  0  0  0  0  0  0  0
  139.3331   76.6298  219.3731 H   0  0  0  0  0  0  0  0  0  0  0  0
  141.9156   77.1293  218.2327 H   0  0  0  0  0  0  0  0  0  0  0  0
  141.2369   78.0085  219.5789 H   0  0  0  0  0  0  0  0  0  0  0  0
  142.9558   75.4526  219.6046 H   0  0  0  0  0  0  0  0  0  0  0  0
  143.1857   76.8481  220.6107 H   0  0  0  0  0  0  0  0  0  0  0  0
  141.8236   74.9524  221.8740 H   0  0  0  0  0  0  0  0  0  0  0  0
  138.8579   75.7530  221.6111 H   0  0  0  0  0  0  0  0  0  0  0  0
  137.5641   77.4459  222.8243 H   0  0  0  0  0  0  0  0  0  0  0  0
  138.6921   79.4531  223.8055 H   0  0  0  0  0  0  0  0  0  0  0  0
  142.4505   77.9418  222.2857 H   0  0  0  0  0  0  0  0  0  0  0  0
  138.7971   68.8586  223.0983 H   0  0  0  0  0  0  0  0  0  0  0  0
  139.3628   67.8387  225.3175 H   0  0  0  0  0  0  0  0  0  0  0  0
  140.2685   68.1652  227.5978 H   0  0  0  0  0  0  0  0  0  0  0  0
  141.2465   69.6496  229.3263 H   0  0  0  0  0  0  0  0  0  0  0  0
  141.6324   72.0708  228.8288 H   0  0  0  0  0  0  0  0  0  0  0  0
  141.0156   72.9175  226.5699 H   0  0  0  0  0  0  0  0  0  0  0  0
  1  2  2  0
  2  3  1  0
  3  4  1  0
  4  5  1  0
  5  6  2  0
  5  7  1  0
  7  8  1  0
  8  9  1  0
  9 10  1  0
 10 11  1  0
 11 12  1  0
 12 13  2  0
 13 14  1  0
 14 15  2  0
 15 16  1  0
 16 17  1  0
 17 18  1  0
 18 19  1  0
 18 20  1  0
 18 21  1  0
 16 22  2  0
  2 23  1  0
 23 24  2  0
 24 25  1  0
 25 26  2  0
 26 27  1  0
 27 28  2  0
 28 29  1  0
 29 30  2  0
 30 31  1  0
 31 32  2  0
 11  7  1  0
 22 12  1  0
 32 23  1  0
 31 26  1  0
  3 33  1  0
  4 34  1  0
  4 35  1  0
  8 36  1  0
  8 37  1  0
  9 38  1  0
  9 39  1  0
 10 40  1  0
 10 41  1  0
 11 42  1  1
 13 43  1  0
 14 44  1  0
 15 45  1  0
 22 46  1  0
 24 47  1  0
 25 48  1  0
 27 49  1  0
 28 50  1  0
 29 51  1  0
 30 52  1  0
M  END
>  <smiles>  (56) 
O=C(NCC(=O)N1CCCC1c1cccc(OC(F)(F)F)c1)c1ccc2ccccc2n1

>  <score_type>  (56) 
oracle

>  <origin>  (56) 
autodockgpu

>  <m_score__min__energy>  (56) 
-8.7100000000000009

>  <m_primary>  (56) 
energy

>  <rmsd>  (56) 
1.5960900428827547

>  <m_score__min__rmsd>  (56) 
1.5960900428827547

>  <meeko>  (56) 
{"free_energy": -7.79, "intermolecular_energy": -9.88, "internal_energy": -1.7, "cluster_size": 10, "cluster_id": 4, "rank_in_cluster": 6}

>  <energy>  (56) 
-8.6

>  <cluster_rmsd>  (56) 
1.71

>  <cluster>  (56) 
1

$$$$

     RDKit          3D

 52 55  0  0  0  0  0  0  0  0999 V2000
  138.3170   70.7190  221.5900 O   0  0  0  0  0  0  0  0  0  0  0  0
  138.7500   71.4180  222.5490 C   0  0  0  0  0  0  0  0  0  0  0  0
  138.8140   72.8410  222.4480 N   0  0  0  0  0  0  0  0  0  0  0  0
  138.3920   73.5470  221.2580 C   0  0  0  0  0  0  0  0  0  0  0  0
  138.1560   74.9810  221.5060 C   0  0  0  0  0  0  0  0  0  0  0  0
  137.0840   75.4670  221.9310 O   0  0  0  0  0  0  0  0  0  0  0  0
  139.2210   75.8840  221.2440 N   0  0  0  0  0  0  0  0  0  0  0  0
  139.4420   76.6750  220.0350 C   0  0  0  0  0  0  0  0  0  0  0  0
  140.9260   76.9930  219.9870 C   0  0  0  0  0  0  0  0  0  0  0  0
  141.4710   76.1370  221.1070 C   0  0  0  0  0  0  0  0  0  0  0  0
  140.3490   76.2400  222.1100 C   0  0  1  0  0  0  0  0  0  0  0  0
  140.2310   77.6440  222.5610 C   0  0  0  0  0  0  0  0  0  0  0  0
  141.4000   78.2550  222.9930 C   0  0  0  0  0  0  0  0  0  0  0  0
  141.4230   79.5590  223.4320 C   0  0  0  0  0  0  0  0  0  0  0  0
  140.2680   80.3220  223.4630 C   0  0  0  0  0  0  0  0  0  0  0  0
  139.1070   79.7110  223.0340 C   0  0  0  0  0  0  0  0  0  0  0  0
  137.9210   80.4460  223.0490 O   0  0  0  0  0  0  0  0  0  0  0  0
  137.2820   80.8810  224.2260 C   0  0  0  0  0  0  0  0  0  0  0  0
  137.1470   82.2660  224.1300 F   0  0  0  0  0  0  0  0  0  0  0  0
  137.9630   80.6150  225.3760 F   0  0  0  0  0  0  0  0  0  0  0  0
  136.0080   80.3310  224.1940 F   0  0  0  0  0  0  0  0  0  0  0  0
  139.0950   78.3850  222.5870 C   0  0  0  0  0  0  0  0  0  0  0  0
  139.1980   70.7760  223.7910 C   0  0  0  0  0  0  0  0  0  0  0  0
  139.0830   69.4210  223.9580 C   0  0  0  0  0  0  0  0  0  0  0  0
  139.5120   68.8160  225.1420 C   0  0  0  0  0  0  0  0  0  0  0  0
  140.0530   69.6170  226.1360 C   0  0  0  0  0  0  0  0  0  0  0  0
  140.5020   69.0980  227.3420 C   0  0  0  0  0  0  0  0  0  0  0  0
  141.0410   69.9240  228.3250 C   0  0  0  0  0  0  0  0  0  0  0  0
  141.1400   71.2870  228.1170 C   0  0  0  0  0  0  0  0  0  0  0  0
  140.6830   71.7760  226.9020 C   0  0  0  0  0  0  0  0  0  0  0  0
  140.1520   70.9630  225.9370 C   0  0  0  0  0  0  0  0  0  0  0  0
  139.7330   71.5120  224.7890 N   0  0  0  0  0  0  0  0  0  0  0  0
  139.1900   73.3660  223.2930 H   0  0  0  0  0  0  0  0  0  0  0  0
  139.1745   73.4457  220.4916 H   0  0  0  0  0  0  0  0  0  0  0  0
  137.4412   73.1043  220.9263 H   0  0  0  0  0  0  0  0  0  0  0  0
  139.1490   76.0979  219.1456 H   0  0  0  0  0  0  0  0  0  0  0  0
  138.8403   77.5957  220.0490 H   0  0  0  0  0  0  0  0  0  0  0  0
  141.3638   76.7092  219.0186 H   0  0  0  0  0  0  0  0  0  0  0  0
  141.1525   78.0636  220.0985 H   0  0  0  0  0  0  0  0  0  0  0  0
  141.6302   75.0981  220.7823 H   0  0  0  0  0  0  0  0  0  0  0  0
  142.4533   76.4541  221.4871 H   0  0  0  0  0  0  0  0  0  0  0  0
  140.4499   75.6297  223.0196 H   0  0  0  0  0  0  0  0  0  0  0  0
  142.3371   77.6790  222.9842 H   0  0  0  0  0  0  0  0  0  0  0  0
  142.3737   80.0021  223.7634 H   0  0  0  0  0  0  0  0  0  0  0  0
  140.2753   81.3649  223.8127 H   0  0  0  0  0  0  0  0  0  0  0  0
  138.1486   77.9360  222.2511 H   0  0  0  0  0  0  0  0  0  0  0  0
  138.6504   68.8059  223.1552 H   0  0  0  0  0  0  0  0  0  0  0  0
  139.4226   67.7287  225.2824 H   0  0  0  0  0  0  0  0  0  0  0  0
  140.4310   68.0156  227.5246 H   0  0  0  0  0  0  0  0  0  0  0  0
  141.3902   69.4891  229.2731 H   0  0  0  0  0  0  0  0  0  0  0  0
  141.5629   71.9549  228.8819 H   0  0  0  0  0  0  0  0  0  0  0  0
  140.7497   72.8565  226.7068 H   0  0  0  0  0  0  0  0  0  0  0  0
  1  2  2  0
  2  3  1  0
  3  4  1  0
  4  5  1  0
  5  6  2  0
  5  7  1  0
  7  8  1  0
  8  9  1  0
  9 10  1  0
 10 11  1  0
 11 12  1  0
 12 13  2  0
 13 14  1  0
 14 15  2  0
 15 16  1  0
 16 17  1  0
 17 18  1  0
 18 19  1  0
 18 20  1  0
 18 21  1  0
 16 22  2  0
  2 23  1  0
 23 24  2  0
 24 25  1  0
 25 26  2  0
 26 27  1  0
 27 28  2  0
 28 29  1  0
 29 30  2  0
 30 31  1  0
 31 32  2  0
 11  7  1  0
 22 12  1  0
 32 23  1  0
 31 26  1  0
  3 33  1  0
  4 34  1  0
  4 35  1  0
  8 36  1  0
  8 37  1  0
  9 38  1  0
  9 39  1  0
 10 40  1  0
 10 41  1  0
 11 42  1  1
 13 43  1  0
 14 44  1  0
 15 45  1  0
 22 46  1  0
 24 47  1  0
 25 48  1  0
 27 49  1  0
 28 50  1  0
 29 51  1  0
 30 52  1  0
M  END
>  <smiles>  (57) 
O=C(NCC(=O)N1CCCC1c1cccc(OC(F)(F)F)c1)c1ccc2ccccc2n1

>  <score_type>  (57) 
oracle

>  <origin>  (57) 
autodockgpu

>  <m_score__min__energy>  (57) 
-8.7100000000000009

>  <m_primary>  (57) 
energy

>  <rmsd>  (57) 
1.8477710831451744

>  <m_score__min__rmsd>  (57) 
1.8477710831451744

>  <meeko>  (57) 
{"free_energy": -7.71, "intermolecular_energy": -9.79, "internal_energy": -1.64, "cluster_size": 21, "cluster_id": 1, "rank_in_cluster": 20}

>  <energy>  (57) 
-8.53

>  <cluster_rmsd>  (57) 
0.43

>  <cluster>  (57) 
1

$$$$

     RDKit          3D

 52 55  0  0  0  0  0  0  0  0999 V2000
  141.0460   71.6730  221.5170 O   0  0  0  0  0  0  0  0  0  0  0  0
  140.3750   72.0510  222.5180 C   0  0  0  0  0  0  0  0  0  0  0  0
  139.7720   73.3450  222.5480 N   0  0  0  0  0  0  0  0  0  0  0  0
  139.8960   74.2780  221.4500 C   0  0  0  0  0  0  0  0  0  0  0  0
  139.5260   75.6530  221.8310 C   0  0  0  0  0  0  0  0  0  0  0  0
  138.6610   75.9510  222.6840 O   0  0  0  0  0  0  0  0  0  0  0  0
  140.1980   76.7240  221.1840 N   0  0  0  0  0  0  0  0  0  0  0  0
  139.7970   77.4220  219.9640 C   0  0  0  0  0  0  0  0  0  0  0  0
  141.0580   78.0290  219.3740 C   0  0  0  0  0  0  0  0  0  0  0  0
  142.1390   77.4170  220.2350 C   0  0  0  0  0  0  0  0  0  0  0  0
  141.4470   77.3860  221.5750 C   0  0  1  0  0  0  0  0  0  0  0  0
  141.1800   78.7730  222.0140 C   0  0  0  0  0  0  0  0  0  0  0  0
  142.2850   79.6040  222.1410 C   0  0  0  0  0  0  0  0  0  0  0  0
  142.1690   80.9170  222.5360 C   0  0  0  0  0  0  0  0  0  0  0  0
  140.9330   81.4680  222.8280 C   0  0  0  0  0  0  0  0  0  0  0  0
  139.8360   80.6390  222.7020 C   0  0  0  0  0  0  0  0  0  0  0  0
  138.5720   81.1550  222.9860 O   0  0  0  0  0  0  0  0  0  0  0  0
  137.6780   80.5790  223.9090 C   0  0  0  0  0  0  0  0  0  0  0  0
  137.1110   79.4650  223.2880 F   0  0  0  0  0  0  0  0  0  0  0  0
  136.6580   81.3930  224.2980 F   0  0  0  0  0  0  0  0  0  0  0  0
  138.4580   80.1210  224.9610 F   0  0  0  0  0  0  0  0  0  0  0  0
  139.9650   79.3060  222.2970 C   0  0  0  0  0  0  0  0  0  0  0  0
  140.2020   71.1630  223.6740 C   0  0  0  0  0  0  0  0  0  0  0  0
  139.5890   69.9450  223.5340 C   0  0  0  0  0  0  0  0  0  0  0  0
  139.4290   69.1050  224.6380 C   0  0  0  0  0  0  0  0  0  0  0  0
  139.9020   69.5320  225.8690 C   0  0  0  0  0  0  0  0  0  0  0  0
  139.7830   68.7590  227.0160 C   0  0  0  0  0  0  0  0  0  0  0  0
  140.2670   69.2100  228.2420 C   0  0  0  0  0  0  0  0  0  0  0  0
  140.8790   70.4450  228.3410 C   0  0  0  0  0  0  0  0  0  0  0  0
  140.9840   71.1940  227.1770 C   0  0  0  0  0  0  0  0  0  0  0  0
  140.5070   70.7500  225.9730 C   0  0  0  0  0  0  0  0  0  0  0  0
  140.6470   71.5320  224.8950 N   0  0  0  0  0  0  0  0  0  0  0  0
  139.2210   73.5980  223.4220 H   0  0  0  0  0  0  0  0  0  0  0  0
  140.9398   74.2772  221.1030 H   0  0  0  0  0  0  0  0  0  0  0  0
  139.2052   73.9542  220.6576 H   0  0  0  0  0  0  0  0  0  0  0  0
  139.3482   76.7137  219.2520 H   0  0  0  0  0  0  0  0  0  0  0  0
  139.0480   78.1981  220.1801 H   0  0  0  0  0  0  0  0  0  0  0  0
  141.1808   77.7459  218.3182 H   0  0  0  0  0  0  0  0  0  0  0  0
  141.0615   79.1290  219.3757 H   0  0  0  0  0  0  0  0  0  0  0  0
  142.4053   76.4060  219.8931 H   0  0  0  0  0  0  0  0  0  0  0  0
  143.0930   77.9645  220.2269 H   0  0  0  0  0  0  0  0  0  0  0  0
  141.9955   76.9010  222.3959 H   0  0  0  0  0  0  0  0  0  0  0  0
  143.2839   79.2003  221.9190 H   0  0  0  0  0  0  0  0  0  0  0  0
  143.0726   81.5386  222.6211 H   0  0  0  0  0  0  0  0  0  0  0  0
  140.8298   82.5162  223.1453 H   0  0  0  0  0  0  0  0  0  0  0  0
  139.0656   78.6792  222.2065 H   0  0  0  0  0  0  0  0  0  0  0  0
  139.2213   69.6277  222.5470 H   0  0  0  0  0  0  0  0  0  0  0  0
  138.9384   68.1261  224.5331 H   0  0  0  0  0  0  0  0  0  0  0  0
  139.2982   67.7734  226.9557 H   0  0  0  0  0  0  0  0  0  0  0  0
  140.1613   68.5791  229.1369 H   0  0  0  0  0  0  0  0  0  0  0  0
  141.2662   70.8184  229.3005 H   0  0  0  0  0  0  0  0  0  0  0  0
  141.4683   72.1806  227.2237 H   0  0  0  0  0  0  0  0  0  0  0  0
  1  2  2  0
  2  3  1  0
  3  4  1  0
  4  5  1  0
  5  6  2  0
  5  7  1  0
  7  8  1  0
  8  9  1  0
  9 10  1  0
 10 11  1  0
 11 12  1  0
 12 13  2  0
 13 14  1  0
 14 15  2  0
 15 16  1  0
 16 17  1  0
 17 18  1  0
 18 19  1  0
 18 20  1  0
 18 21  1  0
 16 22  2  0
  2 23  1  0
 23 24  2  0
 24 25  1  0
 25 26  2  0
 26 27  1  0
 27 28  2  0
 28 29  1  0
 29 30  2  0
 30 31  1  0
 31 32  2  0
 11  7  1  0
 22 12  1  0
 32 23  1  0
 31 26  1  0
  3 33  1  0
  4 34  1  0
  4 35  1  0
  8 36  1  0
  8 37  1  0
  9 38  1  0
  9 39  1  0
 10 40  1  0
 10 41  1  0
 11 42  1  1
 13 43  1  0
 14 44  1  0
 15 45  1  0
 22 46  1  0
 24 47  1  0
 25 48  1  0
 27 49  1  0
 28 50  1  0
 29 51  1  0
 30 52  1  0
M  END
>  <smiles>  (58) 
O=C(NCC(=O)N1CCCC1c1cccc(OC(F)(F)F)c1)c1ccc2ccccc2n1

>  <score_type>  (58) 
oracle

>  <origin>  (58) 
autodockgpu

>  <m_score__min__energy>  (58) 
-8.7100000000000009

>  <m_primary>  (58) 
energy

>  <rmsd>  (58) 
1.8628388917733798

>  <m_score__min__rmsd>  (58) 
1.8628388917733798

>  <meeko>  (58) 
{"free_energy": -8.01, "intermolecular_energy": -10.1, "internal_energy": -1.52, "cluster_size": 21, "cluster_id": 1, "rank_in_cluster": 17}

>  <energy>  (58) 
-8.52

>  <cluster_rmsd>  (58) 
0.34

>  <cluster>  (58) 
1

$$$$

     RDKit          3D

 52 55  0  0  0  0  0  0  0  0999 V2000
  141.1510   75.0330  220.8580 O   0  0  0  0  0  0  0  0  0  0  0  0
  140.3220   75.3570  221.7540 C   0  0  0  0  0  0  0  0  0  0  0  0
  139.4240   74.3930  222.3040 N   0  0  0  0  0  0  0  0  0  0  0  0
  139.4160   73.0130  221.8690 C   0  0  0  0  0  0  0  0  0  0  0  0
  138.2630   72.2610  222.3950 C   0  0  0  0  0  0  0  0  0  0  0  0
  137.1180   72.7350  222.5690 O   0  0  0  0  0  0  0  0  0  0  0  0
  138.4600   70.8960  222.7340 N   0  0  0  0  0  0  0  0  0  0  0  0
  139.4070   69.9570  222.1370 C   0  0  0  0  0  0  0  0  0  0  0  0
  138.8580   68.5630  222.3910 C   0  0  0  0  0  0  0  0  0  0  0  0
  137.4850   68.8590  222.9480 C   0  0  0  0  0  0  0  0  0  0  0  0
  137.7700   70.1010  223.7550 C   0  0  1  0  0  0  0  0  0  0  0  0
  138.6970   69.7580  224.8560 C   0  0  0  0  0  0  0  0  0  0  0  0
  138.5680   68.4880  225.4000 C   0  0  0  0  0  0  0  0  0  0  0  0
  139.3730   68.0480  226.4260 C   0  0  0  0  0  0  0  0  0  0  0  0
  140.3530   68.8640  226.9640 C   0  0  0  0  0  0  0  0  0  0  0  0
  140.4780   70.1270  226.4220 C   0  0  0  0  0  0  0  0  0  0  0  0
  141.4540   70.9810  226.9360 O   0  0  0  0  0  0  0  0  0  0  0  0
  141.2440   71.8490  228.0250 C   0  0  0  0  0  0  0  0  0  0  0  0
  141.4720   73.1460  227.5640 F   0  0  0  0  0  0  0  0  0  0  0  0
  142.0710   71.6410  229.0870 F   0  0  0  0  0  0  0  0  0  0  0  0
  139.8960   71.7460  228.3400 F   0  0  0  0  0  0  0  0  0  0  0  0
  139.6550   70.5640  225.3780 C   0  0  0  0  0  0  0  0  0  0  0  0
  140.2670   76.7380  222.2490 C   0  0  0  0  0  0  0  0  0  0  0  0
  139.0630   77.3440  222.4950 C   0  0  0  0  0  0  0  0  0  0  0  0
  139.0170   78.6580  222.9670 C   0  0  0  0  0  0  0  0  0  0  0  0
  140.2130   79.3270  223.1780 C   0  0  0  0  0  0  0  0  0  0  0  0
  140.2570   80.6330  223.6450 C   0  0  0  0  0  0  0  0  0  0  0  0
  141.4710   81.2850  223.8490 C   0  0  0  0  0  0  0  0  0  0  0  0
  142.6640   80.6380  223.5890 C   0  0  0  0  0  0  0  0  0  0  0  0
  142.5880   79.3330  223.1240 C   0  0  0  0  0  0  0  0  0  0  0  0
  141.3940   78.6940  222.9230 C   0  0  0  0  0  0  0  0  0  0  0  0
  141.4030   77.4330  222.4720 N   0  0  0  0  0  0  0  0  0  0  0  0
  138.7530   74.7350  223.0540 H   0  0  0  0  0  0  0  0  0  0  0  0
  139.3801   72.9900  220.7698 H   0  0  0  0  0  0  0  0  0  0  0  0
  140.3293   72.5363  222.2545 H   0  0  0  0  0  0  0  0  0  0  0  0
  139.4917   70.1399  221.0556 H   0  0  0  0  0  0  0  0  0  0  0  0
  140.4093   70.0735  222.5749 H   0  0  0  0  0  0  0  0  0  0  0  0
  138.7939   67.9833  221.4584 H   0  0  0  0  0  0  0  0  0  0  0  0
  139.4853   67.9559  223.0604 H   0  0  0  0  0  0  0  0  0  0  0  0
  136.7567   69.0547  222.1472 H   0  0  0  0  0  0  0  0  0  0  0  0
  137.0390   68.0342  223.5231 H   0  0  0  0  0  0  0  0  0  0  0  0
  136.9023   70.5913  224.2205 H   0  0  0  0  0  0  0  0  0  0  0  0
  137.7985   67.8120  224.9988 H   0  0  0  0  0  0  0  0  0  0  0  0
  139.2354   67.0320  226.8246 H   0  0  0  0  0  0  0  0  0  0  0  0
  141.0012   68.5222  227.7844 H   0  0  0  0  0  0  0  0  0  0  0  0
  139.7872   71.5785  224.9738 H   0  0  0  0  0  0  0  0  0  0  0  0
  138.1274   76.7927  222.3198 H   0  0  0  0  0  0  0  0  0  0  0  0
  138.0540   79.1506  223.1667 H   0  0  0  0  0  0  0  0  0  0  0  0
  139.3167   81.1627  223.8579 H   0  0  0  0  0  0  0  0  0  0  0  0
  141.4800   82.3208  224.2192 H   0  0  0  0  0  0  0  0  0  0  0  0
  143.6324   81.1362  223.7441 H   0  0  0  0  0  0  0  0  0  0  0  0
  143.5213   78.7920  222.9089 H   0  0  0  0  0  0  0  0  0  0  0  0
  1  2  2  0
  2  3  1  0
  3  4  1  0
  4  5  1  0
  5  6  2  0
  5  7  1  0
  7  8  1  0
  8  9  1  0
  9 10  1  0
 10 11  1  0
 11 12  1  0
 12 13  2  0
 13 14  1  0
 14 15  2  0
 15 16  1  0
 16 17  1  0
 17 18  1  0
 18 19  1  0
 18 20  1  0
 18 21  1  0
 16 22  2  0
  2 23  1  0
 23 24  2  0
 24 25  1  0
 25 26  2  0
 26 27  1  0
 27 28  2  0
 28 29  1  0
 29 30  2  0
 30 31  1  0
 31 32  2  0
 11  7  1  0
 22 12  1  0
 32 23  1  0
 31 26  1  0
  3 33  1  0
  4 34  1  0
  4 35  1  0
  8 36  1  0
  8 37  1  0
  9 38  1  0
  9 39  1  0
 10 40  1  0
 10 41  1  0
 11 42  1  1
 13 43  1  0
 14 44  1  0
 15 45  1  0
 22 46  1  0
 24 47  1  0
 25 48  1  0
 27 49  1  0
 28 50  1  0
 29 51  1  0
 30 52  1  0
M  END
>  <smiles>  (59) 
O=C(NCC(=O)N1CCCC1c1cccc(OC(F)(F)F)c1)c1ccc2ccccc2n1

>  <score_type>  (59) 
oracle

>  <origin>  (59) 
autodockgpu

>  <m_score__min__energy>  (59) 
-8.7100000000000009

>  <m_primary>  (59) 
energy

>  <rmsd>  (59) 
8.339970635996579

>  <m_score__min__rmsd>  (59) 
8.339970635996579

>  <meeko>  (59) 
{"free_energy": -8.33, "intermolecular_energy": -10.41, "internal_energy": -1.33, "cluster_size": 3, "cluster_id": 2, "rank_in_cluster": 2}

>  <energy>  (59) 
-8.5

>  <cluster_rmsd>  (59) 
0.41

>  <cluster>  (59) 
1

$$$$

     RDKit          3D

 52 55  0  0  0  0  0  0  0  0999 V2000
  138.6080   71.0500  221.6270 O   0  0  0  0  0  0  0  0  0  0  0  0
  139.1320   71.5250  222.6730 C   0  0  0  0  0  0  0  0  0  0  0  0
  139.5110   72.9000  222.7430 N   0  0  0  0  0  0  0  0  0  0  0  0
  139.3160   73.8090  221.6340 C   0  0  0  0  0  0  0  0  0  0  0  0
  140.2680   74.9350  221.6520 C   0  0  0  0  0  0  0  0  0  0  0  0
  141.5140   74.8190  221.6670 O   0  0  0  0  0  0  0  0  0  0  0  0
  139.7370   76.2520  221.6550 N   0  0  0  0  0  0  0  0  0  0  0  0
  138.5740   76.7430  222.3930 C   0  0  0  0  0  0  0  0  0  0  0  0
  138.0740   77.9700  221.6500 C   0  0  0  0  0  0  0  0  0  0  0  0
  138.9040   77.9390  220.3880 C   0  0  0  0  0  0  0  0  0  0  0  0
  140.2180   77.4310  220.9290 C   0  0  1  0  0  0  0  0  0  0  0  0
  140.7710   78.4290  221.8700 C   0  0  0  0  0  0  0  0  0  0  0  0
  141.3020   77.9340  223.0530 C   0  0  0  0  0  0  0  0  0  0  0  0
  141.8510   78.7600  224.0080 C   0  0  0  0  0  0  0  0  0  0  0  0
  141.8940   80.1320  223.8250 C   0  0  0  0  0  0  0  0  0  0  0  0
  141.3640   80.6200  222.6480 C   0  0  0  0  0  0  0  0  0  0  0  0
  141.3880   81.9970  222.4250 O   0  0  0  0  0  0  0  0  0  0  0  0
  140.8250   82.6190  221.2940 C   0  0  0  0  0  0  0  0  0  0  0  0
  141.0770   83.9870  221.4120 F   0  0  0  0  0  0  0  0  0  0  0  0
  139.4780   82.4600  221.1670 F   0  0  0  0  0  0  0  0  0  0  0  0
  141.5460   82.1520  220.2040 F   0  0  0  0  0  0  0  0  0  0  0  0
  140.8100   79.7720  221.6830 C   0  0  0  0  0  0  0  0  0  0  0  0
  139.3630   70.6680  223.8420 C   0  0  0  0  0  0  0  0  0  0  0  0
  139.0010   69.3460  223.8220 C   0  0  0  0  0  0  0  0  0  0  0  0
  139.2240   68.5360  224.9370 C   0  0  0  0  0  0  0  0  0  0  0  0
  139.8160   69.1000  226.0570 C   0  0  0  0  0  0  0  0  0  0  0  0
  140.0730   68.3660  227.2070 C   0  0  0  0  0  0  0  0  0  0  0  0
  140.6670   68.9560  228.3200 C   0  0  0  0  0  0  0  0  0  0  0  0
  141.0170   70.2930  228.3000 C   0  0  0  0  0  0  0  0  0  0  0  0
  140.7490   70.9990  227.1370 C   0  0  0  0  0  0  0  0  0  0  0  0
  140.1630   70.4190  226.0440 C   0  0  0  0  0  0  0  0  0  0  0  0
  139.9370   71.1690  224.9580 N   0  0  0  0  0  0  0  0  0  0  0  0
  139.9460   73.2330  223.6540 H   0  0  0  0  0  0  0  0  0  0  0  0
  139.4462   73.2520  220.6944 H   0  0  0  0  0  0  0  0  0  0  0  0
  138.3022   74.2273  221.7193 H   0  0  0  0  0  0  0  0  0  0  0  0
  137.7902   75.9718  222.4227 H   0  0  0  0  0  0  0  0  0  0  0  0
  138.8388   76.9892  223.4319 H   0  0  0  0  0  0  0  0  0  0  0  0
  137.0006   77.8892  221.4235 H   0  0  0  0  0  0  0  0  0  0  0  0
  138.1748   78.9042  222.2220 H   0  0  0  0  0  0  0  0  0  0  0  0
  138.4803   77.2515  219.6411 H   0  0  0  0  0  0  0  0  0  0  0  0
  138.9693   78.9023  219.8610 H   0  0  0  0  0  0  0  0  0  0  0  0
  141.0075   77.2328  220.1892 H   0  0  0  0  0  0  0  0  0  0  0  0
  141.2837   76.8490  223.2330 H   0  0  0  0  0  0  0  0  0  0  0  0
  142.2617   78.3235  224.9304 H   0  0  0  0  0  0  0  0  0  0  0  0
  142.3298   80.8009  224.5817 H   0  0  0  0  0  0  0  0  0  0  0  0
  140.3992   80.2014  220.7573 H   0  0  0  0  0  0  0  0  0  0  0  0
  138.5321   68.9210  222.9223 H   0  0  0  0  0  0  0  0  0  0  0  0
  138.9366   67.4743  224.9273 H   0  0  0  0  0  0  0  0  0  0  0  0
  139.8029   67.3002  227.2397 H   0  0  0  0  0  0  0  0  0  0  0  0
  140.8588   68.3542  229.2206 H   0  0  0  0  0  0  0  0  0  0  0  0
  141.4877   70.7760  229.1690 H   0  0  0  0  0  0  0  0  0  0  0  0
  141.0172   72.0648  227.0909 H   0  0  0  0  0  0  0  0  0  0  0  0
  1  2  2  0
  2  3  1  0
  3  4  1  0
  4  5  1  0
  5  6  2  0
  5  7  1  0
  7  8  1  0
  8  9  1  0
  9 10  1  0
 10 11  1  0
 11 12  1  0
 12 13  2  0
 13 14  1  0
 14 15  2  0
 15 16  1  0
 16 17  1  0
 17 18  1  0
 18 19  1  0
 18 20  1  0
 18 21  1  0
 16 22  2  0
  2 23  1  0
 23 24  2  0
 24 25  1  0
 25 26  2  0
 26 27  1  0
 27 28  2  0
 28 29  1  0
 29 30  2  0
 30 31  1  0
 31 32  2  0
 11  7  1  0
 22 12  1  0
 32 23  1  0
 31 26  1  0
  3 33  1  0
  4 34  1  0
  4 35  1  0
  8 36  1  0
  8 37  1  0
  9 38  1  0
  9 39  1  0
 10 40  1  0
 10 41  1  0
 11 42  1  6
 13 43  1  0
 14 44  1  0
 15 45  1  0
 22 46  1  0
 24 47  1  0
 25 48  1  0
 27 49  1  0
 28 50  1  0
 29 51  1  0
 30 52  1  0
M  END
>  <smiles>  (60) 
O=C(NCC(=O)N1CCCC1c1cccc(OC(F)(F)F)c1)c1ccc2ccccc2n1

>  <score_type>  (60) 
oracle

>  <origin>  (60) 
autodockgpu

>  <m_score__min__energy>  (60) 
-8.7100000000000009

>  <m_primary>  (60) 
energy

>  <rmsd>  (60) 
2.237923502158275

>  <m_score__min__rmsd>  (60) 
2.237923502158275

>  <meeko>  (60) 
{"free_energy": -8.11, "intermolecular_energy": -10.2, "internal_energy": -1.64, "cluster_size": 21, "cluster_id": 1, "rank_in_cluster": 15}

>  <energy>  (60) 
-8.46

>  <cluster_rmsd>  (60) 
0.49

>  <cluster>  (60) 
1

$$$$

     RDKit          3D

 52 55  0  0  0  0  0  0  0  0999 V2000
  138.1870   70.3370  221.7390 O   0  0  0  0  0  0  0  0  0  0  0  0
  138.6680   71.0340  222.6760 C   0  0  0  0  0  0  0  0  0  0  0  0
  138.7930   72.4510  222.5450 N   0  0  0  0  0  0  0  0  0  0  0  0
  138.3790   73.1520  221.3500 C   0  0  0  0  0  0  0  0  0  0  0  0
  138.1370   74.5860  221.5910 C   0  0  0  0  0  0  0  0  0  0  0  0
  137.1040   75.0590  222.1140 O   0  0  0  0  0  0  0  0  0  0  0  0
  139.1480   75.5040  221.2010 N   0  0  0  0  0  0  0  0  0  0  0  0
  139.2810   76.1930  219.9190 C   0  0  0  0  0  0  0  0  0  0  0  0
  140.7460   76.5650  219.7730 C   0  0  0  0  0  0  0  0  0  0  0  0
  141.3770   75.8350  220.9370 C   0  0  0  0  0  0  0  0  0  0  0  0
  140.2950   75.9820  221.9790 C   0  0  1  0  0  0  0  0  0  0  0  0
  140.1350   77.4140  222.3100 C   0  0  0  0  0  0  0  0  0  0  0  0
  138.8550   77.8300  222.6510 C   0  0  0  0  0  0  0  0  0  0  0  0
  138.5770   79.1370  222.9840 C   0  0  0  0  0  0  0  0  0  0  0  0
  139.5720   80.0990  222.9910 C   0  0  0  0  0  0  0  0  0  0  0  0
  140.8440   79.6820  222.6510 C   0  0  0  0  0  0  0  0  0  0  0  0
  141.8750   80.6200  222.6470 O   0  0  0  0  0  0  0  0  0  0  0  0
  142.7060   80.8780  223.7550 C   0  0  0  0  0  0  0  0  0  0  0  0
  142.5650   79.8020  224.6310 F   0  0  0  0  0  0  0  0  0  0  0  0
  142.3990   82.0110  224.4460 F   0  0  0  0  0  0  0  0  0  0  0  0
  144.0060   80.8570  223.2700 F   0  0  0  0  0  0  0  0  0  0  0  0
  141.1160   78.3510  222.3160 C   0  0  0  0  0  0  0  0  0  0  0  0
  139.1120   70.3970  223.9220 C   0  0  0  0  0  0  0  0  0  0  0  0
  138.9790   69.0450  224.1020 C   0  0  0  0  0  0  0  0  0  0  0  0
  139.4040   68.4450  225.2890 C   0  0  0  0  0  0  0  0  0  0  0  0
  139.9580   69.2480  226.2750 C   0  0  0  0  0  0  0  0  0  0  0  0
  140.4050   68.7330  227.4840 C   0  0  0  0  0  0  0  0  0  0  0  0
  140.9580   69.5600  228.4580 C   0  0  0  0  0  0  0  0  0  0  0  0
  141.0740   70.9200  228.2380 C   0  0  0  0  0  0  0  0  0  0  0  0
  140.6200   71.4040  227.0200 C   0  0  0  0  0  0  0  0  0  0  0  0
  140.0760   70.5900  226.0630 C   0  0  0  0  0  0  0  0  0  0  0  0
  139.6600   71.1340  224.9120 N   0  0  0  0  0  0  0  0  0  0  0  0
  139.2070   72.9740  223.3730 H   0  0  0  0  0  0  0  0  0  0  0  0
  139.1681   73.0504  220.5904 H   0  0  0  0  0  0  0  0  0  0  0  0
  137.4320   72.7057  221.0123 H   0  0  0  0  0  0  0  0  0  0  0  0
  138.9751   75.5281  219.0978 H   0  0  0  0  0  0  0  0  0  0  0  0
  138.6405   77.0865  219.8819 H   0  0  0  0  0  0  0  0  0  0  0  0
  141.1533   76.2136  218.8135 H   0  0  0  0  0  0  0  0  0  0  0  0
  140.9295   77.6496  219.7795 H   0  0  0  0  0  0  0  0  0  0  0  0
  141.5681   74.7786  220.6974 H   0  0  0  0  0  0  0  0  0  0  0  0
  142.3599   76.2240  221.2413 H   0  0  0  0  0  0  0  0  0  0  0  0
  140.4612   75.4604  222.9331 H   0  0  0  0  0  0  0  0  0  0  0  0
  138.0382   77.0932  222.6553 H   0  0  0  0  0  0  0  0  0  0  0  0
  137.5477   79.4209  223.2486 H   0  0  0  0  0  0  0  0  0  0  0  0
  139.3599   81.1456  223.2547 H   0  0  0  0  0  0  0  0  0  0  0  0
  142.1434   78.0592  222.0528 H   0  0  0  0  0  0  0  0  0  0  0  0
  138.5347   68.4287  223.3065 H   0  0  0  0  0  0  0  0  0  0  0  0
  139.3018   67.3600  225.4388 H   0  0  0  0  0  0  0  0  0  0  0  0
  140.3209   67.6531  227.6758 H   0  0  0  0  0  0  0  0  0  0  0  0
  141.3048   69.1286  229.4086 H   0  0  0  0  0  0  0  0  0  0  0  0
  141.5075   71.5891  228.9959 H   0  0  0  0  0  0  0  0  0  0  0  0
  140.7000   72.4818  226.8154 H   0  0  0  0  0  0  0  0  0  0  0  0
  1  2  2  0
  2  3  1  0
  3  4  1  0
  4  5  1  0
  5  6  2  0
  5  7  1  0
  7  8  1  0
  8  9  1  0
  9 10  1  0
 10 11  1  0
 11 12  1  0
 12 13  2  0
 13 14  1  0
 14 15  2  0
 15 16  1  0
 16 17  1  0
 17 18  1  0
 18 19  1  0
 18 20  1  0
 18 21  1  0
 16 22  2  0
  2 23  1  0
 23 24  2  0
 24 25  1  0
 25 26  2  0
 26 27  1  0
 27 28  2  0
 28 29  1  0
 29 30  2  0
 30 31  1  0
 31 32  2  0
 11  7  1  0
 22 12  1  0
 32 23  1  0
 31 26  1  0
  3 33  1  0
  4 34  1  0
  4 35  1  0
  8 36  1  0
  8 37  1  0
  9 38  1  0
  9 39  1  0
 10 40  1  0
 10 41  1  0
 11 42  1  1
 13 43  1  0
 14 44  1  0
 15 45  1  0
 22 46  1  0
 24 47  1  0
 25 48  1  0
 27 49  1  0
 28 50  1  0
 29 51  1  0
 30 52  1  0
M  END
>  <smiles>  (61) 
O=C(NCC(=O)N1CCCC1c1cccc(OC(F)(F)F)c1)c1ccc2ccccc2n1

>  <score_type>  (61) 
oracle

>  <origin>  (61) 
autodockgpu

>  <m_score__min__energy>  (61) 
-8.7100000000000009

>  <m_primary>  (61) 
energy

>  <rmsd>  (61) 
1.7597295934836992

>  <m_score__min__rmsd>  (61) 
1.7597295934836992

>  <meeko>  (61) 
{"free_energy": -7.63, "intermolecular_energy": -9.72, "internal_energy": -1.67, "cluster_size": 10, "cluster_id": 4, "rank_in_cluster": 9}

>  <energy>  (61) 
-8.43

>  <cluster_rmsd>  (61) 
0.62

>  <cluster>  (61) 
1

$$$$

     RDKit          3D

 52 55  0  0  0  0  0  0  0  0999 V2000
  138.8930   71.2270  221.4060 O   0  0  0  0  0  0  0  0  0  0  0  0
  139.2810   71.6820  222.5190 C   0  0  0  0  0  0  0  0  0  0  0  0
  139.5690   73.0710  222.6830 N   0  0  0  0  0  0  0  0  0  0  0  0
  139.4320   74.0180  221.5980 C   0  0  0  0  0  0  0  0  0  0  0  0
  140.6720   74.7750  221.3480 C   0  0  0  0  0  0  0  0  0  0  0  0
  141.8280   74.3440  221.5570 O   0  0  0  0  0  0  0  0  0  0  0  0
  140.5520   76.0930  220.8340 N   0  0  0  0  0  0  0  0  0  0  0  0
  139.3280   76.7930  220.4520 C   0  0  0  0  0  0  0  0  0  0  0  0
  139.7320   77.8680  219.4570 C   0  0  0  0  0  0  0  0  0  0  0  0
  141.1810   77.5280  219.1940 C   0  0  0  0  0  0  0  0  0  0  0  0
  141.6150   77.0660  220.5620 C   0  0  1  0  0  0  0  0  0  0  0  0
  141.5290   78.2030  221.5050 C   0  0  0  0  0  0  0  0  0  0  0  0
  141.2350   77.8900  222.8250 C   0  0  0  0  0  0  0  0  0  0  0  0
  141.1320   78.8570  223.7990 C   0  0  0  0  0  0  0  0  0  0  0  0
  141.3170   80.1950  223.4980 C   0  0  0  0  0  0  0  0  0  0  0  0
  141.6090   80.5030  222.1840 C   0  0  0  0  0  0  0  0  0  0  0  0
  141.8040   81.8410  221.8390 O   0  0  0  0  0  0  0  0  0  0  0  0
  141.0440   82.5190  220.8660 C   0  0  0  0  0  0  0  0  0  0  0  0
  141.0590   83.8720  221.2060 F   0  0  0  0  0  0  0  0  0  0  0  0
  139.7400   82.1310  220.7890 F   0  0  0  0  0  0  0  0  0  0  0  0
  141.7390   82.3780  219.6730 F   0  0  0  0  0  0  0  0  0  0  0  0
  141.7130   79.5120  221.2020 C   0  0  0  0  0  0  0  0  0  0  0  0
  139.4450   70.7850  223.6700 C   0  0  0  0  0  0  0  0  0  0  0  0
  139.0180   69.4840  223.6090 C   0  0  0  0  0  0  0  0  0  0  0  0
  139.1770   68.6360  224.7070 C   0  0  0  0  0  0  0  0  0  0  0  0
  139.7750   69.1410  225.8510 C   0  0  0  0  0  0  0  0  0  0  0  0
  139.9710   68.3680  226.9860 C   0  0  0  0  0  0  0  0  0  0  0  0
  140.5740   68.8980  228.1250 C   0  0  0  0  0  0  0  0  0  0  0  0
  140.9910   70.2150  228.1460 C   0  0  0  0  0  0  0  0  0  0  0  0
  140.7820   70.9630  226.9960 C   0  0  0  0  0  0  0  0  0  0  0  0
  140.1890   70.4410  225.8780 C   0  0  0  0  0  0  0  0  0  0  0  0
  140.0220   71.2280  224.8080 N   0  0  0  0  0  0  0  0  0  0  0  0
  139.8910   73.3840  223.6460 H   0  0  0  0  0  0  0  0  0  0  0  0
  139.1633   73.4695  220.6832 H   0  0  0  0  0  0  0  0  0  0  0  0
  138.6518   74.7397  221.8815 H   0  0  0  0  0  0  0  0  0  0  0  0
  138.6201   76.0919  219.9859 H   0  0  0  0  0  0  0  0  0  0  0  0
  138.8332   77.2329  221.3305 H   0  0  0  0  0  0  0  0  0  0  0  0
  139.1336   77.8048  218.5362 H   0  0  0  0  0  0  0  0  0  0  0  0
  139.5779   78.8928  219.8259 H   0  0  0  0  0  0  0  0  0  0  0  0
  141.2798   76.7275  218.4461 H   0  0  0  0  0  0  0  0  0  0  0  0
  141.7761   78.3568  218.7829 H   0  0  0  0  0  0  0  0  0  0  0  0
  142.6391   76.6726  220.6428 H   0  0  0  0  0  0  0  0  0  0  0  0
  141.0795   76.8366  223.1011 H   0  0  0  0  0  0  0  0  0  0  0  0
  140.8990   78.5617  224.8327 H   0  0  0  0  0  0  0  0  0  0  0  0
  141.2354   80.9758  224.2686 H   0  0  0  0  0  0  0  0  0  0  0  0
  141.9480   79.7994  220.1665 H   0  0  0  0  0  0  0  0  0  0  0  0
  138.5473   69.1056  222.6896 H   0  0  0  0  0  0  0  0  0  0  0  0
  138.8355   67.5912  224.6650 H   0  0  0  0  0  0  0  0  0  0  0  0
  139.6445   67.3176  226.9870 H   0  0  0  0  0  0  0  0  0  0  0  0
  140.7188   68.2643  229.0124 H   0  0  0  0  0  0  0  0  0  0  0  0
  141.4680   70.6517  229.0358 H   0  0  0  0  0  0  0  0  0  0  0  0
  141.1048   72.0145  226.9823 H   0  0  0  0  0  0  0  0  0  0  0  0
  1  2  2  0
  2  3  1  0
  3  4  1  0
  4  5  1  0
  5  6  2  0
  5  7  1  0
  7  8  1  0
  8  9  1  0
  9 10  1  0
 10 11  1  0
 11 12  1  0
 12 13  2  0
 13 14  1  0
 14 15  2  0
 15 16  1  0
 16 17  1  0
 17 18  1  0
 18 19  1  0
 18 20  1  0
 18 21  1  0
 16 22  2  0
  2 23  1  0
 23 24  2  0
 24 25  1  0
 25 26  2  0
 26 27  1  0
 27 28  2  0
 28 29  1  0
 29 30  2  0
 30 31  1  0
 31 32  2  0
 11  7  1  0
 22 12  1  0
 32 23  1  0
 31 26  1  0
  3 33  1  0
  4 34  1  0
  4 35  1  0
  8 36  1  0
  8 37  1  0
  9 38  1  0
  9 39  1  0
 10 40  1  0
 10 41  1  0
 11 42  1  6
 13 43  1  0
 14 44  1  0
 15 45  1  0
 22 46  1  0
 24 47  1  0
 25 48  1  0
 27 49  1  0
 28 50  1  0
 29 51  1  0
 30 52  1  0
M  END
>  <smiles>  (62) 
O=C(NCC(=O)N1CCCC1c1cccc(OC(F)(F)F)c1)c1ccc2ccccc2n1

>  <score_type>  (62) 
oracle

>  <origin>  (62) 
autodockgpu

>  <m_score__min__energy>  (62) 
-8.7100000000000009

>  <m_primary>  (62) 
energy

>  <rmsd>  (62) 
1.395769906430025

>  <m_score__min__rmsd>  (62) 
1.395769906430025

>  <meeko>  (62) 
{"free_energy": -7.74, "intermolecular_energy": -9.83, "internal_energy": -1.69, "cluster_size": 21, "cluster_id": 1, "rank_in_cluster": 19}

>  <energy>  (62) 
-8.39

>  <cluster_rmsd>  (62) 
0.83

>  <cluster>  (62) 
1

$$$$

     RDKit          3D

 52 55  0  0  0  0  0  0  0  0999 V2000
  140.4200   71.5460  221.2190 O   0  0  0  0  0  0  0  0  0  0  0  0
  140.1200   72.1180  222.3040 C   0  0  0  0  0  0  0  0  0  0  0  0
  139.8060   73.5120  222.3350 N   0  0  0  0  0  0  0  0  0  0  0  0
  139.8160   74.3280  221.1410 C   0  0  0  0  0  0  0  0  0  0  0  0
  141.0600   75.1070  220.9990 C   0  0  0  0  0  0  0  0  0  0  0  0
  142.2090   74.6680  221.2250 O   0  0  0  0  0  0  0  0  0  0  0  0
  140.9510   76.4580  220.5740 N   0  0  0  0  0  0  0  0  0  0  0  0
  139.7540   77.1520  220.1050 C   0  0  0  0  0  0  0  0  0  0  0  0
  140.2290   78.3130  219.2490 C   0  0  0  0  0  0  0  0  0  0  0  0
  141.7100   78.0350  219.1310 C   0  0  0  0  0  0  0  0  0  0  0  0
  142.0010   77.4780  220.5030 C   0  0  1  0  0  0  0  0  0  0  0  0
  141.7670   78.5340  221.5120 C   0  0  0  0  0  0  0  0  0  0  0  0
  141.4120   78.1060  222.7830 C   0  0  0  0  0  0  0  0  0  0  0  0
  141.1710   78.9900  223.8110 C   0  0  0  0  0  0  0  0  0  0  0  0
  141.2720   80.3560  223.6140 C   0  0  0  0  0  0  0  0  0  0  0  0
  141.6250   80.7790  222.3480 C   0  0  0  0  0  0  0  0  0  0  0  0
  141.7380   82.1490  222.1090 O   0  0  0  0  0  0  0  0  0  0  0  0
  140.8790   82.8710  221.2590 C   0  0  0  0  0  0  0  0  0  0  0  0
  141.1410   82.4480  219.9560 F   0  0  0  0  0  0  0  0  0  0  0  0
  141.0480   84.2220  221.2930 F   0  0  0  0  0  0  0  0  0  0  0  0
  139.5920   82.4630  221.5820 F   0  0  0  0  0  0  0  0  0  0  0  0
  141.8690   79.8720  221.3110 C   0  0  0  0  0  0  0  0  0  0  0  0
  140.0880   71.3590  223.5600 C   0  0  0  0  0  0  0  0  0  0  0  0
  139.5770   70.0880  223.5950 C   0  0  0  0  0  0  0  0  0  0  0  0
  139.5510   69.3700  224.7930 C   0  0  0  0  0  0  0  0  0  0  0  0
  140.0500   69.9740  225.9370 C   0  0  0  0  0  0  0  0  0  0  0  0
  140.0610   69.3320  227.1680 C   0  0  0  0  0  0  0  0  0  0  0  0
  140.5680   69.9600  228.3030 C   0  0  0  0  0  0  0  0  0  0  0  0
  141.0740   71.2430  228.2250 C   0  0  0  0  0  0  0  0  0  0  0  0
  141.0510   71.8580  226.9820 C   0  0  0  0  0  0  0  0  0  0  0  0
  140.5510   71.2410  225.8670 C   0  0  0  0  0  0  0  0  0  0  0  0
  140.5630   71.9010  224.7020 N   0  0  0  0  0  0  0  0  0  0  0  0
  139.5630   73.9280  223.2820 H   0  0  0  0  0  0  0  0  0  0  0  0
  139.7088   73.6719  220.2646 H   0  0  0  0  0  0  0  0  0  0  0  0
  138.9821   75.0414  221.2171 H   0  0  0  0  0  0  0  0  0  0  0  0
  139.1306   76.4707  219.5073 H   0  0  0  0  0  0  0  0  0  0  0  0
  139.1460   77.5068  220.9502 H   0  0  0  0  0  0  0  0  0  0  0  0
  139.7419   78.3072  218.2627 H   0  0  0  0  0  0  0  0  0  0  0  0
  139.9968   79.3004  219.6746 H   0  0  0  0  0  0  0  0  0  0  0  0
  141.9225   77.2991  218.3415 H   0  0  0  0  0  0  0  0  0  0  0  0
  142.3178   78.9093  218.8551 H   0  0  0  0  0  0  0  0  0  0  0  0
  143.0226   77.1076  220.6739 H   0  0  0  0  0  0  0  0  0  0  0  0
  141.3202   77.0269  222.9756 H   0  0  0  0  0  0  0  0  0  0  0  0
  140.8941   78.6046  224.8034 H   0  0  0  0  0  0  0  0  0  0  0  0
  141.0801   81.0710  224.4276 H   0  0  0  0  0  0  0  0  0  0  0  0
  142.1481   80.2499  220.3164 H   0  0  0  0  0  0  0  0  0  0  0  0
  139.1851   69.6306  222.6746 H   0  0  0  0  0  0  0  0  0  0  0  0
  139.1439   68.3487  224.8280 H   0  0  0  0  0  0  0  0  0  0  0  0
  139.6625   68.3099  227.2482 H   0  0  0  0  0  0  0  0  0  0  0  0
  140.5655   69.4311  229.2675 H   0  0  0  0  0  0  0  0  0  0  0  0
  141.4779   71.7550  229.1108 H   0  0  0  0  0  0  0  0  0  0  0  0
  141.4492   72.8791  226.8887 H   0  0  0  0  0  0  0  0  0  0  0  0
  1  2  2  0
  2  3  1  0
  3  4  1  0
  4  5  1  0
  5  6  2  0
  5  7  1  0
  7  8  1  0
  8  9  1  0
  9 10  1  0
 10 11  1  0
 11 12  1  0
 12 13  2  0
 13 14  1  0
 14 15  2  0
 15 16  1  0
 16 17  1  0
 17 18  1  0
 18 19  1  0
 18 20  1  0
 18 21  1  0
 16 22  2  0
  2 23  1  0
 23 24  2  0
 24 25  1  0
 25 26  2  0
 26 27  1  0
 27 28  2  0
 28 29  1  0
 29 30  2  0
 30 31  1  0
 31 32  2  0
 11  7  1  0
 22 12  1  0
 32 23  1  0
 31 26  1  0
  3 33  1  0
  4 34  1  0
  4 35  1  0
  8 36  1  0
  8 37  1  0
  9 38  1  0
  9 39  1  0
 10 40  1  0
 10 41  1  0
 11 42  1  6
 13 43  1  0
 14 44  1  0
 15 45  1  0
 22 46  1  0
 24 47  1  0
 25 48  1  0
 27 49  1  0
 28 50  1  0
 29 51  1  0
 30 52  1  0
M  END
>  <smiles>  (63) 
O=C(NCC(=O)N1CCCC1c1cccc(OC(F)(F)F)c1)c1ccc2ccccc2n1

>  <score_type>  (63) 
oracle

>  <origin>  (63) 
autodockgpu

>  <m_score__min__energy>  (63) 
-8.7100000000000009

>  <m_primary>  (63) 
energy

>  <rmsd>  (63) 
1.6825722791779119

>  <m_score__min__rmsd>  (63) 
1.6825722791779119

>  <meeko>  (63) 
{"free_energy": -8.36, "intermolecular_energy": -10.45, "internal_energy": -1.51, "cluster_size": 21, "cluster_id": 1, "rank_in_cluster": 14}

>  <energy>  (63) 
-8.38

>  <cluster_rmsd>  (63) 
1.71

>  <cluster>  (63) 
1

$$$$

     RDKit          3D

 52 55  0  0  0  0  0  0  0  0999 V2000
  140.5530   71.7500  221.1540 O   0  0  0  0  0  0  0  0  0  0  0  0
  140.1750   72.2470  222.2520 C   0  0  0  0  0  0  0  0  0  0  0  0
  139.8050   73.6240  222.3440 N   0  0  0  0  0  0  0  0  0  0  0  0
  139.8430   74.5090  221.2010 C   0  0  0  0  0  0  0  0  0  0  0  0
  139.3210   75.8530  221.5080 C   0  0  0  0  0  0  0  0  0  0  0  0
  138.2620   76.0840  222.1320 O   0  0  0  0  0  0  0  0  0  0  0  0
  140.0730   76.9730  221.0640 N   0  0  0  0  0  0  0  0  0  0  0  0
  139.6680   77.9910  220.0960 C   0  0  0  0  0  0  0  0  0  0  0  0
  140.9460   78.5890  219.5330 C   0  0  0  0  0  0  0  0  0  0  0  0
  142.0040   77.6710  220.1000 C   0  0  0  0  0  0  0  0  0  0  0  0
  141.4230   77.3820  221.4620 C   0  0  1  0  0  0  0  0  0  0  0  0
  141.3750   78.6370  222.2430 C   0  0  0  0  0  0  0  0  0  0  0  0
  142.5640   79.3430  222.3510 C   0  0  0  0  0  0  0  0  0  0  0  0
  142.6490   80.5280  223.0480 C   0  0  0  0  0  0  0  0  0  0  0  0
  141.5390   81.0660  223.6770 C   0  0  0  0  0  0  0  0  0  0  0  0
  140.3580   80.3600  223.5680 C   0  0  0  0  0  0  0  0  0  0  0  0
  139.2160   80.8700  224.1860 O   0  0  0  0  0  0  0  0  0  0  0  0
  137.9430   80.8970  223.5850 C   0  0  0  0  0  0  0  0  0  0  0  0
  137.4940   79.5770  223.5200 F   0  0  0  0  0  0  0  0  0  0  0  0
  137.9220   81.3990  222.3180 F   0  0  0  0  0  0  0  0  0  0  0  0
  137.1180   81.5780  224.4680 F   0  0  0  0  0  0  0  0  0  0  0  0
  140.2820   79.1580  222.8560 C   0  0  0  0  0  0  0  0  0  0  0  0
  140.1090   71.4150  223.4600 C   0  0  0  0  0  0  0  0  0  0  0  0
  139.5790   70.1520  223.4100 C   0  0  0  0  0  0  0  0  0  0  0  0
  139.5200   69.3650  224.5620 C   0  0  0  0  0  0  0  0  0  0  0  0
  140.0070   69.8920  225.7490 C   0  0  0  0  0  0  0  0  0  0  0  0
  139.9860   69.1780  226.9390 C   0  0  0  0  0  0  0  0  0  0  0  0
  140.4810   69.7290  228.1180 C   0  0  0  0  0  0  0  0  0  0  0  0
  141.0070   71.0070  228.1260 C   0  0  0  0  0  0  0  0  0  0  0  0
  141.0150   71.6950  226.9220 C   0  0  0  0  0  0  0  0  0  0  0  0
  140.5270   71.1530  225.7630 C   0  0  0  0  0  0  0  0  0  0  0  0
  140.5700   71.8810  224.6410 N   0  0  0  0  0  0  0  0  0  0  0  0
  139.4970   73.9760  223.2990 H   0  0  0  0  0  0  0  0  0  0  0  0
  140.8856   74.6044  220.8637 H   0  0  0  0  0  0  0  0  0  0  0  0
  139.2027   74.0729  220.4201 H   0  0  0  0  0  0  0  0  0  0  0  0
  139.0759   77.5335  219.2897 H   0  0  0  0  0  0  0  0  0  0  0  0
  139.0447   78.7632  220.5705 H   0  0  0  0  0  0  0  0  0  0  0  0
  140.9462   78.5667  218.4332 H   0  0  0  0  0  0  0  0  0  0  0  0
  141.0920   79.6470  219.7961 H   0  0  0  0  0  0  0  0  0  0  0  0
  142.1084   76.7543  219.5011 H   0  0  0  0  0  0  0  0  0  0  0  0
  143.0175   78.0982  220.1173 H   0  0  0  0  0  0  0  0  0  0  0  0
  141.9672   76.6533  222.0807 H   0  0  0  0  0  0  0  0  0  0  0  0
  143.4668   78.9443  221.8651 H   0  0  0  0  0  0  0  0  0  0  0  0
  143.6130   81.0547  223.1058 H   0  0  0  0  0  0  0  0  0  0  0  0
  141.5957   82.0111  224.2369 H   0  0  0  0  0  0  0  0  0  0  0  0
  139.3209   78.6267  222.7921 H   0  0  0  0  0  0  0  0  0  0  0  0
  139.1980   69.7561  222.4571 H   0  0  0  0  0  0  0  0  0  0  0  0
  139.0969   68.3502  224.5289 H   0  0  0  0  0  0  0  0  0  0  0  0
  139.5711   68.1593  226.9509 H   0  0  0  0  0  0  0  0  0  0  0  0
  140.4532   69.1435  229.0488 H   0  0  0  0  0  0  0  0  0  0  0  0
  141.4023   71.4590  229.0477 H   0  0  0  0  0  0  0  0  0  0  0  0
  141.4287   72.7139  226.8970 H   0  0  0  0  0  0  0  0  0  0  0  0
  1  2  2  0
  2  3  1  0
  3  4  1  0
  4  5  1  0
  5  6  2  0
  5  7  1  0
  7  8  1  0
  8  9  1  0
  9 10  1  0
 10 11  1  0
 11 12  1  0
 12 13  2  0
 13 14  1  0
 14 15  2  0
 15 16  1  0
 16 17  1  0
 17 18  1  0
 18 19  1  0
 18 20  1  0
 18 21  1  0
 16 22  2  0
  2 23  1  0
 23 24  2  0
 24 25  1  0
 25 26  2  0
 26 27  1  0
 27 28  2  0
 28 29  1  0
 29 30  2  0
 30 31  1  0
 31 32  2  0
 11  7  1  0
 22 12  1  0
 32 23  1  0
 31 26  1  0
  3 33  1  0
  4 34  1  0
  4 35  1  0
  8 36  1  0
  8 37  1  0
  9 38  1  0
  9 39  1  0
 10 40  1  0
 10 41  1  0
 11 42  1  1
 13 43  1  0
 14 44  1  0
 15 45  1  0
 22 46  1  0
 24 47  1  0
 25 48  1  0
 27 49  1  0
 28 50  1  0
 29 51  1  0
 30 52  1  0
M  END
>  <smiles>  (64) 
O=C(NCC(=O)N1CCCC1c1cccc(OC(F)(F)F)c1)c1ccc2ccccc2n1

>  <score_type>  (64) 
oracle

>  <origin>  (64) 
autodockgpu

>  <m_score__min__energy>  (64) 
-8.7100000000000009

>  <m_primary>  (64) 
energy

>  <rmsd>  (64) 
1.9926382400093456

>  <m_score__min__rmsd>  (64) 
1.9926382400093456

>  <meeko>  (64) 
{"free_energy": -8.52, "intermolecular_energy": -10.61, "internal_energy": -1.55, "cluster_size": 21, "cluster_id": 1, "rank_in_cluster": 8}

>  <energy>  (64) 
-8.36

>  <cluster_rmsd>  (64) 
1.68

>  <cluster>  (64) 
1

$$$$

     RDKit          3D

 52 55  0  0  0  0  0  0  0  0999 V2000
  140.6250   73.3440  222.3120 O   0  0  0  0  0  0  0  0  0  0  0  0
  139.5750   72.7640  222.7090 C   0  0  0  0  0  0  0  0  0  0  0  0
  138.2880   73.1920  222.2610 N   0  0  0  0  0  0  0  0  0  0  0  0
  138.1210   74.2960  221.3420 C   0  0  0  0  0  0  0  0  0  0  0  0
  138.2590   75.6060  222.0020 C   0  0  0  0  0  0  0  0  0  0  0  0
  137.5300   76.0200  222.9320 O   0  0  0  0  0  0  0  0  0  0  0  0
  139.2930   76.4700  221.5530 N   0  0  0  0  0  0  0  0  0  0  0  0
  139.2940   77.3150  220.3610 C   0  0  0  0  0  0  0  0  0  0  0  0
  140.7490   77.5630  220.0030 C   0  0  0  0  0  0  0  0  0  0  0  0
  141.4720   76.6220  220.9390 C   0  0  0  0  0  0  0  0  0  0  0  0
  140.6000   76.7240  222.1660 C   0  0  1  0  0  0  0  0  0  0  0  0
  140.6650   78.1050  222.6920 C   0  0  0  0  0  0  0  0  0  0  0  0
  141.9070   78.7230  222.6520 C   0  0  0  0  0  0  0  0  0  0  0  0
  142.0970   80.0090  223.1070 C   0  0  0  0  0  0  0  0  0  0  0  0
  141.0470   80.7430  223.6300 C   0  0  0  0  0  0  0  0  0  0  0  0
  139.8130   80.1240  223.6690 C   0  0  0  0  0  0  0  0  0  0  0  0
  138.7280   80.8300  224.1890 O   0  0  0  0  0  0  0  0  0  0  0  0
  137.4810   80.9390  223.5430 C   0  0  0  0  0  0  0  0  0  0  0  0
  136.7550   79.7900  223.8610 F   0  0  0  0  0  0  0  0  0  0  0  0
  137.5470   81.0180  222.1850 F   0  0  0  0  0  0  0  0  0  0  0  0
  136.8390   82.0180  224.1340 F   0  0  0  0  0  0  0  0  0  0  0  0
  139.6300   78.8180  223.2030 C   0  0  0  0  0  0  0  0  0  0  0  0
  139.6600   71.6350  223.6430 C   0  0  0  0  0  0  0  0  0  0  0  0
  139.2180   70.3900  223.2760 C   0  0  0  0  0  0  0  0  0  0  0  0
  139.3020   69.3200  224.1690 C   0  0  0  0  0  0  0  0  0  0  0  0
  139.8410   69.5480  225.4270 C   0  0  0  0  0  0  0  0  0  0  0  0
  139.9600   68.5410  226.3740 C   0  0  0  0  0  0  0  0  0  0  0  0
  140.5040   68.7950  227.6310 C   0  0  0  0  0  0  0  0  0  0  0  0
  140.9390   70.0640  227.9610 C   0  0  0  0  0  0  0  0  0  0  0  0
  140.8070   71.0490  226.9940 C   0  0  0  0  0  0  0  0  0  0  0  0
  140.2710   70.7990  225.7590 C   0  0  0  0  0  0  0  0  0  0  0  0
  140.1770   71.8040  224.8790 N   0  0  0  0  0  0  0  0  0  0  0  0
  137.4480   72.6580  222.6360 H   0  0  0  0  0  0  0  0  0  0  0  0
  138.8834   74.2165  220.5531 H   0  0  0  0  0  0  0  0  0  0  0  0
  137.1033   74.2357  220.9289 H   0  0  0  0  0  0  0  0  0  0  0  0
  138.7818   76.8031  219.5330 H   0  0  0  0  0  0  0  0  0  0  0  0
  138.7653   78.2616  220.5466 H   0  0  0  0  0  0  0  0  0  0  0  0
  140.9495   77.3116  218.9511 H   0  0  0  0  0  0  0  0  0  0  0  0
  141.0570   78.6138  220.1079 H   0  0  0  0  0  0  0  0  0  0  0  0
  141.4965   75.5960  220.5432 H   0  0  0  0  0  0  0  0  0  0  0  0
  142.5301   76.8702  221.1087 H   0  0  0  0  0  0  0  0  0  0  0  0
  140.8583   76.0607  223.0047 H   0  0  0  0  0  0  0  0  0  0  0  0
  142.7656   78.1690  222.2446 H   0  0  0  0  0  0  0  0  0  0  0  0
  143.0990   80.4596  223.0538 H   0  0  0  0  0  0  0  0  0  0  0  0
  141.1884   81.7702  223.9971 H   0  0  0  0  0  0  0  0  0  0  0  0
  138.6304   78.3614  223.2516 H   0  0  0  0  0  0  0  0  0  0  0  0
  138.7950   70.2334  222.2727 H   0  0  0  0  0  0  0  0  0  0  0  0
  138.9488   68.3187  223.8816 H   0  0  0  0  0  0  0  0  0  0  0  0
  139.6189   67.5246  226.1280 H   0  0  0  0  0  0  0  0  0  0  0  0
  140.5877   67.9802  228.3653 H   0  0  0  0  0  0  0  0  0  0  0  0
  141.3714   70.2836  228.9483 H   0  0  0  0  0  0  0  0  0  0  0  0
  141.1455   72.0692  227.2277 H   0  0  0  0  0  0  0  0  0  0  0  0
  1  2  2  0
  2  3  1  0
  3  4  1  0
  4  5  1  0
  5  6  2  0
  5  7  1  0
  7  8  1  0
  8  9  1  0
  9 10  1  0
 10 11  1  0
 11 12  1  0
 12 13  2  0
 13 14  1  0
 14 15  2  0
 15 16  1  0
 16 17  1  0
 17 18  1  0
 18 19  1  0
 18 20  1  0
 18 21  1  0
 16 22  2  0
  2 23  1  0
 23 24  2  0
 24 25  1  0
 25 26  2  0
 26 27  1  0
 27 28  2  0
 28 29  1  0
 29 30  2  0
 30 31  1  0
 31 32  2  0
 11  7  1  0
 22 12  1  0
 32 23  1  0
 31 26  1  0
  3 33  1  0
  4 34  1  0
  4 35  1  0
  8 36  1  0
  8 37  1  0
  9 38  1  0
  9 39  1  0
 10 40  1  0
 10 41  1  0
 11 42  1  1
 13 43  1  0
 14 44  1  0
 15 45  1  0
 22 46  1  0
 24 47  1  0
 25 48  1  0
 27 49  1  0
 28 50  1  0
 29 51  1  0
 30 52  1  0
M  END
>  <smiles>  (65) 
O=C(NCC(=O)N1CCCC1c1cccc(OC(F)(F)F)c1)c1ccc2ccccc2n1

>  <score_type>  (65) 
oracle

>  <origin>  (65) 
autodockgpu

>  <m_score__min__energy>  (65) 
-8.7100000000000009

>  <m_primary>  (65) 
energy

>  <rmsd>  (65) 
1.992031907799657

>  <m_score__min__rmsd>  (65) 
1.992031907799657

>  <meeko>  (65) 
{"free_energy": -8.06, "intermolecular_energy": -10.15, "internal_energy": -1.55, "cluster_size": 21, "cluster_id": 1, "rank_in_cluster": 16}

>  <energy>  (65) 
-8.11

>  <cluster_rmsd>  (65) 
1.84

>  <cluster>  (65) 
1

$$$$

     RDKit          3D

 52 55  0  0  0  0  0  0  0  0999 V2000
  137.6620   70.7160  221.9760 O   0  0  0  0  0  0  0  0  0  0  0  0
  138.4430   71.2880  222.7880 C   0  0  0  0  0  0  0  0  0  0  0  0
  138.8610   72.6370  222.5760 N   0  0  0  0  0  0  0  0  0  0  0  0
  138.4190   73.4080  221.4350 C   0  0  0  0  0  0  0  0  0  0  0  0
  138.1160   74.8080  221.7830 C   0  0  0  0  0  0  0  0  0  0  0  0
  138.9360   75.7530  221.7300 O   0  0  0  0  0  0  0  0  0  0  0  0
  136.7980   75.1150  222.2140 N   0  0  0  0  0  0  0  0  0  0  0  0
  135.5540   74.9450  221.4670 C   0  0  0  0  0  0  0  0  0  0  0  0
  134.5490   75.9130  222.0670 C   0  0  0  0  0  0  0  0  0  0  0  0
  135.4120   76.7280  223.0020 C   0  0  0  0  0  0  0  0  0  0  0  0
  136.3650   75.6700  223.5000 C   0  0  1  0  0  0  0  0  0  0  0  0
  135.6050   74.6600  224.2690 C   0  0  0  0  0  0  0  0  0  0  0  0
  135.8100   73.3330  223.9180 C   0  0  0  0  0  0  0  0  0  0  0  0
  135.1650   72.3010  224.5620 C   0  0  0  0  0  0  0  0  0  0  0  0
  134.2780   72.5470  225.5950 C   0  0  0  0  0  0  0  0  0  0  0  0
  134.0770   73.8680  225.9410 C   0  0  0  0  0  0  0  0  0  0  0  0
  133.1900   74.1590  226.9780 O   0  0  0  0  0  0  0  0  0  0  0  0
  132.5290   75.3940  227.1230 C   0  0  0  0  0  0  0  0  0  0  0  0
  133.5140   76.3670  227.2970 F   0  0  0  0  0  0  0  0  0  0  0  0
  131.6870   75.4680  228.1910 F   0  0  0  0  0  0  0  0  0  0  0  0
  131.9080   75.6390  225.9060 F   0  0  0  0  0  0  0  0  0  0  0  0
  134.7370   74.9100  225.2820 C   0  0  0  0  0  0  0  0  0  0  0  0
  138.9370   70.5720  223.9710 C   0  0  0  0  0  0  0  0  0  0  0  0
  138.7840   69.2140  224.0800 C   0  0  0  0  0  0  0  0  0  0  0  0
  139.2570   68.5390  225.2080 C   0  0  0  0  0  0  0  0  0  0  0  0
  139.8800   69.2730  226.2060 C   0  0  0  0  0  0  0  0  0  0  0  0
  140.3780   68.6810  227.3580 C   0  0  0  0  0  0  0  0  0  0  0  0
  141.0000   69.4400  228.3460 C   0  0  0  0  0  0  0  0  0  0  0  0
  141.1340   70.8070  228.1970 C   0  0  0  0  0  0  0  0  0  0  0  0
  140.6280   71.3700  227.0350 C   0  0  0  0  0  0  0  0  0  0  0  0
  140.0160   70.6230  226.0650 C   0  0  0  0  0  0  0  0  0  0  0  0
  139.5520   71.2400  224.9700 N   0  0  0  0  0  0  0  0  0  0  0  0
  139.5190   73.0540  223.2990 H   0  0  0  0  0  0  0  0  0  0  0  0
  139.2126   73.3976  220.6734 H   0  0  0  0  0  0  0  0  0  0  0  0
  137.4925   72.9488  221.0598 H   0  0  0  0  0  0  0  0  0  0  0  0
  135.7155   75.1767  220.4039 H   0  0  0  0  0  0  0  0  0  0  0  0
  135.1921   73.9083  221.5317 H   0  0  0  0  0  0  0  0  0  0  0  0
  134.0926   76.5459  221.2917 H   0  0  0  0  0  0  0  0  0  0  0  0
  133.7020   75.4186  222.5652 H   0  0  0  0  0  0  0  0  0  0  0  0
  135.9414   77.5309  222.4680 H   0  0  0  0  0  0  0  0  0  0  0  0
  134.8571   77.2511  223.7947 H   0  0  0  0  0  0  0  0  0  0  0  0
  137.1774   76.0139  224.1571 H   0  0  0  0  0  0  0  0  0  0  0  0
  136.5085   73.0988  223.1011 H   0  0  0  0  0  0  0  0  0  0  0  0
  135.3580   71.2640  224.2501 H   0  0  0  0  0  0  0  0  0  0  0  0
  133.7581   71.7292  226.1155 H   0  0  0  0  0  0  0  0  0  0  0  0
  134.5496   75.9493  225.5897 H   0  0  0  0  0  0  0  0  0  0  0  0
  138.2863   68.6530  223.2753 H   0  0  0  0  0  0  0  0  0  0  0  0
  139.1379   67.4495  225.3024 H   0  0  0  0  0  0  0  0  0  0  0  0
  140.2798   67.5937  227.4930 H   0  0  0  0  0  0  0  0  0  0  0  0
  141.3870   68.9482  229.2506 H   0  0  0  0  0  0  0  0  0  0  0  0
  141.6214   71.4227  228.9674 H   0  0  0  0  0  0  0  0  0  0  0  0
  140.7219   72.4560  226.8876 H   0  0  0  0  0  0  0  0  0  0  0  0
  1  2  2  0
  2  3  1  0
  3  4  1  0
  4  5  1  0
  5  6  2  0
  5  7  1  0
  7  8  1  0
  8  9  1  0
  9 10  1  0
 10 11  1  0
 11 12  1  0
 12 13  2  0
 13 14  1  0
 14 15  2  0
 15 16  1  0
 16 17  1  0
 17 18  1  0
 18 19  1  0
 18 20  1  0
 18 21  1  0
 16 22  2  0
  2 23  1  0
 23 24  2  0
 24 25  1  0
 25 26  2  0
 26 27  1  0
 27 28  2  0
 28 29  1  0
 29 30  2  0
 30 31  1  0
 31 32  2  0
 11  7  1  0
 22 12  1  0
 32 23  1  0
 31 26  1  0
  3 33  1  0
  4 34  1  0
  4 35  1  0
  8 36  1  0
  8 37  1  0
  9 38  1  0
  9 39  1  0
 10 40  1  0
 10 41  1  0
 11 42  1  1
 13 43  1  0
 14 44  1  0
 15 45  1  0
 22 46  1  0
 24 47  1  0
 25 48  1  0
 27 49  1  0
 28 50  1  0
 29 51  1  0
 30 52  1  0
M  END
>  <smiles>  (66) 
O=C(NCC(=O)N1CCCC1c1cccc(OC(F)(F)F)c1)c1ccc2ccccc2n1

>  <score_type>  (66) 
oracle

>  <origin>  (66) 
autodockgpu

>  <m_score__min__energy>  (66) 
-8.7100000000000009

>  <m_primary>  (66) 
energy

>  <rmsd>  (66) 
3.6790488623475626

>  <m_score__min__rmsd>  (66) 
3.6790488623475626

>  <meeko>  (66) 
{"free_energy": -7.14, "intermolecular_energy": -9.23, "internal_energy": -2.04, "cluster_size": 3, "cluster_id": 10, "rank_in_cluster": 3}

>  <energy>  (66) 
-8.06

>  <cluster_rmsd>  (66) 
0.88

>  <cluster>  (66) 
1

$$$$

     RDKit          3D

 52 55  0  0  0  0  0  0  0  0999 V2000
  135.0880   77.1390  223.8990 O   0  0  0  0  0  0  0  0  0  0  0  0
  135.4950   75.9450  223.9450 C   0  0  0  0  0  0  0  0  0  0  0  0
  136.6520   75.5370  223.2120 N   0  0  0  0  0  0  0  0  0  0  0  0
  137.4060   76.4580  222.3910 C   0  0  0  0  0  0  0  0  0  0  0  0
  138.7710   75.9770  222.1090 C   0  0  0  0  0  0  0  0  0  0  0  0
  139.1730   74.8090  222.3090 O   0  0  0  0  0  0  0  0  0  0  0  0
  139.7030   76.9040  221.5720 N   0  0  0  0  0  0  0  0  0  0  0  0
  139.5170   77.7940  220.4280 C   0  0  0  0  0  0  0  0  0  0  0  0
  140.9030   78.1220  219.9010 C   0  0  0  0  0  0  0  0  0  0  0  0
  141.7770   77.1800  220.6960 C   0  0  0  0  0  0  0  0  0  0  0  0
  141.0660   77.1930  222.0260 C   0  0  1  0  0  0  0  0  0  0  0  0
  141.1420   78.5540  222.6010 C   0  0  0  0  0  0  0  0  0  0  0  0
  142.3900   79.1610  222.5900 C   0  0  0  0  0  0  0  0  0  0  0  0
  142.5900   80.4280  223.0910 C   0  0  0  0  0  0  0  0  0  0  0  0
  141.5430   81.1540  223.6330 C   0  0  0  0  0  0  0  0  0  0  0  0
  140.3030   80.5470  223.6430 C   0  0  0  0  0  0  0  0  0  0  0  0
  139.2220   81.2460  224.1800 O   0  0  0  0  0  0  0  0  0  0  0  0
  137.9180   81.2000  223.6510 C   0  0  0  0  0  0  0  0  0  0  0  0
  138.0410   81.1680  222.2610 F   0  0  0  0  0  0  0  0  0  0  0  0
  137.1370   82.2710  223.9670 F   0  0  0  0  0  0  0  0  0  0  0  0
  137.3840   79.9840  224.0540 F   0  0  0  0  0  0  0  0  0  0  0  0
  140.1100   79.2600  223.1300 C   0  0  0  0  0  0  0  0  0  0  0  0
  134.7840   74.9490  224.7550 C   0  0  0  0  0  0  0  0  0  0  0  0
  133.8630   75.3390  225.6920 C   0  0  0  0  0  0  0  0  0  0  0  0
  133.1900   74.3860  226.4600 C   0  0  0  0  0  0  0  0  0  0  0  0
  133.4750   73.0450  226.2500 C   0  0  0  0  0  0  0  0  0  0  0  0
  132.8520   72.0350  226.9690 C   0  0  0  0  0  0  0  0  0  0  0  0
  133.1560   70.6950  226.7410 C   0  0  0  0  0  0  0  0  0  0  0  0
  134.0910   70.3440  225.7870 C   0  0  0  0  0  0  0  0  0  0  0  0
  134.6970   71.3750  225.0840 C   0  0  0  0  0  0  0  0  0  0  0  0
  134.3970   72.6920  225.3100 C   0  0  0  0  0  0  0  0  0  0  0  0
  135.0250   73.6300  224.5890 N   0  0  0  0  0  0  0  0  0  0  0  0
  136.9380   74.5160  223.2960 H   0  0  0  0  0  0  0  0  0  0  0  0
  136.8762   76.5947  221.4368 H   0  0  0  0  0  0  0  0  0  0  0  0
  137.4933   77.4044  222.9449 H   0  0  0  0  0  0  0  0  0  0  0  0
  138.9243   77.2917  219.6493 H   0  0  0  0  0  0  0  0  0  0  0  0
  138.9783   78.7074  220.7205 H   0  0  0  0  0  0  0  0  0  0  0  0
  140.9776   77.9207  218.8222 H   0  0  0  0  0  0  0  0  0  0  0  0
  141.1790   79.1810  220.0125 H   0  0  0  0  0  0  0  0  0  0  0  0
  141.7928   76.1725  220.2549 H   0  0  0  0  0  0  0  0  0  0  0  0
  142.8369   77.4706  220.7424 H   0  0  0  0  0  0  0  0  0  0  0  0
  141.4559   76.5095  222.7946 H   0  0  0  0  0  0  0  0  0  0  0  0
  143.2456   78.6133  222.1682 H   0  0  0  0  0  0  0  0  0  0  0  0
  143.5968   80.8700  223.0601 H   0  0  0  0  0  0  0  0  0  0  0  0
  141.6921   82.1664  224.0365 H   0  0  0  0  0  0  0  0  0  0  0  0
  139.1054   78.8125  223.1556 H   0  0  0  0  0  0  0  0  0  0  0  0
  133.6526   76.4085  225.8401 H   0  0  0  0  0  0  0  0  0  0  0  0
  132.4505   74.6922  227.2145 H   0  0  0  0  0  0  0  0  0  0  0  0
  132.1048   72.2972  227.7325 H   0  0  0  0  0  0  0  0  0  0  0  0
  132.6487   69.9121  227.3239 H   0  0  0  0  0  0  0  0  0  0  0  0
  134.3445   69.2914  225.5928 H   0  0  0  0  0  0  0  0  0  0  0  0
  135.4455   71.1257  224.3174 H   0  0  0  0  0  0  0  0  0  0  0  0
  1  2  2  0
  2  3  1  0
  3  4  1  0
  4  5  1  0
  5  6  2  0
  5  7  1  0
  7  8  1  0
  8  9  1  0
  9 10  1  0
 10 11  1  0
 11 12  1  0
 12 13  2  0
 13 14  1  0
 14 15  2  0
 15 16  1  0
 16 17  1  0
 17 18  1  0
 18 19  1  0
 18 20  1  0
 18 21  1  0
 16 22  2  0
  2 23  1  0
 23 24  2  0
 24 25  1  0
 25 26  2  0
 26 27  1  0
 27 28  2  0
 28 29  1  0
 29 30  2  0
 30 31  1  0
 31 32  2  0
 11  7  1  0
 22 12  1  0
 32 23  1  0
 31 26  1  0
  3 33  1  0
  4 34  1  0
  4 35  1  0
  8 36  1  0
  8 37  1  0
  9 38  1  0
  9 39  1  0
 10 40  1  0
 10 41  1  0
 11 42  1  1
 13 43  1  0
 14 44  1  0
 15 45  1  0
 22 46  1  0
 24 47  1  0
 25 48  1  0
 27 49  1  0
 28 50  1  0
 29 51  1  0
 30 52  1  0
M  END
>  <smiles>  (67) 
O=C(NCC(=O)N1CCCC1c1cccc(OC(F)(F)F)c1)c1ccc2ccccc2n1

>  <score_type>  (67) 
oracle

>  <origin>  (67) 
autodockgpu

>  <m_score__min__energy>  (67) 
-8.7100000000000009

>  <m_primary>  (67) 
energy

>  <rmsd>  (67) 
5.6698500828803455

>  <m_score__min__rmsd>  (67) 
5.6698500828803455

>  <meeko>  (67) 
{"free_energy": -6.94, "intermolecular_energy": -9.03, "internal_energy": -1.99, "cluster_size": 1, "cluster_id": 11, "rank_in_cluster": 1}

>  <energy>  (67) 
-8.01

>  <cluster_rmsd>  (67) 
0.66

>  <cluster>  (67) 
1

$$$$

     RDKit          3D

 52 55  0  0  0  0  0  0  0  0999 V2000
  140.8280   71.4970  221.3320 O   0  0  0  0  0  0  0  0  0  0  0  0
  140.3530   72.0180  222.3800 C   0  0  0  0  0  0  0  0  0  0  0  0
  139.9660   73.3920  222.4050 N   0  0  0  0  0  0  0  0  0  0  0  0
  140.0940   74.2480  221.2460 C   0  0  0  0  0  0  0  0  0  0  0  0
  140.1740   75.6760  221.6040 C   0  0  0  0  0  0  0  0  0  0  0  0
  139.8500   76.1550  222.7140 O   0  0  0  0  0  0  0  0  0  0  0  0
  140.6530   76.5810  220.6200 N   0  0  0  0  0  0  0  0  0  0  0  0
  140.0640   76.8720  219.3140 C   0  0  0  0  0  0  0  0  0  0  0  0
  141.1860   77.4030  218.4390 C   0  0  0  0  0  0  0  0  0  0  0  0
  142.4040   77.1560  219.2980 C   0  0  0  0  0  0  0  0  0  0  0  0
  141.8420   77.4370  220.6690 C   0  0  1  0  0  0  0  0  0  0  0  0
  141.4520   78.8610  220.7490 C   0  0  0  0  0  0  0  0  0  0  0  0
  140.5710   79.2040  221.7650 C   0  0  0  0  0  0  0  0  0  0  0  0
  140.1350   80.4980  221.9470 C   0  0  0  0  0  0  0  0  0  0  0  0
  140.5610   81.5180  221.1140 C   0  0  0  0  0  0  0  0  0  0  0  0
  141.4370   81.1730  220.1040 C   0  0  0  0  0  0  0  0  0  0  0  0
  141.8900   82.1720  219.2440 O   0  0  0  0  0  0  0  0  0  0  0  0
  142.1870   81.9610  217.8830 C   0  0  0  0  0  0  0  0  0  0  0  0
  143.3680   81.2200  217.8330 F   0  0  0  0  0  0  0  0  0  0  0  0
  142.3860   83.0990  217.1600 F   0  0  0  0  0  0  0  0  0  0  0  0
  141.1670   81.1590  217.3900 F   0  0  0  0  0  0  0  0  0  0  0  0
  141.8750   79.8560  219.9290 C   0  0  0  0  0  0  0  0  0  0  0  0
  140.1910   71.2150  223.5990 C   0  0  0  0  0  0  0  0  0  0  0  0
  139.6300   69.9660  223.5440 C   0  0  0  0  0  0  0  0  0  0  0  0
  139.4790   69.2080  224.7070 C   0  0  0  0  0  0  0  0  0  0  0  0
  139.9090   69.7480  225.9090 C   0  0  0  0  0  0  0  0  0  0  0  0
  139.7960   69.0620  227.1110 C   0  0  0  0  0  0  0  0  0  0  0  0
  140.2340   69.6270  228.3060 C   0  0  0  0  0  0  0  0  0  0  0  0
  140.7950   70.8890  228.3190 C   0  0  0  0  0  0  0  0  0  0  0  0
  140.8950   71.5500  227.1030 C   0  0  0  0  0  0  0  0  0  0  0  0
  140.4630   70.9940  225.9290 C   0  0  0  0  0  0  0  0  0  0  0  0
  140.5940   71.6960  224.7950 N   0  0  0  0  0  0  0  0  0  0  0  0
  139.5750   73.7640  223.3210 H   0  0  0  0  0  0  0  0  0  0  0  0
  141.0080   73.9693  220.7010 H   0  0  0  0  0  0  0  0  0  0  0  0
  139.1953   74.1087  220.6271 H   0  0  0  0  0  0  0  0  0  0  0  0
  139.6423   75.9556  218.8754 H   0  0  0  0  0  0  0  0  0  0  0  0
  139.2490   77.6056  219.4016 H   0  0  0  0  0  0  0  0  0  0  0  0
  141.2480   76.8497  217.4903 H   0  0  0  0  0  0  0  0  0  0  0  0
  141.0578   78.4556  218.1466 H   0  0  0  0  0  0  0  0  0  0  0  0
  142.7581   76.1183  219.2101 H   0  0  0  0  0  0  0  0  0  0  0  0
  143.2813   77.7636  219.0312 H   0  0  0  0  0  0  0  0  0  0  0  0
  142.5144   77.2524  221.5197 H   0  0  0  0  0  0  0  0  0  0  0  0
  140.2099   78.4188  222.4455 H   0  0  0  0  0  0  0  0  0  0  0  0
  139.4375   80.7241  222.7670 H   0  0  0  0  0  0  0  0  0  0  0  0
  140.2180   82.5542  221.2501 H   0  0  0  0  0  0  0  0  0  0  0  0
  142.5744   79.6230  219.1126 H   0  0  0  0  0  0  0  0  0  0  0  0
  139.2967   69.5582  222.5783 H   0  0  0  0  0  0  0  0  0  0  0  0
  139.0290   68.2050  224.6701 H   0  0  0  0  0  0  0  0  0  0  0  0
  139.3530   68.0552  227.1193 H   0  0  0  0  0  0  0  0  0  0  0  0
  140.1325   69.0645  229.2458 H   0  0  0  0  0  0  0  0  0  0  0  0
  141.1474   71.3504  229.2533 H   0  0  0  0  0  0  0  0  0  0  0  0
  141.3373   72.5569  227.0816 H   0  0  0  0  0  0  0  0  0  0  0  0
  1  2  2  0
  2  3  1  0
  3  4  1  0
  4  5  1  0
  5  6  2  0
  5  7  1  0
  7  8  1  0
  8  9  1  0
  9 10  1  0
 10 11  1  0
 11 12  1  0
 12 13  2  0
 13 14  1  0
 14 15  2  0
 15 16  1  0
 16 17  1  0
 17 18  1  0
 18 19  1  0
 18 20  1  0
 18 21  1  0
 16 22  2  0
  2 23  1  0
 23 24  2  0
 24 25  1  0
 25 26  2  0
 26 27  1  0
 27 28  2  0
 28 29  1  0
 29 30  2  0
 30 31  1  0
 31 32  2  0
 11  7  1  0
 22 12  1  0
 32 23  1  0
 31 26  1  0
  3 33  1  0
  4 34  1  0
  4 35  1  0
  8 36  1  0
  8 37  1  0
  9 38  1  0
  9 39  1  0
 10 40  1  0
 10 41  1  0
 11 42  1  1
 13 43  1  0
 14 44  1  0
 15 45  1  0
 22 46  1  0
 24 47  1  0
 25 48  1  0
 27 49  1  0
 28 50  1  0
 29 51  1  0
 30 52  1  0
M  END
>  <smiles>  (68) 
O=C(NCC(=O)N1CCCC1c1cccc(OC(F)(F)F)c1)c1ccc2ccccc2n1

>  <score_type>  (68) 
oracle

>  <origin>  (68) 
autodockgpu

>  <m_score__min__energy>  (68) 
-8.7100000000000009

>  <m_primary>  (68) 
energy

>  <rmsd>  (68) 
1.6096926028666536

>  <m_score__min__rmsd>  (68) 
1.6096926028666536

>  <meeko>  (68) 
{"free_energy": -7.43, "intermolecular_energy": -9.52, "internal_energy": -1.63, "cluster_size": 1, "cluster_id": 8, "rank_in_cluster": 1}

>  <energy>  (68) 
-7.75

>  <cluster_rmsd>  (68) 
0.92

>  <cluster>  (68) 
1

$$$$

     RDKit          3D

 52 55  0  0  0  0  0  0  0  0999 V2000
  139.8240   71.4220  221.2630 O   0  0  0  0  0  0  0  0  0  0  0  0
  139.7690   72.0210  222.3740 C   0  0  0  0  0  0  0  0  0  0  0  0
  139.5780   73.4350  222.4350 N   0  0  0  0  0  0  0  0  0  0  0  0
  139.4380   74.2440  221.2450 C   0  0  0  0  0  0  0  0  0  0  0  0
  138.9800   75.6130  221.5430 C   0  0  0  0  0  0  0  0  0  0  0  0
  137.9030   75.9000  222.1120 O   0  0  0  0  0  0  0  0  0  0  0  0
  139.8190   76.6920  221.1550 N   0  0  0  0  0  0  0  0  0  0  0  0
  139.5620   77.6960  220.1240 C   0  0  0  0  0  0  0  0  0  0  0  0
  140.9160   78.2300  219.6890 C   0  0  0  0  0  0  0  0  0  0  0  0
  141.8690   77.2900  220.3920 C   0  0  0  0  0  0  0  0  0  0  0  0
  141.1340   77.0620  221.6880 C   0  0  1  0  0  0  0  0  0  0  0  0
  141.0510   78.3400  222.4280 C   0  0  0  0  0  0  0  0  0  0  0  0
  142.2150   79.0930  222.4920 C   0  0  0  0  0  0  0  0  0  0  0  0
  142.2660   80.3030  223.1470 C   0  0  0  0  0  0  0  0  0  0  0  0
  141.1480   80.8210  223.7770 C   0  0  0  0  0  0  0  0  0  0  0  0
  139.9920   80.0690  223.7130 C   0  0  0  0  0  0  0  0  0  0  0  0
  138.8420   80.5560  224.3340 O   0  0  0  0  0  0  0  0  0  0  0  0
  137.5700   80.5690  223.7310 C   0  0  0  0  0  0  0  0  0  0  0  0
  136.6910   81.1530  224.6450 F   0  0  0  0  0  0  0  0  0  0  0  0
  137.0760   79.3400  223.4160 F   0  0  0  0  0  0  0  0  0  0  0  0
  137.6720   81.4240  222.6430 F   0  0  0  0  0  0  0  0  0  0  0  0
  139.9500   78.8410  223.0430 C   0  0  0  0  0  0  0  0  0  0  0  0
  139.9030   71.2710  223.6290 C   0  0  0  0  0  0  0  0  0  0  0  0
  139.5790   69.9400  223.6850 C   0  0  0  0  0  0  0  0  0  0  0  0
  139.7090   69.2320  224.8820 C   0  0  0  0  0  0  0  0  0  0  0  0
  140.1710   69.9050  226.0020 C   0  0  0  0  0  0  0  0  0  0  0  0
  140.3290   69.2770  227.2300 C   0  0  0  0  0  0  0  0  0  0  0  0
  140.7950   69.9750  228.3420 C   0  0  0  0  0  0  0  0  0  0  0  0
  141.1110   71.3170  228.2430 C   0  0  0  0  0  0  0  0  0  0  0  0
  140.9430   71.9170  227.0030 C   0  0  0  0  0  0  0  0  0  0  0  0
  140.4850   71.2290  225.9110 C   0  0  0  0  0  0  0  0  0  0  0  0
  140.3500   71.8800  224.7490 N   0  0  0  0  0  0  0  0  0  0  0  0
  139.5420   73.8730  223.4030 H   0  0  0  0  0  0  0  0  0  0  0  0
  140.4137   74.3006  220.7403 H   0  0  0  0  0  0  0  0  0  0  0  0
  138.6787   73.7695  220.6060 H   0  0  0  0  0  0  0  0  0  0  0  0
  139.0426   77.2377  219.2694 H   0  0  0  0  0  0  0  0  0  0  0  0
  138.9225   78.5041  220.5087 H   0  0  0  0  0  0  0  0  0  0  0  0
  141.0345   78.1752  218.5968 H   0  0  0  0  0  0  0  0  0  0  0  0
  141.0747   79.2893  219.9392 H   0  0  0  0  0  0  0  0  0  0  0  0
  142.0012   76.3530  219.8311 H   0  0  0  0  0  0  0  0  0  0  0  0
  142.8906   77.6805  220.5098 H   0  0  0  0  0  0  0  0  0  0  0  0
  141.5792   76.3319  222.3799 H   0  0  0  0  0  0  0  0  0  0  0  0
  143.1244   78.7116  222.0047 H   0  0  0  0  0  0  0  0  0  0  0  0
  143.2102   80.8668  223.1699 H   0  0  0  0  0  0  0  0  0  0  0  0
  141.1789   81.7862  224.3038 H   0  0  0  0  0  0  0  0  0  0  0  0
  139.0088   78.2724  223.0144 H   0  0  0  0  0  0  0  0  0  0  0  0
  139.2148   69.4271  222.7826 H   0  0  0  0  0  0  0  0  0  0  0  0
  139.4505   68.1641  224.9346 H   0  0  0  0  0  0  0  0  0  0  0  0
  140.0819   68.2095  227.3267 H   0  0  0  0  0  0  0  0  0  0  0  0
  140.9121   69.4552  229.3043 H   0  0  0  0  0  0  0  0  0  0  0  0
  141.4798   71.8850  229.1098 H   0  0  0  0  0  0  0  0  0  0  0  0
  141.1866   72.9841  226.8932 H   0  0  0  0  0  0  0  0  0  0  0  0
  1  2  2  0
  2  3  1  0
  3  4  1  0
  4  5  1  0
  5  6  2  0
  5  7  1  0
  7  8  1  0
  8  9  1  0
  9 10  1  0
 10 11  1  0
 11 12  1  0
 12 13  2  0
 13 14  1  0
 14 15  2  0
 15 16  1  0
 16 17  1  0
 17 18  1  0
 18 19  1  0
 18 20  1  0
 18 21  1  0
 16 22  2  0
  2 23  1  0
 23 24  2  0
 24 25  1  0
 25 26  2  0
 26 27  1  0
 27 28  2  0
 28 29  1  0
 29 30  2  0
 30 31  1  0
 31 32  2  0
 11  7  1  0
 22 12  1  0
 32 23  1  0
 31 26  1  0
  3 33  1  0
  4 34  1  0
  4 35  1  0
  8 36  1  0
  8 37  1  0
  9 38  1  0
  9 39  1  0
 10 40  1  0
 10 41  1  0
 11 42  1  1
 13 43  1  0
 14 44  1  0
 15 45  1  0
 22 46  1  0
 24 47  1  0
 25 48  1  0
 27 49  1  0
 28 50  1  0
 29 51  1  0
 30 52  1  0
M  END
>  <smiles>  (69) 
O=C(NCC(=O)N1CCCC1c1cccc(OC(F)(F)F)c1)c1ccc2ccccc2n1

>  <score_type>  (69) 
oracle

>  <origin>  (69) 
autodockgpu

>  <m_score__min__energy>  (69) 
-8.7100000000000009

>  <m_primary>  (69) 
energy

>  <rmsd>  (69) 
1.9145035004138005

>  <m_score__min__rmsd>  (69) 
1.9145035004138005

>  <meeko>  (69) 
{"free_energy": -8.43, "intermolecular_energy": -10.52, "internal_energy": -1.62, "cluster_size": 21, "cluster_id": 1, "rank_in_cluster": 11}

>  <energy>  (69) 
-7.74

>  <cluster_rmsd>  (69) 
1.83

>  <cluster>  (69) 
1

$$$$

     RDKit          3D

 52 55  0  0  0  0  0  0  0  0999 V2000
  141.2760   71.8780  221.5290 O   0  0  0  0  0  0  0  0  0  0  0  0
  140.4950   72.2890  222.4340 C   0  0  0  0  0  0  0  0  0  0  0  0
  139.8340   73.5490  222.3140 N   0  0  0  0  0  0  0  0  0  0  0  0
  140.0210   74.4100  221.1670 C   0  0  0  0  0  0  0  0  0  0  0  0
  139.2840   75.6810  221.2870 C   0  0  0  0  0  0  0  0  0  0  0  0
  138.0980   75.7860  221.6750 O   0  0  0  0  0  0  0  0  0  0  0  0
  139.9630   76.8780  220.9380 N   0  0  0  0  0  0  0  0  0  0  0  0
  139.5010   77.9380  220.0450 C   0  0  0  0  0  0  0  0  0  0  0  0
  140.7400   78.6580  219.5430 C   0  0  0  0  0  0  0  0  0  0  0  0
  141.8520   77.7690  220.0530 C   0  0  0  0  0  0  0  0  0  0  0  0
  141.2820   77.3400  221.3820 C   0  0  1  0  0  0  0  0  0  0  0  0
  141.1470   78.5270  222.2550 C   0  0  0  0  0  0  0  0  0  0  0  0
  142.2400   79.3810  222.3100 C   0  0  0  0  0  0  0  0  0  0  0  0
  142.2360   80.5210  223.0820 C   0  0  0  0  0  0  0  0  0  0  0  0
  141.1320   80.8630  223.8440 C   0  0  0  0  0  0  0  0  0  0  0  0
  140.0480   80.0110  223.7870 C   0  0  0  0  0  0  0  0  0  0  0  0
  138.9150   80.3210  224.5390 O   0  0  0  0  0  0  0  0  0  0  0  0
  137.7740   80.9600  224.0150 C   0  0  0  0  0  0  0  0  0  0  0  0
  136.9570   79.9620  223.4810 F   0  0  0  0  0  0  0  0  0  0  0  0
  138.0300   81.8550  223.0200 F   0  0  0  0  0  0  0  0  0  0  0  0
  137.1100   81.5090  225.1020 F   0  0  0  0  0  0  0  0  0  0  0  0
  140.0610   78.8560  222.9980 C   0  0  0  0  0  0  0  0  0  0  0  0
  140.2520   71.4730  223.6300 C   0  0  0  0  0  0  0  0  0  0  0  0
  139.5760   70.2840  223.5400 C   0  0  0  0  0  0  0  0  0  0  0  0
  139.3490   69.5130  224.6820 C   0  0  0  0  0  0  0  0  0  0  0  0
  139.8210   69.9790  225.9000 C   0  0  0  0  0  0  0  0  0  0  0  0
  139.6380   69.2750  227.0820 C   0  0  0  0  0  0  0  0  0  0  0  0
  140.1210   69.7640  228.2930 C   0  0  0  0  0  0  0  0  0  0  0  0
  140.7970   70.9680  228.3410 C   0  0  0  0  0  0  0  0  0  0  0  0
  140.9650   71.6480  227.1440 C   0  0  0  0  0  0  0  0  0  0  0  0
  140.4890   71.1670  225.9540 C   0  0  0  0  0  0  0  0  0  0  0  0
  140.6920   71.8820  224.8400 N   0  0  0  0  0  0  0  0  0  0  0  0
  139.1910   73.8320  223.1130 H   0  0  0  0  0  0  0  0  0  0  0  0
  141.0933   74.6327  221.0646 H   0  0  0  0  0  0  0  0  0  0  0  0
  139.6310   73.8803  220.2853 H   0  0  0  0  0  0  0  0  0  0  0  0
  138.9453   77.5059  219.1997 H   0  0  0  0  0  0  0  0  0  0  0  0
  138.8266   78.6308  220.5697 H   0  0  0  0  0  0  0  0  0  0  0  0
  140.7491   78.7184  218.4447 H   0  0  0  0  0  0  0  0  0  0  0  0
  140.8149   79.7007  219.8853 H   0  0  0  0  0  0  0  0  0  0  0  0
  142.0204   76.9091  219.3880 H   0  0  0  0  0  0  0  0  0  0  0  0
  142.8350   78.2587  220.1152 H   0  0  0  0  0  0  0  0  0  0  0  0
  141.8679   76.6023  221.9498 H   0  0  0  0  0  0  0  0  0  0  0  0
  143.1360   79.1397  221.7192 H   0  0  0  0  0  0  0  0  0  0  0  0
  143.1239   81.1702  223.0935 H   0  0  0  0  0  0  0  0  0  0  0  0
  141.1195   81.7706  224.4653 H   0  0  0  0  0  0  0  0  0  0  0  0
  139.1756   78.2036  222.9798 H   0  0  0  0  0  0  0  0  0  0  0  0
  139.2103   69.9352  222.5629 H   0  0  0  0  0  0  0  0  0  0  0  0
  138.8079   68.5575  224.6170 H   0  0  0  0  0  0  0  0  0  0  0  0
  139.1023   68.3145  227.0618 H   0  0  0  0  0  0  0  0  0  0  0  0
  139.9634   69.1883  229.2170 H   0  0  0  0  0  0  0  0  0  0  0  0
  141.1854   71.3701  229.2883 H   0  0  0  0  0  0  0  0  0  0  0  0
  141.5003   72.6090  227.1511 H   0  0  0  0  0  0  0  0  0  0  0  0
  1  2  2  0
  2  3  1  0
  3  4  1  0
  4  5  1  0
  5  6  2  0
  5  7  1  0
  7  8  1  0
  8  9  1  0
  9 10  1  0
 10 11  1  0
 11 12  1  0
 12 13  2  0
 13 14  1  0
 14 15  2  0
 15 16  1  0
 16 17  1  0
 17 18  1  0
 18 19  1  0
 18 20  1  0
 18 21  1  0
 16 22  2  0
  2 23  1  0
 23 24  2  0
 24 25  1  0
 25 26  2  0
 26 27  1  0
 27 28  2  0
 28 29  1  0
 29 30  2  0
 30 31  1  0
 31 32  2  0
 11  7  1  0
 22 12  1  0
 32 23  1  0
 31 26  1  0
  3 33  1  0
  4 34  1  0
  4 35  1  0
  8 36  1  0
  8 37  1  0
  9 38  1  0
  9 39  1  0
 10 40  1  0
 10 41  1  0
 11 42  1  1
 13 43  1  0
 14 44  1  0
 15 45  1  0
 22 46  1  0
 24 47  1  0
 25 48  1  0
 27 49  1  0
 28 50  1  0
 29 51  1  0
 30 52  1  0
M  END
>  <smiles>  (70) 
O=C(NCC(=O)N1CCCC1c1cccc(OC(F)(F)F)c1)c1ccc2ccccc2n1

>  <score_type>  (70) 
oracle

>  <origin>  (70) 
autodockgpu

>  <m_score__min__energy>  (70) 
-8.7100000000000009

>  <m_primary>  (70) 
energy

>  <rmsd>  (70) 
2.0392515107900984

>  <m_score__min__rmsd>  (70) 
2.0392515107900984

>  <meeko>  (70) 
{"free_energy": -8.53, "intermolecular_energy": -10.62, "internal_energy": -1.46, "cluster_size": 21, "cluster_id": 1, "rank_in_cluster": 7}

>  <energy>  (70) 
-7.71

>  <cluster_rmsd>  (70) 
1.32

>  <cluster>  (70) 
1

$$$$

     RDKit          3D

 52 55  0  0  0  0  0  0  0  0999 V2000
  140.2810   71.4100  221.2160 O   0  0  0  0  0  0  0  0  0  0  0  0
  140.0340   72.0120  222.2980 C   0  0  0  0  0  0  0  0  0  0  0  0
  139.7470   73.4110  222.3100 N   0  0  0  0  0  0  0  0  0  0  0  0
  139.7250   74.2020  221.0990 C   0  0  0  0  0  0  0  0  0  0  0  0
  140.5300   75.4310  221.2120 C   0  0  0  0  0  0  0  0  0  0  0  0
  140.3880   76.3000  222.1010 O   0  0  0  0  0  0  0  0  0  0  0  0
  141.5420   75.6530  220.2410 N   0  0  0  0  0  0  0  0  0  0  0  0
  142.4430   76.7990  220.1370 C   0  0  0  0  0  0  0  0  0  0  0  0
  142.8960   76.8680  218.6890 C   0  0  0  0  0  0  0  0  0  0  0  0
  142.0080   75.8380  218.0290 C   0  0  0  0  0  0  0  0  0  0  0  0
  141.9300   74.7960  219.1160 C   0  0  1  0  0  0  0  0  0  0  0  0
  143.2780   74.2290  219.3390 C   0  0  0  0  0  0  0  0  0  0  0  0
  143.6510   74.0200  220.6600 C   0  0  0  0  0  0  0  0  0  0  0  0
  144.8770   73.4940  220.9970 C   0  0  0  0  0  0  0  0  0  0  0  0
  145.7990   73.1500  220.0240 C   0  0  0  0  0  0  0  0  0  0  0  0
  145.4250   73.3590  218.7110 C   0  0  0  0  0  0  0  0  0  0  0  0
  146.3250   73.0240  217.7000 O   0  0  0  0  0  0  0  0  0  0  0  0
  146.1850   73.4300  216.3580 C   0  0  0  0  0  0  0  0  0  0  0  0
  146.1630   74.8250  216.3540 F   0  0  0  0  0  0  0  0  0  0  0  0
  145.0440   73.0000  215.7490 F   0  0  0  0  0  0  0  0  0  0  0  0
  147.3460   73.0260  215.7140 F   0  0  0  0  0  0  0  0  0  0  0  0
  144.1760   73.8930  218.3780 C   0  0  0  0  0  0  0  0  0  0  0  0
  140.0370   71.2800  223.5710 C   0  0  0  0  0  0  0  0  0  0  0  0
  139.5780   69.9910  223.6370 C   0  0  0  0  0  0  0  0  0  0  0  0
  139.5840   69.3000  224.8510 C   0  0  0  0  0  0  0  0  0  0  0  0
  140.0640   69.9480  225.9790 C   0  0  0  0  0  0  0  0  0  0  0  0
  140.1050   69.3350  227.2230 C   0  0  0  0  0  0  0  0  0  0  0  0
  140.5910   70.0080  228.3420 C   0  0  0  0  0  0  0  0  0  0  0  0
  141.0450   71.3080  228.2330 C   0  0  0  0  0  0  0  0  0  0  0  0
  140.9920   71.8940  226.9760 C   0  0  0  0  0  0  0  0  0  0  0  0
  140.5130   71.2320  225.8780 C   0  0  0  0  0  0  0  0  0  0  0  0
  140.4950   71.8660  224.6990 N   0  0  0  0  0  0  0  0  0  0  0  0
  139.5490   73.8520  223.2570 H   0  0  0  0  0  0  0  0  0  0  0  0
  140.1237   73.5941  220.2735 H   0  0  0  0  0  0  0  0  0  0  0  0
  138.6827   74.5014  220.9147 H   0  0  0  0  0  0  0  0  0  0  0  0
  141.9143   77.7232  220.4133 H   0  0  0  0  0  0  0  0  0  0  0  0
  143.3019   76.6899  220.8155 H   0  0  0  0  0  0  0  0  0  0  0  0
  142.7285   77.8694  218.2657 H   0  0  0  0  0  0  0  0  0  0  0  0
  143.9708   76.6779  218.5523 H   0  0  0  0  0  0  0  0  0  0  0  0
  141.0164   76.2506  217.7916 H   0  0  0  0  0  0  0  0  0  0  0  0
  142.3825   75.4638  217.0648 H   0  0  0  0  0  0  0  0  0  0  0  0
  141.2620   73.9426  218.9276 H   0  0  0  0  0  0  0  0  0  0  0  0
  142.9450   74.2829  221.4615 H   0  0  0  0  0  0  0  0  0  0  0  0
  145.1284   73.3445  222.0574 H   0  0  0  0  0  0  0  0  0  0  0  0
  146.7821   72.7304  220.2838 H   0  0  0  0  0  0  0  0  0  0  0  0
  143.9169   74.0433  217.3196 H   0  0  0  0  0  0  0  0  0  0  0  0
  139.2025   69.4972  222.7286 H   0  0  0  0  0  0  0  0  0  0  0  0
  139.2162   68.2650  224.9108 H   0  0  0  0  0  0  0  0  0  0  0  0
  139.7477   68.2999  227.3276 H   0  0  0  0  0  0  0  0  0  0  0  0
  140.6133   69.5011  229.3180 H   0  0  0  0  0  0  0  0  0  0  0  0
  141.4320   71.8554  229.1051 H   0  0  0  0  0  0  0  0  0  0  0  0
  141.3479   72.9281  226.8579 H   0  0  0  0  0  0  0  0  0  0  0  0
  1  2  2  0
  2  3  1  0
  3  4  1  0
  4  5  1  0
  5  6  2  0
  5  7  1  0
  7  8  1  0
  8  9  1  0
  9 10  1  0
 10 11  1  0
 11 12  1  0
 12 13  2  0
 13 14  1  0
 14 15  2  0
 15 16  1  0
 16 17  1  0
 17 18  1  0
 18 19  1  0
 18 20  1  0
 18 21  1  0
 16 22  2  0
  2 23  1  0
 23 24  2  0
 24 25  1  0
 25 26  2  0
 26 27  1  0
 27 28  2  0
 28 29  1  0
 29 30  2  0
 30 31  1  0
 31 32  2  0
 11  7  1  0
 22 12  1  0
 32 23  1  0
 31 26  1  0
  3 33  1  0
  4 34  1  0
  4 35  1  0
  8 36  1  0
  8 37  1  0
  9 38  1  0
  9 39  1  0
 10 40  1  0
 10 41  1  0
 11 42  1  6
 13 43  1  0
 14 44  1  0
 15 45  1  0
 22 46  1  0
 24 47  1  0
 25 48  1  0
 27 49  1  0
 28 50  1  0
 29 51  1  0
 30 52  1  0
M  END
>  <smiles>  (71) 
O=C(NCC(=O)N1CCCC1c1cccc(OC(F)(F)F)c1)c1ccc2ccccc2n1

>  <score_type>  (71) 
oracle

>  <origin>  (71) 
autodockgpu

>  <m_score__min__energy>  (71) 
-8.7100000000000009

>  <m_primary>  (71) 
energy

>  <rmsd>  (71) 
2.206079774189295

>  <m_score__min__rmsd>  (71) 
2.206079774189295

>  <meeko>  (71) 
{"free_energy": -8.33, "intermolecular_energy": -10.42, "internal_energy": -1.76, "cluster_size": 5, "cluster_id": 3, "rank_in_cluster": 3}

>  <energy>  (71) 
-7.55

>  <cluster_rmsd>  (71) 
1.41

>  <cluster>  (71) 
1

$$$$

     RDKit          3D

 52 55  0  0  0  0  0  0  0  0999 V2000
  141.4060   73.0210  221.5260 O   0  0  0  0  0  0  0  0  0  0  0  0
  140.4180   73.0110  222.3120 C   0  0  0  0  0  0  0  0  0  0  0  0
  139.5090   74.1120  222.3600 N   0  0  0  0  0  0  0  0  0  0  0  0
  139.6710   75.2800  221.5230 C   0  0  0  0  0  0  0  0  0  0  0  0
  139.2480   76.5220  222.1950 C   0  0  0  0  0  0  0  0  0  0  0  0
  138.1880   76.6580  222.8460 O   0  0  0  0  0  0  0  0  0  0  0  0
  140.1030   77.6520  222.1000 N   0  0  0  0  0  0  0  0  0  0  0  0
  141.3570   77.8840  222.8140 C   0  0  0  0  0  0  0  0  0  0  0  0
  141.5710   79.3870  222.8410 C   0  0  0  0  0  0  0  0  0  0  0  0
  140.2580   79.9060  222.3030 C   0  0  0  0  0  0  0  0  0  0  0  0
  139.9400   78.8510  221.2720 C   0  0  1  0  0  0  0  0  0  0  0  0
  140.9690   78.8890  220.2100 C   0  0  0  0  0  0  0  0  0  0  0  0
  141.3020   80.1430  219.7170 C   0  0  0  0  0  0  0  0  0  0  0  0
  142.2470   80.3110  218.7300 C   0  0  0  0  0  0  0  0  0  0  0  0
  142.9100   79.2260  218.1840 C   0  0  0  0  0  0  0  0  0  0  0  0
  142.5750   77.9800  218.6760 C   0  0  0  0  0  0  0  0  0  0  0  0
  143.2210   76.8600  218.1520 O   0  0  0  0  0  0  0  0  0  0  0  0
  143.3340   75.6310  218.8300 C   0  0  0  0  0  0  0  0  0  0  0  0
  144.0960   74.7870  218.0220 F   0  0  0  0  0  0  0  0  0  0  0  0
  142.1500   75.0040  219.0750 F   0  0  0  0  0  0  0  0  0  0  0  0
  144.0730   75.8940  219.9760 F   0  0  0  0  0  0  0  0  0  0  0  0
  141.6140   77.8200  219.6800 C   0  0  0  0  0  0  0  0  0  0  0  0
  140.1840   71.8630  223.1960 C   0  0  0  0  0  0  0  0  0  0  0  0
  139.5160   70.7560  222.7410 C   0  0  0  0  0  0  0  0  0  0  0  0
  139.2980   69.6660  223.5860 C   0  0  0  0  0  0  0  0  0  0  0  0
  139.7700   69.7330  224.8880 C   0  0  0  0  0  0  0  0  0  0  0  0
  139.5950   68.6950  225.7930 C   0  0  0  0  0  0  0  0  0  0  0  0
  140.0790   68.7860  227.0960 C   0  0  0  0  0  0  0  0  0  0  0  0
  140.7470   69.9210  227.5150 C   0  0  0  0  0  0  0  0  0  0  0  0
  140.9070   70.9400  226.5890 C   0  0  0  0  0  0  0  0  0  0  0  0
  140.4300   70.8500  225.3080 C   0  0  0  0  0  0  0  0  0  0  0  0
  140.6250   71.8780  224.4720 N   0  0  0  0  0  0  0  0  0  0  0  0
  138.7000   74.0370  223.0460 H   0  0  0  0  0  0  0  0  0  0  0  0
  140.7321   75.3720  221.2481 H   0  0  0  0  0  0  0  0  0  0  0  0
  139.0326   75.1463  220.6373 H   0  0  0  0  0  0  0  0  0  0  0  0
  141.2876   77.4923  223.8395 H   0  0  0  0  0  0  0  0  0  0  0  0
  142.1955   77.3734  222.3179 H   0  0  0  0  0  0  0  0  0  0  0  0
  141.7522   79.7457  223.8650 H   0  0  0  0  0  0  0  0  0  0  0  0
  142.4467   79.7188  222.2639 H   0  0  0  0  0  0  0  0  0  0  0  0
  139.4882   79.9509  223.0874 H   0  0  0  0  0  0  0  0  0  0  0  0
  140.3005   80.9317  221.9078 H   0  0  0  0  0  0  0  0  0  0  0  0
  138.9676   78.9398  220.7655 H   0  0  0  0  0  0  0  0  0  0  0  0
  140.7957   81.0292  220.1272 H   0  0  0  0  0  0  0  0  0  0  0  0
  142.4788   81.3241  218.3696 H   0  0  0  0  0  0  0  0  0  0  0  0
  143.6674   79.3501  217.3960 H   0  0  0  0  0  0  0  0  0  0  0  0
  141.3774   76.8100  220.0458 H   0  0  0  0  0  0  0  0  0  0  0  0
  139.1496   70.7261  221.7043 H   0  0  0  0  0  0  0  0  0  0  0  0
  138.7637   68.7741  223.2268 H   0  0  0  0  0  0  0  0  0  0  0  0
  139.0649   67.7849  225.4757 H   0  0  0  0  0  0  0  0  0  0  0  0
  139.9287   67.9501  227.7951 H   0  0  0  0  0  0  0  0  0  0  0  0
  141.1353   70.0119  228.5401 H   0  0  0  0  0  0  0  0  0  0  0  0
  141.4365   71.8546  226.8940 H   0  0  0  0  0  0  0  0  0  0  0  0
  1  2  2  0
  2  3  1  0
  3  4  1  0
  4  5  1  0
  5  6  2  0
  5  7  1  0
  7  8  1  0
  8  9  1  0
  9 10  1  0
 10 11  1  0
 11 12  1  0
 12 13  2  0
 13 14  1  0
 14 15  2  0
 15 16  1  0
 16 17  1  0
 17 18  1  0
 18 19  1  0
 18 20  1  0
 18 21  1  0
 16 22  2  0
  2 23  1  0
 23 24  2  0
 24 25  1  0
 25 26  2  0
 26 27  1  0
 27 28  2  0
 28 29  1  0
 29 30  2  0
 30 31  1  0
 31 32  2  0
 11  7  1  0
 22 12  1  0
 32 23  1  0
 31 26  1  0
  3 33  1  0
  4 34  1  0
  4 35  1  0
  8 36  1  0
  8 37  1  0
  9 38  1  0
  9 39  1  0
 10 40  1  0
 10 41  1  0
 11 42  1  6
 13 43  1  0
 14 44  1  0
 15 45  1  0
 22 46  1  0
 24 47  1  0
 25 48  1  0
 27 49  1  0
 28 50  1  0
 29 51  1  0
 30 52  1  0
M  END
>  <smiles>  (72) 
O=C(NCC(=O)N1CCCC1c1cccc(OC(F)(F)F)c1)c1ccc2ccccc2n1

>  <score_type>  (72) 
oracle

>  <origin>  (72) 
autodockgpu

>  <m_score__min__energy>  (72) 
-8.7100000000000009

>  <m_primary>  (72) 
energy

>  <rmsd>  (72) 
3.38115842204343

>  <m_score__min__rmsd>  (72) 
3.38115842204343

>  <meeko>  (72) 
{"free_energy": -7.63, "intermolecular_energy": -9.71, "internal_energy": -1.59, "cluster_size": 1, "cluster_id": 6, "rank_in_cluster": 1}

>  <energy>  (72) 
-8.62

>  <cluster_rmsd>  (72) 
0.0

>  <cluster>  (72) 
2

$$$$

     RDKit          3D

 52 55  0  0  0  0  0  0  0  0999 V2000
  140.5140   73.0460  222.4360 O   0  0  0  0  0  0  0  0  0  0  0  0
  139.4940   72.3880  222.7840 C   0  0  0  0  0  0  0  0  0  0  0  0
  138.2130   72.6670  222.2180 N   0  0  0  0  0  0  0  0  0  0  0  0
  138.0200   73.7040  221.2280 C   0  0  0  0  0  0  0  0  0  0  0  0
  137.7820   75.0260  221.8340 C   0  0  0  0  0  0  0  0  0  0  0  0
  138.6250   75.9500  221.8910 O   0  0  0  0  0  0  0  0  0  0  0  0
  136.5040   75.2770  222.4000 N   0  0  0  0  0  0  0  0  0  0  0  0
  135.2040   75.2000  221.7360 C   0  0  0  0  0  0  0  0  0  0  0  0
  134.2570   76.0860  222.5270 C   0  0  0  0  0  0  0  0  0  0  0  0
  135.1970   76.7800  223.4850 C   0  0  0  0  0  0  0  0  0  0  0  0
  136.1750   75.6690  223.7740 C   0  0  1  0  0  0  0  0  0  0  0  0
  135.4680   74.5720  224.4700 C   0  0  0  0  0  0  0  0  0  0  0  0
  135.7080   73.2880  224.0030 C   0  0  0  0  0  0  0  0  0  0  0  0
  135.1140   72.1820  224.5700 C   0  0  0  0  0  0  0  0  0  0  0  0
  134.2430   72.3090  225.6380 C   0  0  0  0  0  0  0  0  0  0  0  0
  134.0050   73.5890  226.0990 C   0  0  0  0  0  0  0  0  0  0  0  0
  133.1340   73.7600  227.1740 O   0  0  0  0  0  0  0  0  0  0  0  0
  131.8370   74.2960  227.0560 C   0  0  0  0  0  0  0  0  0  0  0  0
  130.9490   73.3250  227.5210 F   0  0  0  0  0  0  0  0  0  0  0  0
  131.4660   74.6140  225.7850 F   0  0  0  0  0  0  0  0  0  0  0  0
  131.7850   75.3680  227.9360 F   0  0  0  0  0  0  0  0  0  0  0  0
  134.6160   74.7050  225.5170 C   0  0  0  0  0  0  0  0  0  0  0  0
  139.6070   71.3180  223.7840 C   0  0  0  0  0  0  0  0  0  0  0  0
  139.1210   70.0640  223.5230 C   0  0  0  0  0  0  0  0  0  0  0  0
  139.2330   69.0500  224.4780 C   0  0  0  0  0  0  0  0  0  0  0  0
  139.8430   69.3450  225.6870 C   0  0  0  0  0  0  0  0  0  0  0  0
  139.9940   68.3980  226.6900 C   0  0  0  0  0  0  0  0  0  0  0  0
  140.6100   68.7190  227.8970 C   0  0  0  0  0  0  0  0  0  0  0  0
  141.0870   69.9960  228.1210 C   0  0  0  0  0  0  0  0  0  0  0  0
  140.9220   70.9210  227.1000 C   0  0  0  0  0  0  0  0  0  0  0  0
  140.3150   70.6050  225.9140 C   0  0  0  0  0  0  0  0  0  0  0  0
  140.1940   71.5540  224.9780 N   0  0  0  0  0  0  0  0  0  0  0  0
  137.3990   72.0740  222.5570 H   0  0  0  0  0  0  0  0  0  0  0  0
  138.9197   73.7617  220.5977 H   0  0  0  0  0  0  0  0  0  0  0  0
  137.1292   73.4415  220.6385 H   0  0  0  0  0  0  0  0  0  0  0  0
  135.2853   75.5615  220.7003 H   0  0  0  0  0  0  0  0  0  0  0  0
  134.8387   74.1630  221.7001 H   0  0  0  0  0  0  0  0  0  0  0  0
  133.7476   76.8094  221.8733 H   0  0  0  0  0  0  0  0  0  0  0  0
  133.4467   75.5334  223.0250 H   0  0  0  0  0  0  0  0  0  0  0  0
  135.6914   77.6424  223.0140 H   0  0  0  0  0  0  0  0  0  0  0  0
  134.7098   77.2019  224.3765 H   0  0  0  0  0  0  0  0  0  0  0  0
  137.0383   75.9296  224.4039 H   0  0  0  0  0  0  0  0  0  0  0  0
  136.3935   73.1488  223.1541 H   0  0  0  0  0  0  0  0  0  0  0  0
  135.3354   71.1824  224.1677 H   0  0  0  0  0  0  0  0  0  0  0  0
  133.7632   71.4324  226.0977 H   0  0  0  0  0  0  0  0  0  0  0  0
  134.4017   75.7077  225.9154 H   0  0  0  0  0  0  0  0  0  0  0  0
  138.6399   69.8541  222.5563 H   0  0  0  0  0  0  0  0  0  0  0  0
  138.8458   68.0406  224.2748 H   0  0  0  0  0  0  0  0  0  0  0  0
  139.6206   67.3759  226.5289 H   0  0  0  0  0  0  0  0  0  0  0  0
  140.7174   67.9508  228.6770 H   0  0  0  0  0  0  0  0  0  0  0  0
  141.5765   70.2678  229.0679 H   0  0  0  0  0  0  0  0  0  0  0  0
  141.2925   71.9460  227.2489 H   0  0  0  0  0  0  0  0  0  0  0  0
  1  2  2  0
  2  3  1  0
  3  4  1  0
  4  5  1  0
  5  6  2  0
  5  7  1  0
  7  8  1  0
  8  9  1  0
  9 10  1  0
 10 11  1  0
 11 12  1  0
 12 13  2  0
 13 14  1  0
 14 15  2  0
 15 16  1  0
 16 17  1  0
 17 18  1  0
 18 19  1  0
 18 20  1  0
 18 21  1  0
 16 22  2  0
  2 23  1  0
 23 24  2  0
 24 25  1  0
 25 26  2  0
 26 27  1  0
 27 28  2  0
 28 29  1  0
 29 30  2  0
 30 31  1  0
 31 32  2  0
 11  7  1  0
 22 12  1  0
 32 23  1  0
 31 26  1  0
  3 33  1  0
  4 34  1  0
  4 35  1  0
  8 36  1  0
  8 37  1  0
  9 38  1  0
  9 39  1  0
 10 40  1  0
 10 41  1  0
 11 42  1  1
 13 43  1  0
 14 44  1  0
 15 45  1  0
 22 46  1  0
 24 47  1  0
 25 48  1  0
 27 49  1  0
 28 50  1  0
 29 51  1  0
 30 52  1  0
M  END
>  <smiles>  (73) 
O=C(NCC(=O)N1CCCC1c1cccc(OC(F)(F)F)c1)c1ccc2ccccc2n1

>  <score_type>  (73) 
oracle

>  <origin>  (73) 
autodockgpu

>  <m_score__min__energy>  (73) 
-8.7100000000000009

>  <m_primary>  (73) 
energy

>  <rmsd>  (73) 
3.9556872358474133

>  <m_score__min__rmsd>  (73) 
3.9556872358474133

>  <meeko>  (73) 
{"free_energy": -7.36, "intermolecular_energy": -9.45, "internal_energy": -1.7, "cluster_size": 3, "cluster_id": 10, "rank_in_cluster": 1}

>  <energy>  (73) 
-8.33

>  <cluster_rmsd>  (73) 
0.9

>  <cluster>  (73) 
2

$$$$

     RDKit          3D

 52 55  0  0  0  0  0  0  0  0999 V2000
  138.9940   70.2200  221.5210 O   0  0  0  0  0  0  0  0  0  0  0  0
  139.0710   70.9100  222.5760 C   0  0  0  0  0  0  0  0  0  0  0  0
  138.8500   72.3210  222.5460 N   0  0  0  0  0  0  0  0  0  0  0  0
  138.5300   73.0230  221.3230 C   0  0  0  0  0  0  0  0  0  0  0  0
  138.2370   74.4500  221.5500 C   0  0  0  0  0  0  0  0  0  0  0  0
  137.1830   74.8920  222.0580 O   0  0  0  0  0  0  0  0  0  0  0  0
  139.2220   75.3990  221.1650 N   0  0  0  0  0  0  0  0  0  0  0  0
  139.3190   76.1190  219.8970 C   0  0  0  0  0  0  0  0  0  0  0  0
  140.7730   76.5260  219.7370 C   0  0  0  0  0  0  0  0  0  0  0  0
  141.4380   75.7850  220.8740 C   0  0  0  0  0  0  0  0  0  0  0  0
  140.3710   75.8850  221.9360 C   0  0  1  0  0  0  0  0  0  0  0  0
  140.1840   77.3050  222.3020 C   0  0  0  0  0  0  0  0  0  0  0  0
  138.9060   77.6810  222.6920 C   0  0  0  0  0  0  0  0  0  0  0  0
  138.6050   78.9730  223.0600 C   0  0  0  0  0  0  0  0  0  0  0  0
  139.5760   79.9600  223.0560 C   0  0  0  0  0  0  0  0  0  0  0  0
  140.8450   79.5830  222.6670 C   0  0  0  0  0  0  0  0  0  0  0  0
  141.8520   80.5490  222.6500 O   0  0  0  0  0  0  0  0  0  0  0  0
  142.8510   80.6590  223.6370 C   0  0  0  0  0  0  0  0  0  0  0  0
  142.6940   81.9080  224.2390 F   0  0  0  0  0  0  0  0  0  0  0  0
  144.1270   80.5900  223.1660 F   0  0  0  0  0  0  0  0  0  0  0  0
  142.5550   79.6940  224.5890 F   0  0  0  0  0  0  0  0  0  0  0  0
  141.1410   78.2670  222.2960 C   0  0  0  0  0  0  0  0  0  0  0  0
  139.3910   70.2720  223.8590 C   0  0  0  0  0  0  0  0  0  0  0  0
  139.1690   68.9330  224.0470 C   0  0  0  0  0  0  0  0  0  0  0  0
  139.4770   68.3310  225.2700 C   0  0  0  0  0  0  0  0  0  0  0  0
  140.0080   69.1190  226.2800 C   0  0  0  0  0  0  0  0  0  0  0  0
  140.3400   68.6020  227.5240 C   0  0  0  0  0  0  0  0  0  0  0  0
  140.8720   69.4130  228.5230 C   0  0  0  0  0  0  0  0  0  0  0  0
  141.0810   70.7600  228.2920 C   0  0  0  0  0  0  0  0  0  0  0  0
  140.7390   71.2470  227.0390 C   0  0  0  0  0  0  0  0  0  0  0  0
  140.2160   70.4490  226.0590 C   0  0  0  0  0  0  0  0  0  0  0  0
  139.9110   70.9950  224.8740 N   0  0  0  0  0  0  0  0  0  0  0  0
  138.9300   72.8390  223.4710 H   0  0  0  0  0  0  0  0  0  0  0  0
  139.3859   72.9437  220.6367 H   0  0  0  0  0  0  0  0  0  0  0  0
  137.6267   72.5601  220.8990 H   0  0  0  0  0  0  0  0  0  0  0  0
  139.0144   75.4660  219.0659 H   0  0  0  0  0  0  0  0  0  0  0  0
  138.6586   76.9987  219.8898 H   0  0  0  0  0  0  0  0  0  0  0  0
  141.1724   76.2048  218.7637 H   0  0  0  0  0  0  0  0  0  0  0  0
  140.9330   77.6139  219.7651 H   0  0  0  0  0  0  0  0  0  0  0  0
  141.6479   74.7385  220.6078 H   0  0  0  0  0  0  0  0  0  0  0  0
  142.4170   76.1891  221.1713 H   0  0  0  0  0  0  0  0  0  0  0  0
  140.5649   75.3465  222.8754 H   0  0  0  0  0  0  0  0  0  0  0  0
  138.1090   76.9231  222.7075 H   0  0  0  0  0  0  0  0  0  0  0  0
  137.5776   79.2250  223.3617 H   0  0  0  0  0  0  0  0  0  0  0  0
  139.3467   80.9952  223.3489 H   0  0  0  0  0  0  0  0  0  0  0  0
  142.1666   78.0078  221.9944 H   0  0  0  0  0  0  0  0  0  0  0  0
  138.7461   68.3287  223.2309 H   0  0  0  0  0  0  0  0  0  0  0  0
  139.3022   67.2565  225.4279 H   0  0  0  0  0  0  0  0  0  0  0  0
  140.1801   67.5323  227.7246 H   0  0  0  0  0  0  0  0  0  0  0  0
  141.1274   68.9797  229.5013 H   0  0  0  0  0  0  0  0  0  0  0  0
  141.5003   71.4170  229.0682 H   0  0  0  0  0  0  0  0  0  0  0  0
  140.8942   72.3149  226.8256 H   0  0  0  0  0  0  0  0  0  0  0  0
  1  2  2  0
  2  3  1  0
  3  4  1  0
  4  5  1  0
  5  6  2  0
  5  7  1  0
  7  8  1  0
  8  9  1  0
  9 10  1  0
 10 11  1  0
 11 12  1  0
 12 13  2  0
 13 14  1  0
 14 15  2  0
 15 16  1  0
 16 17  1  0
 17 18  1  0
 18 19  1  0
 18 20  1  0
 18 21  1  0
 16 22  2  0
  2 23  1  0
 23 24  2  0
 24 25  1  0
 25 26  2  0
 26 27  1  0
 27 28  2  0
 28 29  1  0
 29 30  2  0
 30 31  1  0
 31 32  2  0
 11  7  1  0
 22 12  1  0
 32 23  1  0
 31 26  1  0
  3 33  1  0
  4 34  1  0
  4 35  1  0
  8 36  1  0
  8 37  1  0
  9 38  1  0
  9 39  1  0
 10 40  1  0
 10 41  1  0
 11 42  1  1
 13 43  1  0
 14 44  1  0
 15 45  1  0
 22 46  1  0
 24 47  1  0
 25 48  1  0
 27 49  1  0
 28 50  1  0
 29 51  1  0
 30 52  1  0
M  END
>  <smiles>  (74) 
O=C(NCC(=O)N1CCCC1c1cccc(OC(F)(F)F)c1)c1ccc2ccccc2n1

>  <score_type>  (74) 
oracle

>  <origin>  (74) 
autodockgpu

>  <m_score__min__energy>  (74) 
-8.7100000000000009

>  <m_primary>  (74) 
energy

>  <rmsd>  (74) 
1.7326014281763797

>  <m_score__min__rmsd>  (74) 
1.7326014281763797

>  <meeko>  (74) 
{"free_energy": -7.75, "intermolecular_energy": -9.84, "internal_energy": -1.61, "cluster_size": 10, "cluster_id": 4, "rank_in_cluster": 7}

>  <energy>  (74) 
-7.31

>  <cluster_rmsd>  (74) 
1.19

>  <cluster>  (74) 
2

$$$$

     RDKit          3D

 52 55  0  0  0  0  0  0  0  0999 V2000
  140.0810   73.5290  222.4030 O   0  0  0  0  0  0  0  0  0  0  0  0
  140.4440   72.3190  222.4320 C   0  0  0  0  0  0  0  0  0  0  0  0
  141.0730   71.7160  221.3000 N   0  0  0  0  0  0  0  0  0  0  0  0
  141.3230   72.4490  220.0780 C   0  0  0  0  0  0  0  0  0  0  0  0
  142.2250   73.5970  220.2820 C   0  0  0  0  0  0  0  0  0  0  0  0
  143.3460   73.5370  220.8340 O   0  0  0  0  0  0  0  0  0  0  0  0
  141.7940   74.8690  219.8200 N   0  0  0  0  0  0  0  0  0  0  0  0
  140.6500   75.1650  218.9610 C   0  0  0  0  0  0  0  0  0  0  0  0
  140.9390   76.4980  218.2930 C   0  0  0  0  0  0  0  0  0  0  0  0
  142.3760   76.7460  218.6880 C   0  0  0  0  0  0  0  0  0  0  0  0
  142.3840   76.1840  220.0870 C   0  0  1  0  0  0  0  0  0  0  0  0
  141.4830   76.9920  220.9370 C   0  0  0  0  0  0  0  0  0  0  0  0
  141.7730   78.3460  221.0330 C   0  0  0  0  0  0  0  0  0  0  0  0
  141.0060   79.2040  221.7890 C   0  0  0  0  0  0  0  0  0  0  0  0
  139.9060   78.7460  222.4930 C   0  0  0  0  0  0  0  0  0  0  0  0
  139.6210   77.3990  222.3960 C   0  0  0  0  0  0  0  0  0  0  0  0
  138.5200   76.8980  223.0900 O   0  0  0  0  0  0  0  0  0  0  0  0
  137.4470   76.2210  222.4770 C   0  0  0  0  0  0  0  0  0  0  0  0
  137.8940   74.9330  222.1790 F   0  0  0  0  0  0  0  0  0  0  0  0
  137.0100   76.7810  221.3150 F   0  0  0  0  0  0  0  0  0  0  0  0
  136.4620   76.1090  223.4470 F   0  0  0  0  0  0  0  0  0  0  0  0
  140.4050   76.5350  221.6240 C   0  0  0  0  0  0  0  0  0  0  0  0
  140.2250   71.5080  223.6350 C   0  0  0  0  0  0  0  0  0  0  0  0
  139.5370   70.3240  223.5640 C   0  0  0  0  0  0  0  0  0  0  0  0
  139.3330   69.5560  224.7130 C   0  0  0  0  0  0  0  0  0  0  0  0
  139.8410   70.0190  225.9170 C   0  0  0  0  0  0  0  0  0  0  0  0
  139.6820   69.3190  227.1050 C   0  0  0  0  0  0  0  0  0  0  0  0
  140.2010   69.8050  228.3020 C   0  0  0  0  0  0  0  0  0  0  0  0
  140.8890   71.0020  228.3310 C   0  0  0  0  0  0  0  0  0  0  0  0
  141.0320   71.6790  227.1290 C   0  0  0  0  0  0  0  0  0  0  0  0
  140.5200   71.2010  225.9520 C   0  0  0  0  0  0  0  0  0  0  0  0
  140.7000   71.9140  224.8330 N   0  0  0  0  0  0  0  0  0  0  0  0
  141.3520   70.6950  221.3940 H   0  0  0  0  0  0  0  0  0  0  0  0
  141.7797   71.7675  219.3452 H   0  0  0  0  0  0  0  0  0  0  0  0
  140.3593   72.8409  219.7206 H   0  0  0  0  0  0  0  0  0  0  0  0
  140.5325   74.3780  218.2015 H   0  0  0  0  0  0  0  0  0  0  0  0
  139.7182   75.2084  219.5440 H   0  0  0  0  0  0  0  0  0  0  0  0
  140.8317   76.4285  217.2005 H   0  0  0  0  0  0  0  0  0  0  0  0
  140.2521   77.3023  218.5953 H   0  0  0  0  0  0  0  0  0  0  0  0
  143.0753   76.2077  218.0313 H   0  0  0  0  0  0  0  0  0  0  0  0
  142.6936   77.7968  218.6169 H   0  0  0  0  0  0  0  0  0  0  0  0
  143.3572   76.1629  220.5993 H   0  0  0  0  0  0  0  0  0  0  0  0
  142.6415   78.7455  220.4889 H   0  0  0  0  0  0  0  0  0  0  0  0
  141.2718   80.2705  221.8341 H   0  0  0  0  0  0  0  0  0  0  0  0
  139.2882   79.4233  223.1010 H   0  0  0  0  0  0  0  0  0  0  0  0
  140.1436   75.4677  221.5728 H   0  0  0  0  0  0  0  0  0  0  0  0
  139.1436   69.9770  222.5971 H   0  0  0  0  0  0  0  0  0  0  0  0
  138.7817   68.6054  224.6635 H   0  0  0  0  0  0  0  0  0  0  0  0
  139.1365   68.3638  227.1007 H   0  0  0  0  0  0  0  0  0  0  0  0
  140.0621   69.2319  229.2306 H   0  0  0  0  0  0  0  0  0  0  0  0
  141.3058   71.4014  229.2673 H   0  0  0  0  0  0  0  0  0  0  0  0
  141.5765   72.6348  227.1206 H   0  0  0  0  0  0  0  0  0  0  0  0
  1  2  2  0
  2  3  1  0
  3  4  1  0
  4  5  1  0
  5  6  2  0
  5  7  1  0
  7  8  1  0
  8  9  1  0
  9 10  1  0
 10 11  1  0
 11 12  1  0
 12 13  2  0
 13 14  1  0
 14 15  2  0
 15 16  1  0
 16 17  1  0
 17 18  1  0
 18 19  1  0
 18 20  1  0
 18 21  1  0
 16 22  2  0
  2 23  1  0
 23 24  2  0
 24 25  1  0
 25 26  2  0
 26 27  1  0
 27 28  2  0
 28 29  1  0
 29 30  2  0
 30 31  1  0
 31 32  2  0
 11  7  1  0
 22 12  1  0
 32 23  1  0
 31 26  1  0
  3 33  1  0
  4 34  1  0
  4 35  1  0
  8 36  1  0
  8 37  1  0
  9 38  1  0
  9 39  1  0
 10 40  1  0
 10 41  1  0
 11 42  1  1
 13 43  1  0
 14 44  1  0
 15 45  1  0
 22 46  1  0
 24 47  1  0
 25 48  1  0
 27 49  1  0
 28 50  1  0
 29 51  1  0
 30 52  1  0
M  END
>  <smiles>  (75) 
O=C(NCC(=O)N1CCCC1c1cccc(OC(F)(F)F)c1)c1ccc2ccccc2n1

>  <score_type>  (75) 
oracle

>  <origin>  (75) 
autodockgpu

>  <m_score__min__energy>  (75) 
-8.7100000000000009

>  <m_primary>  (75) 
energy

>  <rmsd>  (75) 
2.036398549081242

>  <m_score__min__rmsd>  (75) 
2.036398549081242

>  <meeko>  (75) 
{"free_energy": -7.42, "intermolecular_energy": -9.51, "internal_energy": -1.67, "cluster_size": 1, "cluster_id": 9, "rank_in_cluster": 1}

>  <energy>  (75) 
-8.56

>  <cluster_rmsd>  (75) 
0.0

>  <cluster>  (75) 
3

$$$$

     RDKit          3D

 52 55  0  0  0  0  0  0  0  0999 V2000
  140.1330   71.3540  221.2030 O   0  0  0  0  0  0  0  0  0  0  0  0
  139.9590   71.9780  222.2870 C   0  0  0  0  0  0  0  0  0  0  0  0
  139.7150   73.3850  222.2910 N   0  0  0  0  0  0  0  0  0  0  0  0
  139.6560   74.1590  221.0710 C   0  0  0  0  0  0  0  0  0  0  0  0
  140.4150   75.4190  221.1620 C   0  0  0  0  0  0  0  0  0  0  0  0
  140.2060   76.3220  222.0040 O   0  0  0  0  0  0  0  0  0  0  0  0
  141.4640   75.6310  220.2280 N   0  0  0  0  0  0  0  0  0  0  0  0
  142.3880   76.7610  220.1660 C   0  0  0  0  0  0  0  0  0  0  0  0
  142.8900   76.8360  218.7350 C   0  0  0  0  0  0  0  0  0  0  0  0
  142.0060   75.8300  218.0350 C   0  0  0  0  0  0  0  0  0  0  0  0
  141.8730   74.7790  219.1080 C   0  0  1  0  0  0  0  0  0  0  0  0
  143.2020   74.1840  219.3690 C   0  0  0  0  0  0  0  0  0  0  0  0
  143.5010   73.8960  220.6930 C   0  0  0  0  0  0  0  0  0  0  0  0
  144.7030   73.3370  221.0650 C   0  0  0  0  0  0  0  0  0  0  0  0
  145.6720   73.0380  220.1230 C   0  0  0  0  0  0  0  0  0  0  0  0
  145.3710   73.3250  218.8070 C   0  0  0  0  0  0  0  0  0  0  0  0
  146.3210   73.0380  217.8270 O   0  0  0  0  0  0  0  0  0  0  0  0
  146.2100   73.4430  216.4830 C   0  0  0  0  0  0  0  0  0  0  0  0
  147.4450   73.2030  215.8800 F   0  0  0  0  0  0  0  0  0  0  0  0
  145.9200   74.7630  216.3080 F   0  0  0  0  0  0  0  0  0  0  0  0
  145.2850   72.5880  215.9020 F   0  0  0  0  0  0  0  0  0  0  0  0
  144.1460   73.8920  218.4390 C   0  0  0  0  0  0  0  0  0  0  0  0
  140.0040   71.2650  223.5690 C   0  0  0  0  0  0  0  0  0  0  0  0
  139.5750   69.9670  223.6620 C   0  0  0  0  0  0  0  0  0  0  0  0
  139.6210   69.2930  224.8850 C   0  0  0  0  0  0  0  0  0  0  0  0
  140.1090   69.9670  225.9930 C   0  0  0  0  0  0  0  0  0  0  0  0
  140.1900   69.3730  227.2450 C   0  0  0  0  0  0  0  0  0  0  0  0
  140.6830   70.0720  228.3440 C   0  0  0  0  0  0  0  0  0  0  0  0
  141.1070   71.3800  228.2080 C   0  0  0  0  0  0  0  0  0  0  0  0
  141.0150   71.9470  226.9450 C   0  0  0  0  0  0  0  0  0  0  0  0
  140.5290   71.2590  225.8660 C   0  0  0  0  0  0  0  0  0  0  0  0
  140.4720   71.8770  224.6790 N   0  0  0  0  0  0  0  0  0  0  0  0
  139.5780   73.8460  223.2390 H   0  0  0  0  0  0  0  0  0  0  0  0
  140.0718   73.5557  220.2506 H   0  0  0  0  0  0  0  0  0  0  0  0
  138.6020   74.4172  220.8909 H   0  0  0  0  0  0  0  0  0  0  0  0
  141.8670   77.6919  220.4343 H   0  0  0  0  0  0  0  0  0  0  0  0
  143.2217   76.6296  220.8714 H   0  0  0  0  0  0  0  0  0  0  0  0
  142.7553   77.8446  218.3172 H   0  0  0  0  0  0  0  0  0  0  0  0
  143.9651   76.6270  218.6321 H   0  0  0  0  0  0  0  0  0  0  0  0
  141.0305   76.2635  217.7693 H   0  0  0  0  0  0  0  0  0  0  0  0
  142.4052   75.4587  217.0796 H   0  0  0  0  0  0  0  0  0  0  0  0
  141.1958   73.9403  218.8887 H   0  0  0  0  0  0  0  0  0  0  0  0
  142.7548   74.1212  221.4692 H   0  0  0  0  0  0  0  0  0  0  0  0
  144.8961   73.1248  222.1269 H   0  0  0  0  0  0  0  0  0  0  0  0
  146.6362   72.5928  220.4096 H   0  0  0  0  0  0  0  0  0  0  0  0
  143.9449   74.1045  217.3786 H   0  0  0  0  0  0  0  0  0  0  0  0
  139.1920   69.4525  222.7683 H   0  0  0  0  0  0  0  0  0  0  0  0
  139.2777   68.2511  224.9664 H   0  0  0  0  0  0  0  0  0  0  0  0
  139.8589   68.3316  227.3713 H   0  0  0  0  0  0  0  0  0  0  0  0
  140.7352   69.5798  229.3263 H   0  0  0  0  0  0  0  0  0  0  0  0
  141.5006   71.9474  229.0642 H   0  0  0  0  0  0  0  0  0  0  0  0
  141.3446   72.9872  226.8057 H   0  0  0  0  0  0  0  0  0  0  0  0
  1  2  2  0
  2  3  1  0
  3  4  1  0
  4  5  1  0
  5  6  2  0
  5  7  1  0
  7  8  1  0
  8  9  1  0
  9 10  1  0
 10 11  1  0
 11 12  1  0
 12 13  2  0
 13 14  1  0
 14 15  2  0
 15 16  1  0
 16 17  1  0
 17 18  1  0
 18 19  1  0
 18 20  1  0
 18 21  1  0
 16 22  2  0
  2 23  1  0
 23 24  2  0
 24 25  1  0
 25 26  2  0
 26 27  1  0
 27 28  2  0
 28 29  1  0
 29 30  2  0
 30 31  1  0
 31 32  2  0
 11  7  1  0
 22 12  1  0
 32 23  1  0
 31 26  1  0
  3 33  1  0
  4 34  1  0
  4 35  1  0
  8 36  1  0
  8 37  1  0
  9 38  1  0
  9 39  1  0
 10 40  1  0
 10 41  1  0
 11 42  1  6
 13 43  1  0
 14 44  1  0
 15 45  1  0
 22 46  1  0
 24 47  1  0
 25 48  1  0
 27 49  1  0
 28 50  1  0
 29 51  1  0
 30 52  1  0
M  END
>  <smiles>  (76) 
O=C(NCC(=O)N1CCCC1c1cccc(OC(F)(F)F)c1)c1ccc2ccccc2n1

>  <score_type>  (76) 
oracle

>  <origin>  (76) 
autodockgpu

>  <m_score__min__energy>  (76) 
-8.7100000000000009

>  <m_primary>  (76) 
energy

>  <rmsd>  (76) 
2.1924052664355758

>  <m_score__min__rmsd>  (76) 
2.1924052664355758

>  <meeko>  (76) 
{"free_energy": -8.25, "intermolecular_energy": -10.33, "internal_energy": -1.81, "cluster_size": 5, "cluster_id": 3, "rank_in_cluster": 4}

>  <energy>  (76) 
-8.55

>  <cluster_rmsd>  (76) 
0.25

>  <cluster>  (76) 
3

$$$$

     RDKit          3D

 52 55  0  0  0  0  0  0  0  0999 V2000
  140.2680   71.7080  221.0890 O   0  0  0  0  0  0  0  0  0  0  0  0
  139.9930   72.2030  222.2180 C   0  0  0  0  0  0  0  0  0  0  0  0
  139.6620   73.5860  222.3500 N   0  0  0  0  0  0  0  0  0  0  0  0
  139.6230   74.4800  221.2140 C   0  0  0  0  0  0  0  0  0  0  0  0
  139.2050   75.8450  221.5820 C   0  0  0  0  0  0  0  0  0  0  0  0
  138.1900   76.1240  222.2580 O   0  0  0  0  0  0  0  0  0  0  0  0
  140.0090   76.9280  221.1360 N   0  0  0  0  0  0  0  0  0  0  0  0
  139.6780   77.9250  220.1210 C   0  0  0  0  0  0  0  0  0  0  0  0
  140.9970   78.4660  219.5960 C   0  0  0  0  0  0  0  0  0  0  0  0
  142.0000   77.5360  220.2380 C   0  0  0  0  0  0  0  0  0  0  0  0
  141.3530   77.3080  221.5810 C   0  0  1  0  0  0  0  0  0  0  0  0
  141.3100   78.5890  222.3200 C   0  0  0  0  0  0  0  0  0  0  0  0
  142.4970   79.3050  222.3860 C   0  0  0  0  0  0  0  0  0  0  0  0
  142.5860   80.5120  223.0410 C   0  0  0  0  0  0  0  0  0  0  0  0
  141.4830   81.0670  223.6680 C   0  0  0  0  0  0  0  0  0  0  0  0
  140.3040   80.3520  223.6010 C   0  0  0  0  0  0  0  0  0  0  0  0
  139.1690   80.8760  224.2190 O   0  0  0  0  0  0  0  0  0  0  0  0
  137.8620   80.7280  223.7170 C   0  0  0  0  0  0  0  0  0  0  0  0
  136.9970   81.2990  224.6510 F   0  0  0  0  0  0  0  0  0  0  0  0
  137.4670   79.4380  223.5280 F   0  0  0  0  0  0  0  0  0  0  0  0
  137.8060   81.5020  222.5660 F   0  0  0  0  0  0  0  0  0  0  0  0
  140.2240   79.1260  222.9310 C   0  0  0  0  0  0  0  0  0  0  0  0
  140.0110   71.3620  223.4210 C   0  0  0  0  0  0  0  0  0  0  0  0
  139.5570   70.0700  223.3770 C   0  0  0  0  0  0  0  0  0  0  0  0
  139.5770   69.2740  224.5250 C   0  0  0  0  0  0  0  0  0  0  0  0
  140.0640   69.8230  225.7010 C   0  0  0  0  0  0  0  0  0  0  0  0
  140.1180   69.1030  226.8860 C   0  0  0  0  0  0  0  0  0  0  0  0
  140.6110   69.6770  228.0560 C   0  0  0  0  0  0  0  0  0  0  0  0
  141.0590   70.9840  228.0590 C   0  0  0  0  0  0  0  0  0  0  0  0
  140.9930   71.6780  226.8590 C   0  0  0  0  0  0  0  0  0  0  0  0
  140.5070   71.1130  225.7110 C   0  0  0  0  0  0  0  0  0  0  0  0
  140.4760   71.8490  224.5920 N   0  0  0  0  0  0  0  0  0  0  0  0
  139.4420   73.9360  223.3300 H   0  0  0  0  0  0  0  0  0  0  0  0
  140.6274   74.5272  220.7679 H   0  0  0  0  0  0  0  0  0  0  0  0
  138.8822   74.0844  220.5035 H   0  0  0  0  0  0  0  0  0  0  0  0
  139.1068   77.4596  219.3042 H   0  0  0  0  0  0  0  0  0  0  0  0
  139.0595   78.7305  220.5437 H   0  0  0  0  0  0  0  0  0  0  0  0
  141.0439   78.4074  218.4986 H   0  0  0  0  0  0  0  0  0  0  0  0
  141.1645   79.5274  219.8313 H   0  0  0  0  0  0  0  0  0  0  0  0
  142.1018   76.5977  219.6730 H   0  0  0  0  0  0  0  0  0  0  0  0
  143.0243   77.9340  220.2872 H   0  0  0  0  0  0  0  0  0  0  0  0
  141.8472   76.5835  222.2451 H   0  0  0  0  0  0  0  0  0  0  0  0
  143.3945   78.8950  221.8997 H   0  0  0  0  0  0  0  0  0  0  0  0
  143.5483   81.0443  223.0669 H   0  0  0  0  0  0  0  0  0  0  0  0
  141.5434   82.0311  224.1941 H   0  0  0  0  0  0  0  0  0  0  0  0
  139.2647   78.5887  222.8991 H   0  0  0  0  0  0  0  0  0  0  0  0
  139.1744   69.6569  222.4320 H   0  0  0  0  0  0  0  0  0  0  0  0
  139.2147   68.2358  224.4963 H   0  0  0  0  0  0  0  0  0  0  0  0
  139.7655   68.0611  226.9020 H   0  0  0  0  0  0  0  0  0  0  0  0
  140.6437   69.0859  228.9831 H   0  0  0  0  0  0  0  0  0  0  0  0
  141.4510   71.4541  228.9730 H   0  0  0  0  0  0  0  0  0  0  0  0
  141.3440   72.7201  226.8294 H   0  0  0  0  0  0  0  0  0  0  0  0
  1  2  2  0
  2  3  1  0
  3  4  1  0
  4  5  1  0
  5  6  2  0
  5  7  1  0
  7  8  1  0
  8  9  1  0
  9 10  1  0
 10 11  1  0
 11 12  1  0
 12 13  2  0
 13 14  1  0
 14 15  2  0
 15 16  1  0
 16 17  1  0
 17 18  1  0
 18 19  1  0
 18 20  1  0
 18 21  1  0
 16 22  2  0
  2 23  1  0
 23 24  2  0
 24 25  1  0
 25 26  2  0
 26 27  1  0
 27 28  2  0
 28 29  1  0
 29 30  2  0
 30 31  1  0
 31 32  2  0
 11  7  1  0
 22 12  1  0
 32 23  1  0
 31 26  1  0
  3 33  1  0
  4 34  1  0
  4 35  1  0
  8 36  1  0
  8 37  1  0
  9 38  1  0
  9 39  1  0
 10 40  1  0
 10 41  1  0
 11 42  1  1
 13 43  1  0
 14 44  1  0
 15 45  1  0
 22 46  1  0
 24 47  1  0
 25 48  1  0
 27 49  1  0
 28 50  1  0
 29 51  1  0
 30 52  1  0
M  END
>  <smiles>  (77) 
O=C(NCC(=O)N1CCCC1c1cccc(OC(F)(F)F)c1)c1ccc2ccccc2n1

>  <score_type>  (77) 
oracle

>  <origin>  (77) 
autodockgpu

>  <m_score__min__energy>  (77) 
-8.7100000000000009

>  <m_primary>  (77) 
energy

>  <rmsd>  (77) 
1.95026590211209

>  <m_score__min__rmsd>  (77) 
1.95026590211209

>  <meeko>  (77) 
{"free_energy": -8.5, "intermolecular_energy": -10.59, "internal_energy": -1.58, "cluster_size": 21, "cluster_id": 1, "rank_in_cluster": 9}

>  <energy>  (77) 
-8.33

>  <cluster_rmsd>  (77) 
0.4

>  <cluster>  (77) 
3

$$$$

     RDKit          3D

 52 55  0  0  0  0  0  0  0  0999 V2000
  141.4420   72.2280  221.6830 O   0  0  0  0  0  0  0  0  0  0  0  0
  140.5110   72.4640  222.5040 C   0  0  0  0  0  0  0  0  0  0  0  0
  139.6730   73.6110  222.3510 N   0  0  0  0  0  0  0  0  0  0  0  0
  139.8450   74.5490  221.2630 C   0  0  0  0  0  0  0  0  0  0  0  0
  139.3110   75.8860  221.5800 C   0  0  0  0  0  0  0  0  0  0  0  0
  138.2600   76.1030  222.2250 O   0  0  0  0  0  0  0  0  0  0  0  0
  140.0370   77.0170  221.1210 N   0  0  0  0  0  0  0  0  0  0  0  0
  139.5930   78.0390  220.1760 C   0  0  0  0  0  0  0  0  0  0  0  0
  140.8460   78.6520  219.5760 C   0  0  0  0  0  0  0  0  0  0  0  0
  141.9300   77.7390  220.1000 C   0  0  0  0  0  0  0  0  0  0  0  0
  141.3970   77.4330  221.4780 C   0  0  1  0  0  0  0  0  0  0  0  0
  141.3640   78.6810  222.2710 C   0  0  0  0  0  0  0  0  0  0  0  0
  142.5630   79.3700  222.3890 C   0  0  0  0  0  0  0  0  0  0  0  0
  142.6620   80.5470  223.0970 C   0  0  0  0  0  0  0  0  0  0  0  0
  141.5590   81.0950  223.7280 C   0  0  0  0  0  0  0  0  0  0  0  0
  140.3680   80.4060  223.6090 C   0  0  0  0  0  0  0  0  0  0  0  0
  139.2320   80.9260  224.2300 O   0  0  0  0  0  0  0  0  0  0  0  0
  137.9620   80.9790  223.6240 C   0  0  0  0  0  0  0  0  0  0  0  0
  138.1640   81.2680  222.2740 F   0  0  0  0  0  0  0  0  0  0  0  0
  137.1300   81.9340  224.1270 F   0  0  0  0  0  0  0  0  0  0  0  0
  137.4460   79.6930  223.7050 F   0  0  0  0  0  0  0  0  0  0  0  0
  140.2780   79.2120  222.8860 C   0  0  0  0  0  0  0  0  0  0  0  0
  140.2720   71.5600  223.6350 C   0  0  0  0  0  0  0  0  0  0  0  0
  139.6030   70.3780  223.4550 C   0  0  0  0  0  0  0  0  0  0  0  0
  139.3790   69.5210  224.5360 C   0  0  0  0  0  0  0  0  0  0  0  0
  139.8480   69.8970  225.7860 C   0  0  0  0  0  0  0  0  0  0  0  0
  139.6680   69.1050  226.9110 C   0  0  0  0  0  0  0  0  0  0  0  0
  140.1480   69.5050  228.1560 C   0  0  0  0  0  0  0  0  0  0  0  0
  140.8180   70.7050  228.2960 C   0  0  0  0  0  0  0  0  0  0  0  0
  140.9830   71.4740  227.1520 C   0  0  0  0  0  0  0  0  0  0  0  0
  140.5100   71.0810  225.9290 C   0  0  0  0  0  0  0  0  0  0  0  0
  140.7090   71.8790  224.8730 N   0  0  0  0  0  0  0  0  0  0  0  0
  138.9100   73.7490  223.0780 H   0  0  0  0  0  0  0  0  0  0  0  0
  140.9189   74.6412  221.0432 H   0  0  0  0  0  0  0  0  0  0  0  0
  139.2865   74.1628  220.3976 H   0  0  0  0  0  0  0  0  0  0  0  0
  138.9781   77.5833  219.3859 H   0  0  0  0  0  0  0  0  0  0  0  0
  138.9801   78.8024  220.6776 H   0  0  0  0  0  0  0  0  0  0  0  0
  140.8097   78.6382  218.4767 H   0  0  0  0  0  0  0  0  0  0  0  0
  140.9918   79.7092  219.8427 H   0  0  0  0  0  0  0  0  0  0  0  0
  142.0227   76.8284  219.4900 H   0  0  0  0  0  0  0  0  0  0  0  0
  142.9396   78.1755  220.0878 H   0  0  0  0  0  0  0  0  0  0  0  0
  141.9675   76.7034  222.0715 H   0  0  0  0  0  0  0  0  0  0  0  0
  143.4617   78.9635  221.9021 H   0  0  0  0  0  0  0  0  0  0  0  0
  143.6331   81.0596  223.1620 H   0  0  0  0  0  0  0  0  0  0  0  0
  141.6276   82.0340  224.2969 H   0  0  0  0  0  0  0  0  0  0  0  0
  139.3098   78.6948  222.8150 H   0  0  0  0  0  0  0  0  0  0  0  0
  139.2401   70.1020  222.4539 H   0  0  0  0  0  0  0  0  0  0  0  0
  138.8431   68.5702  224.3987 H   0  0  0  0  0  0  0  0  0  0  0  0
  139.1377   68.1458  226.8182 H   0  0  0  0  0  0  0  0  0  0  0  0
  139.9924   68.8608  229.0339 H   0  0  0  0  0  0  0  0  0  0  0  0
  141.2038   71.0367  229.2713 H   0  0  0  0  0  0  0  0  0  0  0  0
  141.5133   72.4344  227.2312 H   0  0  0  0  0  0  0  0  0  0  0  0
  1  2  2  0
  2  3  1  0
  3  4  1  0
  4  5  1  0
  5  6  2  0
  5  7  1  0
  7  8  1  0
  8  9  1  0
  9 10  1  0
 10 11  1  0
 11 12  1  0
 12 13  2  0
 13 14  1  0
 14 15  2  0
 15 16  1  0
 16 17  1  0
 17 18  1  0
 18 19  1  0
 18 20  1  0
 18 21  1  0
 16 22  2  0
  2 23  1  0
 23 24  2  0
 24 25  1  0
 25 26  2  0
 26 27  1  0
 27 28  2  0
 28 29  1  0
 29 30  2  0
 30 31  1  0
 31 32  2  0
 11  7  1  0
 22 12  1  0
 32 23  1  0
 31 26  1  0
  3 33  1  0
  4 34  1  0
  4 35  1  0
  8 36  1  0
  8 37  1  0
  9 38  1  0
  9 39  1  0
 10 40  1  0
 10 41  1  0
 11 42  1  1
 13 43  1  0
 14 44  1  0
 15 45  1  0
 22 46  1  0
 24 47  1  0
 25 48  1  0
 27 49  1  0
 28 50  1  0
 29 51  1  0
 30 52  1  0
M  END
>  <smiles>  (78) 
O=C(NCC(=O)N1CCCC1c1cccc(OC(F)(F)F)c1)c1ccc2ccccc2n1

>  <score_type>  (78) 
oracle

>  <origin>  (78) 
autodockgpu

>  <m_score__min__energy>  (78) 
-8.7100000000000009

>  <m_primary>  (78) 
energy

>  <rmsd>  (78) 
2.07532217525585

>  <m_score__min__rmsd>  (78) 
2.07532217525585

>  <meeko>  (78) 
{"free_energy": -8.67, "intermolecular_energy": -10.76, "internal_energy": -1.5, "cluster_size": 21, "cluster_id": 1, "rank_in_cluster": 4}

>  <energy>  (78) 
-8.25

>  <cluster_rmsd>  (78) 
0.48

>  <cluster>  (78) 
3

$$$$

     RDKit          3D

 52 55  0  0  0  0  0  0  0  0999 V2000
  140.3480   71.8400  221.1060 O   0  0  0  0  0  0  0  0  0  0  0  0
  139.9960   72.3160  222.2220 C   0  0  0  0  0  0  0  0  0  0  0  0
  139.6140   73.6860  222.3460 N   0  0  0  0  0  0  0  0  0  0  0  0
  139.6110   74.5890  221.2160 C   0  0  0  0  0  0  0  0  0  0  0  0
  140.8730   75.3400  221.0890 C   0  0  0  0  0  0  0  0  0  0  0  0
  142.0140   74.8560  221.2620 O   0  0  0  0  0  0  0  0  0  0  0  0
  140.7950   76.7160  220.7460 N   0  0  0  0  0  0  0  0  0  0  0  0
  139.6320   77.4450  220.2460 C   0  0  0  0  0  0  0  0  0  0  0  0
  140.1650   78.6560  219.4990 C   0  0  0  0  0  0  0  0  0  0  0  0
  141.6500   78.3780  219.4610 C   0  0  0  0  0  0  0  0  0  0  0  0
  141.8490   77.7330  220.8100 C   0  0  1  0  0  0  0  0  0  0  0  0
  141.5500   78.7230  221.8680 C   0  0  0  0  0  0  0  0  0  0  0  0
  142.4690   79.7500  222.0310 C   0  0  0  0  0  0  0  0  0  0  0  0
  142.3020   80.7350  222.9780 C   0  0  0  0  0  0  0  0  0  0  0  0
  141.2000   80.7400  223.8150 C   0  0  0  0  0  0  0  0  0  0  0  0
  140.2880   79.7170  223.6500 C   0  0  0  0  0  0  0  0  0  0  0  0
  139.1630   79.6860  224.4740 O   0  0  0  0  0  0  0  0  0  0  0  0
  138.0590   80.5490  224.3270 C   0  0  0  0  0  0  0  0  0  0  0  0
  138.4070   81.4970  223.3650 F   0  0  0  0  0  0  0  0  0  0  0  0
  137.7080   81.2230  225.4580 F   0  0  0  0  0  0  0  0  0  0  0  0
  137.0360   79.7730  223.8010 F   0  0  0  0  0  0  0  0  0  0  0  0
  140.4660   78.7210  222.6840 C   0  0  0  0  0  0  0  0  0  0  0  0
  139.9720   71.4640  223.4170 C   0  0  0  0  0  0  0  0  0  0  0  0
  139.4270   70.2080  223.3690 C   0  0  0  0  0  0  0  0  0  0  0  0
  139.4080   69.4020  224.5100 C   0  0  0  0  0  0  0  0  0  0  0  0
  139.9520   69.9030  225.6830 C   0  0  0  0  0  0  0  0  0  0  0  0
  139.9740   69.1690  226.8610 C   0  0  0  0  0  0  0  0  0  0  0  0
  140.5260   69.6950  228.0270 C   0  0  0  0  0  0  0  0  0  0  0  0
  141.0660   70.9660  228.0330 C   0  0  0  0  0  0  0  0  0  0  0  0
  141.0300   71.6750  226.8410 C   0  0  0  0  0  0  0  0  0  0  0  0
  140.4870   71.1580  225.6960 C   0  0  0  0  0  0  0  0  0  0  0  0
  140.4900   71.9050  224.5840 N   0  0  0  0  0  0  0  0  0  0  0  0
  139.3290   74.0190  223.3150 H   0  0  0  0  0  0  0  0  0  0  0  0
  139.4549   74.0040  220.2976 H   0  0  0  0  0  0  0  0  0  0  0  0
  138.8029   75.3184  221.3738 H   0  0  0  0  0  0  0  0  0  0  0  0
  139.0479   76.8070  219.5664 H   0  0  0  0  0  0  0  0  0  0  0  0
  138.9700   77.7481  221.0706 H   0  0  0  0  0  0  0  0  0  0  0  0
  139.7442   78.7160  218.4844 H   0  0  0  0  0  0  0  0  0  0  0  0
  139.9068   79.6154  219.9711 H   0  0  0  0  0  0  0  0  0  0  0  0
  141.9132   77.6930  218.6415 H   0  0  0  0  0  0  0  0  0  0  0  0
  142.2758   79.2648  219.2824 H   0  0  0  0  0  0  0  0  0  0  0  0
  142.8568   77.3472  221.0233 H   0  0  0  0  0  0  0  0  0  0  0  0
  143.3580   79.7778  221.3837 H   0  0  0  0  0  0  0  0  0  0  0  0
  143.0561   81.5304  223.0708 H   0  0  0  0  0  0  0  0  0  0  0  0
  141.0576   81.5219  224.5755 H   0  0  0  0  0  0  0  0  0  0  0  0
  139.7151   77.9234  222.5844 H   0  0  0  0  0  0  0  0  0  0  0  0
  139.0019   69.8320  222.4267 H   0  0  0  0  0  0  0  0  0  0  0  0
  138.9714   68.3928  224.4786 H   0  0  0  0  0  0  0  0  0  0  0  0
  139.5483   68.1548  226.8741 H   0  0  0  0  0  0  0  0  0  0  0  0
  140.5317   69.0942  228.9484 H   0  0  0  0  0  0  0  0  0  0  0  0
  141.5059   71.3979  228.9440 H   0  0  0  0  0  0  0  0  0  0  0  0
  141.4534   72.6899  226.8152 H   0  0  0  0  0  0  0  0  0  0  0  0
  1  2  2  0
  2  3  1  0
  3  4  1  0
  4  5  1  0
  5  6  2  0
  5  7  1  0
  7  8  1  0
  8  9  1  0
  9 10  1  0
 10 11  1  0
 11 12  1  0
 12 13  2  0
 13 14  1  0
 14 15  2  0
 15 16  1  0
 16 17  1  0
 17 18  1  0
 18 19  1  0
 18 20  1  0
 18 21  1  0
 16 22  2  0
  2 23  1  0
 23 24  2  0
 24 25  1  0
 25 26  2  0
 26 27  1  0
 27 28  2  0
 28 29  1  0
 29 30  2  0
 30 31  1  0
 31 32  2  0
 11  7  1  0
 22 12  1  0
 32 23  1  0
 31 26  1  0
  3 33  1  0
  4 34  1  0
  4 35  1  0
  8 36  1  0
  8 37  1  0
  9 38  1  0
  9 39  1  0
 10 40  1  0
 10 41  1  0
 11 42  1  6
 13 43  1  0
 14 44  1  0
 15 45  1  0
 22 46  1  0
 24 47  1  0
 25 48  1  0
 27 49  1  0
 28 50  1  0
 29 51  1  0
 30 52  1  0
M  END
>  <smiles>  (79) 
O=C(NCC(=O)N1CCCC1c1cccc(OC(F)(F)F)c1)c1ccc2ccccc2n1

>  <score_type>  (79) 
oracle

>  <origin>  (79) 
autodockgpu

>  <m_score__min__energy>  (79) 
-8.7100000000000009

>  <m_primary>  (79) 
energy

>  <rmsd>  (79) 
1.7671390171091226

>  <m_score__min__rmsd>  (79) 
1.7671390171091226

>  <meeko>  (79) 
{"free_energy": -8.39, "intermolecular_energy": -10.47, "internal_energy": -1.2, "cluster_size": 21, "cluster_id": 1, "rank_in_cluster": 12}

>  <energy>  (79) 
-7.75

>  <cluster_rmsd>  (79) 
1.99

>  <cluster>  (79) 
3

$$$$

     RDKit          3D

 52 55  0  0  0  0  0  0  0  0999 V2000
  141.3870   72.4010  221.7640 O   0  0  0  0  0  0  0  0  0  0  0  0
  140.4070   72.5300  222.5510 C   0  0  0  0  0  0  0  0  0  0  0  0
  139.4670   73.5920  222.3830 N   0  0  0  0  0  0  0  0  0  0  0  0
  139.5870   74.5640  221.3180 C   0  0  0  0  0  0  0  0  0  0  0  0
  139.3440   75.9420  221.7800 C   0  0  0  0  0  0  0  0  0  0  0  0
  138.5100   76.2670  222.6550 O   0  0  0  0  0  0  0  0  0  0  0  0
  140.1080   76.9840  221.1910 N   0  0  0  0  0  0  0  0  0  0  0  0
  139.7550   77.8050  220.0350 C   0  0  0  0  0  0  0  0  0  0  0  0
  141.0590   78.3240  219.4540 C   0  0  0  0  0  0  0  0  0  0  0  0
  142.0890   77.5450  220.2390 C   0  0  0  0  0  0  0  0  0  0  0  0
  141.4260   77.4870  221.5920 C   0  0  1  0  0  0  0  0  0  0  0  0
  141.3120   78.8590  222.1340 C   0  0  0  0  0  0  0  0  0  0  0  0
  142.5040   79.5190  222.4000 C   0  0  0  0  0  0  0  0  0  0  0  0
  142.5320   80.8010  222.9010 C   0  0  0  0  0  0  0  0  0  0  0  0
  141.3600   81.4890  223.1660 C   0  0  0  0  0  0  0  0  0  0  0  0
  140.1770   80.8290  222.9010 C   0  0  0  0  0  0  0  0  0  0  0  0
  138.9740   81.4890  223.1530 O   0  0  0  0  0  0  0  0  0  0  0  0
  137.9750   80.9980  224.0160 C   0  0  0  0  0  0  0  0  0  0  0  0
  137.4080   82.1020  224.6540 F   0  0  0  0  0  0  0  0  0  0  0  0
  138.4250   80.1520  224.9840 F   0  0  0  0  0  0  0  0  0  0  0  0
  137.0030   80.4410  223.1970 F   0  0  0  0  0  0  0  0  0  0  0  0
  140.1590   79.5270  222.3890 C   0  0  0  0  0  0  0  0  0  0  0  0
  140.2150   71.5850  223.6580 C   0  0  0  0  0  0  0  0  0  0  0  0
  139.5670   70.3940  223.4550 C   0  0  0  0  0  0  0  0  0  0  0  0
  139.3880   69.4990  224.5120 C   0  0  0  0  0  0  0  0  0  0  0  0
  139.8800   69.8440  225.7620 C   0  0  0  0  0  0  0  0  0  0  0  0
  139.7450   69.0130  226.8650 C   0  0  0  0  0  0  0  0  0  0  0  0
  140.2460   69.3830  228.1110 C   0  0  0  0  0  0  0  0  0  0  0  0
  140.8940   70.5930  228.2730 C   0  0  0  0  0  0  0  0  0  0  0  0
  141.0140   71.4010  227.1520 C   0  0  0  0  0  0  0  0  0  0  0  0
  140.5190   71.0370  225.9290 C   0  0  0  0  0  0  0  0  0  0  0  0
  140.6750   71.8730  224.8940 N   0  0  0  0  0  0  0  0  0  0  0  0
  138.6670   73.6400  223.0810 H   0  0  0  0  0  0  0  0  0  0  0  0
  140.6032   74.5061  220.9007 H   0  0  0  0  0  0  0  0  0  0  0  0
  138.8244   74.3262  220.5617 H   0  0  0  0  0  0  0  0  0  0  0  0
  139.2218   77.1987  219.2880 H   0  0  0  0  0  0  0  0  0  0  0  0
  139.0935   78.6343  220.3258 H   0  0  0  0  0  0  0  0  0  0  0  0
  141.1303   78.1080  218.3778 H   0  0  0  0  0  0  0  0  0  0  0  0
  141.1751   79.4150  219.5332 H   0  0  0  0  0  0  0  0  0  0  0  0
  142.2426   76.5397  219.8197 H   0  0  0  0  0  0  0  0  0  0  0  0
  143.0939   77.9923  220.2423 H   0  0  0  0  0  0  0  0  0  0  0  0
  141.9387   76.8912  222.3615 H   0  0  0  0  0  0  0  0  0  0  0  0
  143.4550   79.0019  222.2045 H   0  0  0  0  0  0  0  0  0  0  0  0
  143.5002   81.2862  223.0937 H   0  0  0  0  0  0  0  0  0  0  0  0
  141.3711   82.5127  223.5685 H   0  0  0  0  0  0  0  0  0  0  0  0
  139.1944   79.0371  222.1900 H   0  0  0  0  0  0  0  0  0  0  0  0
  139.1861   70.1420  222.4543 H   0  0  0  0  0  0  0  0  0  0  0  0
  138.8685   68.5419  224.3567 H   0  0  0  0  0  0  0  0  0  0  0  0
  139.2336   68.0455  226.7536 H   0  0  0  0  0  0  0  0  0  0  0  0
  140.1252   68.7081  228.9712 H   0  0  0  0  0  0  0  0  0  0  0  0
  141.2971   70.9019  229.2487 H   0  0  0  0  0  0  0  0  0  0  0  0
  141.5258   72.3698  227.2495 H   0  0  0  0  0  0  0  0  0  0  0  0
  1  2  2  0
  2  3  1  0
  3  4  1  0
  4  5  1  0
  5  6  2  0
  5  7  1  0
  7  8  1  0
  8  9  1  0
  9 10  1  0
 10 11  1  0
 11 12  1  0
 12 13  2  0
 13 14  1  0
 14 15  2  0
 15 16  1  0
 16 17  1  0
 17 18  1  0
 18 19  1  0
 18 20  1  0
 18 21  1  0
 16 22  2  0
  2 23  1  0
 23 24  2  0
 24 25  1  0
 25 26  2  0
 26 27  1  0
 27 28  2  0
 28 29  1  0
 29 30  2  0
 30 31  1  0
 31 32  2  0
 11  7  1  0
 22 12  1  0
 32 23  1  0
 31 26  1  0
  3 33  1  0
  4 34  1  0
  4 35  1  0
  8 36  1  0
  8 37  1  0
  9 38  1  0
  9 39  1  0
 10 40  1  0
 10 41  1  0
 11 42  1  1
 13 43  1  0
 14 44  1  0
 15 45  1  0
 22 46  1  0
 24 47  1  0
 25 48  1  0
 27 49  1  0
 28 50  1  0
 29 51  1  0
 30 52  1  0
M  END
>  <smiles>  (80) 
O=C(NCC(=O)N1CCCC1c1cccc(OC(F)(F)F)c1)c1ccc2ccccc2n1

>  <score_type>  (80) 
oracle

>  <origin>  (80) 
autodockgpu

>  <m_score__min__energy>  (80) 
-8.7100000000000009

>  <m_primary>  (80) 
energy

>  <rmsd>  (80) 
2.0019602975096573

>  <m_score__min__rmsd>  (80) 
2.0019602975096573

>  <meeko>  (80) 
{"free_energy": -8.46, "intermolecular_energy": -10.55, "internal_energy": -1.34, "cluster_size": 21, "cluster_id": 1, "rank_in_cluster": 10}

>  <energy>  (80) 
-8.1

>  <cluster_rmsd>  (80) 
0.0

>  <cluster>  (80) 
4

$$$$

     RDKit          3D

 52 55  0  0  0  0  0  0  0  0999 V2000
  139.5000   70.4090  221.6750 O   0  0  0  0  0  0  0  0  0  0  0  0
  139.4690   71.2950  222.5760 C   0  0  0  0  0  0  0  0  0  0  0  0
  139.0100   72.6160  222.2880 N   0  0  0  0  0  0  0  0  0  0  0  0
  138.5620   73.0050  220.9690 C   0  0  0  0  0  0  0  0  0  0  0  0
  138.2920   74.4500  220.8660 C   0  0  0  0  0  0  0  0  0  0  0  0
  137.1540   74.9610  220.7760 O   0  0  0  0  0  0  0  0  0  0  0  0
  139.4040   75.3340  220.8680 N   0  0  0  0  0  0  0  0  0  0  0  0
  139.8560   76.2000  219.7810 C   0  0  0  0  0  0  0  0  0  0  0  0
  141.3310   76.4720  220.0240 C   0  0  0  0  0  0  0  0  0  0  0  0
  141.6460   75.5240  221.1590 C   0  0  0  0  0  0  0  0  0  0  0  0
  140.3620   75.5930  221.9470 C   0  0  1  0  0  0  0  0  0  0  0  0
  140.1910   76.9650  222.4720 C   0  0  0  0  0  0  0  0  0  0  0  0
  138.9200   77.5130  222.3680 C   0  0  0  0  0  0  0  0  0  0  0  0
  138.6320   78.7800  222.8230 C   0  0  0  0  0  0  0  0  0  0  0  0
  139.6090   79.5670  223.4080 C   0  0  0  0  0  0  0  0  0  0  0  0
  140.8720   79.0200  223.5090 C   0  0  0  0  0  0  0  0  0  0  0  0
  141.8840   79.7810  224.0930 O   0  0  0  0  0  0  0  0  0  0  0  0
  142.5050   80.8770  223.4630 C   0  0  0  0  0  0  0  0  0  0  0  0
  143.7940   80.4710  223.1150 F   0  0  0  0  0  0  0  0  0  0  0  0
  142.6220   81.9890  224.2400 F   0  0  0  0  0  0  0  0  0  0  0  0
  141.8000   81.0900  222.2870 F   0  0  0  0  0  0  0  0  0  0  0  0
  141.1540   77.7300  223.0450 C   0  0  0  0  0  0  0  0  0  0  0  0
  139.9080   70.9800  223.9410 C   0  0  0  0  0  0  0  0  0  0  0  0
  140.6660   71.8720  224.6540 C   0  0  0  0  0  0  0  0  0  0  0  0
  141.0800   71.5670  225.9530 C   0  0  0  0  0  0  0  0  0  0  0  0
  140.7060   70.3470  226.4970 C   0  0  0  0  0  0  0  0  0  0  0  0
  141.0740   69.9660  227.7790 C   0  0  0  0  0  0  0  0  0  0  0  0
  140.6870   68.7350  228.3040 C   0  0  0  0  0  0  0  0  0  0  0  0
  139.9220   67.8640  227.5520 C   0  0  0  0  0  0  0  0  0  0  0  0
  139.5680   68.2740  226.2740 C   0  0  0  0  0  0  0  0  0  0  0  0
  139.9510   69.4830  225.7600 C   0  0  0  0  0  0  0  0  0  0  0  0
  139.5700   69.8060  224.5170 N   0  0  0  0  0  0  0  0  0  0  0  0
  139.0120   73.3110  223.0930 H   0  0  0  0  0  0  0  0  0  0  0  0
  139.3413   72.7392  220.2395 H   0  0  0  0  0  0  0  0  0  0  0  0
  137.6197   72.4746  220.7671 H   0  0  0  0  0  0  0  0  0  0  0  0
  139.7178   75.6966  218.8128 H   0  0  0  0  0  0  0  0  0  0  0  0
  139.2799   77.1367  219.7557 H   0  0  0  0  0  0  0  0  0  0  0  0
  141.9318   76.2404  219.1321 H   0  0  0  0  0  0  0  0  0  0  0  0
  141.5549   77.5246  220.2519 H   0  0  0  0  0  0  0  0  0  0  0  0
  141.8427   74.5054  220.7933 H   0  0  0  0  0  0  0  0  0  0  0  0
  142.5479   75.7833  221.7329 H   0  0  0  0  0  0  0  0  0  0  0  0
  140.2832   74.9179  222.8119 H   0  0  0  0  0  0  0  0  0  0  0  0
  138.1183   76.9167  221.9079 H   0  0  0  0  0  0  0  0  0  0  0  0
  137.6098   79.1730  222.7201 H   0  0  0  0  0  0  0  0  0  0  0  0
  139.3891   80.5804  223.7750 H   0  0  0  0  0  0  0  0  0  0  0  0
  142.1735   77.3296  223.1466 H   0  0  0  0  0  0  0  0  0  0  0  0
  140.9499   72.8333  224.2010 H   0  0  0  0  0  0  0  0  0  0  0  0
  141.6886   72.2780  226.5311 H   0  0  0  0  0  0  0  0  0  0  0  0
  141.6820   70.6478  228.3918 H   0  0  0  0  0  0  0  0  0  0  0  0
  140.9921   68.4548  229.3230 H   0  0  0  0  0  0  0  0  0  0  0  0
  139.6071   66.8877  227.9491 H   0  0  0  0  0  0  0  0  0  0  0  0
  138.9576   67.6029  225.6520 H   0  0  0  0  0  0  0  0  0  0  0  0
  1  2  2  0
  2  3  1  0
  3  4  1  0
  4  5  1  0
  5  6  2  0
  5  7  1  0
  7  8  1  0
  8  9  1  0
  9 10  1  0
 10 11  1  0
 11 12  1  0
 12 13  2  0
 13 14  1  0
 14 15  2  0
 15 16  1  0
 16 17  1  0
 17 18  1  0
 18 19  1  0
 18 20  1  0
 18 21  1  0
 16 22  2  0
  2 23  1  0
 23 24  2  0
 24 25  1  0
 25 26  2  0
 26 27  1  0
 27 28  2  0
 28 29  1  0
 29 30  2  0
 30 31  1  0
 31 32  2  0
 11  7  1  0
 22 12  1  0
 32 23  1  0
 31 26  1  0
  3 33  1  0
  4 34  1  0
  4 35  1  0
  8 36  1  0
  8 37  1  0
  9 38  1  0
  9 39  1  0
 10 40  1  0
 10 41  1  0
 11 42  1  1
 13 43  1  0
 14 44  1  0
 15 45  1  0
 22 46  1  0
 24 47  1  0
 25 48  1  0
 27 49  1  0
 28 50  1  0
 29 51  1  0
 30 52  1  0
M  END
>  <smiles>  (81) 
O=C(NCC(=O)N1CCCC1c1cccc(OC(F)(F)F)c1)c1ccc2ccccc2n1

>  <score_type>  (81) 
oracle

>  <origin>  (81) 
autodockgpu

>  <m_score__min__energy>  (81) 
-8.7100000000000009

>  <m_primary>  (81) 
energy

>  <rmsd>  (81) 
2.895681581114405

>  <m_score__min__rmsd>  (81) 
2.895681581114405

>  <meeko>  (81) 
{"free_energy": -8.05, "intermolecular_energy": -10.14, "internal_energy": -1.41, "cluster_size": 10, "cluster_id": 4, "rank_in_cluster": 2}

>  <energy>  (81) 
-8.05

>  <cluster_rmsd>  (81) 
0.73

>  <cluster>  (81) 
4

$$$$

     RDKit          3D

 52 55  0  0  0  0  0  0  0  0999 V2000
  138.7160   71.4120  221.6160 O   0  0  0  0  0  0  0  0  0  0  0  0
  139.4360   71.7810  222.5860 C   0  0  0  0  0  0  0  0  0  0  0  0
  140.1450   73.0210  222.5420 N   0  0  0  0  0  0  0  0  0  0  0  0
  140.0770   73.9050  221.3990 C   0  0  0  0  0  0  0  0  0  0  0  0
  139.3770   75.1660  221.7020 C   0  0  0  0  0  0  0  0  0  0  0  0
  138.3060   75.2550  222.3440 O   0  0  0  0  0  0  0  0  0  0  0  0
  139.9540   76.3750  221.2300 N   0  0  0  0  0  0  0  0  0  0  0  0
  139.3710   77.3390  220.2990 C   0  0  0  0  0  0  0  0  0  0  0  0
  140.5290   78.0960  219.6730 C   0  0  0  0  0  0  0  0  0  0  0  0
  141.7250   77.3160  220.1700 C   0  0  0  0  0  0  0  0  0  0  0  0
  141.2630   76.9490  221.5580 C   0  0  1  0  0  0  0  0  0  0  0  0
  141.1020   78.1830  222.3560 C   0  0  0  0  0  0  0  0  0  0  0  0
  142.1650   79.0750  222.3370 C   0  0  0  0  0  0  0  0  0  0  0  0
  142.1360   80.2610  223.0360 C   0  0  0  0  0  0  0  0  0  0  0  0
  141.0330   80.6150  223.7940 C   0  0  0  0  0  0  0  0  0  0  0  0
  139.9770   79.7260  223.8110 C   0  0  0  0  0  0  0  0  0  0  0  0
  138.8470   80.0460  224.5620 O   0  0  0  0  0  0  0  0  0  0  0  0
  137.8310   80.9160  224.1200 C   0  0  0  0  0  0  0  0  0  0  0  0
  136.7510   80.1210  223.7340 F   0  0  0  0  0  0  0  0  0  0  0  0
  138.1700   81.6920  223.0530 F   0  0  0  0  0  0  0  0  0  0  0  0
  137.4390   81.6430  225.2360 F   0  0  0  0  0  0  0  0  0  0  0  0
  140.0170   78.5240  223.0960 C   0  0  0  0  0  0  0  0  0  0  0  0
  139.5570   70.9400  223.7830 C   0  0  0  0  0  0  0  0  0  0  0  0
  139.0860   69.6530  223.7820 C   0  0  0  0  0  0  0  0  0  0  0  0
  139.2050   68.8570  224.9240 C   0  0  0  0  0  0  0  0  0  0  0  0
  139.8090   69.3990  226.0490 C   0  0  0  0  0  0  0  0  0  0  0  0
  139.9670   68.6780  227.2230 C   0  0  0  0  0  0  0  0  0  0  0  0
  140.5760   69.2450  228.3400 C   0  0  0  0  0  0  0  0  0  0  0  0
  141.0380   70.5460  228.2990 C   0  0  0  0  0  0  0  0  0  0  0  0
  140.8670   71.2420  227.1110 C   0  0  0  0  0  0  0  0  0  0  0  0
  140.2670   70.6840  226.0140 C   0  0  0  0  0  0  0  0  0  0  0  0
  140.1380   71.4200  224.9040 N   0  0  0  0  0  0  0  0  0  0  0  0
  140.7320   73.2680  223.3930 H   0  0  0  0  0  0  0  0  0  0  0  0
  141.1010   74.1395  221.0729 H   0  0  0  0  0  0  0  0  0  0  0  0
  139.5098   73.3889  220.6104 H   0  0  0  0  0  0  0  0  0  0  0  0
  138.7960   76.8150  219.5213 H   0  0  0  0  0  0  0  0  0  0  0  0
  138.6843   78.0243  220.8174 H   0  0  0  0  0  0  0  0  0  0  0  0
  140.4698   78.0788  218.5747 H   0  0  0  0  0  0  0  0  0  0  0  0
  140.5553   79.1629  219.9397 H   0  0  0  0  0  0  0  0  0  0  0  0
  141.9103   76.4229  219.5552 H   0  0  0  0  0  0  0  0  0  0  0  0
  142.6758   77.8681  220.1366 H   0  0  0  0  0  0  0  0  0  0  0  0
  141.9286   76.2915  222.1365 H   0  0  0  0  0  0  0  0  0  0  0  0
  143.0584   78.8269  221.7452 H   0  0  0  0  0  0  0  0  0  0  0  0
  143.0023   80.9374  222.9914 H   0  0  0  0  0  0  0  0  0  0  0  0
  140.9996   81.5599  224.3562 H   0  0  0  0  0  0  0  0  0  0  0  0
  139.1536   77.8435  223.1344 H   0  0  0  0  0  0  0  0  0  0  0  0
  138.6118   69.2446  222.8774 H   0  0  0  0  0  0  0  0  0  0  0  0
  138.8282   67.8236  224.9309 H   0  0  0  0  0  0  0  0  0  0  0  0
  139.6051   67.6404  227.2730 H   0  0  0  0  0  0  0  0  0  0  0  0
  140.6897   68.6532  229.2602 H   0  0  0  0  0  0  0  0  0  0  0  0
  141.5210   71.0106  229.1712 H   0  0  0  0  0  0  0  0  0  0  0  0
  141.2265   72.2797  227.0481 H   0  0  0  0  0  0  0  0  0  0  0  0
  1  2  2  0
  2  3  1  0
  3  4  1  0
  4  5  1  0
  5  6  2  0
  5  7  1  0
  7  8  1  0
  8  9  1  0
  9 10  1  0
 10 11  1  0
 11 12  1  0
 12 13  2  0
 13 14  1  0
 14 15  2  0
 15 16  1  0
 16 17  1  0
 17 18  1  0
 18 19  1  0
 18 20  1  0
 18 21  1  0
 16 22  2  0
  2 23  1  0
 23 24  2  0
 24 25  1  0
 25 26  2  0
 26 27  1  0
 27 28  2  0
 28 29  1  0
 29 30  2  0
 30 31  1  0
 31 32  2  0
 11  7  1  0
 22 12  1  0
 32 23  1  0
 31 26  1  0
  3 33  1  0
  4 34  1  0
  4 35  1  0
  8 36  1  0
  8 37  1  0
  9 38  1  0
  9 39  1  0
 10 40  1  0
 10 41  1  0
 11 42  1  1
 13 43  1  0
 14 44  1  0
 15 45  1  0
 22 46  1  0
 24 47  1  0
 25 48  1  0
 27 49  1  0
 28 50  1  0
 29 51  1  0
 30 52  1  0
M  END
>  <smiles>  (82) 
O=C(NCC(=O)N1CCCC1c1cccc(OC(F)(F)F)c1)c1ccc2ccccc2n1

>  <score_type>  (82) 
oracle

>  <origin>  (82) 
autodockgpu

>  <m_score__min__energy>  (82) 
-8.7100000000000009

>  <m_primary>  (82) 
energy

>  <rmsd>  (82) 
1.8026276834929973

>  <m_score__min__rmsd>  (82) 
1.8026276834929973

>  <meeko>  (82) 
{"free_energy": -7.75, "intermolecular_energy": -9.84, "internal_energy": -1.6, "cluster_size": 21, "cluster_id": 1, "rank_in_cluster": 18}

>  <energy>  (82) 
-8.03

>  <cluster_rmsd>  (82) 
0.43

>  <cluster>  (82) 
4

$$$$

     RDKit          3D

 52 55  0  0  0  0  0  0  0  0999 V2000
  139.6420   70.7130  221.2420 O   0  0  0  0  0  0  0  0  0  0  0  0
  139.3500   71.4270  222.2420 C   0  0  0  0  0  0  0  0  0  0  0  0
  138.7630   72.7180  222.0760 N   0  0  0  0  0  0  0  0  0  0  0  0
  138.4750   73.2690  220.7700 C   0  0  0  0  0  0  0  0  0  0  0  0
  138.2590   74.7260  220.8060 C   0  0  0  0  0  0  0  0  0  0  0  0
  137.1390   75.2850  220.8020 O   0  0  0  0  0  0  0  0  0  0  0  0
  139.4050   75.5660  220.8480 N   0  0  0  0  0  0  0  0  0  0  0  0
  139.8760   76.4830  219.8120 C   0  0  0  0  0  0  0  0  0  0  0  0
  141.3630   76.6830  220.0510 C   0  0  0  0  0  0  0  0  0  0  0  0
  141.6550   75.6520  221.1160 C   0  0  0  0  0  0  0  0  0  0  0  0
  140.3850   75.7180  221.9270 C   0  0  1  0  0  0  0  0  0  0  0  0
  140.2740   77.0580  222.5420 C   0  0  0  0  0  0  0  0  0  0  0  0
  139.0040   77.6180  222.5790 C   0  0  0  0  0  0  0  0  0  0  0  0
  138.7690   78.8580  223.1290 C   0  0  0  0  0  0  0  0  0  0  0  0
  139.8010   79.6050  223.6710 C   0  0  0  0  0  0  0  0  0  0  0  0
  141.0620   79.0460  223.6320 C   0  0  0  0  0  0  0  0  0  0  0  0
  142.1290   79.7660  224.1690 O   0  0  0  0  0  0  0  0  0  0  0  0
  142.7300   80.8700  223.5340 C   0  0  0  0  0  0  0  0  0  0  0  0
  142.5820   81.9640  224.3880 F   0  0  0  0  0  0  0  0  0  0  0  0
  142.1750   81.2090  222.3360 F   0  0  0  0  0  0  0  0  0  0  0  0
  144.0840   80.5760  223.4570 F   0  0  0  0  0  0  0  0  0  0  0  0
  141.2900   77.7840  223.0730 C   0  0  0  0  0  0  0  0  0  0  0  0
  139.6120   70.9390  223.6020 C   0  0  0  0  0  0  0  0  0  0  0  0
  139.2400   69.6730  223.9740 C   0  0  0  0  0  0  0  0  0  0  0  0
  139.4920   69.2150  225.2690 C   0  0  0  0  0  0  0  0  0  0  0  0
  140.1230   70.0680  226.1620 C   0  0  0  0  0  0  0  0  0  0  0  0
  140.4110   69.6930  227.4670 C   0  0  0  0  0  0  0  0  0  0  0  0
  141.0450   70.5680  228.3450 C   0  0  0  0  0  0  0  0  0  0  0  0
  141.4040   71.8370  227.9300 C   0  0  0  0  0  0  0  0  0  0  0  0
  141.1040   72.1830  226.6210 C   0  0  0  0  0  0  0  0  0  0  0  0
  140.4800   71.3220  225.7590 C   0  0  0  0  0  0  0  0  0  0  0  0
  140.2250   71.7310  224.5090 N   0  0  0  0  0  0  0  0  0  0  0  0
  138.5440   73.2640  222.9610 H   0  0  0  0  0  0  0  0  0  0  0  0
  139.3225   73.0547  220.1023 H   0  0  0  0  0  0  0  0  0  0  0  0
  137.5465   72.8029  220.4086 H   0  0  0  0  0  0  0  0  0  0  0  0
  139.7070   76.0487  218.8156 H   0  0  0  0  0  0  0  0  0  0  0  0
  139.3356   77.4402  219.8546 H   0  0  0  0  0  0  0  0  0  0  0  0
  141.9438   76.4885  219.1373 H   0  0  0  0  0  0  0  0  0  0  0  0
  141.6296   77.7092  220.3441 H   0  0  0  0  0  0  0  0  0  0  0  0
  141.8068   74.6528  220.6817 H   0  0  0  0  0  0  0  0  0  0  0  0
  142.5737   75.8385  221.6915 H   0  0  0  0  0  0  0  0  0  0  0  0
  140.2910   74.9919  222.7480 H   0  0  0  0  0  0  0  0  0  0  0  0
  138.1599   77.0537  222.1559 H   0  0  0  0  0  0  0  0  0  0  0  0
  137.7457   79.2614  223.1380 H   0  0  0  0  0  0  0  0  0  0  0  0
  139.6241   80.5972  224.1119 H   0  0  0  0  0  0  0  0  0  0  0  0
  142.3104   77.3732  223.0637 H   0  0  0  0  0  0  0  0  0  0  0  0
  138.7403   69.0143  223.2484 H   0  0  0  0  0  0  0  0  0  0  0  0
  139.1966   68.2002  225.5739 H   0  0  0  0  0  0  0  0  0  0  0  0
  140.1334   68.6866  227.8137 H   0  0  0  0  0  0  0  0  0  0  0  0
  141.2615   70.2478  229.3749 H   0  0  0  0  0  0  0  0  0  0  0  0
  141.9061   72.5419  228.6090 H   0  0  0  0  0  0  0  0  0  0  0  0
  141.3775   73.1862  226.2622 H   0  0  0  0  0  0  0  0  0  0  0  0
  1  2  2  0
  2  3  1  0
  3  4  1  0
  4  5  1  0
  5  6  2  0
  5  7  1  0
  7  8  1  0
  8  9  1  0
  9 10  1  0
 10 11  1  0
 11 12  1  0
 12 13  2  0
 13 14  1  0
 14 15  2  0
 15 16  1  0
 16 17  1  0
 17 18  1  0
 18 19  1  0
 18 20  1  0
 18 21  1  0
 16 22  2  0
  2 23  1  0
 23 24  2  0
 24 25  1  0
 25 26  2  0
 26 27  1  0
 27 28  2  0
 28 29  1  0
 29 30  2  0
 30 31  1  0
 31 32  2  0
 11  7  1  0
 22 12  1  0
 32 23  1  0
 31 26  1  0
  3 33  1  0
  4 34  1  0
  4 35  1  0
  8 36  1  0
  8 37  1  0
  9 38  1  0
  9 39  1  0
 10 40  1  0
 10 41  1  0
 11 42  1  1
 13 43  1  0
 14 44  1  0
 15 45  1  0
 22 46  1  0
 24 47  1  0
 25 48  1  0
 27 49  1  0
 28 50  1  0
 29 51  1  0
 30 52  1  0
M  END
>  <smiles>  (83) 
O=C(NCC(=O)N1CCCC1c1cccc(OC(F)(F)F)c1)c1ccc2ccccc2n1

>  <score_type>  (83) 
oracle

>  <origin>  (83) 
autodockgpu

>  <m_score__min__energy>  (83) 
-8.7100000000000009

>  <m_primary>  (83) 
energy

>  <rmsd>  (83) 
1.9852594016093472

>  <m_score__min__rmsd>  (83) 
1.9852594016093472

>  <meeko>  (83) 
{"free_energy": -8.1, "intermolecular_energy": -10.19, "internal_energy": -1.59, "cluster_size": 10, "cluster_id": 4, "rank_in_cluster": 1}

>  <energy>  (83) 
-7.89

>  <cluster_rmsd>  (83) 
0.89

>  <cluster>  (83) 
4

$$$$

     RDKit          3D

 52 55  0  0  0  0  0  0  0  0999 V2000
  141.3920   72.3280  221.7110 O   0  0  0  0  0  0  0  0  0  0  0  0
  140.4300   72.4980  222.5120 C   0  0  0  0  0  0  0  0  0  0  0  0
  139.5210   73.5860  222.3440 N   0  0  0  0  0  0  0  0  0  0  0  0
  139.6520   74.5380  221.2630 C   0  0  0  0  0  0  0  0  0  0  0  0
  139.2490   75.9000  221.6570 C   0  0  0  0  0  0  0  0  0  0  0  0
  138.2640   76.1750  222.3770 O   0  0  0  0  0  0  0  0  0  0  0  0
  140.0340   76.9860  221.1850 N   0  0  0  0  0  0  0  0  0  0  0  0
  139.6720   77.9730  220.1700 C   0  0  0  0  0  0  0  0  0  0  0  0
  140.9740   78.5210  219.6110 C   0  0  0  0  0  0  0  0  0  0  0  0
  141.9990   77.6030  220.2360 C   0  0  0  0  0  0  0  0  0  0  0  0
  141.3850   77.3800  221.5950 C   0  0  1  0  0  0  0  0  0  0  0  0
  141.3490   78.6660  222.3260 C   0  0  0  0  0  0  0  0  0  0  0  0
  142.5370   79.3820  222.3750 C   0  0  0  0  0  0  0  0  0  0  0  0
  142.6310   80.5950  223.0210 C   0  0  0  0  0  0  0  0  0  0  0  0
  141.5350   81.1530  223.6550 C   0  0  0  0  0  0  0  0  0  0  0  0
  140.3550   80.4380  223.6040 C   0  0  0  0  0  0  0  0  0  0  0  0
  139.2270   80.9660  224.2300 O   0  0  0  0  0  0  0  0  0  0  0  0
  137.9340   80.9410  223.6710 C   0  0  0  0  0  0  0  0  0  0  0  0
  137.4860   79.6210  223.7370 F   0  0  0  0  0  0  0  0  0  0  0  0
  137.8710   81.3290  222.3660 F   0  0  0  0  0  0  0  0  0  0  0  0
  137.1370   81.6980  224.5170 F   0  0  0  0  0  0  0  0  0  0  0  0
  140.2690   79.2070  222.9440 C   0  0  0  0  0  0  0  0  0  0  0  0
  140.2290   71.5750  223.6360 C   0  0  0  0  0  0  0  0  0  0  0  0
  139.5820   70.3810  223.4530 C   0  0  0  0  0  0  0  0  0  0  0  0
  139.3940   69.5080  224.5260 C   0  0  0  0  0  0  0  0  0  0  0  0
  139.8770   69.8780  225.7730 C   0  0  0  0  0  0  0  0  0  0  0  0
  139.7320   69.0700  226.8910 C   0  0  0  0  0  0  0  0  0  0  0  0
  140.2250   69.4640  228.1330 C   0  0  0  0  0  0  0  0  0  0  0  0
  140.8720   70.6760  228.2760 C   0  0  0  0  0  0  0  0  0  0  0  0
  141.0020   71.4610  227.1400 C   0  0  0  0  0  0  0  0  0  0  0  0
  140.5160   71.0730  225.9200 C   0  0  0  0  0  0  0  0  0  0  0  0
  140.6810   71.8880  224.8700 N   0  0  0  0  0  0  0  0  0  0  0  0
  138.7350   73.6690  223.0550 H   0  0  0  0  0  0  0  0  0  0  0  0
  140.7029   74.5611  220.9390 H   0  0  0  0  0  0  0  0  0  0  0  0
  138.9847   74.2144  220.4506 H   0  0  0  0  0  0  0  0  0  0  0  0
  139.0864   77.4968  219.3698 H   0  0  0  0  0  0  0  0  0  0  0  0
  139.0567   78.7766  220.6008 H   0  0  0  0  0  0  0  0  0  0  0  0
  140.9960   78.4553  218.5132 H   0  0  0  0  0  0  0  0  0  0  0  0
  141.1384   79.5853  219.8352 H   0  0  0  0  0  0  0  0  0  0  0  0
  142.0948   76.6615  219.6754 H   0  0  0  0  0  0  0  0  0  0  0  0
  143.0211   78.0089  220.2585 H   0  0  0  0  0  0  0  0  0  0  0  0
  141.9005   76.6642  222.2522 H   0  0  0  0  0  0  0  0  0  0  0  0
  143.4300   78.9686  221.8834 H   0  0  0  0  0  0  0  0  0  0  0  0
  143.5928   81.1286  223.0330 H   0  0  0  0  0  0  0  0  0  0  0  0
  141.6007   82.1202  224.1749 H   0  0  0  0  0  0  0  0  0  0  0  0
  139.3097   78.6689  222.9259 H   0  0  0  0  0  0  0  0  0  0  0  0
  139.2086   70.1088  222.4548 H   0  0  0  0  0  0  0  0  0  0  0  0
  138.8747   68.5485  224.3861 H   0  0  0  0  0  0  0  0  0  0  0  0
  139.2190   68.1017  226.7954 H   0  0  0  0  0  0  0  0  0  0  0  0
  140.0983   68.8058  229.0052 H   0  0  0  0  0  0  0  0  0  0  0  0
  141.2670   71.0044  229.2487 H   0  0  0  0  0  0  0  0  0  0  0  0
  141.5143   72.4309  227.2221 H   0  0  0  0  0  0  0  0  0  0  0  0
  1  2  2  0
  2  3  1  0
  3  4  1  0
  4  5  1  0
  5  6  2  0
  5  7  1  0
  7  8  1  0
  8  9  1  0
  9 10  1  0
 10 11  1  0
 11 12  1  0
 12 13  2  0
 13 14  1  0
 14 15  2  0
 15 16  1  0
 16 17  1  0
 17 18  1  0
 18 19  1  0
 18 20  1  0
 18 21  1  0
 16 22  2  0
  2 23  1  0
 23 24  2  0
 24 25  1  0
 25 26  2  0
 26 27  1  0
 27 28  2  0
 28 29  1  0
 29 30  2  0
 30 31  1  0
 31 32  2  0
 11  7  1  0
 22 12  1  0
 32 23  1  0
 31 26  1  0
  3 33  1  0
  4 34  1  0
  4 35  1  0
  8 36  1  0
  8 37  1  0
  9 38  1  0
  9 39  1  0
 10 40  1  0
 10 41  1  0
 11 42  1  1
 13 43  1  0
 14 44  1  0
 15 45  1  0
 22 46  1  0
 24 47  1  0
 25 48  1  0
 27 49  1  0
 28 50  1  0
 29 51  1  0
 30 52  1  0
M  END
>  <smiles>  (84) 
O=C(NCC(=O)N1CCCC1c1cccc(OC(F)(F)F)c1)c1ccc2ccccc2n1

>  <score_type>  (84) 
oracle

>  <origin>  (84) 
autodockgpu

>  <m_score__min__energy>  (84) 
-8.7100000000000009

>  <m_primary>  (84) 
energy

>  <rmsd>  (84) 
2.0559106657538857

>  <m_score__min__rmsd>  (84) 
2.0559106657538857

>  <meeko>  (84) 
{"free_energy": -8.71, "intermolecular_energy": -10.8, "internal_energy": -1.49, "cluster_size": 21, "cluster_id": 1, "rank_in_cluster": 2}

>  <energy>  (84) 
-7.85

>  <cluster_rmsd>  (84) 
0.87

>  <cluster>  (84) 
4

$$$$

     RDKit          3D

 52 55  0  0  0  0  0  0  0  0999 V2000
  141.3530   72.0330  221.5270 O   0  0  0  0  0  0  0  0  0  0  0  0
  140.5300   72.3840  222.4190 C   0  0  0  0  0  0  0  0  0  0  0  0
  139.8310   73.6250  222.3230 N   0  0  0  0  0  0  0  0  0  0  0  0
  140.0260   74.5340  221.2150 C   0  0  0  0  0  0  0  0  0  0  0  0
  139.3850   75.8420  221.4370 C   0  0  0  0  0  0  0  0  0  0  0  0
  138.2590   76.0090  221.9580 O   0  0  0  0  0  0  0  0  0  0  0  0
  140.0920   77.0050  221.0310 N   0  0  0  0  0  0  0  0  0  0  0  0
  139.6380   78.0530  220.1200 C   0  0  0  0  0  0  0  0  0  0  0  0
  140.8850   78.7160  219.5600 C   0  0  0  0  0  0  0  0  0  0  0  0
  141.9820   77.8060  220.0640 C   0  0  0  0  0  0  0  0  0  0  0  0
  141.4380   77.4360  221.4220 C   0  0  1  0  0  0  0  0  0  0  0  0
  141.3680   78.6520  222.2610 C   0  0  0  0  0  0  0  0  0  0  0  0
  142.5470   79.3690  222.4110 C   0  0  0  0  0  0  0  0  0  0  0  0
  142.6120   80.5200  223.1630 C   0  0  0  0  0  0  0  0  0  0  0  0
  141.4910   81.0130  223.8090 C   0  0  0  0  0  0  0  0  0  0  0  0
  140.3200   80.2980  223.6590 C   0  0  0  0  0  0  0  0  0  0  0  0
  139.1680   80.7620  224.2940 O   0  0  0  0  0  0  0  0  0  0  0  0
  137.8800   80.7000  223.7270 C   0  0  0  0  0  0  0  0  0  0  0  0
  137.0100   81.3270  224.6200 F   0  0  0  0  0  0  0  0  0  0  0  0
  137.4110   79.4390  223.5140 F   0  0  0  0  0  0  0  0  0  0  0  0
  137.9330   81.4760  222.5770 F   0  0  0  0  0  0  0  0  0  0  0  0
  140.2650   79.1300  222.8910 C   0  0  0  0  0  0  0  0  0  0  0  0
  140.2770   71.5170  223.5770 C   0  0  0  0  0  0  0  0  0  0  0  0
  139.6090   70.3300  223.4280 C   0  0  0  0  0  0  0  0  0  0  0  0
  139.3720   69.5100  224.5340 C   0  0  0  0  0  0  0  0  0  0  0  0
  139.8270   69.9260  225.7760 C   0  0  0  0  0  0  0  0  0  0  0  0
  139.6330   69.1720  226.9250 C   0  0  0  0  0  0  0  0  0  0  0  0
  140.0990   69.6120  228.1620 C   0  0  0  0  0  0  0  0  0  0  0  0
  140.7680   70.8160  228.2690 C   0  0  0  0  0  0  0  0  0  0  0  0
  140.9470   71.5460  227.1040 C   0  0  0  0  0  0  0  0  0  0  0  0
  140.4880   71.1140  225.8890 C   0  0  0  0  0  0  0  0  0  0  0  0
  140.7000   71.8770  224.8090 N   0  0  0  0  0  0  0  0  0  0  0  0
  139.1550   73.8570  223.1100 H   0  0  0  0  0  0  0  0  0  0  0  0
  141.1056   74.6901  221.0729 H   0  0  0  0  0  0  0  0  0  0  0  0
  139.5617   74.0814  220.3264 H   0  0  0  0  0  0  0  0  0  0  0  0
  139.0431   77.6151  219.3049 H   0  0  0  0  0  0  0  0  0  0  0  0
  139.0027   78.7833  220.6426 H   0  0  0  0  0  0  0  0  0  0  0  0
  140.8629   78.7436  218.4606 H   0  0  0  0  0  0  0  0  0  0  0  0
  141.0043   79.7652  219.8681 H   0  0  0  0  0  0  0  0  0  0  0  0
  142.1022   76.9216  219.4210 H   0  0  0  0  0  0  0  0  0  0  0  0
  142.9820   78.2638  220.0824 H   0  0  0  0  0  0  0  0  0  0  0  0
  142.0163   76.6963  221.9951 H   0  0  0  0  0  0  0  0  0  0  0  0
  143.4582   79.0059  221.9131 H   0  0  0  0  0  0  0  0  0  0  0  0
  143.5685   81.0560  223.2520 H   0  0  0  0  0  0  0  0  0  0  0  0
  141.5317   81.9312  224.4133 H   0  0  0  0  0  0  0  0  0  0  0  0
  139.3115   78.5898  222.7961 H   0  0  0  0  0  0  0  0  0  0  0  0
  139.2575   70.0211  222.4325 H   0  0  0  0  0  0  0  0  0  0  0  0
  138.8364   68.5557  224.4220 H   0  0  0  0  0  0  0  0  0  0  0  0
  139.1024   68.2108  226.8578 H   0  0  0  0  0  0  0  0  0  0  0  0
  139.9333   68.9971  229.0589 H   0  0  0  0  0  0  0  0  0  0  0  0
  141.1426   71.1799  229.2371 H   0  0  0  0  0  0  0  0  0  0  0  0
  141.4776   72.5081  227.1581 H   0  0  0  0  0  0  0  0  0  0  0  0
  1  2  2  0
  2  3  1  0
  3  4  1  0
  4  5  1  0
  5  6  2  0
  5  7  1  0
  7  8  1  0
  8  9  1  0
  9 10  1  0
 10 11  1  0
 11 12  1  0
 12 13  2  0
 13 14  1  0
 14 15  2  0
 15 16  1  0
 16 17  1  0
 17 18  1  0
 18 19  1  0
 18 20  1  0
 18 21  1  0
 16 22  2  0
  2 23  1  0
 23 24  2  0
 24 25  1  0
 25 26  2  0
 26 27  1  0
 27 28  2  0
 28 29  1  0
 29 30  2  0
 30 31  1  0
 31 32  2  0
 11  7  1  0
 22 12  1  0
 32 23  1  0
 31 26  1  0
  3 33  1  0
  4 34  1  0
  4 35  1  0
  8 36  1  0
  8 37  1  0
  9 38  1  0
  9 39  1  0
 10 40  1  0
 10 41  1  0
 11 42  1  1
 13 43  1  0
 14 44  1  0
 15 45  1  0
 22 46  1  0
 24 47  1  0
 25 48  1  0
 27 49  1  0
 28 50  1  0
 29 51  1  0
 30 52  1  0
M  END
>  <smiles>  (85) 
O=C(NCC(=O)N1CCCC1c1cccc(OC(F)(F)F)c1)c1ccc2ccccc2n1

>  <score_type>  (85) 
oracle

>  <origin>  (85) 
autodockgpu

>  <m_score__min__energy>  (85) 
-8.7100000000000009

>  <m_primary>  (85) 
energy

>  <rmsd>  (85) 
2.087328980160438

>  <m_score__min__rmsd>  (85) 
2.087328980160438

>  <meeko>  (85) 
{"free_energy": -8.62, "intermolecular_energy": -10.7, "internal_energy": -1.5, "cluster_size": 21, "cluster_id": 1, "rank_in_cluster": 5}

>  <energy>  (85) 
-7.79

>  <cluster_rmsd>  (85) 
0.9

>  <cluster>  (85) 
4

$$$$

     RDKit          3D

 52 55  0  0  0  0  0  0  0  0999 V2000
  141.8830   74.5280  220.5570 O   0  0  0  0  0  0  0  0  0  0  0  0
  141.0080   75.0700  221.2880 C   0  0  0  0  0  0  0  0  0  0  0  0
  140.0210   74.2810  221.9550 N   0  0  0  0  0  0  0  0  0  0  0  0
  139.9730   72.8410  221.8300 C   0  0  0  0  0  0  0  0  0  0  0  0
  138.7190   72.2690  222.3520 C   0  0  0  0  0  0  0  0  0  0  0  0
  137.6480   72.9010  222.4940 O   0  0  0  0  0  0  0  0  0  0  0  0
  138.7200   70.8990  222.7260 N   0  0  0  0  0  0  0  0  0  0  0  0
  139.5370   69.8230  222.1680 C   0  0  0  0  0  0  0  0  0  0  0  0
  138.7970   68.5260  222.4440 C   0  0  0  0  0  0  0  0  0  0  0  0
  137.4690   69.0230  222.9690 C   0  0  0  0  0  0  0  0  0  0  0  0
  137.9130   70.2330  223.7530 C   0  0  1  0  0  0  0  0  0  0  0  0
  138.7660   69.7940  224.8780 C   0  0  0  0  0  0  0  0  0  0  0  0
  138.5570   68.5040  225.3460 C   0  0  0  0  0  0  0  0  0  0  0  0
  139.2900   67.9770  226.3850 C   0  0  0  0  0  0  0  0  0  0  0  0
  140.2740   68.7210  227.0140 C   0  0  0  0  0  0  0  0  0  0  0  0
  140.4780   70.0040  226.5460 C   0  0  0  0  0  0  0  0  0  0  0  0
  141.4620   70.7860  227.1520 O   0  0  0  0  0  0  0  0  0  0  0  0
  141.1850   71.8760  228.0010 C   0  0  0  0  0  0  0  0  0  0  0  0
  142.1260   71.8410  229.0310 F   0  0  0  0  0  0  0  0  0  0  0  0
  139.9500   71.8520  228.5740 F   0  0  0  0  0  0  0  0  0  0  0  0
  141.4290   73.0160  227.2490 F   0  0  0  0  0  0  0  0  0  0  0  0
  139.7290   70.5300  225.4880 C   0  0  0  0  0  0  0  0  0  0  0  0
  140.9880   76.5270  221.4670 C   0  0  0  0  0  0  0  0  0  0  0  0
  141.8250   77.3310  220.7390 C   0  0  0  0  0  0  0  0  0  0  0  0
  141.8010   78.7170  220.9130 C   0  0  0  0  0  0  0  0  0  0  0  0
  140.9140   79.2530  221.8350 C   0  0  0  0  0  0  0  0  0  0  0  0
  140.8260   80.6170  222.0700 C   0  0  0  0  0  0  0  0  0  0  0  0
  139.9270   81.1310  223.0010 C   0  0  0  0  0  0  0  0  0  0  0  0
  139.0990   80.2860  223.7150 C   0  0  0  0  0  0  0  0  0  0  0  0
  139.2100   78.9270  223.4580 C   0  0  0  0  0  0  0  0  0  0  0  0
  140.0950   78.4230  222.5430 C   0  0  0  0  0  0  0  0  0  0  0  0
  140.1420   77.0980  222.3510 N   0  0  0  0  0  0  0  0  0  0  0  0
  139.3140   74.8030  222.5540 H   0  0  0  0  0  0  0  0  0  0  0  0
  140.0652   72.5763  220.7663 H   0  0  0  0  0  0  0  0  0  0  0  0
  140.8011   72.4269  222.4240 H   0  0  0  0  0  0  0  0  0  0  0  0
  139.6623   69.9649  221.0844 H   0  0  0  0  0  0  0  0  0  0  0  0
  140.5392   69.8111  222.6212 H   0  0  0  0  0  0  0  0  0  0  0  0
  138.6673   67.9370  221.5241 H   0  0  0  0  0  0  0  0  0  0  0  0
  139.3241   67.8555  223.1388 H   0  0  0  0  0  0  0  0  0  0  0  0
  136.7871   69.2980  222.1509 H   0  0  0  0  0  0  0  0  0  0  0  0
  136.9033   68.2826  223.5537 H   0  0  0  0  0  0  0  0  0  0  0  0
  137.1156   70.8501  224.1926 H   0  0  0  0  0  0  0  0  0  0  0  0
  137.7819   67.8839  224.8720 H   0  0  0  0  0  0  0  0  0  0  0  0
  139.0910   66.9486  226.7209 H   0  0  0  0  0  0  0  0  0  0  0  0
  140.8645   68.3099  227.8461 H   0  0  0  0  0  0  0  0  0  0  0  0
  139.9239   71.5568  225.1451 H   0  0  0  0  0  0  0  0  0  0  0  0
  142.5198   76.8828  220.0135 H   0  0  0  0  0  0  0  0  0  0  0  0
  142.4703   79.3685  220.3320 H   0  0  0  0  0  0  0  0  0  0  0  0
  141.4777   81.3048  221.5112 H   0  0  0  0  0  0  0  0  0  0  0  0
  139.8757   82.2169  223.1692 H   0  0  0  0  0  0  0  0  0  0  0  0
  138.3832   80.6738  224.4548 H   0  0  0  0  0  0  0  0  0  0  0  0
  138.5632   78.2289  224.0097 H   0  0  0  0  0  0  0  0  0  0  0  0
  1  2  2  0
  2  3  1  0
  3  4  1  0
  4  5  1  0
  5  6  2  0
  5  7  1  0
  7  8  1  0
  8  9  1  0
  9 10  1  0
 10 11  1  0
 11 12  1  0
 12 13  2  0
 13 14  1  0
 14 15  2  0
 15 16  1  0
 16 17  1  0
 17 18  1  0
 18 19  1  0
 18 20  1  0
 18 21  1  0
 16 22  2  0
  2 23  1  0
 23 24  2  0
 24 25  1  0
 25 26  2  0
 26 27  1  0
 27 28  2  0
 28 29  1  0
 29 30  2  0
 30 31  1  0
 31 32  2  0
 11  7  1  0
 22 12  1  0
 32 23  1  0
 31 26  1  0
  3 33  1  0
  4 34  1  0
  4 35  1  0
  8 36  1  0
  8 37  1  0
  9 38  1  0
  9 39  1  0
 10 40  1  0
 10 41  1  0
 11 42  1  1
 13 43  1  0
 14 44  1  0
 15 45  1  0
 22 46  1  0
 24 47  1  0
 25 48  1  0
 27 49  1  0
 28 50  1  0
 29 51  1  0
 30 52  1  0
M  END
>  <smiles>  (86) 
O=C(NCC(=O)N1CCCC1c1cccc(OC(F)(F)F)c1)c1ccc2ccccc2n1

>  <score_type>  (86) 
oracle

>  <origin>  (86) 
autodockgpu

>  <m_score__min__energy>  (86) 
-8.7100000000000009

>  <m_primary>  (86) 
energy

>  <rmsd>  (86) 
8.468948261739124

>  <m_score__min__rmsd>  (86) 
8.468948261739124

>  <meeko>  (86) 
{"free_energy": -7.31, "intermolecular_energy": -9.39, "internal_energy": -1.66, "cluster_size": 3, "cluster_id": 2, "rank_in_cluster": 3}

>  <energy>  (86) 
-7.75

>  <cluster_rmsd>  (86) 
0.85

>  <cluster>  (86) 
4

$$$$

     RDKit          3D

 52 55  0  0  0  0  0  0  0  0999 V2000
  141.0290   71.9120  222.0870 O   0  0  0  0  0  0  0  0  0  0  0  0
  140.0990   71.9370  222.9410 C   0  0  0  0  0  0  0  0  0  0  0  0
  138.8710   72.6140  222.6660 N   0  0  0  0  0  0  0  0  0  0  0  0
  138.6330   73.2960  221.4130 C   0  0  0  0  0  0  0  0  0  0  0  0
  138.2540   74.7080  221.6010 C   0  0  0  0  0  0  0  0  0  0  0  0
  137.1380   75.1020  222.0090 O   0  0  0  0  0  0  0  0  0  0  0  0
  139.2230   75.7010  221.2960 N   0  0  0  0  0  0  0  0  0  0  0  0
  139.2380   76.6100  220.1530 C   0  0  0  0  0  0  0  0  0  0  0  0
  140.6830   77.0310  219.9500 C   0  0  0  0  0  0  0  0  0  0  0  0
  141.4170   76.1190  220.9050 C   0  0  0  0  0  0  0  0  0  0  0  0
  140.4320   76.0550  222.0450 C   0  0  1  0  0  0  0  0  0  0  0  0
  140.2960   77.4010  222.6420 C   0  0  0  0  0  0  0  0  0  0  0  0
  141.4460   77.9550  223.1880 C   0  0  0  0  0  0  0  0  0  0  0  0
  141.4500   79.2030  223.7680 C   0  0  0  0  0  0  0  0  0  0  0  0
  140.2950   79.9640  223.8330 C   0  0  0  0  0  0  0  0  0  0  0  0
  139.1540   79.4100  223.2890 C   0  0  0  0  0  0  0  0  0  0  0  0
  137.9690   80.1450  223.3340 O   0  0  0  0  0  0  0  0  0  0  0  0
  136.7200   79.6480  222.9110 C   0  0  0  0  0  0  0  0  0  0  0  0
  136.5770   78.3770  223.4690 F   0  0  0  0  0  0  0  0  0  0  0  0
  136.5850   79.5200  221.5620 F   0  0  0  0  0  0  0  0  0  0  0  0
  135.7660   80.4720  223.4910 F   0  0  0  0  0  0  0  0  0  0  0  0
  139.1600   78.1410  222.7000 C   0  0  0  0  0  0  0  0  0  0  0  0
  140.2630   71.2690  224.2380 C   0  0  0  0  0  0  0  0  0  0  0  0
  140.9040   71.8990  225.2720 C   0  0  0  0  0  0  0  0  0  0  0  0
  141.0560   71.2580  226.5030 C   0  0  0  0  0  0  0  0  0  0  0  0
  140.5460   69.9780  226.6510 C   0  0  0  0  0  0  0  0  0  0  0  0
  140.6540   69.2700  227.8400 C   0  0  0  0  0  0  0  0  0  0  0  0
  140.1330   67.9850  227.9630 C   0  0  0  0  0  0  0  0  0  0  0  0
  139.4920   67.3850  226.8960 C   0  0  0  0  0  0  0  0  0  0  0  0
  139.3990   68.1170  225.7210 C   0  0  0  0  0  0  0  0  0  0  0  0
  139.9130   69.3800  225.6010 C   0  0  0  0  0  0  0  0  0  0  0  0
  139.7820   70.0220  224.4330 N   0  0  0  0  0  0  0  0  0  0  0  0
  138.1320   72.5960  223.4300 H   0  0  0  0  0  0  0  0  0  0  0  0
  139.5515   73.2549  220.8091 H   0  0  0  0  0  0  0  0  0  0  0  0
  137.7954   72.7895  220.9111 H   0  0  0  0  0  0  0  0  0  0  0  0
  138.8629   76.0967  219.2553 H   0  0  0  0  0  0  0  0  0  0  0  0
  138.5929   77.4827  220.3326 H   0  0  0  0  0  0  0  0  0  0  0  0
  141.0052   76.8640  218.9116 H   0  0  0  0  0  0  0  0  0  0  0  0
  140.8619   78.1005  220.1346 H   0  0  0  0  0  0  0  0  0  0  0  0
  141.5914   75.1265  220.4640 H   0  0  0  0  0  0  0  0  0  0  0  0
  142.4208   76.4682  221.1886 H   0  0  0  0  0  0  0  0  0  0  0  0
  140.6844   75.3743  222.8714 H   0  0  0  0  0  0  0  0  0  0  0  0
  142.3825   77.3788  223.1560 H   0  0  0  0  0  0  0  0  0  0  0  0
  142.3856   79.6023  224.1866 H   0  0  0  0  0  0  0  0  0  0  0  0
  140.2873   80.9619  224.2958 H   0  0  0  0  0  0  0  0  0  0  0  0
  138.2286   77.7365  222.2770 H   0  0  0  0  0  0  0  0  0  0  0  0
  141.3010   72.9152  225.1316 H   0  0  0  0  0  0  0  0  0  0  0  0
  141.5695   71.7582  227.3374 H   0  0  0  0  0  0  0  0  0  0  0  0
  141.1602   69.7324  228.7002 H   0  0  0  0  0  0  0  0  0  0  0  0
  140.2322   67.4439  228.9155 H   0  0  0  0  0  0  0  0  0  0  0  0
  139.0735   66.3708  226.9747 H   0  0  0  0  0  0  0  0  0  0  0  0
  138.8938   67.6659  224.8542 H   0  0  0  0  0  0  0  0  0  0  0  0
  1  2  2  0
  2  3  1  0
  3  4  1  0
  4  5  1  0
  5  6  2  0
  5  7  1  0
  7  8  1  0
  8  9  1  0
  9 10  1  0
 10 11  1  0
 11 12  1  0
 12 13  2  0
 13 14  1  0
 14 15  2  0
 15 16  1  0
 16 17  1  0
 17 18  1  0
 18 19  1  0
 18 20  1  0
 18 21  1  0
 16 22  2  0
  2 23  1  0
 23 24  2  0
 24 25  1  0
 25 26  2  0
 26 27  1  0
 27 28  2  0
 28 29  1  0
 29 30  2  0
 30 31  1  0
 31 32  2  0
 11  7  1  0
 22 12  1  0
 32 23  1  0
 31 26  1  0
  3 33  1  0
  4 34  1  0
  4 35  1  0
  8 36  1  0
  8 37  1  0
  9 38  1  0
  9 39  1  0
 10 40  1  0
 10 41  1  0
 11 42  1  1
 13 43  1  0
 14 44  1  0
 15 45  1  0
 22 46  1  0
 24 47  1  0
 25 48  1  0
 27 49  1  0
 28 50  1  0
 29 51  1  0
 30 52  1  0
M  END
>  <smiles>  (87) 
O=C(NCC(=O)N1CCCC1c1cccc(OC(F)(F)F)c1)c1ccc2ccccc2n1

>  <score_type>  (87) 
oracle

>  <origin>  (87) 
autodockgpu

>  <m_score__min__energy>  (87) 
-8.7100000000000009

>  <m_primary>  (87) 
energy

>  <rmsd>  (87) 
2.9533532536259037

>  <m_score__min__rmsd>  (87) 
2.9533532536259037

>  <meeko>  (87) 
{"free_energy": -7.55, "intermolecular_energy": -9.64, "internal_energy": -1.43, "cluster_size": 21, "cluster_id": 1, "rank_in_cluster": 21}

>  <energy>  (87) 
-7.7

>  <cluster_rmsd>  (87) 
0.93

>  <cluster>  (87) 
4

$$$$

     RDKit          3D

 52 55  0  0  0  0  0  0  0  0999 V2000
  141.3580   72.1820  221.7120 O   0  0  0  0  0  0  0  0  0  0  0  0
  140.3930   72.3810  222.5030 C   0  0  0  0  0  0  0  0  0  0  0  0
  139.4690   73.4470  222.2780 N   0  0  0  0  0  0  0  0  0  0  0  0
  139.5880   74.3410  221.1470 C   0  0  0  0  0  0  0  0  0  0  0  0
  140.6120   75.3800  221.3540 C   0  0  0  0  0  0  0  0  0  0  0  0
  140.7070   76.1000  222.3740 O   0  0  0  0  0  0  0  0  0  0  0  0
  141.5660   75.5860  220.3220 N   0  0  0  0  0  0  0  0  0  0  0  0
  142.4080   76.7610  220.1070 C   0  0  0  0  0  0  0  0  0  0  0  0
  142.7860   76.7630  218.6360 C   0  0  0  0  0  0  0  0  0  0  0  0
  141.9150   75.6590  218.0820 C   0  0  0  0  0  0  0  0  0  0  0  0
  141.9370   74.6810  219.2300 C   0  0  1  0  0  0  0  0  0  0  0  0
  143.3190   74.1860  219.4160 C   0  0  0  0  0  0  0  0  0  0  0  0
  143.7680   74.0850  220.7250 C   0  0  0  0  0  0  0  0  0  0  0  0
  145.0330   73.6340  221.0300 C   0  0  0  0  0  0  0  0  0  0  0  0
  145.9160   73.2600  220.0320 C   0  0  0  0  0  0  0  0  0  0  0  0
  145.4660   73.3610  218.7310 C   0  0  0  0  0  0  0  0  0  0  0  0
  146.3260   72.9930  217.6960 O   0  0  0  0  0  0  0  0  0  0  0  0
  146.1730   73.4150  216.3610 C   0  0  0  0  0  0  0  0  0  0  0  0
  146.3730   74.7960  216.3440 F   0  0  0  0  0  0  0  0  0  0  0  0
  144.9450   73.1720  215.8240 F   0  0  0  0  0  0  0  0  0  0  0  0
  147.2160   72.8310  215.6550 F   0  0  0  0  0  0  0  0  0  0  0  0
  144.1790   73.8200  218.4320 C   0  0  0  0  0  0  0  0  0  0  0  0
  140.2040   71.5170  223.6740 C   0  0  0  0  0  0  0  0  0  0  0  0
  139.5400   70.3230  223.5610 C   0  0  0  0  0  0  0  0  0  0  0  0
  139.3640   69.5050  224.6800 C   0  0  0  0  0  0  0  0  0  0  0  0
  139.8730   69.9290  225.8970 C   0  0  0  0  0  0  0  0  0  0  0  0
  139.7420   69.1780  227.0570 C   0  0  0  0  0  0  0  0  0  0  0  0
  140.2630   69.6260  228.2680 C   0  0  0  0  0  0  0  0  0  0  0  0
  140.9250   70.8360  228.3390 C   0  0  0  0  0  0  0  0  0  0  0  0
  141.0420   71.5640  227.1640 C   0  0  0  0  0  0  0  0  0  0  0  0
  140.5290   71.1230  225.9740 C   0  0  0  0  0  0  0  0  0  0  0  0
  140.6820   71.8840  224.8830 N   0  0  0  0  0  0  0  0  0  0  0  0
  138.6820   73.5560  222.9830 H   0  0  0  0  0  0  0  0  0  0  0  0
  139.8582   73.7516  220.2584 H   0  0  0  0  0  0  0  0  0  0  0  0
  138.6199   74.8471  221.0178 H   0  0  0  0  0  0  0  0  0  0  0  0
  141.8521   77.6767  220.3569 H   0  0  0  0  0  0  0  0  0  0  0  0
  143.3030   76.7290  220.7457 H   0  0  0  0  0  0  0  0  0  0  0  0
  142.5526   77.7295  218.1654 H   0  0  0  0  0  0  0  0  0  0  0  0
  143.8604   76.6109  218.4556 H   0  0  0  0  0  0  0  0  0  0  0  0
  140.8953   76.0142  217.8720 H   0  0  0  0  0  0  0  0  0  0  0  0
  142.2591   75.2444  217.1230 H   0  0  0  0  0  0  0  0  0  0  0  0
  141.2998   73.7905  219.1253 H   0  0  0  0  0  0  0  0  0  0  0  0
  143.0930   74.3740  221.5441 H   0  0  0  0  0  0  0  0  0  0  0  0
  145.3463   73.5701  222.0825 H   0  0  0  0  0  0  0  0  0  0  0  0
  146.9288   72.8992  220.2647 H   0  0  0  0  0  0  0  0  0  0  0  0
  143.8586   73.8854  217.3817 H   0  0  0  0  0  0  0  0  0  0  0  0
  139.1438   70.0074  222.5846 H   0  0  0  0  0  0  0  0  0  0  0  0
  138.8329   68.5453  224.5966 H   0  0  0  0  0  0  0  0  0  0  0  0
  139.2174   68.2119  227.0189 H   0  0  0  0  0  0  0  0  0  0  0  0
  140.1466   69.0125  229.1736 H   0  0  0  0  0  0  0  0  0  0  0  0
  141.3418   71.2067  229.2871 H   0  0  0  0  0  0  0  0  0  0  0  0
  141.5661   72.5308  227.1895 H   0  0  0  0  0  0  0  0  0  0  0  0
  1  2  2  0
  2  3  1  0
  3  4  1  0
  4  5  1  0
  5  6  2  0
  5  7  1  0
  7  8  1  0
  8  9  1  0
  9 10  1  0
 10 11  1  0
 11 12  1  0
 12 13  2  0
 13 14  1  0
 14 15  2  0
 15 16  1  0
 16 17  1  0
 17 18  1  0
 18 19  1  0
 18 20  1  0
 18 21  1  0
 16 22  2  0
  2 23  1  0
 23 24  2  0
 24 25  1  0
 25 26  2  0
 26 27  1  0
 27 28  2  0
 28 29  1  0
 29 30  2  0
 30 31  1  0
 31 32  2  0
 11  7  1  0
 22 12  1  0
 32 23  1  0
 31 26  1  0
  3 33  1  0
  4 34  1  0
  4 35  1  0
  8 36  1  0
  8 37  1  0
  9 38  1  0
  9 39  1  0
 10 40  1  0
 10 41  1  0
 11 42  1  6
 13 43  1  0
 14 44  1  0
 15 45  1  0
 22 46  1  0
 24 47  1  0
 25 48  1  0
 27 49  1  0
 28 50  1  0
 29 51  1  0
 30 52  1  0
M  END
>  <smiles>  (88) 
O=C(NCC(=O)N1CCCC1c1cccc(OC(F)(F)F)c1)c1ccc2ccccc2n1

>  <score_type>  (88) 
oracle

>  <origin>  (88) 
autodockgpu

>  <m_score__min__energy>  (88) 
-8.7100000000000009

>  <m_primary>  (88) 
energy

>  <rmsd>  (88) 
2.2285127094376773

>  <m_score__min__rmsd>  (88) 
2.2285127094376773

>  <meeko>  (88) 
{"free_energy": -8.56, "intermolecular_energy": -10.65, "internal_energy": -1.64, "cluster_size": 5, "cluster_id": 3, "rank_in_cluster": 1}

>  <energy>  (88) 
-7.63

>  <cluster_rmsd>  (88) 
0.89

>  <cluster>  (88) 
4

$$$$

     RDKit          3D

 52 55  0  0  0  0  0  0  0  0999 V2000
  140.7320   77.8310  217.8730 O   0  0  0  0  0  0  0  0  0  0  0  0
  141.8510   77.6440  218.4290 C   0  0  0  0  0  0  0  0  0  0  0  0
  142.8210   78.6900  218.4910 N   0  0  0  0  0  0  0  0  0  0  0  0
  142.5770   80.0000  217.9280 C   0  0  0  0  0  0  0  0  0  0  0  0
  141.2020   80.4710  218.1690 C   0  0  0  0  0  0  0  0  0  0  0  0
  140.3270   80.6070  217.2850 O   0  0  0  0  0  0  0  0  0  0  0  0
  140.8360   80.7980  219.5020 N   0  0  0  0  0  0  0  0  0  0  0  0
  139.4930   80.8300  220.0760 C   0  0  0  0  0  0  0  0  0  0  0  0
  139.5530   81.7620  221.2740 C   0  0  0  0  0  0  0  0  0  0  0  0
  140.9320   82.3650  221.1390 C   0  0  0  0  0  0  0  0  0  0  0  0
  141.7070   81.1810  220.6180 C   0  0  1  0  0  0  0  0  0  0  0  0
  141.7210   80.1210  221.6500 C   0  0  0  0  0  0  0  0  0  0  0  0
  142.1770   80.4890  222.9080 C   0  0  0  0  0  0  0  0  0  0  0  0
  142.2340   79.5950  223.9540 C   0  0  0  0  0  0  0  0  0  0  0  0
  141.8360   78.2800  223.7900 C   0  0  0  0  0  0  0  0  0  0  0  0
  141.3840   77.9170  222.5370 C   0  0  0  0  0  0  0  0  0  0  0  0
  140.9730   76.6000  222.3320 O   0  0  0  0  0  0  0  0  0  0  0  0
  139.6380   76.2230  222.0880 C   0  0  0  0  0  0  0  0  0  0  0  0
  139.2890   76.7390  220.8390 F   0  0  0  0  0  0  0  0  0  0  0  0
  138.7370   76.6980  222.9930 F   0  0  0  0  0  0  0  0  0  0  0  0
  139.6450   74.8390  221.9830 F   0  0  0  0  0  0  0  0  0  0  0  0
  141.3280   78.8330  221.4820 C   0  0  0  0  0  0  0  0  0  0  0  0
  142.1760   76.3420  219.0240 C   0  0  0  0  0  0  0  0  0  0  0  0
  141.2230   75.3610  219.1220 C   0  0  0  0  0  0  0  0  0  0  0  0
  141.5390   74.1240  219.6890 C   0  0  0  0  0  0  0  0  0  0  0  0
  142.8310   73.9170  220.1460 C   0  0  0  0  0  0  0  0  0  0  0  0
  143.2280   72.7180  220.7220 C   0  0  0  0  0  0  0  0  0  0  0  0
  144.5330   72.5340  221.1750 C   0  0  0  0  0  0  0  0  0  0  0  0
  145.4630   73.5480  221.0580 C   0  0  0  0  0  0  0  0  0  0  0  0
  145.0370   74.7340  220.4770 C   0  0  0  0  0  0  0  0  0  0  0  0
  143.7550   74.9140  220.0340 C   0  0  0  0  0  0  0  0  0  0  0  0
  143.4200   76.0890  219.4840 N   0  0  0  0  0  0  0  0  0  0  0  0
  143.7420   78.4630  218.9730 H   0  0  0  0  0  0  0  0  0  0  0  0
  143.2793   80.7151  218.3813 H   0  0  0  0  0  0  0  0  0  0  0  0
  142.7193   79.9276  216.8396 H   0  0  0  0  0  0  0  0  0  0  0  0
  138.7732   81.2097  219.3359 H   0  0  0  0  0  0  0  0  0  0  0  0
  139.1657   79.8230  220.3739 H   0  0  0  0  0  0  0  0  0  0  0  0
  138.7723   82.5349  221.2178 H   0  0  0  0  0  0  0  0  0  0  0  0
  139.3838   81.2565  222.2362 H   0  0  0  0  0  0  0  0  0  0  0  0
  140.9403   83.2009  220.4240 H   0  0  0  0  0  0  0  0  0  0  0  0
  141.3324   82.7994  222.0669 H   0  0  0  0  0  0  0  0  0  0  0  0
  142.7574   81.3651  220.3482 H   0  0  0  0  0  0  0  0  0  0  0  0
  142.5028   81.5263  223.0747 H   0  0  0  0  0  0  0  0  0  0  0  0
  142.6015   79.9314  224.9347 H   0  0  0  0  0  0  0  0  0  0  0  0
  141.8778   77.5579  224.6188 H   0  0  0  0  0  0  0  0  0  0  0  0
  140.9592   78.5040  220.4993 H   0  0  0  0  0  0  0  0  0  0  0  0
  140.2043   75.5491  218.7522 H   0  0  0  0  0  0  0  0  0  0  0  0
  140.7797   73.3323  219.7709 H   0  0  0  0  0  0  0  0  0  0  0  0
  142.5002   71.8993  220.8226 H   0  0  0  0  0  0  0  0  0  0  0  0
  144.8240   71.5751  221.6286 H   0  0  0  0  0  0  0  0  0  0  0  0
  146.4973   73.4210  221.4103 H   0  0  0  0  0  0  0  0  0  0  0  0
  145.7560   75.5594  220.3687 H   0  0  0  0  0  0  0  0  0  0  0  0
  1  2  2  0
  2  3  1  0
  3  4  1  0
  4  5  1  0
  5  6  2  0
  5  7  1  0
  7  8  1  0
  8  9  1  0
  9 10  1  0
 10 11  1  0
 11 12  1  0
 12 13  2  0
 13 14  1  0
 14 15  2  0
 15 16  1  0
 16 17  1  0
 17 18  1  0
 18 19  1  0
 18 20  1  0
 18 21  1  0
 16 22  2  0
  2 23  1  0
 23 24  2  0
 24 25  1  0
 25 26  2  0
 26 27  1  0
 27 28  2  0
 28 29  1  0
 29 30  2  0
 30 31  1  0
 31 32  2  0
 11  7  1  0
 22 12  1  0
 32 23  1  0
 31 26  1  0
  3 33  1  0
  4 34  1  0
  4 35  1  0
  8 36  1  0
  8 37  1  0
  9 38  1  0
  9 39  1  0
 10 40  1  0
 10 41  1  0
 11 42  1  6
 13 43  1  0
 14 44  1  0
 15 45  1  0
 22 46  1  0
 24 47  1  0
 25 48  1  0
 27 49  1  0
 28 50  1  0
 29 51  1  0
 30 52  1  0
M  END
>  <smiles>  (89) 
O=C(NCC(=O)N1CCCC1c1cccc(OC(F)(F)F)c1)c1ccc2ccccc2n1

>  <score_type>  (89) 
oracle

>  <origin>  (89) 
autodockgpu

>  <m_score__min__energy>  (89) 
-8.7100000000000009

>  <m_primary>  (89) 
energy

>  <rmsd>  (89) 
7.456615441171653

>  <m_score__min__rmsd>  (89) 
7.456615441171653

>  <meeko>  (89) 
{"free_energy": -6.24, "intermolecular_energy": -8.32, "internal_energy": -2.84, "cluster_size": 1, "cluster_id": 13, "rank_in_cluster": 1}

>  <energy>  (89) 
-7.45

>  <cluster_rmsd>  (89) 
1.03

>  <cluster>  (89) 
4

$$$$

     RDKit          3D

 52 55  0  0  0  0  0  0  0  0999 V2000
  141.4330   71.9020  221.5770 O   0  0  0  0  0  0  0  0  0  0  0  0
  140.5100   72.2350  222.3710 C   0  0  0  0  0  0  0  0  0  0  0  0
  139.6940   73.3780  222.1080 N   0  0  0  0  0  0  0  0  0  0  0  0
  139.8800   74.2010  220.9330 C   0  0  0  0  0  0  0  0  0  0  0  0
  140.9920   75.1560  221.0830 C   0  0  0  0  0  0  0  0  0  0  0  0
  141.3780   75.6420  222.1700 O   0  0  0  0  0  0  0  0  0  0  0  0
  141.6820   75.5610  219.9090 N   0  0  0  0  0  0  0  0  0  0  0  0
  142.6040   76.6840  219.7580 C   0  0  0  0  0  0  0  0  0  0  0  0
  142.6050   77.0530  218.2850 C   0  0  0  0  0  0  0  0  0  0  0  0
  141.4750   76.2070  217.7440 C   0  0  0  0  0  0  0  0  0  0  0  0
  141.6390   74.9580  218.5730 C   0  0  1  0  0  0  0  0  0  0  0  0
  142.9380   74.3290  218.2470 C   0  0  0  0  0  0  0  0  0  0  0  0
  143.2090   74.1320  216.9010 C   0  0  0  0  0  0  0  0  0  0  0  0
  144.3850   73.5600  216.4690 C   0  0  0  0  0  0  0  0  0  0  0  0
  145.3540   73.1540  217.3700 C   0  0  0  0  0  0  0  0  0  0  0  0
  145.0810   73.3520  218.7090 C   0  0  0  0  0  0  0  0  0  0  0  0
  146.0320   72.9570  219.6500 O   0  0  0  0  0  0  0  0  0  0  0  0
  145.8960   73.1600  221.0370 C   0  0  0  0  0  0  0  0  0  0  0  0
  147.0480   72.6530  221.6390 F   0  0  0  0  0  0  0  0  0  0  0  0
  144.8280   72.5320  221.6030 F   0  0  0  0  0  0  0  0  0  0  0  0
  145.8960   74.5360  221.2220 F   0  0  0  0  0  0  0  0  0  0  0  0
  143.8830   73.9350  219.1370 C   0  0  0  0  0  0  0  0  0  0  0  0
  140.2570   71.4510  223.5870 C   0  0  0  0  0  0  0  0  0  0  0  0
  139.5700   70.2670  223.5240 C   0  0  0  0  0  0  0  0  0  0  0  0
  139.3340   69.5260  224.6840 C   0  0  0  0  0  0  0  0  0  0  0  0
  139.8090   70.0160  225.8910 C   0  0  0  0  0  0  0  0  0  0  0  0
  139.6170   69.3430  227.0890 C   0  0  0  0  0  0  0  0  0  0  0  0
  140.1040   69.8560  228.2890 C   0  0  0  0  0  0  0  0  0  0  0  0
  140.7920   71.0540  228.3090 C   0  0  0  0  0  0  0  0  0  0  0  0
  140.9680   71.7030  227.0960 C   0  0  0  0  0  0  0  0  0  0  0  0
  140.4880   71.1980  225.9170 C   0  0  0  0  0  0  0  0  0  0  0  0
  140.6990   71.8850  224.7870 N   0  0  0  0  0  0  0  0  0  0  0  0
  138.9360   73.6010  222.8190 H   0  0  0  0  0  0  0  0  0  0  0  0
  140.0902   73.5469  220.0739 H   0  0  0  0  0  0  0  0  0  0  0  0
  138.9583   74.7823  220.7829 H   0  0  0  0  0  0  0  0  0  0  0  0
  142.2637   77.5377  220.3624 H   0  0  0  0  0  0  0  0  0  0  0  0
  143.6146   76.4148  220.0990 H   0  0  0  0  0  0  0  0  0  0  0  0
  142.4045   78.1251  218.1421 H   0  0  0  0  0  0  0  0  0  0  0  0
  143.5687   76.8748  217.7855 H   0  0  0  0  0  0  0  0  0  0  0  0
  140.4969   76.6807  217.9139 H   0  0  0  0  0  0  0  0  0  0  0  0
  141.5088   76.0412  216.6571 H   0  0  0  0  0  0  0  0  0  0  0  0
  140.8747   74.1785  218.4380 H   0  0  0  0  0  0  0  0  0  0  0  0
  142.4617   74.4421  216.1558 H   0  0  0  0  0  0  0  0  0  0  0  0
  144.5568   73.4237  215.3911 H   0  0  0  0  0  0  0  0  0  0  0  0
  146.2963   72.6956  217.0355 H   0  0  0  0  0  0  0  0  0  0  0  0
  143.7045   74.0762  220.2132 H   0  0  0  0  0  0  0  0  0  0  0  0
  139.2026   69.8984  222.5549 H   0  0  0  0  0  0  0  0  0  0  0  0
  138.7834   68.5747  224.6411 H   0  0  0  0  0  0  0  0  0  0  0  0
  139.0709   68.3881  227.0912 H   0  0  0  0  0  0  0  0  0  0  0  0
  139.9399   69.3041  229.2262 H   0  0  0  0  0  0  0  0  0  0  0  0
  141.1834   71.4750  229.2468 H   0  0  0  0  0  0  0  0  0  0  0  0
  141.5131   72.6583  227.0804 H   0  0  0  0  0  0  0  0  0  0  0  0
  1  2  2  0
  2  3  1  0
  3  4  1  0
  4  5  1  0
  5  6  2  0
  5  7  1  0
  7  8  1  0
  8  9  1  0
  9 10  1  0
 10 11  1  0
 11 12  1  0
 12 13  2  0
 13 14  1  0
 14 15  2  0
 15 16  1  0
 16 17  1  0
 17 18  1  0
 18 19  1  0
 18 20  1  0
 18 21  1  0
 16 22  2  0
  2 23  1  0
 23 24  2  0
 24 25  1  0
 25 26  2  0
 26 27  1  0
 27 28  2  0
 28 29  1  0
 29 30  2  0
 30 31  1  0
 31 32  2  0
 11  7  1  0
 22 12  1  0
 32 23  1  0
 31 26  1  0
  3 33  1  0
  4 34  1  0
  4 35  1  0
  8 36  1  0
  8 37  1  0
  9 38  1  0
  9 39  1  0
 10 40  1  0
 10 41  1  0
 11 42  1  1
 13 43  1  0
 14 44  1  0
 15 45  1  0
 22 46  1  0
 24 47  1  0
 25 48  1  0
 27 49  1  0
 28 50  1  0
 29 51  1  0
 30 52  1  0
M  END
>  <smiles>  (90) 
O=C(NCC(=O)N1CCCC1c1cccc(OC(F)(F)F)c1)c1ccc2ccccc2n1

>  <score_type>  (90) 
oracle

>  <origin>  (90) 
autodockgpu

>  <m_score__min__energy>  (90) 
-8.7100000000000009

>  <m_primary>  (90) 
energy

>  <rmsd>  (90) 
2.2322684787203

>  <m_score__min__rmsd>  (90) 
2.2322684787203

>  <meeko>  (90) 
{"free_energy": -7.75, "intermolecular_energy": -9.83, "internal_energy": -1.58, "cluster_size": 5, "cluster_id": 3, "rank_in_cluster": 5}

>  <energy>  (90) 
-7.74

>  <cluster_rmsd>  (90) 
0.0

>  <cluster>  (90) 
5

$$$$

     RDKit          3D

 52 55  0  0  0  0  0  0  0  0999 V2000
  138.3560   70.4370  221.5780 O   0  0  0  0  0  0  0  0  0  0  0  0
  138.7890   71.2090  222.4790 C   0  0  0  0  0  0  0  0  0  0  0  0
  138.8990   72.6140  222.2480 N   0  0  0  0  0  0  0  0  0  0  0  0
  138.5250   73.2190  220.9890 C   0  0  0  0  0  0  0  0  0  0  0  0
  138.1890   74.6470  221.1250 C   0  0  0  0  0  0  0  0  0  0  0  0
  137.0420   75.0950  221.3490 O   0  0  0  0  0  0  0  0  0  0  0  0
  139.2420   75.5920  220.9910 N   0  0  0  0  0  0  0  0  0  0  0  0
  139.4350   76.5660  219.9190 C   0  0  0  0  0  0  0  0  0  0  0  0
  140.9160   76.9030  219.8990 C   0  0  0  0  0  0  0  0  0  0  0  0
  141.4870   75.8890  220.8630 C   0  0  0  0  0  0  0  0  0  0  0  0
  140.3810   75.8210  221.8860 C   0  0  1  0  0  0  0  0  0  0  0  0
  140.2580   77.1350  222.5540 C   0  0  0  0  0  0  0  0  0  0  0  0
  138.9770   77.6560  222.6610 C   0  0  0  0  0  0  0  0  0  0  0  0
  138.7300   78.8690  223.2650 C   0  0  0  0  0  0  0  0  0  0  0  0
  139.7620   79.6260  223.7930 C   0  0  0  0  0  0  0  0  0  0  0  0
  141.0360   79.1040  223.6840 C   0  0  0  0  0  0  0  0  0  0  0  0
  142.1040   79.8350  224.2040 O   0  0  0  0  0  0  0  0  0  0  0  0
  142.7310   80.8990  223.5260 C   0  0  0  0  0  0  0  0  0  0  0  0
  142.6150   82.0270  224.3390 F   0  0  0  0  0  0  0  0  0  0  0  0
  142.1830   81.2070  222.3180 F   0  0  0  0  0  0  0  0  0  0  0  0
  144.0770   80.5670  223.4580 F   0  0  0  0  0  0  0  0  0  0  0  0
  141.2750   77.8700  223.0690 C   0  0  0  0  0  0  0  0  0  0  0  0
  139.1900   70.6730  223.7850 C   0  0  0  0  0  0  0  0  0  0  0  0
  138.8980   69.3790  224.1290 C   0  0  0  0  0  0  0  0  0  0  0  0
  139.2840   68.8750  225.3730 C   0  0  0  0  0  0  0  0  0  0  0  0
  139.9630   69.7120  226.2450 C   0  0  0  0  0  0  0  0  0  0  0  0
  140.3810   69.2920  227.5000 C   0  0  0  0  0  0  0  0  0  0  0  0
  141.0620   70.1520  228.3580 C   0  0  0  0  0  0  0  0  0  0  0  0
  141.3360   71.4500  227.9730 C   0  0  0  0  0  0  0  0  0  0  0  0
  140.9070   71.8410  226.7130 C   0  0  0  0  0  0  0  0  0  0  0  0
  140.2370   70.9950  225.8710 C   0  0  0  0  0  0  0  0  0  0  0  0
  139.8550   71.4470  224.6700 N   0  0  0  0  0  0  0  0  0  0  0  0
  139.2720   73.2040  223.0500 H   0  0  0  0  0  0  0  0  0  0  0  0
  139.3660   73.1202  220.2869 H   0  0  0  0  0  0  0  0  0  0  0  0
  137.6277   72.6988  220.6226 H   0  0  0  0  0  0  0  0  0  0  0  0
  139.1313   76.1335  218.9543 H   0  0  0  0  0  0  0  0  0  0  0  0
  138.8259   77.4664  220.0872 H   0  0  0  0  0  0  0  0  0  0  0  0
  141.3398   76.7784  218.8916 H   0  0  0  0  0  0  0  0  0  0  0  0
  141.1354   77.9454  220.1732 H   0  0  0  0  0  0  0  0  0  0  0  0
  141.6503   74.9155  220.3775 H   0  0  0  0  0  0  0  0  0  0  0  0
  142.4725   76.1542  221.2734 H   0  0  0  0  0  0  0  0  0  0  0  0
  140.5020   75.0770  222.6872 H   0  0  0  0  0  0  0  0  0  0  0  0
  138.1324   77.0829  222.2509 H   0  0  0  0  0  0  0  0  0  0  0  0
  137.6971   79.2419  223.3288 H   0  0  0  0  0  0  0  0  0  0  0  0
  139.5762   80.5966  224.2761 H   0  0  0  0  0  0  0  0  0  0  0  0
  142.3050   77.4896  223.0021 H   0  0  0  0  0  0  0  0  0  0  0  0
  138.3566   68.7338  223.4215 H   0  0  0  0  0  0  0  0  0  0  0  0
  139.0543   67.8368  225.6547 H   0  0  0  0  0  0  0  0  0  0  0  0
  140.1707   68.2616  227.8227 H   0  0  0  0  0  0  0  0  0  0  0  0
  141.3835   69.7957  229.3478 H   0  0  0  0  0  0  0  0  0  0  0  0
  141.8716   72.1441  228.6373 H   0  0  0  0  0  0  0  0  0  0  0  0
  141.1128   72.8685  226.3783 H   0  0  0  0  0  0  0  0  0  0  0  0
  1  2  2  0
  2  3  1  0
  3  4  1  0
  4  5  1  0
  5  6  2  0
  5  7  1  0
  7  8  1  0
  8  9  1  0
  9 10  1  0
 10 11  1  0
 11 12  1  0
 12 13  2  0
 13 14  1  0
 14 15  2  0
 15 16  1  0
 16 17  1  0
 17 18  1  0
 18 19  1  0
 18 20  1  0
 18 21  1  0
 16 22  2  0
  2 23  1  0
 23 24  2  0
 24 25  1  0
 25 26  2  0
 26 27  1  0
 27 28  2  0
 28 29  1  0
 29 30  2  0
 30 31  1  0
 31 32  2  0
 11  7  1  0
 22 12  1  0
 32 23  1  0
 31 26  1  0
  3 33  1  0
  4 34  1  0
  4 35  1  0
  8 36  1  0
  8 37  1  0
  9 38  1  0
  9 39  1  0
 10 40  1  0
 10 41  1  0
 11 42  1  1
 13 43  1  0
 14 44  1  0
 15 45  1  0
 22 46  1  0
 24 47  1  0
 25 48  1  0
 27 49  1  0
 28 50  1  0
 29 51  1  0
 30 52  1  0
M  END
>  <smiles>  (91) 
O=C(NCC(=O)N1CCCC1c1cccc(OC(F)(F)F)c1)c1ccc2ccccc2n1

>  <score_type>  (91) 
oracle

>  <origin>  (91) 
autodockgpu

>  <m_score__min__energy>  (91) 
-8.7100000000000009

>  <m_primary>  (91) 
energy

>  <rmsd>  (91) 
1.8382405572846068

>  <m_score__min__rmsd>  (91) 
1.8382405572846068

>  <meeko>  (91) 
{"free_energy": -8.03, "intermolecular_energy": -10.12, "internal_energy": -1.63, "cluster_size": 10, "cluster_id": 4, "rank_in_cluster": 3}

>  <energy>  (91) 
-7.63

>  <cluster_rmsd>  (91) 
0.0

>  <cluster>  (91) 
6

$$$$

     RDKit          3D

 52 55  0  0  0  0  0  0  0  0999 V2000
  138.1650   70.5720  221.6300 O   0  0  0  0  0  0  0  0  0  0  0  0
  138.6270   71.3140  222.5410 C   0  0  0  0  0  0  0  0  0  0  0  0
  138.7210   72.7280  222.3580 N   0  0  0  0  0  0  0  0  0  0  0  0
  138.2970   73.3740  221.1360 C   0  0  0  0  0  0  0  0  0  0  0  0
  138.0440   74.8150  221.3170 C   0  0  0  0  0  0  0  0  0  0  0  0
  138.8360   75.7280  220.9900 O   0  0  0  0  0  0  0  0  0  0  0  0
  136.8120   75.2030  221.9070 N   0  0  0  0  0  0  0  0  0  0  0  0
  135.4900   75.2180  221.2850 C   0  0  0  0  0  0  0  0  0  0  0  0
  134.6520   76.2170  222.0630 C   0  0  0  0  0  0  0  0  0  0  0  0
  135.6810   76.8620  222.9630 C   0  0  0  0  0  0  0  0  0  0  0  0
  136.5650   75.6790  223.2720 C   0  0  1  0  0  0  0  0  0  0  0  0
  135.7850   74.6800  224.0350 C   0  0  0  0  0  0  0  0  0  0  0  0
  135.8900   73.3620  223.6140 C   0  0  0  0  0  0  0  0  0  0  0  0
  135.2170   72.3390  224.2440 C   0  0  0  0  0  0  0  0  0  0  0  0
  134.4000   72.5870  225.3330 C   0  0  0  0  0  0  0  0  0  0  0  0
  134.2970   73.9000  225.7490 C   0  0  0  0  0  0  0  0  0  0  0  0
  133.4830   74.1920  226.8430 O   0  0  0  0  0  0  0  0  0  0  0  0
  132.7140   75.3660  226.9580 C   0  0  0  0  0  0  0  0  0  0  0  0
  131.8550   75.1870  228.0430 F   0  0  0  0  0  0  0  0  0  0  0  0
  131.9460   75.6520  225.8700 F   0  0  0  0  0  0  0  0  0  0  0  0
  133.6060   76.3750  227.2920 F   0  0  0  0  0  0  0  0  0  0  0  0
  134.9860   74.9320  225.1020 C   0  0  0  0  0  0  0  0  0  0  0  0
  139.0800   70.7340  223.8120 C   0  0  0  0  0  0  0  0  0  0  0  0
  138.8910   69.4040  224.0790 C   0  0  0  0  0  0  0  0  0  0  0  0
  139.3240   68.8580  225.2890 C   0  0  0  0  0  0  0  0  0  0  0  0
  139.9460   69.6920  226.2060 C   0  0  0  0  0  0  0  0  0  0  0  0
  140.4060   69.2310  227.4320 C   0  0  0  0  0  0  0  0  0  0  0  0
  141.0270   70.0890  228.3370 C   0  0  0  0  0  0  0  0  0  0  0  0
  141.1980   71.4250  228.0290 C   0  0  0  0  0  0  0  0  0  0  0  0
  140.7290   71.8560  226.7960 C   0  0  0  0  0  0  0  0  0  0  0  0
  140.1180   71.0120  225.9080 C   0  0  0  0  0  0  0  0  0  0  0  0
  139.6920   71.5040  224.7380 N   0  0  0  0  0  0  0  0  0  0  0  0
  139.1200   73.2910  223.1660 H   0  0  0  0  0  0  0  0  0  0  0  0
  139.0842   73.2466  220.3783 H   0  0  0  0  0  0  0  0  0  0  0  0
  137.3526   72.9061  220.8211 H   0  0  0  0  0  0  0  0  0  0  0  0
  135.5698   75.5285  220.2327 H   0  0  0  0  0  0  0  0  0  0  0  0
  135.0324   74.2179  221.3049 H   0  0  0  0  0  0  0  0  0  0  0  0
  134.1882   76.9561  221.3933 H   0  0  0  0  0  0  0  0  0  0  0  0
  133.8122   75.7606  222.6075 H   0  0  0  0  0  0  0  0  0  0  0  0
  136.2349   77.6562  222.4410 H   0  0  0  0  0  0  0  0  0  0  0  0
  135.2626   77.3624  223.8487 H   0  0  0  0  0  0  0  0  0  0  0  0
  137.4684   75.8853  223.8647 H   0  0  0  0  0  0  0  0  0  0  0  0
  136.5302   73.1272  222.7509 H   0  0  0  0  0  0  0  0  0  0  0  0
  135.3306   71.3087  223.8759 H   0  0  0  0  0  0  0  0  0  0  0  0
  133.8583   71.7769  225.8431 H   0  0  0  0  0  0  0  0  0  0  0  0
  134.8779   75.9648  225.4647 H   0  0  0  0  0  0  0  0  0  0  0  0
  138.3952   68.7622  223.3358 H   0  0  0  0  0  0  0  0  0  0  0  0
  139.1752   67.7907  225.5098 H   0  0  0  0  0  0  0  0  0  0  0  0
  140.2780   68.1702  227.6933 H   0  0  0  0  0  0  0  0  0  0  0  0
  141.3833   69.7005  229.3025 H   0  0  0  0  0  0  0  0  0  0  0  0
  141.6851   72.1175  228.7312 H   0  0  0  0  0  0  0  0  0  0  0  0
  140.8527   72.9142  226.5223 H   0  0  0  0  0  0  0  0  0  0  0  0
  1  2  2  0
  2  3  1  0
  3  4  1  0
  4  5  1  0
  5  6  2  0
  5  7  1  0
  7  8  1  0
  8  9  1  0
  9 10  1  0
 10 11  1  0
 11 12  1  0
 12 13  2  0
 13 14  1  0
 14 15  2  0
 15 16  1  0
 16 17  1  0
 17 18  1  0
 18 19  1  0
 18 20  1  0
 18 21  1  0
 16 22  2  0
  2 23  1  0
 23 24  2  0
 24 25  1  0
 25 26  2  0
 26 27  1  0
 27 28  2  0
 28 29  1  0
 29 30  2  0
 30 31  1  0
 31 32  2  0
 11  7  1  0
 22 12  1  0
 32 23  1  0
 31 26  1  0
  3 33  1  0
  4 34  1  0
  4 35  1  0
  8 36  1  0
  8 37  1  0
  9 38  1  0
  9 39  1  0
 10 40  1  0
 10 41  1  0
 11 42  1  1
 13 43  1  0
 14 44  1  0
 15 45  1  0
 22 46  1  0
 24 47  1  0
 25 48  1  0
 27 49  1  0
 28 50  1  0
 29 51  1  0
 30 52  1  0
M  END
>  <smiles>  (92) 
O=C(NCC(=O)N1CCCC1c1cccc(OC(F)(F)F)c1)c1ccc2ccccc2n1

>  <score_type>  (92) 
oracle

>  <origin>  (92) 
autodockgpu

>  <m_score__min__energy>  (92) 
-8.7100000000000009

>  <m_primary>  (92) 
energy

>  <rmsd>  (92) 
3.596608943359422

>  <m_score__min__rmsd>  (92) 
3.596608943359422

>  <meeko>  (92) 
{"free_energy": -7.15, "intermolecular_energy": -9.24, "internal_energy": -2.12, "cluster_size": 3, "cluster_id": 10, "rank_in_cluster": 2}

>  <energy>  (92) 
-7.54

>  <cluster_rmsd>  (92) 
0.0

>  <cluster>  (92) 
7

$$$$

     RDKit          3D

 52 55  0  0  0  0  0  0  0  0999 V2000
  140.3760   71.5180  221.2300 O   0  0  0  0  0  0  0  0  0  0  0  0
  140.0900   72.0920  222.3180 C   0  0  0  0  0  0  0  0  0  0  0  0
  139.7800   73.4860  222.3500 N   0  0  0  0  0  0  0  0  0  0  0  0
  139.7780   74.3020  221.1560 C   0  0  0  0  0  0  0  0  0  0  0  0
  141.0120   75.0950  221.0110 C   0  0  0  0  0  0  0  0  0  0  0  0
  142.1680   74.6670  221.2260 O   0  0  0  0  0  0  0  0  0  0  0  0
  140.8850   76.4480  220.5970 N   0  0  0  0  0  0  0  0  0  0  0  0
  139.6700   77.1440  220.1810 C   0  0  0  0  0  0  0  0  0  0  0  0
  140.1100   78.3090  219.3110 C   0  0  0  0  0  0  0  0  0  0  0  0
  141.5850   78.0330  219.1330 C   0  0  0  0  0  0  0  0  0  0  0  0
  141.9310   77.4700  220.4880 C   0  0  1  0  0  0  0  0  0  0  0  0
  141.7370   78.5210  221.5110 C   0  0  0  0  0  0  0  0  0  0  0  0
  141.4420   78.0860  222.7960 C   0  0  0  0  0  0  0  0  0  0  0  0
  141.2430   78.9650  223.8360 C   0  0  0  0  0  0  0  0  0  0  0  0
  141.3280   80.3330  223.6410 C   0  0  0  0  0  0  0  0  0  0  0  0
  141.6210   80.7620  222.3620 C   0  0  0  0  0  0  0  0  0  0  0  0
  141.7170   82.1330  222.1230 O   0  0  0  0  0  0  0  0  0  0  0  0
  140.9070   82.8280  221.2040 C   0  0  0  0  0  0  0  0  0  0  0  0
  141.0740   84.1890  221.4600 F   0  0  0  0  0  0  0  0  0  0  0  0
  139.5750   82.5550  221.2980 F   0  0  0  0  0  0  0  0  0  0  0  0
  141.4420   82.5670  219.9510 F   0  0  0  0  0  0  0  0  0  0  0  0
  141.8230   79.8600  221.3120 C   0  0  0  0  0  0  0  0  0  0  0  0
  140.0710   71.3340  223.5750 C   0  0  0  0  0  0  0  0  0  0  0  0
  139.5670   70.0600  223.6140 C   0  0  0  0  0  0  0  0  0  0  0  0
  139.5530   69.3440  224.8130 C   0  0  0  0  0  0  0  0  0  0  0  0
  140.0570   69.9510  225.9530 C   0  0  0  0  0  0  0  0  0  0  0  0
  140.0790   69.3110  227.1840 C   0  0  0  0  0  0  0  0  0  0  0  0
  140.5900   69.9420  228.3150 C   0  0  0  0  0  0  0  0  0  0  0  0
  141.0890   71.2280  228.2330 C   0  0  0  0  0  0  0  0  0  0  0  0
  141.0530   71.8420  226.9890 C   0  0  0  0  0  0  0  0  0  0  0  0
  140.5500   71.2210  225.8780 C   0  0  0  0  0  0  0  0  0  0  0  0
  140.5510   71.8800  224.7130 N   0  0  0  0  0  0  0  0  0  0  0  0
  139.5490   73.9050  223.3000 H   0  0  0  0  0  0  0  0  0  0  0  0
  139.6763   73.6447  220.2799 H   0  0  0  0  0  0  0  0  0  0  0  0
  138.9362   75.0058  221.2341 H   0  0  0  0  0  0  0  0  0  0  0  0
  139.0223   76.4654  219.6066 H   0  0  0  0  0  0  0  0  0  0  0  0
  139.0973   77.4951  221.0521 H   0  0  0  0  0  0  0  0  0  0  0  0
  139.5841   78.3066  218.3449 H   0  0  0  0  0  0  0  0  0  0  0  0
  139.8943   79.2945  219.7494 H   0  0  0  0  0  0  0  0  0  0  0  0
  141.7664   77.3013  218.3320 H   0  0  0  0  0  0  0  0  0  0  0  0
  142.1806   78.9094  218.8377 H   0  0  0  0  0  0  0  0  0  0  0  0
  142.9589   77.0996  220.6153 H   0  0  0  0  0  0  0  0  0  0  0  0
  141.3650   77.0058  222.9887 H   0  0  0  0  0  0  0  0  0  0  0  0
  141.0127   78.5744  224.8382 H   0  0  0  0  0  0  0  0  0  0  0  0
  141.1697   81.0438  224.4654 H   0  0  0  0  0  0  0  0  0  0  0  0
  142.0556   80.2432  220.3075 H   0  0  0  0  0  0  0  0  0  0  0  0
  139.1717   69.5993  222.6966 H   0  0  0  0  0  0  0  0  0  0  0  0
  139.1509   68.3209  224.8520 H   0  0  0  0  0  0  0  0  0  0  0  0
  139.6858   68.2871  227.2678 H   0  0  0  0  0  0  0  0  0  0  0  0
  140.5965   69.4136  229.2798 H   0  0  0  0  0  0  0  0  0  0  0  0
  141.4970   71.7426  229.1154 H   0  0  0  0  0  0  0  0  0  0  0  0
  141.4432   72.8659  226.8923 H   0  0  0  0  0  0  0  0  0  0  0  0
  1  2  2  0
  2  3  1  0
  3  4  1  0
  4  5  1  0
  5  6  2  0
  5  7  1  0
  7  8  1  0
  8  9  1  0
  9 10  1  0
 10 11  1  0
 11 12  1  0
 12 13  2  0
 13 14  1  0
 14 15  2  0
 15 16  1  0
 16 17  1  0
 17 18  1  0
 18 19  1  0
 18 20  1  0
 18 21  1  0
 16 22  2  0
  2 23  1  0
 23 24  2  0
 24 25  1  0
 25 26  2  0
 26 27  1  0
 27 28  2  0
 28 29  1  0
 29 30  2  0
 30 31  1  0
 31 32  2  0
 11  7  1  0
 22 12  1  0
 32 23  1  0
 31 26  1  0
  3 33  1  0
  4 34  1  0
  4 35  1  0
  8 36  1  0
  8 37  1  0
  9 38  1  0
  9 39  1  0
 10 40  1  0
 10 41  1  0
 11 42  1  6
 13 43  1  0
 14 44  1  0
 15 45  1  0
 22 46  1  0
 24 47  1  0
 25 48  1  0
 27 49  1  0
 28 50  1  0
 29 51  1  0
 30 52  1  0
M  END
>  <smiles>  (93) 
O=C(NCC(=O)N1CCCC1c1cccc(OC(F)(F)F)c1)c1ccc2ccccc2n1

>  <score_type>  (93) 
oracle

>  <origin>  (93) 
autodockgpu

>  <m_score__min__energy>  (93) 
-8.7100000000000009

>  <m_primary>  (93) 
energy

>  <rmsd>  (93) 
1.6676539829826904

>  <m_score__min__rmsd>  (93) 
1.6676539829826904

>  <meeko>  (93) 
{"free_energy": -8.38, "intermolecular_energy": -10.47, "internal_energy": -1.5, "cluster_size": 21, "cluster_id": 1, "rank_in_cluster": 13}

>  <energy>  (93) 
-7.43

>  <cluster_rmsd>  (93) 
0.0

>  <cluster>  (93) 
8

$$$$

     RDKit          3D

 52 55  0  0  0  0  0  0  0  0999 V2000
  141.4380   72.5460  221.9010 O   0  0  0  0  0  0  0  0  0  0  0  0
  140.3860   72.5860  222.6000 C   0  0  0  0  0  0  0  0  0  0  0  0
  139.3730   73.5600  222.3430 N   0  0  0  0  0  0  0  0  0  0  0  0
  139.4960   74.5370  221.2840 C   0  0  0  0  0  0  0  0  0  0  0  0
  139.1330   75.8960  221.7240 C   0  0  0  0  0  0  0  0  0  0  0  0
  138.1770   76.1710  222.4830 O   0  0  0  0  0  0  0  0  0  0  0  0
  139.9220   76.9790  221.2520 N   0  0  0  0  0  0  0  0  0  0  0  0
  139.5510   77.9880  220.2630 C   0  0  0  0  0  0  0  0  0  0  0  0
  140.8480   78.5270  219.6830 C   0  0  0  0  0  0  0  0  0  0  0  0
  141.8740   77.5850  220.2690 C   0  0  0  0  0  0  0  0  0  0  0  0
  141.2880   77.3480  221.6380 C   0  0  1  0  0  0  0  0  0  0  0  0
  141.2860   78.6210  222.3910 C   0  0  0  0  0  0  0  0  0  0  0  0
  142.5010   79.2860  222.4830 C   0  0  0  0  0  0  0  0  0  0  0  0
  142.6300   80.4820  223.1520 C   0  0  0  0  0  0  0  0  0  0  0  0
  141.5410   81.0750  223.7680 C   0  0  0  0  0  0  0  0  0  0  0  0
  140.3350   80.4110  223.6750 C   0  0  0  0  0  0  0  0  0  0  0  0
  139.2130   80.9760  224.2820 O   0  0  0  0  0  0  0  0  0  0  0  0
  137.9120   80.9080  223.7460 C   0  0  0  0  0  0  0  0  0  0  0  0
  137.1020   81.7260  224.5350 F   0  0  0  0  0  0  0  0  0  0  0  0
  137.3610   79.6620  223.7470 F   0  0  0  0  0  0  0  0  0  0  0  0
  137.9890   81.4830  222.4850 F   0  0  0  0  0  0  0  0  0  0  0  0
  140.2140   79.1970  222.9910 C   0  0  0  0  0  0  0  0  0  0  0  0
  140.1860   71.6290  223.6950 C   0  0  0  0  0  0  0  0  0  0  0  0
  139.5020   70.4600  223.4840 C   0  0  0  0  0  0  0  0  0  0  0  0
  139.3150   69.5530  224.5290 C   0  0  0  0  0  0  0  0  0  0  0  0
  139.8350   69.8640  225.7760 C   0  0  0  0  0  0  0  0  0  0  0  0
  139.6950   69.0190  226.8680 C   0  0  0  0  0  0  0  0  0  0  0  0
  140.2260   69.3540  228.1110 C   0  0  0  0  0  0  0  0  0  0  0  0
  140.9090   70.5430  228.2820 C   0  0  0  0  0  0  0  0  0  0  0  0
  141.0350   71.3660  227.1720 C   0  0  0  0  0  0  0  0  0  0  0  0
  140.5110   71.0360  225.9510 C   0  0  0  0  0  0  0  0  0  0  0  0
  140.6740   71.8840  224.9280 N   0  0  0  0  0  0  0  0  0  0  0  0
  138.5150   73.5360  222.9710 H   0  0  0  0  0  0  0  0  0  0  0  0
  140.5383   74.5468  220.9325 H   0  0  0  0  0  0  0  0  0  0  0  0
  138.8009   74.2490  220.4816 H   0  0  0  0  0  0  0  0  0  0  0  0
  138.9401   77.5340  219.4688 H   0  0  0  0  0  0  0  0  0  0  0  0
  138.9575   78.7927  220.7215 H   0  0  0  0  0  0  0  0  0  0  0  0
  140.8440   78.4791  218.5840 H   0  0  0  0  0  0  0  0  0  0  0  0
  141.0326   79.5850  219.9207 H   0  0  0  0  0  0  0  0  0  0  0  0
  141.9438   76.6517  219.6911 H   0  0  0  0  0  0  0  0  0  0  0  0
  142.9020   77.9764  220.2744 H   0  0  0  0  0  0  0  0  0  0  0  0
  141.8086   76.6147  222.2714 H   0  0  0  0  0  0  0  0  0  0  0  0
  143.3882   78.8435  222.0065 H   0  0  0  0  0  0  0  0  0  0  0  0
  143.6128   80.9740  223.1979 H   0  0  0  0  0  0  0  0  0  0  0  0
  141.6329   82.0301  224.3060 H   0  0  0  0  0  0  0  0  0  0  0  0
  139.2336   78.7010  222.9386 H   0  0  0  0  0  0  0  0  0  0  0  0
  139.0982   70.2352  222.4858 H   0  0  0  0  0  0  0  0  0  0  0  0
  138.7674   68.6129  224.3665 H   0  0  0  0  0  0  0  0  0  0  0  0
  139.1551   68.0679  226.7496 H   0  0  0  0  0  0  0  0  0  0  0  0
  140.1010   68.6680  228.9618 H   0  0  0  0  0  0  0  0  0  0  0  0
  141.3346   70.8250  229.2564 H   0  0  0  0  0  0  0  0  0  0  0  0
  141.5756   72.3182  227.2769 H   0  0  0  0  0  0  0  0  0  0  0  0
  1  2  2  0
  2  3  1  0
  3  4  1  0
  4  5  1  0
  5  6  2  0
  5  7  1  0
  7  8  1  0
  8  9  1  0
  9 10  1  0
 10 11  1  0
 11 12  1  0
 12 13  2  0
 13 14  1  0
 14 15  2  0
 15 16  1  0
 16 17  1  0
 17 18  1  0
 18 19  1  0
 18 20  1  0
 18 21  1  0
 16 22  2  0
  2 23  1  0
 23 24  2  0
 24 25  1  0
 25 26  2  0
 26 27  1  0
 27 28  2  0
 28 29  1  0
 29 30  2  0
 30 31  1  0
 31 32  2  0
 11  7  1  0
 22 12  1  0
 32 23  1  0
 31 26  1  0
  3 33  1  0
  4 34  1  0
  4 35  1  0
  8 36  1  0
  8 37  1  0
  9 38  1  0
  9 39  1  0
 10 40  1  0
 10 41  1  0
 11 42  1  1
 13 43  1  0
 14 44  1  0
 15 45  1  0
 22 46  1  0
 24 47  1  0
 25 48  1  0
 27 49  1  0
 28 50  1  0
 29 51  1  0
 30 52  1  0
M  END
>  <smiles>  (94) 
O=C(NCC(=O)N1CCCC1c1cccc(OC(F)(F)F)c1)c1ccc2ccccc2n1

>  <score_type>  (94) 
oracle

>  <origin>  (94) 
autodockgpu

>  <m_score__min__energy>  (94) 
-8.7100000000000009

>  <m_primary>  (94) 
energy

>  <rmsd>  (94) 
2.0652891035979417

>  <m_score__min__rmsd>  (94) 
2.0652891035979417

>  <meeko>  (94) 
{"free_energy": -8.69, "intermolecular_energy": -10.77, "internal_energy": -1.46, "cluster_size": 21, "cluster_id": 1, "rank_in_cluster": 3}

>  <energy>  (94) 
-7.42

>  <cluster_rmsd>  (94) 
0.0

>  <cluster>  (94) 
9

$$$$

     RDKit          3D

 52 55  0  0  0  0  0  0  0  0999 V2000
  137.4630   69.7600  222.0780 O   0  0  0  0  0  0  0  0  0  0  0  0
  137.7350   70.5340  223.0390 C   0  0  0  0  0  0  0  0  0  0  0  0
  137.3470   71.9080  223.0060 N   0  0  0  0  0  0  0  0  0  0  0  0
  136.6320   72.4780  221.8850 C   0  0  0  0  0  0  0  0  0  0  0  0
  135.8410   73.6630  222.2620 C   0  0  0  0  0  0  0  0  0  0  0  0
  135.9840   74.8050  221.7710 O   0  0  0  0  0  0  0  0  0  0  0  0
  134.8430   73.5040  223.2600 N   0  0  0  0  0  0  0  0  0  0  0  0
  133.4010   73.3700  223.0640 C   0  0  0  0  0  0  0  0  0  0  0  0
  132.7420   73.8100  224.3600 C   0  0  0  0  0  0  0  0  0  0  0  0
  133.9100   74.3780  225.1330 C   0  0  0  0  0  0  0  0  0  0  0  0
  135.0100   73.4350  224.7150 C   0  0  1  0  0  0  0  0  0  0  0  0
  134.6940   72.0760  225.2080 C   0  0  0  0  0  0  0  0  0  0  0  0
  134.1690   71.9900  226.4900 C   0  0  0  0  0  0  0  0  0  0  0  0
  133.8310   70.7840  227.0600 C   0  0  0  0  0  0  0  0  0  0  0  0
  134.0030   69.5950  226.3720 C   0  0  0  0  0  0  0  0  0  0  0  0
  134.5260   69.6850  225.0970 C   0  0  0  0  0  0  0  0  0  0  0  0
  134.7150   68.5100  224.3690 O   0  0  0  0  0  0  0  0  0  0  0  0
  134.1950   68.2940  223.0780 C   0  0  0  0  0  0  0  0  0  0  0  0
  134.9100   69.1160  222.2070 F   0  0  0  0  0  0  0  0  0  0  0  0
  132.8750   68.5990  222.9380 F   0  0  0  0  0  0  0  0  0  0  0  0
  134.4990   66.9780  222.7600 F   0  0  0  0  0  0  0  0  0  0  0  0
  134.8650   70.9160  224.5260 C   0  0  0  0  0  0  0  0  0  0  0  0
  138.4580   70.0320  224.2140 C   0  0  0  0  0  0  0  0  0  0  0  0
  138.4830   68.6910  224.4990 C   0  0  0  0  0  0  0  0  0  0  0  0
  139.1740   68.2200  225.6180 C   0  0  0  0  0  0  0  0  0  0  0  0
  139.8280   69.1370  226.4260 C   0  0  0  0  0  0  0  0  0  0  0  0
  140.5370   68.7540  227.5560 C   0  0  0  0  0  0  0  0  0  0  0  0
  141.1860   69.6940  228.3520 C   0  0  0  0  0  0  0  0  0  0  0  0
  141.1370   71.0370  228.0300 C   0  0  0  0  0  0  0  0  0  0  0  0
  140.4220   71.3890  226.8950 C   0  0  0  0  0  0  0  0  0  0  0  0
  139.7830   70.4640  226.1130 C   0  0  0  0  0  0  0  0  0  0  0  0
  139.1130   70.8840  225.0320 N   0  0  0  0  0  0  0  0  0  0  0  0
  137.6080   72.5010  223.8480 H   0  0  0  0  0  0  0  0  0  0  0  0
  137.3604   72.7709  221.1145 H   0  0  0  0  0  0  0  0  0  0  0  0
  135.9328   71.7149  221.5124 H   0  0  0  0  0  0  0  0  0  0  0  0
  133.0700   74.0111  222.2336 H   0  0  0  0  0  0  0  0  0  0  0  0
  133.1301   72.3336  222.8142 H   0  0  0  0  0  0  0  0  0  0  0  0
  131.9739   74.5759  224.1773 H   0  0  0  0  0  0  0  0  0  0  0  0
  132.2156   72.9998  224.8858 H   0  0  0  0  0  0  0  0  0  0  0  0
  134.1287   75.4135  224.8333 H   0  0  0  0  0  0  0  0  0  0  0  0
  133.7507   74.4392  226.2197 H   0  0  0  0  0  0  0  0  0  0  0  0
  136.0206   73.6702  225.0803 H   0  0  0  0  0  0  0  0  0  0  0  0
  134.0186   72.9138  227.0678 H   0  0  0  0  0  0  0  0  0  0  0  0
  133.4173   70.7643  228.0791 H   0  0  0  0  0  0  0  0  0  0  0  0
  133.7362   68.6260  226.8190 H   0  0  0  0  0  0  0  0  0  0  0  0
  135.2773   70.9439  223.5066 H   0  0  0  0  0  0  0  0  0  0  0  0
  137.9562   67.9824  223.8430 H   0  0  0  0  0  0  0  0  0  0  0  0
  139.1986   67.1456  225.8527 H   0  0  0  0  0  0  0  0  0  0  0  0
  140.5870   67.6892  227.8274 H   0  0  0  0  0  0  0  0  0  0  0  0
  141.7413   69.3656  229.2429 H   0  0  0  0  0  0  0  0  0  0  0  0
  141.6431   71.7940  228.6471 H   0  0  0  0  0  0  0  0  0  0  0  0
  140.3661   72.4506  226.6124 H   0  0  0  0  0  0  0  0  0  0  0  0
  1  2  2  0
  2  3  1  0
  3  4  1  0
  4  5  1  0
  5  6  2  0
  5  7  1  0
  7  8  1  0
  8  9  1  0
  9 10  1  0
 10 11  1  0
 11 12  1  0
 12 13  2  0
 13 14  1  0
 14 15  2  0
 15 16  1  0
 16 17  1  0
 17 18  1  0
 18 19  1  0
 18 20  1  0
 18 21  1  0
 16 22  2  0
  2 23  1  0
 23 24  2  0
 24 25  1  0
 25 26  2  0
 26 27  1  0
 27 28  2  0
 28 29  1  0
 29 30  2  0
 30 31  1  0
 31 32  2  0
 11  7  1  0
 22 12  1  0
 32 23  1  0
 31 26  1  0
  3 33  1  0
  4 34  1  0
  4 35  1  0
  8 36  1  0
  8 37  1  0
  9 38  1  0
  9 39  1  0
 10 40  1  0
 10 41  1  0
 11 42  1  6
 13 43  1  0
 14 44  1  0
 15 45  1  0
 22 46  1  0
 24 47  1  0
 25 48  1  0
 27 49  1  0
 28 50  1  0
 29 51  1  0
 30 52  1  0
M  END
>  <smiles>  (95) 
O=C(NCC(=O)N1CCCC1c1cccc(OC(F)(F)F)c1)c1ccc2ccccc2n1

>  <score_type>  (95) 
oracle

>  <origin>  (95) 
autodockgpu

>  <m_score__min__energy>  (95) 
-8.7100000000000009

>  <m_primary>  (95) 
energy

>  <rmsd>  (95) 
5.412158979908503

>  <m_score__min__rmsd>  (95) 
5.412158979908503

>  <meeko>  (95) 
{"free_energy": -6.56, "intermolecular_energy": -8.64, "internal_energy": -2.62, "cluster_size": 1, "cluster_id": 12, "rank_in_cluster": 1}

>  <energy>  (95) 
-7.36

>  <cluster_rmsd>  (95) 
0.0

>  <cluster>  (95) 
10

$$$$

     RDKit          3D

 52 55  0  0  0  0  0  0  0  0999 V2000
  141.4490   72.3470  221.7440 O   0  0  0  0  0  0  0  0  0  0  0  0
  140.4730   72.5080  222.5290 C   0  0  0  0  0  0  0  0  0  0  0  0
  139.5530   73.5850  222.3440 N   0  0  0  0  0  0  0  0  0  0  0  0
  139.6890   74.5340  221.2620 C   0  0  0  0  0  0  0  0  0  0  0  0
  139.2610   75.8920  221.6440 C   0  0  0  0  0  0  0  0  0  0  0  0
  138.2600   76.1560  222.3460 O   0  0  0  0  0  0  0  0  0  0  0  0
  140.0390   76.9870  221.1830 N   0  0  0  0  0  0  0  0  0  0  0  0
  139.6660   77.9890  220.1870 C   0  0  0  0  0  0  0  0  0  0  0  0
  140.9620   78.5490  219.6250 C   0  0  0  0  0  0  0  0  0  0  0  0
  141.9950   77.6250  220.2270 C   0  0  0  0  0  0  0  0  0  0  0  0
  141.3930   77.3790  221.5880 C   0  0  1  0  0  0  0  0  0  0  0  0
  141.3600   78.6530  222.3390 C   0  0  0  0  0  0  0  0  0  0  0  0
  142.5590   79.3450  222.4340 C   0  0  0  0  0  0  0  0  0  0  0  0
  142.6570   80.5450  223.1030 C   0  0  0  0  0  0  0  0  0  0  0  0
  141.5540   81.1140  223.7140 C   0  0  0  0  0  0  0  0  0  0  0  0
  140.3630   80.4220  223.6180 C   0  0  0  0  0  0  0  0  0  0  0  0
  139.2270   80.9620  224.2210 O   0  0  0  0  0  0  0  0  0  0  0  0
  137.9400   80.9210  223.6480 C   0  0  0  0  0  0  0  0  0  0  0  0
  137.1690   81.8780  224.3090 F   0  0  0  0  0  0  0  0  0  0  0  0
  137.3010   79.7250  223.7690 F   0  0  0  0  0  0  0  0  0  0  0  0
  138.0940   81.3410  222.3350 F   0  0  0  0  0  0  0  0  0  0  0  0
  140.2730   79.2040  222.9350 C   0  0  0  0  0  0  0  0  0  0  0  0
  140.2660   71.5860  223.6530 C   0  0  0  0  0  0  0  0  0  0  0  0
  139.5870   70.4090  223.4750 C   0  0  0  0  0  0  0  0  0  0  0  0
  139.3940   69.5360  224.5480 C   0  0  0  0  0  0  0  0  0  0  0  0
  139.9020   69.8900  225.7890 C   0  0  0  0  0  0  0  0  0  0  0  0
  139.7540   69.0810  226.9070 C   0  0  0  0  0  0  0  0  0  0  0  0
  140.2740   69.4580  228.1430 C   0  0  0  0  0  0  0  0  0  0  0  0
  140.9520   70.6540  228.2800 C   0  0  0  0  0  0  0  0  0  0  0  0
  141.0850   71.4410  227.1450 C   0  0  0  0  0  0  0  0  0  0  0  0
  140.5730   71.0690  225.9310 C   0  0  0  0  0  0  0  0  0  0  0  0
  140.7420   71.8840  224.8820 N   0  0  0  0  0  0  0  0  0  0  0  0
  138.7550   73.6600  223.0430 H   0  0  0  0  0  0  0  0  0  0  0  0
  140.7448   74.5702  220.9553 H   0  0  0  0  0  0  0  0  0  0  0  0
  139.0399   74.1982  220.4398 H   0  0  0  0  0  0  0  0  0  0  0  0
  139.0744   77.5241  219.3846 H   0  0  0  0  0  0  0  0  0  0  0  0
  139.0529   78.7843  220.6360 H   0  0  0  0  0  0  0  0  0  0  0  0
  140.9747   78.4998  218.5262 H   0  0  0  0  0  0  0  0  0  0  0  0
  141.1254   79.6102  219.8639 H   0  0  0  0  0  0  0  0  0  0  0  0
  142.0890   76.6925  219.6511 H   0  0  0  0  0  0  0  0  0  0  0  0
  143.0160   78.0338  220.2471 H   0  0  0  0  0  0  0  0  0  0  0  0
  141.9158   76.6546  222.2298 H   0  0  0  0  0  0  0  0  0  0  0  0
  143.4579   78.9227  221.9610 H   0  0  0  0  0  0  0  0  0  0  0  0
  143.6281   81.0593  223.1522 H   0  0  0  0  0  0  0  0  0  0  0  0
  141.6225   82.0718  224.2506 H   0  0  0  0  0  0  0  0  0  0  0  0
  139.3048   78.6847  222.8804 H   0  0  0  0  0  0  0  0  0  0  0  0
  139.1918   70.1504  222.4816 H   0  0  0  0  0  0  0  0  0  0  0  0
  138.8513   68.5890  224.4119 H   0  0  0  0  0  0  0  0  0  0  0  0
  139.2167   68.1255  226.8154 H   0  0  0  0  0  0  0  0  0  0  0  0
  140.1441   68.7999  229.0148 H   0  0  0  0  0  0  0  0  0  0  0  0
  141.3688   70.9690  229.2480 H   0  0  0  0  0  0  0  0  0  0  0  0
  141.6211   72.3983  227.2235 H   0  0  0  0  0  0  0  0  0  0  0  0
  1  2  2  0
  2  3  1  0
  3  4  1  0
  4  5  1  0
  5  6  2  0
  5  7  1  0
  7  8  1  0
  8  9  1  0
  9 10  1  0
 10 11  1  0
 11 12  1  0
 12 13  2  0
 13 14  1  0
 14 15  2  0
 15 16  1  0
 16 17  1  0
 17 18  1  0
 18 19  1  0
 18 20  1  0
 18 21  1  0
 16 22  2  0
  2 23  1  0
 23 24  2  0
 24 25  1  0
 25 26  2  0
 26 27  1  0
 27 28  2  0
 28 29  1  0
 29 30  2  0
 30 31  1  0
 31 32  2  0
 11  7  1  0
 22 12  1  0
 32 23  1  0
 31 26  1  0
  3 33  1  0
  4 34  1  0
  4 35  1  0
  8 36  1  0
  8 37  1  0
  9 38  1  0
  9 39  1  0
 10 40  1  0
 10 41  1  0
 11 42  1  1
 13 43  1  0
 14 44  1  0
 15 45  1  0
 22 46  1  0
 24 47  1  0
 25 48  1  0
 27 49  1  0
 28 50  1  0
 29 51  1  0
 30 52  1  0
M  END
>  <smiles>  (96) 
O=C(NCC(=O)N1CCCC1c1cccc(OC(F)(F)F)c1)c1ccc2ccccc2n1

>  <score_type>  (96) 
oracle

>  <origin>  (96) 
autodockgpu

>  <m_score__min__energy>  (96) 
-8.7100000000000009

>  <m_primary>  (96) 
energy

>  <rmsd>  (96) 
2.073340745888261

>  <m_score__min__rmsd>  (96) 
2.073340745888261

>  <meeko>  (96) 
{"free_energy": -8.71, "intermolecular_energy": -10.8, "internal_energy": -1.49, "cluster_size": 21, "cluster_id": 1, "rank_in_cluster": 1}

>  <energy>  (96) 
-7.15

>  <cluster_rmsd>  (96) 
1.07

>  <cluster>  (96) 
10

$$$$

     RDKit          3D

 52 55  0  0  0  0  0  0  0  0999 V2000
  138.8580   70.8830  221.3810 O   0  0  0  0  0  0  0  0  0  0  0  0
  139.1380   71.5840  222.3940 C   0  0  0  0  0  0  0  0  0  0  0  0
  139.1440   73.0100  222.3180 N   0  0  0  0  0  0  0  0  0  0  0  0
  138.8350   73.7170  221.0950 C   0  0  0  0  0  0  0  0  0  0  0  0
  140.0320   73.9850  220.2790 C   0  0  0  0  0  0  0  0  0  0  0  0
  140.6620   73.1220  219.6270 O   0  0  0  0  0  0  0  0  0  0  0  0
  140.5140   75.3200  220.2250 N   0  0  0  0  0  0  0  0  0  0  0  0
  140.1740   76.3530  219.2480 C   0  0  0  0  0  0  0  0  0  0  0  0
  141.3220   77.3460  219.2460 C   0  0  0  0  0  0  0  0  0  0  0  0
  142.3500   76.6460  220.1050 C   0  0  0  0  0  0  0  0  0  0  0  0
  141.4590   75.9860  221.1270 C   0  0  1  0  0  0  0  0  0  0  0  0
  140.7730   77.0310  221.9170 C   0  0  0  0  0  0  0  0  0  0  0  0
  139.3990   76.8960  222.0590 C   0  0  0  0  0  0  0  0  0  0  0  0
  138.6470   77.8000  222.7740 C   0  0  0  0  0  0  0  0  0  0  0  0
  139.2360   78.8930  223.3850 C   0  0  0  0  0  0  0  0  0  0  0  0
  140.6030   79.0250  223.2410 C   0  0  0  0  0  0  0  0  0  0  0  0
  141.2360   80.1130  223.8430 O   0  0  0  0  0  0  0  0  0  0  0  0
  142.2260   80.8920  223.2130 C   0  0  0  0  0  0  0  0  0  0  0  0
  142.5050   81.9630  224.0620 F   0  0  0  0  0  0  0  0  0  0  0  0
  141.8620   81.4090  222.0070 F   0  0  0  0  0  0  0  0  0  0  0  0
  143.3600   80.0940  223.1570 F   0  0  0  0  0  0  0  0  0  0  0  0
  141.3580   78.0990  222.5140 C   0  0  0  0  0  0  0  0  0  0  0  0
  139.4630   70.9420  223.6730 C   0  0  0  0  0  0  0  0  0  0  0  0
  139.2470   69.6020  223.8570 C   0  0  0  0  0  0  0  0  0  0  0  0
  139.5600   68.9970  225.0770 C   0  0  0  0  0  0  0  0  0  0  0  0
  140.0900   69.7830  226.0880 C   0  0  0  0  0  0  0  0  0  0  0  0
  140.4280   69.2620  227.3300 C   0  0  0  0  0  0  0  0  0  0  0  0
  140.9580   70.0720  228.3310 C   0  0  0  0  0  0  0  0  0  0  0  0
  141.1610   71.4200  228.1050 C   0  0  0  0  0  0  0  0  0  0  0  0
  140.8140   71.9120  226.8540 C   0  0  0  0  0  0  0  0  0  0  0  0
  140.2920   71.1140  225.8720 C   0  0  0  0  0  0  0  0  0  0  0  0
  139.9830   71.6640  224.6900 N   0  0  0  0  0  0  0  0  0  0  0  0
  139.3880   73.5370  223.2090 H   0  0  0  0  0  0  0  0  0  0  0  0
  138.1342   73.1092  220.5039 H   0  0  0  0  0  0  0  0  0  0  0  0
  138.3960   74.6868  221.3720 H   0  0  0  0  0  0  0  0  0  0  0  0
  140.0571   75.9066  218.2495 H   0  0  0  0  0  0  0  0  0  0  0  0
  139.2251   76.8456  219.5069 H   0  0  0  0  0  0  0  0  0  0  0  0
  141.7015   77.5150  218.2275 H   0  0  0  0  0  0  0  0  0  0  0  0
  141.0436   78.3441  219.6151 H   0  0  0  0  0  0  0  0  0  0  0  0
  142.9231   75.9051  219.5283 H   0  0  0  0  0  0  0  0  0  0  0  0
  143.1178   77.3095  220.5297 H   0  0  0  0  0  0  0  0  0  0  0  0
  141.9545   75.3251  221.8534 H   0  0  0  0  0  0  0  0  0  0  0  0
  138.8956   76.0402  221.5855 H   0  0  0  0  0  0  0  0  0  0  0  0
  137.5606   77.6514  222.8612 H   0  0  0  0  0  0  0  0  0  0  0  0
  138.6437   79.6217  223.9579 H   0  0  0  0  0  0  0  0  0  0  0  0
  142.4454   78.2394  222.4249 H   0  0  0  0  0  0  0  0  0  0  0  0
  138.8248   68.9988  223.0398 H   0  0  0  0  0  0  0  0  0  0  0  0
  139.3896   67.9213  225.2315 H   0  0  0  0  0  0  0  0  0  0  0  0
  140.2744   68.1907  227.5266 H   0  0  0  0  0  0  0  0  0  0  0  0
  141.2166   69.6362  229.3073 H   0  0  0  0  0  0  0  0  0  0  0  0
  141.5796   72.0753  228.8830 H   0  0  0  0  0  0  0  0  0  0  0  0
  140.9639   72.9814  226.6445 H   0  0  0  0  0  0  0  0  0  0  0  0
  1  2  2  0
  2  3  1  0
  3  4  1  0
  4  5  1  0
  5  6  2  0
  5  7  1  0
  7  8  1  0
  8  9  1  0
  9 10  1  0
 10 11  1  0
 11 12  1  0
 12 13  2  0
 13 14  1  0
 14 15  2  0
 15 16  1  0
 16 17  1  0
 17 18  1  0
 18 19  1  0
 18 20  1  0
 18 21  1  0
 16 22  2  0
  2 23  1  0
 23 24  2  0
 24 25  1  0
 25 26  2  0
 26 27  1  0
 27 28  2  0
 28 29  1  0
 29 30  2  0
 30 31  1  0
 31 32  2  0
 11  7  1  0
 22 12  1  0
 32 23  1  0
 31 26  1  0
  3 33  1  0
  4 34  1  0
  4 35  1  0
  8 36  1  0
  8 37  1  0
  9 38  1  0
  9 39  1  0
 10 40  1  0
 10 41  1  0
 11 42  1  1
 13 43  1  0
 14 44  1  0
 15 45  1  0
 22 46  1  0
 24 47  1  0
 25 48  1  0
 27 49  1  0
 28 50  1  0
 29 51  1  0
 30 52  1  0
M  END
>  <smiles>  (97) 
O=C(NCC(=O)N1CCCC1c1cccc(OC(F)(F)F)c1)c1ccc2ccccc2n1

>  <score_type>  (97) 
oracle

>  <origin>  (97) 
autodockgpu

>  <m_score__min__energy>  (97) 
-8.7100000000000009

>  <m_primary>  (97) 
energy

>  <rmsd>  (97) 
1.5663219352705027

>  <m_score__min__rmsd>  (97) 
1.5663219352705027

>  <meeko>  (97) 
{"free_energy": -7.89, "intermolecular_energy": -9.98, "internal_energy": -1.64, "cluster_size": 10, "cluster_id": 4, "rank_in_cluster": 4}

>  <energy>  (97) 
-7.14

>  <cluster_rmsd>  (97) 
1.05

>  <cluster>  (97) 
10

$$$$

     RDKit          3D

 52 55  0  0  0  0  0  0  0  0999 V2000
  139.1360   70.6140  221.3330 O   0  0  0  0  0  0  0  0  0  0  0  0
  138.9410   71.2630  222.3990 C   0  0  0  0  0  0  0  0  0  0  0  0
  138.3250   72.5510  222.3700 N   0  0  0  0  0  0  0  0  0  0  0  0
  137.8980   73.1720  221.1350 C   0  0  0  0  0  0  0  0  0  0  0  0
  138.9860   73.2690  220.1460 C   0  0  0  0  0  0  0  0  0  0  0  0
  139.0990   72.5450  219.1320 O   0  0  0  0  0  0  0  0  0  0  0  0
  139.9860   74.2570  220.3540 N   0  0  0  0  0  0  0  0  0  0  0  0
  140.5790   75.1480  219.3600 C   0  0  0  0  0  0  0  0  0  0  0  0
  141.9360   75.5650  219.9030 C   0  0  0  0  0  0  0  0  0  0  0  0
  142.0850   74.6670  221.1090 C   0  0  0  0  0  0  0  0  0  0  0  0
  140.6610   74.6210  221.6040 C   0  0  1  0  0  0  0  0  0  0  0  0
  140.2550   75.9770  222.0340 C   0  0  0  0  0  0  0  0  0  0  0  0
  138.9110   76.2930  221.8970 C   0  0  0  0  0  0  0  0  0  0  0  0
  138.4080   77.5210  222.2650 C   0  0  0  0  0  0  0  0  0  0  0  0
  139.2330   78.5000  222.7910 C   0  0  0  0  0  0  0  0  0  0  0  0
  140.5690   78.1830  222.9260 C   0  0  0  0  0  0  0  0  0  0  0  0
  141.4340   79.1430  223.4530 O   0  0  0  0  0  0  0  0  0  0  0  0
  142.1360   80.0800  222.6710 C   0  0  0  0  0  0  0  0  0  0  0  0
  143.4960   79.8380  222.8660 F   0  0  0  0  0  0  0  0  0  0  0  0
  141.9020   81.3830  222.9960 F   0  0  0  0  0  0  0  0  0  0  0  0
  141.8400   79.7740  221.3500 F   0  0  0  0  0  0  0  0  0  0  0  0
  141.0700   76.9320  222.5500 C   0  0  0  0  0  0  0  0  0  0  0  0
  139.3470   70.7020  223.6940 C   0  0  0  0  0  0  0  0  0  0  0  0
  139.1990   69.3640  223.9530 C   0  0  0  0  0  0  0  0  0  0  0  0
  139.5870   68.8370  225.1860 C   0  0  0  0  0  0  0  0  0  0  0  0
  140.1220   69.6950  226.1350 C   0  0  0  0  0  0  0  0  0  0  0  0
  140.5320   69.2540  227.3850 C   0  0  0  0  0  0  0  0  0  0  0  0
  141.0660   70.1370  228.3210 C   0  0  0  0  0  0  0  0  0  0  0  0
  141.1980   71.4790  228.0200 C   0  0  0  0  0  0  0  0  0  0  0  0
  140.7800   71.8900  226.7630 C   0  0  0  0  0  0  0  0  0  0  0  0
  140.2550   71.0220  225.8440 C   0  0  0  0  0  0  0  0  0  0  0  0
  139.8740   71.4960  224.6510 N   0  0  0  0  0  0  0  0  0  0  0  0
  138.1930   73.0410  223.3040 H   0  0  0  0  0  0  0  0  0  0  0  0
  137.0815   72.5743  220.7036 H   0  0  0  0  0  0  0  0  0  0  0  0
  137.5695   74.1948  221.3716 H   0  0  0  0  0  0  0  0  0  0  0  0
  140.6995   74.6209  218.4021 H   0  0  0  0  0  0  0  0  0  0  0  0
  139.9380   76.0238  219.1806 H   0  0  0  0  0  0  0  0  0  0  0  0
  142.7335   75.3817  219.1679 H   0  0  0  0  0  0  0  0  0  0  0  0
  142.0076   76.6371  220.1384 H   0  0  0  0  0  0  0  0  0  0  0  0
  142.4483   73.6676  220.8273 H   0  0  0  0  0  0  0  0  0  0  0  0
  142.8147   75.0200  221.8526 H   0  0  0  0  0  0  0  0  0  0  0  0
  140.4608   73.9529  222.4547 H   0  0  0  0  0  0  0  0  0  0  0  0
  138.2260   75.5393  221.4816 H   0  0  0  0  0  0  0  0  0  0  0  0
  137.3348   77.7269  222.1391 H   0  0  0  0  0  0  0  0  0  0  0  0
  138.8419   79.4845  223.0875 H   0  0  0  0  0  0  0  0  0  0  0  0
  142.1419   76.7188  222.6746 H   0  0  0  0  0  0  0  0  0  0  0  0
  138.7722   68.7021  223.1851 H   0  0  0  0  0  0  0  0  0  0  0  0
  139.4709   67.7643  225.4002 H   0  0  0  0  0  0  0  0  0  0  0  0
  140.4337   68.1888  227.6414 H   0  0  0  0  0  0  0  0  0  0  0  0
  141.3844   69.7636  229.3055 H   0  0  0  0  0  0  0  0  0  0  0  0
  141.6168   72.1911  228.7463 H   0  0  0  0  0  0  0  0  0  0  0  0
  140.8738   72.9527  226.4947 H   0  0  0  0  0  0  0  0  0  0  0  0
  1  2  2  0
  2  3  1  0
  3  4  1  0
  4  5  1  0
  5  6  2  0
  5  7  1  0
  7  8  1  0
  8  9  1  0
  9 10  1  0
 10 11  1  0
 11 12  1  0
 12 13  2  0
 13 14  1  0
 14 15  2  0
 15 16  1  0
 16 17  1  0
 17 18  1  0
 18 19  1  0
 18 20  1  0
 18 21  1  0
 16 22  2  0
  2 23  1  0
 23 24  2  0
 24 25  1  0
 25 26  2  0
 26 27  1  0
 27 28  2  0
 28 29  1  0
 29 30  2  0
 30 31  1  0
 31 32  2  0
 11  7  1  0
 22 12  1  0
 32 23  1  0
 31 26  1  0
  3 33  1  0
  4 34  1  0
  4 35  1  0
  8 36  1  0
  8 37  1  0
  9 38  1  0
  9 39  1  0
 10 40  1  0
 10 41  1  0
 11 42  1  1
 13 43  1  0
 14 44  1  0
 15 45  1  0
 22 46  1  0
 24 47  1  0
 25 48  1  0
 27 49  1  0
 28 50  1  0
 29 51  1  0
 30 52  1  0
M  END
>  <smiles>  (98) 
O=C(NCC(=O)N1CCCC1c1cccc(OC(F)(F)F)c1)c1ccc2ccccc2n1

>  <score_type>  (98) 
oracle

>  <origin>  (98) 
autodockgpu

>  <m_score__min__energy>  (98) 
-8.7100000000000009

>  <m_primary>  (98) 
energy

>  <rmsd>  (98) 
2.0917389001379427

>  <m_score__min__rmsd>  (98) 
2.0917389001379427

>  <meeko>  (98) 
{"free_energy": -7.45, "intermolecular_energy": -9.54, "internal_energy": -1.82, "cluster_size": 10, "cluster_id": 4, "rank_in_cluster": 10}

>  <energy>  (98) 
-6.94

>  <cluster_rmsd>  (98) 
0.0

>  <cluster>  (98) 
11

$$$$

     RDKit          3D

 52 55  0  0  0  0  0  0  0  0999 V2000
  141.2900   72.2680  221.9190 O   0  0  0  0  0  0  0  0  0  0  0  0
  140.2560   72.2780  222.6450 C   0  0  0  0  0  0  0  0  0  0  0  0
  139.2050   73.2160  222.4090 N   0  0  0  0  0  0  0  0  0  0  0  0
  139.2670   74.1890  221.3420 C   0  0  0  0  0  0  0  0  0  0  0  0
  140.2710   75.2390  221.5920 C   0  0  0  0  0  0  0  0  0  0  0  0
  141.4500   75.0290  221.9550 O   0  0  0  0  0  0  0  0  0  0  0  0
  139.8770   76.5910  221.4100 N   0  0  0  0  0  0  0  0  0  0  0  0
  138.6530   77.2340  221.8830 C   0  0  0  0  0  0  0  0  0  0  0  0
  138.4140   78.4340  220.9820 C   0  0  0  0  0  0  0  0  0  0  0  0
  139.4530   78.2320  219.9020 C   0  0  0  0  0  0  0  0  0  0  0  0
  140.5920   77.6640  220.7120 C   0  0  1  0  0  0  0  0  0  0  0  0
  141.0590   78.6860  221.6730 C   0  0  0  0  0  0  0  0  0  0  0  0
  141.4150   78.2300  222.9350 C   0  0  0  0  0  0  0  0  0  0  0  0
  141.8690   79.0820  223.9170 C   0  0  0  0  0  0  0  0  0  0  0  0
  141.9870   80.4410  223.6840 C   0  0  0  0  0  0  0  0  0  0  0  0
  141.6310   80.8910  222.4280 C   0  0  0  0  0  0  0  0  0  0  0  0
  141.7370   82.2540  222.1520 O   0  0  0  0  0  0  0  0  0  0  0  0
  140.9240   82.9330  221.2240 C   0  0  0  0  0  0  0  0  0  0  0  0
  141.3240   82.5200  219.9520 F   0  0  0  0  0  0  0  0  0  0  0  0
  141.0240   84.2910  221.2640 F   0  0  0  0  0  0  0  0  0  0  0  0
  139.6350   82.4630  221.4310 F   0  0  0  0  0  0  0  0  0  0  0  0
  141.1730   80.0170  221.4360 C   0  0  0  0  0  0  0  0  0  0  0  0
  140.1160   71.3220  223.7500 C   0  0  0  0  0  0  0  0  0  0  0  0
  139.4630   70.1310  223.5650 C   0  0  0  0  0  0  0  0  0  0  0  0
  139.3340   69.2250  224.6210 C   0  0  0  0  0  0  0  0  0  0  0  0
  139.8800   69.5600  225.8500 C   0  0  0  0  0  0  0  0  0  0  0  0
  139.7970   68.7180  226.9500 C   0  0  0  0  0  0  0  0  0  0  0  0
  140.3530   69.0770  228.1760 C   0  0  0  0  0  0  0  0  0  0  0  0
  141.0040   70.2870  228.3210 C   0  0  0  0  0  0  0  0  0  0  0  0
  141.0720   71.1070  227.2030 C   0  0  0  0  0  0  0  0  0  0  0  0
  140.5240   70.7530  226.0000 C   0  0  0  0  0  0  0  0  0  0  0  0
  140.6310   71.6000  224.9680 N   0  0  0  0  0  0  0  0  0  0  0  0
  138.3640   73.1680  223.0590 H   0  0  0  0  0  0  0  0  0  0  0  0
  139.5244   73.6706  220.4066 H   0  0  0  0  0  0  0  0  0  0  0  0
  138.2831   74.6766  221.2772 H   0  0  0  0  0  0  0  0  0  0  0  0
  137.8068   76.5345  221.8152 H   0  0  0  0  0  0  0  0  0  0  0  0
  138.7487   77.5417  222.9347 H   0  0  0  0  0  0  0  0  0  0  0  0
  137.3965   78.4230  220.5641 H   0  0  0  0  0  0  0  0  0  0  0  0
  138.4975   79.4003  221.5009 H   0  0  0  0  0  0  0  0  0  0  0  0
  139.1079   77.5229  219.1352 H   0  0  0  0  0  0  0  0  0  0  0  0
  139.7046   79.1404  219.3350 H   0  0  0  0  0  0  0  0  0  0  0  0
  141.4797   77.3423  220.1477 H   0  0  0  0  0  0  0  0  0  0  0  0
  141.3319   77.1559  223.1572 H   0  0  0  0  0  0  0  0  0  0  0  0
  142.1422   78.6759  224.9021 H   0  0  0  0  0  0  0  0  0  0  0  0
  142.3472   81.1299  224.4622 H   0  0  0  0  0  0  0  0  0  0  0  0
  140.9008   80.4156  220.4476 H   0  0  0  0  0  0  0  0  0  0  0  0
  139.0383   69.8872  222.5800 H   0  0  0  0  0  0  0  0  0  0  0  0
  138.8110   68.2676  224.4800 H   0  0  0  0  0  0  0  0  0  0  0  0
  139.2833   67.7503  226.8522 H   0  0  0  0  0  0  0  0  0  0  0  0
  140.2732   68.3929  229.0337 H   0  0  0  0  0  0  0  0  0  0  0  0
  141.4492   70.5876  229.2809 H   0  0  0  0  0  0  0  0  0  0  0  0
  141.5850   72.0764  227.2871 H   0  0  0  0  0  0  0  0  0  0  0  0
  1  2  2  0
  2  3  1  0
  3  4  1  0
  4  5  1  0
  5  6  2  0
  5  7  1  0
  7  8  1  0
  8  9  1  0
  9 10  1  0
 10 11  1  0
 11 12  1  0
 12 13  2  0
 13 14  1  0
 14 15  2  0
 15 16  1  0
 16 17  1  0
 17 18  1  0
 18 19  1  0
 18 20  1  0
 18 21  1  0
 16 22  2  0
  2 23  1  0
 23 24  2  0
 24 25  1  0
 25 26  2  0
 26 27  1  0
 27 28  2  0
 28 29  1  0
 29 30  2  0
 30 31  1  0
 31 32  2  0
 11  7  1  0
 22 12  1  0
 32 23  1  0
 31 26  1  0
  3 33  1  0
  4 34  1  0
  4 35  1  0
  8 36  1  0
  8 37  1  0
  9 38  1  0
  9 39  1  0
 10 40  1  0
 10 41  1  0
 11 42  1  6
 13 43  1  0
 14 44  1  0
 15 45  1  0
 22 46  1  0
 24 47  1  0
 25 48  1  0
 27 49  1  0
 28 50  1  0
 29 51  1  0
 30 52  1  0
M  END
>  <smiles>  (99) 
O=C(NCC(=O)N1CCCC1c1cccc(OC(F)(F)F)c1)c1ccc2ccccc2n1

>  <score_type>  (99) 
oracle

>  <origin>  (99) 
autodockgpu

>  <m_score__min__energy>  (99) 
-8.7100000000000009

>  <m_primary>  (99) 
energy

>  <rmsd>  (99) 
2.1402922395315853

>  <m_score__min__rmsd>  (99) 
2.1402922395315853

>  <meeko>  (99) 
{"free_energy": -8.6, "intermolecular_energy": -10.69, "internal_energy": -1.31, "cluster_size": 21, "cluster_id": 1, "rank_in_cluster": 6}

>  <energy>  (99) 
-6.56

>  <cluster_rmsd>  (99) 
0.0

>  <cluster>  (99) 
12

$$$$

     RDKit          3D

 52 55  0  0  0  0  0  0  0  0999 V2000
  138.5600   70.8020  221.5140 O   0  0  0  0  0  0  0  0  0  0  0  0
  139.0250   71.5020  222.4580 C   0  0  0  0  0  0  0  0  0  0  0  0
  139.1800   72.9140  222.3150 N   0  0  0  0  0  0  0  0  0  0  0  0
  138.8190   73.6090  221.0990 C   0  0  0  0  0  0  0  0  0  0  0  0
  139.9780   73.8520  220.2210 C   0  0  0  0  0  0  0  0  0  0  0  0
  140.5250   72.9870  219.5020 O   0  0  0  0  0  0  0  0  0  0  0  0
  140.5180   75.1650  220.1850 N   0  0  0  0  0  0  0  0  0  0  0  0
  140.2580   76.2100  219.1980 C   0  0  0  0  0  0  0  0  0  0  0  0
  141.4480   77.1530  219.2360 C   0  0  0  0  0  0  0  0  0  0  0  0
  142.4140   76.4100  220.1300 C   0  0  0  0  0  0  0  0  0  0  0  0
  141.4600   75.7890  221.1200 C   0  0  1  0  0  0  0  0  0  0  0  0
  140.7920   76.8640  221.8860 C   0  0  0  0  0  0  0  0  0  0  0  0
  139.4100   76.7870  221.9830 C   0  0  0  0  0  0  0  0  0  0  0  0
  138.6730   77.7240  222.6720 C   0  0  0  0  0  0  0  0  0  0  0  0
  139.2880   78.7930  223.3010 C   0  0  0  0  0  0  0  0  0  0  0  0
  140.6630   78.8670  223.2020 C   0  0  0  0  0  0  0  0  0  0  0  0
  141.3210   79.9290  223.8230 O   0  0  0  0  0  0  0  0  0  0  0  0
  142.0770   80.8950  223.1320 C   0  0  0  0  0  0  0  0  0  0  0  0
  143.1560   80.2290  222.5490 F   0  0  0  0  0  0  0  0  0  0  0  0
  142.5840   81.8880  223.9150 F   0  0  0  0  0  0  0  0  0  0  0  0
  141.2630   81.3550  222.1060 F   0  0  0  0  0  0  0  0  0  0  0  0
  141.4020   77.9090  222.5010 C   0  0  0  0  0  0  0  0  0  0  0  0
  139.4160   70.8720  223.7250 C   0  0  0  0  0  0  0  0  0  0  0  0
  139.2480   69.5250  223.9170 C   0  0  0  0  0  0  0  0  0  0  0  0
  139.6230   68.9320  225.1240 C   0  0  0  0  0  0  0  0  0  0  0  0
  140.1650   69.7350  226.1160 C   0  0  0  0  0  0  0  0  0  0  0  0
  140.5630   69.2270  227.3450 C   0  0  0  0  0  0  0  0  0  0  0  0
  141.1040   70.0540  228.3250 C   0  0  0  0  0  0  0  0  0  0  0  0
  141.2560   71.4080  228.0920 C   0  0  0  0  0  0  0  0  0  0  0  0
  140.8500   71.8860  226.8550 C   0  0  0  0  0  0  0  0  0  0  0  0
  140.3180   71.0720  225.8920 C   0  0  0  0  0  0  0  0  0  0  0  0
  139.9490   71.6100  224.7230 N   0  0  0  0  0  0  0  0  0  0  0  0
  139.5780   73.4400  223.1490 H   0  0  0  0  0  0  0  0  0  0  0  0
  138.0829   73.0021  220.5513 H   0  0  0  0  0  0  0  0  0  0  0  0
  138.4054   74.5876  221.3841 H   0  0  0  0  0  0  0  0  0  0  0  0
  140.1566   75.7680  218.1958 H   0  0  0  0  0  0  0  0  0  0  0  0
  139.3232   76.7438  219.4242 H   0  0  0  0  0  0  0  0  0  0  0  0
  141.8696   77.3041  218.2313 H   0  0  0  0  0  0  0  0  0  0  0  0
  141.2005   78.1628  219.5952 H   0  0  0  0  0  0  0  0  0  0  0  0
  142.9747   75.6449  219.5731 H   0  0  0  0  0  0  0  0  0  0  0  0
  143.1939   77.0403  220.5821 H   0  0  0  0  0  0  0  0  0  0  0  0
  141.9013   75.1073  221.8620 H   0  0  0  0  0  0  0  0  0  0  0  0
  138.8871   75.9517  221.4944 H   0  0  0  0  0  0  0  0  0  0  0  0
  137.5790   77.6216  222.7234 H   0  0  0  0  0  0  0  0  0  0  0  0
  138.7086   79.5475  223.8533 H   0  0  0  0  0  0  0  0  0  0  0  0
  142.4966   78.0039  222.4470 H   0  0  0  0  0  0  0  0  0  0  0  0
  138.8154   68.9080  223.1156 H   0  0  0  0  0  0  0  0  0  0  0  0
  139.4914   67.8517  225.2845 H   0  0  0  0  0  0  0  0  0  0  0  0
  140.4488   68.1519  227.5479 H   0  0  0  0  0  0  0  0  0  0  0  0
  141.4125   69.6275  229.2909 H   0  0  0  0  0  0  0  0  0  0  0  0
  141.6806   72.0774  228.8547 H   0  0  0  0  0  0  0  0  0  0  0  0
  140.9597   72.9592  226.6399 H   0  0  0  0  0  0  0  0  0  0  0  0
  1  2  2  0
  2  3  1  0
  3  4  1  0
  4  5  1  0
  5  6  2  0
  5  7  1  0
  7  8  1  0
  8  9  1  0
  9 10  1  0
 10 11  1  0
 11 12  1  0
 12 13  2  0
 13 14  1  0
 14 15  2  0
 15 16  1  0
 16 17  1  0
 17 18  1  0
 18 19  1  0
 18 20  1  0
 18 21  1  0
 16 22  2  0
  2 23  1  0
 23 24  2  0
 24 25  1  0
 25 26  2  0
 26 27  1  0
 27 28  2  0
 28 29  1  0
 29 30  2  0
 30 31  1  0
 31 32  2  0
 11  7  1  0
 22 12  1  0
 32 23  1  0
 31 26  1  0
  3 33  1  0
  4 34  1  0
  4 35  1  0
  8 36  1  0
  8 37  1  0
  9 38  1  0
  9 39  1  0
 10 40  1  0
 10 41  1  0
 11 42  1  1
 13 43  1  0
 14 44  1  0
 15 45  1  0
 22 46  1  0
 24 47  1  0
 25 48  1  0
 27 49  1  0
 28 50  1  0
 29 51  1  0
 30 52  1  0
M  END
>  <smiles>  (100) 
O=C(NCC(=O)N1CCCC1c1cccc(OC(F)(F)F)c1)c1ccc2ccccc2n1

>  <score_type>  (100) 
oracle

>  <origin>  (100) 
autodockgpu

>  <m_score__min__energy>  (100) 
-8.7100000000000009

>  <m_primary>  (100) 
energy

>  <rmsd>  (100) 
1.6099896921417167

>  <m_score__min__rmsd>  (100) 
1.6099896921417167

>  <meeko>  (100) 
{"free_energy": -7.7, "intermolecular_energy": -9.79, "internal_energy": -1.68, "cluster_size": 10, "cluster_id": 4, "rank_in_cluster": 8}

>  <energy>  (100) 
-6.24

>  <cluster_rmsd>  (100) 
0.0

>  <cluster>  (100) 
13

$$$$
