
     RDKit          3D

 53 56  0  0  0  0  0  0  0  0999 V2000
  139.9260   71.9820  220.5870 O   0  0  0  0  0  0  0  0  0  0  0  0
  139.8140   72.4630  221.7410 C   0  0  0  0  0  0  0  0  0  0  0  0
  139.6550   73.8340  222.0290 N   0  0  0  0  0  0  0  0  0  0  0  0
  139.6070   74.8090  220.9600 C   0  0  0  0  0  0  0  0  0  0  0  0
  139.7430   76.1610  221.5690 C   0  0  0  0  0  0  0  0  0  0  0  0
  139.2910   76.2930  222.7370 O   0  0  0  0  0  0  0  0  0  0  0  0
  140.3580   77.2540  220.8590 N   0  0  0  0  0  0  0  0  0  0  0  0
  140.7410   77.1150  219.4570 C   0  0  0  0  0  0  0  0  0  0  0  0
  141.3320   78.4940  219.1300 C   0  0  0  0  0  0  0  0  0  0  0  0
  141.8190   78.9950  220.5000 C   0  0  0  0  0  0  0  0  0  0  0  0
  140.6770   78.5710  221.3540 C   0  0  2  0  0  0  0  0  0  0  0  0
  140.9520   78.6420  222.8280 C   0  0  0  0  0  0  0  0  0  0  0  0
  139.8480   79.4500  223.4650 C   0  0  0  0  0  0  0  0  0  0  0  0
  140.1050   80.8940  223.6340 C   0  0  0  0  0  0  0  0  0  0  0  0
  141.4300   81.3560  223.5530 N   0  0  0  0  0  0  0  0  0  0  0  0
  142.4680   80.4380  223.7770 C   0  0  0  0  0  0  0  0  0  0  0  0
  142.3170   79.0660  223.2140 C   0  0  0  0  0  0  0  0  0  0  0  0
  139.8540   71.5280  222.8750 C   0  0  0  0  0  0  0  0  0  0  0  0
  139.3600   70.2380  222.7720 C   0  0  0  0  0  0  0  0  0  0  0  0
  139.3980   69.3510  223.8530 C   0  0  0  0  0  0  0  0  0  0  0  0
  139.9430   69.7850  225.0400 C   0  0  0  0  0  0  0  0  0  0  0  0
  140.0270   68.9810  226.1700 C   0  0  0  0  0  0  0  0  0  0  0  0
  140.5920   69.4870  227.3390 C   0  0  0  0  0  0  0  0  0  0  0  0
  140.6930   68.4750  228.7480 Cl  0  0  0  0  0  0  0  0  0  0  0  0
  141.0770   70.7740  227.4170 C   0  0  0  0  0  0  0  0  0  0  0  0
  140.9950   71.5820  226.2900 C   0  0  0  0  0  0  0  0  0  0  0  0
  140.4330   71.0710  225.1350 C   0  0  0  0  0  0  0  0  0  0  0  0
  140.3720   71.8750  224.0720 N   0  0  0  0  0  0  0  0  0  0  0  0
  139.5690   74.1550  223.0340 H   0  0  0  0  0  0  0  0  0  0  0  0
  140.4324   74.6317  220.2548 H   0  0  0  0  0  0  0  0  0  0  0  0
  138.6574   74.7294  220.4104 H   0  0  0  0  0  0  0  0  0  0  0  0
  141.4913   76.3211  219.3277 H   0  0  0  0  0  0  0  0  0  0  0  0
  139.9038   76.8325  218.8018 H   0  0  0  0  0  0  0  0  0  0  0  0
  142.1681   78.4077  218.4205 H   0  0  0  0  0  0  0  0  0  0  0  0
  140.6105   79.1726  218.6516 H   0  0  0  0  0  0  0  0  0  0  0  0
  142.7575   78.5074  220.8025 H   0  0  0  0  0  0  0  0  0  0  0  0
  142.0544   80.0687  220.5426 H   0  0  0  0  0  0  0  0  0  0  0  0
  139.8183   79.2542  221.2778 H   0  0  0  0  0  0  0  0  0  0  0  0
  140.9424   77.6159  223.2243 H   0  0  0  0  0  0  0  0  0  0  0  0
  138.9498   79.3409  222.8395 H   0  0  0  0  0  0  0  0  0  0  0  0
  139.7444   79.0504  224.4846 H   0  0  0  0  0  0  0  0  0  0  0  0
  139.5306   81.4187  222.8563 H   0  0  0  0  0  0  0  0  0  0  0  0
  139.8132   81.0981  224.6748 H   0  0  0  0  0  0  0  0  0  0  0  0
  141.6300   82.2210  223.0560 H   0  0  0  0  0  0  0  0  0  0  0  0
  143.3850   80.8690  223.3489 H   0  0  0  0  0  0  0  0  0  0  0  0
  142.4764   80.2904  224.8670 H   0  0  0  0  0  0  0  0  0  0  0  0
  142.9494   79.0048  222.3160 H   0  0  0  0  0  0  0  0  0  0  0  0
  142.6045   78.3894  224.0322 H   0  0  0  0  0  0  0  0  0  0  0  0
  138.9276   69.9032  221.8176 H   0  0  0  0  0  0  0  0  0  0  0  0
  139.0012   68.3296  223.7566 H   0  0  0  0  0  0  0  0  0  0  0  0
  139.6487   67.9485  226.1419 H   0  0  0  0  0  0  0  0  0  0  0  0
  141.5190   71.1531  228.3502 H   0  0  0  0  0  0  0  0  0  0  0  0
  141.3723   72.6149  226.3163 H   0  0  0  0  0  0  0  0  0  0  0  0
  1  2  2  0
  2  3  1  0
  3  4  1  0
  4  5  1  0
  5  6  2  0
  5  7  1  0
  7  8  1  0
  8  9  1  0
  9 10  1  0
 10 11  1  0
 11 12  1  0
 12 13  1  0
 13 14  1  0
 14 15  1  0
 15 16  1  0
 16 17  1  0
  2 18  1  0
 18 19  2  0
 19 20  1  0
 20 21  2  0
 21 22  1  0
 22 23  2  0
 23 24  1  0
 23 25  1  0
 25 26  2  0
 26 27  1  0
 27 28  2  0
 11  7  1  0
 17 12  1  0
 28 18  1  0
 27 21  1  0
  3 29  1  0
  4 30  1  0
  4 31  1  0
  8 32  1  0
  8 33  1  0
  9 34  1  0
  9 35  1  0
 10 36  1  0
 10 37  1  0
 11 38  1  1
 12 39  1  0
 13 40  1  0
 13 41  1  0
 14 42  1  0
 14 43  1  0
 15 44  1  0
 16 45  1  0
 16 46  1  0
 17 47  1  0
 17 48  1  0
 19 49  1  0
 20 50  1  0
 22 51  1  0
 25 52  1  0
 26 53  1  0
M  END
>  <smiles>  (1) 
O=C(NCC(=O)N1CCCC1C1CCNCC1)c1ccc2cc(Cl)ccc2n1

>  <score_type>  (1) 
oracle

>  <origin>  (1) 
autodockgpu

>  <m_score__min__energy>  (1) 
-9.0099999999999998

>  <m_primary>  (1) 
energy

>  <rmsd>  (1) 
2.0569074896730175

>  <m_score__min__rmsd>  (1) 
2.0569074896730175

>  <meeko>  (1) 
{"free_energy": -8.53, "intermolecular_energy": -10.02, "internal_energy": -1.92, "cluster_size": 26, "cluster_id": 2, "rank_in_cluster": 10}

>  <energy>  (1) 
-9.01

>  <cluster_rmsd>  (1) 
0.0

>  <cluster>  (1) 
1

$$$$

     RDKit          3D

 53 56  0  0  0  0  0  0  0  0999 V2000
  140.1490   74.0200  222.1260 O   0  0  0  0  0  0  0  0  0  0  0  0
  139.8330   72.8370  221.8510 C   0  0  0  0  0  0  0  0  0  0  0  0
  139.4430   72.3840  220.5740 N   0  0  0  0  0  0  0  0  0  0  0  0
  139.3830   73.3010  219.4550 C   0  0  0  0  0  0  0  0  0  0  0  0
  140.7560   73.4260  218.8950 C   0  0  0  0  0  0  0  0  0  0  0  0
  141.0690   72.6000  217.9970 O   0  0  0  0  0  0  0  0  0  0  0  0
  141.6740   74.4370  219.3570 N   0  0  0  0  0  0  0  0  0  0  0  0
  141.4540   75.8460  219.0450 C   0  0  0  0  0  0  0  0  0  0  0  0
  142.6440   76.5330  219.7300 C   0  0  0  0  0  0  0  0  0  0  0  0
  143.7120   75.4270  219.7620 C   0  0  0  0  0  0  0  0  0  0  0  0
  142.8690   74.2620  220.1460 C   0  0  2  0  0  0  0  0  0  0  0  0
  143.5460   72.9320  219.9810 C   0  0  0  0  0  0  0  0  0  0  0  0
  144.6220   72.8280  221.0340 C   0  0  0  0  0  0  0  0  0  0  0  0
  145.9780   73.2500  220.6290 C   0  0  0  0  0  0  0  0  0  0  0  0
  146.2690   73.3590  219.2590 N   0  0  0  0  0  0  0  0  0  0  0  0
  145.4660   72.6500  218.3520 C   0  0  0  0  0  0  0  0  0  0  0  0
  143.9990   72.6000  218.6110 C   0  0  0  0  0  0  0  0  0  0  0  0
  139.8730   71.8520  222.9420 C   0  0  0  0  0  0  0  0  0  0  0  0
  139.4070   70.5580  222.7710 C   0  0  0  0  0  0  0  0  0  0  0  0
  139.4450   69.6240  223.8120 C   0  0  0  0  0  0  0  0  0  0  0  0
  139.9600   70.0140  225.0270 C   0  0  0  0  0  0  0  0  0  0  0  0
  140.0420   69.1600  226.1200 C   0  0  0  0  0  0  0  0  0  0  0  0
  140.5760   69.6230  227.3210 C   0  0  0  0  0  0  0  0  0  0  0  0
  140.6750   68.5490  228.6840 Cl  0  0  0  0  0  0  0  0  0  0  0  0
  141.0340   70.9140  227.4670 C   0  0  0  0  0  0  0  0  0  0  0  0
  140.9550   71.7710  226.3760 C   0  0  0  0  0  0  0  0  0  0  0  0
  140.4230   71.3030  225.1890 C   0  0  0  0  0  0  0  0  0  0  0  0
  140.3630   72.1540  224.1630 N   0  0  0  0  0  0  0  0  0  0  0  0
  139.1910   71.3660  220.4300 H   0  0  0  0  0  0  0  0  0  0  0  0
  138.6998   72.9097  218.6868 H   0  0  0  0  0  0  0  0  0  0  0  0
  139.0108   74.2829  219.7825 H   0  0  0  0  0  0  0  0  0  0  0  0
  141.4678   76.0186  217.9587 H   0  0  0  0  0  0  0  0  0  0  0  0
  140.4778   76.2214  219.3859 H   0  0  0  0  0  0  0  0  0  0  0  0
  142.9895   77.3992  219.1467 H   0  0  0  0  0  0  0  0  0  0  0  0
  142.4003   76.9286  220.7271 H   0  0  0  0  0  0  0  0  0  0  0  0
  144.1810   75.2842  218.7773 H   0  0  0  0  0  0  0  0  0  0  0  0
  144.5618   75.6239  220.4321 H   0  0  0  0  0  0  0  0  0  0  0  0
  142.6466   74.2405  221.2231 H   0  0  0  0  0  0  0  0  0  0  0  0
  142.7925   72.1459  220.1370 H   0  0  0  0  0  0  0  0  0  0  0  0
  144.3176   73.4525  221.8868 H   0  0  0  0  0  0  0  0  0  0  0  0
  144.7052   71.7553  221.2628 H   0  0  0  0  0  0  0  0  0  0  0  0
  146.1573   74.2381  221.0778 H   0  0  0  0  0  0  0  0  0  0  0  0
  146.6272   72.4326  220.9760 H   0  0  0  0  0  0  0  0  0  0  0  0
  146.8220   74.1450  218.9240 H   0  0  0  0  0  0  0  0  0  0  0  0
  145.6085   73.1070  217.3616 H   0  0  0  0  0  0  0  0  0  0  0  0
  145.7987   71.6058  218.4467 H   0  0  0  0  0  0  0  0  0  0  0  0
  143.5161   73.3078  217.9213 H   0  0  0  0  0  0  0  0  0  0  0  0
  143.7192   71.5462  218.4654 H   0  0  0  0  0  0  0  0  0  0  0  0
  138.9980   70.2585  221.7948 H   0  0  0  0  0  0  0  0  0  0  0  0
  139.0714   68.6003  223.6625 H   0  0  0  0  0  0  0  0  0  0  0  0
  139.6867   68.1222  226.0376 H   0  0  0  0  0  0  0  0  0  0  0  0
  141.4523   71.2582  228.4244 H   0  0  0  0  0  0  0  0  0  0  0  0
  141.3113   72.8086  226.4559 H   0  0  0  0  0  0  0  0  0  0  0  0
  1  2  2  0
  2  3  1  0
  3  4  1  0
  4  5  1  0
  5  6  2  0
  5  7  1  0
  7  8  1  0
  8  9  1  0
  9 10  1  0
 10 11  1  0
 11 12  1  0
 12 13  1  0
 13 14  1  0
 14 15  1  0
 15 16  1  0
 16 17  1  0
  2 18  1  0
 18 19  2  0
 19 20  1  0
 20 21  2  0
 21 22  1  0
 22 23  2  0
 23 24  1  0
 23 25  1  0
 25 26  2  0
 26 27  1  0
 27 28  2  0
 11  7  1  0
 17 12  1  0
 28 18  1  0
 27 21  1  0
  3 29  1  0
  4 30  1  0
  4 31  1  0
  8 32  1  0
  8 33  1  0
  9 34  1  0
  9 35  1  0
 10 36  1  0
 10 37  1  0
 11 38  1  1
 12 39  1  0
 13 40  1  0
 13 41  1  0
 14 42  1  0
 14 43  1  0
 15 44  1  0
 16 45  1  0
 16 46  1  0
 17 47  1  0
 17 48  1  0
 19 49  1  0
 20 50  1  0
 22 51  1  0
 25 52  1  0
 26 53  1  0
M  END
>  <smiles>  (2) 
O=C(NCC(=O)N1CCCC1C1CCNCC1)c1ccc2cc(Cl)ccc2n1

>  <score_type>  (2) 
oracle

>  <origin>  (2) 
autodockgpu

>  <m_score__min__energy>  (2) 
-9.0099999999999998

>  <m_primary>  (2) 
energy

>  <rmsd>  (2) 
2.5815796189181106

>  <m_score__min__rmsd>  (2) 
2.5815796189181106

>  <meeko>  (2) 
{"free_energy": -8.6, "intermolecular_energy": -10.09, "internal_energy": -1.63, "cluster_size": 19, "cluster_id": 1, "rank_in_cluster": 11}

>  <energy>  (2) 
-9.0

>  <cluster_rmsd>  (2) 
0.03

>  <cluster>  (2) 
1

$$$$

     RDKit          3D

 53 56  0  0  0  0  0  0  0  0999 V2000
  140.6580   72.0950  220.6250 O   0  0  0  0  0  0  0  0  0  0  0  0
  140.2730   72.5600  221.7240 C   0  0  0  0  0  0  0  0  0  0  0  0
  139.9370   73.9100  221.9550 N   0  0  0  0  0  0  0  0  0  0  0  0
  140.0200   74.8810  220.8830 C   0  0  0  0  0  0  0  0  0  0  0  0
  141.1810   75.7700  221.1620 C   0  0  0  0  0  0  0  0  0  0  0  0
  141.3780   76.0660  222.3700 O   0  0  0  0  0  0  0  0  0  0  0  0
  142.0300   76.2610  220.1060 N   0  0  0  0  0  0  0  0  0  0  0  0
  141.7020   77.4920  219.3930 C   0  0  0  0  0  0  0  0  0  0  0  0
  142.8580   77.6210  218.3910 C   0  0  0  0  0  0  0  0  0  0  0  0
  143.3130   76.1650  218.1970 C   0  0  0  0  0  0  0  0  0  0  0  0
  143.2540   75.6840  219.6040 C   0  0  2  0  0  0  0  0  0  0  0  0
  143.3550   74.1940  219.7490 C   0  0  0  0  0  0  0  0  0  0  0  0
  144.3540   73.9020  220.8420 C   0  0  0  0  0  0  0  0  0  0  0  0
  145.7470   73.6720  220.4120 C   0  0  0  0  0  0  0  0  0  0  0  0
  145.9950   73.3700  219.0620 N   0  0  0  0  0  0  0  0  0  0  0  0
  144.9400   72.8560  218.2930 C   0  0  0  0  0  0  0  0  0  0  0  0
  143.5810   73.4340  218.4990 C   0  0  0  0  0  0  0  0  0  0  0  0
  140.1670   71.6280  222.8570 C   0  0  0  0  0  0  0  0  0  0  0  0
  139.5800   70.3810  222.7200 C   0  0  0  0  0  0  0  0  0  0  0  0
  139.4790   69.4980  223.8000 C   0  0  0  0  0  0  0  0  0  0  0  0
  139.9790   69.8910  225.0200 C   0  0  0  0  0  0  0  0  0  0  0  0
  139.9280   69.0860  226.1510 C   0  0  0  0  0  0  0  0  0  0  0  0
  140.4540   69.5500  227.3550 C   0  0  0  0  0  0  0  0  0  0  0  0
  140.3860   68.5370  228.7660 Cl  0  0  0  0  0  0  0  0  0  0  0  0
  141.0330   70.7950  227.4670 C   0  0  0  0  0  0  0  0  0  0  0  0
  141.0870   71.6030  226.3390 C   0  0  0  0  0  0  0  0  0  0  0  0
  140.5620   71.1340  225.1490 C   0  0  0  0  0  0  0  0  0  0  0  0
  140.6320   71.9380  224.0860 N   0  0  0  0  0  0  0  0  0  0  0  0
  139.6230   74.2190  222.9170 H   0  0  0  0  0  0  0  0  0  0  0  0
  140.1658   74.3658  219.9221 H   0  0  0  0  0  0  0  0  0  0  0  0
  139.0919   75.4686  220.8246 H   0  0  0  0  0  0  0  0  0  0  0  0
  140.7358   77.4045  218.8745 H   0  0  0  0  0  0  0  0  0  0  0  0
  141.5987   78.3648  220.0544 H   0  0  0  0  0  0  0  0  0  0  0  0
  142.5118   78.0566  217.4421 H   0  0  0  0  0  0  0  0  0  0  0  0
  143.6632   78.2833  218.7417 H   0  0  0  0  0  0  0  0  0  0  0  0
  142.6250   75.6060  217.5457 H   0  0  0  0  0  0  0  0  0  0  0  0
  144.2916   76.0474  217.7087 H   0  0  0  0  0  0  0  0  0  0  0  0
  144.1264   76.0019  220.1938 H   0  0  0  0  0  0  0  0  0  0  0  0
  142.3635   73.8143  220.0368 H   0  0  0  0  0  0  0  0  0  0  0  0
  144.3538   74.7577  221.5332 H   0  0  0  0  0  0  0  0  0  0  0  0
  144.0263   72.9534  221.2923 H   0  0  0  0  0  0  0  0  0  0  0  0
  146.3140   74.5843  220.6493 H   0  0  0  0  0  0  0  0  0  0  0  0
  146.0454   72.7596  220.9492 H   0  0  0  0  0  0  0  0  0  0  0  0
  146.7930   73.7920  218.5910 H   0  0  0  0  0  0  0  0  0  0  0  0
  145.2026   73.0051  217.2353 H   0  0  0  0  0  0  0  0  0  0  0  0
  144.8467   71.8090  218.6171 H   0  0  0  0  0  0  0  0  0  0  0  0
  143.3781   74.1124  217.6572 H   0  0  0  0  0  0  0  0  0  0  0  0
  142.9093   72.5656  218.5680 H   0  0  0  0  0  0  0  0  0  0  0  0
  139.1842   70.0781  221.7394 H   0  0  0  0  0  0  0  0  0  0  0  0
  139.0100   68.5107  223.6766 H   0  0  0  0  0  0  0  0  0  0  0  0
  139.4739   68.0856  226.0963 H   0  0  0  0  0  0  0  0  0  0  0  0
  141.4429   71.1409  228.4274 H   0  0  0  0  0  0  0  0  0  0  0  0
  141.5416   72.6033  226.3915 H   0  0  0  0  0  0  0  0  0  0  0  0
  1  2  2  0
  2  3  1  0
  3  4  1  0
  4  5  1  0
  5  6  2  0
  5  7  1  0
  7  8  1  0
  8  9  1  0
  9 10  1  0
 10 11  1  0
 11 12  1  0
 12 13  1  0
 13 14  1  0
 14 15  1  0
 15 16  1  0
 16 17  1  0
  2 18  1  0
 18 19  2  0
 19 20  1  0
 20 21  2  0
 21 22  1  0
 22 23  2  0
 23 24  1  0
 23 25  1  0
 25 26  2  0
 26 27  1  0
 27 28  2  0
 11  7  1  0
 17 12  1  0
 28 18  1  0
 27 21  1  0
  3 29  1  0
  4 30  1  0
  4 31  1  0
  8 32  1  0
  8 33  1  0
  9 34  1  0
  9 35  1  0
 10 36  1  0
 10 37  1  0
 11 38  1  1
 12 39  1  0
 13 40  1  0
 13 41  1  0
 14 42  1  0
 14 43  1  0
 15 44  1  0
 16 45  1  0
 16 46  1  0
 17 47  1  0
 17 48  1  0
 19 49  1  0
 20 50  1  0
 22 51  1  0
 25 52  1  0
 26 53  1  0
M  END
>  <smiles>  (3) 
O=C(NCC(=O)N1CCCC1C1CCNCC1)c1ccc2cc(Cl)ccc2n1

>  <score_type>  (3) 
oracle

>  <origin>  (3) 
autodockgpu

>  <m_score__min__energy>  (3) 
-9.0099999999999998

>  <m_primary>  (3) 
energy

>  <rmsd>  (3) 
2.274415854235433

>  <m_score__min__rmsd>  (3) 
2.274415854235433

>  <meeko>  (3) 
{"free_energy": -8.89, "intermolecular_energy": -10.38, "internal_energy": -1.86, "cluster_size": 19, "cluster_id": 1, "rank_in_cluster": 4}

>  <energy>  (3) 
-8.9

>  <cluster_rmsd>  (3) 
0.12

>  <cluster>  (3) 
1

$$$$

     RDKit          3D

 53 56  0  0  0  0  0  0  0  0999 V2000
  139.4170   72.1110  220.7850 O   0  0  0  0  0  0  0  0  0  0  0  0
  139.5010   72.5460  221.9580 C   0  0  0  0  0  0  0  0  0  0  0  0
  139.4740   73.9100  222.3150 N   0  0  0  0  0  0  0  0  0  0  0  0
  139.3380   74.9330  221.2990 C   0  0  0  0  0  0  0  0  0  0  0  0
  140.1150   76.1230  221.7440 C   0  0  0  0  0  0  0  0  0  0  0  0
  141.3660   76.0480  221.6250 O   0  0  0  0  0  0  0  0  0  0  0  0
  139.4660   77.2930  222.2810 N   0  0  0  0  0  0  0  0  0  0  0  0
  138.0320   77.5000  222.1090 C   0  0  0  0  0  0  0  0  0  0  0  0
  137.7930   78.8330  222.8320 C   0  0  0  0  0  0  0  0  0  0  0  0
  139.1610   79.5280  222.7370 C   0  0  0  0  0  0  0  0  0  0  0  0
  140.0590   78.3780  223.0270 C   0  0  2  0  0  0  0  0  0  0  0  0
  141.5060   78.6350  222.7240 C   0  0  0  0  0  0  0  0  0  0  0  0
  142.0780   79.4500  223.8570 C   0  0  0  0  0  0  0  0  0  0  0  0
  142.0720   80.9150  223.6800 C   0  0  0  0  0  0  0  0  0  0  0  0
  141.9000   81.4370  222.3860 N   0  0  0  0  0  0  0  0  0  0  0  0
  142.1980   80.6090  221.2930 C   0  0  0  0  0  0  0  0  0  0  0  0
  141.8010   79.1750  221.3760 C   0  0  0  0  0  0  0  0  0  0  0  0
  139.6400   71.5610  223.0410 C   0  0  0  0  0  0  0  0  0  0  0  0
  139.2510   70.2420  222.8790 C   0  0  0  0  0  0  0  0  0  0  0  0
  139.3840   69.3080  223.9110 C   0  0  0  0  0  0  0  0  0  0  0  0
  139.9150   69.7240  225.1100 C   0  0  0  0  0  0  0  0  0  0  0  0
  140.0880   68.8740  226.1950 C   0  0  0  0  0  0  0  0  0  0  0  0
  140.6320   69.3650  227.3800 C   0  0  0  0  0  0  0  0  0  0  0  0
  140.8450   68.2930  228.7320 Cl  0  0  0  0  0  0  0  0  0  0  0  0
  141.0120   70.6810  227.5180 C   0  0  0  0  0  0  0  0  0  0  0  0
  140.8410   71.5360  226.4360 C   0  0  0  0  0  0  0  0  0  0  0  0
  140.3000   71.0400  225.2650 C   0  0  0  0  0  0  0  0  0  0  0  0
  140.1520   71.8890  224.2470 N   0  0  0  0  0  0  0  0  0  0  0  0
  139.5520   74.1920  223.3320 H   0  0  0  0  0  0  0  0  0  0  0  0
  139.7341   74.5642  220.3413 H   0  0  0  0  0  0  0  0  0  0  0  0
  138.2793   75.1962  221.1582 H   0  0  0  0  0  0  0  0  0  0  0  0
  137.7670   77.5736  221.0439 H   0  0  0  0  0  0  0  0  0  0  0  0
  137.4218   76.6743  222.5039 H   0  0  0  0  0  0  0  0  0  0  0  0
  137.0140   79.4227  222.3267 H   0  0  0  0  0  0  0  0  0  0  0  0
  137.4412   78.7080  223.8667 H   0  0  0  0  0  0  0  0  0  0  0  0
  139.3394   79.9417  221.7335 H   0  0  0  0  0  0  0  0  0  0  0  0
  139.2873   80.3929  223.4048 H   0  0  0  0  0  0  0  0  0  0  0  0
  140.1178   78.1510  224.1017 H   0  0  0  0  0  0  0  0  0  0  0  0
  142.0176   77.6629  222.6665 H   0  0  0  0  0  0  0  0  0  0  0  0
  141.4962   79.2199  224.7617 H   0  0  0  0  0  0  0  0  0  0  0  0
  143.1395   79.1670  223.9136 H   0  0  0  0  0  0  0  0  0  0  0  0
  141.2560   81.3130  224.3010 H   0  0  0  0  0  0  0  0  0  0  0  0
  143.0906   81.2224  223.9593 H   0  0  0  0  0  0  0  0  0  0  0  0
  141.3020   82.2480  222.2480 H   0  0  0  0  0  0  0  0  0  0  0  0
  141.6977   81.0370  220.4118 H   0  0  0  0  0  0  0  0  0  0  0  0
  143.2971   80.5891  221.2535 H   0  0  0  0  0  0  0  0  0  0  0  0
  140.8980   79.0447  220.7615 H   0  0  0  0  0  0  0  0  0  0  0  0
  142.6822   78.6145  221.0306 H   0  0  0  0  0  0  0  0  0  0  0  0
  138.8274   69.9214  221.9158 H   0  0  0  0  0  0  0  0  0  0  0  0
  139.0709   68.2633  223.7673 H   0  0  0  0  0  0  0  0  0  0  0  0
  139.7963   67.8161  226.1188 H   0  0  0  0  0  0  0  0  0  0  0  0
  141.4409   71.0471  228.4625 H   0  0  0  0  0  0  0  0  0  0  0  0
  141.1325   72.5940  226.5106 H   0  0  0  0  0  0  0  0  0  0  0  0
  1  2  2  0
  2  3  1  0
  3  4  1  0
  4  5  1  0
  5  6  2  0
  5  7  1  0
  7  8  1  0
  8  9  1  0
  9 10  1  0
 10 11  1  0
 11 12  1  0
 12 13  1  0
 13 14  1  0
 14 15  1  0
 15 16  1  0
 16 17  1  0
  2 18  1  0
 18 19  2  0
 19 20  1  0
 20 21  2  0
 21 22  1  0
 22 23  2  0
 23 24  1  0
 23 25  1  0
 25 26  2  0
 26 27  1  0
 27 28  2  0
 11  7  1  0
 17 12  1  0
 28 18  1  0
 27 21  1  0
  3 29  1  0
  4 30  1  0
  4 31  1  0
  8 32  1  0
  8 33  1  0
  9 34  1  0
  9 35  1  0
 10 36  1  0
 10 37  1  0
 11 38  1  1
 12 39  1  0
 13 40  1  0
 13 41  1  0
 14 42  1  0
 14 43  1  0
 15 44  1  0
 16 45  1  0
 16 46  1  0
 17 47  1  0
 17 48  1  0
 19 49  1  0
 20 50  1  0
 22 51  1  0
 25 52  1  0
 26 53  1  0
M  END
>  <smiles>  (4) 
O=C(NCC(=O)N1CCCC1C1CCNCC1)c1ccc2cc(Cl)ccc2n1

>  <score_type>  (4) 
oracle

>  <origin>  (4) 
autodockgpu

>  <m_score__min__energy>  (4) 
-9.0099999999999998

>  <m_primary>  (4) 
energy

>  <rmsd>  (4) 
3.0080339755150467

>  <m_score__min__rmsd>  (4) 
3.0080339755150467

>  <meeko>  (4) 
{"free_energy": -8.65, "intermolecular_energy": -10.15, "internal_energy": -1.39, "cluster_size": 26, "cluster_id": 2, "rank_in_cluster": 3}

>  <energy>  (4) 
-8.89

>  <cluster_rmsd>  (4) 
0.17

>  <cluster>  (4) 
1

$$$$

     RDKit          3D

 53 56  0  0  0  0  0  0  0  0999 V2000
  141.1470   72.7570  221.0150 O   0  0  0  0  0  0  0  0  0  0  0  0
  140.3150   72.9810  221.9260 C   0  0  0  0  0  0  0  0  0  0  0  0
  139.4860   74.1200  221.9980 N   0  0  0  0  0  0  0  0  0  0  0  0
  139.5510   75.1420  220.9740 C   0  0  0  0  0  0  0  0  0  0  0  0
  140.8790   75.8080  221.0790 C   0  0  0  0  0  0  0  0  0  0  0  0
  141.4400   75.7560  222.2040 O   0  0  0  0  0  0  0  0  0  0  0  0
  141.4830   76.4740  219.9520 N   0  0  0  0  0  0  0  0  0  0  0  0
  142.6050   75.8720  219.2400 C   0  0  0  0  0  0  0  0  0  0  0  0
  142.9030   76.9040  218.1430 C   0  0  0  0  0  0  0  0  0  0  0  0
  142.3910   78.2180  218.7560 C   0  0  0  0  0  0  0  0  0  0  0  0
  141.1210   77.7430  219.3670 C   0  0  2  0  0  0  0  0  0  0  0  0
  140.4920   78.7190  220.3180 C   0  0  0  0  0  0  0  0  0  0  0  0
  141.5960   79.5500  220.9250 C   0  0  0  0  0  0  0  0  0  0  0  0
  142.1410   79.0770  222.2130 C   0  0  0  0  0  0  0  0  0  0  0  0
  141.3940   78.1520  222.9610 N   0  0  0  0  0  0  0  0  0  0  0  0
  140.0140   78.0620  222.7190 C   0  0  0  0  0  0  0  0  0  0  0  0
  139.5480   78.1470  221.3060 C   0  0  0  0  0  0  0  0  0  0  0  0
  140.1960   71.9830  223.0000 C   0  0  0  0  0  0  0  0  0  0  0  0
  139.5730   70.7640  222.7940 C   0  0  0  0  0  0  0  0  0  0  0  0
  139.4610   69.8170  223.8170 C   0  0  0  0  0  0  0  0  0  0  0  0
  139.9880   70.1190  225.0520 C   0  0  0  0  0  0  0  0  0  0  0  0
  139.9280   69.2470  226.1320 C   0  0  0  0  0  0  0  0  0  0  0  0
  140.4830   69.6190  227.3540 C   0  0  0  0  0  0  0  0  0  0  0  0
  140.4030   68.5210  228.7000 Cl  0  0  0  0  0  0  0  0  0  0  0  0
  141.0980   70.8380  227.5360 C   0  0  0  0  0  0  0  0  0  0  0  0
  141.1600   71.7140  226.4590 C   0  0  0  0  0  0  0  0  0  0  0  0
  140.6070   71.3350  225.2510 C   0  0  0  0  0  0  0  0  0  0  0  0
  140.6860   72.2020  224.2390 N   0  0  0  0  0  0  0  0  0  0  0  0
  138.8110   74.2310  222.8050 H   0  0  0  0  0  0  0  0  0  0  0  0
  139.4398   74.6836  219.9803 H   0  0  0  0  0  0  0  0  0  0  0  0
  138.7419   75.8746  221.1105 H   0  0  0  0  0  0  0  0  0  0  0  0
  143.4711   75.7390  219.9050 H   0  0  0  0  0  0  0  0  0  0  0  0
  142.3840   74.8688  218.8465 H   0  0  0  0  0  0  0  0  0  0  0  0
  143.9816   76.9589  217.9344 H   0  0  0  0  0  0  0  0  0  0  0  0
  142.4300   76.6617  217.1799 H   0  0  0  0  0  0  0  0  0  0  0  0
  143.0850   78.6127  219.5127 H   0  0  0  0  0  0  0  0  0  0  0  0
  142.2790   79.0481  218.0430 H   0  0  0  0  0  0  0  0  0  0  0  0
  140.3137   77.6364  218.6275 H   0  0  0  0  0  0  0  0  0  0  0  0
  139.8118   79.3627  219.7409 H   0  0  0  0  0  0  0  0  0  0  0  0
  142.4251   79.5838  220.2029 H   0  0  0  0  0  0  0  0  0  0  0  0
  141.1406   80.5276  221.1417 H   0  0  0  0  0  0  0  0  0  0  0  0
  143.1149   78.6115  222.0014 H   0  0  0  0  0  0  0  0  0  0  0  0
  142.1594   79.9784  222.8432 H   0  0  0  0  0  0  0  0  0  0  0  0
  141.8690   77.3780  223.4210 H   0  0  0  0  0  0  0  0  0  0  0  0
  139.6734   77.0955  223.1189 H   0  0  0  0  0  0  0  0  0  0  0  0
  139.5896   78.9534  223.2041 H   0  0  0  0  0  0  0  0  0  0  0  0
  139.3010   77.1270  220.9765 H   0  0  0  0  0  0  0  0  0  0  0  0
  138.6995   78.8467  221.3275 H   0  0  0  0  0  0  0  0  0  0  0  0
  139.1562   70.5348  221.8022 H   0  0  0  0  0  0  0  0  0  0  0  0
  138.9630   68.8526  223.6386 H   0  0  0  0  0  0  0  0  0  0  0  0
  139.4435   68.2656  226.0222 H   0  0  0  0  0  0  0  0  0  0  0  0
  141.5296   71.1114  228.5102 H   0  0  0  0  0  0  0  0  0  0  0  0
  141.6431   72.6963  226.5669 H   0  0  0  0  0  0  0  0  0  0  0  0
  1  2  2  0
  2  3  1  0
  3  4  1  0
  4  5  1  0
  5  6  2  0
  5  7  1  0
  7  8  1  0
  8  9  1  0
  9 10  1  0
 10 11  1  0
 11 12  1  0
 12 13  1  0
 13 14  1  0
 14 15  1  0
 15 16  1  0
 16 17  1  0
  2 18  1  0
 18 19  2  0
 19 20  1  0
 20 21  2  0
 21 22  1  0
 22 23  2  0
 23 24  1  0
 23 25  1  0
 25 26  2  0
 26 27  1  0
 27 28  2  0
 11  7  1  0
 17 12  1  0
 28 18  1  0
 27 21  1  0
  3 29  1  0
  4 30  1  0
  4 31  1  0
  8 32  1  0
  8 33  1  0
  9 34  1  0
  9 35  1  0
 10 36  1  0
 10 37  1  0
 11 38  1  6
 12 39  1  0
 13 40  1  0
 13 41  1  0
 14 42  1  0
 14 43  1  0
 15 44  1  0
 16 45  1  0
 16 46  1  0
 17 47  1  0
 17 48  1  0
 19 49  1  0
 20 50  1  0
 22 51  1  0
 25 52  1  0
 26 53  1  0
M  END
>  <smiles>  (5) 
O=C(NCC(=O)N1CCCC1C1CCNCC1)c1ccc2cc(Cl)ccc2n1

>  <score_type>  (5) 
oracle

>  <origin>  (5) 
autodockgpu

>  <m_score__min__energy>  (5) 
-9.0099999999999998

>  <m_primary>  (5) 
energy

>  <rmsd>  (5) 
2.138814925789037

>  <m_score__min__rmsd>  (5) 
2.138814925789037

>  <meeko>  (5) 
{"free_energy": -8.26, "intermolecular_energy": -9.75, "internal_energy": -0.96, "cluster_size": 19, "cluster_id": 1, "rank_in_cluster": 18}

>  <energy>  (5) 
-8.89

>  <cluster_rmsd>  (5) 
0.15

>  <cluster>  (5) 
1

$$$$

     RDKit          3D

 53 56  0  0  0  0  0  0  0  0999 V2000
  140.6290   72.1580  220.6260 O   0  0  0  0  0  0  0  0  0  0  0  0
  140.2400   72.6040  221.7330 C   0  0  0  0  0  0  0  0  0  0  0  0
  139.8850   73.9460  221.9800 N   0  0  0  0  0  0  0  0  0  0  0  0
  139.9510   74.9310  220.9210 C   0  0  0  0  0  0  0  0  0  0  0  0
  141.1630   75.7660  221.1490 C   0  0  0  0  0  0  0  0  0  0  0  0
  141.4420   76.0250  222.3490 O   0  0  0  0  0  0  0  0  0  0  0  0
  141.9690   76.2470  220.0550 N   0  0  0  0  0  0  0  0  0  0  0  0
  141.6010   77.4590  219.3300 C   0  0  0  0  0  0  0  0  0  0  0  0
  142.7210   77.5830  218.2880 C   0  0  0  0  0  0  0  0  0  0  0  0
  143.1880   76.1300  218.1060 C   0  0  0  0  0  0  0  0  0  0  0  0
  143.1830   75.6760  219.5230 C   0  0  2  0  0  0  0  0  0  0  0  0
  143.3080   74.1890  219.6940 C   0  0  0  0  0  0  0  0  0  0  0  0
  144.2770   73.9340  220.8220 C   0  0  0  0  0  0  0  0  0  0  0  0
  145.6870   73.7250  220.4410 C   0  0  0  0  0  0  0  0  0  0  0  0
  145.9850   73.4100  219.1040 N   0  0  0  0  0  0  0  0  0  0  0  0
  144.9660   72.8630  218.3090 C   0  0  0  0  0  0  0  0  0  0  0  0
  143.5900   73.4170  218.4620 C   0  0  0  0  0  0  0  0  0  0  0  0
  140.1490   71.6570  222.8540 C   0  0  0  0  0  0  0  0  0  0  0  0
  139.5760   70.4050  222.7040 C   0  0  0  0  0  0  0  0  0  0  0  0
  139.4900   69.5070  223.7730 C   0  0  0  0  0  0  0  0  0  0  0  0
  139.9920   69.8910  224.9960 C   0  0  0  0  0  0  0  0  0  0  0  0
  139.9550   69.0720  226.1170 C   0  0  0  0  0  0  0  0  0  0  0  0
  140.4830   69.5260  227.3240 C   0  0  0  0  0  0  0  0  0  0  0  0
  140.4320   68.4950  228.7220 Cl  0  0  0  0  0  0  0  0  0  0  0  0
  141.0480   70.7760  227.4490 C   0  0  0  0  0  0  0  0  0  0  0  0
  141.0880   71.5990  226.3300 C   0  0  0  0  0  0  0  0  0  0  0  0
  140.5620   71.1390  225.1380 C   0  0  0  0  0  0  0  0  0  0  0  0
  140.6180   71.9560  224.0840 N   0  0  0  0  0  0  0  0  0  0  0  0
  139.5690   74.2390  222.9470 H   0  0  0  0  0  0  0  0  0  0  0  0
  140.0220   74.4273  219.9457 H   0  0  0  0  0  0  0  0  0  0  0  0
  139.0472   75.5580  220.9233 H   0  0  0  0  0  0  0  0  0  0  0  0
  140.6194   77.3489  218.8459 H   0  0  0  0  0  0  0  0  0  0  0  0
  141.5078   78.3433  219.9776 H   0  0  0  0  0  0  0  0  0  0  0  0
  142.3378   77.9962  217.3433 H   0  0  0  0  0  0  0  0  0  0  0  0
  143.5288   78.2617  218.5992 H   0  0  0  0  0  0  0  0  0  0  0  0
  142.4857   75.5500  217.4893 H   0  0  0  0  0  0  0  0  0  0  0  0
  144.1509   76.0150  217.5867 H   0  0  0  0  0  0  0  0  0  0  0  0
  144.0710   76.0164  220.0759 H   0  0  0  0  0  0  0  0  0  0  0  0
  142.3161   73.7923  219.9562 H   0  0  0  0  0  0  0  0  0  0  0  0
  144.2381   74.8002  221.4989 H   0  0  0  0  0  0  0  0  0  0  0  0
  143.9535   72.9859  221.2764 H   0  0  0  0  0  0  0  0  0  0  0  0
  146.2288   74.6510  220.6840 H   0  0  0  0  0  0  0  0  0  0  0  0
  145.9844   72.8256  221.0001 H   0  0  0  0  0  0  0  0  0  0  0  0
  146.7890   73.8410  218.6540 H   0  0  0  0  0  0  0  0  0  0  0  0
  145.2601   73.0013  217.2581 H   0  0  0  0  0  0  0  0  0  0  0  0
  144.8828   71.8192  218.6459 H   0  0  0  0  0  0  0  0  0  0  0  0
  143.4024   74.0803  217.6048 H   0  0  0  0  0  0  0  0  0  0  0  0
  142.9330   72.5367  218.5205 H   0  0  0  0  0  0  0  0  0  0  0  0
  139.1793   70.1100  221.7213 H   0  0  0  0  0  0  0  0  0  0  0  0
  139.0315   68.5161  223.6394 H   0  0  0  0  0  0  0  0  0  0  0  0
  139.5103   68.0680  226.0523 H   0  0  0  0  0  0  0  0  0  0  0  0
  141.4579   71.1148  228.4119 H   0  0  0  0  0  0  0  0  0  0  0  0
  141.5325   72.6033  226.3924 H   0  0  0  0  0  0  0  0  0  0  0  0
  1  2  2  0
  2  3  1  0
  3  4  1  0
  4  5  1  0
  5  6  2  0
  5  7  1  0
  7  8  1  0
  8  9  1  0
  9 10  1  0
 10 11  1  0
 11 12  1  0
 12 13  1  0
 13 14  1  0
 14 15  1  0
 15 16  1  0
 16 17  1  0
  2 18  1  0
 18 19  2  0
 19 20  1  0
 20 21  2  0
 21 22  1  0
 22 23  2  0
 23 24  1  0
 23 25  1  0
 25 26  2  0
 26 27  1  0
 27 28  2  0
 11  7  1  0
 17 12  1  0
 28 18  1  0
 27 21  1  0
  3 29  1  0
  4 30  1  0
  4 31  1  0
  8 32  1  0
  8 33  1  0
  9 34  1  0
  9 35  1  0
 10 36  1  0
 10 37  1  0
 11 38  1  1
 12 39  1  0
 13 40  1  0
 13 41  1  0
 14 42  1  0
 14 43  1  0
 15 44  1  0
 16 45  1  0
 16 46  1  0
 17 47  1  0
 17 48  1  0
 19 49  1  0
 20 50  1  0
 22 51  1  0
 25 52  1  0
 26 53  1  0
M  END
>  <smiles>  (6) 
O=C(NCC(=O)N1CCCC1C1CCNCC1)c1ccc2cc(Cl)ccc2n1

>  <score_type>  (6) 
oracle

>  <origin>  (6) 
autodockgpu

>  <m_score__min__energy>  (6) 
-9.0099999999999998

>  <m_primary>  (6) 
energy

>  <rmsd>  (6) 
2.23107618325496

>  <m_score__min__rmsd>  (6) 
2.23107618325496

>  <meeko>  (6) 
{"free_energy": -8.87, "intermolecular_energy": -10.37, "internal_energy": -1.83, "cluster_size": 19, "cluster_id": 1, "rank_in_cluster": 7}

>  <energy>  (6) 
-8.88

>  <cluster_rmsd>  (6) 
0.26

>  <cluster>  (6) 
1

$$$$

     RDKit          3D

 53 56  0  0  0  0  0  0  0  0999 V2000
  140.5630   72.7020  220.8920 O   0  0  0  0  0  0  0  0  0  0  0  0
  140.1130   73.0400  222.0140 C   0  0  0  0  0  0  0  0  0  0  0  0
  139.6380   74.3270  222.3360 N   0  0  0  0  0  0  0  0  0  0  0  0
  139.6400   75.3810  221.3430 C   0  0  0  0  0  0  0  0  0  0  0  0
  138.7540   76.4720  221.8340 C   0  0  0  0  0  0  0  0  0  0  0  0
  137.9700   76.1730  222.7720 O   0  0  0  0  0  0  0  0  0  0  0  0
  138.7950   77.7960  221.2650 N   0  0  0  0  0  0  0  0  0  0  0  0
  138.4510   78.0190  219.8630 C   0  0  0  0  0  0  0  0  0  0  0  0
  138.6230   79.5370  219.7110 C   0  0  0  0  0  0  0  0  0  0  0  0
  139.6530   79.8800  220.8000 C   0  0  0  0  0  0  0  0  0  0  0  0
  139.1450   79.0360  221.9140 C   0  0  2  0  0  0  0  0  0  0  0  0
  140.0980   78.8980  223.0660 C   0  0  0  0  0  0  0  0  0  0  0  0
  140.0840   80.1950  223.8350 C   0  0  0  0  0  0  0  0  0  0  0  0
  141.1150   81.1860  223.4680 C   0  0  0  0  0  0  0  0  0  0  0  0
  142.2320   80.7560  222.7330 N   0  0  0  0  0  0  0  0  0  0  0  0
  142.5660   79.3930  222.7690 C   0  0  0  0  0  0  0  0  0  0  0  0
  141.4520   78.4020  222.7300 C   0  0  0  0  0  0  0  0  0  0  0  0
  140.0820   72.0170  223.0700 C   0  0  0  0  0  0  0  0  0  0  0  0
  139.5750   70.7490  222.8400 C   0  0  0  0  0  0  0  0  0  0  0  0
  139.5450   69.7790  223.8480 C   0  0  0  0  0  0  0  0  0  0  0  0
  140.0350   70.1080  225.0910 C   0  0  0  0  0  0  0  0  0  0  0  0
  140.0500   69.2160  226.1560 C   0  0  0  0  0  0  0  0  0  0  0  0
  140.5610   69.6180  227.3880 C   0  0  0  0  0  0  0  0  0  0  0  0
  140.5760   68.4950  228.7160 Cl  0  0  0  0  0  0  0  0  0  0  0  0
  141.0600   70.8850  227.5940 C   0  0  0  0  0  0  0  0  0  0  0  0
  141.0470   71.7810  226.5320 C   0  0  0  0  0  0  0  0  0  0  0  0
  140.5380   71.3730  225.3130 C   0  0  0  0  0  0  0  0  0  0  0  0
  140.5420   72.2600  224.3160 N   0  0  0  0  0  0  0  0  0  0  0  0
  139.2770   74.5280  223.3100 H   0  0  0  0  0  0  0  0  0  0  0  0
  140.6623   75.7629  221.2051 H   0  0  0  0  0  0  0  0  0  0  0  0
  139.2787   74.9987  220.3769 H   0  0  0  0  0  0  0  0  0  0  0  0
  139.1341   77.4735  219.1953 H   0  0  0  0  0  0  0  0  0  0  0  0
  137.4435   77.6651  219.5990 H   0  0  0  0  0  0  0  0  0  0  0  0
  139.0043   79.7934  218.7116 H   0  0  0  0  0  0  0  0  0  0  0  0
  137.6795   80.0926  219.8167 H   0  0  0  0  0  0  0  0  0  0  0  0
  140.6722   79.5925  220.5025 H   0  0  0  0  0  0  0  0  0  0  0  0
  139.7394   80.9514  221.0338 H   0  0  0  0  0  0  0  0  0  0  0  0
  138.2807   79.4882  222.4225 H   0  0  0  0  0  0  0  0  0  0  0  0
  139.7394   78.0799  223.7080 H   0  0  0  0  0  0  0  0  0  0  0  0
  139.1003   80.6635  223.6835 H   0  0  0  0  0  0  0  0  0  0  0  0
  140.3011   79.9194  224.8775 H   0  0  0  0  0  0  0  0  0  0  0  0
  140.6171   81.9664  222.8737 H   0  0  0  0  0  0  0  0  0  0  0  0
  141.5363   81.5034  224.4333 H   0  0  0  0  0  0  0  0  0  0  0  0
  142.5870   81.3330  221.9730 H   0  0  0  0  0  0  0  0  0  0  0  0
  143.2147   79.1914  221.9038 H   0  0  0  0  0  0  0  0  0  0  0  0
  143.0308   79.2480  223.7554 H   0  0  0  0  0  0  0  0  0  0  0  0
  141.4107   77.9893  221.7112 H   0  0  0  0  0  0  0  0  0  0  0  0
  141.6919   77.6720  223.5171 H   0  0  0  0  0  0  0  0  0  0  0  0
  139.1868   70.4986  221.8417 H   0  0  0  0  0  0  0  0  0  0  0  0
  139.1388   68.7759  223.6512 H   0  0  0  0  0  0  0  0  0  0  0  0
  139.6597   68.1957  226.0268 H   0  0  0  0  0  0  0  0  0  0  0  0
  141.4592   71.1805  228.5755 H   0  0  0  0  0  0  0  0  0  0  0  0
  141.4367   72.8017  226.6595 H   0  0  0  0  0  0  0  0  0  0  0  0
  1  2  2  0
  2  3  1  0
  3  4  1  0
  4  5  1  0
  5  6  2  0
  5  7  1  0
  7  8  1  0
  8  9  1  0
  9 10  1  0
 10 11  1  0
 11 12  1  0
 12 13  1  0
 13 14  1  0
 14 15  1  0
 15 16  1  0
 16 17  1  0
  2 18  1  0
 18 19  2  0
 19 20  1  0
 20 21  2  0
 21 22  1  0
 22 23  2  0
 23 24  1  0
 23 25  1  0
 25 26  2  0
 26 27  1  0
 27 28  2  0
 11  7  1  0
 17 12  1  0
 28 18  1  0
 27 21  1  0
  3 29  1  0
  4 30  1  0
  4 31  1  0
  8 32  1  0
  8 33  1  0
  9 34  1  0
  9 35  1  0
 10 36  1  0
 10 37  1  0
 11 38  1  1
 12 39  1  0
 13 40  1  0
 13 41  1  0
 14 42  1  0
 14 43  1  0
 15 44  1  0
 16 45  1  0
 16 46  1  0
 17 47  1  0
 17 48  1  0
 19 49  1  0
 20 50  1  0
 22 51  1  0
 25 52  1  0
 26 53  1  0
M  END
>  <smiles>  (7) 
O=C(NCC(=O)N1CCCC1C1CCNCC1)c1ccc2cc(Cl)ccc2n1

>  <score_type>  (7) 
oracle

>  <origin>  (7) 
autodockgpu

>  <m_score__min__energy>  (7) 
-9.0099999999999998

>  <m_primary>  (7) 
energy

>  <rmsd>  (7) 
2.637351316341521

>  <m_score__min__rmsd>  (7) 
2.637351316341521

>  <meeko>  (7) 
{"free_energy": -7.97, "intermolecular_energy": -9.46, "internal_energy": -1.92, "cluster_size": 26, "cluster_id": 2, "rank_in_cluster": 23}

>  <energy>  (7) 
-8.87

>  <cluster_rmsd>  (7) 
0.16

>  <cluster>  (7) 
1

$$$$

     RDKit          3D

 53 56  0  0  0  0  0  0  0  0999 V2000
  139.3110   72.2400  220.6060 O   0  0  0  0  0  0  0  0  0  0  0  0
  139.9440   72.5560  221.6410 C   0  0  0  0  0  0  0  0  0  0  0  0
  140.6720   73.7530  221.8060 N   0  0  0  0  0  0  0  0  0  0  0  0
  140.7300   74.7300  220.7390 C   0  0  0  0  0  0  0  0  0  0  0  0
  140.7120   76.0840  221.3600 C   0  0  0  0  0  0  0  0  0  0  0  0
  140.4050   76.1320  222.5800 O   0  0  0  0  0  0  0  0  0  0  0  0
  141.0270   77.2690  220.6030 N   0  0  0  0  0  0  0  0  0  0  0  0
  141.6970   77.1750  219.3090 C   0  0  0  0  0  0  0  0  0  0  0  0
  141.8160   78.6450  218.8820 C   0  0  0  0  0  0  0  0  0  0  0  0
  141.8220   79.3960  220.2250 C   0  0  0  0  0  0  0  0  0  0  0  0
  140.7600   78.6450  220.9470 C   0  0  2  0  0  0  0  0  0  0  0  0
  140.7020   78.9260  222.4210 C   0  0  0  0  0  0  0  0  0  0  0  0
  139.8430   80.1490  222.6240 C   0  0  0  0  0  0  0  0  0  0  0  0
  140.5500   81.4430  222.6910 C   0  0  0  0  0  0  0  0  0  0  0  0
  141.9340   81.4430  222.9350 N   0  0  0  0  0  0  0  0  0  0  0  0
  142.5010   80.3140  223.5450 C   0  0  0  0  0  0  0  0  0  0  0  0
  142.0050   78.9720  223.1240 C   0  0  0  0  0  0  0  0  0  0  0  0
  139.9280   71.6080  222.7650 C   0  0  0  0  0  0  0  0  0  0  0  0
  139.3930   70.3370  222.6370 C   0  0  0  0  0  0  0  0  0  0  0  0
  139.3770   69.4380  223.7080 C   0  0  0  0  0  0  0  0  0  0  0  0
  139.9100   69.8410  224.9120 C   0  0  0  0  0  0  0  0  0  0  0  0
  139.9430   69.0230  226.0340 C   0  0  0  0  0  0  0  0  0  0  0  0
  140.4980   69.4970  227.2200 C   0  0  0  0  0  0  0  0  0  0  0  0
  140.5350   68.4660  228.6200 Cl  0  0  0  0  0  0  0  0  0  0  0  0
  141.0250   70.7660  227.3240 C   0  0  0  0  0  0  0  0  0  0  0  0
  140.9950   71.5880  226.2050 C   0  0  0  0  0  0  0  0  0  0  0  0
  140.4420   71.1080  225.0320 C   0  0  0  0  0  0  0  0  0  0  0  0
  140.4310   71.9250  223.9770 N   0  0  0  0  0  0  0  0  0  0  0  0
  141.1810   73.9400  222.7150 H   0  0  0  0  0  0  0  0  0  0  0  0
  141.6552   74.5965  220.1592 H   0  0  0  0  0  0  0  0  0  0  0  0
  139.8740   74.6077  220.0590 H   0  0  0  0  0  0  0  0  0  0  0  0
  142.6887   76.7096  219.4088 H   0  0  0  0  0  0  0  0  0  0  0  0
  141.1557   76.5520  218.5818 H   0  0  0  0  0  0  0  0  0  0  0  0
  142.7489   78.8210  218.3264 H   0  0  0  0  0  0  0  0  0  0  0  0
  141.0083   78.9676  218.2085 H   0  0  0  0  0  0  0  0  0  0  0  0
  142.7947   79.3167  220.7325 H   0  0  0  0  0  0  0  0  0  0  0  0
  141.6525   80.4803  220.1498 H   0  0  0  0  0  0  0  0  0  0  0  0
  139.7483   78.9525  220.6437 H   0  0  0  0  0  0  0  0  0  0  0  0
  140.2399   78.0583  222.9145 H   0  0  0  0  0  0  0  0  0  0  0  0
  139.1301   80.1999  221.7879 H   0  0  0  0  0  0  0  0  0  0  0  0
  139.3773   80.0186  223.6120 H   0  0  0  0  0  0  0  0  0  0  0  0
  140.3909   81.9494  221.7275 H   0  0  0  0  0  0  0  0  0  0  0  0
  140.1223   81.9360  223.5764 H   0  0  0  0  0  0  0  0  0  0  0  0
  142.5350   82.0820  222.4180 H   0  0  0  0  0  0  0  0  0  0  0  0
  143.5823   80.3415  223.3449 H   0  0  0  0  0  0  0  0  0  0  0  0
  142.2112   80.3965  224.6029 H   0  0  0  0  0  0  0  0  0  0  0  0
  142.7594   78.5350  222.4532 H   0  0  0  0  0  0  0  0  0  0  0  0
  141.8428   78.4206  224.0619 H   0  0  0  0  0  0  0  0  0  0  0  0
  138.9706   70.0273  221.6697 H   0  0  0  0  0  0  0  0  0  0  0  0
  138.9483   68.4317  223.5913 H   0  0  0  0  0  0  0  0  0  0  0  0
  139.5320   68.0038  225.9859 H   0  0  0  0  0  0  0  0  0  0  0  0
  141.4591   71.1195  228.2709 H   0  0  0  0  0  0  0  0  0  0  0  0
  141.4057   72.6074  226.2512 H   0  0  0  0  0  0  0  0  0  0  0  0
  1  2  2  0
  2  3  1  0
  3  4  1  0
  4  5  1  0
  5  6  2  0
  5  7  1  0
  7  8  1  0
  8  9  1  0
  9 10  1  0
 10 11  1  0
 11 12  1  0
 12 13  1  0
 13 14  1  0
 14 15  1  0
 15 16  1  0
 16 17  1  0
  2 18  1  0
 18 19  2  0
 19 20  1  0
 20 21  2  0
 21 22  1  0
 22 23  2  0
 23 24  1  0
 23 25  1  0
 25 26  2  0
 26 27  1  0
 27 28  2  0
 11  7  1  0
 17 12  1  0
 28 18  1  0
 27 21  1  0
  3 29  1  0
  4 30  1  0
  4 31  1  0
  8 32  1  0
  8 33  1  0
  9 34  1  0
  9 35  1  0
 10 36  1  0
 10 37  1  0
 11 38  1  6
 12 39  1  0
 13 40  1  0
 13 41  1  0
 14 42  1  0
 14 43  1  0
 15 44  1  0
 16 45  1  0
 16 46  1  0
 17 47  1  0
 17 48  1  0
 19 49  1  0
 20 50  1  0
 22 51  1  0
 25 52  1  0
 26 53  1  0
M  END
>  <smiles>  (8) 
O=C(NCC(=O)N1CCCC1C1CCNCC1)c1ccc2cc(Cl)ccc2n1

>  <score_type>  (8) 
oracle

>  <origin>  (8) 
autodockgpu

>  <m_score__min__energy>  (8) 
-9.0099999999999998

>  <m_primary>  (8) 
energy

>  <rmsd>  (8) 
2.360474879876842

>  <m_score__min__rmsd>  (8) 
2.360474879876842

>  <meeko>  (8) 
{"free_energy": -7.98, "intermolecular_energy": -9.47, "internal_energy": -1.87, "cluster_size": 26, "cluster_id": 2, "rank_in_cluster": 22}

>  <energy>  (8) 
-8.76

>  <cluster_rmsd>  (8) 
0.29

>  <cluster>  (8) 
1

$$$$

     RDKit          3D

 53 56  0  0  0  0  0  0  0  0999 V2000
  140.5400   72.1560  220.6300 O   0  0  0  0  0  0  0  0  0  0  0  0
  140.1730   72.6040  221.7430 C   0  0  0  0  0  0  0  0  0  0  0  0
  139.8360   73.9500  221.9980 N   0  0  0  0  0  0  0  0  0  0  0  0
  139.8970   74.9360  220.9390 C   0  0  0  0  0  0  0  0  0  0  0  0
  141.1140   75.7640  221.1570 C   0  0  0  0  0  0  0  0  0  0  0  0
  141.3940   76.0380  222.3540 O   0  0  0  0  0  0  0  0  0  0  0  0
  141.9250   76.2250  220.0580 N   0  0  0  0  0  0  0  0  0  0  0  0
  141.5470   77.4100  219.2940 C   0  0  0  0  0  0  0  0  0  0  0  0
  142.6760   77.5200  218.2590 C   0  0  0  0  0  0  0  0  0  0  0  0
  143.1660   76.0680  218.1260 C   0  0  0  0  0  0  0  0  0  0  0  0
  143.1520   75.6560  219.5550 C   0  0  2  0  0  0  0  0  0  0  0  0
  143.2970   74.1770  219.7710 C   0  0  0  0  0  0  0  0  0  0  0  0
  144.3250   73.9670  220.8550 C   0  0  0  0  0  0  0  0  0  0  0  0
  145.7150   73.7530  220.4080 C   0  0  0  0  0  0  0  0  0  0  0  0
  145.9450   73.3920  219.0700 N   0  0  0  0  0  0  0  0  0  0  0  0
  144.8900   72.8120  218.3480 C   0  0  0  0  0  0  0  0  0  0  0  0
  143.5200   73.3640  218.5540 C   0  0  0  0  0  0  0  0  0  0  0  0
  140.0880   71.6560  222.8640 C   0  0  0  0  0  0  0  0  0  0  0  0
  139.5320   70.3970  222.7120 C   0  0  0  0  0  0  0  0  0  0  0  0
  139.4520   69.4980  223.7810 C   0  0  0  0  0  0  0  0  0  0  0  0
  139.9420   69.8890  225.0060 C   0  0  0  0  0  0  0  0  0  0  0  0
  139.9100   69.0700  226.1270 C   0  0  0  0  0  0  0  0  0  0  0  0
  140.4250   69.5310  227.3370 C   0  0  0  0  0  0  0  0  0  0  0  0
  140.3800   68.5000  228.7350 Cl  0  0  0  0  0  0  0  0  0  0  0  0
  140.9730   70.7880  227.4640 C   0  0  0  0  0  0  0  0  0  0  0  0
  141.0080   71.6110  226.3460 C   0  0  0  0  0  0  0  0  0  0  0  0
  140.4950   71.1440  225.1500 C   0  0  0  0  0  0  0  0  0  0  0  0
  140.5460   71.9620  224.0970 N   0  0  0  0  0  0  0  0  0  0  0  0
  139.5370   74.2440  222.9690 H   0  0  0  0  0  0  0  0  0  0  0  0
  139.9568   74.4330  219.9626 H   0  0  0  0  0  0  0  0  0  0  0  0
  138.9962   75.5672  220.9498 H   0  0  0  0  0  0  0  0  0  0  0  0
  140.5720   77.2714  218.8040 H   0  0  0  0  0  0  0  0  0  0  0  0
  141.4348   78.3114  219.9144 H   0  0  0  0  0  0  0  0  0  0  0  0
  142.2964   77.8987  217.2986 H   0  0  0  0  0  0  0  0  0  0  0  0
  143.4705   78.2201  218.5568 H   0  0  0  0  0  0  0  0  0  0  0  0
  142.4789   75.4597  217.5195 H   0  0  0  0  0  0  0  0  0  0  0  0
  144.1363   75.9520  217.6209 H   0  0  0  0  0  0  0  0  0  0  0  0
  144.0289   76.0254  220.1068 H   0  0  0  0  0  0  0  0  0  0  0  0
  142.3231   73.7843  220.0985 H   0  0  0  0  0  0  0  0  0  0  0  0
  144.3148   74.8560  221.5028 H   0  0  0  0  0  0  0  0  0  0  0  0
  144.0327   73.0336  221.3582 H   0  0  0  0  0  0  0  0  0  0  0  0
  146.2613   74.6904  220.5890 H   0  0  0  0  0  0  0  0  0  0  0  0
  146.0485   72.8762  220.9825 H   0  0  0  0  0  0  0  0  0  0  0  0
  146.7220   73.8110  218.5630 H   0  0  0  0  0  0  0  0  0  0  0  0
  145.1281   72.9156  217.2791 H   0  0  0  0  0  0  0  0  0  0  0  0
  144.8320   71.7798  218.7236 H   0  0  0  0  0  0  0  0  0  0  0  0
  143.2831   73.9958  217.6853 H   0  0  0  0  0  0  0  0  0  0  0  0
  142.8735   72.4827  218.6778 H   0  0  0  0  0  0  0  0  0  0  0  0
  139.1440   70.0966  221.7275 H   0  0  0  0  0  0  0  0  0  0  0  0
  139.0074   68.5010  223.6453 H   0  0  0  0  0  0  0  0  0  0  0  0
  139.4793   68.0601  226.0600 H   0  0  0  0  0  0  0  0  0  0  0  0
  141.3738   71.1322  228.4288 H   0  0  0  0  0  0  0  0  0  0  0  0
  141.4382   72.6213  226.4111 H   0  0  0  0  0  0  0  0  0  0  0  0
  1  2  2  0
  2  3  1  0
  3  4  1  0
  4  5  1  0
  5  6  2  0
  5  7  1  0
  7  8  1  0
  8  9  1  0
  9 10  1  0
 10 11  1  0
 11 12  1  0
 12 13  1  0
 13 14  1  0
 14 15  1  0
 15 16  1  0
 16 17  1  0
  2 18  1  0
 18 19  2  0
 19 20  1  0
 20 21  2  0
 21 22  1  0
 22 23  2  0
 23 24  1  0
 23 25  1  0
 25 26  2  0
 26 27  1  0
 27 28  2  0
 11  7  1  0
 17 12  1  0
 28 18  1  0
 27 21  1  0
  3 29  1  0
  4 30  1  0
  4 31  1  0
  8 32  1  0
  8 33  1  0
  9 34  1  0
  9 35  1  0
 10 36  1  0
 10 37  1  0
 11 38  1  1
 12 39  1  0
 13 40  1  0
 13 41  1  0
 14 42  1  0
 14 43  1  0
 15 44  1  0
 16 45  1  0
 16 46  1  0
 17 47  1  0
 17 48  1  0
 19 49  1  0
 20 50  1  0
 22 51  1  0
 25 52  1  0
 26 53  1  0
M  END
>  <smiles>  (9) 
O=C(NCC(=O)N1CCCC1C1CCNCC1)c1ccc2cc(Cl)ccc2n1

>  <score_type>  (9) 
oracle

>  <origin>  (9) 
autodockgpu

>  <m_score__min__energy>  (9) 
-9.0099999999999998

>  <m_primary>  (9) 
energy

>  <rmsd>  (9) 
2.196186476884437

>  <m_score__min__rmsd>  (9) 
2.196186476884437

>  <meeko>  (9) 
{"free_energy": -8.89, "intermolecular_energy": -10.38, "internal_energy": -1.84, "cluster_size": 19, "cluster_id": 1, "rank_in_cluster": 5}

>  <energy>  (9) 
-8.71

>  <cluster_rmsd>  (9) 
0.35

>  <cluster>  (9) 
1

$$$$

     RDKit          3D

 53 56  0  0  0  0  0  0  0  0999 V2000
  139.9680   74.0650  222.0910 O   0  0  0  0  0  0  0  0  0  0  0  0
  140.4580   72.9260  221.8990 C   0  0  0  0  0  0  0  0  0  0  0  0
  141.1350   72.5280  220.7280 N   0  0  0  0  0  0  0  0  0  0  0  0
  141.3120   73.4550  219.6300 C   0  0  0  0  0  0  0  0  0  0  0  0
  142.6300   73.1680  219.0000 C   0  0  0  0  0  0  0  0  0  0  0  0
  142.6380   73.0690  217.7450 O   0  0  0  0  0  0  0  0  0  0  0  0
  143.8280   73.0140  219.7870 N   0  0  0  0  0  0  0  0  0  0  0  0
  144.4220   74.1550  220.4770 C   0  0  0  0  0  0  0  0  0  0  0  0
  145.6410   73.5320  221.1730 C   0  0  0  0  0  0  0  0  0  0  0  0
  145.9660   72.3210  220.2830 C   0  0  0  0  0  0  0  0  0  0  0  0
  144.5920   71.8130  220.0220 C   0  0  2  0  0  0  0  0  0  0  0  0
  144.5110   70.7890  218.9270 C   0  0  0  0  0  0  0  0  0  0  0  0
  143.6230   69.6680  219.4060 C   0  0  0  0  0  0  0  0  0  0  0  0
  144.3000   68.5210  220.0430 C   0  0  0  0  0  0  0  0  0  0  0  0
  145.6810   68.3570  219.8410 N   0  0  0  0  0  0  0  0  0  0  0  0
  146.2660   68.9710  218.7230 C   0  0  0  0  0  0  0  0  0  0  0  0
  145.8050   70.3420  218.3610 C   0  0  0  0  0  0  0  0  0  0  0  0
  140.3150   71.9340  222.9750 C   0  0  0  0  0  0  0  0  0  0  0  0
  139.7270   70.7000  222.7520 C   0  0  0  0  0  0  0  0  0  0  0  0
  139.5910   69.7590  223.7780 C   0  0  0  0  0  0  0  0  0  0  0  0
  140.0580   70.0810  225.0320 C   0  0  0  0  0  0  0  0  0  0  0  0
  139.9710   69.2160  226.1150 C   0  0  0  0  0  0  0  0  0  0  0  0
  140.4640   69.6090  227.3570 C   0  0  0  0  0  0  0  0  0  0  0  0
  140.3510   68.5200  228.7070 Cl  0  0  0  0  0  0  0  0  0  0  0  0
  141.0450   70.8430  227.5550 C   0  0  0  0  0  0  0  0  0  0  0  0
  141.1350   71.7120  226.4740 C   0  0  0  0  0  0  0  0  0  0  0  0
  140.6420   71.3120  225.2460 C   0  0  0  0  0  0  0  0  0  0  0  0
  140.7460   72.1730  224.2320 N   0  0  0  0  0  0  0  0  0  0  0  0
  141.5170   71.5440  220.6480 H   0  0  0  0  0  0  0  0  0  0  0  0
  140.5073   73.3195  218.8924 H   0  0  0  0  0  0  0  0  0  0  0  0
  141.2779   74.4925  219.9938 H   0  0  0  0  0  0  0  0  0  0  0  0
  144.7280   74.9344  219.7637 H   0  0  0  0  0  0  0  0  0  0  0  0
  143.7300   74.6531  221.1720 H   0  0  0  0  0  0  0  0  0  0  0  0
  146.4835   74.2386  221.2022 H   0  0  0  0  0  0  0  0  0  0  0  0
  145.4496   73.2604  222.2216 H   0  0  0  0  0  0  0  0  0  0  0  0
  146.4729   72.6218  219.3542 H   0  0  0  0  0  0  0  0  0  0  0  0
  146.6524   71.5881  220.7321 H   0  0  0  0  0  0  0  0  0  0  0  0
  144.1914   71.2334  220.8667 H   0  0  0  0  0  0  0  0  0  0  0  0
  144.0621   71.2702  218.0456 H   0  0  0  0  0  0  0  0  0  0  0  0
  142.9178   70.0890  220.1378 H   0  0  0  0  0  0  0  0  0  0  0  0
  143.1503   69.2618  218.4996 H   0  0  0  0  0  0  0  0  0  0  0  0
  144.1396   68.6115  221.1275 H   0  0  0  0  0  0  0  0  0  0  0  0
  143.8520   67.6419  219.5567 H   0  0  0  0  0  0  0  0  0  0  0  0
  146.2720   68.0780  220.6210 H   0  0  0  0  0  0  0  0  0  0  0  0
  147.3487   69.0276  218.9090 H   0  0  0  0  0  0  0  0  0  0  0  0
  145.9622   68.3434  217.8722 H   0  0  0  0  0  0  0  0  0  0  0  0
  146.5763   71.0507  218.6968 H   0  0  0  0  0  0  0  0  0  0  0  0
  145.6449   70.3110  217.2732 H   0  0  0  0  0  0  0  0  0  0  0  0
  139.3586   70.4543  221.7451 H   0  0  0  0  0  0  0  0  0  0  0  0
  139.1211   68.7830  223.5868 H   0  0  0  0  0  0  0  0  0  0  0  0
  139.5139   68.2230  225.9923 H   0  0  0  0  0  0  0  0  0  0  0  0
  141.4282   71.1331  228.5445 H   0  0  0  0  0  0  0  0  0  0  0  0
  141.5925   72.7051  226.5940 H   0  0  0  0  0  0  0  0  0  0  0  0
  1  2  2  0
  2  3  1  0
  3  4  1  0
  4  5  1  0
  5  6  2  0
  5  7  1  0
  7  8  1  0
  8  9  1  0
  9 10  1  0
 10 11  1  0
 11 12  1  0
 12 13  1  0
 13 14  1  0
 14 15  1  0
 15 16  1  0
 16 17  1  0
  2 18  1  0
 18 19  2  0
 19 20  1  0
 20 21  2  0
 21 22  1  0
 22 23  2  0
 23 24  1  0
 23 25  1  0
 25 26  2  0
 26 27  1  0
 27 28  2  0
 11  7  1  0
 17 12  1  0
 28 18  1  0
 27 21  1  0
  3 29  1  0
  4 30  1  0
  4 31  1  0
  8 32  1  0
  8 33  1  0
  9 34  1  0
  9 35  1  0
 10 36  1  0
 10 37  1  0
 11 38  1  1
 12 39  1  0
 13 40  1  0
 13 41  1  0
 14 42  1  0
 14 43  1  0
 15 44  1  0
 16 45  1  0
 16 46  1  0
 17 47  1  0
 17 48  1  0
 19 49  1  0
 20 50  1  0
 22 51  1  0
 25 52  1  0
 26 53  1  0
M  END
>  <smiles>  (10) 
O=C(NCC(=O)N1CCCC1C1CCNCC1)c1ccc2cc(Cl)ccc2n1

>  <score_type>  (10) 
oracle

>  <origin>  (10) 
autodockgpu

>  <m_score__min__energy>  (10) 
-9.0099999999999998

>  <m_primary>  (10) 
energy

>  <rmsd>  (10) 
4.390270275092795

>  <m_score__min__rmsd>  (10) 
4.390270275092795

>  <meeko>  (10) 
{"free_energy": -8.29, "intermolecular_energy": -9.78, "internal_energy": -1.5, "cluster_size": 1, "cluster_id": 4, "rank_in_cluster": 1}

>  <energy>  (10) 
-8.68

>  <cluster_rmsd>  (10) 
1.28

>  <cluster>  (10) 
1

$$$$

     RDKit          3D

 53 56  0  0  0  0  0  0  0  0999 V2000
  139.8670   71.4990  220.4700 O   0  0  0  0  0  0  0  0  0  0  0  0
  139.9250   72.0580  221.5920 C   0  0  0  0  0  0  0  0  0  0  0  0
  140.0360   73.4490  221.7930 N   0  0  0  0  0  0  0  0  0  0  0  0
  140.0900   74.3530  220.6630 C   0  0  0  0  0  0  0  0  0  0  0  0
  140.9400   75.5140  221.0480 C   0  0  0  0  0  0  0  0  0  0  0  0
  140.7880   75.9510  222.2190 O   0  0  0  0  0  0  0  0  0  0  0  0
  141.8820   76.1010  220.1290 N   0  0  0  0  0  0  0  0  0  0  0  0
  141.5860   77.3610  219.4550 C   0  0  0  0  0  0  0  0  0  0  0  0
  142.8430   77.5950  218.6060 C   0  0  0  0  0  0  0  0  0  0  0  0
  143.3800   76.1710  218.3820 C   0  0  0  0  0  0  0  0  0  0  0  0
  143.1800   75.6010  219.7420 C   0  0  2  0  0  0  0  0  0  0  0  0
  143.3280   74.1090  219.8110 C   0  0  0  0  0  0  0  0  0  0  0  0
  144.3980   73.7970  220.8280 C   0  0  0  0  0  0  0  0  0  0  0  0
  145.7680   73.6260  220.3060 C   0  0  0  0  0  0  0  0  0  0  0  0
  145.9420   73.3930  218.9310 N   0  0  0  0  0  0  0  0  0  0  0  0
  144.8560   72.8840  218.2030 C   0  0  0  0  0  0  0  0  0  0  0  0
  143.4970   73.4130  218.5150 C   0  0  0  0  0  0  0  0  0  0  0  0
  139.8750   71.1990  222.7840 C   0  0  0  0  0  0  0  0  0  0  0  0
  139.2530   69.9610  222.7630 C   0  0  0  0  0  0  0  0  0  0  0  0
  139.2060   69.1470  223.9000 C   0  0  0  0  0  0  0  0  0  0  0  0
  139.7970   69.5990  225.0570 C   0  0  0  0  0  0  0  0  0  0  0  0
  139.8050   68.8650  226.2370 C   0  0  0  0  0  0  0  0  0  0  0  0
  140.4230   69.3860  227.3720 C   0  0  0  0  0  0  0  0  0  0  0  0
  140.4280   68.4610  228.8440 Cl  0  0  0  0  0  0  0  0  0  0  0  0
  141.0360   70.6190  227.3680 C   0  0  0  0  0  0  0  0  0  0  0  0
  141.0310   71.3570  226.1910 C   0  0  0  0  0  0  0  0  0  0  0  0
  140.4150   70.8320  225.0700 C   0  0  0  0  0  0  0  0  0  0  0  0
  140.4310   71.5690  223.9580 N   0  0  0  0  0  0  0  0  0  0  0  0
  140.0810   73.8380  222.7760 H   0  0  0  0  0  0  0  0  0  0  0  0
  140.5285   73.8401  219.7943 H   0  0  0  0  0  0  0  0  0  0  0  0
  139.0786   74.6906  220.3927 H   0  0  0  0  0  0  0  0  0  0  0  0
  140.6911   77.2711  218.8217 H   0  0  0  0  0  0  0  0  0  0  0  0
  141.3692   78.1862  220.1493 H   0  0  0  0  0  0  0  0  0  0  0  0
  142.5902   78.0770  217.6501 H   0  0  0  0  0  0  0  0  0  0  0  0
  143.5729   78.2625  219.0874 H   0  0  0  0  0  0  0  0  0  0  0  0
  142.7964   75.6296  217.6228 H   0  0  0  0  0  0  0  0  0  0  0  0
  144.4124   76.1196  218.0059 H   0  0  0  0  0  0  0  0  0  0  0  0
  143.9638   75.9126  220.4481 H   0  0  0  0  0  0  0  0  0  0  0  0
  142.3662   73.6879  220.1391 H   0  0  0  0  0  0  0  0  0  0  0  0
  144.4177   74.6206  221.5569 H   0  0  0  0  0  0  0  0  0  0  0  0
  144.1225   72.8204  221.2526 H   0  0  0  0  0  0  0  0  0  0  0  0
  146.3250   74.5420  220.5522 H   0  0  0  0  0  0  0  0  0  0  0  0
  146.1210   72.6987  220.7809 H   0  0  0  0  0  0  0  0  0  0  0  0
  146.6990   73.8580  218.4350 H   0  0  0  0  0  0  0  0  0  0  0  0
  145.0504   73.0874  217.1396 H   0  0  0  0  0  0  0  0  0  0  0  0
  144.8095   71.8215  218.4840 H   0  0  0  0  0  0  0  0  0  0  0  0
  143.2264   74.1228  217.7194 H   0  0  0  0  0  0  0  0  0  0  0  0
  142.8527   72.5239  218.5819 H   0  0  0  0  0  0  0  0  0  0  0  0
  138.7855   69.6102  221.8311 H   0  0  0  0  0  0  0  0  0  0  0  0
  138.7073   68.1670  223.8694 H   0  0  0  0  0  0  0  0  0  0  0  0
  139.3250   67.8760  226.2749 H   0  0  0  0  0  0  0  0  0  0  0  0
  141.5184   71.0106  228.2757 H   0  0  0  0  0  0  0  0  0  0  0  0
  141.5108   72.3460  226.1514 H   0  0  0  0  0  0  0  0  0  0  0  0
  1  2  2  0
  2  3  1  0
  3  4  1  0
  4  5  1  0
  5  6  2  0
  5  7  1  0
  7  8  1  0
  8  9  1  0
  9 10  1  0
 10 11  1  0
 11 12  1  0
 12 13  1  0
 13 14  1  0
 14 15  1  0
 15 16  1  0
 16 17  1  0
  2 18  1  0
 18 19  2  0
 19 20  1  0
 20 21  2  0
 21 22  1  0
 22 23  2  0
 23 24  1  0
 23 25  1  0
 25 26  2  0
 26 27  1  0
 27 28  2  0
 11  7  1  0
 17 12  1  0
 28 18  1  0
 27 21  1  0
  3 29  1  0
  4 30  1  0
  4 31  1  0
  8 32  1  0
  8 33  1  0
  9 34  1  0
  9 35  1  0
 10 36  1  0
 10 37  1  0
 11 38  1  1
 12 39  1  0
 13 40  1  0
 13 41  1  0
 14 42  1  0
 14 43  1  0
 15 44  1  0
 16 45  1  0
 16 46  1  0
 17 47  1  0
 17 48  1  0
 19 49  1  0
 20 50  1  0
 22 51  1  0
 25 52  1  0
 26 53  1  0
M  END
>  <smiles>  (11) 
O=C(NCC(=O)N1CCCC1C1CCNCC1)c1ccc2cc(Cl)ccc2n1

>  <score_type>  (11) 
oracle

>  <origin>  (11) 
autodockgpu

>  <m_score__min__energy>  (11) 
-9.0099999999999998

>  <m_primary>  (11) 
energy

>  <rmsd>  (11) 
2.1552314070746923

>  <m_score__min__rmsd>  (11) 
2.1552314070746923

>  <meeko>  (11) 
{"free_energy": -8.46, "intermolecular_energy": -9.95, "internal_energy": -2.09, "cluster_size": 19, "cluster_id": 1, "rank_in_cluster": 13}

>  <energy>  (11) 
-8.6

>  <cluster_rmsd>  (11) 
1.39

>  <cluster>  (11) 
1

$$$$

     RDKit          3D

 53 56  0  0  0  0  0  0  0  0999 V2000
  138.3790   72.4070  221.0310 O   0  0  0  0  0  0  0  0  0  0  0  0
  139.2960   72.5990  221.8650 C   0  0  0  0  0  0  0  0  0  0  0  0
  140.2210   73.6620  221.8130 N   0  0  0  0  0  0  0  0  0  0  0  0
  140.1610   74.6370  220.7440 C   0  0  0  0  0  0  0  0  0  0  0  0
  141.4290   75.4180  220.7680 C   0  0  0  0  0  0  0  0  0  0  0  0
  142.4390   74.8250  221.2290 O   0  0  0  0  0  0  0  0  0  0  0  0
  141.4910   76.7760  220.2900 N   0  0  0  0  0  0  0  0  0  0  0  0
  142.1790   77.1010  219.0440 C   0  0  0  0  0  0  0  0  0  0  0  0
  141.9850   78.6210  218.9360 C   0  0  0  0  0  0  0  0  0  0  0  0
  141.8140   79.0530  220.4020 C   0  0  0  0  0  0  0  0  0  0  0  0
  140.9310   77.9610  220.8950 C   0  0  2  0  0  0  0  0  0  0  0  0
  140.7980   77.9040  222.3890 C   0  0  0  0  0  0  0  0  0  0  0  0
  139.3780   78.2740  222.7410 C   0  0  0  0  0  0  0  0  0  0  0  0
  139.1290   79.6940  223.0550 C   0  0  0  0  0  0  0  0  0  0  0  0
  140.2240   80.5170  223.3700 N   0  0  0  0  0  0  0  0  0  0  0  0
  141.4050   79.9060  223.8200 C   0  0  0  0  0  0  0  0  0  0  0  0
  141.8270   78.6370  223.1600 C   0  0  0  0  0  0  0  0  0  0  0  0
  139.4140   71.6460  222.9780 C   0  0  0  0  0  0  0  0  0  0  0  0
  138.8460   70.3840  222.9190 C   0  0  0  0  0  0  0  0  0  0  0  0
  138.9600   69.4800  223.9800 C   0  0  0  0  0  0  0  0  0  0  0  0
  139.6560   69.8680  225.1020 C   0  0  0  0  0  0  0  0  0  0  0  0
  139.8250   69.0440  226.2070 C   0  0  0  0  0  0  0  0  0  0  0  0
  140.5420   69.5030  227.3100 C   0  0  0  0  0  0  0  0  0  0  0  0
  140.7490   68.4650  228.6890 Cl  0  0  0  0  0  0  0  0  0  0  0  0
  141.0990   70.7630  227.3460 C   0  0  0  0  0  0  0  0  0  0  0  0
  140.9320   71.5910  226.2440 C   0  0  0  0  0  0  0  0  0  0  0  0
  140.2190   71.1260  225.1540 C   0  0  0  0  0  0  0  0  0  0  0  0
  140.0800   71.9490  224.1130 N   0  0  0  0  0  0  0  0  0  0  0  0
  140.9670   73.7500  222.5590 H   0  0  0  0  0  0  0  0  0  0  0  0
  140.0552   74.1250  219.7762 H   0  0  0  0  0  0  0  0  0  0  0  0
  139.2967   75.3036  220.8802 H   0  0  0  0  0  0  0  0  0  0  0  0
  143.2462   76.8406  219.1009 H   0  0  0  0  0  0  0  0  0  0  0  0
  141.7911   76.5492  218.1751 H   0  0  0  0  0  0  0  0  0  0  0  0
  142.8650   79.1006  218.4826 H   0  0  0  0  0  0  0  0  0  0  0  0
  141.1349   78.9053  218.2984 H   0  0  0  0  0  0  0  0  0  0  0  0
  142.7754   79.0725  220.9361 H   0  0  0  0  0  0  0  0  0  0  0  0
  141.4147   80.0685  220.5410 H   0  0  0  0  0  0  0  0  0  0  0  0
  139.8798   78.1084  220.6065 H   0  0  0  0  0  0  0  0  0  0  0  0
  141.0063   76.8723  222.7086 H   0  0  0  0  0  0  0  0  0  0  0  0
  138.7400   78.0032  221.8868 H   0  0  0  0  0  0  0  0  0  0  0  0
  139.1544   77.7260  223.6682 H   0  0  0  0  0  0  0  0  0  0  0  0
  138.6321   80.1371  222.1793 H   0  0  0  0  0  0  0  0  0  0  0  0
  138.5414   79.6633  223.9844 H   0  0  0  0  0  0  0  0  0  0  0  0
  140.2650   81.4630  222.9980 H   0  0  0  0  0  0  0  0  0  0  0  0
  142.2209   80.6318  223.6874 H   0  0  0  0  0  0  0  0  0  0  0  0
  141.1892   79.6188  224.8597 H   0  0  0  0  0  0  0  0  0  0  0  0
  142.6482   78.8797  222.4696 H   0  0  0  0  0  0  0  0  0  0  0  0
  142.0980   77.9629  223.9859 H   0  0  0  0  0  0  0  0  0  0  0  0
  138.2923   70.0859  222.0165 H   0  0  0  0  0  0  0  0  0  0  0  0
  138.5035   68.4811  223.9190 H   0  0  0  0  0  0  0  0  0  0  0  0
  139.3941   68.0319  226.2115 H   0  0  0  0  0  0  0  0  0  0  0  0
  141.6625   71.1046  228.2268 H   0  0  0  0  0  0  0  0  0  0  0  0
  141.3613   72.6038  226.2380 H   0  0  0  0  0  0  0  0  0  0  0  0
  1  2  2  0
  2  3  1  0
  3  4  1  0
  4  5  1  0
  5  6  2  0
  5  7  1  0
  7  8  1  0
  8  9  1  0
  9 10  1  0
 10 11  1  0
 11 12  1  0
 12 13  1  0
 13 14  1  0
 14 15  1  0
 15 16  1  0
 16 17  1  0
  2 18  1  0
 18 19  2  0
 19 20  1  0
 20 21  2  0
 21 22  1  0
 22 23  2  0
 23 24  1  0
 23 25  1  0
 25 26  2  0
 26 27  1  0
 27 28  2  0
 11  7  1  0
 17 12  1  0
 28 18  1  0
 27 21  1  0
  3 29  1  0
  4 30  1  0
  4 31  1  0
  8 32  1  0
  8 33  1  0
  9 34  1  0
  9 35  1  0
 10 36  1  0
 10 37  1  0
 11 38  1  6
 12 39  1  0
 13 40  1  0
 13 41  1  0
 14 42  1  0
 14 43  1  0
 15 44  1  0
 16 45  1  0
 16 46  1  0
 17 47  1  0
 17 48  1  0
 19 49  1  0
 20 50  1  0
 22 51  1  0
 25 52  1  0
 26 53  1  0
M  END
>  <smiles>  (12) 
O=C(NCC(=O)N1CCCC1C1CCNCC1)c1ccc2cc(Cl)ccc2n1

>  <score_type>  (12) 
oracle

>  <origin>  (12) 
autodockgpu

>  <m_score__min__energy>  (12) 
-9.0099999999999998

>  <m_primary>  (12) 
energy

>  <rmsd>  (12) 
2.283213019419702

>  <m_score__min__rmsd>  (12) 
2.283213019419702

>  <meeko>  (12) 
{"free_energy": -7.64, "intermolecular_energy": -9.13, "internal_energy": -2.0, "cluster_size": 26, "cluster_id": 2, "rank_in_cluster": 25}

>  <energy>  (12) 
-8.5

>  <cluster_rmsd>  (12) 
0.68

>  <cluster>  (12) 
1

$$$$

     RDKit          3D

 53 56  0  0  0  0  0  0  0  0999 V2000
  140.0490   71.9860  220.5940 O   0  0  0  0  0  0  0  0  0  0  0  0
  139.8990   72.4610  221.7450 C   0  0  0  0  0  0  0  0  0  0  0  0
  139.7180   73.8300  222.0340 N   0  0  0  0  0  0  0  0  0  0  0  0
  139.6940   74.8090  220.9670 C   0  0  0  0  0  0  0  0  0  0  0  0
  139.8890   76.1530  221.5780 C   0  0  0  0  0  0  0  0  0  0  0  0
  139.4810   76.2910  222.7600 O   0  0  0  0  0  0  0  0  0  0  0  0
  140.5120   77.2310  220.8520 N   0  0  0  0  0  0  0  0  0  0  0  0
  141.1760   76.9890  219.5750 C   0  0  0  0  0  0  0  0  0  0  0  0
  141.6690   78.3880  219.1790 C   0  0  0  0  0  0  0  0  0  0  0  0
  141.8200   79.0990  220.5350 C   0  0  0  0  0  0  0  0  0  0  0  0
  140.5840   78.6260  221.2150 C   0  0  2  0  0  0  0  0  0  0  0  0
  140.5520   78.8960  222.6910 C   0  0  0  0  0  0  0  0  0  0  0  0
  139.9320   80.2550  222.9000 C   0  0  0  0  0  0  0  0  0  0  0  0
  140.8660   81.3940  222.9970 C   0  0  0  0  0  0  0  0  0  0  0  0
  142.2210   81.1340  223.2620 N   0  0  0  0  0  0  0  0  0  0  0  0
  142.5570   79.9110  223.8640 C   0  0  0  0  0  0  0  0  0  0  0  0
  141.8280   78.6910  223.4150 C   0  0  0  0  0  0  0  0  0  0  0  0
  139.9130   71.5220  222.8760 C   0  0  0  0  0  0  0  0  0  0  0  0
  139.4010   70.2400  222.7640 C   0  0  0  0  0  0  0  0  0  0  0  0
  139.4150   69.3500  223.8430 C   0  0  0  0  0  0  0  0  0  0  0  0
  139.9540   69.7710  225.0360 C   0  0  0  0  0  0  0  0  0  0  0  0
  140.0160   68.9630  226.1640 C   0  0  0  0  0  0  0  0  0  0  0  0
  140.5760   69.4570  227.3400 C   0  0  0  0  0  0  0  0  0  0  0  0
  140.6480   68.4380  228.7470 Cl  0  0  0  0  0  0  0  0  0  0  0  0
  141.0790   70.7360  227.4280 C   0  0  0  0  0  0  0  0  0  0  0  0
  141.0210   71.5480  226.3030 C   0  0  0  0  0  0  0  0  0  0  0  0
  140.4630   71.0490  225.1410 C   0  0  0  0  0  0  0  0  0  0  0  0
  140.4240   71.8580  224.0800 N   0  0  0  0  0  0  0  0  0  0  0  0
  139.6000   74.1460  223.0370 H   0  0  0  0  0  0  0  0  0  0  0  0
  140.5033   74.6023  220.2512 H   0  0  0  0  0  0  0  0  0  0  0  0
  138.7357   74.7671  220.4285 H   0  0  0  0  0  0  0  0  0  0  0  0
  142.0176   76.2904  219.6919 H   0  0  0  0  0  0  0  0  0  0  0  0
  140.5190   76.5290  218.8222 H   0  0  0  0  0  0  0  0  0  0  0  0
  142.6330   78.3329  218.6521 H   0  0  0  0  0  0  0  0  0  0  0  0
  140.9875   78.9087  218.4903 H   0  0  0  0  0  0  0  0  0  0  0  0
  142.7273   78.7758  221.0664 H   0  0  0  0  0  0  0  0  0  0  0  0
  141.9260   80.1922  220.4752 H   0  0  0  0  0  0  0  0  0  0  0  0
  139.6894   79.1781  220.8912 H   0  0  0  0  0  0  0  0  0  0  0  0
  139.9269   78.1237  223.1630 H   0  0  0  0  0  0  0  0  0  0  0  0
  139.2554   80.4479  222.0544 H   0  0  0  0  0  0  0  0  0  0  0  0
  139.4333   80.2015  223.8790 H   0  0  0  0  0  0  0  0  0  0  0  0
  140.8209   81.9324  222.0388 H   0  0  0  0  0  0  0  0  0  0  0  0
  140.5217   81.9474  223.8831 H   0  0  0  0  0  0  0  0  0  0  0  0
  142.9390   81.6560  222.7640 H   0  0  0  0  0  0  0  0  0  0  0  0
  143.6280   79.7389  223.6813 H   0  0  0  0  0  0  0  0  0  0  0  0
  142.2685   80.0332  224.9184 H   0  0  0  0  0  0  0  0  0  0  0  0
  142.5001   78.1294  222.7495 H   0  0  0  0  0  0  0  0  0  0  0  0
  141.5487   78.1688  224.3420 H   0  0  0  0  0  0  0  0  0  0  0  0
  138.9735   69.9142  221.8043 H   0  0  0  0  0  0  0  0  0  0  0  0
  139.0037   68.3351  223.7395 H   0  0  0  0  0  0  0  0  0  0  0  0
  139.6240   67.9358  226.1289 H   0  0  0  0  0  0  0  0  0  0  0  0
  141.5163   71.1056  228.3672 H   0  0  0  0  0  0  0  0  0  0  0  0
  141.4140   72.5749  226.3361 H   0  0  0  0  0  0  0  0  0  0  0  0
  1  2  2  0
  2  3  1  0
  3  4  1  0
  4  5  1  0
  5  6  2  0
  5  7  1  0
  7  8  1  0
  8  9  1  0
  9 10  1  0
 10 11  1  0
 11 12  1  0
 12 13  1  0
 13 14  1  0
 14 15  1  0
 15 16  1  0
 16 17  1  0
  2 18  1  0
 18 19  2  0
 19 20  1  0
 20 21  2  0
 21 22  1  0
 22 23  2  0
 23 24  1  0
 23 25  1  0
 25 26  2  0
 26 27  1  0
 27 28  2  0
 11  7  1  0
 17 12  1  0
 28 18  1  0
 27 21  1  0
  3 29  1  0
  4 30  1  0
  4 31  1  0
  8 32  1  0
  8 33  1  0
  9 34  1  0
  9 35  1  0
 10 36  1  0
 10 37  1  0
 11 38  1  6
 12 39  1  0
 13 40  1  0
 13 41  1  0
 14 42  1  0
 14 43  1  0
 15 44  1  0
 16 45  1  0
 16 46  1  0
 17 47  1  0
 17 48  1  0
 19 49  1  0
 20 50  1  0
 22 51  1  0
 25 52  1  0
 26 53  1  0
M  END
>  <smiles>  (13) 
O=C(NCC(=O)N1CCCC1C1CCNCC1)c1ccc2cc(Cl)ccc2n1

>  <score_type>  (13) 
oracle

>  <origin>  (13) 
autodockgpu

>  <m_score__min__energy>  (13) 
-9.0099999999999998

>  <m_primary>  (13) 
energy

>  <rmsd>  (13) 
2.13257101157685

>  <m_score__min__rmsd>  (13) 
2.13257101157685

>  <meeko>  (13) 
{"free_energy": -8.48, "intermolecular_energy": -9.97, "internal_energy": -1.91, "cluster_size": 26, "cluster_id": 2, "rank_in_cluster": 13}

>  <energy>  (13) 
-8.46

>  <cluster_rmsd>  (13) 
0.51

>  <cluster>  (13) 
1

$$$$

     RDKit          3D

 53 56  0  0  0  0  0  0  0  0999 V2000
  140.8650   73.5150  220.6530 O   0  0  0  0  0  0  0  0  0  0  0  0
  140.2430   73.7090  221.7250 C   0  0  0  0  0  0  0  0  0  0  0  0
  139.8130   74.9680  222.1900 N   0  0  0  0  0  0  0  0  0  0  0  0
  140.0750   76.1650  221.4180 C   0  0  0  0  0  0  0  0  0  0  0  0
  140.0020   77.3290  222.3440 C   0  0  0  0  0  0  0  0  0  0  0  0
  138.9760   77.4010  223.0690 O   0  0  0  0  0  0  0  0  0  0  0  0
  141.0510   78.3170  222.4030 N   0  0  0  0  0  0  0  0  0  0  0  0
  141.4890   78.8680  223.6810 C   0  0  0  0  0  0  0  0  0  0  0  0
  142.5970   79.8470  223.2660 C   0  0  0  0  0  0  0  0  0  0  0  0
  142.2040   80.2240  221.8280 C   0  0  0  0  0  0  0  0  0  0  0  0
  141.7990   78.8890  221.3100 C   0  0  2  0  0  0  0  0  0  0  0  0
  141.0670   78.9340  220.0000 C   0  0  0  0  0  0  0  0  0  0  0  0
  141.5590   77.7830  219.1570 C   0  0  0  0  0  0  0  0  0  0  0  0
  142.6660   78.0770  218.2260 C   0  0  0  0  0  0  0  0  0  0  0  0
  142.9400   79.4180  217.9070 N   0  0  0  0  0  0  0  0  0  0  0  0
  141.9200   80.3650  218.0890 C   0  0  0  0  0  0  0  0  0  0  0  0
  141.0630   80.2410  219.3030 C   0  0  0  0  0  0  0  0  0  0  0  0
  139.9430   72.5350  222.5590 C   0  0  0  0  0  0  0  0  0  0  0  0
  138.9420   71.6400  222.2220 C   0  0  0  0  0  0  0  0  0  0  0  0
  138.6580   70.5260  223.0180 C   0  0  0  0  0  0  0  0  0  0  0  0
  139.4010   70.3270  224.1600 C   0  0  0  0  0  0  0  0  0  0  0  0
  139.1970   69.2520  225.0150 C   0  0  0  0  0  0  0  0  0  0  0  0
  139.9870   69.1140  226.1550 C   0  0  0  0  0  0  0  0  0  0  0  0
  139.7240   67.7650  227.2190 Cl  0  0  0  0  0  0  0  0  0  0  0  0
  140.9770   70.0180  226.4700 C   0  0  0  0  0  0  0  0  0  0  0  0
  141.1850   71.0950  225.6170 C   0  0  0  0  0  0  0  0  0  0  0  0
  140.3970   71.2230  224.4890 C   0  0  0  0  0  0  0  0  0  0  0  0
  140.6250   72.2700  223.6940 N   0  0  0  0  0  0  0  0  0  0  0  0
  139.2950   75.0430  223.1100 H   0  0  0  0  0  0  0  0  0  0  0  0
  141.0767   76.1077  220.9672 H   0  0  0  0  0  0  0  0  0  0  0  0
  139.3364   76.2702  220.6097 H   0  0  0  0  0  0  0  0  0  0  0  0
  140.6665   79.3925  224.1894 H   0  0  0  0  0  0  0  0  0  0  0  0
  141.8287   78.1013  224.3929 H   0  0  0  0  0  0  0  0  0  0  0  0
  142.6069   80.7326  223.9183 H   0  0  0  0  0  0  0  0  0  0  0  0
  143.6065   79.4166  223.3410 H   0  0  0  0  0  0  0  0  0  0  0  0
  141.3690   80.9398  221.8077 H   0  0  0  0  0  0  0  0  0  0  0  0
  142.9939   80.7246  221.2488 H   0  0  0  0  0  0  0  0  0  0  0  0
  142.6623   78.2649  221.0358 H   0  0  0  0  0  0  0  0  0  0  0  0
  139.9933   78.8152  220.2073 H   0  0  0  0  0  0  0  0  0  0  0  0
  141.8975   76.9893  219.8393 H   0  0  0  0  0  0  0  0  0  0  0  0
  140.7075   77.5033  218.5192 H   0  0  0  0  0  0  0  0  0  0  0  0
  143.5812   77.6554  218.6673 H   0  0  0  0  0  0  0  0  0  0  0  0
  142.3381   77.6368  217.2728 H   0  0  0  0  0  0  0  0  0  0  0  0
  143.9060   79.7340  217.8490 H   0  0  0  0  0  0  0  0  0  0  0  0
  142.3954   81.3564  218.1232 H   0  0  0  0  0  0  0  0  0  0  0  0
  141.2326   80.1962  217.2470 H   0  0  0  0  0  0  0  0  0  0  0  0
  141.3968   81.0021  220.0236 H   0  0  0  0  0  0  0  0  0  0  0  0
  140.0327   80.3665  218.9386 H   0  0  0  0  0  0  0  0  0  0  0  0
  138.3562   71.8092  221.3064 H   0  0  0  0  0  0  0  0  0  0  0  0
  137.8586   69.8241  222.7380 H   0  0  0  0  0  0  0  0  0  0  0  0
  138.4143   68.5116  224.7933 H   0  0  0  0  0  0  0  0  0  0  0  0
  141.5886   69.8905  227.3754 H   0  0  0  0  0  0  0  0  0  0  0  0
  141.9672   71.8365  225.8369 H   0  0  0  0  0  0  0  0  0  0  0  0
  1  2  2  0
  2  3  1  0
  3  4  1  0
  4  5  1  0
  5  6  2  0
  5  7  1  0
  7  8  1  0
  8  9  1  0
  9 10  1  0
 10 11  1  0
 11 12  1  0
 12 13  1  0
 13 14  1  0
 14 15  1  0
 15 16  1  0
 16 17  1  0
  2 18  1  0
 18 19  2  0
 19 20  1  0
 20 21  2  0
 21 22  1  0
 22 23  2  0
 23 24  1  0
 23 25  1  0
 25 26  2  0
 26 27  1  0
 27 28  2  0
 11  7  1  0
 17 12  1  0
 28 18  1  0
 27 21  1  0
  3 29  1  0
  4 30  1  0
  4 31  1  0
  8 32  1  0
  8 33  1  0
  9 34  1  0
  9 35  1  0
 10 36  1  0
 10 37  1  0
 11 38  1  6
 12 39  1  0
 13 40  1  0
 13 41  1  0
 14 42  1  0
 14 43  1  0
 15 44  1  0
 16 45  1  0
 16 46  1  0
 17 47  1  0
 17 48  1  0
 19 49  1  0
 20 50  1  0
 22 51  1  0
 25 52  1  0
 26 53  1  0
M  END
>  <smiles>  (14) 
O=C(NCC(=O)N1CCCC1C1CCNCC1)c1ccc2cc(Cl)ccc2n1

>  <score_type>  (14) 
oracle

>  <origin>  (14) 
autodockgpu

>  <m_score__min__energy>  (14) 
-9.0099999999999998

>  <m_primary>  (14) 
energy

>  <rmsd>  (14) 
3.9054259949887404

>  <m_score__min__rmsd>  (14) 
3.9054259949887404

>  <meeko>  (14) 
{"free_energy": -8.47, "intermolecular_energy": -9.96, "internal_energy": -1.54, "cluster_size": 3, "cluster_id": 3, "rank_in_cluster": 2}

>  <energy>  (14) 
-8.44

>  <cluster_rmsd>  (14) 
0.58

>  <cluster>  (14) 
1

$$$$

     RDKit          3D

 53 56  0  0  0  0  0  0  0  0999 V2000
  140.2970   72.0730  220.6030 O   0  0  0  0  0  0  0  0  0  0  0  0
  139.9550   72.5150  221.7270 C   0  0  0  0  0  0  0  0  0  0  0  0
  139.5830   73.8500  221.9880 N   0  0  0  0  0  0  0  0  0  0  0  0
  139.5730   74.8310  220.9230 C   0  0  0  0  0  0  0  0  0  0  0  0
  139.9080   76.1540  221.5200 C   0  0  0  0  0  0  0  0  0  0  0  0
  139.6180   76.3060  222.7350 O   0  0  0  0  0  0  0  0  0  0  0  0
  140.5300   77.1990  220.7450 N   0  0  0  0  0  0  0  0  0  0  0  0
  141.2850   76.8860  219.5360 C   0  0  0  0  0  0  0  0  0  0  0  0
  141.7430   78.2710  219.0560 C   0  0  0  0  0  0  0  0  0  0  0  0
  141.7740   79.0950  220.3540 C   0  0  0  0  0  0  0  0  0  0  0  0
  140.5180   78.6200  220.9940 C   0  0  2  0  0  0  0  0  0  0  0  0
  140.3790   79.0070  222.4380 C   0  0  0  0  0  0  0  0  0  0  0  0
  140.0050   80.4680  222.4910 C   0  0  0  0  0  0  0  0  0  0  0  0
  141.1200   81.4250  222.6340 C   0  0  0  0  0  0  0  0  0  0  0  0
  142.3660   80.9470  223.0750 N   0  0  0  0  0  0  0  0  0  0  0  0
  142.4000   79.7360  223.7820 C   0  0  0  0  0  0  0  0  0  0  0  0
  141.5080   78.6340  223.3200 C   0  0  0  0  0  0  0  0  0  0  0  0
  139.9430   71.5710  222.8540 C   0  0  0  0  0  0  0  0  0  0  0  0
  139.4000   70.3020  222.7350 C   0  0  0  0  0  0  0  0  0  0  0  0
  139.3880   69.4070  223.8090 C   0  0  0  0  0  0  0  0  0  0  0  0
  139.9340   69.8110  225.0060 C   0  0  0  0  0  0  0  0  0  0  0  0
  139.9720   68.9960  226.1310 C   0  0  0  0  0  0  0  0  0  0  0  0
  140.5400   69.4710  227.3110 C   0  0  0  0  0  0  0  0  0  0  0  0
  140.5830   68.4450  228.7140 Cl  0  0  0  0  0  0  0  0  0  0  0  0
  141.0750   70.7370  227.4060 C   0  0  0  0  0  0  0  0  0  0  0  0
  141.0400   71.5550  226.2840 C   0  0  0  0  0  0  0  0  0  0  0  0
  140.4740   71.0750  225.1180 C   0  0  0  0  0  0  0  0  0  0  0  0
  140.4580   71.8890  224.0610 N   0  0  0  0  0  0  0  0  0  0  0  0
  139.3090   74.1390  222.9680 H   0  0  0  0  0  0  0  0  0  0  0  0
  140.3203   74.5641  220.1613 H   0  0  0  0  0  0  0  0  0  0  0  0
  138.5845   74.8657  220.4416 H   0  0  0  0  0  0  0  0  0  0  0  0
  142.1460   76.2398  219.7622 H   0  0  0  0  0  0  0  0  0  0  0  0
  140.6987   76.3357  218.7854 H   0  0  0  0  0  0  0  0  0  0  0  0
  142.7411   78.2199  218.5964 H   0  0  0  0  0  0  0  0  0  0  0  0
  141.0866   78.7013  218.2853 H   0  0  0  0  0  0  0  0  0  0  0  0
  142.6576   78.8598  220.9655 H   0  0  0  0  0  0  0  0  0  0  0  0
  141.8364   80.1837  220.2094 H   0  0  0  0  0  0  0  0  0  0  0  0
  139.6231   79.1002  220.5714 H   0  0  0  0  0  0  0  0  0  0  0  0
  139.5739   78.3993  222.8766 H   0  0  0  0  0  0  0  0  0  0  0  0
  139.4722   80.7113  221.5599 H   0  0  0  0  0  0  0  0  0  0  0  0
  139.4017   80.5829  223.4036 H   0  0  0  0  0  0  0  0  0  0  0  0
  141.2802   81.8855  221.6480 H   0  0  0  0  0  0  0  0  0  0  0  0
  140.7921   82.0996  223.4386 H   0  0  0  0  0  0  0  0  0  0  0  0
  143.2180   81.2910  222.6380 H   0  0  0  0  0  0  0  0  0  0  0  0
  143.4332   79.3608  223.7399 H   0  0  0  0  0  0  0  0  0  0  0  0
  142.0271   79.9911  224.7849 H   0  0  0  0  0  0  0  0  0  0  0  0
  142.1307   77.9103  222.7736 H   0  0  0  0  0  0  0  0  0  0  0  0
  141.0383   78.2445  224.2353 H   0  0  0  0  0  0  0  0  0  0  0  0
  138.9679   69.9911  221.7724 H   0  0  0  0  0  0  0  0  0  0  0  0
  138.9522   68.4029  223.6998 H   0  0  0  0  0  0  0  0  0  0  0  0
  139.5549   67.9790  226.0898 H   0  0  0  0  0  0  0  0  0  0  0  0
  141.5192   71.0915  228.3478 H   0  0  0  0  0  0  0  0  0  0  0  0
  141.4574   72.5720  226.3229 H   0  0  0  0  0  0  0  0  0  0  0  0
  1  2  2  0
  2  3  1  0
  3  4  1  0
  4  5  1  0
  5  6  2  0
  5  7  1  0
  7  8  1  0
  8  9  1  0
  9 10  1  0
 10 11  1  0
 11 12  1  0
 12 13  1  0
 13 14  1  0
 14 15  1  0
 15 16  1  0
 16 17  1  0
  2 18  1  0
 18 19  2  0
 19 20  1  0
 20 21  2  0
 21 22  1  0
 22 23  2  0
 23 24  1  0
 23 25  1  0
 25 26  2  0
 26 27  1  0
 27 28  2  0
 11  7  1  0
 17 12  1  0
 28 18  1  0
 27 21  1  0
  3 29  1  0
  4 30  1  0
  4 31  1  0
  8 32  1  0
  8 33  1  0
  9 34  1  0
  9 35  1  0
 10 36  1  0
 10 37  1  0
 11 38  1  6
 12 39  1  0
 13 40  1  0
 13 41  1  0
 14 42  1  0
 14 43  1  0
 15 44  1  0
 16 45  1  0
 16 46  1  0
 17 47  1  0
 17 48  1  0
 19 49  1  0
 20 50  1  0
 22 51  1  0
 25 52  1  0
 26 53  1  0
M  END
>  <smiles>  (15) 
O=C(NCC(=O)N1CCCC1C1CCNCC1)c1ccc2cc(Cl)ccc2n1

>  <score_type>  (15) 
oracle

>  <origin>  (15) 
autodockgpu

>  <m_score__min__energy>  (15) 
-9.0099999999999998

>  <m_primary>  (15) 
energy

>  <rmsd>  (15) 
2.1003319172566046

>  <m_score__min__rmsd>  (15) 
2.1003319172566046

>  <meeko>  (15) 
{"free_energy": -8.54, "intermolecular_energy": -10.04, "internal_energy": -1.83, "cluster_size": 26, "cluster_id": 2, "rank_in_cluster": 9}

>  <energy>  (15) 
-8.4

>  <cluster_rmsd>  (15) 
0.41

>  <cluster>  (15) 
1

$$$$

     RDKit          3D

 53 56  0  0  0  0  0  0  0  0999 V2000
  140.1620   71.8140  220.4960 O   0  0  0  0  0  0  0  0  0  0  0  0
  140.0590   72.3370  221.6320 C   0  0  0  0  0  0  0  0  0  0  0  0
  140.0030   73.7250  221.8760 N   0  0  0  0  0  0  0  0  0  0  0  0
  140.0610   74.6680  220.7790 C   0  0  0  0  0  0  0  0  0  0  0  0
  141.0660   75.7100  221.1270 C   0  0  0  0  0  0  0  0  0  0  0  0
  141.0830   76.0880  222.3270 O   0  0  0  0  0  0  0  0  0  0  0  0
  141.9660   76.2530  220.1410 N   0  0  0  0  0  0  0  0  0  0  0  0
  141.6750   77.5210  219.4790 C   0  0  0  0  0  0  0  0  0  0  0  0
  142.8800   77.7000  218.5440 C   0  0  0  0  0  0  0  0  0  0  0  0
  143.3420   76.2540  218.2960 C   0  0  0  0  0  0  0  0  0  0  0  0
  143.2130   75.7000  219.6700 C   0  0  2  0  0  0  0  0  0  0  0  0
  143.3050   74.2030  219.7410 C   0  0  0  0  0  0  0  0  0  0  0  0
  144.3190   73.8520  220.8020 C   0  0  0  0  0  0  0  0  0  0  0  0
  145.7030   73.6330  220.3380 C   0  0  0  0  0  0  0  0  0  0  0  0
  145.9270   73.3960  218.9710 N   0  0  0  0  0  0  0  0  0  0  0  0
  144.8560   72.9270  218.1950 C   0  0  0  0  0  0  0  0  0  0  0  0
  143.5050   73.5040  218.4520 C   0  0  0  0  0  0  0  0  0  0  0  0
  139.9940   71.4370  222.7930 C   0  0  0  0  0  0  0  0  0  0  0  0
  139.3930   70.1920  222.7150 C   0  0  0  0  0  0  0  0  0  0  0  0
  139.3320   69.3380  223.8210 C   0  0  0  0  0  0  0  0  0  0  0  0
  139.8870   69.7600  225.0080 C   0  0  0  0  0  0  0  0  0  0  0  0
  139.8780   68.9860  226.1620 C   0  0  0  0  0  0  0  0  0  0  0  0
  140.4600   69.4780  227.3290 C   0  0  0  0  0  0  0  0  0  0  0  0
  140.4440   68.5030  228.7680 Cl  0  0  0  0  0  0  0  0  0  0  0  0
  141.0520   70.7200  227.3820 C   0  0  0  0  0  0  0  0  0  0  0  0
  141.0640   71.4970  226.2310 C   0  0  0  0  0  0  0  0  0  0  0  0
  140.4840   71.0010  225.0780 C   0  0  0  0  0  0  0  0  0  0  0  0
  140.5150   71.7750  223.9920 N   0  0  0  0  0  0  0  0  0  0  0  0
  139.9170   74.0830  222.8690 H   0  0  0  0  0  0  0  0  0  0  0  0
  140.3626   74.1506  219.8564 H   0  0  0  0  0  0  0  0  0  0  0  0
  139.0746   75.1258  220.6134 H   0  0  0  0  0  0  0  0  0  0  0  0
  140.7360   77.4642  218.9089 H   0  0  0  0  0  0  0  0  0  0  0  0
  141.5393   78.3577  220.1801 H   0  0  0  0  0  0  0  0  0  0  0  0
  142.5821   78.1868  217.6037 H   0  0  0  0  0  0  0  0  0  0  0  0
  143.6673   78.3402  218.9686 H   0  0  0  0  0  0  0  0  0  0  0  0
  142.6862   75.7329  217.5829 H   0  0  0  0  0  0  0  0  0  0  0  0
  144.3434   76.1584  217.8510 H   0  0  0  0  0  0  0  0  0  0  0  0
  144.0556   75.9839  220.3176 H   0  0  0  0  0  0  0  0  0  0  0  0
  142.3158   73.8156  220.0264 H   0  0  0  0  0  0  0  0  0  0  0  0
  144.3369   74.6736  221.5332 H   0  0  0  0  0  0  0  0  0  0  0  0
  143.9912   72.8854  221.2122 H   0  0  0  0  0  0  0  0  0  0  0  0
  146.2813   74.5282  220.6104 H   0  0  0  0  0  0  0  0  0  0  0  0
  146.0022   72.6929  220.8246 H   0  0  0  0  0  0  0  0  0  0  0  0
  146.7200   73.8350  218.5090 H   0  0  0  0  0  0  0  0  0  0  0  0
  145.1025   73.1258  217.1416 H   0  0  0  0  0  0  0  0  0  0  0  0
  144.7602   71.8658  218.4684 H   0  0  0  0  0  0  0  0  0  0  0  0
  143.2939   74.2244  217.6480 H   0  0  0  0  0  0  0  0  0  0  0  0
  142.8279   72.6379  218.4897 H   0  0  0  0  0  0  0  0  0  0  0  0
  138.9531   69.8669  221.7606 H   0  0  0  0  0  0  0  0  0  0  0  0
  138.8514   68.3515  223.7441 H   0  0  0  0  0  0  0  0  0  0  0  0
  139.4134   67.9890  226.1546 H   0  0  0  0  0  0  0  0  0  0  0  0
  141.5049   71.0882  228.3144 H   0  0  0  0  0  0  0  0  0  0  0  0
  141.5288   72.4940  226.2365 H   0  0  0  0  0  0  0  0  0  0  0  0
  1  2  2  0
  2  3  1  0
  3  4  1  0
  4  5  1  0
  5  6  2  0
  5  7  1  0
  7  8  1  0
  8  9  1  0
  9 10  1  0
 10 11  1  0
 11 12  1  0
 12 13  1  0
 13 14  1  0
 14 15  1  0
 15 16  1  0
 16 17  1  0
  2 18  1  0
 18 19  2  0
 19 20  1  0
 20 21  2  0
 21 22  1  0
 22 23  2  0
 23 24  1  0
 23 25  1  0
 25 26  2  0
 26 27  1  0
 27 28  2  0
 11  7  1  0
 17 12  1  0
 28 18  1  0
 27 21  1  0
  3 29  1  0
  4 30  1  0
  4 31  1  0
  8 32  1  0
  8 33  1  0
  9 34  1  0
  9 35  1  0
 10 36  1  0
 10 37  1  0
 11 38  1  1
 12 39  1  0
 13 40  1  0
 13 41  1  0
 14 42  1  0
 14 43  1  0
 15 44  1  0
 16 45  1  0
 16 46  1  0
 17 47  1  0
 17 48  1  0
 19 49  1  0
 20 50  1  0
 22 51  1  0
 25 52  1  0
 26 53  1  0
M  END
>  <smiles>  (16) 
O=C(NCC(=O)N1CCCC1C1CCNCC1)c1ccc2cc(Cl)ccc2n1

>  <score_type>  (16) 
oracle

>  <origin>  (16) 
autodockgpu

>  <m_score__min__energy>  (16) 
-9.0099999999999998

>  <m_primary>  (16) 
energy

>  <rmsd>  (16) 
2.230700787965558

>  <m_score__min__rmsd>  (16) 
2.230700787965558

>  <meeko>  (16) 
{"free_energy": -8.71, "intermolecular_energy": -10.2, "internal_energy": -2.04, "cluster_size": 19, "cluster_id": 1, "rank_in_cluster": 9}

>  <energy>  (16) 
-8.39

>  <cluster_rmsd>  (16) 
0.95

>  <cluster>  (16) 
1

$$$$

     RDKit          3D

 53 56  0  0  0  0  0  0  0  0999 V2000
  140.7030   72.1330  220.6610 O   0  0  0  0  0  0  0  0  0  0  0  0
  140.2380   72.5700  221.7400 C   0  0  0  0  0  0  0  0  0  0  0  0
  139.8050   73.8950  221.9530 N   0  0  0  0  0  0  0  0  0  0  0  0
  139.8770   74.8720  220.8850 C   0  0  0  0  0  0  0  0  0  0  0  0
  140.0990   76.2080  221.5040 C   0  0  0  0  0  0  0  0  0  0  0  0
  139.8710   76.2940  222.7390 O   0  0  0  0  0  0  0  0  0  0  0  0
  140.5490   77.3360  220.7290 N   0  0  0  0  0  0  0  0  0  0  0  0
  140.7990   77.2090  219.2960 C   0  0  0  0  0  0  0  0  0  0  0  0
  141.2410   78.6250  218.9030 C   0  0  0  0  0  0  0  0  0  0  0  0
  141.8210   79.1840  220.2130 C   0  0  0  0  0  0  0  0  0  0  0  0
  140.8080   78.6820  221.1810 C   0  0  2  0  0  0  0  0  0  0  0  0
  141.2220   78.7960  222.6190 C   0  0  0  0  0  0  0  0  0  0  0  0
  140.0960   79.4590  223.3730 C   0  0  0  0  0  0  0  0  0  0  0  0
  140.1820   80.9240  223.5260 C   0  0  0  0  0  0  0  0  0  0  0  0
  141.4210   81.5520  223.3130 N   0  0  0  0  0  0  0  0  0  0  0  0
  142.5850   80.7760  223.4210 C   0  0  0  0  0  0  0  0  0  0  0  0
  142.5550   79.3930  222.8650 C   0  0  0  0  0  0  0  0  0  0  0  0
  140.1370   71.6310  222.8670 C   0  0  0  0  0  0  0  0  0  0  0  0
  139.5370   70.3900  222.7290 C   0  0  0  0  0  0  0  0  0  0  0  0
  139.4420   69.5000  223.8040 C   0  0  0  0  0  0  0  0  0  0  0  0
  139.9610   69.8800  225.0200 C   0  0  0  0  0  0  0  0  0  0  0  0
  139.9160   69.0680  226.1460 C   0  0  0  0  0  0  0  0  0  0  0  0
  140.4620   69.5180  227.3470 C   0  0  0  0  0  0  0  0  0  0  0  0
  140.4010   68.4960  228.7510 Cl  0  0  0  0  0  0  0  0  0  0  0  0
  141.0530   70.7570  227.4600 C   0  0  0  0  0  0  0  0  0  0  0  0
  141.1010   71.5730  226.3370 C   0  0  0  0  0  0  0  0  0  0  0  0
  140.5570   71.1170  225.1510 C   0  0  0  0  0  0  0  0  0  0  0  0
  140.6210   71.9280  224.0930 N   0  0  0  0  0  0  0  0  0  0  0  0
  139.4260   74.1820  222.8980 H   0  0  0  0  0  0  0  0  0  0  0  0
  140.7115   74.6286  220.2109 H   0  0  0  0  0  0  0  0  0  0  0  0
  138.9459   74.8700  220.2992 H   0  0  0  0  0  0  0  0  0  0  0  0
  141.5939   76.4755  219.0957 H   0  0  0  0  0  0  0  0  0  0  0  0
  139.9254   76.8521  218.7308 H   0  0  0  0  0  0  0  0  0  0  0  0
  142.0060   78.5952  218.1132 H   0  0  0  0  0  0  0  0  0  0  0  0
  140.4223   79.2368  218.4962 H   0  0  0  0  0  0  0  0  0  0  0  0
  142.8216   78.7778  220.4222 H   0  0  0  0  0  0  0  0  0  0  0  0
  141.9718   80.2735  220.2245 H   0  0  0  0  0  0  0  0  0  0  0  0
  139.8935   79.2932  221.1873 H   0  0  0  0  0  0  0  0  0  0  0  0
  141.3841   77.7794  223.0066 H   0  0  0  0  0  0  0  0  0  0  0  0
  139.1592   79.2323  222.8429 H   0  0  0  0  0  0  0  0  0  0  0  0
  140.1506   79.0548  224.3946 H   0  0  0  0  0  0  0  0  0  0  0  0
  139.4681   81.3664  222.8156 H   0  0  0  0  0  0  0  0  0  0  0  0
  139.9755   81.0943  224.5929 H   0  0  0  0  0  0  0  0  0  0  0  0
  141.4560   82.4330  222.8040 H   0  0  0  0  0  0  0  0  0  0  0  0
  143.3901   81.3193  222.9047 H   0  0  0  0  0  0  0  0  0  0  0  0
  142.7237   80.6355  224.5031 H   0  0  0  0  0  0  0  0  0  0  0  0
  143.0935   79.4091  221.9060 H   0  0  0  0  0  0  0  0  0  0  0  0
  143.0113   78.7626  223.6424 H   0  0  0  0  0  0  0  0  0  0  0  0
  139.1258   70.0977  221.7515 H   0  0  0  0  0  0  0  0  0  0  0  0
  138.9628   68.5177  223.6797 H   0  0  0  0  0  0  0  0  0  0  0  0
  139.4509   68.0728  226.0901 H   0  0  0  0  0  0  0  0  0  0  0  0
  141.4773   71.0926  228.4178 H   0  0  0  0  0  0  0  0  0  0  0  0
  141.5656   72.5686  226.3908 H   0  0  0  0  0  0  0  0  0  0  0  0
  1  2  2  0
  2  3  1  0
  3  4  1  0
  4  5  1  0
  5  6  2  0
  5  7  1  0
  7  8  1  0
  8  9  1  0
  9 10  1  0
 10 11  1  0
 11 12  1  0
 12 13  1  0
 13 14  1  0
 14 15  1  0
 15 16  1  0
 16 17  1  0
  2 18  1  0
 18 19  2  0
 19 20  1  0
 20 21  2  0
 21 22  1  0
 22 23  2  0
 23 24  1  0
 23 25  1  0
 25 26  2  0
 26 27  1  0
 27 28  2  0
 11  7  1  0
 17 12  1  0
 28 18  1  0
 27 21  1  0
  3 29  1  0
  4 30  1  0
  4 31  1  0
  8 32  1  0
  8 33  1  0
  9 34  1  0
  9 35  1  0
 10 36  1  0
 10 37  1  0
 11 38  1  1
 12 39  1  0
 13 40  1  0
 13 41  1  0
 14 42  1  0
 14 43  1  0
 15 44  1  0
 16 45  1  0
 16 46  1  0
 17 47  1  0
 17 48  1  0
 19 49  1  0
 20 50  1  0
 22 51  1  0
 25 52  1  0
 26 53  1  0
M  END
>  <smiles>  (17) 
O=C(NCC(=O)N1CCCC1C1CCNCC1)c1ccc2cc(Cl)ccc2n1

>  <score_type>  (17) 
oracle

>  <origin>  (17) 
autodockgpu

>  <m_score__min__energy>  (17) 
-9.0099999999999998

>  <m_primary>  (17) 
energy

>  <rmsd>  (17) 
2.116453485714897

>  <m_score__min__rmsd>  (17) 
2.116453485714897

>  <meeko>  (17) 
{"free_energy": -8.62, "intermolecular_energy": -10.11, "internal_energy": -1.83, "cluster_size": 26, "cluster_id": 2, "rank_in_cluster": 5}

>  <energy>  (17) 
-8.31

>  <cluster_rmsd>  (17) 
0.73

>  <cluster>  (17) 
1

$$$$

     RDKit          3D

 53 56  0  0  0  0  0  0  0  0999 V2000
  140.3590   71.9470  220.5850 O   0  0  0  0  0  0  0  0  0  0  0  0
  140.1050   72.4300  221.7150 C   0  0  0  0  0  0  0  0  0  0  0  0
  139.8750   73.7980  221.9720 N   0  0  0  0  0  0  0  0  0  0  0  0
  139.9200   74.7660  220.8960 C   0  0  0  0  0  0  0  0  0  0  0  0
  141.0620   75.6840  221.1570 C   0  0  0  0  0  0  0  0  0  0  0  0
  141.1800   76.1050  222.3380 O   0  0  0  0  0  0  0  0  0  0  0  0
  141.9800   76.0670  220.1140 N   0  0  0  0  0  0  0  0  0  0  0  0
  141.6590   77.1570  219.1970 C   0  0  0  0  0  0  0  0  0  0  0  0
  142.8960   77.2100  218.2890 C   0  0  0  0  0  0  0  0  0  0  0  0
  143.4380   75.7730  218.3570 C   0  0  0  0  0  0  0  0  0  0  0  0
  143.2720   75.5010  219.8100 C   0  0  2  0  0  0  0  0  0  0  0  0
  143.4320   74.0570  220.1880 C   0  0  0  0  0  0  0  0  0  0  0  0
  144.7810   73.8980  220.8460 C   0  0  0  0  0  0  0  0  0  0  0  0
  145.8970   73.5000  219.9670 C   0  0  0  0  0  0  0  0  0  0  0  0
  145.6000   72.9450  218.7100 N   0  0  0  0  0  0  0  0  0  0  0  0
  144.3320   72.3750  218.5200 C   0  0  0  0  0  0  0  0  0  0  0  0
  143.1580   73.0720  219.1170 C   0  0  0  0  0  0  0  0  0  0  0  0
  140.0430   71.5030  222.8540 C   0  0  0  0  0  0  0  0  0  0  0  0
  139.4820   70.2420  222.7360 C   0  0  0  0  0  0  0  0  0  0  0  0
  139.4240   69.3620  223.8220 C   0  0  0  0  0  0  0  0  0  0  0  0
  139.9410   69.7730  225.0290 C   0  0  0  0  0  0  0  0  0  0  0  0
  139.9330   68.9740  226.1650 C   0  0  0  0  0  0  0  0  0  0  0  0
  140.4740   69.4560  227.3550 C   0  0  0  0  0  0  0  0  0  0  0  0
  140.4580   68.4490  228.7720 Cl  0  0  0  0  0  0  0  0  0  0  0  0
  141.0270   70.7140  227.4480 C   0  0  0  0  0  0  0  0  0  0  0  0
  141.0390   71.5170  226.3150 C   0  0  0  0  0  0  0  0  0  0  0  0
  140.4990   71.0300  225.1390 C   0  0  0  0  0  0  0  0  0  0  0  0
  140.5280   71.8290  224.0710 N   0  0  0  0  0  0  0  0  0  0  0  0
  139.6680   74.1220  222.9580 H   0  0  0  0  0  0  0  0  0  0  0  0
  140.0661   74.2508  219.9351 H   0  0  0  0  0  0  0  0  0  0  0  0
  138.9770   75.3302  220.8472 H   0  0  0  0  0  0  0  0  0  0  0  0
  140.7510   76.9335  218.6177 H   0  0  0  0  0  0  0  0  0  0  0  0
  141.4508   78.1092  219.7069 H   0  0  0  0  0  0  0  0  0  0  0  0
  142.6190   77.4796  217.2591 H   0  0  0  0  0  0  0  0  0  0  0  0
  143.6314   77.9655  218.6026 H   0  0  0  0  0  0  0  0  0  0  0  0
  142.8420   75.0827  217.7420 H   0  0  0  0  0  0  0  0  0  0  0  0
  144.4624   75.6464  217.9767 H   0  0  0  0  0  0  0  0  0  0  0  0
  144.0694   75.9564  220.4156 H   0  0  0  0  0  0  0  0  0  0  0  0
  142.6346   73.8036  220.9021 H   0  0  0  0  0  0  0  0  0  0  0  0
  145.0446   74.8618  221.3059 H   0  0  0  0  0  0  0  0  0  0  0  0
  144.6619   73.0698  221.5600 H   0  0  0  0  0  0  0  0  0  0  0  0
  146.5055   74.3989  219.7887 H   0  0  0  0  0  0  0  0  0  0  0  0
  146.3879   72.6804  220.5122 H   0  0  0  0  0  0  0  0  0  0  0  0
  146.1480   73.2200  217.8980 H   0  0  0  0  0  0  0  0  0  0  0  0
  144.1597   72.3133  217.4353 H   0  0  0  0  0  0  0  0  0  0  0  0
  144.3800   71.4122  219.0498 H   0  0  0  0  0  0  0  0  0  0  0  0
  142.6385   73.6014  218.3047 H   0  0  0  0  0  0  0  0  0  0  0  0
  142.5724   72.2780  219.6033 H   0  0  0  0  0  0  0  0  0  0  0  0
  139.0725   69.9251  221.7655 H   0  0  0  0  0  0  0  0  0  0  0  0
  138.9750   68.3637  223.7134 H   0  0  0  0  0  0  0  0  0  0  0  0
  139.5007   67.9633  226.1253 H   0  0  0  0  0  0  0  0  0  0  0  0
  141.4493   71.0743  228.3976 H   0  0  0  0  0  0  0  0  0  0  0  0
  141.4725   72.5273  226.3527 H   0  0  0  0  0  0  0  0  0  0  0  0
  1  2  2  0
  2  3  1  0
  3  4  1  0
  4  5  1  0
  5  6  2  0
  5  7  1  0
  7  8  1  0
  8  9  1  0
  9 10  1  0
 10 11  1  0
 11 12  1  0
 12 13  1  0
 13 14  1  0
 14 15  1  0
 15 16  1  0
 16 17  1  0
  2 18  1  0
 18 19  2  0
 19 20  1  0
 20 21  2  0
 21 22  1  0
 22 23  2  0
 23 24  1  0
 23 25  1  0
 25 26  2  0
 26 27  1  0
 27 28  2  0
 11  7  1  0
 17 12  1  0
 28 18  1  0
 27 21  1  0
  3 29  1  0
  4 30  1  0
  4 31  1  0
  8 32  1  0
  8 33  1  0
  9 34  1  0
  9 35  1  0
 10 36  1  0
 10 37  1  0
 11 38  1  1
 12 39  1  0
 13 40  1  0
 13 41  1  0
 14 42  1  0
 14 43  1  0
 15 44  1  0
 16 45  1  0
 16 46  1  0
 17 47  1  0
 17 48  1  0
 19 49  1  0
 20 50  1  0
 22 51  1  0
 25 52  1  0
 26 53  1  0
M  END
>  <smiles>  (18) 
O=C(NCC(=O)N1CCCC1C1CCNCC1)c1ccc2cc(Cl)ccc2n1

>  <score_type>  (18) 
oracle

>  <origin>  (18) 
autodockgpu

>  <m_score__min__energy>  (18) 
-9.0099999999999998

>  <m_primary>  (18) 
energy

>  <rmsd>  (18) 
2.1955513103588213

>  <m_score__min__rmsd>  (18) 
2.1955513103588213

>  <meeko>  (18) 
{"free_energy": -8.4, "intermolecular_energy": -9.89, "internal_energy": -1.91, "cluster_size": 19, "cluster_id": 1, "rank_in_cluster": 15}

>  <energy>  (18) 
-8.26

>  <cluster_rmsd>  (18) 
1.84

>  <cluster>  (18) 
1

$$$$

     RDKit          3D

 53 56  0  0  0  0  0  0  0  0999 V2000
  138.9290   71.4370  220.8700 O   0  0  0  0  0  0  0  0  0  0  0  0
  139.2740   71.9440  221.9640 C   0  0  0  0  0  0  0  0  0  0  0  0
  139.5050   73.3190  222.1770 N   0  0  0  0  0  0  0  0  0  0  0  0
  139.3480   74.2670  221.0940 C   0  0  0  0  0  0  0  0  0  0  0  0
  140.4770   74.0660  220.1450 C   0  0  0  0  0  0  0  0  0  0  0  0
  140.4120   73.0450  219.4120 O   0  0  0  0  0  0  0  0  0  0  0  0
  141.5810   74.9900  220.0720 N   0  0  0  0  0  0  0  0  0  0  0  0
  141.3850   76.3530  219.5880 C   0  0  0  0  0  0  0  0  0  0  0  0
  142.7940   76.9550  219.6930 C   0  0  0  0  0  0  0  0  0  0  0  0
  143.7060   75.7230  219.5790 C   0  0  0  0  0  0  0  0  0  0  0  0
  142.9590   74.7650  220.4380 C   0  0  2  0  0  0  0  0  0  0  0  0
  143.4180   73.3410  220.3160 C   0  0  0  0  0  0  0  0  0  0  0  0
  144.6740   73.1890  221.1380 C   0  0  0  0  0  0  0  0  0  0  0  0
  145.9530   73.3670  220.4210 C   0  0  0  0  0  0  0  0  0  0  0  0
  145.9540   73.2920  219.0180 N   0  0  0  0  0  0  0  0  0  0  0  0
  144.8960   72.6190  218.3880 C   0  0  0  0  0  0  0  0  0  0  0  0
  143.5240   72.8090  218.9380 C   0  0  0  0  0  0  0  0  0  0  0  0
  139.4520   71.0380  223.1080 C   0  0  0  0  0  0  0  0  0  0  0  0
  139.0310   69.7190  223.0630 C   0  0  0  0  0  0  0  0  0  0  0  0
  139.2010   68.8590  224.1530 C   0  0  0  0  0  0  0  0  0  0  0  0
  139.8010   69.3500  225.2900 C   0  0  0  0  0  0  0  0  0  0  0  0
  140.0160   68.5770  226.4240 C   0  0  0  0  0  0  0  0  0  0  0  0
  140.6300   69.1410  227.5400 C   0  0  0  0  0  0  0  0  0  0  0  0
  140.8940   68.1660  228.9550 Cl  0  0  0  0  0  0  0  0  0  0  0  0
  141.0410   70.4550  227.5620 C   0  0  0  0  0  0  0  0  0  0  0  0
  140.8290   71.2330  226.4300 C   0  0  0  0  0  0  0  0  0  0  0  0
  140.2180   70.6650  225.3280 C   0  0  0  0  0  0  0  0  0  0  0  0
  140.0320   71.4410  224.2590 N   0  0  0  0  0  0  0  0  0  0  0  0
  139.7960   73.6630  223.1350 H   0  0  0  0  0  0  0  0  0  0  0  0
  138.3915   74.0923  220.5797 H   0  0  0  0  0  0  0  0  0  0  0  0
  139.3509   75.2965  221.4815 H   0  0  0  0  0  0  0  0  0  0  0  0
  141.0286   76.3569  218.5473 H   0  0  0  0  0  0  0  0  0  0  0  0
  140.6278   76.9131  220.1562 H   0  0  0  0  0  0  0  0  0  0  0  0
  142.9831   77.6640  218.8735 H   0  0  0  0  0  0  0  0  0  0  0  0
  142.9528   77.5276  220.6187 H   0  0  0  0  0  0  0  0  0  0  0  0
  143.7820   75.3665  218.5411 H   0  0  0  0  0  0  0  0  0  0  0  0
  144.7514   75.8925  219.8764 H   0  0  0  0  0  0  0  0  0  0  0  0
  143.1316   74.9400  221.5102 H   0  0  0  0  0  0  0  0  0  0  0  0
  142.6254   72.6936  220.7193 H   0  0  0  0  0  0  0  0  0  0  0  0
  144.6371   73.9338  221.9466 H   0  0  0  0  0  0  0  0  0  0  0  0
  144.6741   72.1440  221.4813 H   0  0  0  0  0  0  0  0  0  0  0  0
  146.3416   74.3595  220.6929 H   0  0  0  0  0  0  0  0  0  0  0  0
  146.5590   72.5047  220.7359 H   0  0  0  0  0  0  0  0  0  0  0  0
  146.5140   73.9520  218.4810 H   0  0  0  0  0  0  0  0  0  0  0  0
  144.8769   72.9480  217.3385 H   0  0  0  0  0  0  0  0  0  0  0  0
  145.1126   71.5525  218.5481 H   0  0  0  0  0  0  0  0  0  0  0  0
  142.9934   73.5054  218.2721 H   0  0  0  0  0  0  0  0  0  0  0  0
  143.0951   71.7974  218.9894 H   0  0  0  0  0  0  0  0  0  0  0  0
  138.5518   69.3390  222.1487 H   0  0  0  0  0  0  0  0  0  0  0  0
  138.8627   67.8136  224.1025 H   0  0  0  0  0  0  0  0  0  0  0  0
  139.7024   67.5228  226.4407 H   0  0  0  0  0  0  0  0  0  0  0  0
  141.5255   70.8788  228.4540 H   0  0  0  0  0  0  0  0  0  0  0  0
  141.1433   72.2870  226.4113 H   0  0  0  0  0  0  0  0  0  0  0  0
  1  2  2  0
  2  3  1  0
  3  4  1  0
  4  5  1  0
  5  6  2  0
  5  7  1  0
  7  8  1  0
  8  9  1  0
  9 10  1  0
 10 11  1  0
 11 12  1  0
 12 13  1  0
 13 14  1  0
 14 15  1  0
 15 16  1  0
 16 17  1  0
  2 18  1  0
 18 19  2  0
 19 20  1  0
 20 21  2  0
 21 22  1  0
 22 23  2  0
 23 24  1  0
 23 25  1  0
 25 26  2  0
 26 27  1  0
 27 28  2  0
 11  7  1  0
 17 12  1  0
 28 18  1  0
 27 21  1  0
  3 29  1  0
  4 30  1  0
  4 31  1  0
  8 32  1  0
  8 33  1  0
  9 34  1  0
  9 35  1  0
 10 36  1  0
 10 37  1  0
 11 38  1  1
 12 39  1  0
 13 40  1  0
 13 41  1  0
 14 42  1  0
 14 43  1  0
 15 44  1  0
 16 45  1  0
 16 46  1  0
 17 47  1  0
 17 48  1  0
 19 49  1  0
 20 50  1  0
 22 51  1  0
 25 52  1  0
 26 53  1  0
M  END
>  <smiles>  (19) 
O=C(NCC(=O)N1CCCC1C1CCNCC1)c1ccc2cc(Cl)ccc2n1

>  <score_type>  (19) 
oracle

>  <origin>  (19) 
autodockgpu

>  <m_score__min__energy>  (19) 
-9.0099999999999998

>  <m_primary>  (19) 
energy

>  <rmsd>  (19) 
2.1799348672612875

>  <m_score__min__rmsd>  (19) 
2.1799348672612875

>  <meeko>  (19) 
{"free_energy": -8.39, "intermolecular_energy": -9.88, "internal_energy": -1.63, "cluster_size": 19, "cluster_id": 1, "rank_in_cluster": 16}

>  <energy>  (19) 
-8.26

>  <cluster_rmsd>  (19) 
0.65

>  <cluster>  (19) 
1

$$$$

     RDKit          3D

 53 56  0  0  0  0  0  0  0  0999 V2000
  139.8420   71.0690  220.5960 O   0  0  0  0  0  0  0  0  0  0  0  0
  139.9450   71.6520  221.7020 C   0  0  0  0  0  0  0  0  0  0  0  0
  140.1110   73.0420  221.8680 N   0  0  0  0  0  0  0  0  0  0  0  0
  140.1730   73.9170  220.7150 C   0  0  0  0  0  0  0  0  0  0  0  0
  140.8760   75.1640  221.1280 C   0  0  0  0  0  0  0  0  0  0  0  0
  140.6130   75.5950  222.2810 O   0  0  0  0  0  0  0  0  0  0  0  0
  141.8030   75.8350  220.2520 N   0  0  0  0  0  0  0  0  0  0  0  0
  141.4520   77.1030  219.6200 C   0  0  0  0  0  0  0  0  0  0  0  0
  142.7120   77.4370  218.8080 C   0  0  0  0  0  0  0  0  0  0  0  0
  143.3290   76.0530  218.5430 C   0  0  0  0  0  0  0  0  0  0  0  0
  143.1330   75.4210  219.8760 C   0  0  2  0  0  0  0  0  0  0  0  0
  143.3600   73.9370  219.8920 C   0  0  0  0  0  0  0  0  0  0  0  0
  144.4970   73.6550  220.8430 C   0  0  0  0  0  0  0  0  0  0  0  0
  145.8450   73.5700  220.2470 C   0  0  0  0  0  0  0  0  0  0  0  0
  145.9580   73.3840  218.8590 N   0  0  0  0  0  0  0  0  0  0  0  0
  144.8620   72.8390  218.1710 C   0  0  0  0  0  0  0  0  0  0  0  0
  143.4970   73.2880  218.5690 C   0  0  0  0  0  0  0  0  0  0  0  0
  139.8890   70.8230  222.9160 C   0  0  0  0  0  0  0  0  0  0  0  0
  139.2380   69.6000  222.9320 C   0  0  0  0  0  0  0  0  0  0  0  0
  139.1860   68.8150  224.0880 C   0  0  0  0  0  0  0  0  0  0  0  0
  139.8010   69.2800  225.2280 C   0  0  0  0  0  0  0  0  0  0  0  0
  139.8070   68.5750  226.4240 C   0  0  0  0  0  0  0  0  0  0  0  0
  140.4500   69.1080  227.5390 C   0  0  0  0  0  0  0  0  0  0  0  0
  140.4510   68.2190  229.0330 Cl  0  0  0  0  0  0  0  0  0  0  0  0
  141.0910   70.3270  227.4990 C   0  0  0  0  0  0  0  0  0  0  0  0
  141.0890   71.0360  226.3040 C   0  0  0  0  0  0  0  0  0  0  0  0
  140.4480   70.4990  225.2040 C   0  0  0  0  0  0  0  0  0  0  0  0
  140.4670   71.2080  224.0730 N   0  0  0  0  0  0  0  0  0  0  0  0
  140.1910   73.4520  222.8400 H   0  0  0  0  0  0  0  0  0  0  0  0
  140.7280   73.4261  219.9020 H   0  0  0  0  0  0  0  0  0  0  0  0
  139.1604   74.1483  220.3528 H   0  0  0  0  0  0  0  0  0  0  0  0
  140.5761   76.9901  218.9642 H   0  0  0  0  0  0  0  0  0  0  0  0
  141.1766   77.8876  220.3401 H   0  0  0  0  0  0  0  0  0  0  0  0
  142.4529   77.9415  217.8655 H   0  0  0  0  0  0  0  0  0  0  0  0
  143.3949   78.1236  219.3297 H   0  0  0  0  0  0  0  0  0  0  0  0
  142.7905   75.5111  217.7515 H   0  0  0  0  0  0  0  0  0  0  0  0
  144.3700   76.0709  218.1882 H   0  0  0  0  0  0  0  0  0  0  0  0
  143.8844   75.7466  220.6104 H   0  0  0  0  0  0  0  0  0  0  0  0
  142.4397   73.4562  220.2553 H   0  0  0  0  0  0  0  0  0  0  0  0
  144.5129   74.4590  221.5935 H   0  0  0  0  0  0  0  0  0  0  0  0
  144.2946   72.6542  221.2522 H   0  0  0  0  0  0  0  0  0  0  0  0
  146.3670   74.5068  220.4918 H   0  0  0  0  0  0  0  0  0  0  0  0
  146.2692   72.6499  220.6754 H   0  0  0  0  0  0  0  0  0  0  0  0
  146.6630   73.9020  218.3390 H   0  0  0  0  0  0  0  0  0  0  0  0
  144.9896   73.0822  217.1059 H   0  0  0  0  0  0  0  0  0  0  0  0
  144.8842   71.7677  218.4198 H   0  0  0  0  0  0  0  0  0  0  0  0
  143.1497   74.0051  217.8106 H   0  0  0  0  0  0  0  0  0  0  0  0
  142.9036   72.3646  218.6421 H   0  0  0  0  0  0  0  0  0  0  0  0
  138.7510   69.2383  222.0144 H   0  0  0  0  0  0  0  0  0  0  0  0
  138.6646   67.8464  224.0862 H   0  0  0  0  0  0  0  0  0  0  0  0
  139.3055   67.5983  226.4910 H   0  0  0  0  0  0  0  0  0  0  0  0
  141.5923   70.7293  228.3917 H   0  0  0  0  0  0  0  0  0  0  0  0
  141.5912   72.0122  226.2346 H   0  0  0  0  0  0  0  0  0  0  0  0
  1  2  2  0
  2  3  1  0
  3  4  1  0
  4  5  1  0
  5  6  2  0
  5  7  1  0
  7  8  1  0
  8  9  1  0
  9 10  1  0
 10 11  1  0
 11 12  1  0
 12 13  1  0
 13 14  1  0
 14 15  1  0
 15 16  1  0
 16 17  1  0
  2 18  1  0
 18 19  2  0
 19 20  1  0
 20 21  2  0
 21 22  1  0
 22 23  2  0
 23 24  1  0
 23 25  1  0
 25 26  2  0
 26 27  1  0
 27 28  2  0
 11  7  1  0
 17 12  1  0
 28 18  1  0
 27 21  1  0
  3 29  1  0
  4 30  1  0
  4 31  1  0
  8 32  1  0
  8 33  1  0
  9 34  1  0
  9 35  1  0
 10 36  1  0
 10 37  1  0
 11 38  1  1
 12 39  1  0
 13 40  1  0
 13 41  1  0
 14 42  1  0
 14 43  1  0
 15 44  1  0
 16 45  1  0
 16 46  1  0
 17 47  1  0
 17 48  1  0
 19 49  1  0
 20 50  1  0
 22 51  1  0
 25 52  1  0
 26 53  1  0
M  END
>  <smiles>  (20) 
O=C(NCC(=O)N1CCCC1C1CCNCC1)c1ccc2cc(Cl)ccc2n1

>  <score_type>  (20) 
oracle

>  <origin>  (20) 
autodockgpu

>  <m_score__min__energy>  (20) 
-9.0099999999999998

>  <m_primary>  (20) 
energy

>  <rmsd>  (20) 
2.075804570567694

>  <m_score__min__rmsd>  (20) 
2.075804570567694

>  <meeko>  (20) 
{"free_energy": -8.31, "intermolecular_energy": -9.8, "internal_energy": -2.1, "cluster_size": 19, "cluster_id": 1, "rank_in_cluster": 17}

>  <energy>  (20) 
-8.87

>  <cluster_rmsd>  (20) 
0.0

>  <cluster>  (20) 
2

$$$$

     RDKit          3D

 53 56  0  0  0  0  0  0  0  0999 V2000
  139.0070   71.9220  220.6690 O   0  0  0  0  0  0  0  0  0  0  0  0
  139.6500   72.3000  221.6780 C   0  0  0  0  0  0  0  0  0  0  0  0
  140.3220   73.5350  221.7880 N   0  0  0  0  0  0  0  0  0  0  0  0
  140.3060   74.4810  220.6910 C   0  0  0  0  0  0  0  0  0  0  0  0
  141.2640   75.5730  221.0180 C   0  0  0  0  0  0  0  0  0  0  0  0
  141.3230   75.9180  222.2270 O   0  0  0  0  0  0  0  0  0  0  0  0
  142.0750   76.1980  220.0030 N   0  0  0  0  0  0  0  0  0  0  0  0
  141.7310   77.5140  219.4740 C   0  0  0  0  0  0  0  0  0  0  0  0
  142.8490   77.7710  218.4540 C   0  0  0  0  0  0  0  0  0  0  0  0
  143.2820   76.3520  218.0500 C   0  0  0  0  0  0  0  0  0  0  0  0
  143.2730   75.6880  219.3810 C   0  0  2  0  0  0  0  0  0  0  0  0
  143.3660   74.1910  219.3220 C   0  0  0  0  0  0  0  0  0  0  0  0
  144.1670   73.7300  220.5150 C   0  0  0  0  0  0  0  0  0  0  0  0
  145.6160   73.5460  220.3000 C   0  0  0  0  0  0  0  0  0  0  0  0
  146.0940   73.4420  218.9830 N   0  0  0  0  0  0  0  0  0  0  0  0
  145.1920   73.0590  217.9780 C   0  0  0  0  0  0  0  0  0  0  0  0
  143.8110   73.6190  218.0310 C   0  0  0  0  0  0  0  0  0  0  0  0
  139.7080   71.3880  222.8300 C   0  0  0  0  0  0  0  0  0  0  0  0
  139.1680   70.1130  222.7760 C   0  0  0  0  0  0  0  0  0  0  0  0
  139.2230   69.2480  223.8730 C   0  0  0  0  0  0  0  0  0  0  0  0
  139.8320   69.6880  225.0260 C   0  0  0  0  0  0  0  0  0  0  0  0
  139.9390   68.9050  226.1690 C   0  0  0  0  0  0  0  0  0  0  0  0
  140.5690   69.4150  227.3020 C   0  0  0  0  0  0  0  0  0  0  0  0
  140.6980   68.4290  228.7270 Cl  0  0  0  0  0  0  0  0  0  0  0  0
  141.0990   70.6870  227.3320 C   0  0  0  0  0  0  0  0  0  0  0  0
  140.9950   71.4730  226.1920 C   0  0  0  0  0  0  0  0  0  0  0  0
  140.3680   70.9580  225.0730 C   0  0  0  0  0  0  0  0  0  0  0  0
  140.2880   71.7420  223.9960 N   0  0  0  0  0  0  0  0  0  0  0  0
  140.8440   73.7740  222.6770 H   0  0  0  0  0  0  0  0  0  0  0  0
  140.6124   73.9804  219.7607 H   0  0  0  0  0  0  0  0  0  0  0  0
  139.2938   74.8875  220.5488 H   0  0  0  0  0  0  0  0  0  0  0  0
  140.7450   77.5001  218.9866 H   0  0  0  0  0  0  0  0  0  0  0  0
  141.6606   78.2911  220.2493 H   0  0  0  0  0  0  0  0  0  0  0  0
  142.4711   78.3311  217.5860 H   0  0  0  0  0  0  0  0  0  0  0  0
  143.6733   78.3771  218.8580 H   0  0  0  0  0  0  0  0  0  0  0  0
  142.5639   75.8880  217.3579 H   0  0  0  0  0  0  0  0  0  0  0  0
  144.2398   76.2964  217.5119 H   0  0  0  0  0  0  0  0  0  0  0  0
  144.1703   75.9205  219.9732 H   0  0  0  0  0  0  0  0  0  0  0  0
  142.3449   73.7856  219.3780 H   0  0  0  0  0  0  0  0  0  0  0  0
  144.0390   74.4762  221.3130 H   0  0  0  0  0  0  0  0  0  0  0  0
  143.7782   72.7306  220.7601 H   0  0  0  0  0  0  0  0  0  0  0  0
  146.1238   74.4055  220.7620 H   0  0  0  0  0  0  0  0  0  0  0  0
  145.8287   72.5607  220.7403 H   0  0  0  0  0  0  0  0  0  0  0  0
  146.9550   73.9170  218.7220 H   0  0  0  0  0  0  0  0  0  0  0  0
  145.6297   73.3569  217.0138 H   0  0  0  0  0  0  0  0  0  0  0  0
  145.0574   71.9772  218.1251 H   0  0  0  0  0  0  0  0  0  0  0  0
  143.7470   74.4159  217.2755 H   0  0  0  0  0  0  0  0  0  0  0  0
  143.1476   72.7592  217.8561 H   0  0  0  0  0  0  0  0  0  0  0  0
  138.6846   69.7734  221.8481 H   0  0  0  0  0  0  0  0  0  0  0  0
  138.7894   68.2387  223.8158 H   0  0  0  0  0  0  0  0  0  0  0  0
  139.5273   67.8850  226.1791 H   0  0  0  0  0  0  0  0  0  0  0  0
  141.5925   71.0703  228.2373 H   0  0  0  0  0  0  0  0  0  0  0  0
  141.4066   72.4930  226.1796 H   0  0  0  0  0  0  0  0  0  0  0  0
  1  2  2  0
  2  3  1  0
  3  4  1  0
  4  5  1  0
  5  6  2  0
  5  7  1  0
  7  8  1  0
  8  9  1  0
  9 10  1  0
 10 11  1  0
 11 12  1  0
 12 13  1  0
 13 14  1  0
 14 15  1  0
 15 16  1  0
 16 17  1  0
  2 18  1  0
 18 19  2  0
 19 20  1  0
 20 21  2  0
 21 22  1  0
 22 23  2  0
 23 24  1  0
 23 25  1  0
 25 26  2  0
 26 27  1  0
 27 28  2  0
 11  7  1  0
 17 12  1  0
 28 18  1  0
 27 21  1  0
  3 29  1  0
  4 30  1  0
  4 31  1  0
  8 32  1  0
  8 33  1  0
  9 34  1  0
  9 35  1  0
 10 36  1  0
 10 37  1  0
 11 38  1  1
 12 39  1  0
 13 40  1  0
 13 41  1  0
 14 42  1  0
 14 43  1  0
 15 44  1  0
 16 45  1  0
 16 46  1  0
 17 47  1  0
 17 48  1  0
 19 49  1  0
 20 50  1  0
 22 51  1  0
 25 52  1  0
 26 53  1  0
M  END
>  <smiles>  (21) 
O=C(NCC(=O)N1CCCC1C1CCNCC1)c1ccc2cc(Cl)ccc2n1

>  <score_type>  (21) 
oracle

>  <origin>  (21) 
autodockgpu

>  <m_score__min__energy>  (21) 
-9.0099999999999998

>  <m_primary>  (21) 
energy

>  <rmsd>  (21) 
2.2521821277855443

>  <m_score__min__rmsd>  (21) 
2.2521821277855443

>  <meeko>  (21) 
{"free_energy": -8.26, "intermolecular_energy": -9.75, "internal_energy": -2.16, "cluster_size": 19, "cluster_id": 1, "rank_in_cluster": 19}

>  <energy>  (21) 
-8.86

>  <cluster_rmsd>  (21) 
0.52

>  <cluster>  (21) 
2

$$$$

     RDKit          3D

 53 56  0  0  0  0  0  0  0  0999 V2000
  140.8850   73.5730  220.7380 O   0  0  0  0  0  0  0  0  0  0  0  0
  140.2150   73.7800  221.7780 C   0  0  0  0  0  0  0  0  0  0  0  0
  139.7540   75.0440  222.2010 N   0  0  0  0  0  0  0  0  0  0  0  0
  140.0400   76.2290  221.4200 C   0  0  0  0  0  0  0  0  0  0  0  0
  139.9800   77.4030  222.3350 C   0  0  0  0  0  0  0  0  0  0  0  0
  138.9510   77.4960  223.0530 O   0  0  0  0  0  0  0  0  0  0  0  0
  141.0430   78.3740  222.3910 N   0  0  0  0  0  0  0  0  0  0  0  0
  141.4970   78.9140  223.6690 C   0  0  0  0  0  0  0  0  0  0  0  0
  142.6170   79.8780  223.2500 C   0  0  0  0  0  0  0  0  0  0  0  0
  142.2210   80.2660  221.8160 C   0  0  0  0  0  0  0  0  0  0  0  0
  141.7940   78.9390  221.2960 C   0  0  2  0  0  0  0  0  0  0  0  0
  141.0560   78.9990  219.9900 C   0  0  0  0  0  0  0  0  0  0  0  0
  141.5170   77.8380  219.1450 C   0  0  0  0  0  0  0  0  0  0  0  0
  142.6250   78.1080  218.2080 C   0  0  0  0  0  0  0  0  0  0  0  0
  142.9250   79.4420  217.8860 N   0  0  0  0  0  0  0  0  0  0  0  0
  141.9270   80.4110  218.0740 C   0  0  0  0  0  0  0  0  0  0  0  0
  141.0750   80.3060  219.2930 C   0  0  0  0  0  0  0  0  0  0  0  0
  139.8870   72.6190  222.6190 C   0  0  0  0  0  0  0  0  0  0  0  0
  138.7710   71.8360  222.3750 C   0  0  0  0  0  0  0  0  0  0  0  0
  138.4620   70.7320  223.1770 C   0  0  0  0  0  0  0  0  0  0  0  0
  139.2950   70.4310  224.2300 C   0  0  0  0  0  0  0  0  0  0  0  0
  139.0750   69.3570  225.0830 C   0  0  0  0  0  0  0  0  0  0  0  0
  139.9620   69.1100  226.1290 C   0  0  0  0  0  0  0  0  0  0  0  0
  139.6780   67.7640  227.1920 Cl  0  0  0  0  0  0  0  0  0  0  0  0
  141.0660   69.9030  226.3520 C   0  0  0  0  0  0  0  0  0  0  0  0
  141.2910   70.9780  225.5010 C   0  0  0  0  0  0  0  0  0  0  0  0
  140.4050   71.2150  224.4670 C   0  0  0  0  0  0  0  0  0  0  0  0
  140.6530   72.2560  223.6700 N   0  0  0  0  0  0  0  0  0  0  0  0
  139.1940   75.1290  223.0950 H   0  0  0  0  0  0  0  0  0  0  0  0
  141.0435   76.1514  220.9762 H   0  0  0  0  0  0  0  0  0  0  0  0
  139.3082   76.3385  220.6060 H   0  0  0  0  0  0  0  0  0  0  0  0
  140.6855   79.4488  224.1843 H   0  0  0  0  0  0  0  0  0  0  0  0
  141.8294   78.1400  224.3764 H   0  0  0  0  0  0  0  0  0  0  0  0
  142.6442   80.7611  223.9053 H   0  0  0  0  0  0  0  0  0  0  0  0
  143.6203   79.4321  223.3170 H   0  0  0  0  0  0  0  0  0  0  0  0
  141.3962   80.9937  221.8033 H   0  0  0  0  0  0  0  0  0  0  0  0
  143.0144   80.7575  221.2339 H   0  0  0  0  0  0  0  0  0  0  0  0
  142.6469   78.3034  221.0156 H   0  0  0  0  0  0  0  0  0  0  0  0
  139.9812   78.9028  220.2035 H   0  0  0  0  0  0  0  0  0  0  0  0
  141.8416   77.0369  219.8253 H   0  0  0  0  0  0  0  0  0  0  0  0
  140.6560   77.5768  218.5122 H   0  0  0  0  0  0  0  0  0  0  0  0
  143.5335   77.6681  218.6452 H   0  0  0  0  0  0  0  0  0  0  0  0
  142.2830   77.6736  217.2570 H   0  0  0  0  0  0  0  0  0  0  0  0
  143.8980   79.7370  217.8220 H   0  0  0  0  0  0  0  0  0  0  0  0
  142.4241   81.3918  218.1050 H   0  0  0  0  0  0  0  0  0  0  0  0
  141.2310   80.2570  217.2363 H   0  0  0  0  0  0  0  0  0  0  0  0
  141.4293   81.0600  220.0113 H   0  0  0  0  0  0  0  0  0  0  0  0
  140.0453   80.4538  218.9353 H   0  0  0  0  0  0  0  0  0  0  0  0
  138.1122   72.0880  221.5309 H   0  0  0  0  0  0  0  0  0  0  0  0
  137.5728   70.1183  222.9703 H   0  0  0  0  0  0  0  0  0  0  0  0
  138.2031   68.7033  224.9332 H   0  0  0  0  0  0  0  0  0  0  0  0
  141.7532   69.6902  227.1841 H   0  0  0  0  0  0  0  0  0  0  0  0
  142.1631   71.6321  225.6483 H   0  0  0  0  0  0  0  0  0  0  0  0
  1  2  2  0
  2  3  1  0
  3  4  1  0
  4  5  1  0
  5  6  2  0
  5  7  1  0
  7  8  1  0
  8  9  1  0
  9 10  1  0
 10 11  1  0
 11 12  1  0
 12 13  1  0
 13 14  1  0
 14 15  1  0
 15 16  1  0
 16 17  1  0
  2 18  1  0
 18 19  2  0
 19 20  1  0
 20 21  2  0
 21 22  1  0
 22 23  2  0
 23 24  1  0
 23 25  1  0
 25 26  2  0
 26 27  1  0
 27 28  2  0
 11  7  1  0
 17 12  1  0
 28 18  1  0
 27 21  1  0
  3 29  1  0
  4 30  1  0
  4 31  1  0
  8 32  1  0
  8 33  1  0
  9 34  1  0
  9 35  1  0
 10 36  1  0
 10 37  1  0
 11 38  1  6
 12 39  1  0
 13 40  1  0
 13 41  1  0
 14 42  1  0
 14 43  1  0
 15 44  1  0
 16 45  1  0
 16 46  1  0
 17 47  1  0
 17 48  1  0
 19 49  1  0
 20 50  1  0
 22 51  1  0
 25 52  1  0
 26 53  1  0
M  END
>  <smiles>  (22) 
O=C(NCC(=O)N1CCCC1C1CCNCC1)c1ccc2cc(Cl)ccc2n1

>  <score_type>  (22) 
oracle

>  <origin>  (22) 
autodockgpu

>  <m_score__min__energy>  (22) 
-9.0099999999999998

>  <m_primary>  (22) 
energy

>  <rmsd>  (22) 
3.9535783292194706

>  <m_score__min__rmsd>  (22) 
3.9535783292194706

>  <meeko>  (22) 
{"free_energy": -8.48, "intermolecular_energy": -9.97, "internal_energy": -1.53, "cluster_size": 3, "cluster_id": 3, "rank_in_cluster": 1}

>  <energy>  (22) 
-8.65

>  <cluster_rmsd>  (22) 
0.54

>  <cluster>  (22) 
2

$$$$

     RDKit          3D

 53 56  0  0  0  0  0  0  0  0999 V2000
  140.2390   72.0730  220.6140 O   0  0  0  0  0  0  0  0  0  0  0  0
  139.9510   72.5230  221.7490 C   0  0  0  0  0  0  0  0  0  0  0  0
  139.6310   73.8680  222.0250 N   0  0  0  0  0  0  0  0  0  0  0  0
  139.6150   74.8520  220.9630 C   0  0  0  0  0  0  0  0  0  0  0  0
  140.0100   76.1620  221.5500 C   0  0  0  0  0  0  0  0  0  0  0  0
  139.9020   76.2670  222.8000 O   0  0  0  0  0  0  0  0  0  0  0  0
  140.4880   77.2470  220.7300 N   0  0  0  0  0  0  0  0  0  0  0  0
  140.7030   77.0650  219.2980 C   0  0  0  0  0  0  0  0  0  0  0  0
  141.1910   78.4500  218.8500 C   0  0  0  0  0  0  0  0  0  0  0  0
  141.8200   79.0260  220.1310 C   0  0  0  0  0  0  0  0  0  0  0  0
  140.8090   78.5960  221.1330 C   0  0  2  0  0  0  0  0  0  0  0  0
  141.2570   78.7370  222.5590 C   0  0  0  0  0  0  0  0  0  0  0  0
  140.1380   79.3890  223.3330 C   0  0  0  0  0  0  0  0  0  0  0  0
  140.1980   80.8580  223.4630 C   0  0  0  0  0  0  0  0  0  0  0  0
  141.4190   81.5070  223.2100 N   0  0  0  0  0  0  0  0  0  0  0  0
  142.6010   80.7560  223.2980 C   0  0  0  0  0  0  0  0  0  0  0  0
  142.5830   79.3640  222.7630 C   0  0  0  0  0  0  0  0  0  0  0  0
  139.9470   71.5760  222.8740 C   0  0  0  0  0  0  0  0  0  0  0  0
  139.4140   70.3030  222.7520 C   0  0  0  0  0  0  0  0  0  0  0  0
  139.4110   69.4060  223.8260 C   0  0  0  0  0  0  0  0  0  0  0  0
  139.9540   69.8120  225.0230 C   0  0  0  0  0  0  0  0  0  0  0  0
  139.9990   68.9960  226.1460 C   0  0  0  0  0  0  0  0  0  0  0  0
  140.5630   69.4730  227.3270 C   0  0  0  0  0  0  0  0  0  0  0  0
  140.6150   68.4450  228.7280 Cl  0  0  0  0  0  0  0  0  0  0  0  0
  141.0870   70.7430  227.4250 C   0  0  0  0  0  0  0  0  0  0  0  0
  141.0440   71.5640  226.3040 C   0  0  0  0  0  0  0  0  0  0  0  0
  140.4820   71.0810  225.1370 C   0  0  0  0  0  0  0  0  0  0  0  0
  140.4590   71.8970  224.0820 N   0  0  0  0  0  0  0  0  0  0  0  0
  139.4000   74.1630  223.0150 H   0  0  0  0  0  0  0  0  0  0  0  0
  140.3276   74.5646  220.1759 H   0  0  0  0  0  0  0  0  0  0  0  0
  138.6122   74.9182  220.5158 H   0  0  0  0  0  0  0  0  0  0  0  0
  141.4648   76.2951  219.1062 H   0  0  0  0  0  0  0  0  0  0  0  0
  139.8047   76.7248  218.7620 H   0  0  0  0  0  0  0  0  0  0  0  0
  141.9374   78.3654  218.0465 H   0  0  0  0  0  0  0  0  0  0  0  0
  140.3886   79.0806  218.4395 H   0  0  0  0  0  0  0  0  0  0  0  0
  142.8078   78.5865  220.3337 H   0  0  0  0  0  0  0  0  0  0  0  0
  142.0141   80.1084  220.1048 H   0  0  0  0  0  0  0  0  0  0  0  0
  139.9201   79.2440  221.1367 H   0  0  0  0  0  0  0  0  0  0  0  0
  141.4485   77.7287  222.9549 H   0  0  0  0  0  0  0  0  0  0  0  0
  139.1924   79.1359  222.8312 H   0  0  0  0  0  0  0  0  0  0  0  0
  140.2280   79.0013  224.3585 H   0  0  0  0  0  0  0  0  0  0  0  0
  139.4580   81.2757  222.7645 H   0  0  0  0  0  0  0  0  0  0  0  0
  140.0142   81.0401  224.5321 H   0  0  0  0  0  0  0  0  0  0  0  0
  141.4230   82.3810  222.6890 H   0  0  0  0  0  0  0  0  0  0  0  0
  143.3810   81.3070  222.7521 H   0  0  0  0  0  0  0  0  0  0  0  0
  142.7721   80.6350  224.3779 H   0  0  0  0  0  0  0  0  0  0  0  0
  143.0970   79.3760  221.7906 H   0  0  0  0  0  0  0  0  0  0  0  0
  143.0697   78.7546  223.5387 H   0  0  0  0  0  0  0  0  0  0  0  0
  138.9835   69.9904  221.7892 H   0  0  0  0  0  0  0  0  0  0  0  0
  138.9838   68.3984  223.7156 H   0  0  0  0  0  0  0  0  0  0  0  0
  139.5903   67.9757  226.1029 H   0  0  0  0  0  0  0  0  0  0  0  0
  141.5288   71.0990  228.3674 H   0  0  0  0  0  0  0  0  0  0  0  0
  141.4519   72.5848  226.3451 H   0  0  0  0  0  0  0  0  0  0  0  0
  1  2  2  0
  2  3  1  0
  3  4  1  0
  4  5  1  0
  5  6  2  0
  5  7  1  0
  7  8  1  0
  8  9  1  0
  9 10  1  0
 10 11  1  0
 11 12  1  0
 12 13  1  0
 13 14  1  0
 14 15  1  0
 15 16  1  0
 16 17  1  0
  2 18  1  0
 18 19  2  0
 19 20  1  0
 20 21  2  0
 21 22  1  0
 22 23  2  0
 23 24  1  0
 23 25  1  0
 25 26  2  0
 26 27  1  0
 27 28  2  0
 11  7  1  0
 17 12  1  0
 28 18  1  0
 27 21  1  0
  3 29  1  0
  4 30  1  0
  4 31  1  0
  8 32  1  0
  8 33  1  0
  9 34  1  0
  9 35  1  0
 10 36  1  0
 10 37  1  0
 11 38  1  1
 12 39  1  0
 13 40  1  0
 13 41  1  0
 14 42  1  0
 14 43  1  0
 15 44  1  0
 16 45  1  0
 16 46  1  0
 17 47  1  0
 17 48  1  0
 19 49  1  0
 20 50  1  0
 22 51  1  0
 25 52  1  0
 26 53  1  0
M  END
>  <smiles>  (23) 
O=C(NCC(=O)N1CCCC1C1CCNCC1)c1ccc2cc(Cl)ccc2n1

>  <score_type>  (23) 
oracle

>  <origin>  (23) 
autodockgpu

>  <m_score__min__energy>  (23) 
-9.0099999999999998

>  <m_primary>  (23) 
energy

>  <rmsd>  (23) 
1.9818974223312091

>  <m_score__min__rmsd>  (23) 
1.9818974223312091

>  <meeko>  (23) 
{"free_energy": -8.6, "intermolecular_energy": -10.09, "internal_energy": -1.86, "cluster_size": 26, "cluster_id": 2, "rank_in_cluster": 6}

>  <energy>  (23) 
-8.65

>  <cluster_rmsd>  (23) 
1.06

>  <cluster>  (23) 
2

$$$$

     RDKit          3D

 53 56  0  0  0  0  0  0  0  0999 V2000
  139.7300   72.0940  220.6560 O   0  0  0  0  0  0  0  0  0  0  0  0
  139.6930   72.5550  221.8220 C   0  0  0  0  0  0  0  0  0  0  0  0
  139.6040   73.9250  222.1440 N   0  0  0  0  0  0  0  0  0  0  0  0
  139.5470   74.9240  221.0980 C   0  0  0  0  0  0  0  0  0  0  0  0
  140.3720   76.0850  221.5310 C   0  0  0  0  0  0  0  0  0  0  0  0
  140.7860   76.0610  222.7200 O   0  0  0  0  0  0  0  0  0  0  0  0
  140.6770   77.1730  220.6370 N   0  0  0  0  0  0  0  0  0  0  0  0
  140.8070   76.9480  219.2000 C   0  0  0  0  0  0  0  0  0  0  0  0
  141.1190   78.3530  218.6640 C   0  0  0  0  0  0  0  0  0  0  0  0
  141.7740   79.0460  219.8710 C   0  0  0  0  0  0  0  0  0  0  0  0
  140.8860   78.5640  220.9630 C   0  0  2  0  0  0  0  0  0  0  0  0
  141.4180   78.8140  222.3440 C   0  0  0  0  0  0  0  0  0  0  0  0
  140.2410   79.0750  223.2520 C   0  0  0  0  0  0  0  0  0  0  0  0
  139.8630   80.4890  223.4460 C   0  0  0  0  0  0  0  0  0  0  0  0
  140.7920   81.4870  223.1080 N   0  0  0  0  0  0  0  0  0  0  0  0
  142.1500   81.1370  223.0470 C   0  0  0  0  0  0  0  0  0  0  0  0
  142.5020   79.8170  222.4500 C   0  0  0  0  0  0  0  0  0  0  0  0
  139.7460   71.5950  222.9350 C   0  0  0  0  0  0  0  0  0  0  0  0
  139.2290   70.3150  222.8180 C   0  0  0  0  0  0  0  0  0  0  0  0
  139.2800   69.4050  223.8780 C   0  0  0  0  0  0  0  0  0  0  0  0
  139.8620   69.8050  225.0600 C   0  0  0  0  0  0  0  0  0  0  0  0
  139.9620   68.9760  226.1700 C   0  0  0  0  0  0  0  0  0  0  0  0
  140.5640   69.4470  227.3340 C   0  0  0  0  0  0  0  0  0  0  0  0
  140.6850   68.4030  228.7190 Cl  0  0  0  0  0  0  0  0  0  0  0  0
  141.0720   70.7240  227.4280 C   0  0  0  0  0  0  0  0  0  0  0  0
  140.9740   71.5580  226.3200 C   0  0  0  0  0  0  0  0  0  0  0  0
  140.3750   71.0800  225.1700 C   0  0  0  0  0  0  0  0  0  0  0  0
  140.3000   71.9080  224.1260 N   0  0  0  0  0  0  0  0  0  0  0  0
  139.5790   74.2280  223.1580 H   0  0  0  0  0  0  0  0  0  0  0  0
  139.9481   74.5086  220.1618 H   0  0  0  0  0  0  0  0  0  0  0  0
  138.5071   75.2364  220.9218 H   0  0  0  0  0  0  0  0  0  0  0  0
  141.6274   76.2488  218.9808 H   0  0  0  0  0  0  0  0  0  0  0  0
  139.9120   76.4971  218.7465 H   0  0  0  0  0  0  0  0  0  0  0  0
  141.8120   78.3059  217.8111 H   0  0  0  0  0  0  0  0  0  0  0  0
  140.2298   78.8818  218.2904 H   0  0  0  0  0  0  0  0  0  0  0  0
  142.8135   78.7166  220.0155 H   0  0  0  0  0  0  0  0  0  0  0  0
  141.8531   80.1401  219.7888 H   0  0  0  0  0  0  0  0  0  0  0  0
  139.9379   79.1198  221.0096 H   0  0  0  0  0  0  0  0  0  0  0  0
  141.9505   77.9087  222.6709 H   0  0  0  0  0  0  0  0  0  0  0  0
  139.3706   78.5505  222.8309 H   0  0  0  0  0  0  0  0  0  0  0  0
  140.5521   78.7167  224.2444 H   0  0  0  0  0  0  0  0  0  0  0  0
  138.9606   80.6688  222.8432 H   0  0  0  0  0  0  0  0  0  0  0  0
  139.7481   80.5882  224.5355 H   0  0  0  0  0  0  0  0  0  0  0  0
  140.4740   82.3290  222.6320 H   0  0  0  0  0  0  0  0  0  0  0  0
  142.6620   81.9111  222.4565 H   0  0  0  0  0  0  0  0  0  0  0  0
  142.4628   81.0574  224.0986 H   0  0  0  0  0  0  0  0  0  0  0  0
  142.8816   80.0033  221.4345 H   0  0  0  0  0  0  0  0  0  0  0  0
  143.2311   79.3756  223.1454 H   0  0  0  0  0  0  0  0  0  0  0  0
  138.7673   70.0073  221.8682 H   0  0  0  0  0  0  0  0  0  0  0  0
  138.8645   68.3922  223.7702 H   0  0  0  0  0  0  0  0  0  0  0  0
  139.5668   67.9503  226.1297 H   0  0  0  0  0  0  0  0  0  0  0  0
  141.5439   71.0754  228.3574 H   0  0  0  0  0  0  0  0  0  0  0  0
  141.3679   72.5844  226.3582 H   0  0  0  0  0  0  0  0  0  0  0  0
  1  2  2  0
  2  3  1  0
  3  4  1  0
  4  5  1  0
  5  6  2  0
  5  7  1  0
  7  8  1  0
  8  9  1  0
  9 10  1  0
 10 11  1  0
 11 12  1  0
 12 13  1  0
 13 14  1  0
 14 15  1  0
 15 16  1  0
 16 17  1  0
  2 18  1  0
 18 19  2  0
 19 20  1  0
 20 21  2  0
 21 22  1  0
 22 23  2  0
 23 24  1  0
 23 25  1  0
 25 26  2  0
 26 27  1  0
 27 28  2  0
 11  7  1  0
 17 12  1  0
 28 18  1  0
 27 21  1  0
  3 29  1  0
  4 30  1  0
  4 31  1  0
  8 32  1  0
  8 33  1  0
  9 34  1  0
  9 35  1  0
 10 36  1  0
 10 37  1  0
 11 38  1  1
 12 39  1  0
 13 40  1  0
 13 41  1  0
 14 42  1  0
 14 43  1  0
 15 44  1  0
 16 45  1  0
 16 46  1  0
 17 47  1  0
 17 48  1  0
 19 49  1  0
 20 50  1  0
 22 51  1  0
 25 52  1  0
 26 53  1  0
M  END
>  <smiles>  (24) 
O=C(NCC(=O)N1CCCC1C1CCNCC1)c1ccc2cc(Cl)ccc2n1

>  <score_type>  (24) 
oracle

>  <origin>  (24) 
autodockgpu

>  <m_score__min__energy>  (24) 
-9.0099999999999998

>  <m_primary>  (24) 
energy

>  <rmsd>  (24) 
1.8983597457259294

>  <m_score__min__rmsd>  (24) 
1.8983597457259294

>  <meeko>  (24) 
{"free_energy": -8.43, "intermolecular_energy": -9.92, "internal_energy": -1.88, "cluster_size": 26, "cluster_id": 2, "rank_in_cluster": 15}

>  <energy>  (24) 
-8.62

>  <cluster_rmsd>  (24) 
1.06

>  <cluster>  (24) 
2

$$$$

     RDKit          3D

 53 56  0  0  0  0  0  0  0  0999 V2000
  140.7900   72.6840  220.9010 O   0  0  0  0  0  0  0  0  0  0  0  0
  140.2280   73.0130  221.9730 C   0  0  0  0  0  0  0  0  0  0  0  0
  139.6730   74.2820  222.2350 N   0  0  0  0  0  0  0  0  0  0  0  0
  139.7210   75.3260  221.2320 C   0  0  0  0  0  0  0  0  0  0  0  0
  138.9510   76.4910  221.7500 C   0  0  0  0  0  0  0  0  0  0  0  0
  138.2040   76.2690  222.7380 O   0  0  0  0  0  0  0  0  0  0  0  0
  139.0590   77.7970  221.1500 N   0  0  0  0  0  0  0  0  0  0  0  0
  138.9160   77.9720  219.7080 C   0  0  0  0  0  0  0  0  0  0  0  0
  139.0920   79.4880  219.5320 C   0  0  0  0  0  0  0  0  0  0  0  0
  139.9530   79.8790  220.7450 C   0  0  0  0  0  0  0  0  0  0  0  0
  139.3000   79.0610  221.8030 C   0  0  2  0  0  0  0  0  0  0  0  0
  140.0810   78.9720  223.0820 C   0  0  0  0  0  0  0  0  0  0  0  0
  140.0010   80.3140  223.7660 C   0  0  0  0  0  0  0  0  0  0  0  0
  141.1020   81.2570  223.4900 C   0  0  0  0  0  0  0  0  0  0  0  0
  142.2970   80.7580  222.9430 N   0  0  0  0  0  0  0  0  0  0  0  0
  142.5800   79.3930  223.1040 C   0  0  0  0  0  0  0  0  0  0  0  0
  141.4530   78.4270  222.9670 C   0  0  0  0  0  0  0  0  0  0  0  0
  140.1430   71.9990  223.0360 C   0  0  0  0  0  0  0  0  0  0  0  0
  139.5880   70.7510  222.8080 C   0  0  0  0  0  0  0  0  0  0  0  0
  139.5080   69.7900  223.8210 C   0  0  0  0  0  0  0  0  0  0  0  0
  139.9960   70.1070  225.0680 C   0  0  0  0  0  0  0  0  0  0  0  0
  139.9640   69.2230  226.1380 C   0  0  0  0  0  0  0  0  0  0  0  0
  140.4770   69.6120  227.3740 C   0  0  0  0  0  0  0  0  0  0  0  0
  140.4320   68.4990  228.7080 Cl  0  0  0  0  0  0  0  0  0  0  0  0
  141.0240   70.8600  227.5770 C   0  0  0  0  0  0  0  0  0  0  0  0
  141.0590   71.7480  226.5090 C   0  0  0  0  0  0  0  0  0  0  0  0
  140.5480   71.3530  225.2880 C   0  0  0  0  0  0  0  0  0  0  0  0
  140.5990   72.2320  224.2850 N   0  0  0  0  0  0  0  0  0  0  0  0
  139.2170   74.4760  223.1700 H   0  0  0  0  0  0  0  0  0  0  0  0
  140.7648   75.6197  221.0473 H   0  0  0  0  0  0  0  0  0  0  0  0
  139.2882   74.9696  220.2856 H   0  0  0  0  0  0  0  0  0  0  0  0
  139.6929   77.4166  219.1622 H   0  0  0  0  0  0  0  0  0  0  0  0
  137.9599   77.5953  219.3155 H   0  0  0  0  0  0  0  0  0  0  0  0
  139.6091   79.7192  218.5890 H   0  0  0  0  0  0  0  0  0  0  0  0
  138.1375   80.0327  219.4840 H   0  0  0  0  0  0  0  0  0  0  0  0
  141.0071   79.5978  220.6045 H   0  0  0  0  0  0  0  0  0  0  0  0
  139.9940   80.9581  220.9543 H   0  0  0  0  0  0  0  0  0  0  0  0
  138.3676   79.5150  222.1697 H   0  0  0  0  0  0  0  0  0  0  0  0
  139.6128   78.2022  223.7130 H   0  0  0  0  0  0  0  0  0  0  0  0
  139.0624   80.7942  223.4524 H   0  0  0  0  0  0  0  0  0  0  0  0
  140.0640   80.0978  224.8427 H   0  0  0  0  0  0  0  0  0  0  0  0
  140.7147   82.0106  222.7885 H   0  0  0  0  0  0  0  0  0  0  0  0
  141.3960   81.6229  224.4848 H   0  0  0  0  0  0  0  0  0  0  0  0
  142.7700   81.2810  222.2090 H   0  0  0  0  0  0  0  0  0  0  0  0
  143.3357   79.1239  222.3513 H   0  0  0  0  0  0  0  0  0  0  0  0
  142.8987   79.2988  224.1526 H   0  0  0  0  0  0  0  0  0  0  0  0
  141.5401   77.9541  221.9777 H   0  0  0  0  0  0  0  0  0  0  0  0
  141.5599   77.7414  223.8206 H   0  0  0  0  0  0  0  0  0  0  0  0
  139.2011   70.5099  221.8069 H   0  0  0  0  0  0  0  0  0  0  0  0
  139.0647   68.8025  223.6252 H   0  0  0  0  0  0  0  0  0  0  0  0
  139.5349   68.2182  226.0106 H   0  0  0  0  0  0  0  0  0  0  0  0
  141.4235   71.1466  228.5610 H   0  0  0  0  0  0  0  0  0  0  0  0
  141.4883   72.7530  226.6342 H   0  0  0  0  0  0  0  0  0  0  0  0
  1  2  2  0
  2  3  1  0
  3  4  1  0
  4  5  1  0
  5  6  2  0
  5  7  1  0
  7  8  1  0
  8  9  1  0
  9 10  1  0
 10 11  1  0
 11 12  1  0
 12 13  1  0
 13 14  1  0
 14 15  1  0
 15 16  1  0
 16 17  1  0
  2 18  1  0
 18 19  2  0
 19 20  1  0
 20 21  2  0
 21 22  1  0
 22 23  2  0
 23 24  1  0
 23 25  1  0
 25 26  2  0
 26 27  1  0
 27 28  2  0
 11  7  1  0
 17 12  1  0
 28 18  1  0
 27 21  1  0
  3 29  1  0
  4 30  1  0
  4 31  1  0
  8 32  1  0
  8 33  1  0
  9 34  1  0
  9 35  1  0
 10 36  1  0
 10 37  1  0
 11 38  1  1
 12 39  1  0
 13 40  1  0
 13 41  1  0
 14 42  1  0
 14 43  1  0
 15 44  1  0
 16 45  1  0
 16 46  1  0
 17 47  1  0
 17 48  1  0
 19 49  1  0
 20 50  1  0
 22 51  1  0
 25 52  1  0
 26 53  1  0
M  END
>  <smiles>  (25) 
O=C(NCC(=O)N1CCCC1C1CCNCC1)c1ccc2cc(Cl)ccc2n1

>  <score_type>  (25) 
oracle

>  <origin>  (25) 
autodockgpu

>  <m_score__min__energy>  (25) 
-9.0099999999999998

>  <m_primary>  (25) 
energy

>  <rmsd>  (25) 
2.571631464180362

>  <m_score__min__rmsd>  (25) 
2.571631464180362

>  <meeko>  (25) 
{"free_energy": -8.07, "intermolecular_energy": -9.57, "internal_energy": -1.9, "cluster_size": 26, "cluster_id": 2, "rank_in_cluster": 21}

>  <energy>  (25) 
-8.6

>  <cluster_rmsd>  (25) 
1.08

>  <cluster>  (25) 
2

$$$$

     RDKit          3D

 53 56  0  0  0  0  0  0  0  0999 V2000
  141.0060   72.3210  220.7710 O   0  0  0  0  0  0  0  0  0  0  0  0
  140.3750   72.6930  221.7890 C   0  0  0  0  0  0  0  0  0  0  0  0
  139.7850   73.9630  221.9510 N   0  0  0  0  0  0  0  0  0  0  0  0
  139.8790   74.9560  220.9010 C   0  0  0  0  0  0  0  0  0  0  0  0
  141.1160   75.7520  221.1350 C   0  0  0  0  0  0  0  0  0  0  0  0
  141.4000   75.9990  222.3360 O   0  0  0  0  0  0  0  0  0  0  0  0
  141.9380   76.2110  220.0440 N   0  0  0  0  0  0  0  0  0  0  0  0
  141.5580   77.3830  219.2610 C   0  0  0  0  0  0  0  0  0  0  0  0
  142.7030   77.4960  218.2440 C   0  0  0  0  0  0  0  0  0  0  0  0
  143.2130   76.0500  218.1340 C   0  0  0  0  0  0  0  0  0  0  0  0
  143.1810   75.6520  219.5670 C   0  0  2  0  0  0  0  0  0  0  0  0
  143.3400   74.1780  219.8010 C   0  0  0  0  0  0  0  0  0  0  0  0
  144.4020   73.9890  220.8550 C   0  0  0  0  0  0  0  0  0  0  0  0
  145.7790   73.7740  220.3690 C   0  0  0  0  0  0  0  0  0  0  0  0
  145.9690   73.3940  219.0290 N   0  0  0  0  0  0  0  0  0  0  0  0
  144.8950   72.7990  218.3500 C   0  0  0  0  0  0  0  0  0  0  0  0
  143.5290   73.3460  218.5900 C   0  0  0  0  0  0  0  0  0  0  0  0
  140.2410   71.7330  222.8960 C   0  0  0  0  0  0  0  0  0  0  0  0
  139.6410   70.4980  222.7180 C   0  0  0  0  0  0  0  0  0  0  0  0
  139.5140   69.5880  223.7730 C   0  0  0  0  0  0  0  0  0  0  0  0
  140.0030   69.9430  225.0090 C   0  0  0  0  0  0  0  0  0  0  0  0
  139.9270   69.1100  226.1180 C   0  0  0  0  0  0  0  0  0  0  0  0
  140.4430   69.5350  227.3410 C   0  0  0  0  0  0  0  0  0  0  0  0
  140.3430   68.4860  228.7230 Cl  0  0  0  0  0  0  0  0  0  0  0  0
  141.0360   70.7690  227.4930 C   0  0  0  0  0  0  0  0  0  0  0  0
  141.1160   71.6050  226.3870 C   0  0  0  0  0  0  0  0  0  0  0  0
  140.6010   71.1740  225.1790 C   0  0  0  0  0  0  0  0  0  0  0  0
  140.6950   72.0040  224.1380 N   0  0  0  0  0  0  0  0  0  0  0  0
  139.2710   74.1960  222.8470 H   0  0  0  0  0  0  0  0  0  0  0  0
  139.9334   74.4598  219.9208 H   0  0  0  0  0  0  0  0  0  0  0  0
  138.9944   75.6097  220.9108 H   0  0  0  0  0  0  0  0  0  0  0  0
  140.5932   77.2269  218.7562 H   0  0  0  0  0  0  0  0  0  0  0  0
  141.4239   78.2895  219.8695 H   0  0  0  0  0  0  0  0  0  0  0  0
  142.3350   77.8602  217.2735 H   0  0  0  0  0  0  0  0  0  0  0  0
  143.4837   78.2087  218.5482 H   0  0  0  0  0  0  0  0  0  0  0  0
  142.5436   75.4269  217.5227 H   0  0  0  0  0  0  0  0  0  0  0  0
  144.1928   75.9413  217.6459 H   0  0  0  0  0  0  0  0  0  0  0  0
  144.0446   76.0375  220.1288 H   0  0  0  0  0  0  0  0  0  0  0  0
  142.3783   73.7870  220.1647 H   0  0  0  0  0  0  0  0  0  0  0  0
  144.4076   74.8878  221.4892 H   0  0  0  0  0  0  0  0  0  0  0  0
  144.1299   73.0618  221.3806 H   0  0  0  0  0  0  0  0  0  0  0  0
  146.3265   74.7161  220.5194 H   0  0  0  0  0  0  0  0  0  0  0  0
  146.1343   72.9075  220.9460 H   0  0  0  0  0  0  0  0  0  0  0  0
  146.7270   73.8090  218.4920 H   0  0  0  0  0  0  0  0  0  0  0  0
  145.0989   72.8879  217.2727 H   0  0  0  0  0  0  0  0  0  0  0  0
  144.8543   71.7727  218.7437 H   0  0  0  0  0  0  0  0  0  0  0  0
  143.2607   73.9621  217.7191 H   0  0  0  0  0  0  0  0  0  0  0  0
  142.8920   72.4633  218.7481 H   0  0  0  0  0  0  0  0  0  0  0  0
  139.2554   70.2261  221.7244 H   0  0  0  0  0  0  0  0  0  0  0  0
  139.0339   68.6105  223.6178 H   0  0  0  0  0  0  0  0  0  0  0  0
  139.4608   68.1175  226.0312 H   0  0  0  0  0  0  0  0  0  0  0  0
  141.4367   71.0848  228.4675 H   0  0  0  0  0  0  0  0  0  0  0  0
  141.5832   72.5973  226.4713 H   0  0  0  0  0  0  0  0  0  0  0  0
  1  2  2  0
  2  3  1  0
  3  4  1  0
  4  5  1  0
  5  6  2  0
  5  7  1  0
  7  8  1  0
  8  9  1  0
  9 10  1  0
 10 11  1  0
 11 12  1  0
 12 13  1  0
 13 14  1  0
 14 15  1  0
 15 16  1  0
 16 17  1  0
  2 18  1  0
 18 19  2  0
 19 20  1  0
 20 21  2  0
 21 22  1  0
 22 23  2  0
 23 24  1  0
 23 25  1  0
 25 26  2  0
 26 27  1  0
 27 28  2  0
 11  7  1  0
 17 12  1  0
 28 18  1  0
 27 21  1  0
  3 29  1  0
  4 30  1  0
  4 31  1  0
  8 32  1  0
  8 33  1  0
  9 34  1  0
  9 35  1  0
 10 36  1  0
 10 37  1  0
 11 38  1  1
 12 39  1  0
 13 40  1  0
 13 41  1  0
 14 42  1  0
 14 43  1  0
 15 44  1  0
 16 45  1  0
 16 46  1  0
 17 47  1  0
 17 48  1  0
 19 49  1  0
 20 50  1  0
 22 51  1  0
 25 52  1  0
 26 53  1  0
M  END
>  <smiles>  (26) 
O=C(NCC(=O)N1CCCC1C1CCNCC1)c1ccc2cc(Cl)ccc2n1

>  <score_type>  (26) 
oracle

>  <origin>  (26) 
autodockgpu

>  <m_score__min__energy>  (26) 
-9.0099999999999998

>  <m_primary>  (26) 
energy

>  <rmsd>  (26) 
2.2318051773332104

>  <m_score__min__rmsd>  (26) 
2.2318051773332104

>  <meeko>  (26) 
{"free_energy": -9.0, "intermolecular_energy": -10.49, "internal_energy": -1.76, "cluster_size": 19, "cluster_id": 1, "rank_in_cluster": 2}

>  <energy>  (26) 
-8.57

>  <cluster_rmsd>  (26) 
1.44

>  <cluster>  (26) 
2

$$$$

     RDKit          3D

 53 56  0  0  0  0  0  0  0  0999 V2000
  139.6290   71.9920  220.6090 O   0  0  0  0  0  0  0  0  0  0  0  0
  139.6310   72.4740  221.7680 C   0  0  0  0  0  0  0  0  0  0  0  0
  139.5540   73.8500  222.0670 N   0  0  0  0  0  0  0  0  0  0  0  0
  139.4630   74.8290  221.0040 C   0  0  0  0  0  0  0  0  0  0  0  0
  139.7090   76.1720  221.6000 C   0  0  0  0  0  0  0  0  0  0  0  0
  139.3410   76.3260  222.7940 O   0  0  0  0  0  0  0  0  0  0  0  0
  140.3320   77.2310  220.8480 N   0  0  0  0  0  0  0  0  0  0  0  0
  140.6860   77.0450  219.4440 C   0  0  0  0  0  0  0  0  0  0  0  0
  141.2990   78.4020  219.0670 C   0  0  0  0  0  0  0  0  0  0  0  0
  141.8210   78.9320  220.4130 C   0  0  0  0  0  0  0  0  0  0  0  0
  140.6870   78.5560  221.2990 C   0  0  2  0  0  0  0  0  0  0  0  0
  140.9890   78.6630  222.7660 C   0  0  0  0  0  0  0  0  0  0  0  0
  139.8920   79.4760  223.4060 C   0  0  0  0  0  0  0  0  0  0  0  0
  140.1400   80.9250  223.5370 C   0  0  0  0  0  0  0  0  0  0  0  0
  141.4580   81.3960  223.4200 N   0  0  0  0  0  0  0  0  0  0  0  0
  142.5080   80.4920  223.6430 C   0  0  0  0  0  0  0  0  0  0  0  0
  142.3590   79.1060  223.1140 C   0  0  0  0  0  0  0  0  0  0  0  0
  139.7200   71.5350  222.8960 C   0  0  0  0  0  0  0  0  0  0  0  0
  139.2600   70.2320  222.7960 C   0  0  0  0  0  0  0  0  0  0  0  0
  139.3460   69.3420  223.8710 C   0  0  0  0  0  0  0  0  0  0  0  0
  139.9040   69.7850  225.0480 C   0  0  0  0  0  0  0  0  0  0  0  0
  140.0350   68.9780  226.1720 C   0  0  0  0  0  0  0  0  0  0  0  0
  140.6100   69.4940  227.3310 C   0  0  0  0  0  0  0  0  0  0  0  0
  140.7700   68.4770  228.7320 Cl  0  0  0  0  0  0  0  0  0  0  0  0
  141.0610   70.7930  227.4070 C   0  0  0  0  0  0  0  0  0  0  0  0
  140.9330   71.6040  226.2860 C   0  0  0  0  0  0  0  0  0  0  0  0
  140.3610   71.0830  225.1400 C   0  0  0  0  0  0  0  0  0  0  0  0
  140.2540   71.8910  224.0840 N   0  0  0  0  0  0  0  0  0  0  0  0
  139.5630   74.1720  223.0750 H   0  0  0  0  0  0  0  0  0  0  0  0
  140.2195   74.6169  220.2341 H   0  0  0  0  0  0  0  0  0  0  0  0
  138.4696   74.7936  220.5329 H   0  0  0  0  0  0  0  0  0  0  0  0
  141.4175   76.2323  219.3238 H   0  0  0  0  0  0  0  0  0  0  0  0
  139.8311   76.7619  218.8123 H   0  0  0  0  0  0  0  0  0  0  0  0
  142.1202   78.2781  218.3457 H   0  0  0  0  0  0  0  0  0  0  0  0
  140.5826   79.0815  218.5821 H   0  0  0  0  0  0  0  0  0  0  0  0
  142.7550   78.4342  220.7127 H   0  0  0  0  0  0  0  0  0  0  0  0
  142.0784   80.0014  220.4202 H   0  0  0  0  0  0  0  0  0  0  0  0
  139.8417   79.2551  221.2178 H   0  0  0  0  0  0  0  0  0  0  0  0
  140.9939   77.6467  223.1869 H   0  0  0  0  0  0  0  0  0  0  0  0
  138.9825   79.3455  222.8013 H   0  0  0  0  0  0  0  0  0  0  0  0
  139.8121   79.0990  224.4363 H   0  0  0  0  0  0  0  0  0  0  0  0
  139.5463   81.4270  222.7588 H   0  0  0  0  0  0  0  0  0  0  0  0
  139.8669   81.1501  224.5785 H   0  0  0  0  0  0  0  0  0  0  0  0
  141.6410   82.2510  222.8990 H   0  0  0  0  0  0  0  0  0  0  0  0
  143.4123   80.9213  223.1871 H   0  0  0  0  0  0  0  0  0  0  0  0
  142.5386   80.3686  224.7356 H   0  0  0  0  0  0  0  0  0  0  0  0
  142.9734   79.0300  222.2048 H   0  0  0  0  0  0  0  0  0  0  0  0
  142.6704   78.4498  223.9401 H   0  0  0  0  0  0  0  0  0  0  0  0
  138.8169   69.8897  221.8491 H   0  0  0  0  0  0  0  0  0  0  0  0
  138.9757   68.3104  223.7777 H   0  0  0  0  0  0  0  0  0  0  0  0
  139.6857   67.9352  226.1464 H   0  0  0  0  0  0  0  0  0  0  0  0
  141.5118   71.1793  228.3330 H   0  0  0  0  0  0  0  0  0  0  0  0
  141.2821   72.6468  226.3099 H   0  0  0  0  0  0  0  0  0  0  0  0
  1  2  2  0
  2  3  1  0
  3  4  1  0
  4  5  1  0
  5  6  2  0
  5  7  1  0
  7  8  1  0
  8  9  1  0
  9 10  1  0
 10 11  1  0
 11 12  1  0
 12 13  1  0
 13 14  1  0
 14 15  1  0
 15 16  1  0
 16 17  1  0
  2 18  1  0
 18 19  2  0
 19 20  1  0
 20 21  2  0
 21 22  1  0
 22 23  2  0
 23 24  1  0
 23 25  1  0
 25 26  2  0
 26 27  1  0
 27 28  2  0
 11  7  1  0
 17 12  1  0
 28 18  1  0
 27 21  1  0
  3 29  1  0
  4 30  1  0
  4 31  1  0
  8 32  1  0
  8 33  1  0
  9 34  1  0
  9 35  1  0
 10 36  1  0
 10 37  1  0
 11 38  1  6
 12 39  1  0
 13 40  1  0
 13 41  1  0
 14 42  1  0
 14 43  1  0
 15 44  1  0
 16 45  1  0
 16 46  1  0
 17 47  1  0
 17 48  1  0
 19 49  1  0
 20 50  1  0
 22 51  1  0
 25 52  1  0
 26 53  1  0
M  END
>  <smiles>  (27) 
O=C(NCC(=O)N1CCCC1C1CCNCC1)c1ccc2cc(Cl)ccc2n1

>  <score_type>  (27) 
oracle

>  <origin>  (27) 
autodockgpu

>  <m_score__min__energy>  (27) 
-9.0099999999999998

>  <m_primary>  (27) 
energy

>  <rmsd>  (27) 
1.9931666675038195

>  <m_score__min__rmsd>  (27) 
1.9931666675038195

>  <meeko>  (27) 
{"free_energy": -8.52, "intermolecular_energy": -10.01, "internal_energy": -1.94, "cluster_size": 26, "cluster_id": 2, "rank_in_cluster": 11}

>  <energy>  (27) 
-8.55

>  <cluster_rmsd>  (27) 
1.09

>  <cluster>  (27) 
2

$$$$

     RDKit          3D

 53 56  0  0  0  0  0  0  0  0999 V2000
  140.7340   72.1870  220.6700 O   0  0  0  0  0  0  0  0  0  0  0  0
  140.2730   72.6090  221.7580 C   0  0  0  0  0  0  0  0  0  0  0  0
  139.8410   73.9310  221.9890 N   0  0  0  0  0  0  0  0  0  0  0  0
  139.9060   74.9210  220.9350 C   0  0  0  0  0  0  0  0  0  0  0  0
  141.1400   75.7280  221.1420 C   0  0  0  0  0  0  0  0  0  0  0  0
  141.4460   75.9810  222.3360 O   0  0  0  0  0  0  0  0  0  0  0  0
  141.9380   76.1900  220.0340 N   0  0  0  0  0  0  0  0  0  0  0  0
  141.5530   77.3780  219.2780 C   0  0  0  0  0  0  0  0  0  0  0  0
  142.6700   77.4890  218.2300 C   0  0  0  0  0  0  0  0  0  0  0  0
  143.1550   76.0370  218.0860 C   0  0  0  0  0  0  0  0  0  0  0  0
  143.1580   75.6210  219.5150 C   0  0  2  0  0  0  0  0  0  0  0  0
  143.3030   74.1410  219.7240 C   0  0  0  0  0  0  0  0  0  0  0  0
  144.2930   73.9270  220.8420 C   0  0  0  0  0  0  0  0  0  0  0  0
  145.6990   73.7230  220.4420 C   0  0  0  0  0  0  0  0  0  0  0  0
  145.9770   73.3740  219.1090 N   0  0  0  0  0  0  0  0  0  0  0  0
  144.9510   72.7950  218.3480 C   0  0  0  0  0  0  0  0  0  0  0  0
  143.5720   73.3380  218.5090 C   0  0  0  0  0  0  0  0  0  0  0  0
  140.1790   71.6560  222.8730 C   0  0  0  0  0  0  0  0  0  0  0  0
  139.6170   70.4000  222.7110 C   0  0  0  0  0  0  0  0  0  0  0  0
  139.5280   69.4960  223.7740 C   0  0  0  0  0  0  0  0  0  0  0  0
  140.0140   69.8770  225.0040 C   0  0  0  0  0  0  0  0  0  0  0  0
  139.9720   69.0520  226.1200 C   0  0  0  0  0  0  0  0  0  0  0  0
  140.4840   69.5040  227.3350 C   0  0  0  0  0  0  0  0  0  0  0  0
  140.4270   68.4650  228.7270 Cl  0  0  0  0  0  0  0  0  0  0  0  0
  141.0380   70.7570  227.4720 C   0  0  0  0  0  0  0  0  0  0  0  0
  141.0820   71.5860  226.3580 C   0  0  0  0  0  0  0  0  0  0  0  0
  140.5720   71.1290  225.1580 C   0  0  0  0  0  0  0  0  0  0  0  0
  140.6320   71.9520  224.1100 N   0  0  0  0  0  0  0  0  0  0  0  0
  139.4660   74.2050  222.9410 H   0  0  0  0  0  0  0  0  0  0  0  0
  139.9454   74.4222  219.9554 H   0  0  0  0  0  0  0  0  0  0  0  0
  139.0163   75.5673  220.9604 H   0  0  0  0  0  0  0  0  0  0  0  0
  140.5720   77.2426  218.7991 H   0  0  0  0  0  0  0  0  0  0  0  0
  141.4497   78.2778  219.9023 H   0  0  0  0  0  0  0  0  0  0  0  0
  142.2799   77.8720  217.2755 H   0  0  0  0  0  0  0  0  0  0  0  0
  143.4696   78.1862  218.5210 H   0  0  0  0  0  0  0  0  0  0  0  0
  142.4590   75.4320  217.4864 H   0  0  0  0  0  0  0  0  0  0  0  0
  144.1184   75.9201  217.5680 H   0  0  0  0  0  0  0  0  0  0  0  0
  144.0417   75.9877  220.0577 H   0  0  0  0  0  0  0  0  0  0  0  0
  142.3200   73.7412  220.0137 H   0  0  0  0  0  0  0  0  0  0  0  0
  144.2557   74.8107  221.4960 H   0  0  0  0  0  0  0  0  0  0  0  0
  143.9877   72.9884  221.3276 H   0  0  0  0  0  0  0  0  0  0  0  0
  146.2342   74.6613  220.6495 H   0  0  0  0  0  0  0  0  0  0  0  0
  146.0167   72.8431  221.0207 H   0  0  0  0  0  0  0  0  0  0  0  0
  146.7690   73.8000  218.6340 H   0  0  0  0  0  0  0  0  0  0  0  0
  145.2256   72.9070  217.2887 H   0  0  0  0  0  0  0  0  0  0  0  0
  144.8849   71.7604  218.7157 H   0  0  0  0  0  0  0  0  0  0  0  0
  143.3624   73.9751  217.6371 H   0  0  0  0  0  0  0  0  0  0  0  0
  142.9257   72.4528  218.6028 H   0  0  0  0  0  0  0  0  0  0  0  0
  139.2319   70.1072  221.7231 H   0  0  0  0  0  0  0  0  0  0  0  0
  139.0793   68.5020  223.6303 H   0  0  0  0  0  0  0  0  0  0  0  0
  139.5360   68.0448  226.0455 H   0  0  0  0  0  0  0  0  0  0  0  0
  141.4363   71.0937  228.4405 H   0  0  0  0  0  0  0  0  0  0  0  0
  141.5174   72.5936  226.4304 H   0  0  0  0  0  0  0  0  0  0  0  0
  1  2  2  0
  2  3  1  0
  3  4  1  0
  4  5  1  0
  5  6  2  0
  5  7  1  0
  7  8  1  0
  8  9  1  0
  9 10  1  0
 10 11  1  0
 11 12  1  0
 12 13  1  0
 13 14  1  0
 14 15  1  0
 15 16  1  0
 16 17  1  0
  2 18  1  0
 18 19  2  0
 19 20  1  0
 20 21  2  0
 21 22  1  0
 22 23  2  0
 23 24  1  0
 23 25  1  0
 25 26  2  0
 26 27  1  0
 27 28  2  0
 11  7  1  0
 17 12  1  0
 28 18  1  0
 27 21  1  0
  3 29  1  0
  4 30  1  0
  4 31  1  0
  8 32  1  0
  8 33  1  0
  9 34  1  0
  9 35  1  0
 10 36  1  0
 10 37  1  0
 11 38  1  1
 12 39  1  0
 13 40  1  0
 13 41  1  0
 14 42  1  0
 14 43  1  0
 15 44  1  0
 16 45  1  0
 16 46  1  0
 17 47  1  0
 17 48  1  0
 19 49  1  0
 20 50  1  0
 22 51  1  0
 25 52  1  0
 26 53  1  0
M  END
>  <smiles>  (28) 
O=C(NCC(=O)N1CCCC1C1CCNCC1)c1ccc2cc(Cl)ccc2n1

>  <score_type>  (28) 
oracle

>  <origin>  (28) 
autodockgpu

>  <m_score__min__energy>  (28) 
-9.0099999999999998

>  <m_primary>  (28) 
energy

>  <rmsd>  (28) 
2.2041867045453083

>  <m_score__min__rmsd>  (28) 
2.2041867045453083

>  <meeko>  (28) 
{"free_energy": -8.9, "intermolecular_energy": -10.39, "internal_energy": -1.81, "cluster_size": 19, "cluster_id": 1, "rank_in_cluster": 3}

>  <energy>  (28) 
-8.54

>  <cluster_rmsd>  (28) 
1.16

>  <cluster>  (28) 
2

$$$$

     RDKit          3D

 53 56  0  0  0  0  0  0  0  0999 V2000
  141.0150   72.2480  220.7460 O   0  0  0  0  0  0  0  0  0  0  0  0
  140.3840   72.6440  221.7560 C   0  0  0  0  0  0  0  0  0  0  0  0
  139.8100   73.9250  221.8950 N   0  0  0  0  0  0  0  0  0  0  0  0
  139.9200   74.8990  220.8300 C   0  0  0  0  0  0  0  0  0  0  0  0
  139.7500   76.2510  221.4300 C   0  0  0  0  0  0  0  0  0  0  0  0
  139.1340   76.3000  222.5260 O   0  0  0  0  0  0  0  0  0  0  0  0
  140.2630   77.4350  220.7870 N   0  0  0  0  0  0  0  0  0  0  0  0
  140.5730   77.4380  219.3610 C   0  0  0  0  0  0  0  0  0  0  0  0
  141.0680   78.8730  219.1260 C   0  0  0  0  0  0  0  0  0  0  0  0
  141.6040   79.2850  220.5070 C   0  0  0  0  0  0  0  0  0  0  0  0
  140.5370   78.7230  221.3780 C   0  0  2  0  0  0  0  0  0  0  0  0
  140.8900   78.6850  222.8370 C   0  0  0  0  0  0  0  0  0  0  0  0
  139.8460   79.4760  223.5860 C   0  0  0  0  0  0  0  0  0  0  0  0
  140.1550   80.8980  223.8370 C   0  0  0  0  0  0  0  0  0  0  0  0
  141.4870   81.3290  223.7160 N   0  0  0  0  0  0  0  0  0  0  0  0
  142.5070   80.3700  223.8210 C   0  0  0  0  0  0  0  0  0  0  0  0
  142.2860   79.0450  223.1760 C   0  0  0  0  0  0  0  0  0  0  0  0
  140.2350   71.7040  222.8770 C   0  0  0  0  0  0  0  0  0  0  0  0
  139.5820   70.4920  222.7270 C   0  0  0  0  0  0  0  0  0  0  0  0
  139.4410   69.6010  223.7960 C   0  0  0  0  0  0  0  0  0  0  0  0
  139.9680   69.9510  225.0180 C   0  0  0  0  0  0  0  0  0  0  0  0
  139.8810   69.1350  226.1390 C   0  0  0  0  0  0  0  0  0  0  0  0
  140.4380   69.5540  227.3450 C   0  0  0  0  0  0  0  0  0  0  0  0
  140.3240   68.5270  228.7430 Cl  0  0  0  0  0  0  0  0  0  0  0  0
  141.0830   70.7650  227.4700 C   0  0  0  0  0  0  0  0  0  0  0  0
  141.1730   71.5840  226.3520 C   0  0  0  0  0  0  0  0  0  0  0  0
  140.6170   71.1600  225.1600 C   0  0  0  0  0  0  0  0  0  0  0  0
  140.7240   71.9720  224.1070 N   0  0  0  0  0  0  0  0  0  0  0  0
  139.2950   74.1780  222.7840 H   0  0  0  0  0  0  0  0  0  0  0  0
  140.9086   74.8226  220.3538 H   0  0  0  0  0  0  0  0  0  0  0  0
  139.1512   74.7192  220.0641 H   0  0  0  0  0  0  0  0  0  0  0  0
  141.3573   76.7041  219.1240 H   0  0  0  0  0  0  0  0  0  0  0  0
  139.7169   77.1624  218.7276 H   0  0  0  0  0  0  0  0  0  0  0  0
  141.8658   78.8970  218.3691 H   0  0  0  0  0  0  0  0  0  0  0  0
  140.2840   79.5452  218.7473 H   0  0  0  0  0  0  0  0  0  0  0  0
  142.5835   78.8304  220.7167 H   0  0  0  0  0  0  0  0  0  0  0  0
  141.7826   80.3633  220.6312 H   0  0  0  0  0  0  0  0  0  0  0  0
  139.6395   79.3584  221.4055 H   0  0  0  0  0  0  0  0  0  0  0  0
  140.8693   77.6347  223.1634 H   0  0  0  0  0  0  0  0  0  0  0  0
  138.9131   79.4337  223.0046 H   0  0  0  0  0  0  0  0  0  0  0  0
  139.7842   79.0103  224.5806 H   0  0  0  0  0  0  0  0  0  0  0  0
  139.5572   81.4896  223.1280 H   0  0  0  0  0  0  0  0  0  0  0  0
  139.9239   81.0382  224.9033 H   0  0  0  0  0  0  0  0  0  0  0  0
  141.6880   82.2210  223.2680 H   0  0  0  0  0  0  0  0  0  0  0  0
  143.4132   80.8050  223.3742 H   0  0  0  0  0  0  0  0  0  0  0  0
  142.5671   80.1472  224.8965 H   0  0  0  0  0  0  0  0  0  0  0  0
  142.8683   79.0292  222.2429 H   0  0  0  0  0  0  0  0  0  0  0  0
  142.5958   78.3060  223.9296 H   0  0  0  0  0  0  0  0  0  0  0  0
  139.1648   70.2240  221.7451 H   0  0  0  0  0  0  0  0  0  0  0  0
  138.9201   68.6413  223.6627 H   0  0  0  0  0  0  0  0  0  0  0  0
  139.3738   68.1610  226.0744 H   0  0  0  0  0  0  0  0  0  0  0  0
  141.5162   71.0757  228.4322 H   0  0  0  0  0  0  0  0  0  0  0  0
  141.6805   72.5579  226.4145 H   0  0  0  0  0  0  0  0  0  0  0  0
  1  2  2  0
  2  3  1  0
  3  4  1  0
  4  5  1  0
  5  6  2  0
  5  7  1  0
  7  8  1  0
  8  9  1  0
  9 10  1  0
 10 11  1  0
 11 12  1  0
 12 13  1  0
 13 14  1  0
 14 15  1  0
 15 16  1  0
 16 17  1  0
  2 18  1  0
 18 19  2  0
 19 20  1  0
 20 21  2  0
 21 22  1  0
 22 23  2  0
 23 24  1  0
 23 25  1  0
 25 26  2  0
 26 27  1  0
 27 28  2  0
 11  7  1  0
 17 12  1  0
 28 18  1  0
 27 21  1  0
  3 29  1  0
  4 30  1  0
  4 31  1  0
  8 32  1  0
  8 33  1  0
  9 34  1  0
  9 35  1  0
 10 36  1  0
 10 37  1  0
 11 38  1  1
 12 39  1  0
 13 40  1  0
 13 41  1  0
 14 42  1  0
 14 43  1  0
 15 44  1  0
 16 45  1  0
 16 46  1  0
 17 47  1  0
 17 48  1  0
 19 49  1  0
 20 50  1  0
 22 51  1  0
 25 52  1  0
 26 53  1  0
M  END
>  <smiles>  (29) 
O=C(NCC(=O)N1CCCC1C1CCNCC1)c1ccc2cc(Cl)ccc2n1

>  <score_type>  (29) 
oracle

>  <origin>  (29) 
autodockgpu

>  <m_score__min__energy>  (29) 
-9.0099999999999998

>  <m_primary>  (29) 
energy

>  <rmsd>  (29) 
2.2428723250484213

>  <m_score__min__rmsd>  (29) 
2.2428723250484213

>  <meeko>  (29) 
{"free_energy": -8.41, "intermolecular_energy": -9.9, "internal_energy": -1.83, "cluster_size": 26, "cluster_id": 2, "rank_in_cluster": 18}

>  <energy>  (29) 
-8.53

>  <cluster_rmsd>  (29) 
1.1

>  <cluster>  (29) 
2

$$$$

     RDKit          3D

 53 56  0  0  0  0  0  0  0  0999 V2000
  141.0360   72.3470  220.7910 O   0  0  0  0  0  0  0  0  0  0  0  0
  140.3880   72.7150  221.8000 C   0  0  0  0  0  0  0  0  0  0  0  0
  139.7840   73.9790  221.9520 N   0  0  0  0  0  0  0  0  0  0  0  0
  139.8800   74.9710  220.9010 C   0  0  0  0  0  0  0  0  0  0  0  0
  141.1250   75.7550  221.1270 C   0  0  0  0  0  0  0  0  0  0  0  0
  141.4190   75.9990  222.3260 O   0  0  0  0  0  0  0  0  0  0  0  0
  141.9450   76.2060  220.0310 N   0  0  0  0  0  0  0  0  0  0  0  0
  141.5660   77.3750  219.2430 C   0  0  0  0  0  0  0  0  0  0  0  0
  142.7080   77.4800  218.2220 C   0  0  0  0  0  0  0  0  0  0  0  0
  143.2130   76.0320  218.1180 C   0  0  0  0  0  0  0  0  0  0  0  0
  143.1850   75.6420  219.5530 C   0  0  2  0  0  0  0  0  0  0  0  0
  143.3420   74.1680  219.7940 C   0  0  0  0  0  0  0  0  0  0  0  0
  144.4140   73.9820  220.8380 C   0  0  0  0  0  0  0  0  0  0  0  0
  145.7850   73.7600  220.3380 C   0  0  0  0  0  0  0  0  0  0  0  0
  145.9590   73.3710  218.9990 N   0  0  0  0  0  0  0  0  0  0  0  0
  144.8760   72.7750  218.3350 C   0  0  0  0  0  0  0  0  0  0  0  0
  143.5140   73.3290  218.5870 C   0  0  0  0  0  0  0  0  0  0  0  0
  140.2510   71.7560  222.9070 C   0  0  0  0  0  0  0  0  0  0  0  0
  139.6460   70.5220  222.7300 C   0  0  0  0  0  0  0  0  0  0  0  0
  139.5160   69.6130  223.7850 C   0  0  0  0  0  0  0  0  0  0  0  0
  140.0050   69.9670  225.0210 C   0  0  0  0  0  0  0  0  0  0  0  0
  139.9250   69.1350  226.1310 C   0  0  0  0  0  0  0  0  0  0  0  0
  140.4430   69.5590  227.3530 C   0  0  0  0  0  0  0  0  0  0  0  0
  140.3380   68.5110  228.7360 Cl  0  0  0  0  0  0  0  0  0  0  0  0
  141.0400   70.7900  227.5050 C   0  0  0  0  0  0  0  0  0  0  0  0
  141.1230   71.6260  226.3990 C   0  0  0  0  0  0  0  0  0  0  0  0
  140.6070   71.1970  225.1900 C   0  0  0  0  0  0  0  0  0  0  0  0
  140.7040   72.0260  224.1490 N   0  0  0  0  0  0  0  0  0  0  0  0
  139.2550   74.2080  222.8400 H   0  0  0  0  0  0  0  0  0  0  0  0
  139.9235   74.4742  219.9205 H   0  0  0  0  0  0  0  0  0  0  0  0
  139.0014   75.6327  220.9161 H   0  0  0  0  0  0  0  0  0  0  0  0
  140.5993   77.2189  218.7419 H   0  0  0  0  0  0  0  0  0  0  0  0
  141.4364   78.2849  219.8474 H   0  0  0  0  0  0  0  0  0  0  0  0
  142.3381   77.8404  217.2508 H   0  0  0  0  0  0  0  0  0  0  0  0
  143.4917   78.1921  218.5199 H   0  0  0  0  0  0  0  0  0  0  0  0
  142.5394   75.4077  217.5126 H   0  0  0  0  0  0  0  0  0  0  0  0
  144.1906   75.9176  217.6269 H   0  0  0  0  0  0  0  0  0  0  0  0
  144.0510   76.0289  220.1101 H   0  0  0  0  0  0  0  0  0  0  0  0
  142.3833   73.7816  220.1704 H   0  0  0  0  0  0  0  0  0  0  0  0
  144.4290   74.8844  221.4668 H   0  0  0  0  0  0  0  0  0  0  0  0
  144.1447   73.0591  221.3725 H   0  0  0  0  0  0  0  0  0  0  0  0
  146.3367   74.7016  220.4762 H   0  0  0  0  0  0  0  0  0  0  0  0
  146.1443   72.8962  220.9165 H   0  0  0  0  0  0  0  0  0  0  0  0
  146.7130   73.7800  218.4510 H   0  0  0  0  0  0  0  0  0  0  0  0
  145.0685   72.8565  217.2550 H   0  0  0  0  0  0  0  0  0  0  0  0
  144.8363   71.7510  218.7347 H   0  0  0  0  0  0  0  0  0  0  0  0
  143.2384   73.9411  217.7156 H   0  0  0  0  0  0  0  0  0  0  0  0
  142.8753   72.4498  218.7573 H   0  0  0  0  0  0  0  0  0  0  0  0
  139.2589   70.2510  221.7366 H   0  0  0  0  0  0  0  0  0  0  0  0
  139.0335   68.6367  223.6298 H   0  0  0  0  0  0  0  0  0  0  0  0
  139.4541   68.1446  226.0452 H   0  0  0  0  0  0  0  0  0  0  0  0
  141.4419   71.1042  228.4796 H   0  0  0  0  0  0  0  0  0  0  0  0
  141.5933   72.6168  226.4838 H   0  0  0  0  0  0  0  0  0  0  0  0
  1  2  2  0
  2  3  1  0
  3  4  1  0
  4  5  1  0
  5  6  2  0
  5  7  1  0
  7  8  1  0
  8  9  1  0
  9 10  1  0
 10 11  1  0
 11 12  1  0
 12 13  1  0
 13 14  1  0
 14 15  1  0
 15 16  1  0
 16 17  1  0
  2 18  1  0
 18 19  2  0
 19 20  1  0
 20 21  2  0
 21 22  1  0
 22 23  2  0
 23 24  1  0
 23 25  1  0
 25 26  2  0
 26 27  1  0
 27 28  2  0
 11  7  1  0
 17 12  1  0
 28 18  1  0
 27 21  1  0
  3 29  1  0
  4 30  1  0
  4 31  1  0
  8 32  1  0
  8 33  1  0
  9 34  1  0
  9 35  1  0
 10 36  1  0
 10 37  1  0
 11 38  1  1
 12 39  1  0
 13 40  1  0
 13 41  1  0
 14 42  1  0
 14 43  1  0
 15 44  1  0
 16 45  1  0
 16 46  1  0
 17 47  1  0
 17 48  1  0
 19 49  1  0
 20 50  1  0
 22 51  1  0
 25 52  1  0
 26 53  1  0
M  END
>  <smiles>  (30) 
O=C(NCC(=O)N1CCCC1C1CCNCC1)c1ccc2cc(Cl)ccc2n1

>  <score_type>  (30) 
oracle

>  <origin>  (30) 
autodockgpu

>  <m_score__min__energy>  (30) 
-9.0099999999999998

>  <m_primary>  (30) 
energy

>  <rmsd>  (30) 
2.239141151989466

>  <m_score__min__rmsd>  (30) 
2.239141151989466

>  <meeko>  (30) 
{"free_energy": -9.01, "intermolecular_energy": -10.51, "internal_energy": -1.75, "cluster_size": 19, "cluster_id": 1, "rank_in_cluster": 1}

>  <energy>  (30) 
-8.52

>  <cluster_rmsd>  (30) 
1.12

>  <cluster>  (30) 
2

$$$$

     RDKit          3D

 53 56  0  0  0  0  0  0  0  0999 V2000
  137.3960   77.0640  222.8740 O   0  0  0  0  0  0  0  0  0  0  0  0
  138.3140   77.4580  222.1150 C   0  0  0  0  0  0  0  0  0  0  0  0
  138.3910   78.7460  221.5460 N   0  0  0  0  0  0  0  0  0  0  0  0
  137.3680   79.7330  221.8210 C   0  0  0  0  0  0  0  0  0  0  0  0
  138.0450   80.9680  222.3060 C   0  0  0  0  0  0  0  0  0  0  0  0
  137.5120   81.5450  223.2900 O   0  0  0  0  0  0  0  0  0  0  0  0
  139.2420   81.4700  221.6810 N   0  0  0  0  0  0  0  0  0  0  0  0
  139.2730   81.7670  220.2520 C   0  0  0  0  0  0  0  0  0  0  0  0
  140.7090   82.2700  220.0420 C   0  0  0  0  0  0  0  0  0  0  0  0
  141.4850   81.5850  221.1780 C   0  0  0  0  0  0  0  0  0  0  0  0
  140.5170   81.7540  222.2950 C   0  0  2  0  0  0  0  0  0  0  0  0
  140.8290   80.9300  223.5100 C   0  0  0  0  0  0  0  0  0  0  0  0
  142.2110   81.3080  223.9830 C   0  0  0  0  0  0  0  0  0  0  0  0
  143.3250   80.4790  223.4820 C   0  0  0  0  0  0  0  0  0  0  0  0
  143.0330   79.2200  222.9310 N   0  0  0  0  0  0  0  0  0  0  0  0
  141.8190   78.6090  223.2800 C   0  0  0  0  0  0  0  0  0  0  0  0
  140.6080   79.4720  223.3790 C   0  0  0  0  0  0  0  0  0  0  0  0
  139.3870   76.5050  221.7940 C   0  0  0  0  0  0  0  0  0  0  0  0
  139.3190   75.1760  222.1770 C   0  0  0  0  0  0  0  0  0  0  0  0
  140.3420   74.2730  221.8710 C   0  0  0  0  0  0  0  0  0  0  0  0
  141.4350   74.7310  221.1720 C   0  0  0  0  0  0  0  0  0  0  0  0
  142.5020   73.9140  220.8190 C   0  0  0  0  0  0  0  0  0  0  0  0
  143.5770   74.4450  220.1100 C   0  0  0  0  0  0  0  0  0  0  0  0
  144.9070   73.4150  219.6730 Cl  0  0  0  0  0  0  0  0  0  0  0  0
  143.6220   75.7710  219.7390 C   0  0  0  0  0  0  0  0  0  0  0  0
  142.5580   76.5920  220.0890 C   0  0  0  0  0  0  0  0  0  0  0  0
  141.4960   76.0560  220.7920 C   0  0  0  0  0  0  0  0  0  0  0  0
  140.4920   76.8740  221.1110 N   0  0  0  0  0  0  0  0  0  0  0  0
  139.2020   78.9960  220.9130 H   0  0  0  0  0  0  0  0  0  0  0  0
  136.8030   79.9520  220.9030 H   0  0  0  0  0  0  0  0  0  0  0  0
  136.6655   79.3570  222.5794 H   0  0  0  0  0  0  0  0  0  0  0  0
  139.0779   80.8640  219.6550 H   0  0  0  0  0  0  0  0  0  0  0  0
  138.5068   82.4922  219.9405 H   0  0  0  0  0  0  0  0  0  0  0  0
  141.0953   81.9638  219.0586 H   0  0  0  0  0  0  0  0  0  0  0  0
  140.7912   83.3668  220.0609 H   0  0  0  0  0  0  0  0  0  0  0  0
  141.6747   80.5236  220.9600 H   0  0  0  0  0  0  0  0  0  0  0  0
  142.4866   81.9982  221.3680 H   0  0  0  0  0  0  0  0  0  0  0  0
  140.5462   82.7654  222.7265 H   0  0  0  0  0  0  0  0  0  0  0  0
  140.0881   81.1757  224.2850 H   0  0  0  0  0  0  0  0  0  0  0  0
  142.3994   82.3459  223.6711 H   0  0  0  0  0  0  0  0  0  0  0  0
  142.1994   81.1551  225.0723 H   0  0  0  0  0  0  0  0  0  0  0  0
  143.8382   81.0623  222.7033 H   0  0  0  0  0  0  0  0  0  0  0  0
  143.9122   80.2472  224.3828 H   0  0  0  0  0  0  0  0  0  0  0  0
  143.5210   78.9140  222.0920 H   0  0  0  0  0  0  0  0  0  0  0  0
  141.6109   77.8378  222.5237 H   0  0  0  0  0  0  0  0  0  0  0  0
  141.9797   78.2401  224.3038 H   0  0  0  0  0  0  0  0  0  0  0  0
  140.0087   79.3077  222.4714 H   0  0  0  0  0  0  0  0  0  0  0  0
  140.1203   79.1721  224.3183 H   0  0  0  0  0  0  0  0  0  0  0  0
  138.4396   74.8223  222.7351 H   0  0  0  0  0  0  0  0  0  0  0  0
  140.2744   73.2201  222.1822 H   0  0  0  0  0  0  0  0  0  0  0  0
  142.4978   72.8502  221.0988 H   0  0  0  0  0  0  0  0  0  0  0  0
  144.4804   76.1700  219.1788 H   0  0  0  0  0  0  0  0  0  0  0  0
  142.5606   77.6560  219.8100 H   0  0  0  0  0  0  0  0  0  0  0  0
  1  2  2  0
  2  3  1  0
  3  4  1  0
  4  5  1  0
  5  6  2  0
  5  7  1  0
  7  8  1  0
  8  9  1  0
  9 10  1  0
 10 11  1  0
 11 12  1  0
 12 13  1  0
 13 14  1  0
 14 15  1  0
 15 16  1  0
 16 17  1  0
  2 18  1  0
 18 19  2  0
 19 20  1  0
 20 21  2  0
 21 22  1  0
 22 23  2  0
 23 24  1  0
 23 25  1  0
 25 26  2  0
 26 27  1  0
 27 28  2  0
 11  7  1  0
 17 12  1  0
 28 18  1  0
 27 21  1  0
  3 29  1  0
  4 30  1  0
  4 31  1  0
  8 32  1  0
  8 33  1  0
  9 34  1  0
  9 35  1  0
 10 36  1  0
 10 37  1  0
 11 38  1  1
 12 39  1  0
 13 40  1  0
 13 41  1  0
 14 42  1  0
 14 43  1  0
 15 44  1  0
 16 45  1  0
 16 46  1  0
 17 47  1  0
 17 48  1  0
 19 49  1  0
 20 50  1  0
 22 51  1  0
 25 52  1  0
 26 53  1  0
M  END
>  <smiles>  (31) 
O=C(NCC(=O)N1CCCC1C1CCNCC1)c1ccc2cc(Cl)ccc2n1

>  <score_type>  (31) 
oracle

>  <origin>  (31) 
autodockgpu

>  <m_score__min__energy>  (31) 
-9.0099999999999998

>  <m_primary>  (31) 
energy

>  <rmsd>  (31) 
7.0488955139051495

>  <m_score__min__rmsd>  (31) 
7.0488955139051495

>  <meeko>  (31) 
{"free_energy": -6.93, "intermolecular_energy": -8.42, "internal_energy": -2.38, "cluster_size": 1, "cluster_id": 5, "rank_in_cluster": 1}

>  <energy>  (31) 
-8.49

>  <cluster_rmsd>  (31) 
1.14

>  <cluster>  (31) 
2

$$$$

     RDKit          3D

 53 56  0  0  0  0  0  0  0  0999 V2000
  140.7270   72.1980  220.6770 O   0  0  0  0  0  0  0  0  0  0  0  0
  140.1990   72.6000  221.7420 C   0  0  0  0  0  0  0  0  0  0  0  0
  139.6810   73.8950  221.9450 N   0  0  0  0  0  0  0  0  0  0  0  0
  139.7280   74.8800  220.8840 C   0  0  0  0  0  0  0  0  0  0  0  0
  139.8710   76.2220  221.5150 C   0  0  0  0  0  0  0  0  0  0  0  0
  139.4870   76.3190  222.7100 O   0  0  0  0  0  0  0  0  0  0  0  0
  140.4190   77.3430  220.7940 N   0  0  0  0  0  0  0  0  0  0  0  0
  140.7160   77.2440  219.3680 C   0  0  0  0  0  0  0  0  0  0  0  0
  141.2580   78.6410  219.0370 C   0  0  0  0  0  0  0  0  0  0  0  0
  141.8210   79.1220  220.3850 C   0  0  0  0  0  0  0  0  0  0  0  0
  140.7430   78.6560  221.2980 C   0  0  2  0  0  0  0  0  0  0  0  0
  141.1080   78.6990  222.7540 C   0  0  0  0  0  0  0  0  0  0  0  0
  140.0080   79.4290  223.4840 C   0  0  0  0  0  0  0  0  0  0  0  0
  140.2010   80.8790  223.6820 C   0  0  0  0  0  0  0  0  0  0  0  0
  141.4930   81.4130  223.5330 N   0  0  0  0  0  0  0  0  0  0  0  0
  142.5880   80.5450  223.6620 C   0  0  0  0  0  0  0  0  0  0  0  0
  142.4720   79.1840  223.0660 C   0  0  0  0  0  0  0  0  0  0  0  0
  140.1180   71.6500  222.8620 C   0  0  0  0  0  0  0  0  0  0  0  0
  139.5420   70.3990  222.7140 C   0  0  0  0  0  0  0  0  0  0  0  0
  139.4660   69.4980  223.7810 C   0  0  0  0  0  0  0  0  0  0  0  0
  139.9790   69.8780  225.0000 C   0  0  0  0  0  0  0  0  0  0  0  0
  139.9520   69.0560  226.1190 C   0  0  0  0  0  0  0  0  0  0  0  0
  140.4900   69.5070  227.3230 C   0  0  0  0  0  0  0  0  0  0  0  0
  140.4510   68.4710  228.7190 Cl  0  0  0  0  0  0  0  0  0  0  0  0
  141.0580   70.7560  227.4460 C   0  0  0  0  0  0  0  0  0  0  0  0
  141.0880   71.5810  226.3290 C   0  0  0  0  0  0  0  0  0  0  0  0
  140.5510   71.1250  225.1400 C   0  0  0  0  0  0  0  0  0  0  0  0
  140.5980   71.9460  224.0890 N   0  0  0  0  0  0  0  0  0  0  0  0
  139.2530   74.1520  222.8780 H   0  0  0  0  0  0  0  0  0  0  0  0
  140.5878   74.6818  220.2271 H   0  0  0  0  0  0  0  0  0  0  0  0
  138.8112   74.8360  220.2778 H   0  0  0  0  0  0  0  0  0  0  0  0
  141.4721   76.4691  219.1734 H   0  0  0  0  0  0  0  0  0  0  0  0
  139.8447   76.9591  218.7600 H   0  0  0  0  0  0  0  0  0  0  0  0
  142.0491   78.5877  218.2745 H   0  0  0  0  0  0  0  0  0  0  0  0
  140.4945   79.3148  218.6209 H   0  0  0  0  0  0  0  0  0  0  0  0
  142.7857   78.6471  220.6170 H   0  0  0  0  0  0  0  0  0  0  0  0
  142.0386   80.1990  220.4377 H   0  0  0  0  0  0  0  0  0  0  0  0
  139.8689   79.3238  221.2902 H   0  0  0  0  0  0  0  0  0  0  0  0
  141.1757   77.6632  223.1179 H   0  0  0  0  0  0  0  0  0  0  0  0
  139.0781   79.2901  222.9130 H   0  0  0  0  0  0  0  0  0  0  0  0
  139.9911   78.9959  224.4950 H   0  0  0  0  0  0  0  0  0  0  0  0
  139.5519   81.3942  222.9586 H   0  0  0  0  0  0  0  0  0  0  0  0
  139.9664   81.0378  224.7449 H   0  0  0  0  0  0  0  0  0  0  0  0
  141.6160   82.3010  223.0520 H   0  0  0  0  0  0  0  0  0  0  0  0
  143.4527   81.0361  223.1918 H   0  0  0  0  0  0  0  0  0  0  0  0
  142.6728   80.3663  224.7441 H   0  0  0  0  0  0  0  0  0  0  0  0
  143.0469   79.1827  222.1282 H   0  0  0  0  0  0  0  0  0  0  0  0
  142.8470   78.5003  223.8418 H   0  0  0  0  0  0  0  0  0  0  0  0
  139.1349   70.1074  221.7346 H   0  0  0  0  0  0  0  0  0  0  0  0
  139.0063   68.5075  223.6487 H   0  0  0  0  0  0  0  0  0  0  0  0
  139.5073   68.0519  226.0553 H   0  0  0  0  0  0  0  0  0  0  0  0
  141.4777   71.0919  228.4057 H   0  0  0  0  0  0  0  0  0  0  0  0
  141.5336   72.5848  226.3900 H   0  0  0  0  0  0  0  0  0  0  0  0
  1  2  2  0
  2  3  1  0
  3  4  1  0
  4  5  1  0
  5  6  2  0
  5  7  1  0
  7  8  1  0
  8  9  1  0
  9 10  1  0
 10 11  1  0
 11 12  1  0
 12 13  1  0
 13 14  1  0
 14 15  1  0
 15 16  1  0
 16 17  1  0
  2 18  1  0
 18 19  2  0
 19 20  1  0
 20 21  2  0
 21 22  1  0
 22 23  2  0
 23 24  1  0
 23 25  1  0
 25 26  2  0
 26 27  1  0
 27 28  2  0
 11  7  1  0
 17 12  1  0
 28 18  1  0
 27 21  1  0
  3 29  1  0
  4 30  1  0
  4 31  1  0
  8 32  1  0
  8 33  1  0
  9 34  1  0
  9 35  1  0
 10 36  1  0
 10 37  1  0
 11 38  1  1
 12 39  1  0
 13 40  1  0
 13 41  1  0
 14 42  1  0
 14 43  1  0
 15 44  1  0
 16 45  1  0
 16 46  1  0
 17 47  1  0
 17 48  1  0
 19 49  1  0
 20 50  1  0
 22 51  1  0
 25 52  1  0
 26 53  1  0
M  END
>  <smiles>  (32) 
O=C(NCC(=O)N1CCCC1C1CCNCC1)c1ccc2cc(Cl)ccc2n1

>  <score_type>  (32) 
oracle

>  <origin>  (32) 
autodockgpu

>  <m_score__min__energy>  (32) 
-9.0099999999999998

>  <m_primary>  (32) 
energy

>  <rmsd>  (32) 
2.1303262757466657

>  <m_score__min__rmsd>  (32) 
2.1303262757466657

>  <meeko>  (32) 
{"free_energy": -8.65, "intermolecular_energy": -10.14, "internal_energy": -1.82, "cluster_size": 26, "cluster_id": 2, "rank_in_cluster": 4}

>  <energy>  (32) 
-8.48

>  <cluster_rmsd>  (32) 
1.13

>  <cluster>  (32) 
2

$$$$

     RDKit          3D

 53 56  0  0  0  0  0  0  0  0999 V2000
  140.7090   72.5330  220.8170 O   0  0  0  0  0  0  0  0  0  0  0  0
  140.1500   72.8690  221.8880 C   0  0  0  0  0  0  0  0  0  0  0  0
  139.5610   74.1280  222.1280 N   0  0  0  0  0  0  0  0  0  0  0  0
  139.5670   75.1500  221.1020 C   0  0  0  0  0  0  0  0  0  0  0  0
  139.1790   76.4380  221.7410 C   0  0  0  0  0  0  0  0  0  0  0  0
  138.7440   76.3660  222.9200 O   0  0  0  0  0  0  0  0  0  0  0  0
  139.2960   77.6940  221.0430 N   0  0  0  0  0  0  0  0  0  0  0  0
  139.2680   77.7470  219.5850 C   0  0  0  0  0  0  0  0  0  0  0  0
  139.4130   79.2480  219.2980 C   0  0  0  0  0  0  0  0  0  0  0  0
  140.1570   79.7680  220.5390 C   0  0  0  0  0  0  0  0  0  0  0  0
  139.4440   79.0160  221.6050 C   0  0  2  0  0  0  0  0  0  0  0  0
  140.1180   79.0590  222.9460 C   0  0  0  0  0  0  0  0  0  0  0  0
  140.0300   80.4740  223.4620 C   0  0  0  0  0  0  0  0  0  0  0  0
  141.1800   81.3520  223.1690 C   0  0  0  0  0  0  0  0  0  0  0  0
  142.3960   80.7630  222.7840 N   0  0  0  0  0  0  0  0  0  0  0  0
  142.6200   79.4200  223.1240 C   0  0  0  0  0  0  0  0  0  0  0  0
  141.4760   78.4710  223.0080 C   0  0  0  0  0  0  0  0  0  0  0  0
  140.1080   71.8790  222.9740 C   0  0  0  0  0  0  0  0  0  0  0  0
  139.5870   70.6100  222.7810 C   0  0  0  0  0  0  0  0  0  0  0  0
  139.5470   69.6700  223.8170 C   0  0  0  0  0  0  0  0  0  0  0  0
  140.0410   70.0290  225.0500 C   0  0  0  0  0  0  0  0  0  0  0  0
  140.0470   69.1690  226.1400 C   0  0  0  0  0  0  0  0  0  0  0  0
  140.5640   69.6000  227.3600 C   0  0  0  0  0  0  0  0  0  0  0  0
  140.5670   68.5170  228.7190 Cl  0  0  0  0  0  0  0  0  0  0  0  0
  141.0770   70.8670  227.5280 C   0  0  0  0  0  0  0  0  0  0  0  0
  141.0730   71.7320  226.4400 C   0  0  0  0  0  0  0  0  0  0  0  0
  140.5590   71.2950  225.2340 C   0  0  0  0  0  0  0  0  0  0  0  0
  140.5720   72.1520  224.2120 N   0  0  0  0  0  0  0  0  0  0  0  0
  139.1110   74.3300  223.0650 H   0  0  0  0  0  0  0  0  0  0  0  0
  140.5731   75.2367  220.6659 H   0  0  0  0  0  0  0  0  0  0  0  0
  138.8619   74.8919  220.2981 H   0  0  0  0  0  0  0  0  0  0  0  0
  140.1036   77.1779  219.1515 H   0  0  0  0  0  0  0  0  0  0  0  0
  138.3592   77.3056  219.1499 H   0  0  0  0  0  0  0  0  0  0  0  0
  140.0001   79.4207  218.3840 H   0  0  0  0  0  0  0  0  0  0  0  0
  138.4499   79.7515  219.1278 H   0  0  0  0  0  0  0  0  0  0  0  0
  141.2272   79.5157  220.5082 H   0  0  0  0  0  0  0  0  0  0  0  0
  140.1474   80.8614  220.6593 H   0  0  0  0  0  0  0  0  0  0  0  0
  138.4715   79.4646  221.8559 H   0  0  0  0  0  0  0  0  0  0  0  0
  139.5753   78.3804  223.6206 H   0  0  0  0  0  0  0  0  0  0  0  0
  139.1349   80.9363  223.0203 H   0  0  0  0  0  0  0  0  0  0  0  0
  140.0025   80.3843  224.5580 H   0  0  0  0  0  0  0  0  0  0  0  0
  140.8742   82.0257  222.3550 H   0  0  0  0  0  0  0  0  0  0  0  0
  141.4067   81.8274  224.1347 H   0  0  0  0  0  0  0  0  0  0  0  0
  142.9430   81.1830  222.0350 H   0  0  0  0  0  0  0  0  0  0  0  0
  143.4230   79.0464  222.4716 H   0  0  0  0  0  0  0  0  0  0  0  0
  142.8519   79.4425  224.1990 H   0  0  0  0  0  0  0  0  0  0  0  0
  141.6249   77.8824  222.0907 H   0  0  0  0  0  0  0  0  0  0  0  0
  141.4926   77.8883  223.9408 H   0  0  0  0  0  0  0  0  0  0  0  0
  139.1957   70.3348  221.7905 H   0  0  0  0  0  0  0  0  0  0  0  0
  139.1298   68.6661  223.6493 H   0  0  0  0  0  0  0  0  0  0  0  0
  139.6446   68.1501  226.0407 H   0  0  0  0  0  0  0  0  0  0  0  0
  141.4803   71.1868  228.5001 H   0  0  0  0  0  0  0  0  0  0  0  0
  141.4740   72.7516  226.5377 H   0  0  0  0  0  0  0  0  0  0  0  0
  1  2  2  0
  2  3  1  0
  3  4  1  0
  4  5  1  0
  5  6  2  0
  5  7  1  0
  7  8  1  0
  8  9  1  0
  9 10  1  0
 10 11  1  0
 11 12  1  0
 12 13  1  0
 13 14  1  0
 14 15  1  0
 15 16  1  0
 16 17  1  0
  2 18  1  0
 18 19  2  0
 19 20  1  0
 20 21  2  0
 21 22  1  0
 22 23  2  0
 23 24  1  0
 23 25  1  0
 25 26  2  0
 26 27  1  0
 27 28  2  0
 11  7  1  0
 17 12  1  0
 28 18  1  0
 27 21  1  0
  3 29  1  0
  4 30  1  0
  4 31  1  0
  8 32  1  0
  8 33  1  0
  9 34  1  0
  9 35  1  0
 10 36  1  0
 10 37  1  0
 11 38  1  1
 12 39  1  0
 13 40  1  0
 13 41  1  0
 14 42  1  0
 14 43  1  0
 15 44  1  0
 16 45  1  0
 16 46  1  0
 17 47  1  0
 17 48  1  0
 19 49  1  0
 20 50  1  0
 22 51  1  0
 25 52  1  0
 26 53  1  0
M  END
>  <smiles>  (33) 
O=C(NCC(=O)N1CCCC1C1CCNCC1)c1ccc2cc(Cl)ccc2n1

>  <score_type>  (33) 
oracle

>  <origin>  (33) 
autodockgpu

>  <m_score__min__energy>  (33) 
-9.0099999999999998

>  <m_primary>  (33) 
energy

>  <rmsd>  (33) 
2.3848533210444725

>  <m_score__min__rmsd>  (33) 
2.3848533210444725

>  <meeko>  (33) 
{"free_energy": -8.18, "intermolecular_energy": -9.67, "internal_energy": -1.87, "cluster_size": 26, "cluster_id": 2, "rank_in_cluster": 20}

>  <energy>  (33) 
-8.44

>  <cluster_rmsd>  (33) 
1.14

>  <cluster>  (33) 
2

$$$$

     RDKit          3D

 53 56  0  0  0  0  0  0  0  0999 V2000
  140.6080   72.0320  220.6050 O   0  0  0  0  0  0  0  0  0  0  0  0
  140.2280   72.4930  221.7070 C   0  0  0  0  0  0  0  0  0  0  0  0
  139.8900   73.8420  221.9420 N   0  0  0  0  0  0  0  0  0  0  0  0
  139.9660   74.8160  220.8730 C   0  0  0  0  0  0  0  0  0  0  0  0
  141.2170   75.6010  221.0600 C   0  0  0  0  0  0  0  0  0  0  0  0
  141.4400   76.0230  222.2250 O   0  0  0  0  0  0  0  0  0  0  0  0
  142.1190   75.8620  219.9660 N   0  0  0  0  0  0  0  0  0  0  0  0
  141.7320   76.7460  218.8710 C   0  0  0  0  0  0  0  0  0  0  0  0
  142.9750   76.7310  217.9690 C   0  0  0  0  0  0  0  0  0  0  0  0
  143.6190   75.3720  218.2910 C   0  0  0  0  0  0  0  0  0  0  0  0
  143.4530   75.3490  219.7690 C   0  0  2  0  0  0  0  0  0  0  0  0
  143.7130   74.0100  220.3960 C   0  0  0  0  0  0  0  0  0  0  0  0
  145.1600   73.9720  220.8220 C   0  0  0  0  0  0  0  0  0  0  0  0
  146.1130   73.3890  219.8570 C   0  0  0  0  0  0  0  0  0  0  0  0
  145.6120   72.5950  218.8110 N   0  0  0  0  0  0  0  0  0  0  0  0
  144.3450   72.0130  218.9690 C   0  0  0  0  0  0  0  0  0  0  0  0
  143.2780   72.8310  219.6120 C   0  0  0  0  0  0  0  0  0  0  0  0
  140.1270   71.5580  222.8380 C   0  0  0  0  0  0  0  0  0  0  0  0
  139.5270   70.3170  222.7050 C   0  0  0  0  0  0  0  0  0  0  0  0
  139.4330   69.4310  223.7830 C   0  0  0  0  0  0  0  0  0  0  0  0
  139.9530   69.8150  224.9970 C   0  0  0  0  0  0  0  0  0  0  0  0
  139.9090   69.0070  226.1260 C   0  0  0  0  0  0  0  0  0  0  0  0
  140.4560   69.4620  227.3240 C   0  0  0  0  0  0  0  0  0  0  0  0
  140.3970   68.4440  228.7330 Cl  0  0  0  0  0  0  0  0  0  0  0  0
  141.0490   70.7010  227.4330 C   0  0  0  0  0  0  0  0  0  0  0  0
  141.0950   71.5120  226.3070 C   0  0  0  0  0  0  0  0  0  0  0  0
  140.5500   71.0530  225.1230 C   0  0  0  0  0  0  0  0  0  0  0  0
  140.6130   71.8590  224.0610 N   0  0  0  0  0  0  0  0  0  0  0  0
  139.5790   74.1480  222.9060 H   0  0  0  0  0  0  0  0  0  0  0  0
  139.9882   74.3029  219.9003 H   0  0  0  0  0  0  0  0  0  0  0  0
  139.0892   75.4798  220.8953 H   0  0  0  0  0  0  0  0  0  0  0  0
  140.8514   76.3565  218.3392 H   0  0  0  0  0  0  0  0  0  0  0  0
  141.4470   77.7548  219.2045 H   0  0  0  0  0  0  0  0  0  0  0  0
  142.6940   76.7938  216.9074 H   0  0  0  0  0  0  0  0  0  0  0  0
  143.6487   77.5827  218.1447 H   0  0  0  0  0  0  0  0  0  0  0  0
  143.0832   74.5419  217.8074 H   0  0  0  0  0  0  0  0  0  0  0  0
  144.6551   75.2564  217.9401 H   0  0  0  0  0  0  0  0  0  0  0  0
  144.2059   75.9620  220.2861 H   0  0  0  0  0  0  0  0  0  0  0  0
  143.0608   73.9162  221.2768 H   0  0  0  0  0  0  0  0  0  0  0  0
  145.4771   75.0060  221.0226 H   0  0  0  0  0  0  0  0  0  0  0  0
  145.1892   73.3085  221.6989 H   0  0  0  0  0  0  0  0  0  0  0  0
  146.6595   74.2250  219.3960 H   0  0  0  0  0  0  0  0  0  0  0  0
  146.7112   72.6904  220.4604 H   0  0  0  0  0  0  0  0  0  0  0  0
  146.0010   72.6930  217.8760 H   0  0  0  0  0  0  0  0  0  0  0  0
  143.9854   71.7339  217.9676 H   0  0  0  0  0  0  0  0  0  0  0  0
  144.5097   71.1774  219.6652 H   0  0  0  0  0  0  0  0  0  0  0  0
  142.6105   73.1907  218.8151 H   0  0  0  0  0  0  0  0  0  0  0  0
  142.8069   72.1595  220.3449 H   0  0  0  0  0  0  0  0  0  0  0  0
  139.1148   70.0213  221.7290 H   0  0  0  0  0  0  0  0  0  0  0  0
  138.9536   68.4483  223.6626 H   0  0  0  0  0  0  0  0  0  0  0  0
  139.4440   68.0115  226.0745 H   0  0  0  0  0  0  0  0  0  0  0  0
  141.4756   71.0393  228.3888 H   0  0  0  0  0  0  0  0  0  0  0  0
  141.5596   72.5078  226.3568 H   0  0  0  0  0  0  0  0  0  0  0  0
  1  2  2  0
  2  3  1  0
  3  4  1  0
  4  5  1  0
  5  6  2  0
  5  7  1  0
  7  8  1  0
  8  9  1  0
  9 10  1  0
 10 11  1  0
 11 12  1  0
 12 13  1  0
 13 14  1  0
 14 15  1  0
 15 16  1  0
 16 17  1  0
  2 18  1  0
 18 19  2  0
 19 20  1  0
 20 21  2  0
 21 22  1  0
 22 23  2  0
 23 24  1  0
 23 25  1  0
 25 26  2  0
 26 27  1  0
 27 28  2  0
 11  7  1  0
 17 12  1  0
 28 18  1  0
 27 21  1  0
  3 29  1  0
  4 30  1  0
  4 31  1  0
  8 32  1  0
  8 33  1  0
  9 34  1  0
  9 35  1  0
 10 36  1  0
 10 37  1  0
 11 38  1  1
 12 39  1  0
 13 40  1  0
 13 41  1  0
 14 42  1  0
 14 43  1  0
 15 44  1  0
 16 45  1  0
 16 46  1  0
 17 47  1  0
 17 48  1  0
 19 49  1  0
 20 50  1  0
 22 51  1  0
 25 52  1  0
 26 53  1  0
M  END
>  <smiles>  (34) 
O=C(NCC(=O)N1CCCC1C1CCNCC1)c1ccc2cc(Cl)ccc2n1

>  <score_type>  (34) 
oracle

>  <origin>  (34) 
autodockgpu

>  <m_score__min__energy>  (34) 
-9.0099999999999998

>  <m_primary>  (34) 
energy

>  <rmsd>  (34) 
2.2488551576200924

>  <m_score__min__rmsd>  (34) 
2.2488551576200924

>  <meeko>  (34) 
{"free_energy": -8.44, "intermolecular_energy": -9.93, "internal_energy": -1.83, "cluster_size": 19, "cluster_id": 1, "rank_in_cluster": 14}

>  <energy>  (34) 
-8.43

>  <cluster_rmsd>  (34) 
1.13

>  <cluster>  (34) 
2

$$$$

     RDKit          3D

 53 56  0  0  0  0  0  0  0  0999 V2000
  139.8530   72.0460  220.6220 O   0  0  0  0  0  0  0  0  0  0  0  0
  139.7540   72.5110  221.7830 C   0  0  0  0  0  0  0  0  0  0  0  0
  139.6000   73.8770  222.0930 N   0  0  0  0  0  0  0  0  0  0  0  0
  139.5430   74.8690  221.0390 C   0  0  0  0  0  0  0  0  0  0  0  0
  140.0410   76.1560  221.5970 C   0  0  0  0  0  0  0  0  0  0  0  0
  139.9240   76.3060  222.8410 O   0  0  0  0  0  0  0  0  0  0  0  0
  140.6250   77.1710  220.7560 N   0  0  0  0  0  0  0  0  0  0  0  0
  141.3850   76.8090  219.5630 C   0  0  0  0  0  0  0  0  0  0  0  0
  141.7940   78.1760  218.9960 C   0  0  0  0  0  0  0  0  0  0  0  0
  141.8040   79.0790  220.2400 C   0  0  0  0  0  0  0  0  0  0  0  0
  140.5670   78.6040  220.9170 C   0  0  2  0  0  0  0  0  0  0  0  0
  140.4220   79.0740  222.3360 C   0  0  0  0  0  0  0  0  0  0  0  0
  139.9270   80.4990  222.3020 C   0  0  0  0  0  0  0  0  0  0  0  0
  140.9600   81.5530  222.3560 C   0  0  0  0  0  0  0  0  0  0  0  0
  142.2500   81.2110  222.7960 N   0  0  0  0  0  0  0  0  0  0  0  0
  142.3990   80.0570  223.5810 C   0  0  0  0  0  0  0  0  0  0  0  0
  141.5950   78.8570  223.2130 C   0  0  0  0  0  0  0  0  0  0  0  0
  139.8030   71.5590  222.9030 C   0  0  0  0  0  0  0  0  0  0  0  0
  139.3270   70.2640  222.7780 C   0  0  0  0  0  0  0  0  0  0  0  0
  139.3750   69.3610  223.8460 C   0  0  0  0  0  0  0  0  0  0  0  0
  139.9100   69.7840  225.0410 C   0  0  0  0  0  0  0  0  0  0  0  0
  140.0030   68.9640  226.1580 C   0  0  0  0  0  0  0  0  0  0  0  0
  140.5570   69.4600  227.3370 C   0  0  0  0  0  0  0  0  0  0  0  0
  140.6690   68.4270  228.7300 Cl  0  0  0  0  0  0  0  0  0  0  0  0
  141.0240   70.7520  227.4370 C   0  0  0  0  0  0  0  0  0  0  0  0
  140.9340   71.5760  226.3220 C   0  0  0  0  0  0  0  0  0  0  0  0
  140.3830   71.0750  225.1580 C   0  0  0  0  0  0  0  0  0  0  0  0
  140.3130   71.8950  224.1070 N   0  0  0  0  0  0  0  0  0  0  0  0
  139.5260   74.1840  223.1040 H   0  0  0  0  0  0  0  0  0  0  0  0
  140.1772   74.5563  220.1963 H   0  0  0  0  0  0  0  0  0  0  0  0
  138.5116   74.9824  220.6739 H   0  0  0  0  0  0  0  0  0  0  0  0
  142.2682   76.2069  219.8228 H   0  0  0  0  0  0  0  0  0  0  0  0
  140.8141   76.1943  218.8515 H   0  0  0  0  0  0  0  0  0  0  0  0
  142.7909   78.1296  218.5334 H   0  0  0  0  0  0  0  0  0  0  0  0
  141.1196   78.5360  218.2051 H   0  0  0  0  0  0  0  0  0  0  0  0
  142.6978   78.9109  220.8588 H   0  0  0  0  0  0  0  0  0  0  0  0
  141.8298   80.1581  220.0279 H   0  0  0  0  0  0  0  0  0  0  0  0
  139.6551   79.0285  220.4718 H   0  0  0  0  0  0  0  0  0  0  0  0
  139.6795   78.4320  222.8326 H   0  0  0  0  0  0  0  0  0  0  0  0
  139.3590   80.6341  221.3697 H   0  0  0  0  0  0  0  0  0  0  0  0
  139.3325   80.6244  223.2190 H   0  0  0  0  0  0  0  0  0  0  0  0
  141.0618   81.9591  221.3388 H   0  0  0  0  0  0  0  0  0  0  0  0
  140.5916   82.2493  223.1237 H   0  0  0  0  0  0  0  0  0  0  0  0
  143.0620   81.5950  222.3180 H   0  0  0  0  0  0  0  0  0  0  0  0
  143.4592   79.7668  223.5396 H   0  0  0  0  0  0  0  0  0  0  0  0
  142.0245   80.3473  224.5737 H   0  0  0  0  0  0  0  0  0  0  0  0
  142.2665   78.1528  222.7000 H   0  0  0  0  0  0  0  0  0  0  0  0
  141.1766   78.4926  224.1628 H   0  0  0  0  0  0  0  0  0  0  0  0
  138.9016   69.9381  221.8173 H   0  0  0  0  0  0  0  0  0  0  0  0
  138.9934   68.3356  223.7326 H   0  0  0  0  0  0  0  0  0  0  0  0
  139.6406   67.9264  226.1125 H   0  0  0  0  0  0  0  0  0  0  0  0
  141.4579   71.1226  228.3774 H   0  0  0  0  0  0  0  0  0  0  0  0
  141.2966   72.6136  226.3652 H   0  0  0  0  0  0  0  0  0  0  0  0
  1  2  2  0
  2  3  1  0
  3  4  1  0
  4  5  1  0
  5  6  2  0
  5  7  1  0
  7  8  1  0
  8  9  1  0
  9 10  1  0
 10 11  1  0
 11 12  1  0
 12 13  1  0
 13 14  1  0
 14 15  1  0
 15 16  1  0
 16 17  1  0
  2 18  1  0
 18 19  2  0
 19 20  1  0
 20 21  2  0
 21 22  1  0
 22 23  2  0
 23 24  1  0
 23 25  1  0
 25 26  2  0
 26 27  1  0
 27 28  2  0
 11  7  1  0
 17 12  1  0
 28 18  1  0
 27 21  1  0
  3 29  1  0
  4 30  1  0
  4 31  1  0
  8 32  1  0
  8 33  1  0
  9 34  1  0
  9 35  1  0
 10 36  1  0
 10 37  1  0
 11 38  1  6
 12 39  1  0
 13 40  1  0
 13 41  1  0
 14 42  1  0
 14 43  1  0
 15 44  1  0
 16 45  1  0
 16 46  1  0
 17 47  1  0
 17 48  1  0
 19 49  1  0
 20 50  1  0
 22 51  1  0
 25 52  1  0
 26 53  1  0
M  END
>  <smiles>  (35) 
O=C(NCC(=O)N1CCCC1C1CCNCC1)c1ccc2cc(Cl)ccc2n1

>  <score_type>  (35) 
oracle

>  <origin>  (35) 
autodockgpu

>  <m_score__min__energy>  (35) 
-9.0099999999999998

>  <m_primary>  (35) 
energy

>  <rmsd>  (35) 
2.063356785850158

>  <m_score__min__rmsd>  (35) 
2.063356785850158

>  <meeko>  (35) 
{"free_energy": -8.39, "intermolecular_energy": -9.88, "internal_energy": -1.94, "cluster_size": 26, "cluster_id": 2, "rank_in_cluster": 19}

>  <energy>  (35) 
-8.43

>  <cluster_rmsd>  (35) 
1.09

>  <cluster>  (35) 
2

$$$$

     RDKit          3D

 53 56  0  0  0  0  0  0  0  0999 V2000
  140.6850   72.0920  220.6530 O   0  0  0  0  0  0  0  0  0  0  0  0
  140.2680   72.5480  221.7450 C   0  0  0  0  0  0  0  0  0  0  0  0
  139.8940   73.8890  221.9670 N   0  0  0  0  0  0  0  0  0  0  0  0
  139.9720   74.8610  220.8960 C   0  0  0  0  0  0  0  0  0  0  0  0
  139.9920   76.2160  221.5120 C   0  0  0  0  0  0  0  0  0  0  0  0
  139.5330   76.3040  222.6810 O   0  0  0  0  0  0  0  0  0  0  0  0
  140.5100   77.3610  220.8060 N   0  0  0  0  0  0  0  0  0  0  0  0
  141.1300   77.2140  219.4930 C   0  0  0  0  0  0  0  0  0  0  0  0
  141.5130   78.6570  219.1350 C   0  0  0  0  0  0  0  0  0  0  0  0
  141.6780   79.3230  220.5120 C   0  0  0  0  0  0  0  0  0  0  0  0
  140.5070   78.7430  221.2240 C   0  0  2  0  0  0  0  0  0  0  0  0
  140.5260   78.9520  222.7100 C   0  0  0  0  0  0  0  0  0  0  0  0
  139.9310   80.3090  222.9930 C   0  0  0  0  0  0  0  0  0  0  0  0
  140.8830   81.4320  223.1070 C   0  0  0  0  0  0  0  0  0  0  0  0
  142.2420   81.1440  223.3180 N   0  0  0  0  0  0  0  0  0  0  0  0
  142.5790   79.8940  223.8590 C   0  0  0  0  0  0  0  0  0  0  0  0
  141.8200   78.7020  223.3840 C   0  0  0  0  0  0  0  0  0  0  0  0
  140.1630   71.6140  222.8760 C   0  0  0  0  0  0  0  0  0  0  0  0
  139.5660   70.3720  222.7420 C   0  0  0  0  0  0  0  0  0  0  0  0
  139.4670   69.4870  223.8200 C   0  0  0  0  0  0  0  0  0  0  0  0
  139.9800   69.8740  225.0370 C   0  0  0  0  0  0  0  0  0  0  0  0
  139.9320   69.0670  226.1670 C   0  0  0  0  0  0  0  0  0  0  0  0
  140.4720   69.5240  227.3670 C   0  0  0  0  0  0  0  0  0  0  0  0
  140.4070   68.5090  228.7770 Cl  0  0  0  0  0  0  0  0  0  0  0  0
  141.0620   70.7640  227.4770 C   0  0  0  0  0  0  0  0  0  0  0  0
  141.1130   71.5750  226.3500 C   0  0  0  0  0  0  0  0  0  0  0  0
  140.5740   71.1120  225.1640 C   0  0  0  0  0  0  0  0  0  0  0  0
  140.6420   71.9180  224.1020 N   0  0  0  0  0  0  0  0  0  0  0  0
  139.5530   74.1900  222.9230 H   0  0  0  0  0  0  0  0  0  0  0  0
  140.8906   74.7017  220.3122 H   0  0  0  0  0  0  0  0  0  0  0  0
  139.1098   74.7586  220.2206 H   0  0  0  0  0  0  0  0  0  0  0  0
  142.0196   76.5690  219.5447 H   0  0  0  0  0  0  0  0  0  0  0  0
  140.4707   76.7411  218.7502 H   0  0  0  0  0  0  0  0  0  0  0  0
  142.4540   78.6867  218.5661 H   0  0  0  0  0  0  0  0  0  0  0  0
  140.7691   79.1575  218.4977 H   0  0  0  0  0  0  0  0  0  0  0  0
  142.6273   79.0405  220.9906 H   0  0  0  0  0  0  0  0  0  0  0  0
  141.7097   80.4224  220.4932 H   0  0  0  0  0  0  0  0  0  0  0  0
  139.5645   79.2464  220.9627 H   0  0  0  0  0  0  0  0  0  0  0  0
  139.9068   78.1680  223.1704 H   0  0  0  0  0  0  0  0  0  0  0  0
  139.2316   80.5446  222.1773 H   0  0  0  0  0  0  0  0  0  0  0  0
  139.4618   80.2216  223.9841 H   0  0  0  0  0  0  0  0  0  0  0  0
  140.8154   82.0102  222.1736 H   0  0  0  0  0  0  0  0  0  0  0  0
  140.5740   81.9528  224.0253 H   0  0  0  0  0  0  0  0  0  0  0  0
  142.9510   81.6780  222.8190 H   0  0  0  0  0  0  0  0  0  0  0  0
  143.6415   79.7161  223.6364 H   0  0  0  0  0  0  0  0  0  0  0  0
  142.3241   79.9768  224.9258 H   0  0  0  0  0  0  0  0  0  0  0  0
  142.4636   78.1600  222.6755 H   0  0  0  0  0  0  0  0  0  0  0  0
  141.5627   78.1456  224.2973 H   0  0  0  0  0  0  0  0  0  0  0  0
  139.1598   70.0743  221.7640 H   0  0  0  0  0  0  0  0  0  0  0  0
  138.9898   68.5034  223.6981 H   0  0  0  0  0  0  0  0  0  0  0  0
  139.4691   68.0705  226.1142 H   0  0  0  0  0  0  0  0  0  0  0  0
  141.4829   71.1041  228.4347 H   0  0  0  0  0  0  0  0  0  0  0  0
  141.5758   72.5716  226.4007 H   0  0  0  0  0  0  0  0  0  0  0  0
  1  2  2  0
  2  3  1  0
  3  4  1  0
  4  5  1  0
  5  6  2  0
  5  7  1  0
  7  8  1  0
  8  9  1  0
  9 10  1  0
 10 11  1  0
 11 12  1  0
 12 13  1  0
 13 14  1  0
 14 15  1  0
 15 16  1  0
 16 17  1  0
  2 18  1  0
 18 19  2  0
 19 20  1  0
 20 21  2  0
 21 22  1  0
 22 23  2  0
 23 24  1  0
 23 25  1  0
 25 26  2  0
 26 27  1  0
 27 28  2  0
 11  7  1  0
 17 12  1  0
 28 18  1  0
 27 21  1  0
  3 29  1  0
  4 30  1  0
  4 31  1  0
  8 32  1  0
  8 33  1  0
  9 34  1  0
  9 35  1  0
 10 36  1  0
 10 37  1  0
 11 38  1  6
 12 39  1  0
 13 40  1  0
 13 41  1  0
 14 42  1  0
 14 43  1  0
 15 44  1  0
 16 45  1  0
 16 46  1  0
 17 47  1  0
 17 48  1  0
 19 49  1  0
 20 50  1  0
 22 51  1  0
 25 52  1  0
 26 53  1  0
M  END
>  <smiles>  (36) 
O=C(NCC(=O)N1CCCC1C1CCNCC1)c1ccc2cc(Cl)ccc2n1

>  <score_type>  (36) 
oracle

>  <origin>  (36) 
autodockgpu

>  <m_score__min__energy>  (36) 
-9.0099999999999998

>  <m_primary>  (36) 
energy

>  <rmsd>  (36) 
2.2518672428676543

>  <m_score__min__rmsd>  (36) 
2.2518672428676543

>  <meeko>  (36) 
{"free_energy": -8.43, "intermolecular_energy": -9.92, "internal_energy": -1.86, "cluster_size": 26, "cluster_id": 2, "rank_in_cluster": 16}

>  <energy>  (36) 
-8.42

>  <cluster_rmsd>  (36) 
1.06

>  <cluster>  (36) 
2

$$$$

     RDKit          3D

 53 56  0  0  0  0  0  0  0  0999 V2000
  140.4010   74.0950  222.2270 O   0  0  0  0  0  0  0  0  0  0  0  0
  139.9260   72.9640  221.9650 C   0  0  0  0  0  0  0  0  0  0  0  0
  139.3620   72.5950  220.7260 N   0  0  0  0  0  0  0  0  0  0  0  0
  139.2980   73.5450  219.6350 C   0  0  0  0  0  0  0  0  0  0  0  0
  140.6430   73.6010  218.9990 C   0  0  0  0  0  0  0  0  0  0  0  0
  140.8780   72.7310  218.1190 O   0  0  0  0  0  0  0  0  0  0  0  0
  141.6170   74.5950  219.3720 N   0  0  0  0  0  0  0  0  0  0  0  0
  141.4150   76.0020  219.0410 C   0  0  0  0  0  0  0  0  0  0  0  0
  142.6680   76.6700  219.6260 C   0  0  0  0  0  0  0  0  0  0  0  0
  143.7040   75.5350  219.6120 C   0  0  0  0  0  0  0  0  0  0  0  0
  142.8590   74.4040  220.0820 C   0  0  2  0  0  0  0  0  0  0  0  0
  143.4850   73.0520  219.9050 C   0  0  0  0  0  0  0  0  0  0  0  0
  144.6380   72.9460  220.8730 C   0  0  0  0  0  0  0  0  0  0  0  0
  145.9680   73.3190  220.3520 C   0  0  0  0  0  0  0  0  0  0  0  0
  146.1530   73.3820  218.9610 N   0  0  0  0  0  0  0  0  0  0  0  0
  145.2640   72.6710  218.1400 C   0  0  0  0  0  0  0  0  0  0  0  0
  143.8210   72.6700  218.5140 C   0  0  0  0  0  0  0  0  0  0  0  0
  139.9600   71.9490  223.0280 C   0  0  0  0  0  0  0  0  0  0  0  0
  139.5110   70.6560  222.8140 C   0  0  0  0  0  0  0  0  0  0  0  0
  139.5430   69.6930  223.8280 C   0  0  0  0  0  0  0  0  0  0  0  0
  140.0360   70.0540  225.0610 C   0  0  0  0  0  0  0  0  0  0  0  0
  140.1110   69.1710  226.1310 C   0  0  0  0  0  0  0  0  0  0  0  0
  140.6210   69.6050  227.3530 C   0  0  0  0  0  0  0  0  0  0  0  0
  140.7100   68.4940  228.6860 Cl  0  0  0  0  0  0  0  0  0  0  0  0
  141.0620   70.8960  227.5420 C   0  0  0  0  0  0  0  0  0  0  0  0
  140.9900   71.7830  226.4750 C   0  0  0  0  0  0  0  0  0  0  0  0
  140.4820   71.3430  225.2670 C   0  0  0  0  0  0  0  0  0  0  0  0
  140.4280   72.2220  224.2640 N   0  0  0  0  0  0  0  0  0  0  0  0
  138.9820   71.6160  220.5900 H   0  0  0  0  0  0  0  0  0  0  0  0
  138.5493   73.2185  218.8983 H   0  0  0  0  0  0  0  0  0  0  0  0
  139.0083   74.5385  220.0079 H   0  0  0  0  0  0  0  0  0  0  0  0
  141.3587   76.1492  217.9524 H   0  0  0  0  0  0  0  0  0  0  0  0
  140.4753   76.4132  219.4384 H   0  0  0  0  0  0  0  0  0  0  0  0
  142.9960   77.5123  218.9992 H   0  0  0  0  0  0  0  0  0  0  0  0
  142.5048   77.0953  220.6272 H   0  0  0  0  0  0  0  0  0  0  0  0
  144.0992   75.3561  218.6011 H   0  0  0  0  0  0  0  0  0  0  0  0
  144.6033   75.7226  220.2171 H   0  0  0  0  0  0  0  0  0  0  0  0
  142.7123   74.4142  221.1721 H   0  0  0  0  0  0  0  0  0  0  0  0
  142.7252   72.2931  220.1431 H   0  0  0  0  0  0  0  0  0  0  0  0
  144.4179   73.6010  221.7289 H   0  0  0  0  0  0  0  0  0  0  0  0
  144.7115   71.8777  221.1246 H   0  0  0  0  0  0  0  0  0  0  0  0
  146.2069   74.3138  220.7560 H   0  0  0  0  0  0  0  0  0  0  0  0
  146.6217   72.4941  220.6718 H   0  0  0  0  0  0  0  0  0  0  0  0
  146.6990   74.1420  218.5610 H   0  0  0  0  0  0  0  0  0  0  0  0
  145.3403   73.0963  217.1284 H   0  0  0  0  0  0  0  0  0  0  0  0
  145.5761   71.6208  218.2386 H   0  0  0  0  0  0  0  0  0  0  0  0
  143.3042   73.3722  217.8433 H   0  0  0  0  0  0  0  0  0  0  0  0
  143.5036   71.6208  218.4221 H   0  0  0  0  0  0  0  0  0  0  0  0
  139.1202   70.3802  221.8235 H   0  0  0  0  0  0  0  0  0  0  0  0
  139.1822   68.6703  223.6440 H   0  0  0  0  0  0  0  0  0  0  0  0
  139.7687   68.1322  226.0139 H   0  0  0  0  0  0  0  0  0  0  0  0
  141.4619   71.2174  228.5150 H   0  0  0  0  0  0  0  0  0  0  0  0
  141.3328   72.8219  226.5900 H   0  0  0  0  0  0  0  0  0  0  0  0
  1  2  2  0
  2  3  1  0
  3  4  1  0
  4  5  1  0
  5  6  2  0
  5  7  1  0
  7  8  1  0
  8  9  1  0
  9 10  1  0
 10 11  1  0
 11 12  1  0
 12 13  1  0
 13 14  1  0
 14 15  1  0
 15 16  1  0
 16 17  1  0
  2 18  1  0
 18 19  2  0
 19 20  1  0
 20 21  2  0
 21 22  1  0
 22 23  2  0
 23 24  1  0
 23 25  1  0
 25 26  2  0
 26 27  1  0
 27 28  2  0
 11  7  1  0
 17 12  1  0
 28 18  1  0
 27 21  1  0
  3 29  1  0
  4 30  1  0
  4 31  1  0
  8 32  1  0
  8 33  1  0
  9 34  1  0
  9 35  1  0
 10 36  1  0
 10 37  1  0
 11 38  1  1
 12 39  1  0
 13 40  1  0
 13 41  1  0
 14 42  1  0
 14 43  1  0
 15 44  1  0
 16 45  1  0
 16 46  1  0
 17 47  1  0
 17 48  1  0
 19 49  1  0
 20 50  1  0
 22 51  1  0
 25 52  1  0
 26 53  1  0
M  END
>  <smiles>  (37) 
O=C(NCC(=O)N1CCCC1C1CCNCC1)c1ccc2cc(Cl)ccc2n1

>  <score_type>  (37) 
oracle

>  <origin>  (37) 
autodockgpu

>  <m_score__min__energy>  (37) 
-9.0099999999999998

>  <m_primary>  (37) 
energy

>  <rmsd>  (37) 
2.530916928376715

>  <m_score__min__rmsd>  (37) 
2.530916928376715

>  <meeko>  (37) 
{"free_energy": -8.68, "intermolecular_energy": -10.17, "internal_energy": -1.61, "cluster_size": 19, "cluster_id": 1, "rank_in_cluster": 10}

>  <energy>  (37) 
-8.41

>  <cluster_rmsd>  (37) 
1.08

>  <cluster>  (37) 
2

$$$$

     RDKit          3D

 53 56  0  0  0  0  0  0  0  0999 V2000
  140.4270   71.8880  220.4850 O   0  0  0  0  0  0  0  0  0  0  0  0
  140.1820   72.3930  221.6060 C   0  0  0  0  0  0  0  0  0  0  0  0
  139.9760   73.7680  221.8420 N   0  0  0  0  0  0  0  0  0  0  0  0
  140.0370   74.7180  220.7500 C   0  0  0  0  0  0  0  0  0  0  0  0
  141.0610   75.7430  221.0960 C   0  0  0  0  0  0  0  0  0  0  0  0
  141.0700   76.1400  222.2900 O   0  0  0  0  0  0  0  0  0  0  0  0
  141.9870   76.2490  220.1140 N   0  0  0  0  0  0  0  0  0  0  0  0
  141.7050   77.4810  219.3830 C   0  0  0  0  0  0  0  0  0  0  0  0
  142.9370   77.6280  218.4800 C   0  0  0  0  0  0  0  0  0  0  0  0
  143.4210   76.1780  218.3150 C   0  0  0  0  0  0  0  0  0  0  0  0
  143.2540   75.6880  219.7100 C   0  0  2  0  0  0  0  0  0  0  0  0
  143.3580   74.1970  219.8550 C   0  0  0  0  0  0  0  0  0  0  0  0
  144.4610   73.9050  220.8410 C   0  0  0  0  0  0  0  0  0  0  0  0
  145.8010   73.6600  220.2730 C   0  0  0  0  0  0  0  0  0  0  0  0
  145.9070   73.3480  218.9070 N   0  0  0  0  0  0  0  0  0  0  0  0
  144.7750   72.8370  218.2530 C   0  0  0  0  0  0  0  0  0  0  0  0
  143.4490   73.4280  218.5930 C   0  0  0  0  0  0  0  0  0  0  0  0
  140.1040   71.4850  222.7600 C   0  0  0  0  0  0  0  0  0  0  0  0
  139.5530   70.2190  222.6540 C   0  0  0  0  0  0  0  0  0  0  0  0
  139.4810   69.3580  223.7540 C   0  0  0  0  0  0  0  0  0  0  0  0
  139.9720   69.7930  224.9630 C   0  0  0  0  0  0  0  0  0  0  0  0
  139.9470   69.0140  226.1120 C   0  0  0  0  0  0  0  0  0  0  0  0
  140.4630   69.5190  227.3030 C   0  0  0  0  0  0  0  0  0  0  0  0
  140.4270   68.5370  228.7370 Cl  0  0  0  0  0  0  0  0  0  0  0  0
  141.0070   70.7820  227.3850 C   0  0  0  0  0  0  0  0  0  0  0  0
  141.0350   71.5660  226.2380 C   0  0  0  0  0  0  0  0  0  0  0  0
  140.5200   71.0550  225.0610 C   0  0  0  0  0  0  0  0  0  0  0  0
  140.5650   71.8360  223.9800 N   0  0  0  0  0  0  0  0  0  0  0  0
  139.7750   74.1120  222.8230 H   0  0  0  0  0  0  0  0  0  0  0  0
  140.3222   74.2027  219.8210 H   0  0  0  0  0  0  0  0  0  0  0  0
  139.0559   75.1911  220.5965 H   0  0  0  0  0  0  0  0  0  0  0  0
  140.7854   77.3867  218.7868 H   0  0  0  0  0  0  0  0  0  0  0  0
  141.5385   78.3487  220.0383 H   0  0  0  0  0  0  0  0  0  0  0  0
  142.6650   78.0668  217.5087 H   0  0  0  0  0  0  0  0  0  0  0  0
  143.7041   78.2956  218.8992 H   0  0  0  0  0  0  0  0  0  0  0  0
  142.7934   75.6164  217.6074 H   0  0  0  0  0  0  0  0  0  0  0  0
  144.4368   76.0729  217.9061 H   0  0  0  0  0  0  0  0  0  0  0  0
  144.0727   76.0113  220.3697 H   0  0  0  0  0  0  0  0  0  0  0  0
  142.3991   73.8261  220.2460 H   0  0  0  0  0  0  0  0  0  0  0  0
  144.5382   74.7658  221.5214 H   0  0  0  0  0  0  0  0  0  0  0  0
  144.1740   72.9623  221.3298 H   0  0  0  0  0  0  0  0  0  0  0  0
  146.3969   74.5685  220.4450 H   0  0  0  0  0  0  0  0  0  0  0  0
  146.1453   72.7484  220.7832 H   0  0  0  0  0  0  0  0  0  0  0  0
  146.6560   73.7600  218.3540 H   0  0  0  0  0  0  0  0  0  0  0  0
  144.9292   72.9769  217.1729 H   0  0  0  0  0  0  0  0  0  0  0  0
  144.7076   71.7927  218.5918 H   0  0  0  0  0  0  0  0  0  0  0  0
  143.1668   74.1035  217.7720 H   0  0  0  0  0  0  0  0  0  0  0  0
  142.7809   72.5659  218.7357 H   0  0  0  0  0  0  0  0  0  0  0  0
  139.1628   69.8826  221.6821 H   0  0  0  0  0  0  0  0  0  0  0  0
  139.0412   68.3547  223.6544 H   0  0  0  0  0  0  0  0  0  0  0  0
  139.5207   68.0004  226.0817 H   0  0  0  0  0  0  0  0  0  0  0  0
  141.4097   71.1609  228.3359 H   0  0  0  0  0  0  0  0  0  0  0  0
  141.4612   72.5797  226.2661 H   0  0  0  0  0  0  0  0  0  0  0  0
  1  2  2  0
  2  3  1  0
  3  4  1  0
  4  5  1  0
  5  6  2  0
  5  7  1  0
  7  8  1  0
  8  9  1  0
  9 10  1  0
 10 11  1  0
 11 12  1  0
 12 13  1  0
 13 14  1  0
 14 15  1  0
 15 16  1  0
 16 17  1  0
  2 18  1  0
 18 19  2  0
 19 20  1  0
 20 21  2  0
 21 22  1  0
 22 23  2  0
 23 24  1  0
 23 25  1  0
 25 26  2  0
 26 27  1  0
 27 28  2  0
 11  7  1  0
 17 12  1  0
 28 18  1  0
 27 21  1  0
  3 29  1  0
  4 30  1  0
  4 31  1  0
  8 32  1  0
  8 33  1  0
  9 34  1  0
  9 35  1  0
 10 36  1  0
 10 37  1  0
 11 38  1  1
 12 39  1  0
 13 40  1  0
 13 41  1  0
 14 42  1  0
 14 43  1  0
 15 44  1  0
 16 45  1  0
 16 46  1  0
 17 47  1  0
 17 48  1  0
 19 49  1  0
 20 50  1  0
 22 51  1  0
 25 52  1  0
 26 53  1  0
M  END
>  <smiles>  (38) 
O=C(NCC(=O)N1CCCC1C1CCNCC1)c1ccc2cc(Cl)ccc2n1

>  <score_type>  (38) 
oracle

>  <origin>  (38) 
autodockgpu

>  <m_score__min__energy>  (38) 
-9.0099999999999998

>  <m_primary>  (38) 
energy

>  <rmsd>  (38) 
2.256990742674477

>  <m_score__min__rmsd>  (38) 
2.256990742674477

>  <meeko>  (38) 
{"free_energy": -8.76, "intermolecular_energy": -10.25, "internal_energy": -1.97, "cluster_size": 19, "cluster_id": 1, "rank_in_cluster": 8}

>  <energy>  (38) 
-8.39

>  <cluster_rmsd>  (38) 
1.17

>  <cluster>  (38) 
2

$$$$

     RDKit          3D

 53 56  0  0  0  0  0  0  0  0999 V2000
  138.8540   71.8250  220.8050 O   0  0  0  0  0  0  0  0  0  0  0  0
  139.5410   72.1820  221.7920 C   0  0  0  0  0  0  0  0  0  0  0  0
  140.2290   73.4090  221.8920 N   0  0  0  0  0  0  0  0  0  0  0  0
  140.1770   74.3710  220.8110 C   0  0  0  0  0  0  0  0  0  0  0  0
  141.0990   75.4890  221.1510 C   0  0  0  0  0  0  0  0  0  0  0  0
  141.0580   75.9020  222.3390 O   0  0  0  0  0  0  0  0  0  0  0  0
  141.9880   76.0640  220.1720 N   0  0  0  0  0  0  0  0  0  0  0  0
  141.6460   77.3070  219.4890 C   0  0  0  0  0  0  0  0  0  0  0  0
  142.8560   77.5320  218.5700 C   0  0  0  0  0  0  0  0  0  0  0  0
  143.3910   76.1080  218.3490 C   0  0  0  0  0  0  0  0  0  0  0  0
  143.2680   75.5650  219.7280 C   0  0  2  0  0  0  0  0  0  0  0  0
  143.4310   74.0760  219.8210 C   0  0  0  0  0  0  0  0  0  0  0  0
  144.4890   73.7910  220.8580 C   0  0  0  0  0  0  0  0  0  0  0  0
  145.8690   73.6280  220.3600 C   0  0  0  0  0  0  0  0  0  0  0  0
  146.0660   73.3780  218.9910 N   0  0  0  0  0  0  0  0  0  0  0  0
  144.9970   72.8460  218.2530 C   0  0  0  0  0  0  0  0  0  0  0  0
  143.6290   73.3640  218.5370 C   0  0  0  0  0  0  0  0  0  0  0  0
  139.6370   71.2520  222.9270 C   0  0  0  0  0  0  0  0  0  0  0  0
  139.1250   69.9670  222.8600 C   0  0  0  0  0  0  0  0  0  0  0  0
  139.2170   69.0860  223.9420 C   0  0  0  0  0  0  0  0  0  0  0  0
  139.8330   69.5200  225.0930 C   0  0  0  0  0  0  0  0  0  0  0  0
  139.9750   68.7210  226.2200 C   0  0  0  0  0  0  0  0  0  0  0  0
  140.6110   69.2270  227.3520 C   0  0  0  0  0  0  0  0  0  0  0  0
  140.7840   68.2210  228.7590 Cl  0  0  0  0  0  0  0  0  0  0  0  0
  141.1130   70.5090  227.3960 C   0  0  0  0  0  0  0  0  0  0  0  0
  140.9740   71.3120  226.2700 C   0  0  0  0  0  0  0  0  0  0  0  0
  140.3420   70.8010  225.1530 C   0  0  0  0  0  0  0  0  0  0  0  0
  140.2270   71.6010  224.0910 N   0  0  0  0  0  0  0  0  0  0  0  0
  140.7890   73.6310  222.7620 H   0  0  0  0  0  0  0  0  0  0  0  0
  140.4959   73.8957  219.8716 H   0  0  0  0  0  0  0  0  0  0  0  0
  139.1512   74.7458  220.6797 H   0  0  0  0  0  0  0  0  0  0  0  0
  140.7200   77.1971  218.9056 H   0  0  0  0  0  0  0  0  0  0  0  0
  141.4584   78.1451  220.1763 H   0  0  0  0  0  0  0  0  0  0  0  0
  142.5500   77.9916  217.6186 H   0  0  0  0  0  0  0  0  0  0  0  0
  143.6046   78.2150  218.9979 H   0  0  0  0  0  0  0  0  0  0  0  0
  142.7725   75.5467  217.6332 H   0  0  0  0  0  0  0  0  0  0  0  0
  144.4029   76.0561  217.9207 H   0  0  0  0  0  0  0  0  0  0  0  0
  144.0862   75.8962  220.3844 H   0  0  0  0  0  0  0  0  0  0  0  0
  142.4691   73.6487  220.1405 H   0  0  0  0  0  0  0  0  0  0  0  0
  144.4883   74.6253  221.5749 H   0  0  0  0  0  0  0  0  0  0  0  0
  144.2180   72.8172  221.2920 H   0  0  0  0  0  0  0  0  0  0  0  0
  146.4122   74.5534  220.6019 H   0  0  0  0  0  0  0  0  0  0  0  0
  146.2253   72.7117  220.8535 H   0  0  0  0  0  0  0  0  0  0  0  0
  146.8260   73.8450  218.5000 H   0  0  0  0  0  0  0  0  0  0  0  0
  145.2056   73.0367  217.1899 H   0  0  0  0  0  0  0  0  0  0  0  0
  144.9580   71.7868  218.5473 H   0  0  0  0  0  0  0  0  0  0  0  0
  143.3633   74.0599  217.7276 H   0  0  0  0  0  0  0  0  0  0  0  0
  142.9940   72.4685  218.6068 H   0  0  0  0  0  0  0  0  0  0  0  0
  138.6346   69.6316  221.9342 H   0  0  0  0  0  0  0  0  0  0  0  0
  138.8057   68.0680  223.8743 H   0  0  0  0  0  0  0  0  0  0  0  0
  139.5866   67.6918  226.2191 H   0  0  0  0  0  0  0  0  0  0  0  0
  141.6118   70.8880  228.3002 H   0  0  0  0  0  0  0  0  0  0  0  0
  141.3623   72.3412  226.2684 H   0  0  0  0  0  0  0  0  0  0  0  0
  1  2  2  0
  2  3  1  0
  3  4  1  0
  4  5  1  0
  5  6  2  0
  5  7  1  0
  7  8  1  0
  8  9  1  0
  9 10  1  0
 10 11  1  0
 11 12  1  0
 12 13  1  0
 13 14  1  0
 14 15  1  0
 15 16  1  0
 16 17  1  0
  2 18  1  0
 18 19  2  0
 19 20  1  0
 20 21  2  0
 21 22  1  0
 22 23  2  0
 23 24  1  0
 23 25  1  0
 25 26  2  0
 26 27  1  0
 27 28  2  0
 11  7  1  0
 17 12  1  0
 28 18  1  0
 27 21  1  0
  3 29  1  0
  4 30  1  0
  4 31  1  0
  8 32  1  0
  8 33  1  0
  9 34  1  0
  9 35  1  0
 10 36  1  0
 10 37  1  0
 11 38  1  1
 12 39  1  0
 13 40  1  0
 13 41  1  0
 14 42  1  0
 14 43  1  0
 15 44  1  0
 16 45  1  0
 16 46  1  0
 17 47  1  0
 17 48  1  0
 19 49  1  0
 20 50  1  0
 22 51  1  0
 25 52  1  0
 26 53  1  0
M  END
>  <smiles>  (39) 
O=C(NCC(=O)N1CCCC1C1CCNCC1)c1ccc2cc(Cl)ccc2n1

>  <score_type>  (39) 
oracle

>  <origin>  (39) 
autodockgpu

>  <m_score__min__energy>  (39) 
-9.0099999999999998

>  <m_primary>  (39) 
energy

>  <rmsd>  (39) 
2.174618126739472

>  <m_score__min__rmsd>  (39) 
2.174618126739472

>  <meeko>  (39) 
{"free_energy": -8.5, "intermolecular_energy": -9.99, "internal_energy": -2.06, "cluster_size": 19, "cluster_id": 1, "rank_in_cluster": 12}

>  <energy>  (39) 
-8.18

>  <cluster_rmsd>  (39) 
1.23

>  <cluster>  (39) 
2

$$$$

     RDKit          3D

 53 56  0  0  0  0  0  0  0  0999 V2000
  139.9460   72.0660  220.6110 O   0  0  0  0  0  0  0  0  0  0  0  0
  139.8100   72.5280  221.7690 C   0  0  0  0  0  0  0  0  0  0  0  0
  139.6280   73.8920  222.0750 N   0  0  0  0  0  0  0  0  0  0  0  0
  139.5840   74.8830  221.0200 C   0  0  0  0  0  0  0  0  0  0  0  0
  140.0160   76.1850  221.5990 C   0  0  0  0  0  0  0  0  0  0  0  0
  139.9500   76.2860  222.8520 O   0  0  0  0  0  0  0  0  0  0  0  0
  140.4840   77.2660  220.7680 N   0  0  0  0  0  0  0  0  0  0  0  0
  140.6900   77.0740  219.3350 C   0  0  0  0  0  0  0  0  0  0  0  0
  141.1690   78.4580  218.8740 C   0  0  0  0  0  0  0  0  0  0  0  0
  141.8030   79.0470  220.1460 C   0  0  0  0  0  0  0  0  0  0  0  0
  140.8000   78.6190  221.1580 C   0  0  2  0  0  0  0  0  0  0  0  0
  141.2570   78.7740  222.5800 C   0  0  0  0  0  0  0  0  0  0  0  0
  140.1380   79.4230  223.3570 C   0  0  0  0  0  0  0  0  0  0  0  0
  140.1900   80.8930  223.4770 C   0  0  0  0  0  0  0  0  0  0  0  0
  141.4040   81.5490  223.2100 N   0  0  0  0  0  0  0  0  0  0  0  0
  142.5910   80.8060  223.2960 C   0  0  0  0  0  0  0  0  0  0  0  0
  142.5800   79.4110  222.7700 C   0  0  0  0  0  0  0  0  0  0  0  0
  139.8440   71.5770  222.8900 C   0  0  0  0  0  0  0  0  0  0  0  0
  139.3510   70.2880  222.7660 C   0  0  0  0  0  0  0  0  0  0  0  0
  139.3840   69.3860  223.8340 C   0  0  0  0  0  0  0  0  0  0  0  0
  139.9230   69.8030  225.0300 C   0  0  0  0  0  0  0  0  0  0  0  0
  140.0020   68.9830  226.1480 C   0  0  0  0  0  0  0  0  0  0  0  0
  140.5600   69.4720  227.3270 C   0  0  0  0  0  0  0  0  0  0  0  0
  140.6550   68.4390  228.7220 Cl  0  0  0  0  0  0  0  0  0  0  0  0
  141.0440   70.7580  227.4270 C   0  0  0  0  0  0  0  0  0  0  0  0
  140.9680   71.5820  226.3120 C   0  0  0  0  0  0  0  0  0  0  0  0
  140.4120   71.0870  225.1460 C   0  0  0  0  0  0  0  0  0  0  0  0
  140.3560   71.9070  224.0950 N   0  0  0  0  0  0  0  0  0  0  0  0
  139.5230   74.1980  223.0830 H   0  0  0  0  0  0  0  0  0  0  0  0
  140.2633   74.5922  220.2051 H   0  0  0  0  0  0  0  0  0  0  0  0
  138.5659   74.9636  220.6113 H   0  0  0  0  0  0  0  0  0  0  0  0
  141.4538   76.3059  219.1436 H   0  0  0  0  0  0  0  0  0  0  0  0
  139.7897   76.7258  218.8075 H   0  0  0  0  0  0  0  0  0  0  0  0
  141.9109   78.3707  218.0666 H   0  0  0  0  0  0  0  0  0  0  0  0
  140.3610   79.0817  218.4640 H   0  0  0  0  0  0  0  0  0  0  0  0
  142.7944   78.6143  220.3457 H   0  0  0  0  0  0  0  0  0  0  0  0
  141.9913   80.1302  220.1104 H   0  0  0  0  0  0  0  0  0  0  0  0
  139.9072   79.2616  221.1622 H   0  0  0  0  0  0  0  0  0  0  0  0
  141.4589   77.7704  222.9826 H   0  0  0  0  0  0  0  0  0  0  0  0
  139.1910   79.1607  222.8625 H   0  0  0  0  0  0  0  0  0  0  0  0
  140.2358   79.0420  224.3843 H   0  0  0  0  0  0  0  0  0  0  0  0
  139.4415   81.3014  222.7820 H   0  0  0  0  0  0  0  0  0  0  0  0
  140.0146   81.0802  224.5467 H   0  0  0  0  0  0  0  0  0  0  0  0
  141.3990   82.4200  222.6830 H   0  0  0  0  0  0  0  0  0  0  0  0
  143.3644   81.3588  222.7426 H   0  0  0  0  0  0  0  0  0  0  0  0
  142.7680   80.6925  224.3757 H   0  0  0  0  0  0  0  0  0  0  0  0
  143.0868   79.4206  221.7938 H   0  0  0  0  0  0  0  0  0  0  0  0
  143.0775   78.8098  223.5453 H   0  0  0  0  0  0  0  0  0  0  0  0
  138.9236   69.9667  221.8047 H   0  0  0  0  0  0  0  0  0  0  0  0
  138.9881   68.3660  223.7209 H   0  0  0  0  0  0  0  0  0  0  0  0
  139.6251   67.9506  226.1027 H   0  0  0  0  0  0  0  0  0  0  0  0
  141.4805   71.1235  228.3682 H   0  0  0  0  0  0  0  0  0  0  0  0
  141.3448   72.6145  226.3553 H   0  0  0  0  0  0  0  0  0  0  0  0
  1  2  2  0
  2  3  1  0
  3  4  1  0
  4  5  1  0
  5  6  2  0
  5  7  1  0
  7  8  1  0
  8  9  1  0
  9 10  1  0
 10 11  1  0
 11 12  1  0
 12 13  1  0
 13 14  1  0
 14 15  1  0
 15 16  1  0
 16 17  1  0
  2 18  1  0
 18 19  2  0
 19 20  1  0
 20 21  2  0
 21 22  1  0
 22 23  2  0
 23 24  1  0
 23 25  1  0
 25 26  2  0
 26 27  1  0
 27 28  2  0
 11  7  1  0
 17 12  1  0
 28 18  1  0
 27 21  1  0
  3 29  1  0
  4 30  1  0
  4 31  1  0
  8 32  1  0
  8 33  1  0
  9 34  1  0
  9 35  1  0
 10 36  1  0
 10 37  1  0
 11 38  1  1
 12 39  1  0
 13 40  1  0
 13 41  1  0
 14 42  1  0
 14 43  1  0
 15 44  1  0
 16 45  1  0
 16 46  1  0
 17 47  1  0
 17 48  1  0
 19 49  1  0
 20 50  1  0
 22 51  1  0
 25 52  1  0
 26 53  1  0
M  END
>  <smiles>  (40) 
O=C(NCC(=O)N1CCCC1C1CCNCC1)c1ccc2cc(Cl)ccc2n1

>  <score_type>  (40) 
oracle

>  <origin>  (40) 
autodockgpu

>  <m_score__min__energy>  (40) 
-9.0099999999999998

>  <m_primary>  (40) 
energy

>  <rmsd>  (40) 
1.9784799662554955

>  <m_score__min__rmsd>  (40) 
1.9784799662554955

>  <meeko>  (40) 
{"free_energy": -8.55, "intermolecular_energy": -10.05, "internal_energy": -1.91, "cluster_size": 26, "cluster_id": 2, "rank_in_cluster": 8}

>  <energy>  (40) 
-8.07

>  <cluster_rmsd>  (40) 
1.26

>  <cluster>  (40) 
2

$$$$

     RDKit          3D

 53 56  0  0  0  0  0  0  0  0999 V2000
  140.7130   71.8820  220.6410 O   0  0  0  0  0  0  0  0  0  0  0  0
  140.2920   72.3710  221.7170 C   0  0  0  0  0  0  0  0  0  0  0  0
  139.9270   73.7200  221.9000 N   0  0  0  0  0  0  0  0  0  0  0  0
  140.0190   74.6620  220.8040 C   0  0  0  0  0  0  0  0  0  0  0  0
  141.0440   75.6810  221.1640 C   0  0  0  0  0  0  0  0  0  0  0  0
  141.0710   76.0410  222.3700 O   0  0  0  0  0  0  0  0  0  0  0  0
  141.9510   76.2220  220.1830 N   0  0  0  0  0  0  0  0  0  0  0  0
  141.6730   77.4960  219.5280 C   0  0  0  0  0  0  0  0  0  0  0  0
  142.8820   77.6680  218.5970 C   0  0  0  0  0  0  0  0  0  0  0  0
  143.3320   76.2200  218.3420 C   0  0  0  0  0  0  0  0  0  0  0  0
  143.1940   75.6590  219.7130 C   0  0  2  0  0  0  0  0  0  0  0  0
  143.2730   74.1610  219.7750 C   0  0  0  0  0  0  0  0  0  0  0  0
  144.2720   73.7950  220.8450 C   0  0  0  0  0  0  0  0  0  0  0  0
  145.6590   73.5670  220.3960 C   0  0  0  0  0  0  0  0  0  0  0  0
  145.8960   73.3370  219.0300 N   0  0  0  0  0  0  0  0  0  0  0  0
  144.8300   72.8820  218.2390 C   0  0  0  0  0  0  0  0  0  0  0  0
  143.4810   73.4680  218.4840 C   0  0  0  0  0  0  0  0  0  0  0  0
  140.1730   71.4690  222.8730 C   0  0  0  0  0  0  0  0  0  0  0  0
  139.5570   70.2330  222.7710 C   0  0  0  0  0  0  0  0  0  0  0  0
  139.4440   69.3790  223.8730 C   0  0  0  0  0  0  0  0  0  0  0  0
  139.9630   69.7900  225.0790 C   0  0  0  0  0  0  0  0  0  0  0  0
  139.9020   69.0150  226.2300 C   0  0  0  0  0  0  0  0  0  0  0  0
  140.4480   69.4950  227.4180 C   0  0  0  0  0  0  0  0  0  0  0  0
  140.3670   68.5180  228.8540 Cl  0  0  0  0  0  0  0  0  0  0  0  0
  141.0560   70.7290  227.4960 C   0  0  0  0  0  0  0  0  0  0  0  0
  141.1200   71.5080  226.3480 C   0  0  0  0  0  0  0  0  0  0  0  0
  140.5750   71.0220  225.1740 C   0  0  0  0  0  0  0  0  0  0  0  0
  140.6550   71.7980  224.0910 N   0  0  0  0  0  0  0  0  0  0  0  0
  139.5820   74.0500  222.8450 H   0  0  0  0  0  0  0  0  0  0  0  0
  140.3191   74.1381  219.8845 H   0  0  0  0  0  0  0  0  0  0  0  0
  139.0453   75.1423  220.6275 H   0  0  0  0  0  0  0  0  0  0  0  0
  140.7348   77.4512  218.9555 H   0  0  0  0  0  0  0  0  0  0  0  0
  141.5431   78.3301  220.2332 H   0  0  0  0  0  0  0  0  0  0  0  0
  142.5909   78.1625  217.6585 H   0  0  0  0  0  0  0  0  0  0  0  0
  143.6741   78.2983  219.0276 H   0  0  0  0  0  0  0  0  0  0  0  0
  142.6739   75.7088  217.6240 H   0  0  0  0  0  0  0  0  0  0  0  0
  144.3339   76.1182  217.8994 H   0  0  0  0  0  0  0  0  0  0  0  0
  144.0367   75.9304  220.3658 H   0  0  0  0  0  0  0  0  0  0  0  0
  142.2774   73.7801  220.0465 H   0  0  0  0  0  0  0  0  0  0  0  0
  144.2884   74.6120  221.5813 H   0  0  0  0  0  0  0  0  0  0  0  0
  143.9314   72.8286  221.2451 H   0  0  0  0  0  0  0  0  0  0  0  0
  146.2419   74.4553  220.6809 H   0  0  0  0  0  0  0  0  0  0  0  0
  145.9449   72.6215  220.8800 H   0  0  0  0  0  0  0  0  0  0  0  0
  146.6990   73.7710  218.5790 H   0  0  0  0  0  0  0  0  0  0  0  0
  145.0902   73.0856  217.1898 H   0  0  0  0  0  0  0  0  0  0  0  0
  144.7224   71.8200  218.5048 H   0  0  0  0  0  0  0  0  0  0  0  0
  143.2845   74.1948  217.6820 H   0  0  0  0  0  0  0  0  0  0  0  0
  142.7963   72.6074  218.5086 H   0  0  0  0  0  0  0  0  0  0  0  0
  139.1471   69.9154  221.8009 H   0  0  0  0  0  0  0  0  0  0  0  0
  138.9510   68.4003  223.7775 H   0  0  0  0  0  0  0  0  0  0  0  0
  139.4237   68.0248  226.2034 H   0  0  0  0  0  0  0  0  0  0  0  0
  141.4806   71.0886  228.4449 H   0  0  0  0  0  0  0  0  0  0  0  0
  141.5979   72.4985  226.3725 H   0  0  0  0  0  0  0  0  0  0  0  0
  1  2  2  0
  2  3  1  0
  3  4  1  0
  4  5  1  0
  5  6  2  0
  5  7  1  0
  7  8  1  0
  8  9  1  0
  9 10  1  0
 10 11  1  0
 11 12  1  0
 12 13  1  0
 13 14  1  0
 14 15  1  0
 15 16  1  0
 16 17  1  0
  2 18  1  0
 18 19  2  0
 19 20  1  0
 20 21  2  0
 21 22  1  0
 22 23  2  0
 23 24  1  0
 23 25  1  0
 25 26  2  0
 26 27  1  0
 27 28  2  0
 11  7  1  0
 17 12  1  0
 28 18  1  0
 27 21  1  0
  3 29  1  0
  4 30  1  0
  4 31  1  0
  8 32  1  0
  8 33  1  0
  9 34  1  0
  9 35  1  0
 10 36  1  0
 10 37  1  0
 11 38  1  1
 12 39  1  0
 13 40  1  0
 13 41  1  0
 14 42  1  0
 14 43  1  0
 15 44  1  0
 16 45  1  0
 16 46  1  0
 17 47  1  0
 17 48  1  0
 19 49  1  0
 20 50  1  0
 22 51  1  0
 25 52  1  0
 26 53  1  0
M  END
>  <smiles>  (41) 
O=C(NCC(=O)N1CCCC1C1CCNCC1)c1ccc2cc(Cl)ccc2n1

>  <score_type>  (41) 
oracle

>  <origin>  (41) 
autodockgpu

>  <m_score__min__energy>  (41) 
-9.0099999999999998

>  <m_primary>  (41) 
energy

>  <rmsd>  (41) 
2.2380512162923347

>  <m_score__min__rmsd>  (41) 
2.2380512162923347

>  <meeko>  (41) 
{"free_energy": -8.88, "intermolecular_energy": -10.37, "internal_energy": -1.89, "cluster_size": 19, "cluster_id": 1, "rank_in_cluster": 6}

>  <energy>  (41) 
-7.98

>  <cluster_rmsd>  (41) 
1.3

>  <cluster>  (41) 
2

$$$$

     RDKit          3D

 53 56  0  0  0  0  0  0  0  0999 V2000
  141.1430   72.6550  221.5150 O   0  0  0  0  0  0  0  0  0  0  0  0
  140.2060   72.7210  222.3460 C   0  0  0  0  0  0  0  0  0  0  0  0
  139.1980   73.7080  222.3470 N   0  0  0  0  0  0  0  0  0  0  0  0
  139.1870   74.7480  221.3390 C   0  0  0  0  0  0  0  0  0  0  0  0
  139.9210   75.9210  221.8870 C   0  0  0  0  0  0  0  0  0  0  0  0
  141.1710   75.8010  221.9820 O   0  0  0  0  0  0  0  0  0  0  0  0
  139.2360   77.1250  222.2860 N   0  0  0  0  0  0  0  0  0  0  0  0
  137.7800   77.2140  222.2220 C   0  0  0  0  0  0  0  0  0  0  0  0
  137.5050   78.6340  222.7370 C   0  0  0  0  0  0  0  0  0  0  0  0
  138.8040   79.3830  222.3960 C   0  0  0  0  0  0  0  0  0  0  0  0
  139.8070   78.3540  222.7820 C   0  0  2  0  0  0  0  0  0  0  0  0
  141.2000   78.6410  222.3020 C   0  0  0  0  0  0  0  0  0  0  0  0
  142.0450   78.9720  223.5070 C   0  0  0  0  0  0  0  0  0  0  0  0
  142.1700   80.4030  223.8470 C   0  0  0  0  0  0  0  0  0  0  0  0
  141.8360   81.3590  222.8730 N   0  0  0  0  0  0  0  0  0  0  0  0
  141.8470   80.9660  221.5260 C   0  0  0  0  0  0  0  0  0  0  0  0
  141.3150   79.6140  221.1910 C   0  0  0  0  0  0  0  0  0  0  0  0
  140.1560   71.6950  223.3980 C   0  0  0  0  0  0  0  0  0  0  0  0
  139.6200   70.4400  223.1650 C   0  0  0  0  0  0  0  0  0  0  0  0
  139.5730   69.4660  224.1680 C   0  0  0  0  0  0  0  0  0  0  0  0
  140.0750   69.7780  225.4110 C   0  0  0  0  0  0  0  0  0  0  0  0
  140.0750   68.8810  226.4710 C   0  0  0  0  0  0  0  0  0  0  0  0
  140.6010   69.2660  227.7030 C   0  0  0  0  0  0  0  0  0  0  0  0
  140.5960   68.1370  229.0250 Cl  0  0  0  0  0  0  0  0  0  0  0  0
  141.1290   70.5210  227.9120 C   0  0  0  0  0  0  0  0  0  0  0  0
  141.1310   71.4210  226.8540 C   0  0  0  0  0  0  0  0  0  0  0  0
  140.6080   71.0300  225.6360 C   0  0  0  0  0  0  0  0  0  0  0  0
  140.6280   71.9220  224.6430 N   0  0  0  0  0  0  0  0  0  0  0  0
  138.4430   73.6900  223.0880 H   0  0  0  0  0  0  0  0  0  0  0  0
  139.6839   74.3890  220.4257 H   0  0  0  0  0  0  0  0  0  0  0  0
  138.1534   75.0260  221.0853 H   0  0  0  0  0  0  0  0  0  0  0  0
  137.4201   77.0898  221.1900 H   0  0  0  0  0  0  0  0  0  0  0  0
  137.2692   76.4325  222.8036 H   0  0  0  0  0  0  0  0  0  0  0  0
  136.6432   79.0819  222.2206 H   0  0  0  0  0  0  0  0  0  0  0  0
  137.2544   78.6660  223.8076 H   0  0  0  0  0  0  0  0  0  0  0  0
  138.8637   79.6295  221.3256 H   0  0  0  0  0  0  0  0  0  0  0  0
  138.9225   80.3551  222.8969 H   0  0  0  0  0  0  0  0  0  0  0  0
  139.9740   78.3173  223.8686 H   0  0  0  0  0  0  0  0  0  0  0  0
  141.5845   77.7334  221.8137 H   0  0  0  0  0  0  0  0  0  0  0  0
  141.6058   78.4587  224.3751 H   0  0  0  0  0  0  0  0  0  0  0  0
  143.0625   78.6424  223.2502 H   0  0  0  0  0  0  0  0  0  0  0  0
  141.5224   80.5870  224.7169 H   0  0  0  0  0  0  0  0  0  0  0  0
  143.2491   80.5472  224.0042 H   0  0  0  0  0  0  0  0  0  0  0  0
  141.3160   82.1910  223.1430 H   0  0  0  0  0  0  0  0  0  0  0  0
  141.2511   81.7011  220.9651 H   0  0  0  0  0  0  0  0  0  0  0  0
  142.9134   80.9171  221.2608 H   0  0  0  0  0  0  0  0  0  0  0  0
  140.3105   79.7495  220.7636 H   0  0  0  0  0  0  0  0  0  0  0  0
  142.0565   79.1777  220.5055 H   0  0  0  0  0  0  0  0  0  0  0  0
  139.2216   70.2031  222.1674 H   0  0  0  0  0  0  0  0  0  0  0  0
  139.1444   68.4729  223.9678 H   0  0  0  0  0  0  0  0  0  0  0  0
  139.6614   67.8703  226.3389 H   0  0  0  0  0  0  0  0  0  0  0  0
  141.5390   70.8036  228.8928 H   0  0  0  0  0  0  0  0  0  0  0  0
  141.5437   72.4323  226.9840 H   0  0  0  0  0  0  0  0  0  0  0  0
  1  2  2  0
  2  3  1  0
  3  4  1  0
  4  5  1  0
  5  6  2  0
  5  7  1  0
  7  8  1  0
  8  9  1  0
  9 10  1  0
 10 11  1  0
 11 12  1  0
 12 13  1  0
 13 14  1  0
 14 15  1  0
 15 16  1  0
 16 17  1  0
  2 18  1  0
 18 19  2  0
 19 20  1  0
 20 21  2  0
 21 22  1  0
 22 23  2  0
 23 24  1  0
 23 25  1  0
 25 26  2  0
 26 27  1  0
 27 28  2  0
 11  7  1  0
 17 12  1  0
 28 18  1  0
 27 21  1  0
  3 29  1  0
  4 30  1  0
  4 31  1  0
  8 32  1  0
  8 33  1  0
  9 34  1  0
  9 35  1  0
 10 36  1  0
 10 37  1  0
 11 38  1  1
 12 39  1  0
 13 40  1  0
 13 41  1  0
 14 42  1  0
 14 43  1  0
 15 44  1  0
 16 45  1  0
 16 46  1  0
 17 47  1  0
 17 48  1  0
 19 49  1  0
 20 50  1  0
 22 51  1  0
 25 52  1  0
 26 53  1  0
M  END
>  <smiles>  (42) 
O=C(NCC(=O)N1CCCC1C1CCNCC1)c1ccc2cc(Cl)ccc2n1

>  <score_type>  (42) 
oracle

>  <origin>  (42) 
autodockgpu

>  <m_score__min__energy>  (42) 
-9.0099999999999998

>  <m_primary>  (42) 
energy

>  <rmsd>  (42) 
2.975720668851508

>  <m_score__min__rmsd>  (42) 
2.975720668851508

>  <meeko>  (42) 
{"free_energy": -8.86, "intermolecular_energy": -10.35, "internal_energy": -1.18, "cluster_size": 26, "cluster_id": 2, "rank_in_cluster": 2}

>  <energy>  (42) 
-7.97

>  <cluster_rmsd>  (42) 
1.29

>  <cluster>  (42) 
2

$$$$

     RDKit          3D

 53 56  0  0  0  0  0  0  0  0999 V2000
  139.7860   71.9850  220.6160 O   0  0  0  0  0  0  0  0  0  0  0  0
  139.7250   72.4550  221.7770 C   0  0  0  0  0  0  0  0  0  0  0  0
  139.5980   73.8250  222.0860 N   0  0  0  0  0  0  0  0  0  0  0  0
  139.5270   74.8130  221.0290 C   0  0  0  0  0  0  0  0  0  0  0  0
  139.8110   76.1450  221.6310 C   0  0  0  0  0  0  0  0  0  0  0  0
  139.4500   76.3040  222.8260 O   0  0  0  0  0  0  0  0  0  0  0  0
  140.4640   77.1900  220.8830 N   0  0  0  0  0  0  0  0  0  0  0  0
  141.1490   76.8970  219.6270 C   0  0  0  0  0  0  0  0  0  0  0  0
  141.6710   78.2750  219.1960 C   0  0  0  0  0  0  0  0  0  0  0  0
  141.8070   79.0260  220.5320 C   0  0  0  0  0  0  0  0  0  0  0  0
  140.5510   78.5950  221.2020 C   0  0  2  0  0  0  0  0  0  0  0  0
  140.4960   78.9120  222.6690 C   0  0  0  0  0  0  0  0  0  0  0  0
  139.9010   80.2900  222.8210 C   0  0  0  0  0  0  0  0  0  0  0  0
  140.8570   81.4120  222.9020 C   0  0  0  0  0  0  0  0  0  0  0  0
  142.2010   81.1320  223.2020 N   0  0  0  0  0  0  0  0  0  0  0  0
  142.4980   79.9230  223.8490 C   0  0  0  0  0  0  0  0  0  0  0  0
  141.7520   78.7040  223.4250 C   0  0  0  0  0  0  0  0  0  0  0  0
  139.7910   71.5070  222.8990 C   0  0  0  0  0  0  0  0  0  0  0  0
  139.3260   70.2070  222.7820 C   0  0  0  0  0  0  0  0  0  0  0  0
  139.3890   69.3090  223.8520 C   0  0  0  0  0  0  0  0  0  0  0  0
  139.9300   69.7400  225.0420 C   0  0  0  0  0  0  0  0  0  0  0  0
  140.0380   68.9240  226.1610 C   0  0  0  0  0  0  0  0  0  0  0  0
  140.5970   69.4280  227.3330 C   0  0  0  0  0  0  0  0  0  0  0  0
  140.7280   68.4000  228.7290 Cl  0  0  0  0  0  0  0  0  0  0  0  0
  141.0530   70.7240  227.4260 C   0  0  0  0  0  0  0  0  0  0  0  0
  140.9470   71.5440  226.3100 C   0  0  0  0  0  0  0  0  0  0  0  0
  140.3920   71.0350  225.1510 C   0  0  0  0  0  0  0  0  0  0  0  0
  140.3070   71.8510  224.0990 N   0  0  0  0  0  0  0  0  0  0  0  0
  139.5550   74.1370  223.0960 H   0  0  0  0  0  0  0  0  0  0  0  0
  140.2736   74.5859  220.2538 H   0  0  0  0  0  0  0  0  0  0  0  0
  138.5304   74.8065  220.5634 H   0  0  0  0  0  0  0  0  0  0  0  0
  141.9774   76.1903  219.7828 H   0  0  0  0  0  0  0  0  0  0  0  0
  140.4995   76.4227  218.8766 H   0  0  0  0  0  0  0  0  0  0  0  0
  142.6439   78.1888  218.6899 H   0  0  0  0  0  0  0  0  0  0  0  0
  141.0112   78.7836  218.4777 H   0  0  0  0  0  0  0  0  0  0  0  0
  142.6983   78.7054  221.0912 H   0  0  0  0  0  0  0  0  0  0  0  0
  141.9318   80.1150  220.4398 H   0  0  0  0  0  0  0  0  0  0  0  0
  139.6721   79.1506  220.8430 H   0  0  0  0  0  0  0  0  0  0  0  0
  139.8464   78.1679  223.1530 H   0  0  0  0  0  0  0  0  0  0  0  0
  139.2468   80.4695  221.9551 H   0  0  0  0  0  0  0  0  0  0  0  0
  139.3807   80.2786  223.7901 H   0  0  0  0  0  0  0  0  0  0  0  0
  140.8420   81.9214  221.9272 H   0  0  0  0  0  0  0  0  0  0  0  0
  140.5074   81.9996  223.7637 H   0  0  0  0  0  0  0  0  0  0  0  0
  142.9400   81.6230  222.7030 H   0  0  0  0  0  0  0  0  0  0  0  0
  143.5684   79.7226  223.6938 H   0  0  0  0  0  0  0  0  0  0  0  0
  142.1908   80.0856  224.8926 H   0  0  0  0  0  0  0  0  0  0  0  0
  142.4249   78.1068  222.7921 H   0  0  0  0  0  0  0  0  0  0  0  0
  141.4433   78.2183  224.3624 H   0  0  0  0  0  0  0  0  0  0  0  0
  138.8974   69.8737  221.8253 H   0  0  0  0  0  0  0  0  0  0  0  0
  139.0143   68.2803  223.7450 H   0  0  0  0  0  0  0  0  0  0  0  0
  139.6833   67.8835  226.1217 H   0  0  0  0  0  0  0  0  0  0  0  0
  141.4909   71.1009  228.3620 H   0  0  0  0  0  0  0  0  0  0  0  0
  141.3002   72.5851  226.3480 H   0  0  0  0  0  0  0  0  0  0  0  0
  1  2  2  0
  2  3  1  0
  3  4  1  0
  4  5  1  0
  5  6  2  0
  5  7  1  0
  7  8  1  0
  8  9  1  0
  9 10  1  0
 10 11  1  0
 11 12  1  0
 12 13  1  0
 13 14  1  0
 14 15  1  0
 15 16  1  0
 16 17  1  0
  2 18  1  0
 18 19  2  0
 19 20  1  0
 20 21  2  0
 21 22  1  0
 22 23  2  0
 23 24  1  0
 23 25  1  0
 25 26  2  0
 26 27  1  0
 27 28  2  0
 11  7  1  0
 17 12  1  0
 28 18  1  0
 27 21  1  0
  3 29  1  0
  4 30  1  0
  4 31  1  0
  8 32  1  0
  8 33  1  0
  9 34  1  0
  9 35  1  0
 10 36  1  0
 10 37  1  0
 11 38  1  6
 12 39  1  0
 13 40  1  0
 13 41  1  0
 14 42  1  0
 14 43  1  0
 15 44  1  0
 16 45  1  0
 16 46  1  0
 17 47  1  0
 17 48  1  0
 19 49  1  0
 20 50  1  0
 22 51  1  0
 25 52  1  0
 26 53  1  0
M  END
>  <smiles>  (43) 
O=C(NCC(=O)N1CCCC1C1CCNCC1)c1ccc2cc(Cl)ccc2n1

>  <score_type>  (43) 
oracle

>  <origin>  (43) 
autodockgpu

>  <m_score__min__energy>  (43) 
-9.0099999999999998

>  <m_primary>  (43) 
energy

>  <rmsd>  (43) 
2.0813120629417923

>  <m_score__min__rmsd>  (43) 
2.0813120629417923

>  <meeko>  (43) 
{"free_energy": -8.49, "intermolecular_energy": -9.98, "internal_energy": -1.92, "cluster_size": 26, "cluster_id": 2, "rank_in_cluster": 12}

>  <energy>  (43) 
-7.89

>  <cluster_rmsd>  (43) 
1.31

>  <cluster>  (43) 
2

$$$$

     RDKit          3D

 53 56  0  0  0  0  0  0  0  0999 V2000
  140.8380   72.7320  220.9210 O   0  0  0  0  0  0  0  0  0  0  0  0
  140.2560   73.0510  221.9850 C   0  0  0  0  0  0  0  0  0  0  0  0
  139.6880   74.3160  222.2440 N   0  0  0  0  0  0  0  0  0  0  0  0
  139.7470   75.3660  221.2480 C   0  0  0  0  0  0  0  0  0  0  0  0
  138.7790   76.4250  221.6440 C   0  0  0  0  0  0  0  0  0  0  0  0
  137.8980   76.0890  222.4790 O   0  0  0  0  0  0  0  0  0  0  0  0
  138.8490   77.7580  221.1010 N   0  0  0  0  0  0  0  0  0  0  0  0
  138.5650   78.0070  219.6910 C   0  0  0  0  0  0  0  0  0  0  0  0
  138.7500   79.5270  219.5730 C   0  0  0  0  0  0  0  0  0  0  0  0
  139.7360   79.8450  220.7090 C   0  0  0  0  0  0  0  0  0  0  0  0
  139.1780   78.9840  221.7870 C   0  0  2  0  0  0  0  0  0  0  0  0
  140.0820   78.8200  222.9740 C   0  0  0  0  0  0  0  0  0  0  0  0
  140.0020   80.0840  223.7940 C   0  0  0  0  0  0  0  0  0  0  0  0
  141.0220   81.1130  223.5140 C   0  0  0  0  0  0  0  0  0  0  0  0
  142.1820   80.7400  222.8130 N   0  0  0  0  0  0  0  0  0  0  0  0
  142.5470   79.3850  222.8100 C   0  0  0  0  0  0  0  0  0  0  0  0
  141.4620   78.3710  222.6800 C   0  0  0  0  0  0  0  0  0  0  0  0
  140.1590   72.0320  223.0400 C   0  0  0  0  0  0  0  0  0  0  0  0
  139.5900   70.7920  222.8040 C   0  0  0  0  0  0  0  0  0  0  0  0
  139.4980   69.8250  223.8100 C   0  0  0  0  0  0  0  0  0  0  0  0
  139.9900   70.1270  225.0590 C   0  0  0  0  0  0  0  0  0  0  0  0
  139.9480   69.2350  226.1230 C   0  0  0  0  0  0  0  0  0  0  0  0
  140.4650   69.6100  227.3620 C   0  0  0  0  0  0  0  0  0  0  0  0
  140.4070   68.4880  228.6880 Cl  0  0  0  0  0  0  0  0  0  0  0  0
  141.0270   70.8490  227.5730 C   0  0  0  0  0  0  0  0  0  0  0  0
  141.0730   71.7450  226.5120 C   0  0  0  0  0  0  0  0  0  0  0  0
  140.5570   71.3640  225.2880 C   0  0  0  0  0  0  0  0  0  0  0  0
  140.6180   72.2500  224.2910 N   0  0  0  0  0  0  0  0  0  0  0  0
  139.2150   74.5020  223.1720 H   0  0  0  0  0  0  0  0  0  0  0  0
  140.7632   75.7849  221.2059 H   0  0  0  0  0  0  0  0  0  0  0  0
  139.4944   74.9672  220.2545 H   0  0  0  0  0  0  0  0  0  0  0  0
  139.2729   77.4697  219.0428 H   0  0  0  0  0  0  0  0  0  0  0  0
  137.5678   77.6630  219.3791 H   0  0  0  0  0  0  0  0  0  0  0  0
  139.1731   79.7990  218.5947 H   0  0  0  0  0  0  0  0  0  0  0  0
  137.8056   80.0857  219.6498 H   0  0  0  0  0  0  0  0  0  0  0  0
  140.7651   79.5568  220.4485 H   0  0  0  0  0  0  0  0  0  0  0  0
  139.8182   80.9116  220.9650 H   0  0  0  0  0  0  0  0  0  0  0  0
  138.2961   79.4318  222.2685 H   0  0  0  0  0  0  0  0  0  0  0  0
  139.7155   77.9674  223.5645 H   0  0  0  0  0  0  0  0  0  0  0  0
  139.0143   80.5352  223.6181 H   0  0  0  0  0  0  0  0  0  0  0  0
  140.1808   79.7702  224.8330 H   0  0  0  0  0  0  0  0  0  0  0  0
  140.5310   81.9051  222.9295 H   0  0  0  0  0  0  0  0  0  0  0  0
  141.3920   81.4003  224.5093 H   0  0  0  0  0  0  0  0  0  0  0  0
  142.5550   81.3570  222.0950 H   0  0  0  0  0  0  0  0  0  0  0  0
  143.2391   79.2340  221.9685 H   0  0  0  0  0  0  0  0  0  0  0  0
  142.9692   79.2107  223.8107 H   0  0  0  0  0  0  0  0  0  0  0  0
  141.4766   78.0006  221.6443 H   0  0  0  0  0  0  0  0  0  0  0  0
  141.6852   77.6147  223.4469 H   0  0  0  0  0  0  0  0  0  0  0  0
  139.2010   70.5620  221.8011 H   0  0  0  0  0  0  0  0  0  0  0  0
  139.0424   68.8445  223.6073 H   0  0  0  0  0  0  0  0  0  0  0  0
  139.5081   68.2358  225.9883 H   0  0  0  0  0  0  0  0  0  0  0  0
  141.4303   71.1233  228.5589 H   0  0  0  0  0  0  0  0  0  0  0  0
  141.5141   72.7439  226.6445 H   0  0  0  0  0  0  0  0  0  0  0  0
  1  2  2  0
  2  3  1  0
  3  4  1  0
  4  5  1  0
  5  6  2  0
  5  7  1  0
  7  8  1  0
  8  9  1  0
  9 10  1  0
 10 11  1  0
 11 12  1  0
 12 13  1  0
 13 14  1  0
 14 15  1  0
 15 16  1  0
 16 17  1  0
  2 18  1  0
 18 19  2  0
 19 20  1  0
 20 21  2  0
 21 22  1  0
 22 23  2  0
 23 24  1  0
 23 25  1  0
 25 26  2  0
 26 27  1  0
 27 28  2  0
 11  7  1  0
 17 12  1  0
 28 18  1  0
 27 21  1  0
  3 29  1  0
  4 30  1  0
  4 31  1  0
  8 32  1  0
  8 33  1  0
  9 34  1  0
  9 35  1  0
 10 36  1  0
 10 37  1  0
 11 38  1  1
 12 39  1  0
 13 40  1  0
 13 41  1  0
 14 42  1  0
 14 43  1  0
 15 44  1  0
 16 45  1  0
 16 46  1  0
 17 47  1  0
 17 48  1  0
 19 49  1  0
 20 50  1  0
 22 51  1  0
 25 52  1  0
 26 53  1  0
M  END
>  <smiles>  (44) 
O=C(NCC(=O)N1CCCC1C1CCNCC1)c1ccc2cc(Cl)ccc2n1

>  <score_type>  (44) 
oracle

>  <origin>  (44) 
autodockgpu

>  <m_score__min__energy>  (44) 
-9.0099999999999998

>  <m_primary>  (44) 
energy

>  <rmsd>  (44) 
2.6102865932697727

>  <m_score__min__rmsd>  (44) 
2.6102865932697727

>  <meeko>  (44) 
{"free_energy": -7.89, "intermolecular_energy": -9.38, "internal_energy": -1.89, "cluster_size": 26, "cluster_id": 2, "rank_in_cluster": 24}

>  <energy>  (44) 
-7.64

>  <cluster_rmsd>  (44) 
1.48

>  <cluster>  (44) 
2

$$$$

     RDKit          3D

 53 56  0  0  0  0  0  0  0  0999 V2000
  140.1110   72.0840  220.6110 O   0  0  0  0  0  0  0  0  0  0  0  0
  139.9270   72.5400  221.7650 C   0  0  0  0  0  0  0  0  0  0  0  0
  139.7070   73.8990  222.0680 N   0  0  0  0  0  0  0  0  0  0  0  0
  139.6770   74.8920  221.0140 C   0  0  0  0  0  0  0  0  0  0  0  0
  140.0920   76.1950  221.6040 C   0  0  0  0  0  0  0  0  0  0  0  0
  139.9170   76.3260  222.8430 O   0  0  0  0  0  0  0  0  0  0  0  0
  140.6610   77.2440  220.7960 N   0  0  0  0  0  0  0  0  0  0  0  0
  141.4340   76.9320  219.5980 C   0  0  0  0  0  0  0  0  0  0  0  0
  141.8220   78.3220  219.0730 C   0  0  0  0  0  0  0  0  0  0  0  0
  141.8090   79.1870  220.3440 C   0  0  0  0  0  0  0  0  0  0  0  0
  140.5770   78.6710  220.9990 C   0  0  2  0  0  0  0  0  0  0  0  0
  140.4160   79.0960  222.4300 C   0  0  0  0  0  0  0  0  0  0  0  0
  139.9160   80.5190  222.4350 C   0  0  0  0  0  0  0  0  0  0  0  0
  140.9430   81.5750  222.5320 C   0  0  0  0  0  0  0  0  0  0  0  0
  142.2300   81.2250  222.9750 N   0  0  0  0  0  0  0  0  0  0  0  0
  142.3760   80.0480  223.7250 C   0  0  0  0  0  0  0  0  0  0  0  0
  141.5810   78.8560  223.3120 C   0  0  0  0  0  0  0  0  0  0  0  0
  139.9450   71.5860  222.8840 C   0  0  0  0  0  0  0  0  0  0  0  0
  139.4430   70.3020  222.7530 C   0  0  0  0  0  0  0  0  0  0  0  0
  139.4600   69.3970  223.8200 C   0  0  0  0  0  0  0  0  0  0  0  0
  139.9920   69.8070  225.0210 C   0  0  0  0  0  0  0  0  0  0  0  0
  140.0550   68.9840  226.1380 C   0  0  0  0  0  0  0  0  0  0  0  0
  140.6080   69.4670  227.3230 C   0  0  0  0  0  0  0  0  0  0  0  0
  140.6830   68.4300  228.7160 Cl  0  0  0  0  0  0  0  0  0  0  0  0
  141.1020   70.7480  227.4290 C   0  0  0  0  0  0  0  0  0  0  0  0
  141.0410   71.5750  226.3150 C   0  0  0  0  0  0  0  0  0  0  0  0
  140.4910   71.0880  225.1440 C   0  0  0  0  0  0  0  0  0  0  0  0
  140.4490   71.9100  224.0940 N   0  0  0  0  0  0  0  0  0  0  0  0
  139.5620   74.1990  223.0730 H   0  0  0  0  0  0  0  0  0  0  0  0
  140.3724   74.6064  220.2110 H   0  0  0  0  0  0  0  0  0  0  0  0
  138.6663   74.9683  220.5867 H   0  0  0  0  0  0  0  0  0  0  0  0
  142.3264   76.3385  219.8455 H   0  0  0  0  0  0  0  0  0  0  0  0
  140.8778   76.3289  218.8652 H   0  0  0  0  0  0  0  0  0  0  0  0
  142.8221   78.3068  218.6152 H   0  0  0  0  0  0  0  0  0  0  0  0
  141.1463   78.6935  218.2885 H   0  0  0  0  0  0  0  0  0  0  0  0
  142.7021   79.0157  220.9629 H   0  0  0  0  0  0  0  0  0  0  0  0
  141.8170   80.2722  220.1644 H   0  0  0  0  0  0  0  0  0  0  0  0
  139.6603   79.0927  220.5611 H   0  0  0  0  0  0  0  0  0  0  0  0
  139.6712   78.4362  222.8989 H   0  0  0  0  0  0  0  0  0  0  0  0
  139.3569   80.6806  221.5016 H   0  0  0  0  0  0  0  0  0  0  0  0
  139.3123   80.6135  223.3497 H   0  0  0  0  0  0  0  0  0  0  0  0
  141.0535   82.0125  221.5288 H   0  0  0  0  0  0  0  0  0  0  0  0
  140.5633   82.2461  223.3166 H   0  0  0  0  0  0  0  0  0  0  0  0
  143.0450   81.6260  222.5160 H   0  0  0  0  0  0  0  0  0  0  0  0
  143.4379   79.7636  223.6854 H   0  0  0  0  0  0  0  0  0  0  0  0
  141.9899   80.3059  224.7222 H   0  0  0  0  0  0  0  0  0  0  0  0
  142.2607   78.1707  222.7844 H   0  0  0  0  0  0  0  0  0  0  0  0
  141.1549   78.4601  224.2457 H   0  0  0  0  0  0  0  0  0  0  0  0
  139.0210   69.9862  221.7875 H   0  0  0  0  0  0  0  0  0  0  0  0
  139.0571   68.3804  223.7014 H   0  0  0  0  0  0  0  0  0  0  0  0
  139.6699   67.9548  226.0878 H   0  0  0  0  0  0  0  0  0  0  0  0
  141.5349   71.1079  228.3741 H   0  0  0  0  0  0  0  0  0  0  0  0
  141.4254   72.6045  226.3638 H   0  0  0  0  0  0  0  0  0  0  0  0
  1  2  2  0
  2  3  1  0
  3  4  1  0
  4  5  1  0
  5  6  2  0
  5  7  1  0
  7  8  1  0
  8  9  1  0
  9 10  1  0
 10 11  1  0
 11 12  1  0
 12 13  1  0
 13 14  1  0
 14 15  1  0
 15 16  1  0
 16 17  1  0
  2 18  1  0
 18 19  2  0
 19 20  1  0
 20 21  2  0
 21 22  1  0
 22 23  2  0
 23 24  1  0
 23 25  1  0
 25 26  2  0
 26 27  1  0
 27 28  2  0
 11  7  1  0
 17 12  1  0
 28 18  1  0
 27 21  1  0
  3 29  1  0
  4 30  1  0
  4 31  1  0
  8 32  1  0
  8 33  1  0
  9 34  1  0
  9 35  1  0
 10 36  1  0
 10 37  1  0
 11 38  1  6
 12 39  1  0
 13 40  1  0
 13 41  1  0
 14 42  1  0
 14 43  1  0
 15 44  1  0
 16 45  1  0
 16 46  1  0
 17 47  1  0
 17 48  1  0
 19 49  1  0
 20 50  1  0
 22 51  1  0
 25 52  1  0
 26 53  1  0
M  END
>  <smiles>  (45) 
O=C(NCC(=O)N1CCCC1C1CCNCC1)c1ccc2cc(Cl)ccc2n1

>  <score_type>  (45) 
oracle

>  <origin>  (45) 
autodockgpu

>  <m_score__min__energy>  (45) 
-9.0099999999999998

>  <m_primary>  (45) 
energy

>  <rmsd>  (45) 
2.1557434885428117

>  <m_score__min__rmsd>  (45) 
2.1557434885428117

>  <meeko>  (45) 
{"free_energy": -8.44, "intermolecular_energy": -9.94, "internal_energy": -1.9, "cluster_size": 26, "cluster_id": 2, "rank_in_cluster": 14}

>  <energy>  (45) 
-7.38

>  <cluster_rmsd>  (45) 
1.36

>  <cluster>  (45) 
2

$$$$

     RDKit          3D

 53 56  0  0  0  0  0  0  0  0999 V2000
  141.3470   73.2090  221.4820 O   0  0  0  0  0  0  0  0  0  0  0  0
  140.3220   73.1560  222.2040 C   0  0  0  0  0  0  0  0  0  0  0  0
  139.2390   74.0570  222.1330 N   0  0  0  0  0  0  0  0  0  0  0  0
  139.2500   75.1450  221.1760 C   0  0  0  0  0  0  0  0  0  0  0  0
  139.2540   76.4230  221.9400 C   0  0  0  0  0  0  0  0  0  0  0  0
  138.2260   76.6660  222.6240 O   0  0  0  0  0  0  0  0  0  0  0  0
  140.3760   77.3270  221.8960 N   0  0  0  0  0  0  0  0  0  0  0  0
  140.5930   78.3030  222.9600 C   0  0  0  0  0  0  0  0  0  0  0  0
  141.8720   79.0200  222.5050 C   0  0  0  0  0  0  0  0  0  0  0  0
  141.8430   78.8440  220.9780 C   0  0  0  0  0  0  0  0  0  0  0  0
  141.4030   77.4260  220.8870 C   0  0  2  0  0  0  0  0  0  0  0  0
  140.9790   76.9990  219.5120 C   0  0  0  0  0  0  0  0  0  0  0  0
  142.0740   76.1330  218.9390 C   0  0  0  0  0  0  0  0  0  0  0  0
  143.0840   76.8180  218.1080 C   0  0  0  0  0  0  0  0  0  0  0  0
  142.7880   78.0950  217.6020 N   0  0  0  0  0  0  0  0  0  0  0  0
  141.4400   78.4720  217.5010 C   0  0  0  0  0  0  0  0  0  0  0  0
  140.5230   78.0810  218.6090 C   0  0  0  0  0  0  0  0  0  0  0  0
  140.2450   72.0750  223.1980 C   0  0  0  0  0  0  0  0  0  0  0  0
  139.7150   70.8350  222.8830 C   0  0  0  0  0  0  0  0  0  0  0  0
  139.6420   69.8090  223.8320 C   0  0  0  0  0  0  0  0  0  0  0  0
  140.1130   70.0530  225.1010 C   0  0  0  0  0  0  0  0  0  0  0  0
  140.0860   69.1000  226.1120 C   0  0  0  0  0  0  0  0  0  0  0  0
  140.5810   69.4170  227.3760 C   0  0  0  0  0  0  0  0  0  0  0  0
  140.5420   68.2200  228.6350 Cl  0  0  0  0  0  0  0  0  0  0  0  0
  141.1040   70.6580  227.6650 C   0  0  0  0  0  0  0  0  0  0  0  0
  141.1330   71.6140  226.6570 C   0  0  0  0  0  0  0  0  0  0  0  0
  140.6400   71.2910  225.4070 C   0  0  0  0  0  0  0  0  0  0  0  0
  140.6860   72.2340  224.4640 N   0  0  0  0  0  0  0  0  0  0  0  0
  138.4120   73.9400  222.7820 H   0  0  0  0  0  0  0  0  0  0  0  0
  140.1508   75.0817  220.5478 H   0  0  0  0  0  0  0  0  0  0  0  0
  138.3669   75.0908  220.5224 H   0  0  0  0  0  0  0  0  0  0  0  0
  139.7492   79.0050  223.0324 H   0  0  0  0  0  0  0  0  0  0  0  0
  140.6790   77.8486  223.9581 H   0  0  0  0  0  0  0  0  0  0  0  0
  141.8478   80.0846  222.7807 H   0  0  0  0  0  0  0  0  0  0  0  0
  142.7836   78.6171  222.9704 H   0  0  0  0  0  0  0  0  0  0  0  0
  141.1225   79.5258  220.5025 H   0  0  0  0  0  0  0  0  0  0  0  0
  142.7922   79.0670  220.4689 H   0  0  0  0  0  0  0  0  0  0  0  0
  142.2255   76.7191  221.0704 H   0  0  0  0  0  0  0  0  0  0  0  0
  140.0519   76.4150  219.6089 H   0  0  0  0  0  0  0  0  0  0  0  0
  142.5993   75.6571  219.7801 H   0  0  0  0  0  0  0  0  0  0  0  0
  141.5669   75.4292  218.2626 H   0  0  0  0  0  0  0  0  0  0  0  0
  143.9940   76.9145  218.7184 H   0  0  0  0  0  0  0  0  0  0  0  0
  143.1639   76.1870  217.2105 H   0  0  0  0  0  0  0  0  0  0  0  0
  143.5070   78.8150  217.6050 H   0  0  0  0  0  0  0  0  0  0  0  0
  141.4113   79.5689  217.4233 H   0  0  0  0  0  0  0  0  0  0  0  0
  141.0644   77.9234  216.6247 H   0  0  0  0  0  0  0  0  0  0  0  0
  140.3477   78.9751  219.2253 H   0  0  0  0  0  0  0  0  0  0  0  0
  139.6294   77.6777  218.1101 H   0  0  0  0  0  0  0  0  0  0  0  0
  139.3430   70.6524  221.8640 H   0  0  0  0  0  0  0  0  0  0  0  0
  139.2173   68.8290  223.5688 H   0  0  0  0  0  0  0  0  0  0  0  0
  139.6753   68.0986  225.9155 H   0  0  0  0  0  0  0  0  0  0  0  0
  141.4895   70.8868  228.6695 H   0  0  0  0  0  0  0  0  0  0  0  0
  141.5434   72.6158  226.8516 H   0  0  0  0  0  0  0  0  0  0  0  0
  1  2  2  0
  2  3  1  0
  3  4  1  0
  4  5  1  0
  5  6  2  0
  5  7  1  0
  7  8  1  0
  8  9  1  0
  9 10  1  0
 10 11  1  0
 11 12  1  0
 12 13  1  0
 13 14  1  0
 14 15  1  0
 15 16  1  0
 16 17  1  0
  2 18  1  0
 18 19  2  0
 19 20  1  0
 20 21  2  0
 21 22  1  0
 22 23  2  0
 23 24  1  0
 23 25  1  0
 25 26  2  0
 26 27  1  0
 27 28  2  0
 11  7  1  0
 17 12  1  0
 28 18  1  0
 27 21  1  0
  3 29  1  0
  4 30  1  0
  4 31  1  0
  8 32  1  0
  8 33  1  0
  9 34  1  0
  9 35  1  0
 10 36  1  0
 10 37  1  0
 11 38  1  1
 12 39  1  0
 13 40  1  0
 13 41  1  0
 14 42  1  0
 14 43  1  0
 15 44  1  0
 16 45  1  0
 16 46  1  0
 17 47  1  0
 17 48  1  0
 19 49  1  0
 20 50  1  0
 22 51  1  0
 25 52  1  0
 26 53  1  0
M  END
>  <smiles>  (46) 
O=C(NCC(=O)N1CCCC1C1CCNCC1)c1ccc2cc(Cl)ccc2n1

>  <score_type>  (46) 
oracle

>  <origin>  (46) 
autodockgpu

>  <m_score__min__energy>  (46) 
-9.0099999999999998

>  <m_primary>  (46) 
energy

>  <rmsd>  (46) 
2.999675369356083

>  <m_score__min__rmsd>  (46) 
2.999675369356083

>  <meeko>  (46) 
{"free_energy": -7.96, "intermolecular_energy": -9.46, "internal_energy": -1.38, "cluster_size": 3, "cluster_id": 3, "rank_in_cluster": 3}

>  <energy>  (46) 
-8.48

>  <cluster_rmsd>  (46) 
0.0

>  <cluster>  (46) 
3

$$$$

     RDKit          3D

 53 56  0  0  0  0  0  0  0  0999 V2000
  141.0600   72.8230  221.0570 O   0  0  0  0  0  0  0  0  0  0  0  0
  140.2380   73.0220  221.9840 C   0  0  0  0  0  0  0  0  0  0  0  0
  139.3900   74.1440  222.0810 N   0  0  0  0  0  0  0  0  0  0  0  0
  139.4210   75.1790  221.0680 C   0  0  0  0  0  0  0  0  0  0  0  0
  140.1890   76.3310  221.6150 C   0  0  0  0  0  0  0  0  0  0  0  0
  141.4380   76.2860  221.4700 O   0  0  0  0  0  0  0  0  0  0  0  0
  139.5340   77.4330  222.2750 N   0  0  0  0  0  0  0  0  0  0  0  0
  138.0820   77.5770  222.2300 C   0  0  0  0  0  0  0  0  0  0  0  0
  137.8430   78.8510  223.0520 C   0  0  0  0  0  0  0  0  0  0  0  0
  139.1670   79.6190  222.8940 C   0  0  0  0  0  0  0  0  0  0  0  0
  140.1360   78.4990  223.0390 C   0  0  2  0  0  0  0  0  0  0  0  0
  141.5410   78.8460  222.6390 C   0  0  0  0  0  0  0  0  0  0  0  0
  142.1930   79.5470  223.8050 C   0  0  0  0  0  0  0  0  0  0  0  0
  142.1290   81.0220  223.8040 C   0  0  0  0  0  0  0  0  0  0  0  0
  141.8220   81.6810  222.6010 N   0  0  0  0  0  0  0  0  0  0  0  0
  142.0380   80.9970  221.3950 C   0  0  0  0  0  0  0  0  0  0  0  0
  141.6920   79.5480  221.3440 C   0  0  0  0  0  0  0  0  0  0  0  0
  140.1550   72.0100  223.0480 C   0  0  0  0  0  0  0  0  0  0  0  0
  139.6040   70.7600  222.8210 C   0  0  0  0  0  0  0  0  0  0  0  0
  139.5250   69.8000  223.8350 C   0  0  0  0  0  0  0  0  0  0  0  0
  140.0110   70.1200  225.0820 C   0  0  0  0  0  0  0  0  0  0  0  0
  139.9800   69.2370  226.1540 C   0  0  0  0  0  0  0  0  0  0  0  0
  140.4910   69.6290  227.3890 C   0  0  0  0  0  0  0  0  0  0  0  0
  140.4470   68.5180  228.7250 Cl  0  0  0  0  0  0  0  0  0  0  0  0
  141.0350   70.8790  227.5910 C   0  0  0  0  0  0  0  0  0  0  0  0
  141.0690   71.7660  226.5230 C   0  0  0  0  0  0  0  0  0  0  0  0
  140.5590   71.3670  225.3010 C   0  0  0  0  0  0  0  0  0  0  0  0
  140.6100   72.2450  224.2970 N   0  0  0  0  0  0  0  0  0  0  0  0
  138.7260   74.2340  222.9000 H   0  0  0  0  0  0  0  0  0  0  0  0
  139.9127   74.7991  220.1603 H   0  0  0  0  0  0  0  0  0  0  0  0
  138.3989   75.4895  220.8057 H   0  0  0  0  0  0  0  0  0  0  0  0
  137.7276   77.6999  221.1959 H   0  0  0  0  0  0  0  0  0  0  0  0
  137.5443   76.6997  222.6188 H   0  0  0  0  0  0  0  0  0  0  0  0
  136.9996   79.4299  222.6476 H   0  0  0  0  0  0  0  0  0  0  0  0
  137.5829   78.6472  224.1012 H   0  0  0  0  0  0  0  0  0  0  0  0
  139.2443   80.1003  221.9079 H   0  0  0  0  0  0  0  0  0  0  0  0
  139.3085   80.4480  223.6030 H   0  0  0  0  0  0  0  0  0  0  0  0
  140.2919   78.2109  224.0891 H   0  0  0  0  0  0  0  0  0  0  0  0
  142.0731   77.9084  222.4208 H   0  0  0  0  0  0  0  0  0  0  0  0
  141.7049   79.1916  224.7245 H   0  0  0  0  0  0  0  0  0  0  0  0
  143.2627   79.3011  223.7324 H   0  0  0  0  0  0  0  0  0  0  0  0
  141.3636   81.3139  224.5382 H   0  0  0  0  0  0  0  0  0  0  0  0
  143.1597   81.3355  224.0262 H   0  0  0  0  0  0  0  0  0  0  0  0
  141.1900   82.4790  222.6130 H   0  0  0  0  0  0  0  0  0  0  0  0
  141.4436   81.5033  220.6201 H   0  0  0  0  0  0  0  0  0  0  0  0
  143.1284   81.0257  221.2528 H   0  0  0  0  0  0  0  0  0  0  0  0
  140.7393   79.4534  220.8024 H   0  0  0  0  0  0  0  0  0  0  0  0
  142.5527   79.0662  220.8570 H   0  0  0  0  0  0  0  0  0  0  0  0
  139.2194   70.5164  221.8196 H   0  0  0  0  0  0  0  0  0  0  0  0
  139.0842   68.8112  223.6401 H   0  0  0  0  0  0  0  0  0  0  0  0
  139.5531   68.2311  226.0279 H   0  0  0  0  0  0  0  0  0  0  0  0
  141.4330   71.1674  228.5751 H   0  0  0  0  0  0  0  0  0  0  0  0
  141.4957   72.7722  226.6473 H   0  0  0  0  0  0  0  0  0  0  0  0
  1  2  2  0
  2  3  1  0
  3  4  1  0
  4  5  1  0
  5  6  2  0
  5  7  1  0
  7  8  1  0
  8  9  1  0
  9 10  1  0
 10 11  1  0
 11 12  1  0
 12 13  1  0
 13 14  1  0
 14 15  1  0
 15 16  1  0
 16 17  1  0
  2 18  1  0
 18 19  2  0
 19 20  1  0
 20 21  2  0
 21 22  1  0
 22 23  2  0
 23 24  1  0
 23 25  1  0
 25 26  2  0
 26 27  1  0
 27 28  2  0
 11  7  1  0
 17 12  1  0
 28 18  1  0
 27 21  1  0
  3 29  1  0
  4 30  1  0
  4 31  1  0
  8 32  1  0
  8 33  1  0
  9 34  1  0
  9 35  1  0
 10 36  1  0
 10 37  1  0
 11 38  1  1
 12 39  1  0
 13 40  1  0
 13 41  1  0
 14 42  1  0
 14 43  1  0
 15 44  1  0
 16 45  1  0
 16 46  1  0
 17 47  1  0
 17 48  1  0
 19 49  1  0
 20 50  1  0
 22 51  1  0
 25 52  1  0
 26 53  1  0
M  END
>  <smiles>  (47) 
O=C(NCC(=O)N1CCCC1C1CCNCC1)c1ccc2cc(Cl)ccc2n1

>  <score_type>  (47) 
oracle

>  <origin>  (47) 
autodockgpu

>  <m_score__min__energy>  (47) 
-9.0099999999999998

>  <m_primary>  (47) 
energy

>  <rmsd>  (47) 
3.197767684801326

>  <m_score__min__rmsd>  (47) 
3.197767684801326

>  <meeko>  (47) 
{"free_energy": -8.87, "intermolecular_energy": -10.36, "internal_energy": -1.21, "cluster_size": 26, "cluster_id": 2, "rank_in_cluster": 1}

>  <energy>  (47) 
-8.47

>  <cluster_rmsd>  (47) 
0.12

>  <cluster>  (47) 
3

$$$$

     RDKit          3D

 53 56  0  0  0  0  0  0  0  0999 V2000
  138.0800   72.3340  221.0650 O   0  0  0  0  0  0  0  0  0  0  0  0
  138.9430   72.5890  221.9390 C   0  0  0  0  0  0  0  0  0  0  0  0
  139.7790   73.7240  221.9380 N   0  0  0  0  0  0  0  0  0  0  0  0
  139.6830   74.7070  220.8780 C   0  0  0  0  0  0  0  0  0  0  0  0
  140.8700   75.6000  220.9770 C   0  0  0  0  0  0  0  0  0  0  0  0
  141.8750   75.1280  221.5700 O   0  0  0  0  0  0  0  0  0  0  0  0
  140.8650   76.9310  220.4240 N   0  0  0  0  0  0  0  0  0  0  0  0
  141.5020   77.2120  219.1410 C   0  0  0  0  0  0  0  0  0  0  0  0
  141.2450   78.7140  218.9560 C   0  0  0  0  0  0  0  0  0  0  0  0
  141.1010   79.2210  220.4010 C   0  0  0  0  0  0  0  0  0  0  0  0
  140.2770   78.1260  220.9800 C   0  0  2  0  0  0  0  0  0  0  0  0
  140.1910   78.1470  222.4790 C   0  0  0  0  0  0  0  0  0  0  0  0
  139.1500   79.1680  222.8680 C   0  0  0  0  0  0  0  0  0  0  0  0
  139.6420   80.5290  223.1580 C   0  0  0  0  0  0  0  0  0  0  0  0
  141.0110   80.7090  223.4200 N   0  0  0  0  0  0  0  0  0  0  0  0
  141.7570   79.5980  223.8440 C   0  0  0  0  0  0  0  0  0  0  0  0
  141.4770   78.2830  223.2000 C   0  0  0  0  0  0  0  0  0  0  0  0
  139.0940   71.6320  223.0460 C   0  0  0  0  0  0  0  0  0  0  0  0
  138.4510   70.4050  223.0390 C   0  0  0  0  0  0  0  0  0  0  0  0
  138.5960   69.4980  224.0940 C   0  0  0  0  0  0  0  0  0  0  0  0
  139.3990   69.8470  225.1560 C   0  0  0  0  0  0  0  0  0  0  0  0
  139.6070   69.0160  226.2490 C   0  0  0  0  0  0  0  0  0  0  0  0
  140.4330   69.4360  227.2900 C   0  0  0  0  0  0  0  0  0  0  0  0
  140.6880   68.3900  228.6550 Cl  0  0  0  0  0  0  0  0  0  0  0  0
  141.0620   70.6610  227.2740 C   0  0  0  0  0  0  0  0  0  0  0  0
  140.8570   71.4950  226.1830 C   0  0  0  0  0  0  0  0  0  0  0  0
  140.0360   71.0710  225.1560 C   0  0  0  0  0  0  0  0  0  0  0  0
  139.8630   71.8980  224.1230 N   0  0  0  0  0  0  0  0  0  0  0  0
  140.4840   73.8620  222.7160 H   0  0  0  0  0  0  0  0  0  0  0  0
  139.6741   74.2033  219.9002 H   0  0  0  0  0  0  0  0  0  0  0  0
  138.7548   75.2891  220.9765 H   0  0  0  0  0  0  0  0  0  0  0  0
  142.5799   76.9960  219.1780 H   0  0  0  0  0  0  0  0  0  0  0  0
  141.1104   76.5982  218.3165 H   0  0  0  0  0  0  0  0  0  0  0  0
  142.0913   79.2004  218.4489 H   0  0  0  0  0  0  0  0  0  0  0  0
  140.3656   78.9296  218.3313 H   0  0  0  0  0  0  0  0  0  0  0  0
  142.0763   79.3064  220.9024 H   0  0  0  0  0  0  0  0  0  0  0  0
  140.6668   80.2271  220.4971 H   0  0  0  0  0  0  0  0  0  0  0  0
  139.2130   78.2178  220.7166 H   0  0  0  0  0  0  0  0  0  0  0  0
  139.8782   77.1473  222.8150 H   0  0  0  0  0  0  0  0  0  0  0  0
  138.4285   79.2421  222.0410 H   0  0  0  0  0  0  0  0  0  0  0  0
  138.7228   78.8039  223.8140 H   0  0  0  0  0  0  0  0  0  0  0  0
  139.3934   81.1555  222.2887 H   0  0  0  0  0  0  0  0  0  0  0  0
  139.1509   80.7948  224.1057 H   0  0  0  0  0  0  0  0  0  0  0  0
  141.4970   81.5110  223.0250 H   0  0  0  0  0  0  0  0  0  0  0  0
  142.8179   79.8295  223.6684 H   0  0  0  0  0  0  0  0  0  0  0  0
  141.4683   79.4570  224.8960 H   0  0  0  0  0  0  0  0  0  0  0  0
  142.2840   78.0886  222.4783 H   0  0  0  0  0  0  0  0  0  0  0  0
  141.4151   77.5655  224.0315 H   0  0  0  0  0  0  0  0  0  0  0  0
  137.8119   70.1379  222.1845 H   0  0  0  0  0  0  0  0  0  0  0  0
  138.0795   68.5270  224.0753 H   0  0  0  0  0  0  0  0  0  0  0  0
  139.1216   68.0299  226.2930 H   0  0  0  0  0  0  0  0  0  0  0  0
  141.7114   70.9714  228.1058 H   0  0  0  0  0  0  0  0  0  0  0  0
  141.3423   72.4811  226.1370 H   0  0  0  0  0  0  0  0  0  0  0  0
  1  2  2  0
  2  3  1  0
  3  4  1  0
  4  5  1  0
  5  6  2  0
  5  7  1  0
  7  8  1  0
  8  9  1  0
  9 10  1  0
 10 11  1  0
 11 12  1  0
 12 13  1  0
 13 14  1  0
 14 15  1  0
 15 16  1  0
 16 17  1  0
  2 18  1  0
 18 19  2  0
 19 20  1  0
 20 21  2  0
 21 22  1  0
 22 23  2  0
 23 24  1  0
 23 25  1  0
 25 26  2  0
 26 27  1  0
 27 28  2  0
 11  7  1  0
 17 12  1  0
 28 18  1  0
 27 21  1  0
  3 29  1  0
  4 30  1  0
  4 31  1  0
  8 32  1  0
  8 33  1  0
  9 34  1  0
  9 35  1  0
 10 36  1  0
 10 37  1  0
 11 38  1  6
 12 39  1  0
 13 40  1  0
 13 41  1  0
 14 42  1  0
 14 43  1  0
 15 44  1  0
 16 45  1  0
 16 46  1  0
 17 47  1  0
 17 48  1  0
 19 49  1  0
 20 50  1  0
 22 51  1  0
 25 52  1  0
 26 53  1  0
M  END
>  <smiles>  (48) 
O=C(NCC(=O)N1CCCC1C1CCNCC1)c1ccc2cc(Cl)ccc2n1

>  <score_type>  (48) 
oracle

>  <origin>  (48) 
autodockgpu

>  <m_score__min__energy>  (48) 
-9.0099999999999998

>  <m_primary>  (48) 
energy

>  <rmsd>  (48) 
2.1393883604300643

>  <m_score__min__rmsd>  (48) 
2.1393883604300643

>  <meeko>  (48) 
{"free_energy": -7.38, "intermolecular_energy": -8.87, "internal_energy": -2.1, "cluster_size": 26, "cluster_id": 2, "rank_in_cluster": 26}

>  <energy>  (48) 
-7.96

>  <cluster_rmsd>  (48) 
1.21

>  <cluster>  (48) 
3

$$$$

     RDKit          3D

 53 56  0  0  0  0  0  0  0  0999 V2000
  139.1790   71.8240  220.6570 O   0  0  0  0  0  0  0  0  0  0  0  0
  139.3310   72.3060  221.8050 C   0  0  0  0  0  0  0  0  0  0  0  0
  139.3630   73.6840  222.1010 N   0  0  0  0  0  0  0  0  0  0  0  0
  139.2150   74.6660  221.0470 C   0  0  0  0  0  0  0  0  0  0  0  0
  139.9140   75.9080  221.4800 C   0  0  0  0  0  0  0  0  0  0  0  0
  139.9030   76.1510  222.7150 O   0  0  0  0  0  0  0  0  0  0  0  0
  140.5640   76.7800  220.5340 N   0  0  0  0  0  0  0  0  0  0  0  0
  141.3150   76.2350  219.4070 C   0  0  0  0  0  0  0  0  0  0  0  0
  141.8090   77.4980  218.6870 C   0  0  0  0  0  0  0  0  0  0  0  0
  141.8570   78.5420  219.8150 C   0  0  0  0  0  0  0  0  0  0  0  0
  140.5880   78.2230  220.5210 C   0  0  2  0  0  0  0  0  0  0  0  0
  140.4550   78.8670  221.8710 C   0  0  0  0  0  0  0  0  0  0  0  0
  140.4050   80.3610  221.6660 C   0  0  0  0  0  0  0  0  0  0  0  0
  141.6910   81.0800  221.7620 C   0  0  0  0  0  0  0  0  0  0  0  0
  142.7770   80.4380  222.3820 N   0  0  0  0  0  0  0  0  0  0  0  0
  142.5070   79.3820  223.2660 C   0  0  0  0  0  0  0  0  0  0  0  0
  141.4250   78.4250  222.8990 C   0  0  0  0  0  0  0  0  0  0  0  0
  139.4870   71.3640  222.9230 C   0  0  0  0  0  0  0  0  0  0  0  0
  139.0480   70.0530  222.8370 C   0  0  0  0  0  0  0  0  0  0  0  0
  139.1980   69.1600  223.9030 C   0  0  0  0  0  0  0  0  0  0  0  0
  139.7980   69.6090  225.0580 C   0  0  0  0  0  0  0  0  0  0  0  0
  139.9930   68.8010  226.1700 C   0  0  0  0  0  0  0  0  0  0  0  0
  140.6080   69.3230  227.3060 C   0  0  0  0  0  0  0  0  0  0  0  0
  140.8480   68.3050  228.6940 Cl  0  0  0  0  0  0  0  0  0  0  0  0
  141.0370   70.6310  227.3680 C   0  0  0  0  0  0  0  0  0  0  0  0
  140.8440   71.4430  226.2580 C   0  0  0  0  0  0  0  0  0  0  0  0
  140.2330   70.9160  225.1360 C   0  0  0  0  0  0  0  0  0  0  0  0
  140.0650   71.7260  224.0890 N   0  0  0  0  0  0  0  0  0  0  0  0
  139.4980   74.0060  223.1000 H   0  0  0  0  0  0  0  0  0  0  0  0
  139.6654   74.2879  220.1174 H   0  0  0  0  0  0  0  0  0  0  0  0
  138.1506   74.8700  220.8588 H   0  0  0  0  0  0  0  0  0  0  0  0
  142.1589   75.6202  219.7531 H   0  0  0  0  0  0  0  0  0  0  0  0
  140.7172   75.5722  218.7642 H   0  0  0  0  0  0  0  0  0  0  0  0
  142.8067   77.3402  218.2515 H   0  0  0  0  0  0  0  0  0  0  0  0
  141.1662   77.7973  217.8460 H   0  0  0  0  0  0  0  0  0  0  0  0
  142.7324   78.3993  220.4656 H   0  0  0  0  0  0  0  0  0  0  0  0
  141.9476   79.5845  219.4760 H   0  0  0  0  0  0  0  0  0  0  0  0
  139.7078   78.6422  220.0115 H   0  0  0  0  0  0  0  0  0  0  0  0
  139.5141   78.5189  222.3222 H   0  0  0  0  0  0  0  0  0  0  0  0
  139.9911   80.5477  220.6641 H   0  0  0  0  0  0  0  0  0  0  0  0
  139.7908   80.7490  222.4920 H   0  0  0  0  0  0  0  0  0  0  0  0
  142.0024   81.3255  220.7360 H   0  0  0  0  0  0  0  0  0  0  0  0
  141.4723   81.9331  222.4211 H   0  0  0  0  0  0  0  0  0  0  0  0
  143.7070   80.5210  221.9770 H   0  0  0  0  0  0  0  0  0  0  0  0
  143.4347   78.8013  223.3757 H   0  0  0  0  0  0  0  0  0  0  0  0
  142.1423   79.8736  224.1800 H   0  0  0  0  0  0  0  0  0  0  0  0
  141.9055   77.5074  222.5288 H   0  0  0  0  0  0  0  0  0  0  0  0
  140.8311   78.3006  223.8165 H   0  0  0  0  0  0  0  0  0  0  0  0
  138.5703   69.7062  221.9088 H   0  0  0  0  0  0  0  0  0  0  0  0
  138.8443   68.1217  223.8204 H   0  0  0  0  0  0  0  0  0  0  0  0
  139.6629   67.7518  226.1542 H   0  0  0  0  0  0  0  0  0  0  0  0
  141.5208   71.0226  228.2750 H   0  0  0  0  0  0  0  0  0  0  0  0
  141.1733   72.4925  226.2717 H   0  0  0  0  0  0  0  0  0  0  0  0
  1  2  2  0
  2  3  1  0
  3  4  1  0
  4  5  1  0
  5  6  2  0
  5  7  1  0
  7  8  1  0
  8  9  1  0
  9 10  1  0
 10 11  1  0
 11 12  1  0
 12 13  1  0
 13 14  1  0
 14 15  1  0
 15 16  1  0
 16 17  1  0
  2 18  1  0
 18 19  2  0
 19 20  1  0
 20 21  2  0
 21 22  1  0
 22 23  2  0
 23 24  1  0
 23 25  1  0
 25 26  2  0
 26 27  1  0
 27 28  2  0
 11  7  1  0
 17 12  1  0
 28 18  1  0
 27 21  1  0
  3 29  1  0
  4 30  1  0
  4 31  1  0
  8 32  1  0
  8 33  1  0
  9 34  1  0
  9 35  1  0
 10 36  1  0
 10 37  1  0
 11 38  1  6
 12 39  1  0
 13 40  1  0
 13 41  1  0
 14 42  1  0
 14 43  1  0
 15 44  1  0
 16 45  1  0
 16 46  1  0
 17 47  1  0
 17 48  1  0
 19 49  1  0
 20 50  1  0
 22 51  1  0
 25 52  1  0
 26 53  1  0
M  END
>  <smiles>  (49) 
O=C(NCC(=O)N1CCCC1C1CCNCC1)c1ccc2cc(Cl)ccc2n1

>  <score_type>  (49) 
oracle

>  <origin>  (49) 
autodockgpu

>  <m_score__min__energy>  (49) 
-9.0099999999999998

>  <m_primary>  (49) 
energy

>  <rmsd>  (49) 
1.7343295055321823

>  <m_score__min__rmsd>  (49) 
1.7343295055321823

>  <meeko>  (49) 
{"free_energy": -8.57, "intermolecular_energy": -10.06, "internal_energy": -1.83, "cluster_size": 26, "cluster_id": 2, "rank_in_cluster": 7}

>  <energy>  (49) 
-8.29

>  <cluster_rmsd>  (49) 
0.0

>  <cluster>  (49) 
4

$$$$

     RDKit          3D

 53 56  0  0  0  0  0  0  0  0999 V2000
  140.8730   72.1750  220.7130 O   0  0  0  0  0  0  0  0  0  0  0  0
  140.3200   72.5880  221.7600 C   0  0  0  0  0  0  0  0  0  0  0  0
  139.8070   73.8890  221.9400 N   0  0  0  0  0  0  0  0  0  0  0  0
  139.8910   74.8670  220.8750 C   0  0  0  0  0  0  0  0  0  0  0  0
  139.8050   76.2200  221.4910 C   0  0  0  0  0  0  0  0  0  0  0  0
  139.2700   76.2810  222.6290 O   0  0  0  0  0  0  0  0  0  0  0  0
  140.3080   77.3910  220.8180 N   0  0  0  0  0  0  0  0  0  0  0  0
  140.7720   77.3200  219.4360 C   0  0  0  0  0  0  0  0  0  0  0  0
  141.1960   78.7670  219.1470 C   0  0  0  0  0  0  0  0  0  0  0  0
  141.5480   79.3100  220.5420 C   0  0  0  0  0  0  0  0  0  0  0  0
  140.4310   78.7330  221.3360 C   0  0  2  0  0  0  0  0  0  0  0  0
  140.6230   78.8200  222.8220 C   0  0  0  0  0  0  0  0  0  0  0  0
  139.7840   79.9670  223.3300 C   0  0  0  0  0  0  0  0  0  0  0  0
  140.4620   81.2730  223.4490 C   0  0  0  0  0  0  0  0  0  0  0  0
  141.8670   81.3050  223.4530 N   0  0  0  0  0  0  0  0  0  0  0  0
  142.5560   80.1340  223.8020 C   0  0  0  0  0  0  0  0  0  0  0  0
  142.0260   78.8360  223.2950 C   0  0  0  0  0  0  0  0  0  0  0  0
  140.2000   71.6470  222.8830 C   0  0  0  0  0  0  0  0  0  0  0  0
  139.5950   70.4100  222.7340 C   0  0  0  0  0  0  0  0  0  0  0  0
  139.4810   69.5170  223.8040 C   0  0  0  0  0  0  0  0  0  0  0  0
  139.9880   69.8900  225.0280 C   0  0  0  0  0  0  0  0  0  0  0  0
  139.9250   69.0750  226.1510 C   0  0  0  0  0  0  0  0  0  0  0  0
  140.4590   69.5180  227.3590 C   0  0  0  0  0  0  0  0  0  0  0  0
  140.3760   68.4910  228.7600 Cl  0  0  0  0  0  0  0  0  0  0  0  0
  141.0570   70.7530  227.4840 C   0  0  0  0  0  0  0  0  0  0  0  0
  141.1220   71.5720  226.3640 C   0  0  0  0  0  0  0  0  0  0  0  0
  140.5900   71.1230  225.1700 C   0  0  0  0  0  0  0  0  0  0  0  0
  140.6710   71.9360  224.1150 N   0  0  0  0  0  0  0  0  0  0  0  0
  139.3560   74.1560  222.8600 H   0  0  0  0  0  0  0  0  0  0  0  0
  140.8472   74.7586  220.3421 H   0  0  0  0  0  0  0  0  0  0  0  0
  139.0734   74.7207  220.1539 H   0  0  0  0  0  0  0  0  0  0  0  0
  141.6234   76.6303  219.3385 H   0  0  0  0  0  0  0  0  0  0  0  0
  140.0101   76.9411  218.7389 H   0  0  0  0  0  0  0  0  0  0  0  0
  142.0695   78.7970  218.4792 H   0  0  0  0  0  0  0  0  0  0  0  0
  140.4170   79.3533  218.6377 H   0  0  0  0  0  0  0  0  0  0  0  0
  142.5258   78.9433  220.8875 H   0  0  0  0  0  0  0  0  0  0  0  0
  141.6409   80.4044  220.6022 H   0  0  0  0  0  0  0  0  0  0  0  0
  139.4966   79.3021  221.2215 H   0  0  0  0  0  0  0  0  0  0  0  0
  140.2736   77.8755  223.2646 H   0  0  0  0  0  0  0  0  0  0  0  0
  138.9354   80.0918  222.6413 H   0  0  0  0  0  0  0  0  0  0  0  0
  139.5004   79.6900  224.3561 H   0  0  0  0  0  0  0  0  0  0  0  0
  140.1263   81.8906  222.6029 H   0  0  0  0  0  0  0  0  0  0  0  0
  140.1834   81.6287  224.4519 H   0  0  0  0  0  0  0  0  0  0  0  0
  142.3540   82.0320  222.9330 H   0  0  0  0  0  0  0  0  0  0  0  0
  143.5856   80.2359  223.4284 H   0  0  0  0  0  0  0  0  0  0  0  0
  142.4509   80.0671  224.8949 H   0  0  0  0  0  0  0  0  0  0  0  0
  142.6629   78.5235  222.4543 H   0  0  0  0  0  0  0  0  0  0  0  0
  142.0413   78.1627  224.1647 H   0  0  0  0  0  0  0  0  0  0  0  0
  139.1946   70.1232  221.7504 H   0  0  0  0  0  0  0  0  0  0  0  0
  138.9969   68.5383  223.6705 H   0  0  0  0  0  0  0  0  0  0  0  0
  139.4548   68.0826  226.0867 H   0  0  0  0  0  0  0  0  0  0  0  0
  141.4730   71.0824  228.4476 H   0  0  0  0  0  0  0  0  0  0  0  0
  141.5908   72.5651  226.4265 H   0  0  0  0  0  0  0  0  0  0  0  0
  1  2  2  0
  2  3  1  0
  3  4  1  0
  4  5  1  0
  5  6  2  0
  5  7  1  0
  7  8  1  0
  8  9  1  0
  9 10  1  0
 10 11  1  0
 11 12  1  0
 12 13  1  0
 13 14  1  0
 14 15  1  0
 15 16  1  0
 16 17  1  0
  2 18  1  0
 18 19  2  0
 19 20  1  0
 20 21  2  0
 21 22  1  0
 22 23  2  0
 23 24  1  0
 23 25  1  0
 25 26  2  0
 26 27  1  0
 27 28  2  0
 11  7  1  0
 17 12  1  0
 28 18  1  0
 27 21  1  0
  3 29  1  0
  4 30  1  0
  4 31  1  0
  8 32  1  0
  8 33  1  0
  9 34  1  0
  9 35  1  0
 10 36  1  0
 10 37  1  0
 11 38  1  1
 12 39  1  0
 13 40  1  0
 13 41  1  0
 14 42  1  0
 14 43  1  0
 15 44  1  0
 16 45  1  0
 16 46  1  0
 17 47  1  0
 17 48  1  0
 19 49  1  0
 20 50  1  0
 22 51  1  0
 25 52  1  0
 26 53  1  0
M  END
>  <smiles>  (50) 
O=C(NCC(=O)N1CCCC1C1CCNCC1)c1ccc2cc(Cl)ccc2n1

>  <score_type>  (50) 
oracle

>  <origin>  (50) 
autodockgpu

>  <m_score__min__energy>  (50) 
-9.0099999999999998

>  <m_primary>  (50) 
energy

>  <rmsd>  (50) 
2.2299054744915616

>  <m_score__min__rmsd>  (50) 
2.2299054744915616

>  <meeko>  (50) 
{"free_energy": -8.42, "intermolecular_energy": -9.91, "internal_energy": -1.83, "cluster_size": 26, "cluster_id": 2, "rank_in_cluster": 17}

>  <energy>  (50) 
-6.93

>  <cluster_rmsd>  (50) 
0.0

>  <cluster>  (50) 
5

$$$$

     RDKit          3D

 53 56  0  0  0  0  0  0  0  0999 V2000
  140.7570   72.1530  220.7070 O   0  0  0  0  0  0  0  0  0  0  0  0
  140.3310   72.5730  221.8350 C   0  0  0  0  0  0  0  0  0  0  0  0
  139.9410   73.9560  221.9920 N   0  0  0  0  0  0  0  0  0  0  0  0
  140.0150   74.8980  220.9300 C   0  0  0  0  0  0  0  0  0  0  0  0
  141.2080   75.7410  220.8130 C   0  0  0  0  0  0  0  0  0  0  0  0
  141.4450   76.4620  221.8710 O   0  0  0  0  0  0  0  0  0  0  0  0
  142.1120   75.8770  219.7530 N   0  0  0  0  0  0  0  0  0  0  0  0
  142.8610   76.9970  219.2230 C   0  0  0  0  0  0  0  0  0  0  0  0
  142.9710   76.7890  217.7250 C   0  0  0  0  0  0  0  0  0  0  0  0
  142.8450   75.2900  217.5690 C   0  0  0  0  0  0  0  0  0  0  0  0
  142.5050   74.7460  218.8970 C   0  0  1  0  0  0  0  0  0  0  0  0
  143.5030   73.8420  219.5120 C   0  0  0  0  0  0  0  0  0  0  0  0
  144.3960   73.1200  218.4970 C   0  0  0  0  0  0  0  0  0  0  0  0
  144.9790   71.9300  219.2350 C   0  0  0  0  0  0  0  0  0  0  0  0
  145.3970   72.3050  220.5460 N   0  0  0  0  0  0  0  0  0  0  0  0
  145.6960   73.7050  220.7060 C   0  0  0  0  0  0  0  0  0  0  0  0
  144.4610   74.5230  220.4630 C   0  0  0  0  0  0  0  0  0  0  0  0
  140.2360   71.6450  222.9810 C   0  0  0  0  0  0  0  0  0  0  0  0
  139.6620   70.4110  222.7760 C   0  0  0  0  0  0  0  0  0  0  0  0
  139.5780   69.5520  223.8530 C   0  0  0  0  0  0  0  0  0  0  0  0
  140.0460   69.8980  225.0980 C   0  0  0  0  0  0  0  0  0  0  0  0
  139.9850   69.0780  226.2000 C   0  0  0  0  0  0  0  0  0  0  0  0
  140.4650   69.4530  227.4430 C   0  0  0  0  0  0  0  0  0  0  0  0
  140.3600   68.3710  228.8010 Cl  0  0  0  0  0  0  0  0  0  0  0  0
  141.0290   70.7050  227.5820 C   0  0  0  0  0  0  0  0  0  0  0  0
  141.0930   71.5250  226.4880 C   0  0  0  0  0  0  0  0  0  0  0  0
  140.6160   71.1600  225.2460 C   0  0  0  0  0  0  0  0  0  0  0  0
  140.6990   71.9990  224.1940 N   0  0  0  0  0  0  0  0  0  0  0  0
  139.5970   74.1870  222.9720 H   0  0  0  0  0  0  0  0  0  0  0  0
  139.9256   74.3330  219.9905 H   0  0  0  0  0  0  0  0  0  0  0  0
  139.2074   75.6112  221.1517 H   0  0  0  0  0  0  0  0  0  0  0  0
  142.3335   77.9385  219.4358 H   0  0  0  0  0  0  0  0  0  0  0  0
  143.8576   77.0561  219.6849 H   0  0  0  0  0  0  0  0  0  0  0  0
  142.1599   77.3095  217.1948 H   0  0  0  0  0  0  0  0  0  0  0  0
  143.9057   77.1875  217.3036 H   0  0  0  0  0  0  0  0  0  0  0  0
  142.0497   75.0507  216.8477 H   0  0  0  0  0  0  0  0  0  0  0  0
  143.7827   74.8539  217.1941 H   0  0  0  0  0  0  0  0  0  0  0  0
  141.6626   74.0503  218.7694 H   0  0  0  0  0  0  0  0  0  0  0  0
  142.8536   73.1353  220.0495 H   0  0  0  0  0  0  0  0  0  0  0  0
  143.8016   72.7828  217.6350 H   0  0  0  0  0  0  0  0  0  0  0  0
  145.1839   73.7813  218.1074 H   0  0  0  0  0  0  0  0  0  0  0  0
  144.2147   71.1426  219.3112 H   0  0  0  0  0  0  0  0  0  0  0  0
  145.8526   71.5615  218.6773 H   0  0  0  0  0  0  0  0  0  0  0  0
  144.8290   71.9440  221.3150 H   0  0  0  0  0  0  0  0  0  0  0  0
  146.0578   73.8860  221.7289 H   0  0  0  0  0  0  0  0  0  0  0  0
  146.4705   73.9948  219.9806 H   0  0  0  0  0  0  0  0  0  0  0  0
  143.9502   74.6871  221.4233 H   0  0  0  0  0  0  0  0  0  0  0  0
  144.7707   75.4747  220.0065 H   0  0  0  0  0  0  0  0  0  0  0  0
  139.2825   70.1188  221.7858 H   0  0  0  0  0  0  0  0  0  0  0  0
  139.1228   68.5608  223.7106 H   0  0  0  0  0  0  0  0  0  0  0  0
  139.5351   68.0804  226.0890 H   0  0  0  0  0  0  0  0  0  0  0  0
  141.4201   71.0379  228.5547 H   0  0  0  0  0  0  0  0  0  0  0  0
  141.5456   72.5208  226.6044 H   0  0  0  0  0  0  0  0  0  0  0  0
  1  2  2  0
  2  3  1  0
  3  4  1  0
  4  5  1  0
  5  6  2  0
  5  7  1  0
  7  8  1  0
  8  9  1  0
  9 10  1  0
 10 11  1  0
 11 12  1  0
 12 13  1  0
 13 14  1  0
 14 15  1  0
 15 16  1  0
 16 17  1  0
  2 18  1  0
 18 19  2  0
 19 20  1  0
 20 21  2  0
 21 22  1  0
 22 23  2  0
 23 24  1  0
 23 25  1  0
 25 26  2  0
 26 27  1  0
 27 28  2  0
 11  7  1  0
 17 12  1  0
 28 18  1  0
 27 21  1  0
  3 29  1  0
  4 30  1  0
  4 31  1  0
  8 32  1  0
  8 33  1  0
  9 34  1  0
  9 35  1  0
 10 36  1  0
 10 37  1  0
 11 38  1  6
 12 39  1  0
 13 40  1  0
 13 41  1  0
 14 42  1  0
 14 43  1  0
 15 44  1  0
 16 45  1  0
 16 46  1  0
 17 47  1  0
 17 48  1  0
 19 49  1  0
 20 50  1  0
 22 51  1  0
 25 52  1  0
 26 53  1  0
M  END
>  <smiles>  (51) 
O=C(NCC(=O)N1CCCC1C1CCNCC1)c1ccc2cc(Cl)ccc2n1

>  <score_type>  (51) 
oracle

>  <origin>  (51) 
autodockgpu

>  <m_score__min__energy>  (51) 
-8.6300000000000008

>  <m_primary>  (51) 
energy

>  <rmsd>  (51) 
2.466792247200284

>  <m_score__min__rmsd>  (51) 
2.466792247200284

>  <meeko>  (51) 
{"free_energy": -8.1, "intermolecular_energy": -9.59, "internal_energy": -1.6, "cluster_size": 9, "cluster_id": 2, "rank_in_cluster": 5}

>  <energy>  (51) 
-8.63

>  <cluster_rmsd>  (51) 
0.0

>  <cluster>  (51) 
1

$$$$

     RDKit          3D

 53 56  0  0  0  0  0  0  0  0999 V2000
  139.9410   73.7590  222.3770 O   0  0  0  0  0  0  0  0  0  0  0  0
  139.9160   72.5040  222.1440 C   0  0  0  0  0  0  0  0  0  0  0  0
  139.8280   72.0220  220.7840 N   0  0  0  0  0  0  0  0  0  0  0  0
  139.7610   72.8960  219.6650 C   0  0  0  0  0  0  0  0  0  0  0  0
  140.9880   73.5470  219.1990 C   0  0  0  0  0  0  0  0  0  0  0  0
  141.5470   72.9470  218.1880 O   0  0  0  0  0  0  0  0  0  0  0  0
  141.6300   74.6980  219.6710 N   0  0  0  0  0  0  0  0  0  0  0  0
  141.4600   75.5170  220.8530 C   0  0  0  0  0  0  0  0  0  0  0  0
  141.7790   76.9440  220.4550 C   0  0  0  0  0  0  0  0  0  0  0  0
  142.7080   76.7800  219.2720 C   0  0  0  0  0  0  0  0  0  0  0  0
  142.7380   75.3410  218.9460 C   0  0  1  0  0  0  0  0  0  0  0  0
  144.0410   74.6590  219.1050 C   0  0  0  0  0  0  0  0  0  0  0  0
  144.1450   73.8060  220.3740 C   0  0  0  0  0  0  0  0  0  0  0  0
  145.6290   73.6040  220.6130 C   0  0  0  0  0  0  0  0  0  0  0  0
  146.3010   73.3060  219.3910 N   0  0  0  0  0  0  0  0  0  0  0  0
  145.4640   72.7400  218.3650 C   0  0  0  0  0  0  0  0  0  0  0  0
  144.3990   73.7220  217.9730 C   0  0  0  0  0  0  0  0  0  0  0  0
  139.9750   71.5420  223.2640 C   0  0  0  0  0  0  0  0  0  0  0  0
  139.5240   70.2590  223.0470 C   0  0  0  0  0  0  0  0  0  0  0  0
  139.5840   69.3680  224.1000 C   0  0  0  0  0  0  0  0  0  0  0  0
  140.0730   69.7300  225.3320 C   0  0  0  0  0  0  0  0  0  0  0  0
  140.1530   68.8800  226.4100 C   0  0  0  0  0  0  0  0  0  0  0  0
  140.6510   69.2710  227.6410 C   0  0  0  0  0  0  0  0  0  0  0  0
  140.7270   68.1490  228.9680 Cl  0  0  0  0  0  0  0  0  0  0  0  0
  141.0870   70.5720  227.7920 C   0  0  0  0  0  0  0  0  0  0  0  0
  141.0110   71.4220  226.7230 C   0  0  0  0  0  0  0  0  0  0  0  0
  140.5150   71.0410  225.4920 C   0  0  0  0  0  0  0  0  0  0  0  0
  140.4570   71.9110  224.4650 N   0  0  0  0  0  0  0  0  0  0  0  0
  139.8210   70.9600  220.7120 H   0  0  0  0  0  0  0  0  0  0  0  0
  139.3662   72.3105  218.8216 H   0  0  0  0  0  0  0  0  0  0  0  0
  139.1370   73.7302  220.0182 H   0  0  0  0  0  0  0  0  0  0  0  0
  140.4231   75.4486  221.2137 H   0  0  0  0  0  0  0  0  0  0  0  0
  142.1230   75.1786  221.6629 H   0  0  0  0  0  0  0  0  0  0  0  0
  140.8660   77.4853  220.1662 H   0  0  0  0  0  0  0  0  0  0  0  0
  142.2255   77.5280  221.2733 H   0  0  0  0  0  0  0  0  0  0  0  0
  142.3314   77.3546  218.4129 H   0  0  0  0  0  0  0  0  0  0  0  0
  143.7161   77.1509  219.5090 H   0  0  0  0  0  0  0  0  0  0  0  0
  142.5954   75.2389  217.8601 H   0  0  0  0  0  0  0  0  0  0  0  0
  144.7309   75.5151  219.1384 H   0  0  0  0  0  0  0  0  0  0  0  0
  143.6871   74.3293  221.2263 H   0  0  0  0  0  0  0  0  0  0  0  0
  143.6178   72.8470  220.2626 H   0  0  0  0  0  0  0  0  0  0  0  0
  146.0536   74.5228  221.0437 H   0  0  0  0  0  0  0  0  0  0  0  0
  145.7637   72.7599  221.3053 H   0  0  0  0  0  0  0  0  0  0  0  0
  146.9090   74.0420  219.0270 H   0  0  0  0  0  0  0  0  0  0  0  0
  146.0787   72.4985  217.4853 H   0  0  0  0  0  0  0  0  0  0  0  0
  144.9887   71.8257  218.7498 H   0  0  0  0  0  0  0  0  0  0  0  0
  144.7618   74.3170  217.1219 H   0  0  0  0  0  0  0  0  0  0  0  0
  143.4960   73.1527  217.7076 H   0  0  0  0  0  0  0  0  0  0  0  0
  139.1289   69.9540  222.0668 H   0  0  0  0  0  0  0  0  0  0  0  0
  139.2298   68.3377  223.9481 H   0  0  0  0  0  0  0  0  0  0  0  0
  139.8058   67.8433  226.2887 H   0  0  0  0  0  0  0  0  0  0  0  0
  141.4886   70.9192  228.7554 H   0  0  0  0  0  0  0  0  0  0  0  0
  141.3612   72.4570  226.8499 H   0  0  0  0  0  0  0  0  0  0  0  0
  1  2  2  0
  2  3  1  0
  3  4  1  0
  4  5  1  0
  5  6  2  0
  5  7  1  0
  7  8  1  0
  8  9  1  0
  9 10  1  0
 10 11  1  0
 11 12  1  0
 12 13  1  0
 13 14  1  0
 14 15  1  0
 15 16  1  0
 16 17  1  0
  2 18  1  0
 18 19  2  0
 19 20  1  0
 20 21  2  0
 21 22  1  0
 22 23  2  0
 23 24  1  0
 23 25  1  0
 25 26  2  0
 26 27  1  0
 27 28  2  0
 11  7  1  0
 17 12  1  0
 28 18  1  0
 27 21  1  0
  3 29  1  0
  4 30  1  0
  4 31  1  0
  8 32  1  0
  8 33  1  0
  9 34  1  0
  9 35  1  0
 10 36  1  0
 10 37  1  0
 11 38  1  6
 12 39  1  0
 13 40  1  0
 13 41  1  0
 14 42  1  0
 14 43  1  0
 15 44  1  0
 16 45  1  0
 16 46  1  0
 17 47  1  0
 17 48  1  0
 19 49  1  0
 20 50  1  0
 22 51  1  0
 25 52  1  0
 26 53  1  0
M  END
>  <smiles>  (52) 
O=C(NCC(=O)N1CCCC1C1CCNCC1)c1ccc2cc(Cl)ccc2n1

>  <score_type>  (52) 
oracle

>  <origin>  (52) 
autodockgpu

>  <m_score__min__energy>  (52) 
-8.6300000000000008

>  <m_primary>  (52) 
energy

>  <rmsd>  (52) 
2.3930519521191784

>  <m_score__min__rmsd>  (52) 
2.3930519521191784

>  <meeko>  (52) 
{"free_energy": -8.61, "intermolecular_energy": -10.11, "internal_energy": -1.27, "cluster_size": 9, "cluster_id": 2, "rank_in_cluster": 1}

>  <energy>  (52) 
-8.23

>  <cluster_rmsd>  (52) 
1.41

>  <cluster>  (52) 
1

$$$$

     RDKit          3D

 53 56  0  0  0  0  0  0  0  0999 V2000
  139.3670   72.0960  220.8250 O   0  0  0  0  0  0  0  0  0  0  0  0
  139.4940   72.5110  222.0260 C   0  0  0  0  0  0  0  0  0  0  0  0
  139.4440   73.9270  222.3120 N   0  0  0  0  0  0  0  0  0  0  0  0
  139.2640   74.9070  221.2980 C   0  0  0  0  0  0  0  0  0  0  0  0
  138.8000   76.2430  221.6800 C   0  0  0  0  0  0  0  0  0  0  0  0
  138.1660   76.2720  222.8160 O   0  0  0  0  0  0  0  0  0  0  0  0
  138.9390   77.4670  221.0150 N   0  0  0  0  0  0  0  0  0  0  0  0
  138.0390   78.5730  220.7680 C   0  0  0  0  0  0  0  0  0  0  0  0
  138.4040   79.1520  219.4160 C   0  0  0  0  0  0  0  0  0  0  0  0
  139.8600   78.7740  219.2540 C   0  0  0  0  0  0  0  0  0  0  0  0
  140.2010   77.8840  220.3800 C   0  0  1  0  0  0  0  0  0  0  0  0
  141.2160   78.3880  221.3300 C   0  0  0  0  0  0  0  0  0  0  0  0
  141.2160   79.9130  221.4910 C   0  0  0  0  0  0  0  0  0  0  0  0
  142.5690   80.2650  222.0770 C   0  0  0  0  0  0  0  0  0  0  0  0
  142.9240   79.3520  223.1130 N   0  0  0  0  0  0  0  0  0  0  0  0
  141.8100   78.6900  223.7420 C   0  0  0  0  0  0  0  0  0  0  0  0
  141.0820   77.8460  222.7360 C   0  0  0  0  0  0  0  0  0  0  0  0
  139.6920   71.5430  223.1250 C   0  0  0  0  0  0  0  0  0  0  0  0
  139.3620   70.2250  222.9020 C   0  0  0  0  0  0  0  0  0  0  0  0
  139.5500   69.3290  223.9350 C   0  0  0  0  0  0  0  0  0  0  0  0
  140.0490   69.7200  225.1550 C   0  0  0  0  0  0  0  0  0  0  0  0
  140.2540   68.8660  226.2120 C   0  0  0  0  0  0  0  0  0  0  0  0
  140.7580   69.2870  227.4310 C   0  0  0  0  0  0  0  0  0  0  0  0
  140.9960   68.1580  228.7340 Cl  0  0  0  0  0  0  0  0  0  0  0  0
  141.0700   70.6230  227.5900 C   0  0  0  0  0  0  0  0  0  0  0  0
  140.8680   71.4770  226.5400 C   0  0  0  0  0  0  0  0  0  0  0  0
  140.3650   71.0660  225.3220 C   0  0  0  0  0  0  0  0  0  0  0  0
  140.1810   71.9410  224.3140 N   0  0  0  0  0  0  0  0  0  0  0  0
  139.5540   74.1520  223.3460 H   0  0  0  0  0  0  0  0  0  0  0  0
  140.2342   75.0335  220.7953 H   0  0  0  0  0  0  0  0  0  0  0  0
  138.4433   74.5065  220.6847 H   0  0  0  0  0  0  0  0  0  0  0  0
  136.9982   78.2172  220.7574 H   0  0  0  0  0  0  0  0  0  0  0  0
  138.1290   79.3343  221.5569 H   0  0  0  0  0  0  0  0  0  0  0  0
  137.7907   78.7069  218.6187 H   0  0  0  0  0  0  0  0  0  0  0  0
  138.2324   80.2367  219.3530 H   0  0  0  0  0  0  0  0  0  0  0  0
  140.0104   78.2497  218.2988 H   0  0  0  0  0  0  0  0  0  0  0  0
  140.5005   79.6683  219.2519 H   0  0  0  0  0  0  0  0  0  0  0  0
  140.7310   77.0114  219.9705 H   0  0  0  0  0  0  0  0  0  0  0  0
  142.1453   78.0338  220.8600 H   0  0  0  0  0  0  0  0  0  0  0  0
  141.0824   80.4015  220.5145 H   0  0  0  0  0  0  0  0  0  0  0  0
  140.3934   80.2524  222.1376 H   0  0  0  0  0  0  0  0  0  0  0  0
  143.3285   80.2222  221.2825 H   0  0  0  0  0  0  0  0  0  0  0  0
  142.5169   81.2783  222.5020 H   0  0  0  0  0  0  0  0  0  0  0  0
  143.6810   78.7010  222.8930 H   0  0  0  0  0  0  0  0  0  0  0  0
  142.1791   78.0494  224.5565 H   0  0  0  0  0  0  0  0  0  0  0  0
  141.1210   79.4462  224.1463 H   0  0  0  0  0  0  0  0  0  0  0  0
  141.4952   76.8269  222.7635 H   0  0  0  0  0  0  0  0  0  0  0  0
  140.0141   77.8528  222.9997 H   0  0  0  0  0  0  0  0  0  0  0  0
  138.9613   69.8966  221.9316 H   0  0  0  0  0  0  0  0  0  0  0  0
  139.2931   68.2711  223.7775 H   0  0  0  0  0  0  0  0  0  0  0  0
  140.0070   67.8018  226.0841 H   0  0  0  0  0  0  0  0  0  0  0  0
  141.4737   70.9940  228.5436 H   0  0  0  0  0  0  0  0  0  0  0  0
  141.1180   72.5400  226.6727 H   0  0  0  0  0  0  0  0  0  0  0  0
  1  2  2  0
  2  3  1  0
  3  4  1  0
  4  5  1  0
  5  6  2  0
  5  7  1  0
  7  8  1  0
  8  9  1  0
  9 10  1  0
 10 11  1  0
 11 12  1  0
 12 13  1  0
 13 14  1  0
 14 15  1  0
 15 16  1  0
 16 17  1  0
  2 18  1  0
 18 19  2  0
 19 20  1  0
 20 21  2  0
 21 22  1  0
 22 23  2  0
 23 24  1  0
 23 25  1  0
 25 26  2  0
 26 27  1  0
 27 28  2  0
 11  7  1  0
 17 12  1  0
 28 18  1  0
 27 21  1  0
  3 29  1  0
  4 30  1  0
  4 31  1  0
  8 32  1  0
  8 33  1  0
  9 34  1  0
  9 35  1  0
 10 36  1  0
 10 37  1  0
 11 38  1  6
 12 39  1  0
 13 40  1  0
 13 41  1  0
 14 42  1  0
 14 43  1  0
 15 44  1  0
 16 45  1  0
 16 46  1  0
 17 47  1  0
 17 48  1  0
 19 49  1  0
 20 50  1  0
 22 51  1  0
 25 52  1  0
 26 53  1  0
M  END
>  <smiles>  (53) 
O=C(NCC(=O)N1CCCC1C1CCNCC1)c1ccc2cc(Cl)ccc2n1

>  <score_type>  (53) 
oracle

>  <origin>  (53) 
autodockgpu

>  <m_score__min__energy>  (53) 
-8.6300000000000008

>  <m_primary>  (53) 
energy

>  <rmsd>  (53) 
2.1884631541962283

>  <m_score__min__rmsd>  (53) 
2.1884631541962283

>  <meeko>  (53) 
{"free_energy": -8.02, "intermolecular_energy": -9.51, "internal_energy": -1.5, "cluster_size": 23, "cluster_id": 1, "rank_in_cluster": 11}

>  <energy>  (53) 
-8.2

>  <cluster_rmsd>  (53) 
1.27

>  <cluster>  (53) 
1

$$$$

     RDKit          3D

 53 56  0  0  0  0  0  0  0  0999 V2000
  134.1720   69.2530  226.4830 O   0  0  0  0  0  0  0  0  0  0  0  0
  134.4470   70.3690  225.9270 C   0  0  0  0  0  0  0  0  0  0  0  0
  135.4370   70.4280  224.8750 N   0  0  0  0  0  0  0  0  0  0  0  0
  136.1430   69.2800  224.4220 C   0  0  0  0  0  0  0  0  0  0  0  0
  137.6080   69.3050  224.4160 C   0  0  0  0  0  0  0  0  0  0  0  0
  138.1520   68.1740  224.7620 O   0  0  0  0  0  0  0  0  0  0  0  0
  138.4880   70.3460  224.0970 N   0  0  0  0  0  0  0  0  0  0  0  0
  138.3610   71.5450  223.2950 C   0  0  0  0  0  0  0  0  0  0  0  0
  139.7120   71.8000  222.6590 C   0  0  0  0  0  0  0  0  0  0  0  0
  140.6800   71.1270  223.6070 C   0  0  0  0  0  0  0  0  0  0  0  0
  139.8700   70.3970  224.6010 C   0  0  1  0  0  0  0  0  0  0  0  0
  139.9840   70.8540  226.0040 C   0  0  0  0  0  0  0  0  0  0  0  0
  140.2570   69.7260  227.0050 C   0  0  0  0  0  0  0  0  0  0  0  0
  139.8630   70.2760  228.3620 C   0  0  0  0  0  0  0  0  0  0  0  0
  140.3280   71.6150  228.5180 N   0  0  0  0  0  0  0  0  0  0  0  0
  141.4580   71.9610  227.6940 C   0  0  0  0  0  0  0  0  0  0  0  0
  141.0820   71.8660  226.2440 C   0  0  0  0  0  0  0  0  0  0  0  0
  133.7540   71.6010  226.3570 C   0  0  0  0  0  0  0  0  0  0  0  0
  132.5810   71.4760  227.0670 C   0  0  0  0  0  0  0  0  0  0  0  0
  131.9410   72.6320  227.4640 C   0  0  0  0  0  0  0  0  0  0  0  0
  132.4430   73.8790  227.1700 C   0  0  0  0  0  0  0  0  0  0  0  0
  131.8430   75.0580  227.5440 C   0  0  0  0  0  0  0  0  0  0  0  0
  132.3700   76.3000  227.2350 C   0  0  0  0  0  0  0  0  0  0  0  0
  131.5650   77.7590  227.7360 Cl  0  0  0  0  0  0  0  0  0  0  0  0
  133.5500   76.3560  226.5210 C   0  0  0  0  0  0  0  0  0  0  0  0
  134.1520   75.1850  226.1470 C   0  0  0  0  0  0  0  0  0  0  0  0
  133.6330   73.9430  226.4500 C   0  0  0  0  0  0  0  0  0  0  0  0
  134.2570   72.8140  226.0620 N   0  0  0  0  0  0  0  0  0  0  0  0
  135.5770   71.4080  224.4830 H   0  0  0  0  0  0  0  0  0  0  0  0
  135.8373   68.4397  225.0627 H   0  0  0  0  0  0  0  0  0  0  0  0
  135.8755   69.2081  223.3575 H   0  0  0  0  0  0  0  0  0  0  0  0
  137.5985   71.3988  222.5157 H   0  0  0  0  0  0  0  0  0  0  0  0
  138.0521   72.3998  223.9146 H   0  0  0  0  0  0  0  0  0  0  0  0
  139.7661   71.3502  221.6566 H   0  0  0  0  0  0  0  0  0  0  0  0
  139.9243   72.8700  222.5174 H   0  0  0  0  0  0  0  0  0  0  0  0
  141.3237   70.4260  223.0555 H   0  0  0  0  0  0  0  0  0  0  0  0
  141.3301   71.8671  224.0964 H   0  0  0  0  0  0  0  0  0  0  0  0
  140.2832   69.3816  224.6909 H   0  0  0  0  0  0  0  0  0  0  0  0
  138.9935   71.3038  226.1671 H   0  0  0  0  0  0  0  0  0  0  0  0
  139.6517   68.8409  226.7596 H   0  0  0  0  0  0  0  0  0  0  0  0
  141.3111   69.4123  226.9850 H   0  0  0  0  0  0  0  0  0  0  0  0
  138.7669   70.2616  228.4530 H   0  0  0  0  0  0  0  0  0  0  0  0
  140.3193   69.6501  229.1431 H   0  0  0  0  0  0  0  0  0  0  0  0
  139.6090   72.3410  228.5060 H   0  0  0  0  0  0  0  0  0  0  0  0
  141.7742   72.9896  227.9220 H   0  0  0  0  0  0  0  0  0  0  0  0
  142.2833   71.2636  227.9002 H   0  0  0  0  0  0  0  0  0  0  0  0
  140.7354   72.8525  225.9025 H   0  0  0  0  0  0  0  0  0  0  0  0
  141.9712   71.5387  225.6852 H   0  0  0  0  0  0  0  0  0  0  0  0
  132.1673   70.4861  227.3100 H   0  0  0  0  0  0  0  0  0  0  0  0
  131.0022   72.5546  228.0320 H   0  0  0  0  0  0  0  0  0  0  0  0
  130.9031   75.0123  228.1137 H   0  0  0  0  0  0  0  0  0  0  0  0
  133.9988   77.3250  226.2571 H   0  0  0  0  0  0  0  0  0  0  0  0
  135.0925   75.2365  225.5789 H   0  0  0  0  0  0  0  0  0  0  0  0
  1  2  2  0
  2  3  1  0
  3  4  1  0
  4  5  1  0
  5  6  2  0
  5  7  1  0
  7  8  1  0
  8  9  1  0
  9 10  1  0
 10 11  1  0
 11 12  1  0
 12 13  1  0
 13 14  1  0
 14 15  1  0
 15 16  1  0
 16 17  1  0
  2 18  1  0
 18 19  2  0
 19 20  1  0
 20 21  2  0
 21 22  1  0
 22 23  2  0
 23 24  1  0
 23 25  1  0
 25 26  2  0
 26 27  1  0
 27 28  2  0
 11  7  1  0
 17 12  1  0
 28 18  1  0
 27 21  1  0
  3 29  1  0
  4 30  1  0
  4 31  1  0
  8 32  1  0
  8 33  1  0
  9 34  1  0
  9 35  1  0
 10 36  1  0
 10 37  1  0
 11 38  1  1
 12 39  1  0
 13 40  1  0
 13 41  1  0
 14 42  1  0
 14 43  1  0
 15 44  1  0
 16 45  1  0
 16 46  1  0
 17 47  1  0
 17 48  1  0
 19 49  1  0
 20 50  1  0
 22 51  1  0
 25 52  1  0
 26 53  1  0
M  END
>  <smiles>  (54) 
O=C(NCC(=O)N1CCCC1C1CCNCC1)c1ccc2cc(Cl)ccc2n1

>  <score_type>  (54) 
oracle

>  <origin>  (54) 
autodockgpu

>  <m_score__min__energy>  (54) 
-8.6300000000000008

>  <m_primary>  (54) 
energy

>  <rmsd>  (54) 
7.761114236684588

>  <m_score__min__rmsd>  (54) 
7.761114236684588

>  <meeko>  (54) 
{"free_energy": -8.43, "intermolecular_energy": -9.92, "internal_energy": -1.52, "cluster_size": 7, "cluster_id": 3, "rank_in_cluster": 3}

>  <energy>  (54) 
-8.14

>  <cluster_rmsd>  (54) 
1.13

>  <cluster>  (54) 
1

$$$$

     RDKit          3D

 53 56  0  0  0  0  0  0  0  0999 V2000
  138.9940   72.0470  220.7430 O   0  0  0  0  0  0  0  0  0  0  0  0
  139.6730   72.3880  221.7690 C   0  0  0  0  0  0  0  0  0  0  0  0
  140.3460   73.6660  221.7990 N   0  0  0  0  0  0  0  0  0  0  0  0
  140.2970   74.5830  220.7140 C   0  0  0  0  0  0  0  0  0  0  0  0
  141.3720   75.5690  220.5690 C   0  0  0  0  0  0  0  0  0  0  0  0
  141.4440   76.4130  221.5580 O   0  0  0  0  0  0  0  0  0  0  0  0
  142.3140   75.7280  219.5460 N   0  0  0  0  0  0  0  0  0  0  0  0
  143.0250   76.8740  219.0190 C   0  0  0  0  0  0  0  0  0  0  0  0
  143.2130   76.6370  217.5340 C   0  0  0  0  0  0  0  0  0  0  0  0
  143.1740   75.1290  217.4120 C   0  0  0  0  0  0  0  0  0  0  0  0
  142.8040   74.6000  218.7380 C   0  0  1  0  0  0  0  0  0  0  0  0
  143.8200   73.7670  219.4190 C   0  0  0  0  0  0  0  0  0  0  0  0
  144.8770   73.1810  218.4760 C   0  0  0  0  0  0  0  0  0  0  0  0
  145.4990   72.0190  219.2270 C   0  0  0  0  0  0  0  0  0  0  0  0
  145.7450   72.3690  220.5860 N   0  0  0  0  0  0  0  0  0  0  0  0
  145.8860   73.7820  220.8290 C   0  0  0  0  0  0  0  0  0  0  0  0
  144.6070   74.4900  220.4890 C   0  0  0  0  0  0  0  0  0  0  0  0
  139.7700   71.4760  222.9280 C   0  0  0  0  0  0  0  0  0  0  0  0
  139.2840   70.1950  222.7930 C   0  0  0  0  0  0  0  0  0  0  0  0
  139.3790   69.3520  223.8820 C   0  0  0  0  0  0  0  0  0  0  0  0
  139.9370   69.7580  225.0710 C   0  0  0  0  0  0  0  0  0  0  0  0
  140.0550   68.9560  226.1810 C   0  0  0  0  0  0  0  0  0  0  0  0
  140.6220   69.3910  227.3660 C   0  0  0  0  0  0  0  0  0  0  0  0
  140.7430   68.3290  228.7380 Cl  0  0  0  0  0  0  0  0  0  0  0  0
  141.0900   70.6880  227.4360 C   0  0  0  0  0  0  0  0  0  0  0  0
  140.9760   71.4910  226.3330 C   0  0  0  0  0  0  0  0  0  0  0  0
  140.4120   71.0650  225.1480 C   0  0  0  0  0  0  0  0  0  0  0  0
  140.3190   71.8890  224.0860 N   0  0  0  0  0  0  0  0  0  0  0  0
  140.8740   73.8440  222.7060 H   0  0  0  0  0  0  0  0  0  0  0  0
  140.2784   73.9877  219.7892 H   0  0  0  0  0  0  0  0  0  0  0  0
  139.4057   75.1927  220.9233 H   0  0  0  0  0  0  0  0  0  0  0  0
  142.4389   77.7902  219.1837 H   0  0  0  0  0  0  0  0  0  0  0  0
  143.9955   76.9980  219.5218 H   0  0  0  0  0  0  0  0  0  0  0  0
  142.4000   77.0999  216.9555 H   0  0  0  0  0  0  0  0  0  0  0  0
  144.1431   77.0756  217.1434 H   0  0  0  0  0  0  0  0  0  0  0  0
  142.4258   74.8295  216.6633 H   0  0  0  0  0  0  0  0  0  0  0  0
  144.1493   74.7353  217.0898 H   0  0  0  0  0  0  0  0  0  0  0  0
  142.0057   73.8573  218.5925 H   0  0  0  0  0  0  0  0  0  0  0  0
  143.1930   72.9779  219.8596 H   0  0  0  0  0  0  0  0  0  0  0  0
  144.4077   72.8290  217.5455 H   0  0  0  0  0  0  0  0  0  0  0  0
  145.6301   73.9316  218.1941 H   0  0  0  0  0  0  0  0  0  0  0  0
  144.8129   71.1598  219.1943 H   0  0  0  0  0  0  0  0  0  0  0  0
  146.4564   71.7626  218.7499 H   0  0  0  0  0  0  0  0  0  0  0  0
  145.1420   71.9210  221.2790 H   0  0  0  0  0  0  0  0  0  0  0  0
  146.1233   73.9475  221.8903 H   0  0  0  0  0  0  0  0  0  0  0  0
  146.6969   74.1780  220.2000 H   0  0  0  0  0  0  0  0  0  0  0  0
  143.9892   74.5603  221.3964 H   0  0  0  0  0  0  0  0  0  0  0  0
  144.8657   75.4867  220.1021 H   0  0  0  0  0  0  0  0  0  0  0  0
  138.8348   69.8544  221.8484 H   0  0  0  0  0  0  0  0  0  0  0  0
  138.9966   68.3242  223.7958 H   0  0  0  0  0  0  0  0  0  0  0  0
  139.6822   67.9226  226.1249 H   0  0  0  0  0  0  0  0  0  0  0  0
  141.5463   71.0694  228.3614 H   0  0  0  0  0  0  0  0  0  0  0  0
  141.3513   72.5232  226.3943 H   0  0  0  0  0  0  0  0  0  0  0  0
  1  2  2  0
  2  3  1  0
  3  4  1  0
  4  5  1  0
  5  6  2  0
  5  7  1  0
  7  8  1  0
  8  9  1  0
  9 10  1  0
 10 11  1  0
 11 12  1  0
 12 13  1  0
 13 14  1  0
 14 15  1  0
 15 16  1  0
 16 17  1  0
  2 18  1  0
 18 19  2  0
 19 20  1  0
 20 21  2  0
 21 22  1  0
 22 23  2  0
 23 24  1  0
 23 25  1  0
 25 26  2  0
 26 27  1  0
 27 28  2  0
 11  7  1  0
 17 12  1  0
 28 18  1  0
 27 21  1  0
  3 29  1  0
  4 30  1  0
  4 31  1  0
  8 32  1  0
  8 33  1  0
  9 34  1  0
  9 35  1  0
 10 36  1  0
 10 37  1  0
 11 38  1  6
 12 39  1  0
 13 40  1  0
 13 41  1  0
 14 42  1  0
 14 43  1  0
 15 44  1  0
 16 45  1  0
 16 46  1  0
 17 47  1  0
 17 48  1  0
 19 49  1  0
 20 50  1  0
 22 51  1  0
 25 52  1  0
 26 53  1  0
M  END
>  <smiles>  (55) 
O=C(NCC(=O)N1CCCC1C1CCNCC1)c1ccc2cc(Cl)ccc2n1

>  <score_type>  (55) 
oracle

>  <origin>  (55) 
autodockgpu

>  <m_score__min__energy>  (55) 
-8.6300000000000008

>  <m_primary>  (55) 
energy

>  <rmsd>  (55) 
2.5363793846973612

>  <m_score__min__rmsd>  (55) 
2.5363793846973612

>  <meeko>  (55) 
{"free_energy": -7.77, "intermolecular_energy": -9.26, "internal_energy": -1.58, "cluster_size": 9, "cluster_id": 2, "rank_in_cluster": 7}

>  <energy>  (55) 
-8.14

>  <cluster_rmsd>  (55) 
1.52

>  <cluster>  (55) 
1

$$$$

     RDKit          3D

 53 56  0  0  0  0  0  0  0  0999 V2000
  136.8010   77.6900  222.1970 O   0  0  0  0  0  0  0  0  0  0  0  0
  136.9130   76.5240  222.7040 C   0  0  0  0  0  0  0  0  0  0  0  0
  138.0510   75.6960  222.3720 N   0  0  0  0  0  0  0  0  0  0  0  0
  139.0740   76.1220  221.4820 C   0  0  0  0  0  0  0  0  0  0  0  0
  140.3630   76.5440  222.0350 C   0  0  0  0  0  0  0  0  0  0  0  0
  141.1550   75.5540  222.3320 O   0  0  0  0  0  0  0  0  0  0  0  0
  140.8580   77.8300  222.2830 N   0  0  0  0  0  0  0  0  0  0  0  0
  141.8170   78.6750  221.6020 C   0  0  0  0  0  0  0  0  0  0  0  0
  142.5290   79.4860  222.6660 C   0  0  0  0  0  0  0  0  0  0  0  0
  141.5270   79.5350  223.7990 C   0  0  0  0  0  0  0  0  0  0  0  0
  140.4130   78.6430  223.4260 C   0  0  1  0  0  0  0  0  0  0  0  0
  139.0940   79.2860  223.2330 C   0  0  0  0  0  0  0  0  0  0  0  0
  138.8060   80.4230  224.2210 C   0  0  0  0  0  0  0  0  0  0  0  0
  137.3020   80.6130  224.2000 C   0  0  0  0  0  0  0  0  0  0  0  0
  136.8050   80.5680  222.8650 N   0  0  0  0  0  0  0  0  0  0  0  0
  137.7720   80.8970  221.8500 C   0  0  0  0  0  0  0  0  0  0  0  0
  138.8900   79.8950  221.8640 C   0  0  0  0  0  0  0  0  0  0  0  0
  135.8790   76.0180  223.6310 C   0  0  0  0  0  0  0  0  0  0  0  0
  135.0190   76.9260  224.2070 C   0  0  0  0  0  0  0  0  0  0  0  0
  134.0570   76.4430  225.0710 C   0  0  0  0  0  0  0  0  0  0  0  0
  133.9450   75.1040  225.3620 C   0  0  0  0  0  0  0  0  0  0  0  0
  133.0050   74.5770  226.2140 C   0  0  0  0  0  0  0  0  0  0  0  0
  132.9150   73.2230  226.4890 C   0  0  0  0  0  0  0  0  0  0  0  0
  131.7020   72.6140  227.5780 Cl  0  0  0  0  0  0  0  0  0  0  0  0
  133.8090   72.3650  225.8790 C   0  0  0  0  0  0  0  0  0  0  0  0
  134.7460   72.8850  225.0290 C   0  0  0  0  0  0  0  0  0  0  0  0
  134.8430   74.2340  224.7500 C   0  0  0  0  0  0  0  0  0  0  0  0
  135.7830   74.7040  223.9060 N   0  0  0  0  0  0  0  0  0  0  0  0
  138.0400   74.7500  222.8590 H   0  0  0  0  0  0  0  0  0  0  0  0
  139.2751   75.2851  220.7970 H   0  0  0  0  0  0  0  0  0  0  0  0
  138.6670   77.0385  221.0299 H   0  0  0  0  0  0  0  0  0  0  0  0
  142.5410   78.0565  221.0512 H   0  0  0  0  0  0  0  0  0  0  0  0
  141.3148   79.3333  220.8779 H   0  0  0  0  0  0  0  0  0  0  0  0
  143.4579   78.9896  222.9833 H   0  0  0  0  0  0  0  0  0  0  0  0
  142.8298   80.4843  222.3154 H   0  0  0  0  0  0  0  0  0  0  0  0
  141.9940   79.1868  224.7321 H   0  0  0  0  0  0  0  0  0  0  0  0
  141.1699   80.5623  223.9641 H   0  0  0  0  0  0  0  0  0  0  0  0
  140.1930   77.9997  224.2907 H   0  0  0  0  0  0  0  0  0  0  0  0
  138.4133   78.4362  223.3895 H   0  0  0  0  0  0  0  0  0  0  0  0
  139.1439   80.1482  225.2311 H   0  0  0  0  0  0  0  0  0  0  0  0
  139.3359   81.3461  223.9436 H   0  0  0  0  0  0  0  0  0  0  0  0
  136.8291   79.8127  224.7881 H   0  0  0  0  0  0  0  0  0  0  0  0
  137.0647   81.5965  224.6317 H   0  0  0  0  0  0  0  0  0  0  0  0
  136.2600   79.7390  222.6200 H   0  0  0  0  0  0  0  0  0  0  0  0
  137.2841   80.8851  220.8642 H   0  0  0  0  0  0  0  0  0  0  0  0
  138.1810   81.8982  222.0510 H   0  0  0  0  0  0  0  0  0  0  0  0
  138.6547   79.0916  221.1504 H   0  0  0  0  0  0  0  0  0  0  0  0
  139.8165   80.4188  221.5859 H   0  0  0  0  0  0  0  0  0  0  0  0
  135.0960   78.0008  223.9859 H   0  0  0  0  0  0  0  0  0  0  0  0
  133.3586   77.1510  225.5411 H   0  0  0  0  0  0  0  0  0  0  0  0
  132.2927   75.2607  226.6990 H   0  0  0  0  0  0  0  0  0  0  0  0
  133.7682   71.2830  226.0732 H   0  0  0  0  0  0  0  0  0  0  0  0
  135.4550   72.1969  224.5454 H   0  0  0  0  0  0  0  0  0  0  0  0
  1  2  2  0
  2  3  1  0
  3  4  1  0
  4  5  1  0
  5  6  2  0
  5  7  1  0
  7  8  1  0
  8  9  1  0
  9 10  1  0
 10 11  1  0
 11 12  1  0
 12 13  1  0
 13 14  1  0
 14 15  1  0
 15 16  1  0
 16 17  1  0
  2 18  1  0
 18 19  2  0
 19 20  1  0
 20 21  2  0
 21 22  1  0
 22 23  2  0
 23 24  1  0
 23 25  1  0
 25 26  2  0
 26 27  1  0
 27 28  2  0
 11  7  1  0
 17 12  1  0
 28 18  1  0
 27 21  1  0
  3 29  1  0
  4 30  1  0
  4 31  1  0
  8 32  1  0
  8 33  1  0
  9 34  1  0
  9 35  1  0
 10 36  1  0
 10 37  1  0
 11 38  1  1
 12 39  1  0
 13 40  1  0
 13 41  1  0
 14 42  1  0
 14 43  1  0
 15 44  1  0
 16 45  1  0
 16 46  1  0
 17 47  1  0
 17 48  1  0
 19 49  1  0
 20 50  1  0
 22 51  1  0
 25 52  1  0
 26 53  1  0
M  END
>  <smiles>  (56) 
O=C(NCC(=O)N1CCCC1C1CCNCC1)c1ccc2cc(Cl)ccc2n1

>  <score_type>  (56) 
oracle

>  <origin>  (56) 
autodockgpu

>  <m_score__min__energy>  (56) 
-8.6300000000000008

>  <m_primary>  (56) 
energy

>  <rmsd>  (56) 
6.56970679363194

>  <m_score__min__rmsd>  (56) 
6.56970679363194

>  <meeko>  (56) 
{"free_energy": -6.64, "intermolecular_energy": -8.13, "internal_energy": -2.64, "cluster_size": 5, "cluster_id": 4, "rank_in_cluster": 2}

>  <energy>  (56) 
-8.13

>  <cluster_rmsd>  (56) 
1.48

>  <cluster>  (56) 
1

$$$$

     RDKit          3D

 53 56  0  0  0  0  0  0  0  0999 V2000
  139.1940   72.7480  220.5710 O   0  0  0  0  0  0  0  0  0  0  0  0
  139.9860   72.8980  221.5600 C   0  0  0  0  0  0  0  0  0  0  0  0
  140.9400   73.9840  221.5650 N   0  0  0  0  0  0  0  0  0  0  0  0
  141.0480   74.9130  220.4940 C   0  0  0  0  0  0  0  0  0  0  0  0
  140.0370   75.9650  220.3650 C   0  0  0  0  0  0  0  0  0  0  0  0
  139.6650   76.1860  219.1360 O   0  0  0  0  0  0  0  0  0  0  0  0
  139.4230   76.7490  221.3490 N   0  0  0  0  0  0  0  0  0  0  0  0
  138.6760   76.4330  222.5480 C   0  0  0  0  0  0  0  0  0  0  0  0
  137.6290   77.5160  222.7190 C   0  0  0  0  0  0  0  0  0  0  0  0
  138.2290   78.7020  221.9950 C   0  0  0  0  0  0  0  0  0  0  0  0
  139.4500   78.2200  221.3210 C   0  0  1  0  0  0  0  0  0  0  0  0
  140.7280   78.8090  221.7790 C   0  0  0  0  0  0  0  0  0  0  0  0
  140.7070   80.3380  221.8840 C   0  0  0  0  0  0  0  0  0  0  0  0
  142.1600   80.7710  221.8790 C   0  0  0  0  0  0  0  0  0  0  0  0
  142.9430   79.9220  222.7150 N   0  0  0  0  0  0  0  0  0  0  0  0
  142.2030   79.2480  223.7510 C   0  0  0  0  0  0  0  0  0  0  0  0
  141.1860   78.3290  223.1380 C   0  0  0  0  0  0  0  0  0  0  0  0
  139.9300   71.9610  222.7020 C   0  0  0  0  0  0  0  0  0  0  0  0
  139.2480   70.7770  222.5410 C   0  0  0  0  0  0  0  0  0  0  0  0
  139.2010   69.9090  223.6130 C   0  0  0  0  0  0  0  0  0  0  0  0
  139.8090   70.1990  224.8120 C   0  0  0  0  0  0  0  0  0  0  0  0
  139.7910   69.3680  225.9060 C   0  0  0  0  0  0  0  0  0  0  0  0
  140.4130   69.6860  227.1020 C   0  0  0  0  0  0  0  0  0  0  0  0
  140.3540   68.5920  228.4540 Cl  0  0  0  0  0  0  0  0  0  0  0  0
  141.0810   70.8900  227.1980 C   0  0  0  0  0  0  0  0  0  0  0  0
  141.1030   71.7210  226.1100 C   0  0  0  0  0  0  0  0  0  0  0  0
  140.4850   71.4120  224.9150 C   0  0  0  0  0  0  0  0  0  0  0  0
  140.5310   72.2600  223.8690 N   0  0  0  0  0  0  0  0  0  0  0  0
  141.5420   74.0130  222.4420 H   0  0  0  0  0  0  0  0  0  0  0  0
  142.0225   75.4127  220.5971 H   0  0  0  0  0  0  0  0  0  0  0  0
  140.9059   74.2972  219.5937 H   0  0  0  0  0  0  0  0  0  0  0  0
  138.1902   75.4518  222.4423 H   0  0  0  0  0  0  0  0  0  0  0  0
  139.3407   76.3892  223.4234 H   0  0  0  0  0  0  0  0  0  0  0  0
  136.6748   77.2168  222.2607 H   0  0  0  0  0  0  0  0  0  0  0  0
  137.3992   77.7282  223.7736 H   0  0  0  0  0  0  0  0  0  0  0  0
  137.5166   79.0924  221.2533 H   0  0  0  0  0  0  0  0  0  0  0  0
  138.4623   79.5154  222.6978 H   0  0  0  0  0  0  0  0  0  0  0  0
  139.4265   78.5835  220.2831 H   0  0  0  0  0  0  0  0  0  0  0  0
  141.4166   78.4708  220.9907 H   0  0  0  0  0  0  0  0  0  0  0  0
  140.1742   80.7738  221.0260 H   0  0  0  0  0  0  0  0  0  0  0  0
  140.1867   80.6749  222.7928 H   0  0  0  0  0  0  0  0  0  0  0  0
  142.5476   80.7220  220.8507 H   0  0  0  0  0  0  0  0  0  0  0  0
  142.2231   81.8000  222.2627 H   0  0  0  0  0  0  0  0  0  0  0  0
  143.5870   79.2930  222.2330 H   0  0  0  0  0  0  0  0  0  0  0  0
  142.8964   78.6621  224.3722 H   0  0  0  0  0  0  0  0  0  0  0  0
  141.6876   79.9953  224.3723 H   0  0  0  0  0  0  0  0  0  0  0  0
  141.6320   77.3294  223.0288 H   0  0  0  0  0  0  0  0  0  0  0  0
  140.3087   78.3057  223.8012 H   0  0  0  0  0  0  0  0  0  0  0  0
  138.7561   70.5301  221.5886 H   0  0  0  0  0  0  0  0  0  0  0  0
  138.6611   68.9567  223.5052 H   0  0  0  0  0  0  0  0  0  0  0  0
  139.2593   68.4081  225.8287 H   0  0  0  0  0  0  0  0  0  0  0  0
  141.5866   71.1768  228.1318 H   0  0  0  0  0  0  0  0  0  0  0  0
  141.6377   72.6788  226.1920 H   0  0  0  0  0  0  0  0  0  0  0  0
  1  2  2  0
  2  3  1  0
  3  4  1  0
  4  5  1  0
  5  6  2  0
  5  7  1  0
  7  8  1  0
  8  9  1  0
  9 10  1  0
 10 11  1  0
 11 12  1  0
 12 13  1  0
 13 14  1  0
 14 15  1  0
 15 16  1  0
 16 17  1  0
  2 18  1  0
 18 19  2  0
 19 20  1  0
 20 21  2  0
 21 22  1  0
 22 23  2  0
 23 24  1  0
 23 25  1  0
 25 26  2  0
 26 27  1  0
 27 28  2  0
 11  7  1  0
 17 12  1  0
 28 18  1  0
 27 21  1  0
  3 29  1  0
  4 30  1  0
  4 31  1  0
  8 32  1  0
  8 33  1  0
  9 34  1  0
  9 35  1  0
 10 36  1  0
 10 37  1  0
 11 38  1  6
 12 39  1  0
 13 40  1  0
 13 41  1  0
 14 42  1  0
 14 43  1  0
 15 44  1  0
 16 45  1  0
 16 46  1  0
 17 47  1  0
 17 48  1  0
 19 49  1  0
 20 50  1  0
 22 51  1  0
 25 52  1  0
 26 53  1  0
M  END
>  <smiles>  (57) 
O=C(NCC(=O)N1CCCC1C1CCNCC1)c1ccc2cc(Cl)ccc2n1

>  <score_type>  (57) 
oracle

>  <origin>  (57) 
autodockgpu

>  <m_score__min__energy>  (57) 
-8.6300000000000008

>  <m_primary>  (57) 
energy

>  <rmsd>  (57) 
3.1092343691925737

>  <m_score__min__rmsd>  (57) 
3.1092343691925737

>  <meeko>  (57) 
{"free_energy": -7.81, "intermolecular_energy": -9.3, "internal_energy": -1.59, "cluster_size": 23, "cluster_id": 1, "rank_in_cluster": 20}

>  <energy>  (57) 
-8.11

>  <cluster_rmsd>  (57) 
1.15

>  <cluster>  (57) 
1

$$$$

     RDKit          3D

 53 56  0  0  0  0  0  0  0  0999 V2000
  138.9640   73.1390  221.2510 O   0  0  0  0  0  0  0  0  0  0  0  0
  140.0600   72.7650  221.7880 C   0  0  0  0  0  0  0  0  0  0  0  0
  141.3200   73.2590  221.2790 N   0  0  0  0  0  0  0  0  0  0  0  0
  141.4030   74.1550  220.1800 C   0  0  0  0  0  0  0  0  0  0  0  0
  141.2980   75.5950  220.4300 C   0  0  0  0  0  0  0  0  0  0  0  0
  142.1720   76.3050  219.7760 O   0  0  0  0  0  0  0  0  0  0  0  0
  140.4110   76.3020  221.2490 N   0  0  0  0  0  0  0  0  0  0  0  0
  139.5950   75.9300  222.3860 C   0  0  0  0  0  0  0  0  0  0  0  0
  138.3330   76.7670  222.3220 C   0  0  0  0  0  0  0  0  0  0  0  0
  138.7640   77.9930  221.5450 C   0  0  0  0  0  0  0  0  0  0  0  0
  140.1360   77.7370  221.0660 C   0  0  1  0  0  0  0  0  0  0  0  0
  141.1920   78.6270  221.5960 C   0  0  0  0  0  0  0  0  0  0  0  0
  140.8640   80.1200  221.4810 C   0  0  0  0  0  0  0  0  0  0  0  0
  142.1920   80.8430  221.6010 C   0  0  0  0  0  0  0  0  0  0  0  0
  142.9830   80.2760  222.6420 N   0  0  0  0  0  0  0  0  0  0  0  0
  142.2350   79.5820  223.6590 C   0  0  0  0  0  0  0  0  0  0  0  0
  141.5190   78.4090  223.0570 C   0  0  0  0  0  0  0  0  0  0  0  0
  140.0420   71.8280  222.9300 C   0  0  0  0  0  0  0  0  0  0  0  0
  139.4950   70.5790  222.7410 C   0  0  0  0  0  0  0  0  0  0  0  0
  139.4830   69.7110  223.8150 C   0  0  0  0  0  0  0  0  0  0  0  0
  139.9960   70.0630  225.0410 C   0  0  0  0  0  0  0  0  0  0  0  0
  140.0070   69.2340  226.1380 C   0  0  0  0  0  0  0  0  0  0  0  0
  140.5310   69.6150  227.3610 C   0  0  0  0  0  0  0  0  0  0  0  0
  140.5160   68.5220  228.7150 Cl  0  0  0  0  0  0  0  0  0  0  0  0
  141.0650   70.8820  227.4850 C   0  0  0  0  0  0  0  0  0  0  0  0
  141.0570   71.7110  226.3960 C   0  0  0  0  0  0  0  0  0  0  0  0
  140.5360   71.3400  225.1720 C   0  0  0  0  0  0  0  0  0  0  0  0
  140.5480   72.1870  224.1250 N   0  0  0  0  0  0  0  0  0  0  0  0
  142.1630   72.8850  221.8090 H   0  0  0  0  0  0  0  0  0  0  0  0
  142.3750   73.9817  219.6951 H   0  0  0  0  0  0  0  0  0  0  0  0
  140.5087   73.9243  219.5825 H   0  0  0  0  0  0  0  0  0  0  0  0
  139.3416   74.8608  222.3348 H   0  0  0  0  0  0  0  0  0  0  0  0
  140.1339   76.1057  223.3287 H   0  0  0  0  0  0  0  0  0  0  0  0
  137.5305   76.2295  221.7957 H   0  0  0  0  0  0  0  0  0  0  0  0
  137.9273   77.0089  223.3154 H   0  0  0  0  0  0  0  0  0  0  0  0
  138.0897   78.1561  220.6914 H   0  0  0  0  0  0  0  0  0  0  0  0
  138.7294   78.8922  222.1777 H   0  0  0  0  0  0  0  0  0  0  0  0
  140.1746   78.0006  219.9987 H   0  0  0  0  0  0  0  0  0  0  0  0
  142.0452   78.3534  220.9578 H   0  0  0  0  0  0  0  0  0  0  0  0
  140.3962   80.3361  220.5091 H   0  0  0  0  0  0  0  0  0  0  0  0
  140.1556   80.4409  222.2589 H   0  0  0  0  0  0  0  0  0  0  0  0
  142.7357   80.7596  220.6484 H   0  0  0  0  0  0  0  0  0  0  0  0
  141.9988   81.8993  221.8396 H   0  0  0  0  0  0  0  0  0  0  0  0
  143.8020   79.7450  222.3400 H   0  0  0  0  0  0  0  0  0  0  0  0
  142.9238   79.2271  224.4398 H   0  0  0  0  0  0  0  0  0  0  0  0
  141.4971   80.2697  224.0978 H   0  0  0  0  0  0  0  0  0  0  0  0
  142.1588   77.5188  223.1478 H   0  0  0  0  0  0  0  0  0  0  0  0
  140.5709   78.2777  223.5992 H   0  0  0  0  0  0  0  0  0  0  0  0
  139.0809   70.2820  221.7662 H   0  0  0  0  0  0  0  0  0  0  0  0
  139.0501   68.7081  223.6857 H   0  0  0  0  0  0  0  0  0  0  0  0
  139.5810   68.2246  226.0393 H   0  0  0  0  0  0  0  0  0  0  0  0
  141.4894   71.2193  228.4421 H   0  0  0  0  0  0  0  0  0  0  0  0
  141.4851   72.7189  226.5005 H   0  0  0  0  0  0  0  0  0  0  0  0
  1  2  2  0
  2  3  1  0
  3  4  1  0
  4  5  1  0
  5  6  2  0
  5  7  1  0
  7  8  1  0
  8  9  1  0
  9 10  1  0
 10 11  1  0
 11 12  1  0
 12 13  1  0
 13 14  1  0
 14 15  1  0
 15 16  1  0
 16 17  1  0
  2 18  1  0
 18 19  2  0
 19 20  1  0
 20 21  2  0
 21 22  1  0
 22 23  2  0
 23 24  1  0
 23 25  1  0
 25 26  2  0
 26 27  1  0
 27 28  2  0
 11  7  1  0
 17 12  1  0
 28 18  1  0
 27 21  1  0
  3 29  1  0
  4 30  1  0
  4 31  1  0
  8 32  1  0
  8 33  1  0
  9 34  1  0
  9 35  1  0
 10 36  1  0
 10 37  1  0
 11 38  1  6
 12 39  1  0
 13 40  1  0
 13 41  1  0
 14 42  1  0
 14 43  1  0
 15 44  1  0
 16 45  1  0
 16 46  1  0
 17 47  1  0
 17 48  1  0
 19 49  1  0
 20 50  1  0
 22 51  1  0
 25 52  1  0
 26 53  1  0
M  END
>  <smiles>  (58) 
O=C(NCC(=O)N1CCCC1C1CCNCC1)c1ccc2cc(Cl)ccc2n1

>  <score_type>  (58) 
oracle

>  <origin>  (58) 
autodockgpu

>  <m_score__min__energy>  (58) 
-8.6300000000000008

>  <m_primary>  (58) 
energy

>  <rmsd>  (58) 
2.824052624876917

>  <m_score__min__rmsd>  (58) 
2.824052624876917

>  <meeko>  (58) 
{"free_energy": -8.2, "intermolecular_energy": -9.69, "internal_energy": -1.39, "cluster_size": 23, "cluster_id": 1, "rank_in_cluster": 3}

>  <energy>  (58) 
-8.03

>  <cluster_rmsd>  (58) 
1.22

>  <cluster>  (58) 
1

$$$$

     RDKit          3D

 53 56  0  0  0  0  0  0  0  0999 V2000
  133.9870   69.2940  226.4810 O   0  0  0  0  0  0  0  0  0  0  0  0
  134.2800   70.4350  225.9880 C   0  0  0  0  0  0  0  0  0  0  0  0
  135.3350   70.5490  225.0070 N   0  0  0  0  0  0  0  0  0  0  0  0
  136.0870   69.4310  224.5570 C   0  0  0  0  0  0  0  0  0  0  0  0
  137.5440   69.4440  224.7180 C   0  0  0  0  0  0  0  0  0  0  0  0
  138.0150   68.3820  225.3040 O   0  0  0  0  0  0  0  0  0  0  0  0
  138.4810   70.4120  224.3390 N   0  0  0  0  0  0  0  0  0  0  0  0
  138.4260   71.5580  223.4540 C   0  0  0  0  0  0  0  0  0  0  0  0
  139.7950   71.6960  222.8200 C   0  0  0  0  0  0  0  0  0  0  0  0
  140.7160   71.0410  223.8260 C   0  0  0  0  0  0  0  0  0  0  0  0
  139.8590   70.4260  224.8570 C   0  0  1  0  0  0  0  0  0  0  0  0
  139.9840   70.9730  226.2260 C   0  0  0  0  0  0  0  0  0  0  0  0
  139.9300   69.9090  227.3280 C   0  0  0  0  0  0  0  0  0  0  0  0
  139.5860   70.6550  228.6030 C   0  0  0  0  0  0  0  0  0  0  0  0
  140.3300   71.8670  228.6960 N   0  0  0  0  0  0  0  0  0  0  0  0
  141.5590   71.8790  227.9440 C   0  0  0  0  0  0  0  0  0  0  0  0
  141.2640   71.7360  226.4800 C   0  0  0  0  0  0  0  0  0  0  0  0
  133.5400   71.6390  226.4200 C   0  0  0  0  0  0  0  0  0  0  0  0
  132.3220   71.4700  227.0390 C   0  0  0  0  0  0  0  0  0  0  0  0
  131.6400   72.6010  227.4380 C   0  0  0  0  0  0  0  0  0  0  0  0
  132.1420   73.8640  227.2330 C   0  0  0  0  0  0  0  0  0  0  0  0
  131.5000   75.0190  227.6130 C   0  0  0  0  0  0  0  0  0  0  0  0
  132.0290   76.2790  227.3940 C   0  0  0  0  0  0  0  0  0  0  0  0
  131.1690   77.7060  227.8980 Cl  0  0  0  0  0  0  0  0  0  0  0  0
  133.2550   76.3800  226.7680 C   0  0  0  0  0  0  0  0  0  0  0  0
  133.8980   75.2330  226.3880 C   0  0  0  0  0  0  0  0  0  0  0  0
  133.3780   73.9730  226.6020 C   0  0  0  0  0  0  0  0  0  0  0  0
  134.0450   72.8690  226.2120 N   0  0  0  0  0  0  0  0  0  0  0  0
  135.4850   71.5460  224.6640 H   0  0  0  0  0  0  0  0  0  0  0  0
  135.7106   68.5503  225.0981 H   0  0  0  0  0  0  0  0  0  0  0  0
  135.9417   69.4366  223.4667 H   0  0  0  0  0  0  0  0  0  0  0  0
  137.6643   71.3984  222.6766 H   0  0  0  0  0  0  0  0  0  0  0  0
  138.1573   72.4691  224.0087 H   0  0  0  0  0  0  0  0  0  0  0  0
  139.8348   71.1745  221.8523 H   0  0  0  0  0  0  0  0  0  0  0  0
  140.0658   72.7406  222.6069 H   0  0  0  0  0  0  0  0  0  0  0  0
  141.3270   70.2703  223.3333 H   0  0  0  0  0  0  0  0  0  0  0  0
  141.3994   71.7787  224.2718 H   0  0  0  0  0  0  0  0  0  0  0  0
  140.2165   69.3990  225.0229 H   0  0  0  0  0  0  0  0  0  0  0  0
  139.1128   71.6430  226.2719 H   0  0  0  0  0  0  0  0  0  0  0  0
  139.1563   69.1607  227.1010 H   0  0  0  0  0  0  0  0  0  0  0  0
  140.8844   69.3696  227.4184 H   0  0  0  0  0  0  0  0  0  0  0  0
  138.5115   70.8903  228.6045 H   0  0  0  0  0  0  0  0  0  0  0  0
  139.8395   70.0185  229.4636 H   0  0  0  0  0  0  0  0  0  0  0  0
  139.7950   72.7290  228.5700 H   0  0  0  0  0  0  0  0  0  0  0  0
  142.0842   72.8295  228.1190 H   0  0  0  0  0  0  0  0  0  0  0  0
  142.1907   71.0393  228.2696 H   0  0  0  0  0  0  0  0  0  0  0  0
  141.1720   72.7390  226.0378 H   0  0  0  0  0  0  0  0  0  0  0  0
  142.0898   71.1707  226.0233 H   0  0  0  0  0  0  0  0  0  0  0  0
  131.9062   70.4661  227.2099 H   0  0  0  0  0  0  0  0  0  0  0  0
  130.6652   72.4886  227.9351 H   0  0  0  0  0  0  0  0  0  0  0  0
  130.5235   74.9380  228.1128 H   0  0  0  0  0  0  0  0  0  0  0  0
  133.7072   77.3646  226.5779 H   0  0  0  0  0  0  0  0  0  0  0  0
  134.8744   75.3197  225.8889 H   0  0  0  0  0  0  0  0  0  0  0  0
  1  2  2  0
  2  3  1  0
  3  4  1  0
  4  5  1  0
  5  6  2  0
  5  7  1  0
  7  8  1  0
  8  9  1  0
  9 10  1  0
 10 11  1  0
 11 12  1  0
 12 13  1  0
 13 14  1  0
 14 15  1  0
 15 16  1  0
 16 17  1  0
  2 18  1  0
 18 19  2  0
 19 20  1  0
 20 21  2  0
 21 22  1  0
 22 23  2  0
 23 24  1  0
 23 25  1  0
 25 26  2  0
 26 27  1  0
 27 28  2  0
 11  7  1  0
 17 12  1  0
 28 18  1  0
 27 21  1  0
  3 29  1  0
  4 30  1  0
  4 31  1  0
  8 32  1  0
  8 33  1  0
  9 34  1  0
  9 35  1  0
 10 36  1  0
 10 37  1  0
 11 38  1  1
 12 39  1  0
 13 40  1  0
 13 41  1  0
 14 42  1  0
 14 43  1  0
 15 44  1  0
 16 45  1  0
 16 46  1  0
 17 47  1  0
 17 48  1  0
 19 49  1  0
 20 50  1  0
 22 51  1  0
 25 52  1  0
 26 53  1  0
M  END
>  <smiles>  (59) 
O=C(NCC(=O)N1CCCC1C1CCNCC1)c1ccc2cc(Cl)ccc2n1

>  <score_type>  (59) 
oracle

>  <origin>  (59) 
autodockgpu

>  <m_score__min__energy>  (59) 
-8.6300000000000008

>  <m_primary>  (59) 
energy

>  <rmsd>  (59) 
7.922486263733651

>  <m_score__min__rmsd>  (59) 
7.922486263733651

>  <meeko>  (59) 
{"free_energy": -8.22, "intermolecular_energy": -9.72, "internal_energy": -1.5, "cluster_size": 7, "cluster_id": 3, "rank_in_cluster": 7}

>  <energy>  (59) 
-8.03

>  <cluster_rmsd>  (59) 
1.09

>  <cluster>  (59) 
1

$$$$

     RDKit          3D

 53 56  0  0  0  0  0  0  0  0999 V2000
  136.8380   77.7210  221.9890 O   0  0  0  0  0  0  0  0  0  0  0  0
  136.9660   76.6040  222.5940 C   0  0  0  0  0  0  0  0  0  0  0  0
  138.1340   75.7860  222.3620 N   0  0  0  0  0  0  0  0  0  0  0  0
  139.1710   76.1660  221.4670 C   0  0  0  0  0  0  0  0  0  0  0  0
  140.4510   76.6200  222.0180 C   0  0  0  0  0  0  0  0  0  0  0  0
  141.2700   75.6500  222.3080 O   0  0  0  0  0  0  0  0  0  0  0  0
  140.9110   77.9180  222.2700 N   0  0  0  0  0  0  0  0  0  0  0  0
  141.8550   78.7860  221.5970 C   0  0  0  0  0  0  0  0  0  0  0  0
  142.5390   79.6140  222.6670 C   0  0  0  0  0  0  0  0  0  0  0  0
  141.5280   79.6380  223.7930 C   0  0  0  0  0  0  0  0  0  0  0  0
  140.4380   78.7190  223.4110 C   0  0  1  0  0  0  0  0  0  0  0  0
  139.1060   79.3290  223.2090 C   0  0  0  0  0  0  0  0  0  0  0  0
  138.7830   80.4590  224.1940 C   0  0  0  0  0  0  0  0  0  0  0  0
  137.2750   80.6120  224.1640 C   0  0  0  0  0  0  0  0  0  0  0  0
  136.7880   80.5540  222.8250 N   0  0  0  0  0  0  0  0  0  0  0  0
  137.7540   80.9060  221.8160 C   0  0  0  0  0  0  0  0  0  0  0  0
  138.8960   79.9320  221.8380 C   0  0  0  0  0  0  0  0  0  0  0  0
  135.9190   76.1460  223.5310 C   0  0  0  0  0  0  0  0  0  0  0  0
  135.0570   77.0840  224.0550 C   0  0  0  0  0  0  0  0  0  0  0  0
  134.0830   76.6460  224.9290 C   0  0  0  0  0  0  0  0  0  0  0  0
  133.9620   75.3220  225.2800 C   0  0  0  0  0  0  0  0  0  0  0  0
  133.0090   74.8390  226.1460 C   0  0  0  0  0  0  0  0  0  0  0  0
  132.9100   73.5000  226.4820 C   0  0  0  0  0  0  0  0  0  0  0  0
  131.6820   72.9470  227.5840 Cl  0  0  0  0  0  0  0  0  0  0  0  0
  133.8060   72.6110  225.9220 C   0  0  0  0  0  0  0  0  0  0  0  0
  134.7550   73.0870  225.0590 C   0  0  0  0  0  0  0  0  0  0  0  0
  134.8620   74.4200  224.7200 C   0  0  0  0  0  0  0  0  0  0  0  0
  135.8130   74.8470  223.8650 N   0  0  0  0  0  0  0  0  0  0  0  0
  138.1340   74.8820  222.9250 H   0  0  0  0  0  0  0  0  0  0  0  0
  139.3843   75.2941  220.8312 H   0  0  0  0  0  0  0  0  0  0  0  0
  138.7703   77.0560  220.9598 H   0  0  0  0  0  0  0  0  0  0  0  0
  142.5980   78.1852  221.0521 H   0  0  0  0  0  0  0  0  0  0  0  0
  141.3429   79.4323  220.8690 H   0  0  0  0  0  0  0  0  0  0  0  0
  143.4775   79.1405  222.9909 H   0  0  0  0  0  0  0  0  0  0  0  0
  142.8174   80.6196  222.3188 H   0  0  0  0  0  0  0  0  0  0  0  0
  141.9966   79.3004  224.7292 H   0  0  0  0  0  0  0  0  0  0  0  0
  141.1451   80.6562  223.9564 H   0  0  0  0  0  0  0  0  0  0  0  0
  140.2277   78.0700  224.2739 H   0  0  0  0  0  0  0  0  0  0  0  0
  138.4457   78.4626  223.3618 H   0  0  0  0  0  0  0  0  0  0  0  0
  139.1213   80.1935  225.2064 H   0  0  0  0  0  0  0  0  0  0  0  0
  139.2912   81.3949  223.9185 H   0  0  0  0  0  0  0  0  0  0  0  0
  136.8182   79.8006  224.7496 H   0  0  0  0  0  0  0  0  0  0  0  0
  137.0105   81.5893  224.5940 H   0  0  0  0  0  0  0  0  0  0  0  0
  136.2650   79.7120  222.5770 H   0  0  0  0  0  0  0  0  0  0  0  0
  137.2732   80.8817  220.8269 H   0  0  0  0  0  0  0  0  0  0  0  0
  138.1371   81.9169  222.0193 H   0  0  0  0  0  0  0  0  0  0  0  0
  138.6852   79.1226  221.1235 H   0  0  0  0  0  0  0  0  0  0  0  0
  139.8111   80.4782  221.5655 H   0  0  0  0  0  0  0  0  0  0  0  0
  135.1422   78.1471  223.7856 H   0  0  0  0  0  0  0  0  0  0  0  0
  133.3825   77.3778  225.3577 H   0  0  0  0  0  0  0  0  0  0  0  0
  132.2946   75.5474  226.5908 H   0  0  0  0  0  0  0  0  0  0  0  0
  133.7576   71.5393  226.1654 H   0  0  0  0  0  0  0  0  0  0  0  0
  135.4654   72.3740  224.6151 H   0  0  0  0  0  0  0  0  0  0  0  0
  1  2  2  0
  2  3  1  0
  3  4  1  0
  4  5  1  0
  5  6  2  0
  5  7  1  0
  7  8  1  0
  8  9  1  0
  9 10  1  0
 10 11  1  0
 11 12  1  0
 12 13  1  0
 13 14  1  0
 14 15  1  0
 15 16  1  0
 16 17  1  0
  2 18  1  0
 18 19  2  0
 19 20  1  0
 20 21  2  0
 21 22  1  0
 22 23  2  0
 23 24  1  0
 23 25  1  0
 25 26  2  0
 26 27  1  0
 27 28  2  0
 11  7  1  0
 17 12  1  0
 28 18  1  0
 27 21  1  0
  3 29  1  0
  4 30  1  0
  4 31  1  0
  8 32  1  0
  8 33  1  0
  9 34  1  0
  9 35  1  0
 10 36  1  0
 10 37  1  0
 11 38  1  1
 12 39  1  0
 13 40  1  0
 13 41  1  0
 14 42  1  0
 14 43  1  0
 15 44  1  0
 16 45  1  0
 16 46  1  0
 17 47  1  0
 17 48  1  0
 19 49  1  0
 20 50  1  0
 22 51  1  0
 25 52  1  0
 26 53  1  0
M  END
>  <smiles>  (60) 
O=C(NCC(=O)N1CCCC1C1CCNCC1)c1ccc2cc(Cl)ccc2n1

>  <score_type>  (60) 
oracle

>  <origin>  (60) 
autodockgpu

>  <m_score__min__energy>  (60) 
-8.6300000000000008

>  <m_primary>  (60) 
energy

>  <rmsd>  (60) 
6.6483605163579265

>  <m_score__min__rmsd>  (60) 
6.6483605163579265

>  <meeko>  (60) 
{"free_energy": -6.56, "intermolecular_energy": -8.05, "internal_energy": -2.67, "cluster_size": 5, "cluster_id": 4, "rank_in_cluster": 5}

>  <energy>  (60) 
-8.02

>  <cluster_rmsd>  (60) 
1.0

>  <cluster>  (60) 
1

$$$$

     RDKit          3D

 53 56  0  0  0  0  0  0  0  0999 V2000
  136.8140   77.7950  222.3420 O   0  0  0  0  0  0  0  0  0  0  0  0
  136.8710   76.5890  222.7570 C   0  0  0  0  0  0  0  0  0  0  0  0
  137.9570   75.7320  222.3400 N   0  0  0  0  0  0  0  0  0  0  0  0
  138.9870   76.1700  221.4640 C   0  0  0  0  0  0  0  0  0  0  0  0
  140.2840   76.5530  222.0290 C   0  0  0  0  0  0  0  0  0  0  0  0
  141.0390   75.5380  222.3400 O   0  0  0  0  0  0  0  0  0  0  0  0
  140.8180   77.8230  222.2750 N   0  0  0  0  0  0  0  0  0  0  0  0
  141.8160   78.6290  221.6040 C   0  0  0  0  0  0  0  0  0  0  0  0
  142.5380   79.4240  222.6740 C   0  0  0  0  0  0  0  0  0  0  0  0
  141.5220   79.5150  223.7910 C   0  0  0  0  0  0  0  0  0  0  0  0
  140.3830   78.6590  223.4070 C   0  0  1  0  0  0  0  0  0  0  0  0
  139.0910   79.3450  223.1890 C   0  0  0  0  0  0  0  0  0  0  0  0
  138.8100   80.4740  224.1870 C   0  0  0  0  0  0  0  0  0  0  0  0
  137.3130   80.7110  224.1300 C   0  0  0  0  0  0  0  0  0  0  0  0
  136.8520   80.7010  222.7810 N   0  0  0  0  0  0  0  0  0  0  0  0
  137.8560   81.0160  221.7970 C   0  0  0  0  0  0  0  0  0  0  0  0
  138.9420   79.9810  221.8250 C   0  0  0  0  0  0  0  0  0  0  0  0
  135.8280   76.0690  223.6650 C   0  0  0  0  0  0  0  0  0  0  0  0
  134.9040   76.9550  224.1730 C   0  0  0  0  0  0  0  0  0  0  0  0
  133.9340   76.4590  225.0200 C   0  0  0  0  0  0  0  0  0  0  0  0
  133.8740   75.1280  225.3580 C   0  0  0  0  0  0  0  0  0  0  0  0
  132.9270   74.5870  226.1950 C   0  0  0  0  0  0  0  0  0  0  0  0
  132.8900   73.2420  226.5180 C   0  0  0  0  0  0  0  0  0  0  0  0
  131.6670   72.6160  227.5860 Cl  0  0  0  0  0  0  0  0  0  0  0  0
  133.8460   72.4060  225.9750 C   0  0  0  0  0  0  0  0  0  0  0  0
  134.7900   72.9390  225.1400 C   0  0  0  0  0  0  0  0  0  0  0  0
  134.8340   74.2790  224.8130 C   0  0  0  0  0  0  0  0  0  0  0  0
  135.7820   74.7630  223.9860 N   0  0  0  0  0  0  0  0  0  0  0  0
  137.9040   74.7530  222.7540 H   0  0  0  0  0  0  0  0  0  0  0  0
  139.1741   75.3526  220.7520 H   0  0  0  0  0  0  0  0  0  0  0  0
  138.5949   77.1076  221.0431 H   0  0  0  0  0  0  0  0  0  0  0  0
  142.5273   77.9818  221.0700 H   0  0  0  0  0  0  0  0  0  0  0  0
  141.3485   79.2982  220.8667 H   0  0  0  0  0  0  0  0  0  0  0  0
  143.4450   78.8994  223.0090 H   0  0  0  0  0  0  0  0  0  0  0  0
  142.8765   80.4093  222.3210 H   0  0  0  0  0  0  0  0  0  0  0  0
  141.9629   79.1573  224.7331 H   0  0  0  0  0  0  0  0  0  0  0  0
  141.1981   80.5550  223.9441 H   0  0  0  0  0  0  0  0  0  0  0  0
  140.1274   78.0302  224.2726 H   0  0  0  0  0  0  0  0  0  0  0  0
  138.3814   78.5137  223.3130 H   0  0  0  0  0  0  0  0  0  0  0  0
  139.1121   80.1732  225.2010 H   0  0  0  0  0  0  0  0  0  0  0  0
  139.3744   81.3848  223.9382 H   0  0  0  0  0  0  0  0  0  0  0  0
  136.8001   79.9171  224.6927 H   0  0  0  0  0  0  0  0  0  0  0  0
  137.0937   81.6944  224.5713 H   0  0  0  0  0  0  0  0  0  0  0  0
  136.2890   79.8930  222.5080 H   0  0  0  0  0  0  0  0  0  0  0  0
  137.3949   81.0338  220.7984 H   0  0  0  0  0  0  0  0  0  0  0  0
  138.2891   82.0012  222.0245 H   0  0  0  0  0  0  0  0  0  0  0  0
  138.7021   79.1961  221.0926 H   0  0  0  0  0  0  0  0  0  0  0  0
  139.8908   80.4809  221.5804 H   0  0  0  0  0  0  0  0  0  0  0  0
  134.9381   78.0231  223.9121 H   0  0  0  0  0  0  0  0  0  0  0  0
  133.1863   77.1496  225.4372 H   0  0  0  0  0  0  0  0  0  0  0  0
  132.1652   75.2526  226.6270 H   0  0  0  0  0  0  0  0  0  0  0  0
  133.8485   71.3313  226.2095 H   0  0  0  0  0  0  0  0  0  0  0  0
  135.5486   72.2686  224.7097 H   0  0  0  0  0  0  0  0  0  0  0  0
  1  2  2  0
  2  3  1  0
  3  4  1  0
  4  5  1  0
  5  6  2  0
  5  7  1  0
  7  8  1  0
  8  9  1  0
  9 10  1  0
 10 11  1  0
 11 12  1  0
 12 13  1  0
 13 14  1  0
 14 15  1  0
 15 16  1  0
 16 17  1  0
  2 18  1  0
 18 19  2  0
 19 20  1  0
 20 21  2  0
 21 22  1  0
 22 23  2  0
 23 24  1  0
 23 25  1  0
 25 26  2  0
 26 27  1  0
 27 28  2  0
 11  7  1  0
 17 12  1  0
 28 18  1  0
 27 21  1  0
  3 29  1  0
  4 30  1  0
  4 31  1  0
  8 32  1  0
  8 33  1  0
  9 34  1  0
  9 35  1  0
 10 36  1  0
 10 37  1  0
 11 38  1  1
 12 39  1  0
 13 40  1  0
 13 41  1  0
 14 42  1  0
 14 43  1  0
 15 44  1  0
 16 45  1  0
 16 46  1  0
 17 47  1  0
 17 48  1  0
 19 49  1  0
 20 50  1  0
 22 51  1  0
 25 52  1  0
 26 53  1  0
M  END
>  <smiles>  (61) 
O=C(NCC(=O)N1CCCC1C1CCNCC1)c1ccc2cc(Cl)ccc2n1

>  <score_type>  (61) 
oracle

>  <origin>  (61) 
autodockgpu

>  <m_score__min__energy>  (61) 
-8.6300000000000008

>  <m_primary>  (61) 
energy

>  <rmsd>  (61) 
6.5869169104786325

>  <m_score__min__rmsd>  (61) 
6.5869169104786325

>  <meeko>  (61) 
{"free_energy": -6.6, "intermolecular_energy": -8.09, "internal_energy": -2.62, "cluster_size": 5, "cluster_id": 4, "rank_in_cluster": 4}

>  <energy>  (61) 
-8.02

>  <cluster_rmsd>  (61) 
1.06

>  <cluster>  (61) 
1

$$$$

     RDKit          3D

 53 56  0  0  0  0  0  0  0  0999 V2000
  140.8530   72.5580  221.0130 O   0  0  0  0  0  0  0  0  0  0  0  0
  140.0310   72.6750  221.9830 C   0  0  0  0  0  0  0  0  0  0  0  0
  139.0830   73.7670  222.0000 N   0  0  0  0  0  0  0  0  0  0  0  0
  139.0220   74.7450  220.9710 C   0  0  0  0  0  0  0  0  0  0  0  0
  139.6380   76.0540  221.2000 C   0  0  0  0  0  0  0  0  0  0  0  0
  140.8940   76.1080  220.8630 O   0  0  0  0  0  0  0  0  0  0  0  0
  139.0820   77.2310  221.7150 N   0  0  0  0  0  0  0  0  0  0  0  0
  138.0970   77.5000  222.7410 C   0  0  0  0  0  0  0  0  0  0  0  0
  137.3320   78.7360  222.3120 C   0  0  0  0  0  0  0  0  0  0  0  0
  138.3120   79.4610  221.4160 C   0  0  0  0  0  0  0  0  0  0  0  0
  139.4710   78.5670  221.2350 C   0  0  1  0  0  0  0  0  0  0  0  0
  140.7620   79.0500  221.7720 C   0  0  0  0  0  0  0  0  0  0  0  0
  140.8050   80.5610  222.0270 C   0  0  0  0  0  0  0  0  0  0  0  0
  142.2750   80.9260  222.0930 C   0  0  0  0  0  0  0  0  0  0  0  0
  143.0010   79.9650  222.8560 N   0  0  0  0  0  0  0  0  0  0  0  0
  142.2090   79.2260  223.8060 C   0  0  0  0  0  0  0  0  0  0  0  0
  141.1680   78.4190  223.0860 C   0  0  0  0  0  0  0  0  0  0  0  0
  140.0470   71.6950  223.0890 C   0  0  0  0  0  0  0  0  0  0  0  0
  139.5530   70.4330  222.8490 C   0  0  0  0  0  0  0  0  0  0  0  0
  139.5720   69.5250  223.8890 C   0  0  0  0  0  0  0  0  0  0  0  0
  140.0650   69.8510  225.1300 C   0  0  0  0  0  0  0  0  0  0  0  0
  140.1060   68.9820  226.1950 C   0  0  0  0  0  0  0  0  0  0  0  0
  140.6080   69.3370  227.4350 C   0  0  0  0  0  0  0  0  0  0  0  0
  140.6330   68.1930  228.7460 Cl  0  0  0  0  0  0  0  0  0  0  0  0
  141.0880   70.6200  227.6100 C   0  0  0  0  0  0  0  0  0  0  0  0
  141.0500   71.4880  226.5530 C   0  0  0  0  0  0  0  0  0  0  0  0
  140.5510   71.1430  225.3130 C   0  0  0  0  0  0  0  0  0  0  0  0
  140.5320   72.0290  224.2990 N   0  0  0  0  0  0  0  0  0  0  0  0
  138.4460   73.7570  222.8530 H   0  0  0  0  0  0  0  0  0  0  0  0
  139.5069   74.3109  220.0842 H   0  0  0  0  0  0  0  0  0  0  0  0
  137.9488   74.9695  220.8828 H   0  0  0  0  0  0  0  0  0  0  0  0
  137.4104   76.6461  222.8379 H   0  0  0  0  0  0  0  0  0  0  0  0
  138.5809   77.6581  223.7161 H   0  0  0  0  0  0  0  0  0  0  0  0
  136.4209   78.4630  221.7593 H   0  0  0  0  0  0  0  0  0  0  0  0
  136.9927   79.3475  223.1611 H   0  0  0  0  0  0  0  0  0  0  0  0
  137.8461   79.6776  220.4434 H   0  0  0  0  0  0  0  0  0  0  0  0
  138.6195   80.4180  221.8627 H   0  0  0  0  0  0  0  0  0  0  0  0
  139.7057   78.5339  220.1608 H   0  0  0  0  0  0  0  0  0  0  0  0
  141.4529   78.7597  220.9668 H   0  0  0  0  0  0  0  0  0  0  0  0
  140.3122   81.1024  221.2060 H   0  0  0  0  0  0  0  0  0  0  0  0
  140.2784   80.8307  222.9543 H   0  0  0  0  0  0  0  0  0  0  0  0
  142.6843   80.9603  221.0726 H   0  0  0  0  0  0  0  0  0  0  0  0
  142.3731   81.9085  222.5778 H   0  0  0  0  0  0  0  0  0  0  0  0
  143.6280   79.3570  222.3260 H   0  0  0  0  0  0  0  0  0  0  0  0
  142.8622   78.5510  224.3785 H   0  0  0  0  0  0  0  0  0  0  0  0
  141.7122   79.9308  224.4890 H   0  0  0  0  0  0  0  0  0  0  0  0
  141.5729   77.4158  222.8869 H   0  0  0  0  0  0  0  0  0  0  0  0
  140.2754   78.3710  223.7271 H   0  0  0  0  0  0  0  0  0  0  0  0
  139.1560   70.1568  221.8610 H   0  0  0  0  0  0  0  0  0  0  0  0
  139.1811   68.5109  223.7194 H   0  0  0  0  0  0  0  0  0  0  0  0
  139.7232   67.9603  226.0553 H   0  0  0  0  0  0  0  0  0  0  0  0
  141.4936   70.9384  228.5817 H   0  0  0  0  0  0  0  0  0  0  0  0
  141.4350   72.5082  226.6980 H   0  0  0  0  0  0  0  0  0  0  0  0
  1  2  2  0
  2  3  1  0
  3  4  1  0
  4  5  1  0
  5  6  2  0
  5  7  1  0
  7  8  1  0
  8  9  1  0
  9 10  1  0
 10 11  1  0
 11 12  1  0
 12 13  1  0
 13 14  1  0
 14 15  1  0
 15 16  1  0
 16 17  1  0
  2 18  1  0
 18 19  2  0
 19 20  1  0
 20 21  2  0
 21 22  1  0
 22 23  2  0
 23 24  1  0
 23 25  1  0
 25 26  2  0
 26 27  1  0
 27 28  2  0
 11  7  1  0
 17 12  1  0
 28 18  1  0
 27 21  1  0
  3 29  1  0
  4 30  1  0
  4 31  1  0
  8 32  1  0
  8 33  1  0
  9 34  1  0
  9 35  1  0
 10 36  1  0
 10 37  1  0
 11 38  1  6
 12 39  1  0
 13 40  1  0
 13 41  1  0
 14 42  1  0
 14 43  1  0
 15 44  1  0
 16 45  1  0
 16 46  1  0
 17 47  1  0
 17 48  1  0
 19 49  1  0
 20 50  1  0
 22 51  1  0
 25 52  1  0
 26 53  1  0
M  END
>  <smiles>  (62) 
O=C(NCC(=O)N1CCCC1C1CCNCC1)c1ccc2cc(Cl)ccc2n1

>  <score_type>  (62) 
oracle

>  <origin>  (62) 
autodockgpu

>  <m_score__min__energy>  (62) 
-8.6300000000000008

>  <m_primary>  (62) 
energy

>  <rmsd>  (62) 
2.8963896459614955

>  <m_score__min__rmsd>  (62) 
2.8963896459614955

>  <meeko>  (62) 
{"free_energy": -8.63, "intermolecular_energy": -10.13, "internal_energy": -1.13, "cluster_size": 23, "cluster_id": 1, "rank_in_cluster": 1}

>  <energy>  (62) 
-7.99

>  <cluster_rmsd>  (62) 
1.22

>  <cluster>  (62) 
1

$$$$

     RDKit          3D

 53 56  0  0  0  0  0  0  0  0999 V2000
  139.2930   71.9810  220.8500 O   0  0  0  0  0  0  0  0  0  0  0  0
  139.4480   72.4100  222.0420 C   0  0  0  0  0  0  0  0  0  0  0  0
  139.4210   73.8300  222.3090 N   0  0  0  0  0  0  0  0  0  0  0  0
  139.2320   74.7990  221.2860 C   0  0  0  0  0  0  0  0  0  0  0  0
  139.8580   76.1150  221.4330 C   0  0  0  0  0  0  0  0  0  0  0  0
  139.2750   76.8770  222.3130 O   0  0  0  0  0  0  0  0  0  0  0  0
  140.9700   76.6600  220.7790 N   0  0  0  0  0  0  0  0  0  0  0  0
  141.6800   77.9150  220.9030 C   0  0  0  0  0  0  0  0  0  0  0  0
  142.1790   78.2830  219.5200 C   0  0  0  0  0  0  0  0  0  0  0  0
  142.2840   76.9470  218.8180 C   0  0  0  0  0  0  0  0  0  0  0  0
  141.6990   75.9390  219.7220 C   0  0  1  0  0  0  0  0  0  0  0  0
  142.6200   74.8970  220.2270 C   0  0  0  0  0  0  0  0  0  0  0  0
  142.2150   73.4690  219.8430 C   0  0  0  0  0  0  0  0  0  0  0  0
  142.9460   72.5600  220.8120 C   0  0  0  0  0  0  0  0  0  0  0  0
  144.2940   72.9890  220.9880 N   0  0  0  0  0  0  0  0  0  0  0  0
  144.8270   73.7660  219.8980 C   0  0  0  0  0  0  0  0  0  0  0  0
  144.0480   75.0410  219.7500 C   0  0  0  0  0  0  0  0  0  0  0  0
  139.6570   71.4550  223.1500 C   0  0  0  0  0  0  0  0  0  0  0  0
  139.3260   70.1340  222.9450 C   0  0  0  0  0  0  0  0  0  0  0  0
  139.5240   69.2510  223.9860 C   0  0  0  0  0  0  0  0  0  0  0  0
  140.0330   69.6550  225.1970 C   0  0  0  0  0  0  0  0  0  0  0  0
  140.2490   68.8140  226.2630 C   0  0  0  0  0  0  0  0  0  0  0  0
  140.7640   69.2490  227.4720 C   0  0  0  0  0  0  0  0  0  0  0  0
  141.0140   68.1350  228.7850 Cl  0  0  0  0  0  0  0  0  0  0  0  0
  141.0750   70.5860  227.6130 C   0  0  0  0  0  0  0  0  0  0  0  0
  140.8630   71.4280  226.5550 C   0  0  0  0  0  0  0  0  0  0  0  0
  140.3490   71.0030  225.3470 C   0  0  0  0  0  0  0  0  0  0  0  0
  140.1560   71.8660  224.3300 N   0  0  0  0  0  0  0  0  0  0  0  0
  139.5550   74.0680  223.3380 H   0  0  0  0  0  0  0  0  0  0  0  0
  139.6154   74.3617  220.3523 H   0  0  0  0  0  0  0  0  0  0  0  0
  138.1536   75.0134  221.3202 H   0  0  0  0  0  0  0  0  0  0  0  0
  141.0031   78.6958  221.2801 H   0  0  0  0  0  0  0  0  0  0  0  0
  142.5177   77.8228  221.6099 H   0  0  0  0  0  0  0  0  0  0  0  0
  141.4641   78.9425  219.0062 H   0  0  0  0  0  0  0  0  0  0  0  0
  143.1310   78.8338  219.5395 H   0  0  0  0  0  0  0  0  0  0  0  0
  141.7267   76.9733  217.8700 H   0  0  0  0  0  0  0  0  0  0  0  0
  143.3320   76.7061  218.5862 H   0  0  0  0  0  0  0  0  0  0  0  0
  141.0068   75.3198  219.1326 H   0  0  0  0  0  0  0  0  0  0  0  0
  142.5511   75.0550  221.3134 H   0  0  0  0  0  0  0  0  0  0  0  0
  141.1272   73.3393  219.9419 H   0  0  0  0  0  0  0  0  0  0  0  0
  142.4739   73.2408  218.7985 H   0  0  0  0  0  0  0  0  0  0  0  0
  142.4311   72.5800  221.7839 H   0  0  0  0  0  0  0  0  0  0  0  0
  142.9510   71.5389  220.4029 H   0  0  0  0  0  0  0  0  0  0  0  0
  144.5150   73.4020  221.8960 H   0  0  0  0  0  0  0  0  0  0  0  0
  145.8814   74.0044  220.1015 H   0  0  0  0  0  0  0  0  0  0  0  0
  144.7499   73.1846  218.9674 H   0  0  0  0  0  0  0  0  0  0  0  0
  144.5409   75.8277  220.3400 H   0  0  0  0  0  0  0  0  0  0  0  0
  144.0224   75.2988  218.6809 H   0  0  0  0  0  0  0  0  0  0  0  0
  138.9169   69.7940  221.9822 H   0  0  0  0  0  0  0  0  0  0  0  0
  139.2667   68.1912  223.8425 H   0  0  0  0  0  0  0  0  0  0  0  0
  140.0016   67.7482  226.1501 H   0  0  0  0  0  0  0  0  0  0  0  0
  141.4860   70.9683  228.5590 H   0  0  0  0  0  0  0  0  0  0  0  0
  141.1139   72.4925  226.6731 H   0  0  0  0  0  0  0  0  0  0  0  0
  1  2  2  0
  2  3  1  0
  3  4  1  0
  4  5  1  0
  5  6  2  0
  5  7  1  0
  7  8  1  0
  8  9  1  0
  9 10  1  0
 10 11  1  0
 11 12  1  0
 12 13  1  0
 13 14  1  0
 14 15  1  0
 15 16  1  0
 16 17  1  0
  2 18  1  0
 18 19  2  0
 19 20  1  0
 20 21  2  0
 21 22  1  0
 22 23  2  0
 23 24  1  0
 23 25  1  0
 25 26  2  0
 26 27  1  0
 27 28  2  0
 11  7  1  0
 17 12  1  0
 28 18  1  0
 27 21  1  0
  3 29  1  0
  4 30  1  0
  4 31  1  0
  8 32  1  0
  8 33  1  0
  9 34  1  0
  9 35  1  0
 10 36  1  0
 10 37  1  0
 11 38  1  6
 12 39  1  0
 13 40  1  0
 13 41  1  0
 14 42  1  0
 14 43  1  0
 15 44  1  0
 16 45  1  0
 16 46  1  0
 17 47  1  0
 17 48  1  0
 19 49  1  0
 20 50  1  0
 22 51  1  0
 25 52  1  0
 26 53  1  0
M  END
>  <smiles>  (63) 
O=C(NCC(=O)N1CCCC1C1CCNCC1)c1ccc2cc(Cl)ccc2n1

>  <score_type>  (63) 
oracle

>  <origin>  (63) 
autodockgpu

>  <m_score__min__energy>  (63) 
-8.6300000000000008

>  <m_primary>  (63) 
energy

>  <rmsd>  (63) 
2.189786639296025

>  <m_score__min__rmsd>  (63) 
2.189786639296025

>  <meeko>  (63) 
{"free_energy": -7.54, "intermolecular_energy": -9.03, "internal_energy": -1.84, "cluster_size": 9, "cluster_id": 2, "rank_in_cluster": 8}

>  <energy>  (63) 
-7.98

>  <cluster_rmsd>  (63) 
1.26

>  <cluster>  (63) 
1

$$$$

     RDKit          3D

 53 56  0  0  0  0  0  0  0  0999 V2000
  140.3880   72.5140  220.7510 O   0  0  0  0  0  0  0  0  0  0  0  0
  140.0100   72.8710  221.9160 C   0  0  0  0  0  0  0  0  0  0  0  0
  139.5610   74.2250  222.1480 N   0  0  0  0  0  0  0  0  0  0  0  0
  139.5250   75.2070  221.1210 C   0  0  0  0  0  0  0  0  0  0  0  0
  139.0760   76.5620  221.4510 C   0  0  0  0  0  0  0  0  0  0  0  0
  138.4230   76.6380  222.5740 O   0  0  0  0  0  0  0  0  0  0  0  0
  139.2470   77.7610  220.7490 N   0  0  0  0  0  0  0  0  0  0  0  0
  138.3380   78.6350  220.0370 C   0  0  0  0  0  0  0  0  0  0  0  0
  139.1100   79.2290  218.8760 C   0  0  0  0  0  0  0  0  0  0  0  0
  140.5480   79.1710  219.3430 C   0  0  0  0  0  0  0  0  0  0  0  0
  140.5570   78.4190  220.6130 C   0  0  1  0  0  0  0  0  0  0  0  0
  140.9840   79.1680  221.8150 C   0  0  0  0  0  0  0  0  0  0  0  0
  141.4500   78.2750  222.9710 C   0  0  0  0  0  0  0  0  0  0  0  0
  141.3730   79.1400  224.2150 C   0  0  0  0  0  0  0  0  0  0  0  0
  141.8860   80.4440  223.9550 N   0  0  0  0  0  0  0  0  0  0  0  0
  142.8130   80.5200  222.8550 C   0  0  0  0  0  0  0  0  0  0  0  0
  142.1270   80.1310  221.5790 C   0  0  0  0  0  0  0  0  0  0  0  0
  140.0300   71.9000  223.0300 C   0  0  0  0  0  0  0  0  0  0  0  0
  139.5410   70.6330  222.8010 C   0  0  0  0  0  0  0  0  0  0  0  0
  139.5640   69.7340  223.8470 C   0  0  0  0  0  0  0  0  0  0  0  0
  140.0540   70.0730  225.0870 C   0  0  0  0  0  0  0  0  0  0  0  0
  140.0980   69.2130  226.1590 C   0  0  0  0  0  0  0  0  0  0  0  0
  140.5970   69.5800  227.3970 C   0  0  0  0  0  0  0  0  0  0  0  0
  140.6260   68.4470  228.7170 Cl  0  0  0  0  0  0  0  0  0  0  0  0
  141.0720   70.8660  227.5610 C   0  0  0  0  0  0  0  0  0  0  0  0
  141.0310   71.7260  226.4970 C   0  0  0  0  0  0  0  0  0  0  0  0
  140.5340   71.3680  225.2600 C   0  0  0  0  0  0  0  0  0  0  0  0
  140.5120   72.2460  224.2380 N   0  0  0  0  0  0  0  0  0  0  0  0
  139.2640   74.4040  223.1540 H   0  0  0  0  0  0  0  0  0  0  0  0
  140.5463   75.2938  220.7218 H   0  0  0  0  0  0  0  0  0  0  0  0
  138.7567   74.8356  220.4269 H   0  0  0  0  0  0  0  0  0  0  0  0
  137.4772   78.0610  219.6636 H   0  0  0  0  0  0  0  0  0  0  0  0
  137.9557   79.4260  220.6990 H   0  0  0  0  0  0  0  0  0  0  0  0
  138.9685   78.6320  217.9630 H   0  0  0  0  0  0  0  0  0  0  0  0
  138.7830   80.2475  218.6198 H   0  0  0  0  0  0  0  0  0  0  0  0
  141.1683   78.6563  218.5944 H   0  0  0  0  0  0  0  0  0  0  0  0
  140.9578   80.1824  219.4817 H   0  0  0  0  0  0  0  0  0  0  0  0
  141.3586   77.6680  220.5543 H   0  0  0  0  0  0  0  0  0  0  0  0
  140.0616   79.7094  222.0719 H   0  0  0  0  0  0  0  0  0  0  0  0
  140.7899   77.4007  223.0704 H   0  0  0  0  0  0  0  0  0  0  0  0
  142.4682   77.8935  222.8042 H   0  0  0  0  0  0  0  0  0  0  0  0
  140.3233   79.2219  224.5333 H   0  0  0  0  0  0  0  0  0  0  0  0
  141.9771   78.6740  225.0074 H   0  0  0  0  0  0  0  0  0  0  0  0
  141.1950   81.1970  223.9260 H   0  0  0  0  0  0  0  0  0  0  0  0
  143.1901   81.5496  222.7667 H   0  0  0  0  0  0  0  0  0  0  0  0
  143.6503   79.8309  223.0397 H   0  0  0  0  0  0  0  0  0  0  0  0
  141.7323   81.0382  221.0982 H   0  0  0  0  0  0  0  0  0  0  0  0
  142.8659   79.6275  220.9383 H   0  0  0  0  0  0  0  0  0  0  0  0
  139.1448   70.3471  221.8155 H   0  0  0  0  0  0  0  0  0  0  0  0
  139.1793   68.7163  223.6849 H   0  0  0  0  0  0  0  0  0  0  0  0
  139.7201   68.1884  226.0270 H   0  0  0  0  0  0  0  0  0  0  0  0
  141.4764   71.1937  228.5300 H   0  0  0  0  0  0  0  0  0  0  0  0
  141.4114   72.7490  226.6339 H   0  0  0  0  0  0  0  0  0  0  0  0
  1  2  2  0
  2  3  1  0
  3  4  1  0
  4  5  1  0
  5  6  2  0
  5  7  1  0
  7  8  1  0
  8  9  1  0
  9 10  1  0
 10 11  1  0
 11 12  1  0
 12 13  1  0
 13 14  1  0
 14 15  1  0
 15 16  1  0
 16 17  1  0
  2 18  1  0
 18 19  2  0
 19 20  1  0
 20 21  2  0
 21 22  1  0
 22 23  2  0
 23 24  1  0
 23 25  1  0
 25 26  2  0
 26 27  1  0
 27 28  2  0
 11  7  1  0
 17 12  1  0
 28 18  1  0
 27 21  1  0
  3 29  1  0
  4 30  1  0
  4 31  1  0
  8 32  1  0
  8 33  1  0
  9 34  1  0
  9 35  1  0
 10 36  1  0
 10 37  1  0
 11 38  1  6
 12 39  1  0
 13 40  1  0
 13 41  1  0
 14 42  1  0
 14 43  1  0
 15 44  1  0
 16 45  1  0
 16 46  1  0
 17 47  1  0
 17 48  1  0
 19 49  1  0
 20 50  1  0
 22 51  1  0
 25 52  1  0
 26 53  1  0
M  END
>  <smiles>  (64) 
O=C(NCC(=O)N1CCCC1C1CCNCC1)c1ccc2cc(Cl)ccc2n1

>  <score_type>  (64) 
oracle

>  <origin>  (64) 
autodockgpu

>  <m_score__min__energy>  (64) 
-8.6300000000000008

>  <m_primary>  (64) 
energy

>  <rmsd>  (64) 
2.236505470382991

>  <m_score__min__rmsd>  (64) 
2.236505470382991

>  <meeko>  (64) 
{"free_energy": -7.91, "intermolecular_energy": -9.4, "internal_energy": -1.54, "cluster_size": 23, "cluster_id": 1, "rank_in_cluster": 15}

>  <energy>  (64) 
-7.91

>  <cluster_rmsd>  (64) 
1.18

>  <cluster>  (64) 
1

$$$$

     RDKit          3D

 53 56  0  0  0  0  0  0  0  0999 V2000
  139.0810   73.0440  220.6420 O   0  0  0  0  0  0  0  0  0  0  0  0
  140.0260   72.9330  221.4930 C   0  0  0  0  0  0  0  0  0  0  0  0
  141.2350   73.7100  221.3360 N   0  0  0  0  0  0  0  0  0  0  0  0
  141.4340   74.6080  220.2530 C   0  0  0  0  0  0  0  0  0  0  0  0
  140.6730   75.8600  220.2210 C   0  0  0  0  0  0  0  0  0  0  0  0
  140.6830   76.4490  219.0610 O   0  0  0  0  0  0  0  0  0  0  0  0
  139.9500   76.4980  221.2360 N   0  0  0  0  0  0  0  0  0  0  0  0
  139.2640   76.0220  222.4190 C   0  0  0  0  0  0  0  0  0  0  0  0
  138.0650   76.9250  222.6310 C   0  0  0  0  0  0  0  0  0  0  0  0
  138.4750   78.2170  221.9600 C   0  0  0  0  0  0  0  0  0  0  0  0
  139.7530   77.9570  221.2700 C   0  0  1  0  0  0  0  0  0  0  0  0
  140.9270   78.7130  221.7560 C   0  0  0  0  0  0  0  0  0  0  0  0
  140.7380   80.2340  221.7400 C   0  0  0  0  0  0  0  0  0  0  0  0
  142.1350   80.8230  221.7890 C   0  0  0  0  0  0  0  0  0  0  0  0
  142.9440   80.1270  222.7340 N   0  0  0  0  0  0  0  0  0  0  0  0
  142.2100   79.4510  223.7730 C   0  0  0  0  0  0  0  0  0  0  0  0
  141.3400   78.3850  223.1740 C   0  0  0  0  0  0  0  0  0  0  0  0
  139.8850   72.0110  222.6390 C   0  0  0  0  0  0  0  0  0  0  0  0
  139.0380   70.9330  222.5090 C   0  0  0  0  0  0  0  0  0  0  0  0
  138.9130   70.0780  223.5850 C   0  0  0  0  0  0  0  0  0  0  0  0
  139.6030   70.2780  224.7570 C   0  0  0  0  0  0  0  0  0  0  0  0
  139.5130   69.4550  225.8540 C   0  0  0  0  0  0  0  0  0  0  0  0
  140.2200   69.6800  227.0230 C   0  0  0  0  0  0  0  0  0  0  0  0
  140.0640   68.6020  228.3800 Cl  0  0  0  0  0  0  0  0  0  0  0  0
  141.0530   70.7790  227.0890 C   0  0  0  0  0  0  0  0  0  0  0  0
  141.1470   71.6010  225.9990 C   0  0  0  0  0  0  0  0  0  0  0  0
  140.4450   71.3850  224.8300 C   0  0  0  0  0  0  0  0  0  0  0  0
  140.5670   72.2200  223.7800 N   0  0  0  0  0  0  0  0  0  0  0  0
  141.9480   73.5400  222.1080 H   0  0  0  0  0  0  0  0  0  0  0  0
  142.5003   74.8784  220.2498 H   0  0  0  0  0  0  0  0  0  0  0  0
  141.0661   74.0525  219.3778 H   0  0  0  0  0  0  0  0  0  0  0  0
  138.9331   74.9834  222.2713 H   0  0  0  0  0  0  0  0  0  0  0  0
  139.9304   76.0433  223.2939 H   0  0  0  0  0  0  0  0  0  0  0  0
  137.1663   76.5035  222.1570 H   0  0  0  0  0  0  0  0  0  0  0  0
  137.8085   77.0555  223.6927 H   0  0  0  0  0  0  0  0  0  0  0  0
  137.7089   78.5251  221.2332 H   0  0  0  0  0  0  0  0  0  0  0  0
  138.5842   79.0255  222.6978 H   0  0  0  0  0  0  0  0  0  0  0  0
  139.6716   78.3575  220.2487 H   0  0  0  0  0  0  0  0  0  0  0  0
  141.6991   78.3964  221.0393 H   0  0  0  0  0  0  0  0  0  0  0  0
  140.2223   80.5465  220.8200 H   0  0  0  0  0  0  0  0  0  0  0  0
  140.1241   80.5753  222.5866 H   0  0  0  0  0  0  0  0  0  0  0  0
  142.5949   80.7441  220.7929 H   0  0  0  0  0  0  0  0  0  0  0  0
  142.0630   81.8772  222.0946 H   0  0  0  0  0  0  0  0  0  0  0  0
  143.6820   79.5400  222.3420 H   0  0  0  0  0  0  0  0  0  0  0  0
  142.9172   78.9906  224.4786 H   0  0  0  0  0  0  0  0  0  0  0  0
  141.5777   80.1793  224.3018 H   0  0  0  0  0  0  0  0  0  0  0  0
  141.8952   77.4354  223.1704 H   0  0  0  0  0  0  0  0  0  0  0  0
  140.4269   78.3131  223.7832 H   0  0  0  0  0  0  0  0  0  0  0  0
  138.4792   70.7591  221.5776 H   0  0  0  0  0  0  0  0  0  0  0  0
  138.2413   69.2108  223.5024 H   0  0  0  0  0  0  0  0  0  0  0  0
  138.8500   68.5789  225.8009 H   0  0  0  0  0  0  0  0  0  0  0  0
  141.6305   70.9900  228.0011 H   0  0  0  0  0  0  0  0  0  0  0  0
  141.8130   72.4746  226.0569 H   0  0  0  0  0  0  0  0  0  0  0  0
  1  2  2  0
  2  3  1  0
  3  4  1  0
  4  5  1  0
  5  6  2  0
  5  7  1  0
  7  8  1  0
  8  9  1  0
  9 10  1  0
 10 11  1  0
 11 12  1  0
 12 13  1  0
 13 14  1  0
 14 15  1  0
 15 16  1  0
 16 17  1  0
  2 18  1  0
 18 19  2  0
 19 20  1  0
 20 21  2  0
 21 22  1  0
 22 23  2  0
 23 24  1  0
 23 25  1  0
 25 26  2  0
 26 27  1  0
 27 28  2  0
 11  7  1  0
 17 12  1  0
 28 18  1  0
 27 21  1  0
  3 29  1  0
  4 30  1  0
  4 31  1  0
  8 32  1  0
  8 33  1  0
  9 34  1  0
  9 35  1  0
 10 36  1  0
 10 37  1  0
 11 38  1  6
 12 39  1  0
 13 40  1  0
 13 41  1  0
 14 42  1  0
 14 43  1  0
 15 44  1  0
 16 45  1  0
 16 46  1  0
 17 47  1  0
 17 48  1  0
 19 49  1  0
 20 50  1  0
 22 51  1  0
 25 52  1  0
 26 53  1  0
M  END
>  <smiles>  (65) 
O=C(NCC(=O)N1CCCC1C1CCNCC1)c1ccc2cc(Cl)ccc2n1

>  <score_type>  (65) 
oracle

>  <origin>  (65) 
autodockgpu

>  <m_score__min__energy>  (65) 
-8.6300000000000008

>  <m_primary>  (65) 
energy

>  <rmsd>  (65) 
3.0554235349491563

>  <m_score__min__rmsd>  (65) 
3.0554235349491563

>  <meeko>  (65) 
{"free_energy": -7.86, "intermolecular_energy": -9.36, "internal_energy": -1.61, "cluster_size": 23, "cluster_id": 1, "rank_in_cluster": 18}

>  <energy>  (65) 
-7.91

>  <cluster_rmsd>  (65) 
1.25

>  <cluster>  (65) 
1

$$$$

     RDKit          3D

 53 56  0  0  0  0  0  0  0  0999 V2000
  134.0360   69.5050  226.5000 O   0  0  0  0  0  0  0  0  0  0  0  0
  134.3290   70.6300  225.9710 C   0  0  0  0  0  0  0  0  0  0  0  0
  135.3410   70.7020  224.9420 N   0  0  0  0  0  0  0  0  0  0  0  0
  136.0500   69.5590  224.4820 C   0  0  0  0  0  0  0  0  0  0  0  0
  137.5100   69.5350  224.6020 C   0  0  0  0  0  0  0  0  0  0  0  0
  137.9730   68.4390  225.1310 O   0  0  0  0  0  0  0  0  0  0  0  0
  138.4580   70.4970  224.2340 N   0  0  0  0  0  0  0  0  0  0  0  0
  138.4200   71.6450  223.3540 C   0  0  0  0  0  0  0  0  0  0  0  0
  139.7960   71.7760  222.7330 C   0  0  0  0  0  0  0  0  0  0  0  0
  140.7030   71.1110  223.7450 C   0  0  0  0  0  0  0  0  0  0  0  0
  139.8310   70.4980  224.7660 C   0  0  1  0  0  0  0  0  0  0  0  0
  139.9470   71.0400  226.1380 C   0  0  0  0  0  0  0  0  0  0  0  0
  139.9970   69.9650  227.2290 C   0  0  0  0  0  0  0  0  0  0  0  0
  139.6280   70.6710  228.5190 C   0  0  0  0  0  0  0  0  0  0  0  0
  140.2830   71.9330  228.6090 N   0  0  0  0  0  0  0  0  0  0  0  0
  141.4910   72.0430  227.8310 C   0  0  0  0  0  0  0  0  0  0  0  0
  141.1740   71.8930  226.3710 C   0  0  0  0  0  0  0  0  0  0  0  0
  133.6340   71.8580  226.4090 C   0  0  0  0  0  0  0  0  0  0  0  0
  132.4700   71.7260  227.1330 C   0  0  0  0  0  0  0  0  0  0  0  0
  131.8290   72.8790  227.5380 C   0  0  0  0  0  0  0  0  0  0  0  0
  132.3190   74.1280  227.2380 C   0  0  0  0  0  0  0  0  0  0  0  0
  131.7170   75.3030  227.6190 C   0  0  0  0  0  0  0  0  0  0  0  0
  132.2330   76.5490  227.3030 C   0  0  0  0  0  0  0  0  0  0  0  0
  131.4250   78.0030  227.8140 Cl  0  0  0  0  0  0  0  0  0  0  0  0
  133.4040   76.6120  226.5750 C   0  0  0  0  0  0  0  0  0  0  0  0
  134.0070   75.4440  226.1940 C   0  0  0  0  0  0  0  0  0  0  0  0
  133.4990   74.1990  226.5040 C   0  0  0  0  0  0  0  0  0  0  0  0
  134.1260   73.0730  226.1080 N   0  0  0  0  0  0  0  0  0  0  0  0
  135.4950   71.6880  224.5710 H   0  0  0  0  0  0  0  0  0  0  0  0
  135.6659   68.6939  225.0424 H   0  0  0  0  0  0  0  0  0  0  0  0
  135.8737   69.5575  223.3962 H   0  0  0  0  0  0  0  0  0  0  0  0
  137.6645   71.4938  222.5689 H   0  0  0  0  0  0  0  0  0  0  0  0
  138.1530   72.5558  223.9099 H   0  0  0  0  0  0  0  0  0  0  0  0
  139.8412   71.2579  221.7637 H   0  0  0  0  0  0  0  0  0  0  0  0
  140.0759   72.8195  222.5262 H   0  0  0  0  0  0  0  0  0  0  0  0
  141.3132   70.3378  223.2553 H   0  0  0  0  0  0  0  0  0  0  0  0
  141.3876   71.8420  224.1999 H   0  0  0  0  0  0  0  0  0  0  0  0
  140.1784   69.4676  224.9321 H   0  0  0  0  0  0  0  0  0  0  0  0
  139.0302   71.6434  226.2113 H   0  0  0  0  0  0  0  0  0  0  0  0
  139.2759   69.1635  227.0108 H   0  0  0  0  0  0  0  0  0  0  0  0
  140.9906   69.4973  227.2924 H   0  0  0  0  0  0  0  0  0  0  0  0
  138.5394   70.8267  228.5465 H   0  0  0  0  0  0  0  0  0  0  0  0
  139.9465   70.0466  229.3668 H   0  0  0  0  0  0  0  0  0  0  0  0
  139.6850   72.7550  228.5050 H   0  0  0  0  0  0  0  0  0  0  0  0
  141.9488   73.0279  228.0055 H   0  0  0  0  0  0  0  0  0  0  0  0
  142.1900   71.2492  228.1332 H   0  0  0  0  0  0  0  0  0  0  0  0
  140.9986   72.8907  225.9422 H   0  0  0  0  0  0  0  0  0  0  0  0
  142.0283   71.3949  225.8892 H   0  0  0  0  0  0  0  0  0  0  0  0
  132.0644   70.7339  227.3804 H   0  0  0  0  0  0  0  0  0  0  0  0
  130.8981   72.7963  228.1182 H   0  0  0  0  0  0  0  0  0  0  0  0
  130.7846   75.2519  228.2003 H   0  0  0  0  0  0  0  0  0  0  0  0
  133.8446   77.5834  226.3059 H   0  0  0  0  0  0  0  0  0  0  0  0
  134.9398   75.5003  225.6138 H   0  0  0  0  0  0  0  0  0  0  0  0
  1  2  2  0
  2  3  1  0
  3  4  1  0
  4  5  1  0
  5  6  2  0
  5  7  1  0
  7  8  1  0
  8  9  1  0
  9 10  1  0
 10 11  1  0
 11 12  1  0
 12 13  1  0
 13 14  1  0
 14 15  1  0
 15 16  1  0
 16 17  1  0
  2 18  1  0
 18 19  2  0
 19 20  1  0
 20 21  2  0
 21 22  1  0
 22 23  2  0
 23 24  1  0
 23 25  1  0
 25 26  2  0
 26 27  1  0
 27 28  2  0
 11  7  1  0
 17 12  1  0
 28 18  1  0
 27 21  1  0
  3 29  1  0
  4 30  1  0
  4 31  1  0
  8 32  1  0
  8 33  1  0
  9 34  1  0
  9 35  1  0
 10 36  1  0
 10 37  1  0
 11 38  1  1
 12 39  1  0
 13 40  1  0
 13 41  1  0
 14 42  1  0
 14 43  1  0
 15 44  1  0
 16 45  1  0
 16 46  1  0
 17 47  1  0
 17 48  1  0
 19 49  1  0
 20 50  1  0
 22 51  1  0
 25 52  1  0
 26 53  1  0
M  END
>  <smiles>  (66) 
O=C(NCC(=O)N1CCCC1C1CCNCC1)c1ccc2cc(Cl)ccc2n1

>  <score_type>  (66) 
oracle

>  <origin>  (66) 
autodockgpu

>  <m_score__min__energy>  (66) 
-8.6300000000000008

>  <m_primary>  (66) 
energy

>  <rmsd>  (66) 
7.876827164465198

>  <m_score__min__rmsd>  (66) 
7.876827164465198

>  <meeko>  (66) 
{"free_energy": -8.34, "intermolecular_energy": -9.84, "internal_energy": -1.52, "cluster_size": 7, "cluster_id": 3, "rank_in_cluster": 5}

>  <energy>  (66) 
-7.9

>  <cluster_rmsd>  (66) 
1.28

>  <cluster>  (66) 
1

$$$$

     RDKit          3D

 53 56  0  0  0  0  0  0  0  0999 V2000
  134.0140   69.2150  226.4660 O   0  0  0  0  0  0  0  0  0  0  0  0
  134.4240   70.3350  226.0100 C   0  0  0  0  0  0  0  0  0  0  0  0
  135.5290   70.3760  225.0800 N   0  0  0  0  0  0  0  0  0  0  0  0
  136.2050   69.2060  224.6410 C   0  0  0  0  0  0  0  0  0  0  0  0
  137.6510   69.2660  224.4100 C   0  0  0  0  0  0  0  0  0  0  0  0
  138.2460   68.1140  224.5170 O   0  0  0  0  0  0  0  0  0  0  0  0
  138.4650   70.3600  224.0950 N   0  0  0  0  0  0  0  0  0  0  0  0
  138.2620   71.5580  223.3080 C   0  0  0  0  0  0  0  0  0  0  0  0
  139.5910   71.8980  222.6630 C   0  0  0  0  0  0  0  0  0  0  0  0
  140.6040   71.2730  223.5960 C   0  0  0  0  0  0  0  0  0  0  0  0
  139.8470   70.4860  224.5890 C   0  0  1  0  0  0  0  0  0  0  0  0
  139.9460   70.9340  225.9950 C   0  0  0  0  0  0  0  0  0  0  0  0
  140.0830   69.7890  227.0050 C   0  0  0  0  0  0  0  0  0  0  0  0
  139.6860   70.3740  228.3460 C   0  0  0  0  0  0  0  0  0  0  0  0
  140.2580   71.6680  228.5220 N   0  0  0  0  0  0  0  0  0  0  0  0
  141.4440   71.9140  227.7430 C   0  0  0  0  0  0  0  0  0  0  0  0
  141.1170   71.8490  226.2790 C   0  0  0  0  0  0  0  0  0  0  0  0
  133.7690   71.5900  226.4330 C   0  0  0  0  0  0  0  0  0  0  0  0
  132.6260   71.5050  227.1970 C   0  0  0  0  0  0  0  0  0  0  0  0
  132.0220   72.6830  227.5860 C   0  0  0  0  0  0  0  0  0  0  0  0
  132.5280   73.9120  227.2340 C   0  0  0  0  0  0  0  0  0  0  0  0
  131.9630   75.1110  227.5980 C   0  0  0  0  0  0  0  0  0  0  0  0
  132.4940   76.3350  227.2280 C   0  0  0  0  0  0  0  0  0  0  0  0
  131.7330   77.8210  227.7190 Cl  0  0  0  0  0  0  0  0  0  0  0  0
  133.6420   76.3510  226.4610 C   0  0  0  0  0  0  0  0  0  0  0  0
  134.2090   75.1600  226.0970 C   0  0  0  0  0  0  0  0  0  0  0  0
  133.6860   73.9360  226.4600 C   0  0  0  0  0  0  0  0  0  0  0  0
  134.2760   72.7860  226.0800 N   0  0  0  0  0  0  0  0  0  0  0  0
  135.7770   71.3620  224.7640 H   0  0  0  0  0  0  0  0  0  0  0  0
  136.0317   68.4294  225.4005 H   0  0  0  0  0  0  0  0  0  0  0  0
  135.7855   69.0180  223.6417 H   0  0  0  0  0  0  0  0  0  0  0  0
  137.5022   71.3765  222.5336 H   0  0  0  0  0  0  0  0  0  0  0  0
  137.9101   72.3867  223.9400 H   0  0  0  0  0  0  0  0  0  0  0  0
  139.6624   71.4622  221.6556 H   0  0  0  0  0  0  0  0  0  0  0  0
  139.7396   72.9798  222.5306 H   0  0  0  0  0  0  0  0  0  0  0  0
  141.2830   70.6167  223.0318 H   0  0  0  0  0  0  0  0  0  0  0  0
  141.2133   72.0451  224.0885 H   0  0  0  0  0  0  0  0  0  0  0  0
  140.3198   69.4957  224.6648 H   0  0  0  0  0  0  0  0  0  0  0  0
  138.9920   71.4672  226.1197 H   0  0  0  0  0  0  0  0  0  0  0  0
  139.4140   68.9583  226.7359 H   0  0  0  0  0  0  0  0  0  0  0  0
  141.1064   69.3862  227.0252 H   0  0  0  0  0  0  0  0  0  0  0  0
  138.5900   70.4543  228.3944 H   0  0  0  0  0  0  0  0  0  0  0  0
  140.0565   69.7128  229.1432 H   0  0  0  0  0  0  0  0  0  0  0  0
  139.6040   72.4530  228.4840 H   0  0  0  0  0  0  0  0  0  0  0  0
  141.8384   72.9120  227.9846 H   0  0  0  0  0  0  0  0  0  0  0  0
  142.1978   71.1487  227.9798 H   0  0  0  0  0  0  0  0  0  0  0  0
  140.8695   72.8610  225.9260 H   0  0  0  0  0  0  0  0  0  0  0  0
  141.9957   71.4457  225.7543 H   0  0  0  0  0  0  0  0  0  0  0  0
  132.2084   70.5297  227.4876 H   0  0  0  0  0  0  0  0  0  0  0  0
  131.1079   72.6375  228.1962 H   0  0  0  0  0  0  0  0  0  0  0  0
  131.0491   75.0975  228.2100 H   0  0  0  0  0  0  0  0  0  0  0  0
  134.0928   77.3043  226.1481 H   0  0  0  0  0  0  0  0  0  0  0  0
  135.1240   75.1794  225.4868 H   0  0  0  0  0  0  0  0  0  0  0  0
  1  2  2  0
  2  3  1  0
  3  4  1  0
  4  5  1  0
  5  6  2  0
  5  7  1  0
  7  8  1  0
  8  9  1  0
  9 10  1  0
 10 11  1  0
 11 12  1  0
 12 13  1  0
 13 14  1  0
 14 15  1  0
 15 16  1  0
 16 17  1  0
  2 18  1  0
 18 19  2  0
 19 20  1  0
 20 21  2  0
 21 22  1  0
 22 23  2  0
 23 24  1  0
 23 25  1  0
 25 26  2  0
 26 27  1  0
 27 28  2  0
 11  7  1  0
 17 12  1  0
 28 18  1  0
 27 21  1  0
  3 29  1  0
  4 30  1  0
  4 31  1  0
  8 32  1  0
  8 33  1  0
  9 34  1  0
  9 35  1  0
 10 36  1  0
 10 37  1  0
 11 38  1  1
 12 39  1  0
 13 40  1  0
 13 41  1  0
 14 42  1  0
 14 43  1  0
 15 44  1  0
 16 45  1  0
 16 46  1  0
 17 47  1  0
 17 48  1  0
 19 49  1  0
 20 50  1  0
 22 51  1  0
 25 52  1  0
 26 53  1  0
M  END
>  <smiles>  (67) 
O=C(NCC(=O)N1CCCC1C1CCNCC1)c1ccc2cc(Cl)ccc2n1

>  <score_type>  (67) 
oracle

>  <origin>  (67) 
autodockgpu

>  <m_score__min__energy>  (67) 
-8.6300000000000008

>  <m_primary>  (67) 
energy

>  <rmsd>  (67) 
7.7484472477472295

>  <m_score__min__rmsd>  (67) 
7.7484472477472295

>  <meeko>  (67) 
{"free_energy": -8.48, "intermolecular_energy": -9.98, "internal_energy": -1.58, "cluster_size": 7, "cluster_id": 3, "rank_in_cluster": 2}

>  <energy>  (67) 
-7.89

>  <cluster_rmsd>  (67) 
0.91

>  <cluster>  (67) 
1

$$$$

     RDKit          3D

 53 56  0  0  0  0  0  0  0  0999 V2000
  136.8120   77.7400  222.2260 O   0  0  0  0  0  0  0  0  0  0  0  0
  136.9150   76.5650  222.7150 C   0  0  0  0  0  0  0  0  0  0  0  0
  138.0430   75.7320  222.3650 N   0  0  0  0  0  0  0  0  0  0  0  0
  139.0660   76.1620  221.4770 C   0  0  0  0  0  0  0  0  0  0  0  0
  140.3570   76.5770  222.0310 C   0  0  0  0  0  0  0  0  0  0  0  0
  141.1420   75.5820  222.3300 O   0  0  0  0  0  0  0  0  0  0  0  0
  140.8600   77.8600  222.2770 N   0  0  0  0  0  0  0  0  0  0  0  0
  141.8270   78.6960  221.5980 C   0  0  0  0  0  0  0  0  0  0  0  0
  142.5410   79.5050  222.6620 C   0  0  0  0  0  0  0  0  0  0  0  0
  141.5360   79.5640  223.7920 C   0  0  0  0  0  0  0  0  0  0  0  0
  140.4170   78.6790  223.4170 C   0  0  1  0  0  0  0  0  0  0  0  0
  139.1030   79.3300  223.2180 C   0  0  0  0  0  0  0  0  0  0  0  0
  138.8090   80.4560  224.2160 C   0  0  0  0  0  0  0  0  0  0  0  0
  137.3060   80.6530  224.1830 C   0  0  0  0  0  0  0  0  0  0  0  0
  136.8230   80.6270  222.8420 N   0  0  0  0  0  0  0  0  0  0  0  0
  137.8030   80.9640  221.8410 C   0  0  0  0  0  0  0  0  0  0  0  0
  138.9160   79.9570  221.8550 C   0  0  0  0  0  0  0  0  0  0  0  0
  135.8810   76.0560  223.6390 C   0  0  0  0  0  0  0  0  0  0  0  0
  135.0160   76.9600  224.2140 C   0  0  0  0  0  0  0  0  0  0  0  0
  134.0540   76.4740  225.0760 C   0  0  0  0  0  0  0  0  0  0  0  0
  133.9460   75.1340  225.3640 C   0  0  0  0  0  0  0  0  0  0  0  0
  133.0050   74.6030  226.2140 C   0  0  0  0  0  0  0  0  0  0  0  0
  132.9180   73.2480  226.4870 C   0  0  0  0  0  0  0  0  0  0  0  0
  131.7050   72.6350  227.5730 Cl  0  0  0  0  0  0  0  0  0  0  0  0
  133.8150   72.3940  225.8770 C   0  0  0  0  0  0  0  0  0  0  0  0
  134.7530   72.9180  225.0300 C   0  0  0  0  0  0  0  0  0  0  0  0
  134.8470   74.2670  224.7530 C   0  0  0  0  0  0  0  0  0  0  0  0
  135.7870   74.7410  223.9120 N   0  0  0  0  0  0  0  0  0  0  0  0
  138.0250   74.7790  222.8370 H   0  0  0  0  0  0  0  0  0  0  0  0
  139.2641   75.3296  220.7857 H   0  0  0  0  0  0  0  0  0  0  0  0
  138.6606   77.0829  221.0325 H   0  0  0  0  0  0  0  0  0  0  0  0
  142.5486   78.0709  221.0516 H   0  0  0  0  0  0  0  0  0  0  0  0
  141.3319   79.3560  220.8706 H   0  0  0  0  0  0  0  0  0  0  0  0
  143.4656   79.0032  222.9835 H   0  0  0  0  0  0  0  0  0  0  0  0
  142.8494   80.5003  222.3095 H   0  0  0  0  0  0  0  0  0  0  0  0
  141.9975   79.2146  224.7273 H   0  0  0  0  0  0  0  0  0  0  0  0
  141.1859   80.5941  223.9541 H   0  0  0  0  0  0  0  0  0  0  0  0
  140.1901   78.0397  224.2829 H   0  0  0  0  0  0  0  0  0  0  0  0
  138.4177   78.4809  223.3569 H   0  0  0  0  0  0  0  0  0  0  0  0
  139.1358   80.1680  225.2261 H   0  0  0  0  0  0  0  0  0  0  0  0
  139.3450   81.3802  223.9541 H   0  0  0  0  0  0  0  0  0  0  0  0
  136.8237   79.8474  224.7560 H   0  0  0  0  0  0  0  0  0  0  0  0
  137.0681   81.6317  224.6253 H   0  0  0  0  0  0  0  0  0  0  0  0
  136.2780   79.8030  222.5810 H   0  0  0  0  0  0  0  0  0  0  0  0
  137.3258   80.9663  220.8499 H   0  0  0  0  0  0  0  0  0  0  0  0
  138.2142   81.9608  222.0585 H   0  0  0  0  0  0  0  0  0  0  0  0
  138.6848   79.1636  221.1290 H   0  0  0  0  0  0  0  0  0  0  0  0
  139.8476   80.4803  221.5938 H   0  0  0  0  0  0  0  0  0  0  0  0
  135.0894   78.0351  223.9934 H   0  0  0  0  0  0  0  0  0  0  0  0
  133.3532   77.1794  225.5464 H   0  0  0  0  0  0  0  0  0  0  0  0
  132.2899   75.2841  226.6985 H   0  0  0  0  0  0  0  0  0  0  0  0
  133.7762   71.3115  226.0686 H   0  0  0  0  0  0  0  0  0  0  0  0
  135.4652   72.2326  224.5474 H   0  0  0  0  0  0  0  0  0  0  0  0
  1  2  2  0
  2  3  1  0
  3  4  1  0
  4  5  1  0
  5  6  2  0
  5  7  1  0
  7  8  1  0
  8  9  1  0
  9 10  1  0
 10 11  1  0
 11 12  1  0
 12 13  1  0
 13 14  1  0
 14 15  1  0
 15 16  1  0
 16 17  1  0
  2 18  1  0
 18 19  2  0
 19 20  1  0
 20 21  2  0
 21 22  1  0
 22 23  2  0
 23 24  1  0
 23 25  1  0
 25 26  2  0
 26 27  1  0
 27 28  2  0
 11  7  1  0
 17 12  1  0
 28 18  1  0
 27 21  1  0
  3 29  1  0
  4 30  1  0
  4 31  1  0
  8 32  1  0
  8 33  1  0
  9 34  1  0
  9 35  1  0
 10 36  1  0
 10 37  1  0
 11 38  1  1
 12 39  1  0
 13 40  1  0
 13 41  1  0
 14 42  1  0
 14 43  1  0
 15 44  1  0
 16 45  1  0
 16 46  1  0
 17 47  1  0
 17 48  1  0
 19 49  1  0
 20 50  1  0
 22 51  1  0
 25 52  1  0
 26 53  1  0
M  END
>  <smiles>  (68) 
O=C(NCC(=O)N1CCCC1C1CCNCC1)c1ccc2cc(Cl)ccc2n1

>  <score_type>  (68) 
oracle

>  <origin>  (68) 
autodockgpu

>  <m_score__min__energy>  (68) 
-8.6300000000000008

>  <m_primary>  (68) 
energy

>  <rmsd>  (68) 
6.586487761687634

>  <m_score__min__rmsd>  (68) 
6.586487761687634

>  <meeko>  (68) 
{"free_energy": -6.64, "intermolecular_energy": -8.13, "internal_energy": -2.64, "cluster_size": 5, "cluster_id": 4, "rank_in_cluster": 1}

>  <energy>  (68) 
-7.86

>  <cluster_rmsd>  (68) 
1.22

>  <cluster>  (68) 
1

$$$$

     RDKit          3D

 53 56  0  0  0  0  0  0  0  0999 V2000
  139.1190   72.2550  220.6420 O   0  0  0  0  0  0  0  0  0  0  0  0
  139.9710   72.4060  221.5800 C   0  0  0  0  0  0  0  0  0  0  0  0
  140.9910   73.4240  221.4740 N   0  0  0  0  0  0  0  0  0  0  0  0
  141.1020   74.2830  220.3470 C   0  0  0  0  0  0  0  0  0  0  0  0
  140.9790   75.7300  220.5440 C   0  0  0  0  0  0  0  0  0  0  0  0
  141.7520   76.4320  219.7660 O   0  0  0  0  0  0  0  0  0  0  0  0
  140.1670   76.4510  221.4270 N   0  0  0  0  0  0  0  0  0  0  0  0
  139.3970   76.0830  222.5970 C   0  0  0  0  0  0  0  0  0  0  0  0
  138.1690   76.9710  222.6200 C   0  0  0  0  0  0  0  0  0  0  0  0
  138.6090   78.1980  221.8500 C   0  0  0  0  0  0  0  0  0  0  0  0
  139.9420   77.9000  221.2920 C   0  0  1  0  0  0  0  0  0  0  0  0
  141.0610   78.7320  221.7860 C   0  0  0  0  0  0  0  0  0  0  0  0
  140.7950   80.2400  221.7110 C   0  0  0  0  0  0  0  0  0  0  0  0
  142.1580   80.9020  221.7800 C   0  0  0  0  0  0  0  0  0  0  0  0
  142.9710   80.2810  222.7720 N   0  0  0  0  0  0  0  0  0  0  0  0
  142.2420   79.6020  223.8130 C   0  0  0  0  0  0  0  0  0  0  0  0
  141.4460   78.4730  223.2260 C   0  0  0  0  0  0  0  0  0  0  0  0
  139.9160   71.5390  222.7760 C   0  0  0  0  0  0  0  0  0  0  0  0
  139.2360   70.3450  222.6860 C   0  0  0  0  0  0  0  0  0  0  0  0
  139.1900   69.5440  223.8080 C   0  0  0  0  0  0  0  0  0  0  0  0
  139.7960   69.9070  224.9870 C   0  0  0  0  0  0  0  0  0  0  0  0
  139.7790   69.1420  226.1300 C   0  0  0  0  0  0  0  0  0  0  0  0
  140.3990   69.5330  227.3040 C   0  0  0  0  0  0  0  0  0  0  0  0
  140.3420   68.5220  228.7200 Cl  0  0  0  0  0  0  0  0  0  0  0  0
  141.0650   70.7420  227.3280 C   0  0  0  0  0  0  0  0  0  0  0  0
  141.0860   71.5060  226.1930 C   0  0  0  0  0  0  0  0  0  0  0  0
  140.4700   71.1250  225.0180 C   0  0  0  0  0  0  0  0  0  0  0  0
  140.5150   71.9080  223.9230 N   0  0  0  0  0  0  0  0  0  0  0  0
  141.6400   73.4600  222.3170 H   0  0  0  0  0  0  0  0  0  0  0  0
  142.0899   74.1012  219.8987 H   0  0  0  0  0  0  0  0  0  0  0  0
  140.2286   74.0247  219.7302 H   0  0  0  0  0  0  0  0  0  0  0  0
  139.0974   75.0264  222.5345 H   0  0  0  0  0  0  0  0  0  0  0  0
  139.9913   76.2130  223.5135 H   0  0  0  0  0  0  0  0  0  0  0  0
  137.3185   76.4796  222.1248 H   0  0  0  0  0  0  0  0  0  0  0  0
  137.8261   77.2035  223.6390 H   0  0  0  0  0  0  0  0  0  0  0  0
  137.8979   78.4098  221.0379 H   0  0  0  0  0  0  0  0  0  0  0  0
  138.6452   79.0811  222.5048 H   0  0  0  0  0  0  0  0  0  0  0  0
  139.9344   78.1899  220.2309 H   0  0  0  0  0  0  0  0  0  0  0  0
  141.8705   78.4324  221.1041 H   0  0  0  0  0  0  0  0  0  0  0  0
  140.2927   80.4942  220.7659 H   0  0  0  0  0  0  0  0  0  0  0  0
  140.1385   80.5772  222.5267 H   0  0  0  0  0  0  0  0  0  0  0  0
  142.6521   80.8136  220.8012 H   0  0  0  0  0  0  0  0  0  0  0  0
  142.0233   81.9609  222.0458 H   0  0  0  0  0  0  0  0  0  0  0  0
  143.7510   79.7200  222.4230 H   0  0  0  0  0  0  0  0  0  0  0  0
  142.9506   79.2024  224.5534 H   0  0  0  0  0  0  0  0  0  0  0  0
  141.5579   80.3131  224.2992 H   0  0  0  0  0  0  0  0  0  0  0  0
  142.0485   77.5538  223.2716 H   0  0  0  0  0  0  0  0  0  0  0  0
  140.5193   78.3742  223.8103 H   0  0  0  0  0  0  0  0  0  0  0  0
  138.7455   70.0399  221.7499 H   0  0  0  0  0  0  0  0  0  0  0  0
  138.6521   68.5858  223.7577 H   0  0  0  0  0  0  0  0  0  0  0  0
  139.2498   68.1779  226.1102 H   0  0  0  0  0  0  0  0  0  0  0  0
  141.5698   71.0850  228.2432 H   0  0  0  0  0  0  0  0  0  0  0  0
  141.6184   72.4683  226.2181 H   0  0  0  0  0  0  0  0  0  0  0  0
  1  2  2  0
  2  3  1  0
  3  4  1  0
  4  5  1  0
  5  6  2  0
  5  7  1  0
  7  8  1  0
  8  9  1  0
  9 10  1  0
 10 11  1  0
 11 12  1  0
 12 13  1  0
 13 14  1  0
 14 15  1  0
 15 16  1  0
 16 17  1  0
  2 18  1  0
 18 19  2  0
 19 20  1  0
 20 21  2  0
 21 22  1  0
 22 23  2  0
 23 24  1  0
 23 25  1  0
 25 26  2  0
 26 27  1  0
 27 28  2  0
 11  7  1  0
 17 12  1  0
 28 18  1  0
 27 21  1  0
  3 29  1  0
  4 30  1  0
  4 31  1  0
  8 32  1  0
  8 33  1  0
  9 34  1  0
  9 35  1  0
 10 36  1  0
 10 37  1  0
 11 38  1  6
 12 39  1  0
 13 40  1  0
 13 41  1  0
 14 42  1  0
 14 43  1  0
 15 44  1  0
 16 45  1  0
 16 46  1  0
 17 47  1  0
 17 48  1  0
 19 49  1  0
 20 50  1  0
 22 51  1  0
 25 52  1  0
 26 53  1  0
M  END
>  <smiles>  (69) 
O=C(NCC(=O)N1CCCC1C1CCNCC1)c1ccc2cc(Cl)ccc2n1

>  <score_type>  (69) 
oracle

>  <origin>  (69) 
autodockgpu

>  <m_score__min__energy>  (69) 
-8.6300000000000008

>  <m_primary>  (69) 
energy

>  <rmsd>  (69) 
2.850630952519651

>  <m_score__min__rmsd>  (69) 
2.850630952519651

>  <meeko>  (69) 
{"free_energy": -8.03, "intermolecular_energy": -9.52, "internal_energy": -1.53, "cluster_size": 23, "cluster_id": 1, "rank_in_cluster": 9}

>  <energy>  (69) 
-7.85

>  <cluster_rmsd>  (69) 
1.1

>  <cluster>  (69) 
1

$$$$

     RDKit          3D

 53 56  0  0  0  0  0  0  0  0999 V2000
  133.9680   69.2030  226.3700 O   0  0  0  0  0  0  0  0  0  0  0  0
  134.3990   70.3380  225.9730 C   0  0  0  0  0  0  0  0  0  0  0  0
  135.5410   70.4080  225.0890 N   0  0  0  0  0  0  0  0  0  0  0  0
  136.2300   69.2520  224.6340 C   0  0  0  0  0  0  0  0  0  0  0  0
  137.6890   69.2980  224.5130 C   0  0  0  0  0  0  0  0  0  0  0  0
  138.2690   68.1540  224.7350 O   0  0  0  0  0  0  0  0  0  0  0  0
  138.5320   70.3700  224.1980 N   0  0  0  0  0  0  0  0  0  0  0  0
  138.3740   71.5490  223.3720 C   0  0  0  0  0  0  0  0  0  0  0  0
  139.7300   71.8520  222.7660 C   0  0  0  0  0  0  0  0  0  0  0  0
  140.7000   71.2380  223.7500 C   0  0  0  0  0  0  0  0  0  0  0  0
  139.8970   70.4900  224.7360 C   0  0  1  0  0  0  0  0  0  0  0  0
  139.9550   70.9740  226.1330 C   0  0  0  0  0  0  0  0  0  0  0  0
  140.0470   69.8550  227.1760 C   0  0  0  0  0  0  0  0  0  0  0  0
  139.6120   70.4790  228.4880 C   0  0  0  0  0  0  0  0  0  0  0  0
  140.1910   71.7720  228.6480 N   0  0  0  0  0  0  0  0  0  0  0  0
  141.4050   71.9860  227.9020 C   0  0  0  0  0  0  0  0  0  0  0  0
  141.1250   71.8850  226.4310 C   0  0  0  0  0  0  0  0  0  0  0  0
  133.7320   71.5790  226.4160 C   0  0  0  0  0  0  0  0  0  0  0  0
  132.5940   71.4700  227.1840 C   0  0  0  0  0  0  0  0  0  0  0  0
  131.9780   72.6360  227.5920 C   0  0  0  0  0  0  0  0  0  0  0  0
  132.4680   73.8750  227.2550 C   0  0  0  0  0  0  0  0  0  0  0  0
  131.8910   75.0620  227.6380 C   0  0  0  0  0  0  0  0  0  0  0  0
  132.4060   76.2970  227.2830 C   0  0  0  0  0  0  0  0  0  0  0  0
  131.6300   77.7670  227.7980 Cl  0  0  0  0  0  0  0  0  0  0  0  0
  133.5500   76.3370  226.5120 C   0  0  0  0  0  0  0  0  0  0  0  0
  134.1290   75.1580  226.1280 C   0  0  0  0  0  0  0  0  0  0  0  0
  133.6220   73.9230  226.4770 C   0  0  0  0  0  0  0  0  0  0  0  0
  134.2230   72.7850  226.0770 N   0  0  0  0  0  0  0  0  0  0  0  0
  135.8040   71.4040  224.8210 H   0  0  0  0  0  0  0  0  0  0  0  0
  135.9898   68.4373  225.3330 H   0  0  0  0  0  0  0  0  0  0  0  0
  135.8826   69.1279  223.5977 H   0  0  0  0  0  0  0  0  0  0  0  0
  137.6393   71.3568  222.5762 H   0  0  0  0  0  0  0  0  0  0  0  0
  138.0120   72.3997  223.9681 H   0  0  0  0  0  0  0  0  0  0  0  0
  139.8299   71.3882  221.7736 H   0  0  0  0  0  0  0  0  0  0  0  0
  139.8998   72.9277  222.6107 H   0  0  0  0  0  0  0  0  0  0  0  0
  141.3877   70.5567  223.2277 H   0  0  0  0  0  0  0  0  0  0  0  0
  141.3040   72.0141  224.2427 H   0  0  0  0  0  0  0  0  0  0  0  0
  140.3514   69.4952  224.8545 H   0  0  0  0  0  0  0  0  0  0  0  0
  139.0030   71.5193  226.2127 H   0  0  0  0  0  0  0  0  0  0  0  0
  139.3787   69.0239  226.9066 H   0  0  0  0  0  0  0  0  0  0  0  0
  141.0650   69.4432  227.2404 H   0  0  0  0  0  0  0  0  0  0  0  0
  138.5159   70.5705  228.4984 H   0  0  0  0  0  0  0  0  0  0  0  0
  139.9493   69.8360  229.3143 H   0  0  0  0  0  0  0  0  0  0  0  0
  139.5480   72.5610  228.5670 H   0  0  0  0  0  0  0  0  0  0  0  0
  141.8017   72.9863  228.1300 H   0  0  0  0  0  0  0  0  0  0  0  0
  142.1429   71.2204  228.1836 H   0  0  0  0  0  0  0  0  0  0  0  0
  140.8994   72.8895  226.0436 H   0  0  0  0  0  0  0  0  0  0  0  0
  142.0161   71.4596  225.9462 H   0  0  0  0  0  0  0  0  0  0  0  0
  132.1892   70.4860  227.4632 H   0  0  0  0  0  0  0  0  0  0  0  0
  131.0672   72.5715  228.2055 H   0  0  0  0  0  0  0  0  0  0  0  0
  130.9800   75.0294  228.2536 H   0  0  0  0  0  0  0  0  0  0  0  0
  133.9888   77.2999  226.2114 H   0  0  0  0  0  0  0  0  0  0  0  0
  135.0402   75.1966  225.5130 H   0  0  0  0  0  0  0  0  0  0  0  0
  1  2  2  0
  2  3  1  0
  3  4  1  0
  4  5  1  0
  5  6  2  0
  5  7  1  0
  7  8  1  0
  8  9  1  0
  9 10  1  0
 10 11  1  0
 11 12  1  0
 12 13  1  0
 13 14  1  0
 14 15  1  0
 15 16  1  0
 16 17  1  0
  2 18  1  0
 18 19  2  0
 19 20  1  0
 20 21  2  0
 21 22  1  0
 22 23  2  0
 23 24  1  0
 23 25  1  0
 25 26  2  0
 26 27  1  0
 27 28  2  0
 11  7  1  0
 17 12  1  0
 28 18  1  0
 27 21  1  0
  3 29  1  0
  4 30  1  0
  4 31  1  0
  8 32  1  0
  8 33  1  0
  9 34  1  0
  9 35  1  0
 10 36  1  0
 10 37  1  0
 11 38  1  1
 12 39  1  0
 13 40  1  0
 13 41  1  0
 14 42  1  0
 14 43  1  0
 15 44  1  0
 16 45  1  0
 16 46  1  0
 17 47  1  0
 17 48  1  0
 19 49  1  0
 20 50  1  0
 22 51  1  0
 25 52  1  0
 26 53  1  0
M  END
>  <smiles>  (70) 
O=C(NCC(=O)N1CCCC1C1CCNCC1)c1ccc2cc(Cl)ccc2n1

>  <score_type>  (70) 
oracle

>  <origin>  (70) 
autodockgpu

>  <m_score__min__energy>  (70) 
-8.6300000000000008

>  <m_primary>  (70) 
energy

>  <rmsd>  (70) 
7.785207461276839

>  <m_score__min__rmsd>  (70) 
7.785207461276839

>  <meeko>  (70) 
{"free_energy": -8.53, "intermolecular_energy": -10.02, "internal_energy": -1.56, "cluster_size": 7, "cluster_id": 3, "rank_in_cluster": 1}

>  <energy>  (70) 
-7.81

>  <cluster_rmsd>  (70) 
1.04

>  <cluster>  (70) 
1

$$$$

     RDKit          3D

 53 56  0  0  0  0  0  0  0  0999 V2000
  140.3470   72.2900  220.5930 O   0  0  0  0  0  0  0  0  0  0  0  0
  140.0700   72.7090  221.7670 C   0  0  0  0  0  0  0  0  0  0  0  0
  139.7590   74.1050  221.9820 N   0  0  0  0  0  0  0  0  0  0  0  0
  139.7530   75.0600  220.9300 C   0  0  0  0  0  0  0  0  0  0  0  0
  141.0290   75.4700  220.3380 C   0  0  0  0  0  0  0  0  0  0  0  0
  141.8280   76.0630  221.1780 O   0  0  0  0  0  0  0  0  0  0  0  0
  141.5040   75.3180  219.0310 N   0  0  0  0  0  0  0  0  0  0  0  0
  141.5520   76.1970  217.8810 C   0  0  0  0  0  0  0  0  0  0  0  0
  141.3770   75.3310  216.6500 C   0  0  0  0  0  0  0  0  0  0  0  0
  141.8700   73.9740  217.1030 C   0  0  0  0  0  0  0  0  0  0  0  0
  142.1240   74.0710  218.5530 C   0  0  1  0  0  0  0  0  0  0  0  0
  143.5270   73.8900  218.9870 C   0  0  0  0  0  0  0  0  0  0  0  0
  143.6820   73.5760  220.4790 C   0  0  0  0  0  0  0  0  0  0  0  0
  145.1220   73.9050  220.8210 C   0  0  0  0  0  0  0  0  0  0  0  0
  146.0040   73.4270  219.8070 N   0  0  0  0  0  0  0  0  0  0  0  0
  145.4860   72.3350  219.0230 C   0  0  0  0  0  0  0  0  0  0  0  0
  144.2640   72.7780  218.2740 C   0  0  0  0  0  0  0  0  0  0  0  0
  140.0660   71.7690  222.9070 C   0  0  0  0  0  0  0  0  0  0  0  0
  139.5810   70.4970  222.7010 C   0  0  0  0  0  0  0  0  0  0  0  0
  139.5820   69.6260  223.7720 C   0  0  0  0  0  0  0  0  0  0  0  0
  140.0470   69.9970  225.0110 C   0  0  0  0  0  0  0  0  0  0  0  0
  140.0680   69.1660  226.1070 C   0  0  0  0  0  0  0  0  0  0  0  0
  140.5430   69.5660  227.3440 C   0  0  0  0  0  0  0  0  0  0  0  0
  140.5440   68.4690  228.6940 Cl  0  0  0  0  0  0  0  0  0  0  0  0
  141.0150   70.8560  227.4840 C   0  0  0  0  0  0  0  0  0  0  0  0
  140.9970   71.6870  226.3960 C   0  0  0  0  0  0  0  0  0  0  0  0
  140.5250   71.2960  225.1590 C   0  0  0  0  0  0  0  0  0  0  0  0
  140.5250   72.1470  224.1140 N   0  0  0  0  0  0  0  0  0  0  0  0
  139.5380   74.3350  222.9980 H   0  0  0  0  0  0  0  0  0  0  0  0
  139.1401   74.6418  220.1180 H   0  0  0  0  0  0  0  0  0  0  0  0
  139.3758   75.9767  221.4068 H   0  0  0  0  0  0  0  0  0  0  0  0
  140.7416   76.9385  217.9389 H   0  0  0  0  0  0  0  0  0  0  0  0
  142.5073   76.7411  217.8440 H   0  0  0  0  0  0  0  0  0  0  0  0
  140.3203   75.2852  216.3479 H   0  0  0  0  0  0  0  0  0  0  0  0
  141.9204   75.7149  215.7740 H   0  0  0  0  0  0  0  0  0  0  0  0
  141.1059   73.2083  216.9034 H   0  0  0  0  0  0  0  0  0  0  0  0
  142.7838   73.6870  216.5621 H   0  0  0  0  0  0  0  0  0  0  0  0
  141.6551   73.2005  219.0351 H   0  0  0  0  0  0  0  0  0  0  0  0
  143.9584   74.8704  218.7366 H   0  0  0  0  0  0  0  0  0  0  0  0
  142.9954   74.1956  221.0745 H   0  0  0  0  0  0  0  0  0  0  0  0
  143.4427   72.5252  220.6994 H   0  0  0  0  0  0  0  0  0  0  0  0
  145.2316   74.9959  220.9098 H   0  0  0  0  0  0  0  0  0  0  0  0
  145.3796   73.4163  221.7722 H   0  0  0  0  0  0  0  0  0  0  0  0
  146.4420   74.1430  219.2250 H   0  0  0  0  0  0  0  0  0  0  0  0
  146.2527   72.0044  218.3069 H   0  0  0  0  0  0  0  0  0  0  0  0
  145.2188   71.5039  219.6922 H   0  0  0  0  0  0  0  0  0  0  0  0
  144.5688   73.1361  217.2796 H   0  0  0  0  0  0  0  0  0  0  0  0
  143.5839   71.9167  218.1991 H   0  0  0  0  0  0  0  0  0  0  0  0
  139.2051   70.1851  221.7154 H   0  0  0  0  0  0  0  0  0  0  0  0
  139.1993   68.6046  223.6295 H   0  0  0  0  0  0  0  0  0  0  0  0
  139.6908   68.1387  225.9955 H   0  0  0  0  0  0  0  0  0  0  0  0
  141.3986   71.2098  228.4523 H   0  0  0  0  0  0  0  0  0  0  0  0
  141.3759   72.7130  226.5129 H   0  0  0  0  0  0  0  0  0  0  0  0
  1  2  2  0
  2  3  1  0
  3  4  1  0
  4  5  1  0
  5  6  2  0
  5  7  1  0
  7  8  1  0
  8  9  1  0
  9 10  1  0
 10 11  1  0
 11 12  1  0
 12 13  1  0
 13 14  1  0
 14 15  1  0
 15 16  1  0
 16 17  1  0
  2 18  1  0
 18 19  2  0
 19 20  1  0
 20 21  2  0
 21 22  1  0
 22 23  2  0
 23 24  1  0
 23 25  1  0
 25 26  2  0
 26 27  1  0
 27 28  2  0
 11  7  1  0
 17 12  1  0
 28 18  1  0
 27 21  1  0
  3 29  1  0
  4 30  1  0
  4 31  1  0
  8 32  1  0
  8 33  1  0
  9 34  1  0
  9 35  1  0
 10 36  1  0
 10 37  1  0
 11 38  1  1
 12 39  1  0
 13 40  1  0
 13 41  1  0
 14 42  1  0
 14 43  1  0
 15 44  1  0
 16 45  1  0
 16 46  1  0
 17 47  1  0
 17 48  1  0
 19 49  1  0
 20 50  1  0
 22 51  1  0
 25 52  1  0
 26 53  1  0
M  END
>  <smiles>  (71) 
O=C(NCC(=O)N1CCCC1C1CCNCC1)c1ccc2cc(Cl)ccc2n1

>  <score_type>  (71) 
oracle

>  <origin>  (71) 
autodockgpu

>  <m_score__min__energy>  (71) 
-8.6300000000000008

>  <m_primary>  (71) 
energy

>  <rmsd>  (71) 
2.331934575369242

>  <m_score__min__rmsd>  (71) 
2.331934575369242

>  <meeko>  (71) 
{"free_energy": -7.47, "intermolecular_energy": -8.97, "internal_energy": -1.74, "cluster_size": 9, "cluster_id": 2, "rank_in_cluster": 9}

>  <energy>  (71) 
-7.79

>  <cluster_rmsd>  (71) 
0.98

>  <cluster>  (71) 
1

$$$$

     RDKit          3D

 53 56  0  0  0  0  0  0  0  0999 V2000
  140.0990   72.6360  220.5610 O   0  0  0  0  0  0  0  0  0  0  0  0
  139.9380   72.9810  221.7790 C   0  0  0  0  0  0  0  0  0  0  0  0
  139.7120   74.3690  222.1140 N   0  0  0  0  0  0  0  0  0  0  0  0
  139.6670   75.3960  221.1330 C   0  0  0  0  0  0  0  0  0  0  0  0
  138.4790   76.2510  221.0570 C   0  0  0  0  0  0  0  0  0  0  0  0
  137.5230   75.7540  220.3270 O   0  0  0  0  0  0  0  0  0  0  0  0
  138.2290   77.4970  221.6440 N   0  0  0  0  0  0  0  0  0  0  0  0
  137.3790   77.9300  222.7340 C   0  0  0  0  0  0  0  0  0  0  0  0
  136.8950   79.3250  222.3930 C   0  0  0  0  0  0  0  0  0  0  0  0
  137.9710   79.8550  221.4710 C   0  0  0  0  0  0  0  0  0  0  0  0
  138.8880   78.7330  221.1920 C   0  0  1  0  0  0  0  0  0  0  0  0
  140.2790   78.8870  221.6730 C   0  0  0  0  0  0  0  0  0  0  0  0
  140.6820   80.3380  221.9560 C   0  0  0  0  0  0  0  0  0  0  0  0
  142.1990   80.3520  221.9550 C   0  0  0  0  0  0  0  0  0  0  0  0
  142.7140   79.2260  222.6610 N   0  0  0  0  0  0  0  0  0  0  0  0
  141.8150   78.6610  223.6340 C   0  0  0  0  0  0  0  0  0  0  0  0
  140.5840   78.1390  222.9520 C   0  0  0  0  0  0  0  0  0  0  0  0
  139.9810   71.9620  222.8480 C   0  0  0  0  0  0  0  0  0  0  0  0
  139.5150   70.6980  222.5650 C   0  0  0  0  0  0  0  0  0  0  0  0
  139.5590   69.7540  223.5700 C   0  0  0  0  0  0  0  0  0  0  0  0
  140.0490   70.0460  224.8220 C   0  0  0  0  0  0  0  0  0  0  0  0
  140.1150   69.1400  225.8540 C   0  0  0  0  0  0  0  0  0  0  0  0
  140.6140   69.4620  227.1050 C   0  0  0  0  0  0  0  0  0  0  0  0
  140.6710   68.2720  228.3730 Cl  0  0  0  0  0  0  0  0  0  0  0  0
  141.0660   70.7480  227.3240 C   0  0  0  0  0  0  0  0  0  0  0  0
  141.0030   71.6520  226.3000 C   0  0  0  0  0  0  0  0  0  0  0  0
  140.5070   71.3410  225.0500 C   0  0  0  0  0  0  0  0  0  0  0  0
  140.4630   72.2630  224.0680 N   0  0  0  0  0  0  0  0  0  0  0  0
  139.5850   74.5350  223.1580 H   0  0  0  0  0  0  0  0  0  0  0  0
  140.5282   76.0554  221.3161 H   0  0  0  0  0  0  0  0  0  0  0  0
  139.6623   74.8502  220.1780 H   0  0  0  0  0  0  0  0  0  0  0  0
  136.5222   77.2481  222.8384 H   0  0  0  0  0  0  0  0  0  0  0  0
  137.9305   77.9282  223.6857 H   0  0  0  0  0  0  0  0  0  0  0  0
  135.9215   79.2897  221.8822 H   0  0  0  0  0  0  0  0  0  0  0  0
  136.7426   79.9554  223.2815 H   0  0  0  0  0  0  0  0  0  0  0  0
  137.5217   80.2180  220.5348 H   0  0  0  0  0  0  0  0  0  0  0  0
  138.5076   80.6958  221.9348 H   0  0  0  0  0  0  0  0  0  0  0  0
  139.0589   78.7004  220.1058 H   0  0  0  0  0  0  0  0  0  0  0  0
  140.8480   78.4700  220.8290 H   0  0  0  0  0  0  0  0  0  0  0  0
  140.2921   81.0039  221.1721 H   0  0  0  0  0  0  0  0  0  0  0  0
  140.2740   80.6926  222.9140 H   0  0  0  0  0  0  0  0  0  0  0  0
  142.5596   80.3226  220.9162 H   0  0  0  0  0  0  0  0  0  0  0  0
  142.5444   81.2698  222.4533 H   0  0  0  0  0  0  0  0  0  0  0  0
  143.1590   78.5060  222.0880 H   0  0  0  0  0  0  0  0  0  0  0  0
  142.3182   77.8359  224.1593 H   0  0  0  0  0  0  0  0  0  0  0  0
  141.5261   79.4403  224.3546 H   0  0  0  0  0  0  0  0  0  0  0  0
  140.7351   77.0759  222.7133 H   0  0  0  0  0  0  0  0  0  0  0  0
  139.7339   78.2787  223.6360 H   0  0  0  0  0  0  0  0  0  0  0  0
  139.1201   70.4486  221.5691 H   0  0  0  0  0  0  0  0  0  0  0  0
  139.1915   68.7378  223.3643 H   0  0  0  0  0  0  0  0  0  0  0  0
  139.7560   68.1152  225.6784 H   0  0  0  0  0  0  0  0  0  0  0  0
  141.4696   71.0402  228.3047 H   0  0  0  0  0  0  0  0  0  0  0  0
  141.3646   72.6750  226.4809 H   0  0  0  0  0  0  0  0  0  0  0  0
  1  2  2  0
  2  3  1  0
  3  4  1  0
  4  5  1  0
  5  6  2  0
  5  7  1  0
  7  8  1  0
  8  9  1  0
  9 10  1  0
 10 11  1  0
 11 12  1  0
 12 13  1  0
 13 14  1  0
 14 15  1  0
 15 16  1  0
 16 17  1  0
  2 18  1  0
 18 19  2  0
 19 20  1  0
 20 21  2  0
 21 22  1  0
 22 23  2  0
 23 24  1  0
 23 25  1  0
 25 26  2  0
 26 27  1  0
 27 28  2  0
 11  7  1  0
 17 12  1  0
 28 18  1  0
 27 21  1  0
  3 29  1  0
  4 30  1  0
  4 31  1  0
  8 32  1  0
  8 33  1  0
  9 34  1  0
  9 35  1  0
 10 36  1  0
 10 37  1  0
 11 38  1  6
 12 39  1  0
 13 40  1  0
 13 41  1  0
 14 42  1  0
 14 43  1  0
 15 44  1  0
 16 45  1  0
 16 46  1  0
 17 47  1  0
 17 48  1  0
 19 49  1  0
 20 50  1  0
 22 51  1  0
 25 52  1  0
 26 53  1  0
M  END
>  <smiles>  (72) 
O=C(NCC(=O)N1CCCC1C1CCNCC1)c1ccc2cc(Cl)ccc2n1

>  <score_type>  (72) 
oracle

>  <origin>  (72) 
autodockgpu

>  <m_score__min__energy>  (72) 
-8.6300000000000008

>  <m_primary>  (72) 
energy

>  <rmsd>  (72) 
3.315206517561992

>  <m_score__min__rmsd>  (72) 
3.315206517561992

>  <meeko>  (72) 
{"free_energy": -7.89, "intermolecular_energy": -9.39, "internal_energy": -1.32, "cluster_size": 23, "cluster_id": 1, "rank_in_cluster": 17}

>  <energy>  (72) 
-7.79

>  <cluster_rmsd>  (72) 
1.02

>  <cluster>  (72) 
1

$$$$

     RDKit          3D

 53 56  0  0  0  0  0  0  0  0999 V2000
  139.0820   72.7200  220.6510 O   0  0  0  0  0  0  0  0  0  0  0  0
  139.9800   72.7560  221.5570 C   0  0  0  0  0  0  0  0  0  0  0  0
  141.1240   73.6270  221.4070 N   0  0  0  0  0  0  0  0  0  0  0  0
  141.3090   74.4600  220.2700 C   0  0  0  0  0  0  0  0  0  0  0  0
  140.8580   75.8530  220.3320 C   0  0  0  0  0  0  0  0  0  0  0  0
  141.2350   76.5700  219.3130 O   0  0  0  0  0  0  0  0  0  0  0  0
  140.0930   76.5080  221.3040 N   0  0  0  0  0  0  0  0  0  0  0  0
  139.3930   76.0580  222.4890 C   0  0  0  0  0  0  0  0  0  0  0  0
  138.1640   76.9320  222.6390 C   0  0  0  0  0  0  0  0  0  0  0  0
  138.5520   78.2090  221.9270 C   0  0  0  0  0  0  0  0  0  0  0  0
  139.8530   77.9600  221.2760 C   0  0  1  0  0  0  0  0  0  0  0  0
  140.9930   78.7700  221.7590 C   0  0  0  0  0  0  0  0  0  0  0  0
  140.7420   80.2810  221.7250 C   0  0  0  0  0  0  0  0  0  0  0  0
  142.1130   80.9280  221.7720 C   0  0  0  0  0  0  0  0  0  0  0  0
  142.9460   80.2760  222.7280 N   0  0  0  0  0  0  0  0  0  0  0  0
  142.2360   79.5810  223.7720 C   0  0  0  0  0  0  0  0  0  0  0  0
  141.4130   78.4740  223.1810 C   0  0  0  0  0  0  0  0  0  0  0  0
  139.8510   71.9090  222.7610 C   0  0  0  0  0  0  0  0  0  0  0  0
  139.0110   70.8200  222.7060 C   0  0  0  0  0  0  0  0  0  0  0  0
  138.8970   70.0350  223.8350 C   0  0  0  0  0  0  0  0  0  0  0  0
  139.5920   70.3150  224.9880 C   0  0  0  0  0  0  0  0  0  0  0  0
  139.5120   69.5630  226.1370 C   0  0  0  0  0  0  0  0  0  0  0  0
  140.2240   69.8680  227.2850 C   0  0  0  0  0  0  0  0  0  0  0  0
  140.0820   68.8790  228.7090 Cl  0  0  0  0  0  0  0  0  0  0  0  0
  141.0500   70.9740  227.2750 C   0  0  0  0  0  0  0  0  0  0  0  0
  141.1330   71.7250  226.1340 C   0  0  0  0  0  0  0  0  0  0  0  0
  140.4270   71.4290  224.9850 C   0  0  0  0  0  0  0  0  0  0  0  0
  140.5380   72.1960  223.8830 N   0  0  0  0  0  0  0  0  0  0  0  0
  141.8010   73.5780  222.2270 H   0  0  0  0  0  0  0  0  0  0  0  0
  142.3878   74.4791  220.0559 H   0  0  0  0  0  0  0  0  0  0  0  0
  140.6650   74.0069  219.5019 H   0  0  0  0  0  0  0  0  0  0  0  0
  139.0957   75.0051  222.3747 H   0  0  0  0  0  0  0  0  0  0  0  0
  140.0378   76.1332  223.3770 H   0  0  0  0  0  0  0  0  0  0  0  0
  137.2891   76.4659  222.1622 H   0  0  0  0  0  0  0  0  0  0  0  0
  137.8792   77.0955  223.6889 H   0  0  0  0  0  0  0  0  0  0  0  0
  137.7945   78.4660  221.1719 H   0  0  0  0  0  0  0  0  0  0  0  0
  138.6206   79.0485  222.6345 H   0  0  0  0  0  0  0  0  0  0  0  0
  139.7842   78.3167  220.2377 H   0  0  0  0  0  0  0  0  0  0  0  0
  141.7808   78.4784  221.0488 H   0  0  0  0  0  0  0  0  0  0  0  0
  140.2174   80.5616  220.7998 H   0  0  0  0  0  0  0  0  0  0  0  0
  140.1116   80.6060  222.5658 H   0  0  0  0  0  0  0  0  0  0  0  0
  142.5799   80.8572  220.7785 H   0  0  0  0  0  0  0  0  0  0  0  0
  141.9966   81.9818  222.0650 H   0  0  0  0  0  0  0  0  0  0  0  0
  143.7090   79.7150  222.3460 H   0  0  0  0  0  0  0  0  0  0  0  0
  142.9587   79.1574  224.4849 H   0  0  0  0  0  0  0  0  0  0  0  0
  141.5722   80.2881  224.2910 H   0  0  0  0  0  0  0  0  0  0  0  0
  142.0068   77.5481  223.1894 H   0  0  0  0  0  0  0  0  0  0  0  0
  140.5011   78.3708  223.7875 H   0  0  0  0  0  0  0  0  0  0  0  0
  138.4484   70.5830  221.7909 H   0  0  0  0  0  0  0  0  0  0  0  0
  138.2309   69.1599  223.8121 H   0  0  0  0  0  0  0  0  0  0  0  0
  138.8541   68.6814  226.1443 H   0  0  0  0  0  0  0  0  0  0  0  0
  141.6311   71.2468  228.1682 H   0  0  0  0  0  0  0  0  0  0  0  0
  141.7927   72.6052  226.1322 H   0  0  0  0  0  0  0  0  0  0  0  0
  1  2  2  0
  2  3  1  0
  3  4  1  0
  4  5  1  0
  5  6  2  0
  5  7  1  0
  7  8  1  0
  8  9  1  0
  9 10  1  0
 10 11  1  0
 11 12  1  0
 12 13  1  0
 13 14  1  0
 14 15  1  0
 15 16  1  0
 16 17  1  0
  2 18  1  0
 18 19  2  0
 19 20  1  0
 20 21  2  0
 21 22  1  0
 22 23  2  0
 23 24  1  0
 23 25  1  0
 25 26  2  0
 26 27  1  0
 27 28  2  0
 11  7  1  0
 17 12  1  0
 28 18  1  0
 27 21  1  0
  3 29  1  0
  4 30  1  0
  4 31  1  0
  8 32  1  0
  8 33  1  0
  9 34  1  0
  9 35  1  0
 10 36  1  0
 10 37  1  0
 11 38  1  6
 12 39  1  0
 13 40  1  0
 13 41  1  0
 14 42  1  0
 14 43  1  0
 15 44  1  0
 16 45  1  0
 16 46  1  0
 17 47  1  0
 17 48  1  0
 19 49  1  0
 20 50  1  0
 22 51  1  0
 25 52  1  0
 26 53  1  0
M  END
>  <smiles>  (73) 
O=C(NCC(=O)N1CCCC1C1CCNCC1)c1ccc2cc(Cl)ccc2n1

>  <score_type>  (73) 
oracle

>  <origin>  (73) 
autodockgpu

>  <m_score__min__energy>  (73) 
-8.6300000000000008

>  <m_primary>  (73) 
energy

>  <rmsd>  (73) 
2.984180499598231

>  <m_score__min__rmsd>  (73) 
2.984180499598231

>  <meeko>  (73) 
{"free_energy": -7.91, "intermolecular_energy": -9.4, "internal_energy": -1.61, "cluster_size": 23, "cluster_id": 1, "rank_in_cluster": 14}

>  <energy>  (73) 
-7.76

>  <cluster_rmsd>  (73) 
0.98

>  <cluster>  (73) 
1

$$$$

     RDKit          3D

 53 56  0  0  0  0  0  0  0  0999 V2000
  140.1510   72.1650  220.7560 O   0  0  0  0  0  0  0  0  0  0  0  0
  139.9460   72.5590  221.9530 C   0  0  0  0  0  0  0  0  0  0  0  0
  139.6740   73.9540  222.2180 N   0  0  0  0  0  0  0  0  0  0  0  0
  139.6280   74.9350  221.1910 C   0  0  0  0  0  0  0  0  0  0  0  0
  140.7070   75.9220  221.1040 C   0  0  0  0  0  0  0  0  0  0  0  0
  140.7260   76.7660  222.0950 O   0  0  0  0  0  0  0  0  0  0  0  0
  141.7020   76.0820  220.1330 N   0  0  0  0  0  0  0  0  0  0  0  0
  142.5230   77.2040  219.7260 C   0  0  0  0  0  0  0  0  0  0  0  0
  142.7570   77.0660  218.2350 C   0  0  0  0  0  0  0  0  0  0  0  0
  142.6060   75.5800  217.9910 C   0  0  0  0  0  0  0  0  0  0  0  0
  142.1380   74.9830  219.2560 C   0  0  1  0  0  0  0  0  0  0  0  0
  143.0560   74.0200  219.9060 C   0  0  0  0  0  0  0  0  0  0  0  0
  143.2430   72.7150  219.1240 C   0  0  0  0  0  0  0  0  0  0  0  0
  143.7800   71.7100  220.1250 C   0  0  0  0  0  0  0  0  0  0  0  0
  144.7840   72.3030  220.9460 N   0  0  0  0  0  0  0  0  0  0  0  0
  145.4460   73.4420  220.3620 C   0  0  0  0  0  0  0  0  0  0  0  0
  144.4560   74.5460  220.1320 C   0  0  0  0  0  0  0  0  0  0  0  0
  139.9880   71.5910  223.0680 C   0  0  0  0  0  0  0  0  0  0  0  0
  139.5220   70.3150  222.8410 C   0  0  0  0  0  0  0  0  0  0  0  0
  139.5650   69.4180  223.8890 C   0  0  0  0  0  0  0  0  0  0  0  0
  140.0530   69.7670  225.1270 C   0  0  0  0  0  0  0  0  0  0  0  0
  140.1160   68.9090  226.1990 C   0  0  0  0  0  0  0  0  0  0  0  0
  140.6130   69.2880  227.4350 C   0  0  0  0  0  0  0  0  0  0  0  0
  140.6680   68.1570  228.7570 Cl  0  0  0  0  0  0  0  0  0  0  0  0
  141.0650   70.5820  227.5960 C   0  0  0  0  0  0  0  0  0  0  0  0
  141.0040   71.4390  226.5310 C   0  0  0  0  0  0  0  0  0  0  0  0
  140.5100   71.0710  225.2960 C   0  0  0  0  0  0  0  0  0  0  0  0
  140.4680   71.9470  224.2730 N   0  0  0  0  0  0  0  0  0  0  0  0
  139.5140   74.1620  223.2500 H   0  0  0  0  0  0  0  0  0  0  0  0
  139.6050   74.3969  220.2318 H   0  0  0  0  0  0  0  0  0  0  0  0
  138.7401   75.5353  221.4386 H   0  0  0  0  0  0  0  0  0  0  0  0
  142.0034   78.1495  219.9406 H   0  0  0  0  0  0  0  0  0  0  0  0
  143.4770   77.2105  220.2735 H   0  0  0  0  0  0  0  0  0  0  0  0
  142.0088   77.6363  217.6649 H   0  0  0  0  0  0  0  0  0  0  0  0
  143.7351   77.4558  217.9164 H   0  0  0  0  0  0  0  0  0  0  0  0
  141.8703   75.4006  217.1932 H   0  0  0  0  0  0  0  0  0  0  0  0
  143.5606   75.1341  217.6749 H   0  0  0  0  0  0  0  0  0  0  0  0
  141.2911   74.3212  219.0220 H   0  0  0  0  0  0  0  0  0  0  0  0
  142.5440   73.8443  220.8636 H   0  0  0  0  0  0  0  0  0  0  0  0
  142.2814   72.3721  218.7145 H   0  0  0  0  0  0  0  0  0  0  0  0
  143.9277   72.8461  218.2732 H   0  0  0  0  0  0  0  0  0  0  0  0
  142.9547   71.3580  220.7614 H   0  0  0  0  0  0  0  0  0  0  0  0
  144.2249   70.8671  219.5757 H   0  0  0  0  0  0  0  0  0  0  0  0
  144.5230   72.4690  221.9190 H   0  0  0  0  0  0  0  0  0  0  0  0
  146.2340   73.7949  221.0436 H   0  0  0  0  0  0  0  0  0  0  0  0
  145.8907   73.1482  219.3997 H   0  0  0  0  0  0  0  0  0  0  0  0
  144.4490   75.2048  221.0129 H   0  0  0  0  0  0  0  0  0  0  0  0
  144.7622   75.0910  219.2269 H   0  0  0  0  0  0  0  0  0  0  0  0
  139.1285   70.0205  221.8569 H   0  0  0  0  0  0  0  0  0  0  0  0
  139.1981   68.3933  223.7296 H   0  0  0  0  0  0  0  0  0  0  0  0
  139.7564   67.8775  226.0698 H   0  0  0  0  0  0  0  0  0  0  0  0
  141.4671   70.9184  228.5630 H   0  0  0  0  0  0  0  0  0  0  0  0
  141.3655   72.4692  226.6655 H   0  0  0  0  0  0  0  0  0  0  0  0
  1  2  2  0
  2  3  1  0
  3  4  1  0
  4  5  1  0
  5  6  2  0
  5  7  1  0
  7  8  1  0
  8  9  1  0
  9 10  1  0
 10 11  1  0
 11 12  1  0
 12 13  1  0
 13 14  1  0
 14 15  1  0
 15 16  1  0
 16 17  1  0
  2 18  1  0
 18 19  2  0
 19 20  1  0
 20 21  2  0
 21 22  1  0
 22 23  2  0
 23 24  1  0
 23 25  1  0
 25 26  2  0
 26 27  1  0
 27 28  2  0
 11  7  1  0
 17 12  1  0
 28 18  1  0
 27 21  1  0
  3 29  1  0
  4 30  1  0
  4 31  1  0
  8 32  1  0
  8 33  1  0
  9 34  1  0
  9 35  1  0
 10 36  1  0
 10 37  1  0
 11 38  1  6
 12 39  1  0
 13 40  1  0
 13 41  1  0
 14 42  1  0
 14 43  1  0
 15 44  1  0
 16 45  1  0
 16 46  1  0
 17 47  1  0
 17 48  1  0
 19 49  1  0
 20 50  1  0
 22 51  1  0
 25 52  1  0
 26 53  1  0
M  END
>  <smiles>  (74) 
O=C(NCC(=O)N1CCCC1C1CCNCC1)c1ccc2cc(Cl)ccc2n1

>  <score_type>  (74) 
oracle

>  <origin>  (74) 
autodockgpu

>  <m_score__min__energy>  (74) 
-8.6300000000000008

>  <m_primary>  (74) 
energy

>  <rmsd>  (74) 
2.2891388905563006

>  <m_score__min__rmsd>  (74) 
2.2891388905563006

>  <meeko>  (74) 
{"free_energy": -7.81, "intermolecular_energy": -9.3, "internal_energy": -1.75, "cluster_size": 9, "cluster_id": 2, "rank_in_cluster": 6}

>  <energy>  (74) 
-8.61

>  <cluster_rmsd>  (74) 
0.0

>  <cluster>  (74) 
2

$$$$

     RDKit          3D

 53 56  0  0  0  0  0  0  0  0999 V2000
  139.2100   72.0060  220.5330 O   0  0  0  0  0  0  0  0  0  0  0  0
  139.9180   72.3120  221.5510 C   0  0  0  0  0  0  0  0  0  0  0  0
  140.7450   73.4980  221.5270 N   0  0  0  0  0  0  0  0  0  0  0  0
  140.8180   74.3580  220.3980 C   0  0  0  0  0  0  0  0  0  0  0  0
  140.7970   75.8080  220.6090 C   0  0  0  0  0  0  0  0  0  0  0  0
  141.6350   76.4590  219.8550 O   0  0  0  0  0  0  0  0  0  0  0  0
  140.0210   76.5770  221.4830 N   0  0  0  0  0  0  0  0  0  0  0  0
  139.2420   76.2620  222.6630 C   0  0  0  0  0  0  0  0  0  0  0  0
  138.0540   77.2020  222.6760 C   0  0  0  0  0  0  0  0  0  0  0  0
  138.5400   78.3950  221.8830 C   0  0  0  0  0  0  0  0  0  0  0  0
  139.8560   78.0320  221.3240 C   0  0  1  0  0  0  0  0  0  0  0  0
  141.0120   78.8250  221.7970 C   0  0  0  0  0  0  0  0  0  0  0  0
  140.7780   80.3400  221.7750 C   0  0  0  0  0  0  0  0  0  0  0  0
  142.1570   80.9690  221.8090 C   0  0  0  0  0  0  0  0  0  0  0  0
  142.9930   80.3030  222.7520 N   0  0  0  0  0  0  0  0  0  0  0  0
  142.2880   79.6110  223.8000 C   0  0  0  0  0  0  0  0  0  0  0  0
  141.4450   78.5160  223.2130 C   0  0  0  0  0  0  0  0  0  0  0  0
  139.8920   71.4560  222.7540 C   0  0  0  0  0  0  0  0  0  0  0  0
  139.2510   70.2390  222.6760 C   0  0  0  0  0  0  0  0  0  0  0  0
  139.2320   69.4470  223.8060 C   0  0  0  0  0  0  0  0  0  0  0  0
  139.8280   69.8400  224.9810 C   0  0  0  0  0  0  0  0  0  0  0  0
  139.8360   69.0860  226.1300 C   0  0  0  0  0  0  0  0  0  0  0  0
  140.4430   69.5080  227.3010 C   0  0  0  0  0  0  0  0  0  0  0  0
  140.4200   68.5090  228.7250 Cl  0  0  0  0  0  0  0  0  0  0  0  0
  141.0690   70.7380  227.3130 C   0  0  0  0  0  0  0  0  0  0  0  0
  141.0640   71.4920  226.1710 C   0  0  0  0  0  0  0  0  0  0  0  0
  140.4600   71.0800  225.0010 C   0  0  0  0  0  0  0  0  0  0  0  0
  140.4790   71.8550  223.8980 N   0  0  0  0  0  0  0  0  0  0  0  0
  141.2830   73.6540  222.4320 H   0  0  0  0  0  0  0  0  0  0  0  0
  141.7551   74.1219  219.8726 H   0  0  0  0  0  0  0  0  0  0  0  0
  139.8850   74.1566  219.8512 H   0  0  0  0  0  0  0  0  0  0  0  0
  138.8970   75.2184  222.6200 H   0  0  0  0  0  0  0  0  0  0  0  0
  139.8460   76.3815  223.5745 H   0  0  0  0  0  0  0  0  0  0  0  0
  137.1805   76.7387  222.1939 H   0  0  0  0  0  0  0  0  0  0  0  0
  137.7280   77.4669  223.6926 H   0  0  0  0  0  0  0  0  0  0  0  0
  137.8338   78.6222  221.0708 H   0  0  0  0  0  0  0  0  0  0  0  0
  138.6166   79.2872  222.5219 H   0  0  0  0  0  0  0  0  0  0  0  0
  139.8543   78.3039  220.2581 H   0  0  0  0  0  0  0  0  0  0  0  0
  141.7878   78.5281  221.0759 H   0  0  0  0  0  0  0  0  0  0  0  0
  140.2456   80.6325  220.8579 H   0  0  0  0  0  0  0  0  0  0  0  0
  140.1613   80.6678  222.6249 H   0  0  0  0  0  0  0  0  0  0  0  0
  142.6113   80.8967  220.8098 H   0  0  0  0  0  0  0  0  0  0  0  0
  142.0570   82.0228  222.1083 H   0  0  0  0  0  0  0  0  0  0  0  0
  143.7460   79.7350  222.3570 H   0  0  0  0  0  0  0  0  0  0  0  0
  143.0142   79.1755  224.5021 H   0  0  0  0  0  0  0  0  0  0  0  0
  141.6385   80.3229  224.3304 H   0  0  0  0  0  0  0  0  0  0  0  0
  142.0281   77.5832  223.2096 H   0  0  0  0  0  0  0  0  0  0  0  0
  140.5392   78.4197  223.8297 H   0  0  0  0  0  0  0  0  0  0  0  0
  138.7700   69.9093  221.7433 H   0  0  0  0  0  0  0  0  0  0  0  0
  138.7247   68.4718  223.7654 H   0  0  0  0  0  0  0  0  0  0  0  0
  139.3387   68.1049  226.1190 H   0  0  0  0  0  0  0  0  0  0  0  0
  141.5632   71.1057  228.2244 H   0  0  0  0  0  0  0  0  0  0  0  0
  141.5645   72.4714  226.1866 H   0  0  0  0  0  0  0  0  0  0  0  0
  1  2  2  0
  2  3  1  0
  3  4  1  0
  4  5  1  0
  5  6  2  0
  5  7  1  0
  7  8  1  0
  8  9  1  0
  9 10  1  0
 10 11  1  0
 11 12  1  0
 12 13  1  0
 13 14  1  0
 14 15  1  0
 15 16  1  0
 16 17  1  0
  2 18  1  0
 18 19  2  0
 19 20  1  0
 20 21  2  0
 21 22  1  0
 22 23  2  0
 23 24  1  0
 23 25  1  0
 25 26  2  0
 26 27  1  0
 27 28  2  0
 11  7  1  0
 17 12  1  0
 28 18  1  0
 27 21  1  0
  3 29  1  0
  4 30  1  0
  4 31  1  0
  8 32  1  0
  8 33  1  0
  9 34  1  0
  9 35  1  0
 10 36  1  0
 10 37  1  0
 11 38  1  6
 12 39  1  0
 13 40  1  0
 13 41  1  0
 14 42  1  0
 14 43  1  0
 15 44  1  0
 16 45  1  0
 16 46  1  0
 17 47  1  0
 17 48  1  0
 19 49  1  0
 20 50  1  0
 22 51  1  0
 25 52  1  0
 26 53  1  0
M  END
>  <smiles>  (75) 
O=C(NCC(=O)N1CCCC1C1CCNCC1)c1ccc2cc(Cl)ccc2n1

>  <score_type>  (75) 
oracle

>  <origin>  (75) 
autodockgpu

>  <m_score__min__energy>  (75) 
-8.6300000000000008

>  <m_primary>  (75) 
energy

>  <rmsd>  (75) 
2.8439839264336606

>  <m_score__min__rmsd>  (75) 
2.8439839264336606

>  <meeko>  (75) 
{"free_energy": -8.02, "intermolecular_energy": -9.52, "internal_energy": -1.51, "cluster_size": 23, "cluster_id": 1, "rank_in_cluster": 10}

>  <energy>  (75) 
-8.49

>  <cluster_rmsd>  (75) 
0.26

>  <cluster>  (75) 
2

$$$$

     RDKit          3D

 53 56  0  0  0  0  0  0  0  0999 V2000
  140.0190   72.4830  220.8030 O   0  0  0  0  0  0  0  0  0  0  0  0
  139.8280   72.8500  222.0100 C   0  0  0  0  0  0  0  0  0  0  0  0
  139.5300   74.2330  222.3070 N   0  0  0  0  0  0  0  0  0  0  0  0
  139.4430   75.2320  221.2980 C   0  0  0  0  0  0  0  0  0  0  0  0
  140.6600   75.9470  220.9030 C   0  0  0  0  0  0  0  0  0  0  0  0
  141.7550   75.3990  221.3440 O   0  0  0  0  0  0  0  0  0  0  0  0
  140.8110   77.1060  220.1340 N   0  0  0  0  0  0  0  0  0  0  0  0
  140.1470   77.6070  218.9480 C   0  0  0  0  0  0  0  0  0  0  0  0
  141.1830   78.3710  218.1480 C   0  0  0  0  0  0  0  0  0  0  0  0
  142.1870   78.8030  219.1940 C   0  0  0  0  0  0  0  0  0  0  0  0
  141.7990   78.1480  220.4580 C   0  0  1  0  0  0  0  0  0  0  0  0
  141.3910   79.0440  221.5630 C   0  0  0  0  0  0  0  0  0  0  0  0
  141.4530   78.3910  222.9480 C   0  0  0  0  0  0  0  0  0  0  0  0
  140.5730   79.2420  223.8430 C   0  0  0  0  0  0  0  0  0  0  0  0
  140.7970   80.6290  223.6010 N   0  0  0  0  0  0  0  0  0  0  0  0
  142.0850   80.9420  223.0360 C   0  0  0  0  0  0  0  0  0  0  0  0
  142.2200   80.3030  221.6850 C   0  0  0  0  0  0  0  0  0  0  0  0
  139.9110   71.8630  223.1060 C   0  0  0  0  0  0  0  0  0  0  0  0
  139.4950   70.5740  222.8560 C   0  0  0  0  0  0  0  0  0  0  0  0
  139.5770   69.6590  223.8870 C   0  0  0  0  0  0  0  0  0  0  0  0
  140.0530   70.0030  225.1290 C   0  0  0  0  0  0  0  0  0  0  0  0
  140.1540   69.1290  226.1850 C   0  0  0  0  0  0  0  0  0  0  0  0
  140.6380   69.5030  227.4270 C   0  0  0  0  0  0  0  0  0  0  0  0
  140.7410   68.3500  228.7260 Cl  0  0  0  0  0  0  0  0  0  0  0  0
  141.0380   70.8110  227.6120 C   0  0  0  0  0  0  0  0  0  0  0  0
  140.9410   71.6850  226.5640 C   0  0  0  0  0  0  0  0  0  0  0  0
  140.4590   71.3210  225.3230 C   0  0  0  0  0  0  0  0  0  0  0  0
  140.3800   72.2150  224.3180 N   0  0  0  0  0  0  0  0  0  0  0  0
  139.3840   74.4200  223.3440 H   0  0  0  0  0  0  0  0  0  0  0  0
  139.0470   74.7450  220.3947 H   0  0  0  0  0  0  0  0  0  0  0  0
  138.8125   76.0116  221.7505 H   0  0  0  0  0  0  0  0  0  0  0  0
  139.7533   76.7694  218.3535 H   0  0  0  0  0  0  0  0  0  0  0  0
  139.3017   78.2574  219.2171 H   0  0  0  0  0  0  0  0  0  0  0  0
  141.6543   77.7231  217.3943 H   0  0  0  0  0  0  0  0  0  0  0  0
  140.7554   79.2164  217.5890 H   0  0  0  0  0  0  0  0  0  0  0  0
  143.1989   78.4877  218.8998 H   0  0  0  0  0  0  0  0  0  0  0  0
  142.1942   79.8975  219.3041 H   0  0  0  0  0  0  0  0  0  0  0  0
  142.7025   77.6969  220.8941 H   0  0  0  0  0  0  0  0  0  0  0  0
  140.3556   79.2824  221.2781 H   0  0  0  0  0  0  0  0  0  0  0  0
  141.0716   77.3602  222.9034 H   0  0  0  0  0  0  0  0  0  0  0  0
  142.4848   78.3375  223.3257 H   0  0  0  0  0  0  0  0  0  0  0  0
  139.5177   79.0063  223.6408 H   0  0  0  0  0  0  0  0  0  0  0  0
  140.8197   79.0225  224.8923 H   0  0  0  0  0  0  0  0  0  0  0  0
  140.0410   81.1270  223.1280 H   0  0  0  0  0  0  0  0  0  0  0  0
  142.1833   82.0329  222.9348 H   0  0  0  0  0  0  0  0  0  0  0  0
  142.8740   80.5570  223.6988 H   0  0  0  0  0  0  0  0  0  0  0  0
  141.8896   81.0203  220.9193 H   0  0  0  0  0  0  0  0  0  0  0  0
  143.2757   80.0269  221.5460 H   0  0  0  0  0  0  0  0  0  0  0  0
  139.1101   70.2830  221.8675 H   0  0  0  0  0  0  0  0  0  0  0  0
  139.2514   68.6236  223.7085 H   0  0  0  0  0  0  0  0  0  0  0  0
  139.8363   68.0864  226.0367 H   0  0  0  0  0  0  0  0  0  0  0  0
  141.4279   71.1448  228.5849 H   0  0  0  0  0  0  0  0  0  0  0  0
  141.2620   72.7259  226.7175 H   0  0  0  0  0  0  0  0  0  0  0  0
  1  2  2  0
  2  3  1  0
  3  4  1  0
  4  5  1  0
  5  6  2  0
  5  7  1  0
  7  8  1  0
  8  9  1  0
  9 10  1  0
 10 11  1  0
 11 12  1  0
 12 13  1  0
 13 14  1  0
 14 15  1  0
 15 16  1  0
 16 17  1  0
  2 18  1  0
 18 19  2  0
 19 20  1  0
 20 21  2  0
 21 22  1  0
 22 23  2  0
 23 24  1  0
 23 25  1  0
 25 26  2  0
 26 27  1  0
 27 28  2  0
 11  7  1  0
 17 12  1  0
 28 18  1  0
 27 21  1  0
  3 29  1  0
  4 30  1  0
  4 31  1  0
  8 32  1  0
  8 33  1  0
  9 34  1  0
  9 35  1  0
 10 36  1  0
 10 37  1  0
 11 38  1  1
 12 39  1  0
 13 40  1  0
 13 41  1  0
 14 42  1  0
 14 43  1  0
 15 44  1  0
 16 45  1  0
 16 46  1  0
 17 47  1  0
 17 48  1  0
 19 49  1  0
 20 50  1  0
 22 51  1  0
 25 52  1  0
 26 53  1  0
M  END
>  <smiles>  (76) 
O=C(NCC(=O)N1CCCC1C1CCNCC1)c1ccc2cc(Cl)ccc2n1

>  <score_type>  (76) 
oracle

>  <origin>  (76) 
autodockgpu

>  <m_score__min__energy>  (76) 
-8.6300000000000008

>  <m_primary>  (76) 
energy

>  <rmsd>  (76) 
1.8815903913699172

>  <m_score__min__rmsd>  (76) 
1.8815903913699172

>  <meeko>  (76) 
{"free_energy": -8.14, "intermolecular_energy": -9.63, "internal_energy": -1.37, "cluster_size": 23, "cluster_id": 1, "rank_in_cluster": 5}

>  <energy>  (76) 
-8.19

>  <cluster_rmsd>  (76) 
1.43

>  <cluster>  (76) 
2

$$$$

     RDKit          3D

 53 56  0  0  0  0  0  0  0  0999 V2000
  141.9670   81.0790  220.4480 O   0  0  0  0  0  0  0  0  0  0  0  0
  141.2560   80.2130  219.8350 C   0  0  0  0  0  0  0  0  0  0  0  0
  139.9230   80.5540  219.3930 N   0  0  0  0  0  0  0  0  0  0  0  0
  139.3450   81.8330  219.6170 C   0  0  0  0  0  0  0  0  0  0  0  0
  138.5350   82.0440  220.8190 C   0  0  0  0  0  0  0  0  0  0  0  0
  137.8970   83.1790  220.8280 O   0  0  0  0  0  0  0  0  0  0  0  0
  138.3480   81.2180  221.9330 N   0  0  0  0  0  0  0  0  0  0  0  0
  137.3780   80.1940  222.2620 C   0  0  0  0  0  0  0  0  0  0  0  0
  137.1530   80.2580  223.7590 C   0  0  0  0  0  0  0  0  0  0  0  0
  138.4400   80.8580  224.2820 C   0  0  0  0  0  0  0  0  0  0  0  0
  139.2360   81.2590  223.1070 C   0  0  1  0  0  0  0  0  0  0  0  0
  140.5230   80.5550  222.9150 C   0  0  0  0  0  0  0  0  0  0  0  0
  141.6430   81.0430  223.8400 C   0  0  0  0  0  0  0  0  0  0  0  0
  142.9380   80.5890  223.1940 C   0  0  0  0  0  0  0  0  0  0  0  0
  142.8210   79.2510  222.7150 N   0  0  0  0  0  0  0  0  0  0  0  0
  141.8120   78.4610  223.3730 C   0  0  0  0  0  0  0  0  0  0  0  0
  140.4570   79.0600  223.1340 C   0  0  0  0  0  0  0  0  0  0  0  0
  141.7950   78.8620  219.5770 C   0  0  0  0  0  0  0  0  0  0  0  0
  142.5760   78.6740  218.4580 C   0  0  0  0  0  0  0  0  0  0  0  0
  143.0750   77.4080  218.2260 C   0  0  0  0  0  0  0  0  0  0  0  0
  142.8120   76.3560  219.0710 C   0  0  0  0  0  0  0  0  0  0  0  0
  143.2870   75.0790  218.8830 C   0  0  0  0  0  0  0  0  0  0  0  0
  143.0060   74.0380  219.7510 C   0  0  0  0  0  0  0  0  0  0  0  0
  143.6350   72.4420  219.4590 Cl  0  0  0  0  0  0  0  0  0  0  0  0
  142.2170   74.2930  220.8540 C   0  0  0  0  0  0  0  0  0  0  0  0
  141.7430   75.5630  221.0470 C   0  0  0  0  0  0  0  0  0  0  0  0
  142.0170   76.6060  220.1860 C   0  0  0  0  0  0  0  0  0  0  0  0
  141.5290   77.8420  220.4130 N   0  0  0  0  0  0  0  0  0  0  0  0
  139.4300   79.7570  218.8890 H   0  0  0  0  0  0  0  0  0  0  0  0
  140.1710   82.5585  219.6532 H   0  0  0  0  0  0  0  0  0  0  0  0
  138.6275   81.9473  218.7911 H   0  0  0  0  0  0  0  0  0  0  0  0
  136.4340   80.3836  221.7301 H   0  0  0  0  0  0  0  0  0  0  0  0
  137.7415   79.1998  221.9629 H   0  0  0  0  0  0  0  0  0  0  0  0
  136.2929   80.8997  224.0006 H   0  0  0  0  0  0  0  0  0  0  0  0
  136.9258   79.2768  224.2014 H   0  0  0  0  0  0  0  0  0  0  0  0
  138.2210   81.7358  224.9076 H   0  0  0  0  0  0  0  0  0  0  0  0
  138.9893   80.1325  224.8999 H   0  0  0  0  0  0  0  0  0  0  0  0
  139.5965   82.2839  223.2792 H   0  0  0  0  0  0  0  0  0  0  0  0
  140.7419   80.7877  221.8624 H   0  0  0  0  0  0  0  0  0  0  0  0
  141.6204   82.1396  223.9238 H   0  0  0  0  0  0  0  0  0  0  0  0
  141.5338   80.6386  224.8571 H   0  0  0  0  0  0  0  0  0  0  0  0
  143.1736   81.2550  222.3508 H   0  0  0  0  0  0  0  0  0  0  0  0
  143.7400   80.6263  223.9459 H   0  0  0  0  0  0  0  0  0  0  0  0
  142.7910   79.1430  221.6990 H   0  0  0  0  0  0  0  0  0  0  0  0
  141.8333   77.4363  222.9736 H   0  0  0  0  0  0  0  0  0  0  0  0
  142.0142   78.4433  224.4541 H   0  0  0  0  0  0  0  0  0  0  0  0
  140.0146   78.5908  222.2429 H   0  0  0  0  0  0  0  0  0  0  0  0
  139.8445   78.8769  224.0292 H   0  0  0  0  0  0  0  0  0  0  0  0
  142.7949   79.5054  217.7718 H   0  0  0  0  0  0  0  0  0  0  0  0
  143.7017   77.2358  217.3386 H   0  0  0  0  0  0  0  0  0  0  0  0
  143.9175   74.8761  218.0048 H   0  0  0  0  0  0  0  0  0  0  0  0
  141.9732   73.4903  221.5655 H   0  0  0  0  0  0  0  0  0  0  0  0
  141.1153   75.7608  221.9284 H   0  0  0  0  0  0  0  0  0  0  0  0
  1  2  2  0
  2  3  1  0
  3  4  1  0
  4  5  1  0
  5  6  2  0
  5  7  1  0
  7  8  1  0
  8  9  1  0
  9 10  1  0
 10 11  1  0
 11 12  1  0
 12 13  1  0
 13 14  1  0
 14 15  1  0
 15 16  1  0
 16 17  1  0
  2 18  1  0
 18 19  2  0
 19 20  1  0
 20 21  2  0
 21 22  1  0
 22 23  2  0
 23 24  1  0
 23 25  1  0
 25 26  2  0
 26 27  1  0
 27 28  2  0
 11  7  1  0
 17 12  1  0
 28 18  1  0
 27 21  1  0
  3 29  1  0
  4 30  1  0
  4 31  1  0
  8 32  1  0
  8 33  1  0
  9 34  1  0
  9 35  1  0
 10 36  1  0
 10 37  1  0
 11 38  1  1
 12 39  1  0
 13 40  1  0
 13 41  1  0
 14 42  1  0
 14 43  1  0
 15 44  1  0
 16 45  1  0
 16 46  1  0
 17 47  1  0
 17 48  1  0
 19 49  1  0
 20 50  1  0
 22 51  1  0
 25 52  1  0
 26 53  1  0
M  END
>  <smiles>  (77) 
O=C(NCC(=O)N1CCCC1C1CCNCC1)c1ccc2cc(Cl)ccc2n1

>  <score_type>  (77) 
oracle

>  <origin>  (77) 
autodockgpu

>  <m_score__min__energy>  (77) 
-8.6300000000000008

>  <m_primary>  (77) 
energy

>  <rmsd>  (77) 
8.766283095052858

>  <m_score__min__rmsd>  (77) 
8.766283095052858

>  <meeko>  (77) 
{"free_energy": -6.15, "intermolecular_energy": -7.64, "internal_energy": -3.1, "cluster_size": 6, "cluster_id": 5, "rank_in_cluster": 2}

>  <energy>  (77) 
-8.19

>  <cluster_rmsd>  (77) 
0.87

>  <cluster>  (77) 
2

$$$$

     RDKit          3D

 53 56  0  0  0  0  0  0  0  0999 V2000
  140.0330   72.1860  220.6730 O   0  0  0  0  0  0  0  0  0  0  0  0
  139.8920   72.6000  221.8720 C   0  0  0  0  0  0  0  0  0  0  0  0
  139.6750   74.0050  222.1310 N   0  0  0  0  0  0  0  0  0  0  0  0
  139.6160   74.9750  221.0930 C   0  0  0  0  0  0  0  0  0  0  0  0
  139.3990   76.3800  221.4480 C   0  0  0  0  0  0  0  0  0  0  0  0
  138.8020   76.5440  222.5930 O   0  0  0  0  0  0  0  0  0  0  0  0
  139.7360   77.5460  220.7500 N   0  0  0  0  0  0  0  0  0  0  0  0
  138.9700   78.4900  219.9640 C   0  0  0  0  0  0  0  0  0  0  0  0
  139.8800   78.9890  218.8580 C   0  0  0  0  0  0  0  0  0  0  0  0
  141.2670   78.8020  219.4340 C   0  0  0  0  0  0  0  0  0  0  0  0
  141.1090   78.0740  220.7070 C   0  0  1  0  0  0  0  0  0  0  0  0
  141.5160   78.7980  221.9310 C   0  0  0  0  0  0  0  0  0  0  0  0
  142.2040   80.1410  221.6610 C   0  0  0  0  0  0  0  0  0  0  0  0
  142.9570   80.4810  222.9320 C   0  0  0  0  0  0  0  0  0  0  0  0
  142.1580   80.2090  224.0810 N   0  0  0  0  0  0  0  0  0  0  0  0
  140.7370   80.2130  223.8420 C   0  0  0  0  0  0  0  0  0  0  0  0
  140.3780   79.1240  222.8730 C   0  0  0  0  0  0  0  0  0  0  0  0
  139.9500   71.6440  222.9970 C   0  0  0  0  0  0  0  0  0  0  0  0
  139.5030   70.3580  222.7840 C   0  0  0  0  0  0  0  0  0  0  0  0
  139.5610   69.4730  223.8410 C   0  0  0  0  0  0  0  0  0  0  0  0
  140.0460   69.8420  225.0740 C   0  0  0  0  0  0  0  0  0  0  0  0
  140.1240   68.9970  226.1560 C   0  0  0  0  0  0  0  0  0  0  0  0
  140.6170   69.3960  227.3860 C   0  0  0  0  0  0  0  0  0  0  0  0
  140.6910   68.2800  228.7190 Cl  0  0  0  0  0  0  0  0  0  0  0  0
  141.0490   70.6990  227.5330 C   0  0  0  0  0  0  0  0  0  0  0  0
  140.9740   71.5440  226.4600 C   0  0  0  0  0  0  0  0  0  0  0  0
  140.4830   71.1550  225.2290 C   0  0  0  0  0  0  0  0  0  0  0  0
  140.4260   72.0200  224.1980 N   0  0  0  0  0  0  0  0  0  0  0  0
  139.5650   74.2310  223.1650 H   0  0  0  0  0  0  0  0  0  0  0  0
  140.5703   74.9234  220.5484 H   0  0  0  0  0  0  0  0  0  0  0  0
  138.7131   74.7024  220.5269 H   0  0  0  0  0  0  0  0  0  0  0  0
  138.0881   77.9941  219.5324 H   0  0  0  0  0  0  0  0  0  0  0  0
  138.6170   79.3244  220.5878 H   0  0  0  0  0  0  0  0  0  0  0  0
  139.7503   78.3930  217.9426 H   0  0  0  0  0  0  0  0  0  0  0  0
  139.6723   80.0294  218.5675 H   0  0  0  0  0  0  0  0  0  0  0  0
  141.8893   78.2185  218.7395 H   0  0  0  0  0  0  0  0  0  0  0  0
  141.7603   79.7720  219.5944 H   0  0  0  0  0  0  0  0  0  0  0  0
  141.8367   77.2491  220.7154 H   0  0  0  0  0  0  0  0  0  0  0  0
  142.2094   78.0764  222.3875 H   0  0  0  0  0  0  0  0  0  0  0  0
  142.9012   80.0512  220.8149 H   0  0  0  0  0  0  0  0  0  0  0  0
  141.4766   80.9236  221.3992 H   0  0  0  0  0  0  0  0  0  0  0  0
  143.8752   79.8771  222.9799 H   0  0  0  0  0  0  0  0  0  0  0  0
  143.2043   81.5528  222.9198 H   0  0  0  0  0  0  0  0  0  0  0  0
  142.4490   79.4090  224.6460 H   0  0  0  0  0  0  0  0  0  0  0  0
  140.2071   80.0456  224.7913 H   0  0  0  0  0  0  0  0  0  0  0  0
  140.4440   81.1851  223.4186 H   0  0  0  0  0  0  0  0  0  0  0  0
  140.1167   78.2180  223.4395 H   0  0  0  0  0  0  0  0  0  0  0  0
  139.5299   79.4770  222.2679 H   0  0  0  0  0  0  0  0  0  0  0  0
  139.1128   70.0472  221.8036 H   0  0  0  0  0  0  0  0  0  0  0  0
  139.2088   68.4415  223.6931 H   0  0  0  0  0  0  0  0  0  0  0  0
  139.7796   67.9589  226.0388 H   0  0  0  0  0  0  0  0  0  0  0  0
  141.4466   71.0515  228.4962 H   0  0  0  0  0  0  0  0  0  0  0  0
  141.3205   72.5807  226.5831 H   0  0  0  0  0  0  0  0  0  0  0  0
  1  2  2  0
  2  3  1  0
  3  4  1  0
  4  5  1  0
  5  6  2  0
  5  7  1  0
  7  8  1  0
  8  9  1  0
  9 10  1  0
 10 11  1  0
 11 12  1  0
 12 13  1  0
 13 14  1  0
 14 15  1  0
 15 16  1  0
 16 17  1  0
  2 18  1  0
 18 19  2  0
 19 20  1  0
 20 21  2  0
 21 22  1  0
 22 23  2  0
 23 24  1  0
 23 25  1  0
 25 26  2  0
 26 27  1  0
 27 28  2  0
 11  7  1  0
 17 12  1  0
 28 18  1  0
 27 21  1  0
  3 29  1  0
  4 30  1  0
  4 31  1  0
  8 32  1  0
  8 33  1  0
  9 34  1  0
  9 35  1  0
 10 36  1  0
 10 37  1  0
 11 38  1  6
 12 39  1  0
 13 40  1  0
 13 41  1  0
 14 42  1  0
 14 43  1  0
 15 44  1  0
 16 45  1  0
 16 46  1  0
 17 47  1  0
 17 48  1  0
 19 49  1  0
 20 50  1  0
 22 51  1  0
 25 52  1  0
 26 53  1  0
M  END
>  <smiles>  (78) 
O=C(NCC(=O)N1CCCC1C1CCNCC1)c1ccc2cc(Cl)ccc2n1

>  <score_type>  (78) 
oracle

>  <origin>  (78) 
autodockgpu

>  <m_score__min__energy>  (78) 
-8.6300000000000008

>  <m_primary>  (78) 
energy

>  <rmsd>  (78) 
2.040476520206649

>  <m_score__min__rmsd>  (78) 
2.040476520206649

>  <meeko>  (78) 
{"free_energy": -8.03, "intermolecular_energy": -9.52, "internal_energy": -1.52, "cluster_size": 23, "cluster_id": 1, "rank_in_cluster": 8}

>  <energy>  (78) 
-8.1

>  <cluster_rmsd>  (78) 
1.51

>  <cluster>  (78) 
2

$$$$

     RDKit          3D

 53 56  0  0  0  0  0  0  0  0999 V2000
  136.8060   77.7520  222.2490 O   0  0  0  0  0  0  0  0  0  0  0  0
  136.9040   76.5730  222.7300 C   0  0  0  0  0  0  0  0  0  0  0  0
  138.0280   75.7370  222.3720 N   0  0  0  0  0  0  0  0  0  0  0  0
  139.0510   76.1680  221.4840 C   0  0  0  0  0  0  0  0  0  0  0  0
  140.3440   76.5770  222.0380 C   0  0  0  0  0  0  0  0  0  0  0  0
  141.1230   75.5780  222.3400 O   0  0  0  0  0  0  0  0  0  0  0  0
  140.8540   77.8570  222.2820 N   0  0  0  0  0  0  0  0  0  0  0  0
  141.8270   78.6860  221.6030 C   0  0  0  0  0  0  0  0  0  0  0  0
  142.5440   79.4940  222.6660 C   0  0  0  0  0  0  0  0  0  0  0  0
  141.5380   79.5610  223.7940 C   0  0  0  0  0  0  0  0  0  0  0  0
  140.4140   78.6810  223.4200 C   0  0  1  0  0  0  0  0  0  0  0  0
  139.1040   79.3400  223.2170 C   0  0  0  0  0  0  0  0  0  0  0  0
  138.8120   80.4640  224.2170 C   0  0  0  0  0  0  0  0  0  0  0  0
  137.3100   80.6690  224.1780 C   0  0  0  0  0  0  0  0  0  0  0  0
  136.8330   80.6490  222.8350 N   0  0  0  0  0  0  0  0  0  0  0  0
  137.8190   80.9850  221.8390 C   0  0  0  0  0  0  0  0  0  0  0  0
  138.9260   79.9720  221.8540 C   0  0  0  0  0  0  0  0  0  0  0  0
  135.8700   76.0620  223.6530 C   0  0  0  0  0  0  0  0  0  0  0  0
  134.9910   76.9630  224.2110 C   0  0  0  0  0  0  0  0  0  0  0  0
  134.0280   76.4750  225.0720 C   0  0  0  0  0  0  0  0  0  0  0  0
  133.9340   75.1380  225.3770 C   0  0  0  0  0  0  0  0  0  0  0  0
  132.9940   74.6060  226.2270 C   0  0  0  0  0  0  0  0  0  0  0  0
  132.9220   73.2530  226.5150 C   0  0  0  0  0  0  0  0  0  0  0  0
  131.7100   72.6380  227.6010 Cl  0  0  0  0  0  0  0  0  0  0  0  0
  133.8350   72.4030  225.9230 C   0  0  0  0  0  0  0  0  0  0  0  0
  134.7720   72.9280  225.0750 C   0  0  0  0  0  0  0  0  0  0  0  0
  134.8510   74.2740  224.7830 C   0  0  0  0  0  0  0  0  0  0  0  0
  135.7910   74.7500  223.9420 N   0  0  0  0  0  0  0  0  0  0  0  0
  138.0070   74.7810  222.8380 H   0  0  0  0  0  0  0  0  0  0  0  0
  139.2457   75.3380  220.7889 H   0  0  0  0  0  0  0  0  0  0  0  0
  138.6475   77.0918  221.0439 H   0  0  0  0  0  0  0  0  0  0  0  0
  142.5460   78.0555  221.0594 H   0  0  0  0  0  0  0  0  0  0  0  0
  141.3366   79.3471  220.8733 H   0  0  0  0  0  0  0  0  0  0  0  0
  143.4655   78.9882  222.9900 H   0  0  0  0  0  0  0  0  0  0  0  0
  142.8583   80.4868  222.3115 H   0  0  0  0  0  0  0  0  0  0  0  0
  141.9965   79.2113  224.7308 H   0  0  0  0  0  0  0  0  0  0  0  0
  141.1933   80.5934  223.9528 H   0  0  0  0  0  0  0  0  0  0  0  0
  140.1821   78.0449  224.2869 H   0  0  0  0  0  0  0  0  0  0  0  0
  138.4133   78.4944  223.3503 H   0  0  0  0  0  0  0  0  0  0  0  0
  139.1329   80.1710  225.2276 H   0  0  0  0  0  0  0  0  0  0  0  0
  139.3541   81.3861  223.9605 H   0  0  0  0  0  0  0  0  0  0  0  0
  136.8210   79.8644  224.7468 H   0  0  0  0  0  0  0  0  0  0  0  0
  137.0752   81.6477  224.6219 H   0  0  0  0  0  0  0  0  0  0  0  0
  136.2840   79.8290  222.5690 H   0  0  0  0  0  0  0  0  0  0  0  0
  137.3460   80.9937  220.8459 H   0  0  0  0  0  0  0  0  0  0  0  0
  138.2346   81.9788  222.0617 H   0  0  0  0  0  0  0  0  0  0  0  0
  138.6931   79.1820  221.1249 H   0  0  0  0  0  0  0  0  0  0  0  0
  139.8616   80.4905  221.5974 H   0  0  0  0  0  0  0  0  0  0  0  0
  135.0538   78.0363  223.9785 H   0  0  0  0  0  0  0  0  0  0  0  0
  133.3145   77.1774  225.5276 H   0  0  0  0  0  0  0  0  0  0  0  0
  132.2676   75.2839  226.6989 H   0  0  0  0  0  0  0  0  0  0  0  0
  133.8096   71.3228  226.1294 H   0  0  0  0  0  0  0  0  0  0  0  0
  135.4953   72.2456  224.6047 H   0  0  0  0  0  0  0  0  0  0  0  0
  1  2  2  0
  2  3  1  0
  3  4  1  0
  4  5  1  0
  5  6  2  0
  5  7  1  0
  7  8  1  0
  8  9  1  0
  9 10  1  0
 10 11  1  0
 11 12  1  0
 12 13  1  0
 13 14  1  0
 14 15  1  0
 15 16  1  0
 16 17  1  0
  2 18  1  0
 18 19  2  0
 19 20  1  0
 20 21  2  0
 21 22  1  0
 22 23  2  0
 23 24  1  0
 23 25  1  0
 25 26  2  0
 26 27  1  0
 27 28  2  0
 11  7  1  0
 17 12  1  0
 28 18  1  0
 27 21  1  0
  3 29  1  0
  4 30  1  0
  4 31  1  0
  8 32  1  0
  8 33  1  0
  9 34  1  0
  9 35  1  0
 10 36  1  0
 10 37  1  0
 11 38  1  1
 12 39  1  0
 13 40  1  0
 13 41  1  0
 14 42  1  0
 14 43  1  0
 15 44  1  0
 16 45  1  0
 16 46  1  0
 17 47  1  0
 17 48  1  0
 19 49  1  0
 20 50  1  0
 22 51  1  0
 25 52  1  0
 26 53  1  0
M  END
>  <smiles>  (79) 
O=C(NCC(=O)N1CCCC1C1CCNCC1)c1ccc2cc(Cl)ccc2n1

>  <score_type>  (79) 
oracle

>  <origin>  (79) 
autodockgpu

>  <m_score__min__energy>  (79) 
-8.6300000000000008

>  <m_primary>  (79) 
energy

>  <rmsd>  (79) 
6.586856607422086

>  <m_score__min__rmsd>  (79) 
6.586856607422086

>  <meeko>  (79) 
{"free_energy": -6.64, "intermolecular_energy": -8.13, "internal_energy": -2.63, "cluster_size": 5, "cluster_id": 4, "rank_in_cluster": 3}

>  <energy>  (79) 
-7.81

>  <cluster_rmsd>  (79) 
1.64

>  <cluster>  (79) 
2

$$$$

     RDKit          3D

 53 56  0  0  0  0  0  0  0  0999 V2000
  139.3900   72.6710  220.5360 O   0  0  0  0  0  0  0  0  0  0  0  0
  140.0780   72.8880  221.5890 C   0  0  0  0  0  0  0  0  0  0  0  0
  140.9210   74.0600  221.6730 N   0  0  0  0  0  0  0  0  0  0  0  0
  141.0300   75.0020  220.6150 C   0  0  0  0  0  0  0  0  0  0  0  0
  139.9780   76.0090  220.4510 C   0  0  0  0  0  0  0  0  0  0  0  0
  139.5650   76.1400  219.2240 O   0  0  0  0  0  0  0  0  0  0  0  0
  139.3650   76.8310  221.4040 N   0  0  0  0  0  0  0  0  0  0  0  0
  138.5860   76.5640  222.5940 C   0  0  0  0  0  0  0  0  0  0  0  0
  137.5640   77.6760  222.7170 C   0  0  0  0  0  0  0  0  0  0  0  0
  138.2090   78.8280  221.9790 C   0  0  0  0  0  0  0  0  0  0  0  0
  139.4300   78.3010  221.3420 C   0  0  1  0  0  0  0  0  0  0  0  0
  140.7130   78.8680  221.8120 C   0  0  0  0  0  0  0  0  0  0  0  0
  140.6950   80.3910  221.9830 C   0  0  0  0  0  0  0  0  0  0  0  0
  142.1490   80.8230  221.9830 C   0  0  0  0  0  0  0  0  0  0  0  0
  142.9380   79.9380  222.7750 N   0  0  0  0  0  0  0  0  0  0  0  0
  142.2070   79.2200  223.7880 C   0  0  0  0  0  0  0  0  0  0  0  0
  141.1830   78.3300  223.1450 C   0  0  0  0  0  0  0  0  0  0  0  0
  140.0150   71.9420  222.7220 C   0  0  0  0  0  0  0  0  0  0  0  0
  139.3570   70.7470  222.5390 C   0  0  0  0  0  0  0  0  0  0  0  0
  139.3030   69.8710  223.6040 C   0  0  0  0  0  0  0  0  0  0  0  0
  139.8810   70.1630  224.8170 C   0  0  0  0  0  0  0  0  0  0  0  0
  139.8550   69.3230  225.9050 C   0  0  0  0  0  0  0  0  0  0  0  0
  140.4450   69.6440  227.1150 C   0  0  0  0  0  0  0  0  0  0  0  0
  140.3780   68.5390  228.4580 Cl  0  0  0  0  0  0  0  0  0  0  0  0
  141.0900   70.8590  227.2340 C   0  0  0  0  0  0  0  0  0  0  0  0
  141.1190   71.6980  226.1530 C   0  0  0  0  0  0  0  0  0  0  0  0
  140.5330   71.3870  224.9430 C   0  0  0  0  0  0  0  0  0  0  0  0
  140.5850   72.2430  223.9040 N   0  0  0  0  0  0  0  0  0  0  0  0
  141.4400   74.1390  222.5990 H   0  0  0  0  0  0  0  0  0  0  0  0
  141.9757   75.5443  220.7620 H   0  0  0  0  0  0  0  0  0  0  0  0
  140.9527   74.3882  219.7054 H   0  0  0  0  0  0  0  0  0  0  0  0
  138.0776   75.5929  222.5020 H   0  0  0  0  0  0  0  0  0  0  0  0
  139.2315   76.5257  223.4838 H   0  0  0  0  0  0  0  0  0  0  0  0
  136.6123   77.3899  222.2454 H   0  0  0  0  0  0  0  0  0  0  0  0
  137.3174   77.9191  223.7611 H   0  0  0  0  0  0  0  0  0  0  0  0
  137.5220   79.2187  221.2139 H   0  0  0  0  0  0  0  0  0  0  0  0
  138.4492   79.6510  222.6682 H   0  0  0  0  0  0  0  0  0  0  0  0
  139.4365   78.6412  220.2959 H   0  0  0  0  0  0  0  0  0  0  0  0
  141.3935   78.5630  221.0033 H   0  0  0  0  0  0  0  0  0  0  0  0
  140.1547   80.8639  221.1496 H   0  0  0  0  0  0  0  0  0  0  0  0
  140.1838   80.6887  222.9104 H   0  0  0  0  0  0  0  0  0  0  0  0
  142.5273   80.8175  220.9501 H   0  0  0  0  0  0  0  0  0  0  0  0
  142.2172   81.8348  222.4092 H   0  0  0  0  0  0  0  0  0  0  0  0
  143.5770   79.3290  222.2600 H   0  0  0  0  0  0  0  0  0  0  0  0
  142.9055   78.6067  224.3761 H   0  0  0  0  0  0  0  0  0  0  0  0
  141.6989   79.9398  224.4466 H   0  0  0  0  0  0  0  0  0  0  0  0
  141.6263   77.3355  222.9889 H   0  0  0  0  0  0  0  0  0  0  0  0
  140.3117   78.2800  223.8146 H   0  0  0  0  0  0  0  0  0  0  0  0
  138.8893   70.4982  221.5750 H   0  0  0  0  0  0  0  0  0  0  0  0
  138.7819   68.9104  223.4788 H   0  0  0  0  0  0  0  0  0  0  0  0
  139.3432   68.3540  225.8097 H   0  0  0  0  0  0  0  0  0  0  0  0
  141.5716   71.1473  228.1800 H   0  0  0  0  0  0  0  0  0  0  0  0
  141.6333   72.6651  226.2534 H   0  0  0  0  0  0  0  0  0  0  0  0
  1  2  2  0
  2  3  1  0
  3  4  1  0
  4  5  1  0
  5  6  2  0
  5  7  1  0
  7  8  1  0
  8  9  1  0
  9 10  1  0
 10 11  1  0
 11 12  1  0
 12 13  1  0
 13 14  1  0
 14 15  1  0
 15 16  1  0
 16 17  1  0
  2 18  1  0
 18 19  2  0
 19 20  1  0
 20 21  2  0
 21 22  1  0
 22 23  2  0
 23 24  1  0
 23 25  1  0
 25 26  2  0
 26 27  1  0
 27 28  2  0
 11  7  1  0
 17 12  1  0
 28 18  1  0
 27 21  1  0
  3 29  1  0
  4 30  1  0
  4 31  1  0
  8 32  1  0
  8 33  1  0
  9 34  1  0
  9 35  1  0
 10 36  1  0
 10 37  1  0
 11 38  1  6
 12 39  1  0
 13 40  1  0
 13 41  1  0
 14 42  1  0
 14 43  1  0
 15 44  1  0
 16 45  1  0
 16 46  1  0
 17 47  1  0
 17 48  1  0
 19 49  1  0
 20 50  1  0
 22 51  1  0
 25 52  1  0
 26 53  1  0
M  END
>  <smiles>  (80) 
O=C(NCC(=O)N1CCCC1C1CCNCC1)c1ccc2cc(Cl)ccc2n1

>  <score_type>  (80) 
oracle

>  <origin>  (80) 
autodockgpu

>  <m_score__min__energy>  (80) 
-8.6300000000000008

>  <m_primary>  (80) 
energy

>  <rmsd>  (80) 
3.13288045238453

>  <m_score__min__rmsd>  (80) 
3.13288045238453

>  <meeko>  (80) 
{"free_energy": -7.79, "intermolecular_energy": -9.28, "internal_energy": -1.57, "cluster_size": 23, "cluster_id": 1, "rank_in_cluster": 21}

>  <energy>  (80) 
-7.77

>  <cluster_rmsd>  (80) 
1.47

>  <cluster>  (80) 
2

$$$$

     RDKit          3D

 53 56  0  0  0  0  0  0  0  0999 V2000
  138.7980   72.7190  220.9520 O   0  0  0  0  0  0  0  0  0  0  0  0
  139.8370   72.5960  221.6850 C   0  0  0  0  0  0  0  0  0  0  0  0
  141.0340   73.3430  221.3730 N   0  0  0  0  0  0  0  0  0  0  0  0
  141.1190   74.2240  220.2600 C   0  0  0  0  0  0  0  0  0  0  0  0
  141.0740   75.6690  220.4960 C   0  0  0  0  0  0  0  0  0  0  0  0
  141.9920   76.3330  219.8550 O   0  0  0  0  0  0  0  0  0  0  0  0
  140.2020   76.4240  221.2900 N   0  0  0  0  0  0  0  0  0  0  0  0
  139.3490   76.1010  222.4150 C   0  0  0  0  0  0  0  0  0  0  0  0
  138.1260   76.9890  222.3160 C   0  0  0  0  0  0  0  0  0  0  0  0
  138.6230   78.1850  221.5340 C   0  0  0  0  0  0  0  0  0  0  0  0
  139.9920   77.8660  221.0840 C   0  0  1  0  0  0  0  0  0  0  0  0
  141.0750   78.7170  221.6250 C   0  0  0  0  0  0  0  0  0  0  0  0
  140.7690   80.2190  221.5770 C   0  0  0  0  0  0  0  0  0  0  0  0
  142.1100   80.9160  221.6940 C   0  0  0  0  0  0  0  0  0  0  0  0
  142.9160   80.2940  222.6930 N   0  0  0  0  0  0  0  0  0  0  0  0
  142.1800   79.5720  223.6990 C   0  0  0  0  0  0  0  0  0  0  0  0
  141.4310   78.4360  223.0670 C   0  0  0  0  0  0  0  0  0  0  0  0
  139.8160   71.6910  222.8520 C   0  0  0  0  0  0  0  0  0  0  0  0
  139.1570   70.4880  222.7340 C   0  0  0  0  0  0  0  0  0  0  0  0
  139.1430   69.6490  223.8300 C   0  0  0  0  0  0  0  0  0  0  0  0
  139.7610   69.9860  225.0110 C   0  0  0  0  0  0  0  0  0  0  0  0
  139.7750   69.1850  226.1280 C   0  0  0  0  0  0  0  0  0  0  0  0
  140.4050   69.5490  227.3060 C   0  0  0  0  0  0  0  0  0  0  0  0
  140.3890   68.4930  228.6880 Cl  0  0  0  0  0  0  0  0  0  0  0  0
  141.0490   70.7700  227.3590 C   0  0  0  0  0  0  0  0  0  0  0  0
  141.0380   71.5700  226.2500 C   0  0  0  0  0  0  0  0  0  0  0  0
  140.4110   71.2150  225.0720 C   0  0  0  0  0  0  0  0  0  0  0  0
  140.4250   72.0340  224.0020 N   0  0  0  0  0  0  0  0  0  0  0  0
  141.8310   73.1660  222.0560 H   0  0  0  0  0  0  0  0  0  0  0  0
  142.0700   74.0096  219.7504 H   0  0  0  0  0  0  0  0  0  0  0  0
  140.2007   74.0199  219.6898 H   0  0  0  0  0  0  0  0  0  0  0  0
  139.0515   75.0429  222.3714 H   0  0  0  0  0  0  0  0  0  0  0  0
  139.8764   76.2656  223.3662 H   0  0  0  0  0  0  0  0  0  0  0  0
  137.3118   76.4792  221.7802 H   0  0  0  0  0  0  0  0  0  0  0  0
  137.7118   77.2603  223.2983 H   0  0  0  0  0  0  0  0  0  0  0  0
  137.9722   78.3659  220.6658 H   0  0  0  0  0  0  0  0  0  0  0  0
  138.6150   79.0923  222.1559 H   0  0  0  0  0  0  0  0  0  0  0  0
  140.0619   78.1148  220.0148 H   0  0  0  0  0  0  0  0  0  0  0  0
  141.9091   78.4552  220.9573 H   0  0  0  0  0  0  0  0  0  0  0  0
  140.2826   80.4809  220.6258 H   0  0  0  0  0  0  0  0  0  0  0  0
  140.0842   80.5193  222.3837 H   0  0  0  0  0  0  0  0  0  0  0  0
  142.6300   80.8633  220.7261 H   0  0  0  0  0  0  0  0  0  0  0  0
  141.9398   81.9647  221.9793 H   0  0  0  0  0  0  0  0  0  0  0  0
  143.7190   79.7630  222.3510 H   0  0  0  0  0  0  0  0  0  0  0  0
  142.8803   79.1749  224.4486 H   0  0  0  0  0  0  0  0  0  0  0  0
  141.4643   80.2530  224.1827 H   0  0  0  0  0  0  0  0  0  0  0  0
  142.0577   77.5329  223.1074 H   0  0  0  0  0  0  0  0  0  0  0  0
  140.4931   78.2987  223.6251 H   0  0  0  0  0  0  0  0  0  0  0  0
  138.6574   70.2044  221.7959 H   0  0  0  0  0  0  0  0  0  0  0  0
  138.6223   68.6828  223.7564 H   0  0  0  0  0  0  0  0  0  0  0  0
  139.2633   68.2123  226.0841 H   0  0  0  0  0  0  0  0  0  0  0  0
  141.5616   71.0930  228.2771 H   0  0  0  0  0  0  0  0  0  0  0  0
  141.5523   72.5411  226.2985 H   0  0  0  0  0  0  0  0  0  0  0  0
  1  2  2  0
  2  3  1  0
  3  4  1  0
  4  5  1  0
  5  6  2  0
  5  7  1  0
  7  8  1  0
  8  9  1  0
  9 10  1  0
 10 11  1  0
 11 12  1  0
 12 13  1  0
 13 14  1  0
 14 15  1  0
 15 16  1  0
 16 17  1  0
  2 18  1  0
 18 19  2  0
 19 20  1  0
 20 21  2  0
 21 22  1  0
 22 23  2  0
 23 24  1  0
 23 25  1  0
 25 26  2  0
 26 27  1  0
 27 28  2  0
 11  7  1  0
 17 12  1  0
 28 18  1  0
 27 21  1  0
  3 29  1  0
  4 30  1  0
  4 31  1  0
  8 32  1  0
  8 33  1  0
  9 34  1  0
  9 35  1  0
 10 36  1  0
 10 37  1  0
 11 38  1  6
 12 39  1  0
 13 40  1  0
 13 41  1  0
 14 42  1  0
 14 43  1  0
 15 44  1  0
 16 45  1  0
 16 46  1  0
 17 47  1  0
 17 48  1  0
 19 49  1  0
 20 50  1  0
 22 51  1  0
 25 52  1  0
 26 53  1  0
M  END
>  <smiles>  (81) 
O=C(NCC(=O)N1CCCC1C1CCNCC1)c1ccc2cc(Cl)ccc2n1

>  <score_type>  (81) 
oracle

>  <origin>  (81) 
autodockgpu

>  <m_score__min__energy>  (81) 
-8.6300000000000008

>  <m_primary>  (81) 
energy

>  <rmsd>  (81) 
2.7756342077817173

>  <m_score__min__rmsd>  (81) 
2.7756342077817173

>  <meeko>  (81) 
{"free_energy": -8.11, "intermolecular_energy": -9.6, "internal_energy": -1.46, "cluster_size": 23, "cluster_id": 1, "rank_in_cluster": 7}

>  <energy>  (81) 
-7.54

>  <cluster_rmsd>  (81) 
1.72

>  <cluster>  (81) 
2

$$$$

     RDKit          3D

 53 56  0  0  0  0  0  0  0  0999 V2000
  133.5740   69.2240  226.1800 O   0  0  0  0  0  0  0  0  0  0  0  0
  134.1260   70.3470  225.9310 C   0  0  0  0  0  0  0  0  0  0  0  0
  135.3890   70.3930  225.2290 N   0  0  0  0  0  0  0  0  0  0  0  0
  136.0680   69.2210  224.7980 C   0  0  0  0  0  0  0  0  0  0  0  0
  137.5210   69.2710  224.6150 C   0  0  0  0  0  0  0  0  0  0  0  0
  138.1240   68.1540  224.9060 O   0  0  0  0  0  0  0  0  0  0  0  0
  138.3360   70.3220  224.1790 N   0  0  0  0  0  0  0  0  0  0  0  0
  138.1100   71.4660  223.3210 C   0  0  0  0  0  0  0  0  0  0  0  0
  139.4060   71.7320  222.5820 C   0  0  0  0  0  0  0  0  0  0  0  0
  140.4590   71.1510  223.5000 C   0  0  0  0  0  0  0  0  0  0  0  0
  139.7450   70.4520  224.5850 C   0  0  1  0  0  0  0  0  0  0  0  0
  139.9320   70.9950  225.9490 C   0  0  0  0  0  0  0  0  0  0  0  0
  140.1090   69.9200  227.0270 C   0  0  0  0  0  0  0  0  0  0  0  0
  139.7990   70.6040  228.3450 C   0  0  0  0  0  0  0  0  0  0  0  0
  140.3990   71.8960  228.3970 N   0  0  0  0  0  0  0  0  0  0  0  0
  141.5420   72.0650  227.5360 C   0  0  0  0  0  0  0  0  0  0  0  0
  141.1310   71.9040  226.1020 C   0  0  0  0  0  0  0  0  0  0  0  0
  133.4750   71.6030  226.3590 C   0  0  0  0  0  0  0  0  0  0  0  0
  132.2990   71.5190  227.0710 C   0  0  0  0  0  0  0  0  0  0  0  0
  131.6990   72.6970  227.4650 C   0  0  0  0  0  0  0  0  0  0  0  0
  132.2410   73.9250  227.1670 C   0  0  0  0  0  0  0  0  0  0  0  0
  131.6810   75.1250  227.5390 C   0  0  0  0  0  0  0  0  0  0  0  0
  132.2490   76.3480  227.2250 C   0  0  0  0  0  0  0  0  0  0  0  0
  131.4920   77.8340  227.7230 Cl  0  0  0  0  0  0  0  0  0  0  0  0
  133.4290   76.3630  226.5090 C   0  0  0  0  0  0  0  0  0  0  0  0
  133.9900   75.1720  226.1370 C   0  0  0  0  0  0  0  0  0  0  0  0
  133.4310   73.9480  226.4450 C   0  0  0  0  0  0  0  0  0  0  0  0
  134.0170   72.7980  226.0590 N   0  0  0  0  0  0  0  0  0  0  0  0
  135.7480   71.3820  225.0720 H   0  0  0  0  0  0  0  0  0  0  0  0
  135.8632   68.4372  225.5421 H   0  0  0  0  0  0  0  0  0  0  0  0
  135.6792   69.0476  223.7837 H   0  0  0  0  0  0  0  0  0  0  0  0
  137.3051   71.2467  222.6041 H   0  0  0  0  0  0  0  0  0  0  0  0
  137.8084   72.3441  223.9108 H   0  0  0  0  0  0  0  0  0  0  0  0
  139.4130   71.2262  221.6052 H   0  0  0  0  0  0  0  0  0  0  0  0
  139.5660   72.7987  222.3660 H   0  0  0  0  0  0  0  0  0  0  0  0
  141.0933   70.4425  222.9471 H   0  0  0  0  0  0  0  0  0  0  0  0
  141.1091   71.9417  223.9027 H   0  0  0  0  0  0  0  0  0  0  0  0
  140.2026   69.4588  224.7035 H   0  0  0  0  0  0  0  0  0  0  0  0
  138.9955   71.5547  226.0893 H   0  0  0  0  0  0  0  0  0  0  0  0
  139.4126   69.0861  226.8548 H   0  0  0  0  0  0  0  0  0  0  0  0
  141.1254   69.4995  227.0175 H   0  0  0  0  0  0  0  0  0  0  0  0
  138.7090   70.7079  228.4500 H   0  0  0  0  0  0  0  0  0  0  0  0
  140.2055   69.9927  229.1642 H   0  0  0  0  0  0  0  0  0  0  0  0
  139.7570   72.6880  228.3400 H   0  0  0  0  0  0  0  0  0  0  0  0
  141.9641   73.0700  227.6836 H   0  0  0  0  0  0  0  0  0  0  0  0
  142.2968   71.3040  227.7834 H   0  0  0  0  0  0  0  0  0  0  0  0
  140.8797   72.8935  225.6925 H   0  0  0  0  0  0  0  0  0  0  0  0
  141.9719   71.4474  225.5594 H   0  0  0  0  0  0  0  0  0  0  0  0
  131.8527   70.5443  227.3174 H   0  0  0  0  0  0  0  0  0  0  0  0
  130.7590   72.6526  228.0345 H   0  0  0  0  0  0  0  0  0  0  0  0
  130.7413   75.1125  228.1107 H   0  0  0  0  0  0  0  0  0  0  0  0
  133.9098   77.3157  226.2422 H   0  0  0  0  0  0  0  0  0  0  0  0
  134.9300   75.1906  225.5660 H   0  0  0  0  0  0  0  0  0  0  0  0
  1  2  2  0
  2  3  1  0
  3  4  1  0
  4  5  1  0
  5  6  2  0
  5  7  1  0
  7  8  1  0
  8  9  1  0
  9 10  1  0
 10 11  1  0
 11 12  1  0
 12 13  1  0
 13 14  1  0
 14 15  1  0
 15 16  1  0
 16 17  1  0
  2 18  1  0
 18 19  2  0
 19 20  1  0
 20 21  2  0
 21 22  1  0
 22 23  2  0
 23 24  1  0
 23 25  1  0
 25 26  2  0
 26 27  1  0
 27 28  2  0
 11  7  1  0
 17 12  1  0
 28 18  1  0
 27 21  1  0
  3 29  1  0
  4 30  1  0
  4 31  1  0
  8 32  1  0
  8 33  1  0
  9 34  1  0
  9 35  1  0
 10 36  1  0
 10 37  1  0
 11 38  1  1
 12 39  1  0
 13 40  1  0
 13 41  1  0
 14 42  1  0
 14 43  1  0
 15 44  1  0
 16 45  1  0
 16 46  1  0
 17 47  1  0
 17 48  1  0
 19 49  1  0
 20 50  1  0
 22 51  1  0
 25 52  1  0
 26 53  1  0
M  END
>  <smiles>  (82) 
O=C(NCC(=O)N1CCCC1C1CCNCC1)c1ccc2cc(Cl)ccc2n1

>  <score_type>  (82) 
oracle

>  <origin>  (82) 
autodockgpu

>  <m_score__min__energy>  (82) 
-8.6300000000000008

>  <m_primary>  (82) 
energy

>  <rmsd>  (82) 
7.885077970219145

>  <m_score__min__rmsd>  (82) 
7.885077970219145

>  <meeko>  (82) 
{"free_energy": -8.4, "intermolecular_energy": -9.89, "internal_energy": -1.54, "cluster_size": 7, "cluster_id": 3, "rank_in_cluster": 4}

>  <energy>  (82) 
-7.47

>  <cluster_rmsd>  (82) 
1.49

>  <cluster>  (82) 
2

$$$$

     RDKit          3D

 53 56  0  0  0  0  0  0  0  0999 V2000
  140.0380   72.3890  220.6490 O   0  0  0  0  0  0  0  0  0  0  0  0
  139.8870   72.8060  221.8460 C   0  0  0  0  0  0  0  0  0  0  0  0
  139.6520   74.2100  222.0980 N   0  0  0  0  0  0  0  0  0  0  0  0
  139.5870   75.1760  221.0570 C   0  0  0  0  0  0  0  0  0  0  0  0
  139.5000   76.5950  221.4110 C   0  0  0  0  0  0  0  0  0  0  0  0
  139.0220   76.8090  222.6030 O   0  0  0  0  0  0  0  0  0  0  0  0
  139.8530   77.7290  220.6710 N   0  0  0  0  0  0  0  0  0  0  0  0
  139.0920   78.6920  219.9030 C   0  0  0  0  0  0  0  0  0  0  0  0
  139.9640   79.1250  218.7420 C   0  0  0  0  0  0  0  0  0  0  0  0
  141.3690   78.8840  219.2490 C   0  0  0  0  0  0  0  0  0  0  0  0
  141.2460   78.1910  220.5450 C   0  0  1  0  0  0  0  0  0  0  0  0
  141.7490   78.9190  221.7300 C   0  0  0  0  0  0  0  0  0  0  0  0
  141.1910   80.3400  221.8710 C   0  0  0  0  0  0  0  0  0  0  0  0
  142.1450   81.0670  222.7980 C   0  0  0  0  0  0  0  0  0  0  0  0
  142.5100   80.2370  223.8990 N   0  0  0  0  0  0  0  0  0  0  0  0
  141.5640   79.1960  224.2090 C   0  0  0  0  0  0  0  0  0  0  0  0
  141.4500   78.2480  223.0510 C   0  0  0  0  0  0  0  0  0  0  0  0
  139.9510   71.8550  222.9740 C   0  0  0  0  0  0  0  0  0  0  0  0
  139.5080   70.5670  222.7680 C   0  0  0  0  0  0  0  0  0  0  0  0
  139.5720   69.6860  223.8290 C   0  0  0  0  0  0  0  0  0  0  0  0
  140.0580   70.0620  225.0590 C   0  0  0  0  0  0  0  0  0  0  0  0
  140.1420   69.2220  226.1430 C   0  0  0  0  0  0  0  0  0  0  0  0
  140.6370   69.6270  227.3710 C   0  0  0  0  0  0  0  0  0  0  0  0
  140.7180   68.5170  228.7090 Cl  0  0  0  0  0  0  0  0  0  0  0  0
  141.0650   70.9320  227.5120 C   0  0  0  0  0  0  0  0  0  0  0  0
  140.9840   71.7720  226.4350 C   0  0  0  0  0  0  0  0  0  0  0  0
  140.4920   71.3770  225.2080 C   0  0  0  0  0  0  0  0  0  0  0  0
  140.4290   72.2370  224.1720 N   0  0  0  0  0  0  0  0  0  0  0  0
  139.5350   74.4380  223.1310 H   0  0  0  0  0  0  0  0  0  0  0  0
  140.4919   75.0513  220.4442 H   0  0  0  0  0  0  0  0  0  0  0  0
  138.6269   74.9675  220.5624 H   0  0  0  0  0  0  0  0  0  0  0  0
  138.1670   78.2294  219.5282 H   0  0  0  0  0  0  0  0  0  0  0  0
  138.8113   79.5548  220.5249 H   0  0  0  0  0  0  0  0  0  0  0  0
  139.7588   78.5180  217.8479 H   0  0  0  0  0  0  0  0  0  0  0  0
  139.7897   80.1683  218.4401 H   0  0  0  0  0  0  0  0  0  0  0  0
  141.9255   78.2572  218.5366 H   0  0  0  0  0  0  0  0  0  0  0  0
  141.9144   79.8327  219.3610 H   0  0  0  0  0  0  0  0  0  0  0  0
  141.9358   77.3343  220.5344 H   0  0  0  0  0  0  0  0  0  0  0  0
  142.8310   78.9302  221.5324 H   0  0  0  0  0  0  0  0  0  0  0  0
  141.1561   80.8371  220.8903 H   0  0  0  0  0  0  0  0  0  0  0  0
  140.1651   80.3351  222.2679 H   0  0  0  0  0  0  0  0  0  0  0  0
  143.0509   81.3439  222.2388 H   0  0  0  0  0  0  0  0  0  0  0  0
  141.6447   81.9671  223.1847 H   0  0  0  0  0  0  0  0  0  0  0  0
  143.4720   79.8930  223.8980 H   0  0  0  0  0  0  0  0  0  0  0  0
  141.9053   78.6460  225.0984 H   0  0  0  0  0  0  0  0  0  0  0  0
  140.5803   79.6474  224.4057 H   0  0  0  0  0  0  0  0  0  0  0  0
  142.1621   77.4226  223.1979 H   0  0  0  0  0  0  0  0  0  0  0  0
  140.4133   77.8820  223.0160 H   0  0  0  0  0  0  0  0  0  0  0  0
  139.1160   70.2508  221.7901 H   0  0  0  0  0  0  0  0  0  0  0  0
  139.2238   68.6524  223.6861 H   0  0  0  0  0  0  0  0  0  0  0  0
  139.8011   68.1822  226.0303 H   0  0  0  0  0  0  0  0  0  0  0  0
  141.4639   71.2899  228.4726 H   0  0  0  0  0  0  0  0  0  0  0  0
  141.3270   72.8105  226.5529 H   0  0  0  0  0  0  0  0  0  0  0  0
  1  2  2  0
  2  3  1  0
  3  4  1  0
  4  5  1  0
  5  6  2  0
  5  7  1  0
  7  8  1  0
  8  9  1  0
  9 10  1  0
 10 11  1  0
 11 12  1  0
 12 13  1  0
 13 14  1  0
 14 15  1  0
 15 16  1  0
 16 17  1  0
  2 18  1  0
 18 19  2  0
 19 20  1  0
 20 21  2  0
 21 22  1  0
 22 23  2  0
 23 24  1  0
 23 25  1  0
 25 26  2  0
 26 27  1  0
 27 28  2  0
 11  7  1  0
 17 12  1  0
 28 18  1  0
 27 21  1  0
  3 29  1  0
  4 30  1  0
  4 31  1  0
  8 32  1  0
  8 33  1  0
  9 34  1  0
  9 35  1  0
 10 36  1  0
 10 37  1  0
 11 38  1  6
 12 39  1  0
 13 40  1  0
 13 41  1  0
 14 42  1  0
 14 43  1  0
 15 44  1  0
 16 45  1  0
 16 46  1  0
 17 47  1  0
 17 48  1  0
 19 49  1  0
 20 50  1  0
 22 51  1  0
 25 52  1  0
 26 53  1  0
M  END
>  <smiles>  (83) 
O=C(NCC(=O)N1CCCC1C1CCNCC1)c1ccc2cc(Cl)ccc2n1

>  <score_type>  (83) 
oracle

>  <origin>  (83) 
autodockgpu

>  <m_score__min__energy>  (83) 
-8.6300000000000008

>  <m_primary>  (83) 
energy

>  <rmsd>  (83) 
2.1451532870744754

>  <m_score__min__rmsd>  (83) 
2.1451532870744754

>  <meeko>  (83) 
{"free_energy": -8.14, "intermolecular_energy": -9.63, "internal_energy": -1.49, "cluster_size": 23, "cluster_id": 1, "rank_in_cluster": 4}

>  <energy>  (83) 
-8.53

>  <cluster_rmsd>  (83) 
0.0

>  <cluster>  (83) 
3

$$$$

     RDKit          3D

 53 56  0  0  0  0  0  0  0  0999 V2000
  140.5890   72.3560  220.6570 O   0  0  0  0  0  0  0  0  0  0  0  0
  140.2200   72.7630  221.8090 C   0  0  0  0  0  0  0  0  0  0  0  0
  139.8580   74.1490  222.0050 N   0  0  0  0  0  0  0  0  0  0  0  0
  139.8990   75.1070  220.9560 C   0  0  0  0  0  0  0  0  0  0  0  0
  140.9380   76.1390  220.9790 C   0  0  0  0  0  0  0  0  0  0  0  0
  141.1760   76.6150  222.1670 O   0  0  0  0  0  0  0  0  0  0  0  0
  141.6980   76.6740  219.9320 N   0  0  0  0  0  0  0  0  0  0  0  0
  142.1700   78.0080  219.6260 C   0  0  0  0  0  0  0  0  0  0  0  0
  142.1780   78.1420  218.1170 C   0  0  0  0  0  0  0  0  0  0  0  0
  142.3230   76.7140  217.6380 C   0  0  0  0  0  0  0  0  0  0  0  0
  142.2150   75.8490  218.8280 C   0  0  1  0  0  0  0  0  0  0  0  0
  143.4180   75.0600  219.1760 C   0  0  0  0  0  0  0  0  0  0  0  0
  143.2060   74.0830  220.3380 C   0  0  0  0  0  0  0  0  0  0  0  0
  144.5930   73.7490  220.8530 C   0  0  0  0  0  0  0  0  0  0  0  0
  145.4920   73.5220  219.7700 N   0  0  0  0  0  0  0  0  0  0  0  0
  144.8630   73.1210  218.5370 C   0  0  0  0  0  0  0  0  0  0  0  0
  143.9590   74.2130  218.0460 C   0  0  0  0  0  0  0  0  0  0  0  0
  140.1630   71.8190  222.9440 C   0  0  0  0  0  0  0  0  0  0  0  0
  139.6220   70.5710  222.7280 C   0  0  0  0  0  0  0  0  0  0  0  0
  139.5730   69.6960  223.7950 C   0  0  0  0  0  0  0  0  0  0  0  0
  140.0430   70.0400  225.0400 C   0  0  0  0  0  0  0  0  0  0  0  0
  140.0170   69.2040  226.1310 C   0  0  0  0  0  0  0  0  0  0  0  0
  140.4980   69.5770  227.3750 C   0  0  0  0  0  0  0  0  0  0  0  0
  140.4370   68.4750  228.7200 Cl  0  0  0  0  0  0  0  0  0  0  0  0
  141.0280   70.8430  227.5250 C   0  0  0  0  0  0  0  0  0  0  0  0
  141.0570   71.6790  226.4410 C   0  0  0  0  0  0  0  0  0  0  0  0
  140.5790   71.3150  225.1980 C   0  0  0  0  0  0  0  0  0  0  0  0
  140.6270   72.1700  224.1570 N   0  0  0  0  0  0  0  0  0  0  0  0
  139.5610   74.3690  223.0030 H   0  0  0  0  0  0  0  0  0  0  0  0
  140.0182   74.5501  220.0149 H   0  0  0  0  0  0  0  0  0  0  0  0
  138.9627   75.6716  221.0767 H   0  0  0  0  0  0  0  0  0  0  0  0
  141.4966   78.7572  220.0679 H   0  0  0  0  0  0  0  0  0  0  0  0
  143.1762   78.1718  220.0391 H   0  0  0  0  0  0  0  0  0  0  0  0
  141.2377   78.5844  217.7563 H   0  0  0  0  0  0  0  0  0  0  0  0
  142.9779   78.8013  217.7490 H   0  0  0  0  0  0  0  0  0  0  0  0
  141.5242   76.4726  216.9213 H   0  0  0  0  0  0  0  0  0  0  0  0
  143.2872   76.5655  217.1299 H   0  0  0  0  0  0  0  0  0  0  0  0
  141.5092   75.0388  218.5925 H   0  0  0  0  0  0  0  0  0  0  0  0
  144.1285   75.8556  219.4446 H   0  0  0  0  0  0  0  0  0  0  0  0
  142.6060   74.5542  221.1304 H   0  0  0  0  0  0  0  0  0  0  0  0
  142.6648   73.1811  220.0160 H   0  0  0  0  0  0  0  0  0  0  0  0
  144.9641   74.5875  221.4605 H   0  0  0  0  0  0  0  0  0  0  0  0
  144.5335   72.8340  221.4607 H   0  0  0  0  0  0  0  0  0  0  0  0
  146.2010   74.2430  219.6210 H   0  0  0  0  0  0  0  0  0  0  0  0
  145.6367   72.9207  217.7812 H   0  0  0  0  0  0  0  0  0  0  0  0
  144.2699   72.2113  218.7123 H   0  0  0  0  0  0  0  0  0  0  0  0
  144.5252   74.8591  217.3590 H   0  0  0  0  0  0  0  0  0  0  0  0
  143.1042   73.7408  217.5396 H   0  0  0  0  0  0  0  0  0  0  0  0
  139.2413   70.2807  221.7376 H   0  0  0  0  0  0  0  0  0  0  0  0
  139.1451   68.6939  223.6442 H   0  0  0  0  0  0  0  0  0  0  0  0
  139.5959   68.1950  226.0107 H   0  0  0  0  0  0  0  0  0  0  0  0
  141.4200   71.1741  228.4980 H   0  0  0  0  0  0  0  0  0  0  0  0
  141.4804   72.6865  226.5662 H   0  0  0  0  0  0  0  0  0  0  0  0
  1  2  2  0
  2  3  1  0
  3  4  1  0
  4  5  1  0
  5  6  2  0
  5  7  1  0
  7  8  1  0
  8  9  1  0
  9 10  1  0
 10 11  1  0
 11 12  1  0
 12 13  1  0
 13 14  1  0
 14 15  1  0
 15 16  1  0
 16 17  1  0
  2 18  1  0
 18 19  2  0
 19 20  1  0
 20 21  2  0
 21 22  1  0
 22 23  2  0
 23 24  1  0
 23 25  1  0
 25 26  2  0
 26 27  1  0
 27 28  2  0
 11  7  1  0
 17 12  1  0
 28 18  1  0
 27 21  1  0
  3 29  1  0
  4 30  1  0
  4 31  1  0
  8 32  1  0
  8 33  1  0
  9 34  1  0
  9 35  1  0
 10 36  1  0
 10 37  1  0
 11 38  1  6
 12 39  1  0
 13 40  1  0
 13 41  1  0
 14 42  1  0
 14 43  1  0
 15 44  1  0
 16 45  1  0
 16 46  1  0
 17 47  1  0
 17 48  1  0
 19 49  1  0
 20 50  1  0
 22 51  1  0
 25 52  1  0
 26 53  1  0
M  END
>  <smiles>  (84) 
O=C(NCC(=O)N1CCCC1C1CCNCC1)c1ccc2cc(Cl)ccc2n1

>  <score_type>  (84) 
oracle

>  <origin>  (84) 
autodockgpu

>  <m_score__min__energy>  (84) 
-8.6300000000000008

>  <m_primary>  (84) 
energy

>  <rmsd>  (84) 
2.3498372369473484

>  <m_score__min__rmsd>  (84) 
2.3498372369473484

>  <meeko>  (84) 
{"free_energy": -8.19, "intermolecular_energy": -9.68, "internal_energy": -1.63, "cluster_size": 9, "cluster_id": 2, "rank_in_cluster": 3}

>  <energy>  (84) 
-8.48

>  <cluster_rmsd>  (84) 
0.13

>  <cluster>  (84) 
3

$$$$

     RDKit          3D

 53 56  0  0  0  0  0  0  0  0999 V2000
  139.0770   80.2510  219.5070 O   0  0  0  0  0  0  0  0  0  0  0  0
  140.3390   80.3620  219.6660 C   0  0  0  0  0  0  0  0  0  0  0  0
  140.9100   81.6310  220.0580 N   0  0  0  0  0  0  0  0  0  0  0  0
  140.1210   82.7920  220.2740 C   0  0  0  0  0  0  0  0  0  0  0  0
  139.0110   82.7270  221.2280 C   0  0  0  0  0  0  0  0  0  0  0  0
  138.3050   83.8190  221.2850 O   0  0  0  0  0  0  0  0  0  0  0  0
  138.6060   81.6820  222.0660 N   0  0  0  0  0  0  0  0  0  0  0  0
  137.4880   80.7620  222.0410 C   0  0  0  0  0  0  0  0  0  0  0  0
  137.1140   80.4750  223.4810 C   0  0  0  0  0  0  0  0  0  0  0  0
  138.4010   80.7270  224.2350 C   0  0  0  0  0  0  0  0  0  0  0  0
  139.3620   81.2920  223.2680 C   0  0  1  0  0  0  0  0  0  0  0  0
  140.5660   80.4790  222.9870 C   0  0  0  0  0  0  0  0  0  0  0  0
  141.8310   80.9750  223.6970 C   0  0  0  0  0  0  0  0  0  0  0  0
  142.9930   80.3630  222.9400 C   0  0  0  0  0  0  0  0  0  0  0  0
  142.7320   78.9960  222.6310 N   0  0  0  0  0  0  0  0  0  0  0  0
  141.7790   78.3530  223.5000 C   0  0  0  0  0  0  0  0  0  0  0  0
  140.4420   79.0230  223.3780 C   0  0  0  0  0  0  0  0  0  0  0  0
  141.2170   79.1940  219.4490 C   0  0  0  0  0  0  0  0  0  0  0  0
  142.1420   79.2520  218.4310 C   0  0  0  0  0  0  0  0  0  0  0  0
  142.9570   78.1550  218.2360 C   0  0  0  0  0  0  0  0  0  0  0  0
  142.8650   77.0310  219.0230 C   0  0  0  0  0  0  0  0  0  0  0  0
  143.6540   75.9160  218.8690 C   0  0  0  0  0  0  0  0  0  0  0  0
  143.5390   74.7970  219.6760 C   0  0  0  0  0  0  0  0  0  0  0  0
  144.5670   73.4140  219.4320 Cl  0  0  0  0  0  0  0  0  0  0  0  0
  142.5920   74.8030  220.6800 C   0  0  0  0  0  0  0  0  0  0  0  0
  141.8040   75.9110  220.8380 C   0  0  0  0  0  0  0  0  0  0  0  0
  141.9110   77.0300  220.0370 C   0  0  0  0  0  0  0  0  0  0  0  0
  141.1150   78.1000  220.2280 N   0  0  0  0  0  0  0  0  0  0  0  0
  141.9690   81.6000  220.1660 H   0  0  0  0  0  0  0  0  0  0  0  0
  140.8005   83.5836  220.6229 H   0  0  0  0  0  0  0  0  0  0  0  0
  139.6278   82.9608  219.3053 H   0  0  0  0  0  0  0  0  0  0  0  0
  136.6367   81.2172  221.5137 H   0  0  0  0  0  0  0  0  0  0  0  0
  137.7564   79.8344  221.5142 H   0  0  0  0  0  0  0  0  0  0  0  0
  136.3181   81.1527  223.8234 H   0  0  0  0  0  0  0  0  0  0  0  0
  136.7225   79.4576  223.6282 H   0  0  0  0  0  0  0  0  0  0  0  0
  138.2258   81.4397  225.0543 H   0  0  0  0  0  0  0  0  0  0  0  0
  138.7875   79.7961  224.6754 H   0  0  0  0  0  0  0  0  0  0  0  0
  139.8261   82.1747  223.7321 H   0  0  0  0  0  0  0  0  0  0  0  0
  140.6504   80.5862  221.8955 H   0  0  0  0  0  0  0  0  0  0  0  0
  141.8855   82.0731  223.6609 H   0  0  0  0  0  0  0  0  0  0  0  0
  141.8406   80.6860  224.7583 H   0  0  0  0  0  0  0  0  0  0  0  0
  143.1480   80.9209  222.0048 H   0  0  0  0  0  0  0  0  0  0  0  0
  143.8923   80.4164  223.5712 H   0  0  0  0  0  0  0  0  0  0  0  0
  142.5540   78.7870  221.6470 H   0  0  0  0  0  0  0  0  0  0  0  0
  141.6835   77.2944  223.2166 H   0  0  0  0  0  0  0  0  0  0  0  0
  142.1286   78.4299  224.5401 H   0  0  0  0  0  0  0  0  0  0  0  0
  139.8520   78.4994  222.6114 H   0  0  0  0  0  0  0  0  0  0  0  0
  139.9508   78.9781  224.3612 H   0  0  0  0  0  0  0  0  0  0  0  0
  142.2289   80.1441  217.7933 H   0  0  0  0  0  0  0  0  0  0  0  0
  143.7021   78.1807  217.4272 H   0  0  0  0  0  0  0  0  0  0  0  0
  144.4097   75.9127  218.0697 H   0  0  0  0  0  0  0  0  0  0  0  0
  142.4726   73.9325  221.3417 H   0  0  0  0  0  0  0  0  0  0  0  0
  141.0511   75.9096  221.6399 H   0  0  0  0  0  0  0  0  0  0  0  0
  1  2  2  0
  2  3  1  0
  3  4  1  0
  4  5  1  0
  5  6  2  0
  5  7  1  0
  7  8  1  0
  8  9  1  0
  9 10  1  0
 10 11  1  0
 11 12  1  0
 12 13  1  0
 13 14  1  0
 14 15  1  0
 15 16  1  0
 16 17  1  0
  2 18  1  0
 18 19  2  0
 19 20  1  0
 20 21  2  0
 21 22  1  0
 22 23  2  0
 23 24  1  0
 23 25  1  0
 25 26  2  0
 26 27  1  0
 27 28  2  0
 11  7  1  0
 17 12  1  0
 28 18  1  0
 27 21  1  0
  3 29  1  0
  4 30  1  0
  4 31  1  0
  8 32  1  0
  8 33  1  0
  9 34  1  0
  9 35  1  0
 10 36  1  0
 10 37  1  0
 11 38  1  1
 12 39  1  0
 13 40  1  0
 13 41  1  0
 14 42  1  0
 14 43  1  0
 15 44  1  0
 16 45  1  0
 16 46  1  0
 17 47  1  0
 17 48  1  0
 19 49  1  0
 20 50  1  0
 22 51  1  0
 25 52  1  0
 26 53  1  0
M  END
>  <smiles>  (85) 
O=C(NCC(=O)N1CCCC1C1CCNCC1)c1ccc2cc(Cl)ccc2n1

>  <score_type>  (85) 
oracle

>  <origin>  (85) 
autodockgpu

>  <m_score__min__energy>  (85) 
-8.6300000000000008

>  <m_primary>  (85) 
energy

>  <rmsd>  (85) 
9.171909852114581

>  <m_score__min__rmsd>  (85) 
9.171909852114581

>  <meeko>  (85) 
{"free_energy": -6.09, "intermolecular_energy": -7.58, "internal_energy": -3.14, "cluster_size": 6, "cluster_id": 5, "rank_in_cluster": 5}

>  <energy>  (85) 
-8.43

>  <cluster_rmsd>  (85) 
0.18

>  <cluster>  (85) 
3

$$$$

     RDKit          3D

 53 56  0  0  0  0  0  0  0  0999 V2000
  140.0700   72.1610  220.6710 O   0  0  0  0  0  0  0  0  0  0  0  0
  139.9190   72.5840  221.8660 C   0  0  0  0  0  0  0  0  0  0  0  0
  139.6900   73.9890  222.1120 N   0  0  0  0  0  0  0  0  0  0  0  0
  139.6300   74.9510  221.0670 C   0  0  0  0  0  0  0  0  0  0  0  0
  139.3640   76.3510  221.4070 C   0  0  0  0  0  0  0  0  0  0  0  0
  138.7130   76.5040  222.5240 O   0  0  0  0  0  0  0  0  0  0  0  0
  139.7030   77.5230  220.7200 N   0  0  0  0  0  0  0  0  0  0  0  0
  138.9380   78.4840  219.9540 C   0  0  0  0  0  0  0  0  0  0  0  0
  139.8400   78.9880  218.8450 C   0  0  0  0  0  0  0  0  0  0  0  0
  141.2310   78.7820  219.4030 C   0  0  0  0  0  0  0  0  0  0  0  0
  141.0810   78.0400  220.6690 C   0  0  1  0  0  0  0  0  0  0  0  0
  141.5070   78.7450  221.8980 C   0  0  0  0  0  0  0  0  0  0  0  0
  142.1960   80.0890  221.6370 C   0  0  0  0  0  0  0  0  0  0  0  0
  142.9670   80.4080  222.9030 C   0  0  0  0  0  0  0  0  0  0  0  0
  142.1830   80.1220  224.0580 N   0  0  0  0  0  0  0  0  0  0  0  0
  140.7590   80.1340  223.8390 C   0  0  0  0  0  0  0  0  0  0  0  0
  140.3830   79.0600  222.8600 C   0  0  0  0  0  0  0  0  0  0  0  0
  139.9770   71.6370  222.9980 C   0  0  0  0  0  0  0  0  0  0  0  0
  139.5180   70.3530  222.8000 C   0  0  0  0  0  0  0  0  0  0  0  0
  139.5770   69.4770  223.8650 C   0  0  0  0  0  0  0  0  0  0  0  0
  140.0730   69.8520  225.0910 C   0  0  0  0  0  0  0  0  0  0  0  0
  140.1530   69.0150  226.1790 C   0  0  0  0  0  0  0  0  0  0  0  0
  140.6580   69.4210  227.4020 C   0  0  0  0  0  0  0  0  0  0  0  0
  140.7320   68.3160  228.7440 Cl  0  0  0  0  0  0  0  0  0  0  0  0
  141.1010   70.7210  227.5350 C   0  0  0  0  0  0  0  0  0  0  0  0
  141.0250   71.5580  226.4550 C   0  0  0  0  0  0  0  0  0  0  0  0
  140.5230   71.1620  225.2320 C   0  0  0  0  0  0  0  0  0  0  0  0
  140.4650   72.0190  224.1930 N   0  0  0  0  0  0  0  0  0  0  0  0
  139.5720   74.2220  223.1440 H   0  0  0  0  0  0  0  0  0  0  0  0
  140.5991   74.9237  220.5472 H   0  0  0  0  0  0  0  0  0  0  0  0
  138.7499   74.6495  220.4800 H   0  0  0  0  0  0  0  0  0  0  0  0
  138.0467   78.0019  219.5259 H   0  0  0  0  0  0  0  0  0  0  0  0
  138.6001   79.3139  220.5920 H   0  0  0  0  0  0  0  0  0  0  0  0
  139.6950   78.4043  217.9240 H   0  0  0  0  0  0  0  0  0  0  0  0
  139.6385   80.0337  218.5696 H   0  0  0  0  0  0  0  0  0  0  0  0
  141.8403   78.2015  218.6946 H   0  0  0  0  0  0  0  0  0  0  0  0
  141.7344   79.7458  219.5695 H   0  0  0  0  0  0  0  0  0  0  0  0
  141.8024   77.2097  220.6597 H   0  0  0  0  0  0  0  0  0  0  0  0
  142.2042   78.0153  222.3356 H   0  0  0  0  0  0  0  0  0  0  0  0
  142.8816   80.0085  220.7805 H   0  0  0  0  0  0  0  0  0  0  0  0
  141.4685   80.8778  221.3953 H   0  0  0  0  0  0  0  0  0  0  0  0
  143.8837   79.8006  222.9298 H   0  0  0  0  0  0  0  0  0  0  0  0
  143.2175   81.4791  222.9030 H   0  0  0  0  0  0  0  0  0  0  0  0
  142.4780   79.3130  224.6090 H   0  0  0  0  0  0  0  0  0  0  0  0
  140.2418   79.9549  224.7932 H   0  0  0  0  0  0  0  0  0  0  0  0
  140.4634   81.1129  223.4335 H   0  0  0  0  0  0  0  0  0  0  0  0
  140.1270   78.1467  223.4171 H   0  0  0  0  0  0  0  0  0  0  0  0
  139.5272   79.4234  222.2722 H   0  0  0  0  0  0  0  0  0  0  0  0
  139.1178   70.0366  221.8255 H   0  0  0  0  0  0  0  0  0  0  0  0
  139.2159   68.4469  223.7285 H   0  0  0  0  0  0  0  0  0  0  0  0
  139.8006   67.9784  226.0728 H   0  0  0  0  0  0  0  0  0  0  0  0
  141.5081   71.0783  228.4924 H   0  0  0  0  0  0  0  0  0  0  0  0
  141.3800   72.5931  226.5667 H   0  0  0  0  0  0  0  0  0  0  0  0
  1  2  2  0
  2  3  1  0
  3  4  1  0
  4  5  1  0
  5  6  2  0
  5  7  1  0
  7  8  1  0
  8  9  1  0
  9 10  1  0
 10 11  1  0
 11 12  1  0
 12 13  1  0
 13 14  1  0
 14 15  1  0
 15 16  1  0
 16 17  1  0
  2 18  1  0
 18 19  2  0
 19 20  1  0
 20 21  2  0
 21 22  1  0
 22 23  2  0
 23 24  1  0
 23 25  1  0
 25 26  2  0
 26 27  1  0
 27 28  2  0
 11  7  1  0
 17 12  1  0
 28 18  1  0
 27 21  1  0
  3 29  1  0
  4 30  1  0
  4 31  1  0
  8 32  1  0
  8 33  1  0
  9 34  1  0
  9 35  1  0
 10 36  1  0
 10 37  1  0
 11 38  1  6
 12 39  1  0
 13 40  1  0
 13 41  1  0
 14 42  1  0
 14 43  1  0
 15 44  1  0
 16 45  1  0
 16 46  1  0
 17 47  1  0
 17 48  1  0
 19 49  1  0
 20 50  1  0
 22 51  1  0
 25 52  1  0
 26 53  1  0
M  END
>  <smiles>  (86) 
O=C(NCC(=O)N1CCCC1C1CCNCC1)c1ccc2cc(Cl)ccc2n1

>  <score_type>  (86) 
oracle

>  <origin>  (86) 
autodockgpu

>  <m_score__min__energy>  (86) 
-8.6300000000000008

>  <m_primary>  (86) 
energy

>  <rmsd>  (86) 
2.034553334285237

>  <m_score__min__rmsd>  (86) 
2.034553334285237

>  <meeko>  (86) 
{"free_energy": -7.99, "intermolecular_energy": -9.48, "internal_energy": -1.5, "cluster_size": 23, "cluster_id": 1, "rank_in_cluster": 12}

>  <energy>  (86) 
-8.4

>  <cluster_rmsd>  (86) 
0.27

>  <cluster>  (86) 
3

$$$$

     RDKit          3D

 53 56  0  0  0  0  0  0  0  0999 V2000
  139.8330   72.1950  220.7190 O   0  0  0  0  0  0  0  0  0  0  0  0
  139.7710   72.6090  221.9250 C   0  0  0  0  0  0  0  0  0  0  0  0
  139.6030   74.0180  222.1980 N   0  0  0  0  0  0  0  0  0  0  0  0
  139.5090   74.9930  221.1680 C   0  0  0  0  0  0  0  0  0  0  0  0
  139.9580   76.3600  221.4420 C   0  0  0  0  0  0  0  0  0  0  0  0
  140.0810   76.6260  222.7100 O   0  0  0  0  0  0  0  0  0  0  0  0
  140.2710   77.3980  220.5570 N   0  0  0  0  0  0  0  0  0  0  0  0
  139.6110   77.9410  219.3870 C   0  0  0  0  0  0  0  0  0  0  0  0
  140.6980   78.4000  218.4360 C   0  0  0  0  0  0  0  0  0  0  0  0
  141.8700   78.6810  219.3510 C   0  0  0  0  0  0  0  0  0  0  0  0
  141.4820   78.2220  220.6990 C   0  0  1  0  0  0  0  0  0  0  0  0
  141.3840   79.2650  221.7430 C   0  0  0  0  0  0  0  0  0  0  0  0
  142.6460   79.4060  222.6020 C   0  0  0  0  0  0  0  0  0  0  0  0
  142.2060   80.1240  223.8640 C   0  0  0  0  0  0  0  0  0  0  0  0
  141.3260   81.2010  223.5510 N   0  0  0  0  0  0  0  0  0  0  0  0
  141.4600   81.7210  222.2140 C   0  0  0  0  0  0  0  0  0  0  0  0
  141.1120   80.6560  221.2150 C   0  0  0  0  0  0  0  0  0  0  0  0
  139.8700   71.6480  223.0430 C   0  0  0  0  0  0  0  0  0  0  0  0
  139.4520   70.3530  222.8300 C   0  0  0  0  0  0  0  0  0  0  0  0
  139.5480   69.4630  223.8800 C   0  0  0  0  0  0  0  0  0  0  0  0
  140.0420   69.8370  225.1080 C   0  0  0  0  0  0  0  0  0  0  0  0
  140.1580   68.9880  226.1830 C   0  0  0  0  0  0  0  0  0  0  0  0
  140.6590   69.3920  227.4080 C   0  0  0  0  0  0  0  0  0  0  0  0
  140.7820   68.2700  228.7330 Cl  0  0  0  0  0  0  0  0  0  0  0  0
  141.0610   70.7040  227.5570 C   0  0  0  0  0  0  0  0  0  0  0  0
  140.9490   71.5530  226.4890 C   0  0  0  0  0  0  0  0  0  0  0  0
  140.4490   71.1590  225.2640 C   0  0  0  0  0  0  0  0  0  0  0  0
  140.3550   72.0290  224.2390 N   0  0  0  0  0  0  0  0  0  0  0  0
  139.5580   74.2430  223.2380 H   0  0  0  0  0  0  0  0  0  0  0  0
  140.1020   74.6230  220.3186 H   0  0  0  0  0  0  0  0  0  0  0  0
  138.4267   75.0987  221.0024 H   0  0  0  0  0  0  0  0  0  0  0  0
  138.9932   77.1667  218.9087 H   0  0  0  0  0  0  0  0  0  0  0  0
  138.9519   78.7777  219.6618 H   0  0  0  0  0  0  0  0  0  0  0  0
  140.9454   77.6108  217.7108 H   0  0  0  0  0  0  0  0  0  0  0  0
  140.4027   79.2736  217.8363 H   0  0  0  0  0  0  0  0  0  0  0  0
  142.7590   78.1326  219.0061 H   0  0  0  0  0  0  0  0  0  0  0  0
  142.1169   79.7529  219.3563 H   0  0  0  0  0  0  0  0  0  0  0  0
  142.3097   77.6190  221.1007 H   0  0  0  0  0  0  0  0  0  0  0  0
  140.5334   78.8977  222.3360 H   0  0  0  0  0  0  0  0  0  0  0  0
  143.0554   78.4150  222.8476 H   0  0  0  0  0  0  0  0  0  0  0  0
  143.4362   79.9602  222.0744 H   0  0  0  0  0  0  0  0  0  0  0  0
  141.6856   79.4121  224.5215 H   0  0  0  0  0  0  0  0  0  0  0  0
  143.0955   80.5296  224.3682 H   0  0  0  0  0  0  0  0  0  0  0  0
  140.3480   81.0680  223.8140 H   0  0  0  0  0  0  0  0  0  0  0  0
  140.7814   82.5772  222.0858 H   0  0  0  0  0  0  0  0  0  0  0  0
  142.4993   82.0433  222.0530 H   0  0  0  0  0  0  0  0  0  0  0  0
  140.0433   80.7381  220.9677 H   0  0  0  0  0  0  0  0  0  0  0  0
  141.7420   80.8085  220.3263 H   0  0  0  0  0  0  0  0  0  0  0  0
  139.0543   70.0383  221.8539 H   0  0  0  0  0  0  0  0  0  0  0  0
  139.2198   68.4238  223.7306 H   0  0  0  0  0  0  0  0  0  0  0  0
  139.8387   67.9421  226.0642 H   0  0  0  0  0  0  0  0  0  0  0  0
  141.4640   71.0608  228.5163 H   0  0  0  0  0  0  0  0  0  0  0  0
  141.2723   72.5971  226.6126 H   0  0  0  0  0  0  0  0  0  0  0  0
  1  2  2  0
  2  3  1  0
  3  4  1  0
  4  5  1  0
  5  6  2  0
  5  7  1  0
  7  8  1  0
  8  9  1  0
  9 10  1  0
 10 11  1  0
 11 12  1  0
 12 13  1  0
 13 14  1  0
 14 15  1  0
 15 16  1  0
 16 17  1  0
  2 18  1  0
 18 19  2  0
 19 20  1  0
 20 21  2  0
 21 22  1  0
 22 23  2  0
 23 24  1  0
 23 25  1  0
 25 26  2  0
 26 27  1  0
 27 28  2  0
 11  7  1  0
 17 12  1  0
 28 18  1  0
 27 21  1  0
  3 29  1  0
  4 30  1  0
  4 31  1  0
  8 32  1  0
  8 33  1  0
  9 34  1  0
  9 35  1  0
 10 36  1  0
 10 37  1  0
 11 38  1  1
 12 39  1  0
 13 40  1  0
 13 41  1  0
 14 42  1  0
 14 43  1  0
 15 44  1  0
 16 45  1  0
 16 46  1  0
 17 47  1  0
 17 48  1  0
 19 49  1  0
 20 50  1  0
 22 51  1  0
 25 52  1  0
 26 53  1  0
M  END
>  <smiles>  (87) 
O=C(NCC(=O)N1CCCC1C1CCNCC1)c1ccc2cc(Cl)ccc2n1

>  <score_type>  (87) 
oracle

>  <origin>  (87) 
autodockgpu

>  <m_score__min__energy>  (87) 
-8.6300000000000008

>  <m_primary>  (87) 
energy

>  <rmsd>  (87) 
1.8465649796193822

>  <m_score__min__rmsd>  (87) 
1.8465649796193822

>  <meeko>  (87) 
{"free_energy": -8.23, "intermolecular_energy": -9.73, "internal_energy": -1.57, "cluster_size": 23, "cluster_id": 1, "rank_in_cluster": 2}

>  <energy>  (87) 
-8.34

>  <cluster_rmsd>  (87) 
0.28

>  <cluster>  (87) 
3

$$$$

     RDKit          3D

 53 56  0  0  0  0  0  0  0  0999 V2000
  139.0790   72.7220  220.8750 O   0  0  0  0  0  0  0  0  0  0  0  0
  139.8850   72.8790  221.8530 C   0  0  0  0  0  0  0  0  0  0  0  0
  140.8190   73.9820  221.8500 N   0  0  0  0  0  0  0  0  0  0  0  0
  140.8930   74.9200  220.7840 C   0  0  0  0  0  0  0  0  0  0  0  0
  139.7800   75.8500  220.5800 C   0  0  0  0  0  0  0  0  0  0  0  0
  139.2830   75.8150  219.3760 O   0  0  0  0  0  0  0  0  0  0  0  0
  139.1830   76.7480  221.4720 N   0  0  0  0  0  0  0  0  0  0  0  0
  138.3990   76.5800  222.6780 C   0  0  0  0  0  0  0  0  0  0  0  0
  137.3990   77.7180  222.7220 C   0  0  0  0  0  0  0  0  0  0  0  0
  138.0670   78.8030  221.9050 C   0  0  0  0  0  0  0  0  0  0  0  0
  139.2770   78.2080  221.3080 C   0  0  1  0  0  0  0  0  0  0  0  0
  140.5710   78.7810  221.7390 C   0  0  0  0  0  0  0  0  0  0  0  0
  140.5240   80.2890  222.0130 C   0  0  0  0  0  0  0  0  0  0  0  0
  141.9630   80.7630  221.9560 C   0  0  0  0  0  0  0  0  0  0  0  0
  142.8220   79.8520  222.6380 N   0  0  0  0  0  0  0  0  0  0  0  0
  142.1730   79.0480  223.6420 C   0  0  0  0  0  0  0  0  0  0  0  0
  141.1360   78.1710  223.0030 C   0  0  0  0  0  0  0  0  0  0  0  0
  139.8640   71.9340  222.9880 C   0  0  0  0  0  0  0  0  0  0  0  0
  139.2150   70.7310  222.8240 C   0  0  0  0  0  0  0  0  0  0  0  0
  139.2010   69.8550  223.8900 C   0  0  0  0  0  0  0  0  0  0  0  0
  139.8080   70.1560  225.0870 C   0  0  0  0  0  0  0  0  0  0  0  0
  139.8210   69.3170  226.1760 C   0  0  0  0  0  0  0  0  0  0  0  0
  140.4410   69.6460  227.3700 C   0  0  0  0  0  0  0  0  0  0  0  0
  140.4230   68.5420  228.7150 Cl  0  0  0  0  0  0  0  0  0  0  0  0
  141.0740   70.8690  227.4700 C   0  0  0  0  0  0  0  0  0  0  0  0
  141.0640   71.7060  226.3880 C   0  0  0  0  0  0  0  0  0  0  0  0
  140.4480   71.3870  225.1950 C   0  0  0  0  0  0  0  0  0  0  0  0
  140.4620   72.2430  224.1540 N   0  0  0  0  0  0  0  0  0  0  0  0
  141.4340   74.0160  222.7180 H   0  0  0  0  0  0  0  0  0  0  0  0
  141.7947   75.5275  220.9508 H   0  0  0  0  0  0  0  0  0  0  0  0
  140.8838   74.2939  219.8796 H   0  0  0  0  0  0  0  0  0  0  0  0
  137.8715   75.6150  222.6537 H   0  0  0  0  0  0  0  0  0  0  0  0
  139.0441   76.5912  223.5689 H   0  0  0  0  0  0  0  0  0  0  0  0
  136.4416   77.4185  222.2708 H   0  0  0  0  0  0  0  0  0  0  0  0
  137.1576   78.0385  223.7462 H   0  0  0  0  0  0  0  0  0  0  0  0
  137.3877   79.1526  221.1136 H   0  0  0  0  0  0  0  0  0  0  0  0
  138.3237   79.6676  222.5348 H   0  0  0  0  0  0  0  0  0  0  0  0
  139.2898   78.4735  220.2406 H   0  0  0  0  0  0  0  0  0  0  0  0
  141.2084   78.5498  220.8728 H   0  0  0  0  0  0  0  0  0  0  0  0
  139.9218   80.7992  221.2468 H   0  0  0  0  0  0  0  0  0  0  0  0
  140.0628   80.5098  222.9869 H   0  0  0  0  0  0  0  0  0  0  0  0
  142.2772   80.8370  220.9044 H   0  0  0  0  0  0  0  0  0  0  0  0
  142.0308   81.7459  222.4451 H   0  0  0  0  0  0  0  0  0  0  0  0
  143.4440   79.2980  222.0470 H   0  0  0  0  0  0  0  0  0  0  0  0
  142.9219   78.4194  224.1460 H   0  0  0  0  0  0  0  0  0  0  0  0
  141.6868   79.7079  224.3756 H   0  0  0  0  0  0  0  0  0  0  0  0
  141.5953   77.2029  222.7544 H   0  0  0  0  0  0  0  0  0  0  0  0
  140.3091   78.0502  223.7182 H   0  0  0  0  0  0  0  0  0  0  0  0
  138.7233   70.4763  221.8735 H   0  0  0  0  0  0  0  0  0  0  0  0
  138.6894   68.8875  223.7793 H   0  0  0  0  0  0  0  0  0  0  0  0
  139.3173   68.3424  226.0956 H   0  0  0  0  0  0  0  0  0  0  0  0
  141.5770   71.1648  228.4024 H   0  0  0  0  0  0  0  0  0  0  0  0
  141.5706   72.6787  226.4728 H   0  0  0  0  0  0  0  0  0  0  0  0
  1  2  2  0
  2  3  1  0
  3  4  1  0
  4  5  1  0
  5  6  2  0
  5  7  1  0
  7  8  1  0
  8  9  1  0
  9 10  1  0
 10 11  1  0
 11 12  1  0
 12 13  1  0
 13 14  1  0
 14 15  1  0
 15 16  1  0
 16 17  1  0
  2 18  1  0
 18 19  2  0
 19 20  1  0
 20 21  2  0
 21 22  1  0
 22 23  2  0
 23 24  1  0
 23 25  1  0
 25 26  2  0
 26 27  1  0
 27 28  2  0
 11  7  1  0
 17 12  1  0
 28 18  1  0
 27 21  1  0
  3 29  1  0
  4 30  1  0
  4 31  1  0
  8 32  1  0
  8 33  1  0
  9 34  1  0
  9 35  1  0
 10 36  1  0
 10 37  1  0
 11 38  1  6
 12 39  1  0
 13 40  1  0
 13 41  1  0
 14 42  1  0
 14 43  1  0
 15 44  1  0
 16 45  1  0
 16 46  1  0
 17 47  1  0
 17 48  1  0
 19 49  1  0
 20 50  1  0
 22 51  1  0
 25 52  1  0
 26 53  1  0
M  END
>  <smiles>  (88) 
O=C(NCC(=O)N1CCCC1C1CCNCC1)c1ccc2cc(Cl)ccc2n1

>  <score_type>  (88) 
oracle

>  <origin>  (88) 
autodockgpu

>  <m_score__min__energy>  (88) 
-8.6300000000000008

>  <m_primary>  (88) 
energy

>  <rmsd>  (88) 
3.1080793509178393

>  <m_score__min__rmsd>  (88) 
3.1080793509178393

>  <meeko>  (88) 
{"free_energy": -7.76, "intermolecular_energy": -9.26, "internal_energy": -1.57, "cluster_size": 23, "cluster_id": 1, "rank_in_cluster": 23}

>  <energy>  (88) 
-8.25

>  <cluster_rmsd>  (88) 
0.6

>  <cluster>  (88) 
3

$$$$

     RDKit          3D

 53 56  0  0  0  0  0  0  0  0999 V2000
  139.0440   72.7820  220.6750 O   0  0  0  0  0  0  0  0  0  0  0  0
  139.8810   72.9080  221.6310 C   0  0  0  0  0  0  0  0  0  0  0  0
  140.8490   73.9810  221.6080 N   0  0  0  0  0  0  0  0  0  0  0  0
  140.9240   74.9230  220.5460 C   0  0  0  0  0  0  0  0  0  0  0  0
  139.8540   75.9120  220.4000 C   0  0  0  0  0  0  0  0  0  0  0  0
  139.3790   75.9950  219.1900 O   0  0  0  0  0  0  0  0  0  0  0  0
  139.2780   76.7610  221.3520 N   0  0  0  0  0  0  0  0  0  0  0  0
  138.5080   76.5280  222.5560 C   0  0  0  0  0  0  0  0  0  0  0  0
  137.5210   77.6710  222.6810 C   0  0  0  0  0  0  0  0  0  0  0  0
  138.1890   78.7970  221.9230 C   0  0  0  0  0  0  0  0  0  0  0  0
  139.3860   78.2270  221.2740 C   0  0  1  0  0  0  0  0  0  0  0  0
  140.6910   78.7610  221.7220 C   0  0  0  0  0  0  0  0  0  0  0  0
  140.7370   80.2900  221.8230 C   0  0  0  0  0  0  0  0  0  0  0  0
  142.2070   80.6590  221.8070 C   0  0  0  0  0  0  0  0  0  0  0  0
  142.9580   79.7790  222.6400 N   0  0  0  0  0  0  0  0  0  0  0  0
  142.1970   79.1400  223.6830 C   0  0  0  0  0  0  0  0  0  0  0  0
  141.1370   78.2650  223.0790 C   0  0  0  0  0  0  0  0  0  0  0  0
  139.8610   71.9570  222.7620 C   0  0  0  0  0  0  0  0  0  0  0  0
  139.2160   70.7530  222.5910 C   0  0  0  0  0  0  0  0  0  0  0  0
  139.2020   69.8720  223.6530 C   0  0  0  0  0  0  0  0  0  0  0  0
  139.8070   70.1680  224.8520 C   0  0  0  0  0  0  0  0  0  0  0  0
  139.8210   69.3240  225.9370 C   0  0  0  0  0  0  0  0  0  0  0  0
  140.4380   69.6490  227.1330 C   0  0  0  0  0  0  0  0  0  0  0  0
  140.4220   68.5390  228.4730 Cl  0  0  0  0  0  0  0  0  0  0  0  0
  141.0670   70.8730  227.2400 C   0  0  0  0  0  0  0  0  0  0  0  0
  141.0570   71.7160  226.1620 C   0  0  0  0  0  0  0  0  0  0  0  0
  140.4430   71.4010  224.9670 C   0  0  0  0  0  0  0  0  0  0  0  0
  140.4570   72.2620  223.9300 N   0  0  0  0  0  0  0  0  0  0  0  0
  141.4880   73.9900  222.4590 H   0  0  0  0  0  0  0  0  0  0  0  0
  141.8634   75.4805  220.6749 H   0  0  0  0  0  0  0  0  0  0  0  0
  140.8402   74.3065  219.6389 H   0  0  0  0  0  0  0  0  0  0  0  0
  137.9702   75.5714  222.4809 H   0  0  0  0  0  0  0  0  0  0  0  0
  139.1643   76.4789  223.4374 H   0  0  0  0  0  0  0  0  0  0  0  0
  136.5551   77.4084  222.2249 H   0  0  0  0  0  0  0  0  0  0  0  0
  137.2962   77.9313  223.7258 H   0  0  0  0  0  0  0  0  0  0  0  0
  137.5032   79.2007  221.1636 H   0  0  0  0  0  0  0  0  0  0  0  0
  138.4627   79.6193  222.6005 H   0  0  0  0  0  0  0  0  0  0  0  0
  139.3889   78.5554  220.2242 H   0  0  0  0  0  0  0  0  0  0  0  0
  141.3589   78.3912  220.9301 H   0  0  0  0  0  0  0  0  0  0  0  0
  140.2178   80.7465  220.9674 H   0  0  0  0  0  0  0  0  0  0  0  0
  140.2380   80.6515  222.7342 H   0  0  0  0  0  0  0  0  0  0  0  0
  142.5850   80.5904  220.7763 H   0  0  0  0  0  0  0  0  0  0  0  0
  142.3175   81.6852  222.1874 H   0  0  0  0  0  0  0  0  0  0  0  0
  143.5710   79.1210  222.1550 H   0  0  0  0  0  0  0  0  0  0  0  0
  142.8688   78.5258  224.3006 H   0  0  0  0  0  0  0  0  0  0  0  0
  141.7192   79.9100  224.3065 H   0  0  0  0  0  0  0  0  0  0  0  0
  141.5384   77.2467  222.9695 H   0  0  0  0  0  0  0  0  0  0  0  0
  140.2640   78.2817  223.7480 H   0  0  0  0  0  0  0  0  0  0  0  0
  138.7274   70.5012  221.6382 H   0  0  0  0  0  0  0  0  0  0  0  0
  138.6918   68.9044  223.5371 H   0  0  0  0  0  0  0  0  0  0  0  0
  139.3204   68.3483  225.8512 H   0  0  0  0  0  0  0  0  0  0  0  0
  141.5673   71.1656  228.1749 H   0  0  0  0  0  0  0  0  0  0  0  0
  141.5615   72.6893  226.2522 H   0  0  0  0  0  0  0  0  0  0  0  0
  1  2  2  0
  2  3  1  0
  3  4  1  0
  4  5  1  0
  5  6  2  0
  5  7  1  0
  7  8  1  0
  8  9  1  0
  9 10  1  0
 10 11  1  0
 11 12  1  0
 12 13  1  0
 13 14  1  0
 14 15  1  0
 15 16  1  0
 16 17  1  0
  2 18  1  0
 18 19  2  0
 19 20  1  0
 20 21  2  0
 21 22  1  0
 22 23  2  0
 23 24  1  0
 23 25  1  0
 25 26  2  0
 26 27  1  0
 27 28  2  0
 11  7  1  0
 17 12  1  0
 28 18  1  0
 27 21  1  0
  3 29  1  0
  4 30  1  0
  4 31  1  0
  8 32  1  0
  8 33  1  0
  9 34  1  0
  9 35  1  0
 10 36  1  0
 10 37  1  0
 11 38  1  6
 12 39  1  0
 13 40  1  0
 13 41  1  0
 14 42  1  0
 14 43  1  0
 15 44  1  0
 16 45  1  0
 16 46  1  0
 17 47  1  0
 17 48  1  0
 19 49  1  0
 20 50  1  0
 22 51  1  0
 25 52  1  0
 26 53  1  0
M  END
>  <smiles>  (89) 
O=C(NCC(=O)N1CCCC1C1CCNCC1)c1ccc2cc(Cl)ccc2n1

>  <score_type>  (89) 
oracle

>  <origin>  (89) 
autodockgpu

>  <m_score__min__energy>  (89) 
-8.6300000000000008

>  <m_primary>  (89) 
energy

>  <rmsd>  (89) 
3.0974775241220684

>  <m_score__min__rmsd>  (89) 
3.0974775241220684

>  <meeko>  (89) 
{"free_energy": -7.79, "intermolecular_energy": -9.28, "internal_energy": -1.57, "cluster_size": 23, "cluster_id": 1, "rank_in_cluster": 22}

>  <energy>  (89) 
-8.22

>  <cluster_rmsd>  (89) 
0.29

>  <cluster>  (89) 
3

$$$$

     RDKit          3D

 53 56  0  0  0  0  0  0  0  0999 V2000
  139.1550   73.1150  220.6120 O   0  0  0  0  0  0  0  0  0  0  0  0
  140.1150   72.9550  221.4370 C   0  0  0  0  0  0  0  0  0  0  0  0
  141.3550   73.6740  221.2520 N   0  0  0  0  0  0  0  0  0  0  0  0
  141.5680   74.5680  220.1680 C   0  0  0  0  0  0  0  0  0  0  0  0
  140.8800   75.8610  220.1700 C   0  0  0  0  0  0  0  0  0  0  0  0
  140.9980   76.5180  219.0520 O   0  0  0  0  0  0  0  0  0  0  0  0
  140.1270   76.4780  221.1760 N   0  0  0  0  0  0  0  0  0  0  0  0
  139.4490   75.9830  222.3560 C   0  0  0  0  0  0  0  0  0  0  0  0
  138.2180   76.8430  222.5560 C   0  0  0  0  0  0  0  0  0  0  0  0
  138.5870   78.1470  221.8820 C   0  0  0  0  0  0  0  0  0  0  0  0
  139.8790   77.9280  221.2030 C   0  0  1  0  0  0  0  0  0  0  0  0
  141.0220   78.7280  221.6940 C   0  0  0  0  0  0  0  0  0  0  0  0
  140.7880   80.2420  221.6480 C   0  0  0  0  0  0  0  0  0  0  0  0
  142.1660   80.8730  221.7090 C   0  0  0  0  0  0  0  0  0  0  0  0
  142.9790   80.2180  222.6790 N   0  0  0  0  0  0  0  0  0  0  0  0
  142.2490   79.5380  223.7180 C   0  0  0  0  0  0  0  0  0  0  0  0
  141.4210   78.4360  223.1240 C   0  0  0  0  0  0  0  0  0  0  0  0
  139.9610   72.0340  222.5820 C   0  0  0  0  0  0  0  0  0  0  0  0
  139.1170   70.9550  222.4430 C   0  0  0  0  0  0  0  0  0  0  0  0
  138.9800   70.1010  223.5180 C   0  0  0  0  0  0  0  0  0  0  0  0
  139.6540   70.3040  224.7000 C   0  0  0  0  0  0  0  0  0  0  0  0
  139.5500   69.4820  225.7970 C   0  0  0  0  0  0  0  0  0  0  0  0
  140.2410   69.7100  226.9740 C   0  0  0  0  0  0  0  0  0  0  0  0
  140.0680   68.6340  228.3310 Cl  0  0  0  0  0  0  0  0  0  0  0  0
  141.0710   70.8110  227.0490 C   0  0  0  0  0  0  0  0  0  0  0  0
  141.1780   71.6310  225.9600 C   0  0  0  0  0  0  0  0  0  0  0  0
  140.4930   71.4120  224.7820 C   0  0  0  0  0  0  0  0  0  0  0  0
  140.6270   72.2460  223.7320 N   0  0  0  0  0  0  0  0  0  0  0  0
  142.0790   73.4660  222.0050 H   0  0  0  0  0  0  0  0  0  0  0  0
  142.6473   74.7769  220.1294 H   0  0  0  0  0  0  0  0  0  0  0  0
  141.1389   74.0415  219.3028 H   0  0  0  0  0  0  0  0  0  0  0  0
  139.1560   74.9328  222.2102 H   0  0  0  0  0  0  0  0  0  0  0  0
  140.1078   76.0318  223.2355 H   0  0  0  0  0  0  0  0  0  0  0  0
  137.3382   76.3880  222.0776 H   0  0  0  0  0  0  0  0  0  0  0  0
  137.9495   76.9684  223.6153 H   0  0  0  0  0  0  0  0  0  0  0  0
  137.8162   78.4248  221.1480 H   0  0  0  0  0  0  0  0  0  0  0  0
  138.6614   78.9626  222.6164 H   0  0  0  0  0  0  0  0  0  0  0  0
  139.7917   78.3201  220.1790 H   0  0  0  0  0  0  0  0  0  0  0  0
  141.8151   78.4237  220.9952 H   0  0  0  0  0  0  0  0  0  0  0  0
  140.2786   80.5230  220.7144 H   0  0  0  0  0  0  0  0  0  0  0  0
  140.1501   80.5794  222.4782 H   0  0  0  0  0  0  0  0  0  0  0  0
  142.6446   80.7905  220.7220 H   0  0  0  0  0  0  0  0  0  0  0  0
  142.0580   81.9298  221.9945 H   0  0  0  0  0  0  0  0  0  0  0  0
  143.7410   79.6470  222.3090 H   0  0  0  0  0  0  0  0  0  0  0  0
  142.9582   79.1112  224.4425 H   0  0  0  0  0  0  0  0  0  0  0  0
  141.5867   80.2557  224.2241 H   0  0  0  0  0  0  0  0  0  0  0  0
  142.0043   77.5036  223.1457 H   0  0  0  0  0  0  0  0  0  0  0  0
  140.5007   78.3465  223.7198 H   0  0  0  0  0  0  0  0  0  0  0  0
  138.5696   70.7795  221.5051 H   0  0  0  0  0  0  0  0  0  0  0  0
  138.3119   69.2319  223.4272 H   0  0  0  0  0  0  0  0  0  0  0  0
  138.8888   68.6050  225.7365 H   0  0  0  0  0  0  0  0  0  0  0  0
  141.6360   71.0246  227.9683 H   0  0  0  0  0  0  0  0  0  0  0  0
  141.8411   72.5062  226.0259 H   0  0  0  0  0  0  0  0  0  0  0  0
  1  2  2  0
  2  3  1  0
  3  4  1  0
  4  5  1  0
  5  6  2  0
  5  7  1  0
  7  8  1  0
  8  9  1  0
  9 10  1  0
 10 11  1  0
 11 12  1  0
 12 13  1  0
 13 14  1  0
 14 15  1  0
 15 16  1  0
 16 17  1  0
  2 18  1  0
 18 19  2  0
 19 20  1  0
 20 21  2  0
 21 22  1  0
 22 23  2  0
 23 24  1  0
 23 25  1  0
 25 26  2  0
 26 27  1  0
 27 28  2  0
 11  7  1  0
 17 12  1  0
 28 18  1  0
 27 21  1  0
  3 29  1  0
  4 30  1  0
  4 31  1  0
  8 32  1  0
  8 33  1  0
  9 34  1  0
  9 35  1  0
 10 36  1  0
 10 37  1  0
 11 38  1  6
 12 39  1  0
 13 40  1  0
 13 41  1  0
 14 42  1  0
 14 43  1  0
 15 44  1  0
 16 45  1  0
 16 46  1  0
 17 47  1  0
 17 48  1  0
 19 49  1  0
 20 50  1  0
 22 51  1  0
 25 52  1  0
 26 53  1  0
M  END
>  <smiles>  (90) 
O=C(NCC(=O)N1CCCC1C1CCNCC1)c1ccc2cc(Cl)ccc2n1

>  <score_type>  (90) 
oracle

>  <origin>  (90) 
autodockgpu

>  <m_score__min__energy>  (90) 
-8.6300000000000008

>  <m_primary>  (90) 
energy

>  <rmsd>  (90) 
3.0484253614814487

>  <m_score__min__rmsd>  (90) 
3.0484253614814487

>  <meeko>  (90) 
{"free_energy": -7.9, "intermolecular_energy": -9.39, "internal_energy": -1.59, "cluster_size": 23, "cluster_id": 1, "rank_in_cluster": 16}

>  <energy>  (90) 
-6.64

>  <cluster_rmsd>  (90) 
0.0

>  <cluster>  (90) 
4

$$$$

     RDKit          3D

 53 56  0  0  0  0  0  0  0  0999 V2000
  142.0000   81.0380  220.4290 O   0  0  0  0  0  0  0  0  0  0  0  0
  141.2810   80.1690  219.8320 C   0  0  0  0  0  0  0  0  0  0  0  0
  139.9370   80.5020  219.4180 N   0  0  0  0  0  0  0  0  0  0  0  0
  139.3570   81.7790  219.6530 C   0  0  0  0  0  0  0  0  0  0  0  0
  138.4530   81.9470  220.7930 C   0  0  0  0  0  0  0  0  0  0  0  0
  137.6810   82.9910  220.7000 O   0  0  0  0  0  0  0  0  0  0  0  0
  138.2980   81.1620  221.9420 N   0  0  0  0  0  0  0  0  0  0  0  0
  137.3470   80.1420  222.3300 C   0  0  0  0  0  0  0  0  0  0  0  0
  137.1530   80.2600  223.8280 C   0  0  0  0  0  0  0  0  0  0  0  0
  138.4430   80.8920  224.3010 C   0  0  0  0  0  0  0  0  0  0  0  0
  139.2100   81.2570  223.0940 C   0  0  1  0  0  0  0  0  0  0  0  0
  140.5010   80.5590  222.9010 C   0  0  0  0  0  0  0  0  0  0  0  0
  141.6250   81.0660  223.8120 C   0  0  0  0  0  0  0  0  0  0  0  0
  142.9170   80.6130  223.1610 C   0  0  0  0  0  0  0  0  0  0  0  0
  142.8060   79.2680  222.7010 N   0  0  0  0  0  0  0  0  0  0  0  0
  141.8080   78.4800  223.3770 C   0  0  0  0  0  0  0  0  0  0  0  0
  140.4470   79.0660  223.1400 C   0  0  0  0  0  0  0  0  0  0  0  0
  141.8220   78.8200  219.5640 C   0  0  0  0  0  0  0  0  0  0  0  0
  142.5800   78.6350  218.4290 C   0  0  0  0  0  0  0  0  0  0  0  0
  143.0800   77.3710  218.1880 C   0  0  0  0  0  0  0  0  0  0  0  0
  142.8400   76.3180  219.0390 C   0  0  0  0  0  0  0  0  0  0  0  0
  143.3170   75.0440  218.8410 C   0  0  0  0  0  0  0  0  0  0  0  0
  143.0600   74.0020  219.7160 C   0  0  0  0  0  0  0  0  0  0  0  0
  143.6910   72.4090  219.4120 Cl  0  0  0  0  0  0  0  0  0  0  0  0
  142.2920   74.2540  220.8350 C   0  0  0  0  0  0  0  0  0  0  0  0
  141.8160   75.5210  221.0370 C   0  0  0  0  0  0  0  0  0  0  0  0
  142.0670   76.5660  220.1700 C   0  0  0  0  0  0  0  0  0  0  0  0
  141.5780   77.7990  220.4060 N   0  0  0  0  0  0  0  0  0  0  0  0
  139.4370   79.7020  218.9250 H   0  0  0  0  0  0  0  0  0  0  0  0
  140.1855   82.4894  219.7906 H   0  0  0  0  0  0  0  0  0  0  0  0
  138.7118   81.9421  218.7771 H   0  0  0  0  0  0  0  0  0  0  0  0
  136.3899   80.3019  221.8119 H   0  0  0  0  0  0  0  0  0  0  0  0
  137.7150   79.1410  222.0607 H   0  0  0  0  0  0  0  0  0  0  0  0
  136.2911   80.9015  224.0637 H   0  0  0  0  0  0  0  0  0  0  0  0
  136.9463   79.2937  224.3112 H   0  0  0  0  0  0  0  0  0  0  0  0
  138.2273   81.7903  224.8980 H   0  0  0  0  0  0  0  0  0  0  0  0
  139.0131   80.1961  224.9340 H   0  0  0  0  0  0  0  0  0  0  0  0
  139.5625   82.2914  223.2194 H   0  0  0  0  0  0  0  0  0  0  0  0
  140.7102   80.7800  221.8439 H   0  0  0  0  0  0  0  0  0  0  0  0
  141.5955   82.1633  223.8830 H   0  0  0  0  0  0  0  0  0  0  0  0
  141.5266   80.6735  224.8349 H   0  0  0  0  0  0  0  0  0  0  0  0
  143.1403   81.2693  222.3069 H   0  0  0  0  0  0  0  0  0  0  0  0
  143.7252   80.6662  223.9053 H   0  0  0  0  0  0  0  0  0  0  0  0
  142.7690   79.1460  221.6870 H   0  0  0  0  0  0  0  0  0  0  0  0
  141.8338   77.4501  222.9914 H   0  0  0  0  0  0  0  0  0  0  0  0
  142.0183   78.4784  224.4567 H   0  0  0  0  0  0  0  0  0  0  0  0
  140.0016   78.5820  222.2583 H   0  0  0  0  0  0  0  0  0  0  0  0
  139.8421   78.8901  224.0417 H   0  0  0  0  0  0  0  0  0  0  0  0
  142.7803   79.4667  217.7376 H   0  0  0  0  0  0  0  0  0  0  0  0
  143.6889   77.2011  217.2878 H   0  0  0  0  0  0  0  0  0  0  0  0
  143.9291   74.8437  217.9492 H   0  0  0  0  0  0  0  0  0  0  0  0
  142.0666   73.4505  221.5517 H   0  0  0  0  0  0  0  0  0  0  0  0
  141.2054   75.7159  221.9310 H   0  0  0  0  0  0  0  0  0  0  0  0
  1  2  2  0
  2  3  1  0
  3  4  1  0
  4  5  1  0
  5  6  2  0
  5  7  1  0
  7  8  1  0
  8  9  1  0
  9 10  1  0
 10 11  1  0
 11 12  1  0
 12 13  1  0
 13 14  1  0
 14 15  1  0
 15 16  1  0
 16 17  1  0
  2 18  1  0
 18 19  2  0
 19 20  1  0
 20 21  2  0
 21 22  1  0
 22 23  2  0
 23 24  1  0
 23 25  1  0
 25 26  2  0
 26 27  1  0
 27 28  2  0
 11  7  1  0
 17 12  1  0
 28 18  1  0
 27 21  1  0
  3 29  1  0
  4 30  1  0
  4 31  1  0
  8 32  1  0
  8 33  1  0
  9 34  1  0
  9 35  1  0
 10 36  1  0
 10 37  1  0
 11 38  1  1
 12 39  1  0
 13 40  1  0
 13 41  1  0
 14 42  1  0
 14 43  1  0
 15 44  1  0
 16 45  1  0
 16 46  1  0
 17 47  1  0
 17 48  1  0
 19 49  1  0
 20 50  1  0
 22 51  1  0
 25 52  1  0
 26 53  1  0
M  END
>  <smiles>  (91) 
O=C(NCC(=O)N1CCCC1C1CCNCC1)c1ccc2cc(Cl)ccc2n1

>  <score_type>  (91) 
oracle

>  <origin>  (91) 
autodockgpu

>  <m_score__min__energy>  (91) 
-8.6300000000000008

>  <m_primary>  (91) 
energy

>  <rmsd>  (91) 
8.756374592846274

>  <m_score__min__rmsd>  (91) 
8.756374592846274

>  <meeko>  (91) 
{"free_energy": -6.12, "intermolecular_energy": -7.61, "internal_energy": -3.13, "cluster_size": 6, "cluster_id": 5, "rank_in_cluster": 4}

>  <energy>  (91) 
-6.64

>  <cluster_rmsd>  (91) 
0.04

>  <cluster>  (91) 
4

$$$$

     RDKit          3D

 53 56  0  0  0  0  0  0  0  0999 V2000
  139.6840   73.9630  222.3350 O   0  0  0  0  0  0  0  0  0  0  0  0
  139.7450   72.7200  222.0530 C   0  0  0  0  0  0  0  0  0  0  0  0
  139.7170   72.2890  220.6740 N   0  0  0  0  0  0  0  0  0  0  0  0
  139.6150   73.2000  219.5880 C   0  0  0  0  0  0  0  0  0  0  0  0
  140.8350   73.8200  219.0670 C   0  0  0  0  0  0  0  0  0  0  0  0
  141.3040   73.2390  218.0000 O   0  0  0  0  0  0  0  0  0  0  0  0
  141.5540   74.9260  219.5370 N   0  0  0  0  0  0  0  0  0  0  0  0
  141.4320   75.7650  220.7110 C   0  0  0  0  0  0  0  0  0  0  0  0
  141.8560   77.1620  220.3060 C   0  0  0  0  0  0  0  0  0  0  0  0
  142.7820   76.9220  219.1340 C   0  0  0  0  0  0  0  0  0  0  0  0
  142.7120   75.4820  218.8190 C   0  0  1  0  0  0  0  0  0  0  0  0
  143.9610   74.7090  218.9980 C   0  0  0  0  0  0  0  0  0  0  0  0
  144.0490   73.9700  220.3370 C   0  0  0  0  0  0  0  0  0  0  0  0
  145.5200   73.6650  220.5430 C   0  0  0  0  0  0  0  0  0  0  0  0
  146.1140   73.2020  219.3330 N   0  0  0  0  0  0  0  0  0  0  0  0
  145.1920   72.6170  218.3930 C   0  0  0  0  0  0  0  0  0  0  0  0
  144.1950   73.6470  217.9470 C   0  0  0  0  0  0  0  0  0  0  0  0
  139.8440   71.7200  223.1370 C   0  0  0  0  0  0  0  0  0  0  0  0
  139.4140   70.4370  222.8820 C   0  0  0  0  0  0  0  0  0  0  0  0
  139.5110   69.5100  223.9000 C   0  0  0  0  0  0  0  0  0  0  0  0
  140.0170   69.8370  225.1360 C   0  0  0  0  0  0  0  0  0  0  0  0
  140.1340   68.9510  226.1800 C   0  0  0  0  0  0  0  0  0  0  0  0
  140.6490   69.3070  227.4150 C   0  0  0  0  0  0  0  0  0  0  0  0
  140.7720   68.1400  228.6990 Cl  0  0  0  0  0  0  0  0  0  0  0  0
  141.0630   70.6110  227.6050 C   0  0  0  0  0  0  0  0  0  0  0  0
  140.9490   71.4970  226.5690 C   0  0  0  0  0  0  0  0  0  0  0  0
  140.4370   71.1500  225.3350 C   0  0  0  0  0  0  0  0  0  0  0  0
  140.3420   72.0550  224.3410 N   0  0  0  0  0  0  0  0  0  0  0  0
  139.7800   71.2320  220.5620 H   0  0  0  0  0  0  0  0  0  0  0  0
  139.1475   72.6565  218.7537 H   0  0  0  0  0  0  0  0  0  0  0  0
  139.0455   74.0445  220.0034 H   0  0  0  0  0  0  0  0  0  0  0  0
  140.3895   75.7739  221.0618 H   0  0  0  0  0  0  0  0  0  0  0  0
  142.0616   75.3866  221.5298 H   0  0  0  0  0  0  0  0  0  0  0  0
  140.9870   77.7649  220.0039 H   0  0  0  0  0  0  0  0  0  0  0  0
  142.3351   77.7194  221.1244 H   0  0  0  0  0  0  0  0  0  0  0  0
  142.4559   77.5150  218.2668 H   0  0  0  0  0  0  0  0  0  0  0  0
  143.8118   77.2215  219.3786 H   0  0  0  0  0  0  0  0  0  0  0  0
  142.5738   75.3821  217.7323 H   0  0  0  0  0  0  0  0  0  0  0  0
  144.7189   75.5032  218.9283 H   0  0  0  0  0  0  0  0  0  0  0  0
  143.6717   74.6060  221.1513 H   0  0  0  0  0  0  0  0  0  0  0  0
  143.4413   73.0531  220.3348 H   0  0  0  0  0  0  0  0  0  0  0  0
  146.0356   74.5795  220.8712 H   0  0  0  0  0  0  0  0  0  0  0  0
  145.6140   72.8783  221.3061 H   0  0  0  0  0  0  0  0  0  0  0  0
  146.7640   73.8480  218.8800 H   0  0  0  0  0  0  0  0  0  0  0  0
  145.7481   72.2454  217.5197 H   0  0  0  0  0  0  0  0  0  0  0  0
  144.6607   71.7844  218.8771 H   0  0  0  0  0  0  0  0  0  0  0  0
  144.5699   74.1302  217.0327 H   0  0  0  0  0  0  0  0  0  0  0  0
  143.2385   73.1347  217.7661 H   0  0  0  0  0  0  0  0  0  0  0  0
  139.0063   70.1598  221.8987 H   0  0  0  0  0  0  0  0  0  0  0  0
  139.1735   68.4791  223.7171 H   0  0  0  0  0  0  0  0  0  0  0  0
  139.8038   67.9128  226.0277 H   0  0  0  0  0  0  0  0  0  0  0  0
  141.4771   70.9314  228.5724 H   0  0  0  0  0  0  0  0  0  0  0  0
  141.2807   72.5339  226.7266 H   0  0  0  0  0  0  0  0  0  0  0  0
  1  2  2  0
  2  3  1  0
  3  4  1  0
  4  5  1  0
  5  6  2  0
  5  7  1  0
  7  8  1  0
  8  9  1  0
  9 10  1  0
 10 11  1  0
 11 12  1  0
 12 13  1  0
 13 14  1  0
 14 15  1  0
 15 16  1  0
 16 17  1  0
  2 18  1  0
 18 19  2  0
 19 20  1  0
 20 21  2  0
 21 22  1  0
 22 23  2  0
 23 24  1  0
 23 25  1  0
 25 26  2  0
 26 27  1  0
 27 28  2  0
 11  7  1  0
 17 12  1  0
 28 18  1  0
 27 21  1  0
  3 29  1  0
  4 30  1  0
  4 31  1  0
  8 32  1  0
  8 33  1  0
  9 34  1  0
  9 35  1  0
 10 36  1  0
 10 37  1  0
 11 38  1  6
 12 39  1  0
 13 40  1  0
 13 41  1  0
 14 42  1  0
 14 43  1  0
 15 44  1  0
 16 45  1  0
 16 46  1  0
 17 47  1  0
 17 48  1  0
 19 49  1  0
 20 50  1  0
 22 51  1  0
 25 52  1  0
 26 53  1  0
M  END
>  <smiles>  (92) 
O=C(NCC(=O)N1CCCC1C1CCNCC1)c1ccc2cc(Cl)ccc2n1

>  <score_type>  (92) 
oracle

>  <origin>  (92) 
autodockgpu

>  <m_score__min__energy>  (92) 
-8.6300000000000008

>  <m_primary>  (92) 
energy

>  <rmsd>  (92) 
2.3877834829497635

>  <m_score__min__rmsd>  (92) 
2.3877834829497635

>  <meeko>  (92) 
{"free_energy": -8.49, "intermolecular_energy": -9.98, "internal_energy": -1.32, "cluster_size": 9, "cluster_id": 2, "rank_in_cluster": 2}

>  <energy>  (92) 
-6.64

>  <cluster_rmsd>  (92) 
0.02

>  <cluster>  (92) 
4

$$$$

     RDKit          3D

 53 56  0  0  0  0  0  0  0  0999 V2000
  138.7240   73.0370  221.9610 O   0  0  0  0  0  0  0  0  0  0  0  0
  139.8070   72.4020  222.1920 C   0  0  0  0  0  0  0  0  0  0  0  0
  140.9600   72.6070  221.3440 N   0  0  0  0  0  0  0  0  0  0  0  0
  140.9480   73.4960  220.2360 C   0  0  0  0  0  0  0  0  0  0  0  0
  141.0970   74.9330  220.4780 C   0  0  0  0  0  0  0  0  0  0  0  0
  140.3520   75.3810  221.4480 O   0  0  0  0  0  0  0  0  0  0  0  0
  141.9090   75.8740  219.8340 N   0  0  0  0  0  0  0  0  0  0  0  0
  142.2250   77.2620  220.0990 C   0  0  0  0  0  0  0  0  0  0  0  0
  142.4200   77.9380  218.7560 C   0  0  0  0  0  0  0  0  0  0  0  0
  142.8290   76.8000  217.8460 C   0  0  0  0  0  0  0  0  0  0  0  0
  142.6840   75.5550  218.6240 C   0  0  1  0  0  0  0  0  0  0  0  0
  143.9270   74.7960  218.8850 C   0  0  0  0  0  0  0  0  0  0  0  0
  144.1000   74.3700  220.3470 C   0  0  0  0  0  0  0  0  0  0  0  0
  145.5760   74.0650  220.5150 C   0  0  0  0  0  0  0  0  0  0  0  0
  146.0680   73.3230  219.4020 N   0  0  0  0  0  0  0  0  0  0  0  0
  145.0660   72.5790  218.6820 C   0  0  0  0  0  0  0  0  0  0  0  0
  144.0600   73.5190  218.0860 C   0  0  0  0  0  0  0  0  0  0  0  0
  139.8840   71.4570  223.3250 C   0  0  0  0  0  0  0  0  0  0  0  0
  139.4210   70.1730  223.1370 C   0  0  0  0  0  0  0  0  0  0  0  0
  139.4970   69.2980  224.2010 C   0  0  0  0  0  0  0  0  0  0  0  0
  140.0140   69.6760  225.4180 C   0  0  0  0  0  0  0  0  0  0  0  0
  140.1110   68.8410  226.5060 C   0  0  0  0  0  0  0  0  0  0  0  0
  140.6360   69.2480  227.7210 C   0  0  0  0  0  0  0  0  0  0  0  0
  140.7320   68.1450  229.0630 Cl  0  0  0  0  0  0  0  0  0  0  0  0
  141.0830   70.5480  227.8440 C   0  0  0  0  0  0  0  0  0  0  0  0
  140.9890   71.3830  226.7630 C   0  0  0  0  0  0  0  0  0  0  0  0
  140.4660   70.9860  225.5490 C   0  0  0  0  0  0  0  0  0  0  0  0
  140.3920   71.8410  224.5100 N   0  0  0  0  0  0  0  0  0  0  0  0
  141.8060   72.0300  221.6370 H   0  0  0  0  0  0  0  0  0  0  0  0
  141.7706   73.1939  219.5712 H   0  0  0  0  0  0  0  0  0  0  0  0
  139.9295   73.4004  219.8315 H   0  0  0  0  0  0  0  0  0  0  0  0
  141.3985   77.7396  220.6456 H   0  0  0  0  0  0  0  0  0  0  0  0
  143.1319   77.3466  220.7157 H   0  0  0  0  0  0  0  0  0  0  0  0
  141.4848   78.4022  218.4096 H   0  0  0  0  0  0  0  0  0  0  0  0
  143.1615   78.7499  218.7878 H   0  0  0  0  0  0  0  0  0  0  0  0
  142.1769   76.7707  216.9606 H   0  0  0  0  0  0  0  0  0  0  0  0
  143.8644   76.9277  217.4973 H   0  0  0  0  0  0  0  0  0  0  0  0
  142.1392   74.8305  218.0008 H   0  0  0  0  0  0  0  0  0  0  0  0
  144.6933   75.5265  218.5863 H   0  0  0  0  0  0  0  0  0  0  0  0
  143.7976   75.1843  221.0219 H   0  0  0  0  0  0  0  0  0  0  0  0
  143.4754   73.4983  220.5920 H   0  0  0  0  0  0  0  0  0  0  0  0
  146.1332   75.0102  220.5933 H   0  0  0  0  0  0  0  0  0  0  0  0
  145.7111   73.4650  221.4270 H   0  0  0  0  0  0  0  0  0  0  0  0
  146.6950   73.8280  218.7730 H   0  0  0  0  0  0  0  0  0  0  0  0
  145.5474   72.0028  217.8781 H   0  0  0  0  0  0  0  0  0  0  0  0
  144.5552   71.8953  219.3760 H   0  0  0  0  0  0  0  0  0  0  0  0
  144.3749   73.7725  217.0630 H   0  0  0  0  0  0  0  0  0  0  0  0
  143.0825   73.0145  218.0909 H   0  0  0  0  0  0  0  0  0  0  0  0
  139.0042   69.8557  222.1697 H   0  0  0  0  0  0  0  0  0  0  0  0
  139.1334   68.2679  224.0721 H   0  0  0  0  0  0  0  0  0  0  0  0
  139.7561   67.8045  226.4070 H   0  0  0  0  0  0  0  0  0  0  0  0
  141.5071   70.9068  228.7934 H   0  0  0  0  0  0  0  0  0  0  0  0
  141.3468   72.4180  226.8669 H   0  0  0  0  0  0  0  0  0  0  0  0
  1  2  2  0
  2  3  1  0
  3  4  1  0
  4  5  1  0
  5  6  2  0
  5  7  1  0
  7  8  1  0
  8  9  1  0
  9 10  1  0
 10 11  1  0
 11 12  1  0
 12 13  1  0
 13 14  1  0
 14 15  1  0
 15 16  1  0
 16 17  1  0
  2 18  1  0
 18 19  2  0
 19 20  1  0
 20 21  2  0
 21 22  1  0
 22 23  2  0
 23 24  1  0
 23 25  1  0
 25 26  2  0
 26 27  1  0
 27 28  2  0
 11  7  1  0
 17 12  1  0
 28 18  1  0
 27 21  1  0
  3 29  1  0
  4 30  1  0
  4 31  1  0
  8 32  1  0
  8 33  1  0
  9 34  1  0
  9 35  1  0
 10 36  1  0
 10 37  1  0
 11 38  1  6
 12 39  1  0
 13 40  1  0
 13 41  1  0
 14 42  1  0
 14 43  1  0
 15 44  1  0
 16 45  1  0
 16 46  1  0
 17 47  1  0
 17 48  1  0
 19 49  1  0
 20 50  1  0
 22 51  1  0
 25 52  1  0
 26 53  1  0
M  END
>  <smiles>  (93) 
O=C(NCC(=O)N1CCCC1C1CCNCC1)c1ccc2cc(Cl)ccc2n1

>  <score_type>  (93) 
oracle

>  <origin>  (93) 
autodockgpu

>  <m_score__min__energy>  (93) 
-8.6300000000000008

>  <m_primary>  (93) 
energy

>  <rmsd>  (93) 
2.449701845428876

>  <m_score__min__rmsd>  (93) 
2.449701845428876

>  <meeko>  (93) 
{"free_energy": -8.19, "intermolecular_energy": -9.68, "internal_energy": -1.14, "cluster_size": 9, "cluster_id": 2, "rank_in_cluster": 4}

>  <energy>  (93) 
-6.6

>  <cluster_rmsd>  (93) 
0.09

>  <cluster>  (93) 
4

$$$$

     RDKit          3D

 53 56  0  0  0  0  0  0  0  0999 V2000
  141.7300   81.1690  220.3030 O   0  0  0  0  0  0  0  0  0  0  0  0
  141.0880   80.2340  219.7160 C   0  0  0  0  0  0  0  0  0  0  0  0
  139.7310   80.4570  219.2710 N   0  0  0  0  0  0  0  0  0  0  0  0
  139.0540   81.6920  219.4640 C   0  0  0  0  0  0  0  0  0  0  0  0
  138.6270   82.0620  220.8150 C   0  0  0  0  0  0  0  0  0  0  0  0
  138.4160   83.3380  220.9660 O   0  0  0  0  0  0  0  0  0  0  0  0
  138.4130   81.2600  221.9420 N   0  0  0  0  0  0  0  0  0  0  0  0
  137.4060   80.2780  222.2880 C   0  0  0  0  0  0  0  0  0  0  0  0
  137.1900   80.3720  223.7850 C   0  0  0  0  0  0  0  0  0  0  0  0
  138.5000   80.9290  224.2960 C   0  0  0  0  0  0  0  0  0  0  0  0
  139.3070   81.2840  223.1120 C   0  0  1  0  0  0  0  0  0  0  0  0
  140.5650   80.5290  222.9260 C   0  0  0  0  0  0  0  0  0  0  0  0
  141.7280   81.0340  223.7880 C   0  0  0  0  0  0  0  0  0  0  0  0
  142.9870   80.5020  223.1330 C   0  0  0  0  0  0  0  0  0  0  0  0
  142.8160   79.1430  222.7380 N   0  0  0  0  0  0  0  0  0  0  0  0
  141.8040   78.4250  223.4710 C   0  0  0  0  0  0  0  0  0  0  0  0
  140.4610   79.0520  223.2360 C   0  0  0  0  0  0  0  0  0  0  0  0
  141.7320   78.9240  219.4910 C   0  0  0  0  0  0  0  0  0  0  0  0
  142.5720   78.7860  218.4090 C   0  0  0  0  0  0  0  0  0  0  0  0
  143.1690   77.5580  218.2080 C   0  0  0  0  0  0  0  0  0  0  0  0
  142.9440   76.4930  219.0480 C   0  0  0  0  0  0  0  0  0  0  0  0
  143.5140   75.2530  218.8900 C   0  0  0  0  0  0  0  0  0  0  0  0
  143.2700   74.1980  219.7520 C   0  0  0  0  0  0  0  0  0  0  0  0
  144.0220   72.6490  219.4990 Cl  0  0  0  0  0  0  0  0  0  0  0  0
  142.4170   74.4010  220.8190 C   0  0  0  0  0  0  0  0  0  0  0  0
  141.8470   75.6350  220.9810 C   0  0  0  0  0  0  0  0  0  0  0  0
  142.0850   76.6910  220.1260 C   0  0  0  0  0  0  0  0  0  0  0  0
  141.5020   77.8910  220.3230 N   0  0  0  0  0  0  0  0  0  0  0  0
  139.3010   79.6100  218.7900 H   0  0  0  0  0  0  0  0  0  0  0  0
  139.7259   82.4873  219.1088 H   0  0  0  0  0  0  0  0  0  0  0  0
  138.1101   81.5652  218.9136 H   0  0  0  0  0  0  0  0  0  0  0  0
  136.4678   80.4959  221.7567 H   0  0  0  0  0  0  0  0  0  0  0  0
  137.7297   79.2666  222.0012 H   0  0  0  0  0  0  0  0  0  0  0  0
  136.3561   81.0497  224.0202 H   0  0  0  0  0  0  0  0  0  0  0  0
  136.9276   79.4063  224.2417 H   0  0  0  0  0  0  0  0  0  0  0  0
  138.3168   81.8228  224.9105 H   0  0  0  0  0  0  0  0  0  0  0  0
  139.0235   80.1915  224.9221 H   0  0  0  0  0  0  0  0  0  0  0  0
  139.7071   82.2967  223.2680 H   0  0  0  0  0  0  0  0  0  0  0  0
  140.7578   80.6926  221.8555 H   0  0  0  0  0  0  0  0  0  0  0  0
  141.7414   82.1337  223.8074 H   0  0  0  0  0  0  0  0  0  0  0  0
  141.6381   80.6933  224.8300 H   0  0  0  0  0  0  0  0  0  0  0  0
  143.2161   81.1096  222.2451 H   0  0  0  0  0  0  0  0  0  0  0  0
  143.8124   80.5575  223.8580 H   0  0  0  0  0  0  0  0  0  0  0  0
  142.7510   78.9750  221.7320 H   0  0  0  0  0  0  0  0  0  0  0  0
  141.7821   77.3785  223.1327 H   0  0  0  0  0  0  0  0  0  0  0  0
  142.0387   78.4640  224.5449 H   0  0  0  0  0  0  0  0  0  0  0  0
  139.9773   78.5454  222.3878 H   0  0  0  0  0  0  0  0  0  0  0  0
  139.8714   78.9417  224.1580 H   0  0  0  0  0  0  0  0  0  0  0  0
  142.7613   79.6276  217.7265 H   0  0  0  0  0  0  0  0  0  0  0  0
  143.8450   77.4274  217.3501 H   0  0  0  0  0  0  0  0  0  0  0  0
  144.1944   75.0915  218.0409 H   0  0  0  0  0  0  0  0  0  0  0  0
  142.1997   73.5863  221.5255 H   0  0  0  0  0  0  0  0  0  0  0  0
  141.1680   75.7917  221.8321 H   0  0  0  0  0  0  0  0  0  0  0  0
  1  2  2  0
  2  3  1  0
  3  4  1  0
  4  5  1  0
  5  6  2  0
  5  7  1  0
  7  8  1  0
  8  9  1  0
  9 10  1  0
 10 11  1  0
 11 12  1  0
 12 13  1  0
 13 14  1  0
 14 15  1  0
 15 16  1  0
 16 17  1  0
  2 18  1  0
 18 19  2  0
 19 20  1  0
 20 21  2  0
 21 22  1  0
 22 23  2  0
 23 24  1  0
 23 25  1  0
 25 26  2  0
 26 27  1  0
 27 28  2  0
 11  7  1  0
 17 12  1  0
 28 18  1  0
 27 21  1  0
  3 29  1  0
  4 30  1  0
  4 31  1  0
  8 32  1  0
  8 33  1  0
  9 34  1  0
  9 35  1  0
 10 36  1  0
 10 37  1  0
 11 38  1  1
 12 39  1  0
 13 40  1  0
 13 41  1  0
 14 42  1  0
 14 43  1  0
 15 44  1  0
 16 45  1  0
 16 46  1  0
 17 47  1  0
 17 48  1  0
 19 49  1  0
 20 50  1  0
 22 51  1  0
 25 52  1  0
 26 53  1  0
M  END
>  <smiles>  (94) 
O=C(NCC(=O)N1CCCC1C1CCNCC1)c1ccc2cc(Cl)ccc2n1

>  <score_type>  (94) 
oracle

>  <origin>  (94) 
autodockgpu

>  <m_score__min__energy>  (94) 
-8.6300000000000008

>  <m_primary>  (94) 
energy

>  <rmsd>  (94) 
8.818749464057648

>  <m_score__min__rmsd>  (94) 
8.818749464057648

>  <meeko>  (94) 
{"free_energy": -6.17, "intermolecular_energy": -7.67, "internal_energy": -3.06, "cluster_size": 6, "cluster_id": 5, "rank_in_cluster": 1}

>  <energy>  (94) 
-6.56

>  <cluster_rmsd>  (94) 
0.16

>  <cluster>  (94) 
4

$$$$

     RDKit          3D

 53 56  0  0  0  0  0  0  0  0999 V2000
  141.5910   81.2480  218.8200 O   0  0  0  0  0  0  0  0  0  0  0  0
  140.9870   80.1750  219.1560 C   0  0  0  0  0  0  0  0  0  0  0  0
  139.6070   80.2240  219.5820 N   0  0  0  0  0  0  0  0  0  0  0  0
  138.8710   81.4380  219.6540 C   0  0  0  0  0  0  0  0  0  0  0  0
  138.0760   81.7150  220.8530 C   0  0  0  0  0  0  0  0  0  0  0  0
  137.2740   82.7320  220.7270 O   0  0  0  0  0  0  0  0  0  0  0  0
  138.0530   81.0560  222.0880 N   0  0  0  0  0  0  0  0  0  0  0  0
  137.1450   80.1010  222.6890 C   0  0  0  0  0  0  0  0  0  0  0  0
  137.1320   80.3770  224.1790 C   0  0  0  0  0  0  0  0  0  0  0  0
  138.4750   81.0270  224.4280 C   0  0  0  0  0  0  0  0  0  0  0  0
  139.0960   81.2490  223.1090 C   0  0  1  0  0  0  0  0  0  0  0  0
  140.3490   80.5080  222.8400 C   0  0  0  0  0  0  0  0  0  0  0  0
  141.5400   80.9720  223.6850 C   0  0  0  0  0  0  0  0  0  0  0  0
  142.7760   80.4780  222.9600 C   0  0  0  0  0  0  0  0  0  0  0  0
  142.5920   79.1400  222.5020 N   0  0  0  0  0  0  0  0  0  0  0  0
  141.6080   78.3830  223.2320 C   0  0  0  0  0  0  0  0  0  0  0  0
  140.2560   79.0170  223.0770 C   0  0  0  0  0  0  0  0  0  0  0  0
  141.6980   78.8800  219.1100 C   0  0  0  0  0  0  0  0  0  0  0  0
  142.6660   78.7010  218.1470 C   0  0  0  0  0  0  0  0  0  0  0  0
  143.3240   77.4880  218.1130 C   0  0  0  0  0  0  0  0  0  0  0  0
  143.0370   76.4790  219.0010 C   0  0  0  0  0  0  0  0  0  0  0  0
  143.6650   75.2560  219.0070 C   0  0  0  0  0  0  0  0  0  0  0  0
  143.3560   74.2570  219.9140 C   0  0  0  0  0  0  0  0  0  0  0  0
  144.1860   72.7280  219.8710 Cl  0  0  0  0  0  0  0  0  0  0  0  0
  142.3750   74.5010  220.8550 C   0  0  0  0  0  0  0  0  0  0  0  0
  141.7480   75.7170  220.8540 C   0  0  0  0  0  0  0  0  0  0  0  0
  142.0490   76.7180  219.9520 C   0  0  0  0  0  0  0  0  0  0  0  0
  141.4060   77.9020  219.9870 N   0  0  0  0  0  0  0  0  0  0  0  0
  139.2080   79.2690  219.8300 H   0  0  0  0  0  0  0  0  0  0  0  0
  139.5941   82.2603  219.5492 H   0  0  0  0  0  0  0  0  0  0  0  0
  138.1204   81.3400  218.8559 H   0  0  0  0  0  0  0  0  0  0  0  0
  136.1346   80.2272  222.2728 H   0  0  0  0  0  0  0  0  0  0  0  0
  137.4687   79.0699  222.4842 H   0  0  0  0  0  0  0  0  0  0  0  0
  136.3100   81.0575  224.4459 H   0  0  0  0  0  0  0  0  0  0  0  0
  136.9759   79.4703  224.7819 H   0  0  0  0  0  0  0  0  0  0  0  0
  138.3399   81.9866  224.9485 H   0  0  0  0  0  0  0  0  0  0  0  0
  139.1101   80.3880  225.0591 H   0  0  0  0  0  0  0  0  0  0  0  0
  139.4703   82.2831  223.0836 H   0  0  0  0  0  0  0  0  0  0  0  0
  140.5056   80.7266  221.7734 H   0  0  0  0  0  0  0  0  0  0  0  0
  141.5525   82.0694  223.7599 H   0  0  0  0  0  0  0  0  0  0  0  0
  141.4872   80.5785  224.7109 H   0  0  0  0  0  0  0  0  0  0  0  0
  142.9733   81.1309  222.0970 H   0  0  0  0  0  0  0  0  0  0  0  0
  143.6265   80.4988  223.6574 H   0  0  0  0  0  0  0  0  0  0  0  0
  142.4920   79.0250  221.4920 H   0  0  0  0  0  0  0  0  0  0  0  0
  141.5756   77.3551  222.8416 H   0  0  0  0  0  0  0  0  0  0  0  0
  141.8805   78.3681  224.2976 H   0  0  0  0  0  0  0  0  0  0  0  0
  139.7431   78.5534  222.2214 H   0  0  0  0  0  0  0  0  0  0  0  0
  139.6985   78.8573  224.0117 H   0  0  0  0  0  0  0  0  0  0  0  0
  142.9069   79.4984  217.4285 H   0  0  0  0  0  0  0  0  0  0  0  0
  144.1015   77.3240  217.3523 H   0  0  0  0  0  0  0  0  0  0  0  0
  144.4473   75.0629  218.2582 H   0  0  0  0  0  0  0  0  0  0  0  0
  142.1026   73.7313  221.5922 H   0  0  0  0  0  0  0  0  0  0  0  0
  140.9682   75.9059  221.6065 H   0  0  0  0  0  0  0  0  0  0  0  0
  1  2  2  0
  2  3  1  0
  3  4  1  0
  4  5  1  0
  5  6  2  0
  5  7  1  0
  7  8  1  0
  8  9  1  0
  9 10  1  0
 10 11  1  0
 11 12  1  0
 12 13  1  0
 13 14  1  0
 14 15  1  0
 15 16  1  0
 16 17  1  0
  2 18  1  0
 18 19  2  0
 19 20  1  0
 20 21  2  0
 21 22  1  0
 22 23  2  0
 23 24  1  0
 23 25  1  0
 25 26  2  0
 26 27  1  0
 27 28  2  0
 11  7  1  0
 17 12  1  0
 28 18  1  0
 27 21  1  0
  3 29  1  0
  4 30  1  0
  4 31  1  0
  8 32  1  0
  8 33  1  0
  9 34  1  0
  9 35  1  0
 10 36  1  0
 10 37  1  0
 11 38  1  1
 12 39  1  0
 13 40  1  0
 13 41  1  0
 14 42  1  0
 14 43  1  0
 15 44  1  0
 16 45  1  0
 16 46  1  0
 17 47  1  0
 17 48  1  0
 19 49  1  0
 20 50  1  0
 22 51  1  0
 25 52  1  0
 26 53  1  0
M  END
>  <smiles>  (95) 
O=C(NCC(=O)N1CCCC1C1CCNCC1)c1ccc2cc(Cl)ccc2n1

>  <score_type>  (95) 
oracle

>  <origin>  (95) 
autodockgpu

>  <m_score__min__energy>  (95) 
-8.6300000000000008

>  <m_primary>  (95) 
energy

>  <rmsd>  (95) 
8.828737890616896

>  <m_score__min__rmsd>  (95) 
8.828737890616896

>  <meeko>  (95) 
{"free_energy": -5.88, "intermolecular_energy": -7.37, "internal_energy": -3.07, "cluster_size": 6, "cluster_id": 5, "rank_in_cluster": 6}

>  <energy>  (95) 
-6.17

>  <cluster_rmsd>  (95) 
0.0

>  <cluster>  (95) 
5

$$$$

     RDKit          3D

 53 56  0  0  0  0  0  0  0  0999 V2000
  139.5890   72.2230  220.3640 O   0  0  0  0  0  0  0  0  0  0  0  0
  140.2040   72.5470  221.4350 C   0  0  0  0  0  0  0  0  0  0  0  0
  141.0620   73.7100  221.4520 N   0  0  0  0  0  0  0  0  0  0  0  0
  141.2680   74.5280  220.3080 C   0  0  0  0  0  0  0  0  0  0  0  0
  140.8030   75.9170  220.3370 C   0  0  0  0  0  0  0  0  0  0  0  0
  141.1690   76.6130  219.3000 O   0  0  0  0  0  0  0  0  0  0  0  0
  140.0370   76.5890  221.2970 N   0  0  0  0  0  0  0  0  0  0  0  0
  139.3110   76.1540  222.4720 C   0  0  0  0  0  0  0  0  0  0  0  0
  138.0970   77.0520  222.6030 C   0  0  0  0  0  0  0  0  0  0  0  0
  138.5210   78.3210  221.8950 C   0  0  0  0  0  0  0  0  0  0  0  0
  139.8260   78.0450  221.2640 C   0  0  1  0  0  0  0  0  0  0  0  0
  140.9750   78.8330  221.7630 C   0  0  0  0  0  0  0  0  0  0  0  0
  140.7280   80.3460  221.7880 C   0  0  0  0  0  0  0  0  0  0  0  0
  142.1020   80.9860  221.8430 C   0  0  0  0  0  0  0  0  0  0  0  0
  142.9440   80.2960  222.7640 N   0  0  0  0  0  0  0  0  0  0  0  0
  142.2450   79.5650  223.7890 C   0  0  0  0  0  0  0  0  0  0  0  0
  141.4110   78.4830  223.1680 C   0  0  0  0  0  0  0  0  0  0  0  0
  140.0390   71.7340  222.6570 C   0  0  0  0  0  0  0  0  0  0  0  0
  139.2190   70.6290  222.6010 C   0  0  0  0  0  0  0  0  0  0  0  0
  139.0710   69.8770  223.7480 C   0  0  0  0  0  0  0  0  0  0  0  0
  139.7130   70.2030  224.9200 C   0  0  0  0  0  0  0  0  0  0  0  0
  139.5980   69.4840  226.0870 C   0  0  0  0  0  0  0  0  0  0  0  0
  140.2560   69.8360  227.2530 C   0  0  0  0  0  0  0  0  0  0  0  0
  140.0710   68.8870  228.7000 Cl  0  0  0  0  0  0  0  0  0  0  0  0
  141.0640   70.9550  227.2430 C   0  0  0  0  0  0  0  0  0  0  0  0
  141.1820   71.6730  226.0840 C   0  0  0  0  0  0  0  0  0  0  0  0
  140.5290   71.3300  224.9170 C   0  0  0  0  0  0  0  0  0  0  0  0
  140.6740   72.0660  223.7970 N   0  0  0  0  0  0  0  0  0  0  0  0
  141.5150   73.8850  222.4000 H   0  0  0  0  0  0  0  0  0  0  0  0
  142.3517   74.5543  220.1211 H   0  0  0  0  0  0  0  0  0  0  0  0
  140.6476   74.0574  219.5311 H   0  0  0  0  0  0  0  0  0  0  0  0
  138.9950   75.1070  222.3542 H   0  0  0  0  0  0  0  0  0  0  0  0
  139.9440   76.2176  223.3694 H   0  0  0  0  0  0  0  0  0  0  0  0
  137.2203   76.6025  222.1138 H   0  0  0  0  0  0  0  0  0  0  0  0
  137.7997   77.2224  223.6483 H   0  0  0  0  0  0  0  0  0  0  0  0
  137.7801   78.5920  221.1284 H   0  0  0  0  0  0  0  0  0  0  0  0
  138.5956   79.1601  222.6024 H   0  0  0  0  0  0  0  0  0  0  0  0
  139.7793   78.4014  220.2244 H   0  0  0  0  0  0  0  0  0  0  0  0
  141.7536   78.5657  221.0334 H   0  0  0  0  0  0  0  0  0  0  0  0
  140.1938   80.6623  220.8800 H   0  0  0  0  0  0  0  0  0  0  0  0
  140.1080   80.6417  222.6471 H   0  0  0  0  0  0  0  0  0  0  0  0
  142.5569   80.9508  220.8421 H   0  0  0  0  0  0  0  0  0  0  0  0
  141.9930   82.0284  222.1768 H   0  0  0  0  0  0  0  0  0  0  0  0
  143.7010   79.7480  222.3510 H   0  0  0  0  0  0  0  0  0  0  0  0
  142.9750   79.1131  224.4767 H   0  0  0  0  0  0  0  0  0  0  0  0
  141.5897   80.2543  224.3417 H   0  0  0  0  0  0  0  0  0  0  0  0
  142.0015   77.5555  223.1349 H   0  0  0  0  0  0  0  0  0  0  0  0
  140.5063   78.3600  223.7815 H   0  0  0  0  0  0  0  0  0  0  0  0
  138.6987   70.3548  221.6714 H   0  0  0  0  0  0  0  0  0  0  0  0
  138.4203   68.9904  223.7247 H   0  0  0  0  0  0  0  0  0  0  0  0
  138.9557   68.5910  226.0940 H   0  0  0  0  0  0  0  0  0  0  0  0
  141.6034   71.2641  228.1504 H   0  0  0  0  0  0  0  0  0  0  0  0
  141.8267   72.5643  226.0821 H   0  0  0  0  0  0  0  0  0  0  0  0
  1  2  2  0
  2  3  1  0
  3  4  1  0
  4  5  1  0
  5  6  2  0
  5  7  1  0
  7  8  1  0
  8  9  1  0
  9 10  1  0
 10 11  1  0
 11 12  1  0
 12 13  1  0
 13 14  1  0
 14 15  1  0
 15 16  1  0
 16 17  1  0
  2 18  1  0
 18 19  2  0
 19 20  1  0
 20 21  2  0
 21 22  1  0
 22 23  2  0
 23 24  1  0
 23 25  1  0
 25 26  2  0
 26 27  1  0
 27 28  2  0
 11  7  1  0
 17 12  1  0
 28 18  1  0
 27 21  1  0
  3 29  1  0
  4 30  1  0
  4 31  1  0
  8 32  1  0
  8 33  1  0
  9 34  1  0
  9 35  1  0
 10 36  1  0
 10 37  1  0
 11 38  1  6
 12 39  1  0
 13 40  1  0
 13 41  1  0
 14 42  1  0
 14 43  1  0
 15 44  1  0
 16 45  1  0
 16 46  1  0
 17 47  1  0
 17 48  1  0
 19 49  1  0
 20 50  1  0
 22 51  1  0
 25 52  1  0
 26 53  1  0
M  END
>  <smiles>  (96) 
O=C(NCC(=O)N1CCCC1C1CCNCC1)c1ccc2cc(Cl)ccc2n1

>  <score_type>  (96) 
oracle

>  <origin>  (96) 
autodockgpu

>  <m_score__min__energy>  (96) 
-8.6300000000000008

>  <m_primary>  (96) 
energy

>  <rmsd>  (96) 
2.964446409246554

>  <m_score__min__rmsd>  (96) 
2.964446409246554

>  <meeko>  (96) 
{"free_energy": -7.85, "intermolecular_energy": -9.34, "internal_energy": -1.59, "cluster_size": 23, "cluster_id": 1, "rank_in_cluster": 19}

>  <energy>  (96) 
-6.15

>  <cluster_rmsd>  (96) 
0.22

>  <cluster>  (96) 
5

$$$$

     RDKit          3D

 53 56  0  0  0  0  0  0  0  0999 V2000
  139.8100   72.1520  220.7600 O   0  0  0  0  0  0  0  0  0  0  0  0
  139.7590   72.5550  221.9700 C   0  0  0  0  0  0  0  0  0  0  0  0
  139.5970   73.9620  222.2570 N   0  0  0  0  0  0  0  0  0  0  0  0
  139.4960   74.9460  221.2360 C   0  0  0  0  0  0  0  0  0  0  0  0
  140.6380   75.8280  220.9860 C   0  0  0  0  0  0  0  0  0  0  0  0
  141.7370   75.4390  221.5660 O   0  0  0  0  0  0  0  0  0  0  0  0
  140.7180   77.0030  220.2280 N   0  0  0  0  0  0  0  0  0  0  0  0
  139.9630   77.5140  219.1040 C   0  0  0  0  0  0  0  0  0  0  0  0
  140.9270   78.3050  218.2430 C   0  0  0  0  0  0  0  0  0  0  0  0
  142.0010   78.7320  219.2190 C   0  0  0  0  0  0  0  0  0  0  0  0
  141.7160   78.0520  220.4970 C   0  0  1  0  0  0  0  0  0  0  0  0
  141.3810   78.9240  221.6440 C   0  0  0  0  0  0  0  0  0  0  0  0
  140.5000   78.2500  222.7020 C   0  0  0  0  0  0  0  0  0  0  0  0
  139.8790   79.3790  223.5010 C   0  0  0  0  0  0  0  0  0  0  0  0
  140.8480   80.3850  223.7890 N   0  0  0  0  0  0  0  0  0  0  0  0
  142.2140   79.9280  223.7780 C   0  0  0  0  0  0  0  0  0  0  0  0
  142.5800   79.4430  222.4060 C   0  0  0  0  0  0  0  0  0  0  0  0
  139.8660   71.5840  223.0780 C   0  0  0  0  0  0  0  0  0  0  0  0
  139.4510   70.2900  222.8550 C   0  0  0  0  0  0  0  0  0  0  0  0
  139.5550   69.3910  223.8960 C   0  0  0  0  0  0  0  0  0  0  0  0
  140.0530   69.7550  225.1250 C   0  0  0  0  0  0  0  0  0  0  0  0
  140.1760   68.8960  226.1910 C   0  0  0  0  0  0  0  0  0  0  0  0
  140.6820   69.2900  227.4190 C   0  0  0  0  0  0  0  0  0  0  0  0
  140.8130   68.1560  228.7320 Cl  0  0  0  0  0  0  0  0  0  0  0  0
  141.0800   70.6020  227.5780 C   0  0  0  0  0  0  0  0  0  0  0  0
  140.9600   71.4600  226.5190 C   0  0  0  0  0  0  0  0  0  0  0  0
  140.4570   71.0770  225.2920 C   0  0  0  0  0  0  0  0  0  0  0  0
  140.3560   71.9550  224.2760 N   0  0  0  0  0  0  0  0  0  0  0  0
  139.5610   74.1780  223.2990 H   0  0  0  0  0  0  0  0  0  0  0  0
  139.2867   74.4149  220.2957 H   0  0  0  0  0  0  0  0  0  0  0  0
  138.7119   75.6258  221.6007 H   0  0  0  0  0  0  0  0  0  0  0  0
  139.5367   76.6810  218.5257 H   0  0  0  0  0  0  0  0  0  0  0  0
  139.1322   78.1486  219.4462 H   0  0  0  0  0  0  0  0  0  0  0  0
  141.3483   77.6764  217.4447 H   0  0  0  0  0  0  0  0  0  0  0  0
  140.4489   79.1541  217.7326 H   0  0  0  0  0  0  0  0  0  0  0  0
  142.9917   78.4341  218.8450 H   0  0  0  0  0  0  0  0  0  0  0  0
  142.0037   79.8245  219.3472 H   0  0  0  0  0  0  0  0  0  0  0  0
  142.6544   77.6058  220.8579 H   0  0  0  0  0  0  0  0  0  0  0  0
  140.8486   79.7457  221.1426 H   0  0  0  0  0  0  0  0  0  0  0  0
  139.7172   77.6456  222.2204 H   0  0  0  0  0  0  0  0  0  0  0  0
  141.0831   77.5726  223.3432 H   0  0  0  0  0  0  0  0  0  0  0  0
  139.0583   79.8241  222.9194 H   0  0  0  0  0  0  0  0  0  0  0  0
  139.4980   78.9730  224.4497 H   0  0  0  0  0  0  0  0  0  0  0  0
  140.7360   81.2680  223.2880 H   0  0  0  0  0  0  0  0  0  0  0  0
  142.8784   80.7579  224.0606 H   0  0  0  0  0  0  0  0  0  0  0  0
  142.3249   79.1016  224.4954 H   0  0  0  0  0  0  0  0  0  0  0  0
  143.0240   80.2768  221.8424 H   0  0  0  0  0  0  0  0  0  0  0  0
  143.2922   78.6126  222.5206 H   0  0  0  0  0  0  0  0  0  0  0  0
  139.0494   69.9831  221.8780 H   0  0  0  0  0  0  0  0  0  0  0  0
  139.2299   68.3520  223.7383 H   0  0  0  0  0  0  0  0  0  0  0  0
  139.8589   67.8504  226.0635 H   0  0  0  0  0  0  0  0  0  0  0  0
  141.4863   70.9515  228.5386 H   0  0  0  0  0  0  0  0  0  0  0  0
  141.2794   72.5042  226.6517 H   0  0  0  0  0  0  0  0  0  0  0  0
  1  2  2  0
  2  3  1  0
  3  4  1  0
  4  5  1  0
  5  6  2  0
  5  7  1  0
  7  8  1  0
  8  9  1  0
  9 10  1  0
 10 11  1  0
 11 12  1  0
 12 13  1  0
 13 14  1  0
 14 15  1  0
 15 16  1  0
 16 17  1  0
  2 18  1  0
 18 19  2  0
 19 20  1  0
 20 21  2  0
 21 22  1  0
 22 23  2  0
 23 24  1  0
 23 25  1  0
 25 26  2  0
 26 27  1  0
 27 28  2  0
 11  7  1  0
 17 12  1  0
 28 18  1  0
 27 21  1  0
  3 29  1  0
  4 30  1  0
  4 31  1  0
  8 32  1  0
  8 33  1  0
  9 34  1  0
  9 35  1  0
 10 36  1  0
 10 37  1  0
 11 38  1  1
 12 39  1  0
 13 40  1  0
 13 41  1  0
 14 42  1  0
 14 43  1  0
 15 44  1  0
 16 45  1  0
 16 46  1  0
 17 47  1  0
 17 48  1  0
 19 49  1  0
 20 50  1  0
 22 51  1  0
 25 52  1  0
 26 53  1  0
M  END
>  <smiles>  (97) 
O=C(NCC(=O)N1CCCC1C1CCNCC1)c1ccc2cc(Cl)ccc2n1

>  <score_type>  (97) 
oracle

>  <origin>  (97) 
autodockgpu

>  <m_score__min__energy>  (97) 
-8.6300000000000008

>  <m_primary>  (97) 
energy

>  <rmsd>  (97) 
1.7292334021246516

>  <m_score__min__rmsd>  (97) 
1.7292334021246516

>  <meeko>  (97) 
{"free_energy": -8.13, "intermolecular_energy": -9.63, "internal_energy": -1.3, "cluster_size": 23, "cluster_id": 1, "rank_in_cluster": 6}

>  <energy>  (97) 
-6.14

>  <cluster_rmsd>  (97) 
0.27

>  <cluster>  (97) 
5

$$$$

     RDKit          3D

 53 56  0  0  0  0  0  0  0  0999 V2000
  133.5970   69.6720  226.5230 O   0  0  0  0  0  0  0  0  0  0  0  0
  133.9430   70.8000  226.0360 C   0  0  0  0  0  0  0  0  0  0  0  0
  134.9640   70.8640  225.0150 N   0  0  0  0  0  0  0  0  0  0  0  0
  135.6240   69.7070  224.5180 C   0  0  0  0  0  0  0  0  0  0  0  0
  137.0810   69.6150  224.6410 C   0  0  0  0  0  0  0  0  0  0  0  0
  137.4860   68.5560  225.2810 O   0  0  0  0  0  0  0  0  0  0  0  0
  138.0790   70.4800  224.1770 N   0  0  0  0  0  0  0  0  0  0  0  0
  138.0720   71.6200  223.2840 C   0  0  0  0  0  0  0  0  0  0  0  0
  139.3940   71.6140  222.5430 C   0  0  0  0  0  0  0  0  0  0  0  0
  140.3200   70.8740  223.4830 C   0  0  0  0  0  0  0  0  0  0  0  0
  139.4880   70.3550  224.5860 C   0  0  1  0  0  0  0  0  0  0  0  0
  139.7750   70.8940  225.9340 C   0  0  0  0  0  0  0  0  0  0  0  0
  140.1330   69.8220  226.9690 C   0  0  0  0  0  0  0  0  0  0  0  0
  139.9130   70.4680  228.3230 C   0  0  0  0  0  0  0  0  0  0  0  0
  140.4270   71.7980  228.3380 N   0  0  0  0  0  0  0  0  0  0  0  0
  141.4620   72.0550  227.3700 C   0  0  0  0  0  0  0  0  0  0  0  0
  140.9190   71.8820  225.9810 C   0  0  0  0  0  0  0  0  0  0  0  0
  133.3010   72.0410  226.5150 C   0  0  0  0  0  0  0  0  0  0  0  0
  132.1150   71.9370  227.2080 C   0  0  0  0  0  0  0  0  0  0  0  0
  131.5230   73.1020  227.6510 C   0  0  0  0  0  0  0  0  0  0  0  0
  132.0820   74.3370  227.4190 C   0  0  0  0  0  0  0  0  0  0  0  0
  131.5310   75.5230  227.8400 C   0  0  0  0  0  0  0  0  0  0  0  0
  132.1170   76.7530  227.5920 C   0  0  0  0  0  0  0  0  0  0  0  0
  131.3710   78.2230  228.1510 Cl  0  0  0  0  0  0  0  0  0  0  0  0
  133.3060   76.7890  226.8920 C   0  0  0  0  0  0  0  0  0  0  0  0
  133.8590   75.6100  226.4710 C   0  0  0  0  0  0  0  0  0  0  0  0
  133.2820   74.3800  226.7130 C   0  0  0  0  0  0  0  0  0  0  0  0
  133.8600   73.2420  226.2800 N   0  0  0  0  0  0  0  0  0  0  0  0
  135.1640   71.8550  224.6810 H   0  0  0  0  0  0  0  0  0  0  0  0
  135.2001   68.8411  225.0476 H   0  0  0  0  0  0  0  0  0  0  0  0
  135.4521   69.7499  223.4324 H   0  0  0  0  0  0  0  0  0  0  0  0
  137.2392   71.5352  222.5704 H   0  0  0  0  0  0  0  0  0  0  0  0
  137.9426   72.5567  223.8460 H   0  0  0  0  0  0  0  0  0  0  0  0
  139.3042   71.0858  221.5823 H   0  0  0  0  0  0  0  0  0  0  0  0
  139.7517   72.6242  222.2951 H   0  0  0  0  0  0  0  0  0  0  0  0
  140.8092   70.0423  222.9548 H   0  0  0  0  0  0  0  0  0  0  0  0
  141.1076   71.5404  223.8645 H   0  0  0  0  0  0  0  0  0  0  0  0
  139.7511   69.2976  224.7368 H   0  0  0  0  0  0  0  0  0  0  0  0
  138.8218   71.3854  226.1788 H   0  0  0  0  0  0  0  0  0  0  0  0
  139.4808   68.9438  226.8527 H   0  0  0  0  0  0  0  0  0  0  0  0
  141.1693   69.4730  226.8496 H   0  0  0  0  0  0  0  0  0  0  0  0
  138.8347   70.4955  228.5387 H   0  0  0  0  0  0  0  0  0  0  0  0
  140.4407   69.8770  229.0860 H   0  0  0  0  0  0  0  0  0  0  0  0
  139.7300   72.5450  228.3600 H   0  0  0  0  0  0  0  0  0  0  0  0
  141.8280   73.0851  227.4926 H   0  0  0  0  0  0  0  0  0  0  0  0
  142.2876   71.3451  227.5264 H   0  0  0  0  0  0  0  0  0  0  0  0
  140.5610   72.8562  225.6167 H   0  0  0  0  0  0  0  0  0  0  0  0
  141.7292   71.4911  225.3479 H   0  0  0  0  0  0  0  0  0  0  0  0
  131.6548   70.9569  227.4019 H   0  0  0  0  0  0  0  0  0  0  0  0
  130.5755   73.0411  228.2064 H   0  0  0  0  0  0  0  0  0  0  0  0
  130.5835   75.4944  228.3981 H   0  0  0  0  0  0  0  0  0  0  0  0
  133.8001   77.7478  226.6764 H   0  0  0  0  0  0  0  0  0  0  0  0
  134.8070   75.6444  225.9141 H   0  0  0  0  0  0  0  0  0  0  0  0
  1  2  2  0
  2  3  1  0
  3  4  1  0
  4  5  1  0
  5  6  2  0
  5  7  1  0
  7  8  1  0
  8  9  1  0
  9 10  1  0
 10 11  1  0
 11 12  1  0
 12 13  1  0
 13 14  1  0
 14 15  1  0
 15 16  1  0
 16 17  1  0
  2 18  1  0
 18 19  2  0
 19 20  1  0
 20 21  2  0
 21 22  1  0
 22 23  2  0
 23 24  1  0
 23 25  1  0
 25 26  2  0
 26 27  1  0
 27 28  2  0
 11  7  1  0
 17 12  1  0
 28 18  1  0
 27 21  1  0
  3 29  1  0
  4 30  1  0
  4 31  1  0
  8 32  1  0
  8 33  1  0
  9 34  1  0
  9 35  1  0
 10 36  1  0
 10 37  1  0
 11 38  1  1
 12 39  1  0
 13 40  1  0
 13 41  1  0
 14 42  1  0
 14 43  1  0
 15 44  1  0
 16 45  1  0
 16 46  1  0
 17 47  1  0
 17 48  1  0
 19 49  1  0
 20 50  1  0
 22 51  1  0
 25 52  1  0
 26 53  1  0
M  END
>  <smiles>  (98) 
O=C(NCC(=O)N1CCCC1C1CCNCC1)c1ccc2cc(Cl)ccc2n1

>  <score_type>  (98) 
oracle

>  <origin>  (98) 
autodockgpu

>  <m_score__min__energy>  (98) 
-8.6300000000000008

>  <m_primary>  (98) 
energy

>  <rmsd>  (98) 
8.057375080530994

>  <m_score__min__rmsd>  (98) 
8.057375080530994

>  <meeko>  (98) 
{"free_energy": -8.25, "intermolecular_energy": -9.74, "internal_energy": -1.46, "cluster_size": 7, "cluster_id": 3, "rank_in_cluster": 6}

>  <energy>  (98) 
-6.12

>  <cluster_rmsd>  (98) 
0.25

>  <cluster>  (98) 
5

$$$$

     RDKit          3D

 53 56  0  0  0  0  0  0  0  0999 V2000
  139.1860   73.0630  220.7390 O   0  0  0  0  0  0  0  0  0  0  0  0
  140.1950   72.8900  221.5010 C   0  0  0  0  0  0  0  0  0  0  0  0
  141.4190   73.6180  221.2570 N   0  0  0  0  0  0  0  0  0  0  0  0
  141.5640   74.5360  220.1810 C   0  0  0  0  0  0  0  0  0  0  0  0
  140.7160   75.7310  220.1510 C   0  0  0  0  0  0  0  0  0  0  0  0
  140.6260   76.2780  218.9730 O   0  0  0  0  0  0  0  0  0  0  0  0
  140.0030   76.3540  221.1810 N   0  0  0  0  0  0  0  0  0  0  0  0
  139.3430   75.8620  222.3730 C   0  0  0  0  0  0  0  0  0  0  0  0
  138.1370   76.7470  222.6120 C   0  0  0  0  0  0  0  0  0  0  0  0
  138.5190   78.0490  221.9420 C   0  0  0  0  0  0  0  0  0  0  0  0
  139.7880   77.8090  221.2280 C   0  0  1  0  0  0  0  0  0  0  0  0
  140.9600   78.5780  221.6990 C   0  0  0  0  0  0  0  0  0  0  0  0
  140.7880   80.0980  221.6020 C   0  0  0  0  0  0  0  0  0  0  0  0
  142.1890   80.6750  221.6480 C   0  0  0  0  0  0  0  0  0  0  0  0
  142.9720   80.0210  222.6440 N   0  0  0  0  0  0  0  0  0  0  0  0
  142.2120   79.4050  223.7010 C   0  0  0  0  0  0  0  0  0  0  0  0
  141.3420   78.3180  223.1390 C   0  0  0  0  0  0  0  0  0  0  0  0
  140.1130   71.9440  222.6330 C   0  0  0  0  0  0  0  0  0  0  0  0
  139.4750   70.7400  222.4330 C   0  0  0  0  0  0  0  0  0  0  0  0
  139.4030   69.8640  223.4970 C   0  0  0  0  0  0  0  0  0  0  0  0
  139.9450   70.1640  224.7250 C   0  0  0  0  0  0  0  0  0  0  0  0
  139.9000   69.3250  225.8130 C   0  0  0  0  0  0  0  0  0  0  0  0
  140.4540   69.6530  227.0380 C   0  0  0  0  0  0  0  0  0  0  0  0
  140.3650   68.5480  228.3800 Cl  0  0  0  0  0  0  0  0  0  0  0  0
  141.0800   70.8760  227.1720 C   0  0  0  0  0  0  0  0  0  0  0  0
  141.1290   71.7140  226.0920 C   0  0  0  0  0  0  0  0  0  0  0  0
  140.5780   71.3960  224.8670 C   0  0  0  0  0  0  0  0  0  0  0  0
  140.6480   72.2520  223.8290 N   0  0  0  0  0  0  0  0  0  0  0  0
  142.1880   73.3980  221.9600 H   0  0  0  0  0  0  0  0  0  0  0  0
  142.6084   74.8813  220.1896 H   0  0  0  0  0  0  0  0  0  0  0  0
  141.2451   73.9624  219.2983 H   0  0  0  0  0  0  0  0  0  0  0  0
  139.0229   74.8202  222.2243 H   0  0  0  0  0  0  0  0  0  0  0  0
  140.0242   75.8871  223.2363 H   0  0  0  0  0  0  0  0  0  0  0  0
  137.2356   76.3168  222.1511 H   0  0  0  0  0  0  0  0  0  0  0  0
  137.8973   76.8672  223.6788 H   0  0  0  0  0  0  0  0  0  0  0  0
  137.7365   78.3520  221.2307 H   0  0  0  0  0  0  0  0  0  0  0  0
  138.6309   78.8544  222.6828 H   0  0  0  0  0  0  0  0  0  0  0  0
  139.6840   78.2133  220.2103 H   0  0  0  0  0  0  0  0  0  0  0  0
  141.7425   78.2184  221.0146 H   0  0  0  0  0  0  0  0  0  0  0  0
  140.2931   80.3681  220.6575 H   0  0  0  0  0  0  0  0  0  0  0  0
  140.1622   80.4879  222.4183 H   0  0  0  0  0  0  0  0  0  0  0  0
  142.6673   80.5400  220.6667 H   0  0  0  0  0  0  0  0  0  0  0  0
  142.1225   81.7444  221.8968 H   0  0  0  0  0  0  0  0  0  0  0  0
  143.7120   79.4070  222.2970 H   0  0  0  0  0  0  0  0  0  0  0  0
  142.9012   78.9739  224.4421 H   0  0  0  0  0  0  0  0  0  0  0  0
  141.5775   80.1648  224.1807 H   0  0  0  0  0  0  0  0  0  0  0  0
  141.8871   77.3642  223.1941 H   0  0  0  0  0  0  0  0  0  0  0  0
  140.4167   78.2856  223.7329 H   0  0  0  0  0  0  0  0  0  0  0  0
  139.0370   70.4848  221.4568 H   0  0  0  0  0  0  0  0  0  0  0  0
  138.8971   68.8971  223.3588 H   0  0  0  0  0  0  0  0  0  0  0  0
  139.4018   68.3502  225.7052 H   0  0  0  0  0  0  0  0  0  0  0  0
  141.5315   71.1715  228.1305 H   0  0  0  0  0  0  0  0  0  0  0  0
  141.6307   72.6864  226.2049 H   0  0  0  0  0  0  0  0  0  0  0  0
  1  2  2  0
  2  3  1  0
  3  4  1  0
  4  5  1  0
  5  6  2  0
  5  7  1  0
  7  8  1  0
  8  9  1  0
  9 10  1  0
 10 11  1  0
 11 12  1  0
 12 13  1  0
 13 14  1  0
 14 15  1  0
 15 16  1  0
 16 17  1  0
  2 18  1  0
 18 19  2  0
 19 20  1  0
 20 21  2  0
 21 22  1  0
 22 23  2  0
 23 24  1  0
 23 25  1  0
 25 26  2  0
 26 27  1  0
 27 28  2  0
 11  7  1  0
 17 12  1  0
 28 18  1  0
 27 21  1  0
  3 29  1  0
  4 30  1  0
  4 31  1  0
  8 32  1  0
  8 33  1  0
  9 34  1  0
  9 35  1  0
 10 36  1  0
 10 37  1  0
 11 38  1  6
 12 39  1  0
 13 40  1  0
 13 41  1  0
 14 42  1  0
 14 43  1  0
 15 44  1  0
 16 45  1  0
 16 46  1  0
 17 47  1  0
 17 48  1  0
 19 49  1  0
 20 50  1  0
 22 51  1  0
 25 52  1  0
 26 53  1  0
M  END
>  <smiles>  (99) 
O=C(NCC(=O)N1CCCC1C1CCNCC1)c1ccc2cc(Cl)ccc2n1

>  <score_type>  (99) 
oracle

>  <origin>  (99) 
autodockgpu

>  <m_score__min__energy>  (99) 
-8.6300000000000008

>  <m_primary>  (99) 
energy

>  <rmsd>  (99) 
3.0327971004905145

>  <m_score__min__rmsd>  (99) 
3.0327971004905145

>  <meeko>  (99) 
{"free_energy": -7.98, "intermolecular_energy": -9.47, "internal_energy": -1.52, "cluster_size": 23, "cluster_id": 1, "rank_in_cluster": 13}

>  <energy>  (99) 
-6.09

>  <cluster_rmsd>  (99) 
1.02

>  <cluster>  (99) 
5

$$$$

     RDKit          3D

 53 56  0  0  0  0  0  0  0  0999 V2000
  142.0630   80.9620  220.5210 O   0  0  0  0  0  0  0  0  0  0  0  0
  141.3480   80.1370  219.8580 C   0  0  0  0  0  0  0  0  0  0  0  0
  140.0410   80.5320  219.3830 N   0  0  0  0  0  0  0  0  0  0  0  0
  139.4940   81.8210  219.6270 C   0  0  0  0  0  0  0  0  0  0  0  0
  138.5930   82.0030  220.7680 C   0  0  0  0  0  0  0  0  0  0  0  0
  137.8820   83.0930  220.7040 O   0  0  0  0  0  0  0  0  0  0  0  0
  138.3870   81.1930  221.8900 N   0  0  0  0  0  0  0  0  0  0  0  0
  137.4080   80.1770  222.2170 C   0  0  0  0  0  0  0  0  0  0  0  0
  137.1620   80.2600  223.7100 C   0  0  0  0  0  0  0  0  0  0  0  0
  138.4440   80.8610  224.2440 C   0  0  0  0  0  0  0  0  0  0  0  0
  139.2580   81.2450  223.0750 C   0  0  1  0  0  0  0  0  0  0  0  0
  140.5450   80.5330  222.9110 C   0  0  0  0  0  0  0  0  0  0  0  0
  141.6560   81.0320  223.8410 C   0  0  0  0  0  0  0  0  0  0  0  0
  142.9560   80.5630  223.2180 C   0  0  0  0  0  0  0  0  0  0  0  0
  142.8400   79.2180  222.7600 N   0  0  0  0  0  0  0  0  0  0  0  0
  141.8210   78.4420  223.4180 C   0  0  0  0  0  0  0  0  0  0  0  0
  140.4700   79.0420  223.1530 C   0  0  0  0  0  0  0  0  0  0  0  0
  141.8550   78.7780  219.5760 C   0  0  0  0  0  0  0  0  0  0  0  0
  142.5800   78.5790  218.4220 C   0  0  0  0  0  0  0  0  0  0  0  0
  143.0490   77.3060  218.1680 C   0  0  0  0  0  0  0  0  0  0  0  0
  142.8120   76.2580  219.0260 C   0  0  0  0  0  0  0  0  0  0  0  0
  143.2590   74.9750  218.8170 C   0  0  0  0  0  0  0  0  0  0  0  0
  143.0050   73.9380  219.6980 C   0  0  0  0  0  0  0  0  0  0  0  0
  143.5970   72.3330  219.3790 Cl  0  0  0  0  0  0  0  0  0  0  0  0
  142.2720   74.2050  220.8370 C   0  0  0  0  0  0  0  0  0  0  0  0
  141.8260   75.4810  221.0510 C   0  0  0  0  0  0  0  0  0  0  0  0
  142.0740   76.5200  220.1770 C   0  0  0  0  0  0  0  0  0  0  0  0
  141.6150   77.7620  220.4260 N   0  0  0  0  0  0  0  0  0  0  0  0
  139.5420   79.7650  218.8390 H   0  0  0  0  0  0  0  0  0  0  0  0
  140.3402   82.5089  219.7708 H   0  0  0  0  0  0  0  0  0  0  0  0
  138.8544   82.0076  218.7517 H   0  0  0  0  0  0  0  0  0  0  0  0
  136.4725   80.3642  221.6694 H   0  0  0  0  0  0  0  0  0  0  0  0
  137.7713   79.1778  221.9348 H   0  0  0  0  0  0  0  0  0  0  0  0
  136.3013   80.9081  223.9316 H   0  0  0  0  0  0  0  0  0  0  0  0
  136.9244   79.2852  224.1609 H   0  0  0  0  0  0  0  0  0  0  0  0
  138.2199   81.7470  224.8562 H   0  0  0  0  0  0  0  0  0  0  0  0
  138.9817   80.1408  224.8782 H   0  0  0  0  0  0  0  0  0  0  0  0
  139.6199   82.2709  223.2384 H   0  0  0  0  0  0  0  0  0  0  0  0
  140.7781   80.7480  221.8577 H   0  0  0  0  0  0  0  0  0  0  0  0
  141.6366   82.1299  223.9067 H   0  0  0  0  0  0  0  0  0  0  0  0
  141.5334   80.6447  224.8632 H   0  0  0  0  0  0  0  0  0  0  0  0
  143.2037   81.2141  222.3667 H   0  0  0  0  0  0  0  0  0  0  0  0
  143.7493   80.6100  223.9786 H   0  0  0  0  0  0  0  0  0  0  0  0
  142.8220   79.0930  221.7460 H   0  0  0  0  0  0  0  0  0  0  0  0
  141.8436   77.4110  223.0351 H   0  0  0  0  0  0  0  0  0  0  0  0
  142.0102   78.4407  224.5016 H   0  0  0  0  0  0  0  0  0  0  0  0
  140.0365   78.5602  222.2642 H   0  0  0  0  0  0  0  0  0  0  0  0
  139.8457   78.8752  224.0432 H   0  0  0  0  0  0  0  0  0  0  0  0
  142.7787   79.4072  217.7258 H   0  0  0  0  0  0  0  0  0  0  0  0
  143.6298   77.1244  217.2517 H   0  0  0  0  0  0  0  0  0  0  0  0
  143.8442   74.7631  217.9100 H   0  0  0  0  0  0  0  0  0  0  0  0
  142.0503   73.4061  221.5599 H   0  0  0  0  0  0  0  0  0  0  0  0
  141.2434   75.6879  221.9608 H   0  0  0  0  0  0  0  0  0  0  0  0
  1  2  2  0
  2  3  1  0
  3  4  1  0
  4  5  1  0
  5  6  2  0
  5  7  1  0
  7  8  1  0
  8  9  1  0
  9 10  1  0
 10 11  1  0
 11 12  1  0
 12 13  1  0
 13 14  1  0
 14 15  1  0
 15 16  1  0
 16 17  1  0
  2 18  1  0
 18 19  2  0
 19 20  1  0
 20 21  2  0
 21 22  1  0
 22 23  2  0
 23 24  1  0
 23 25  1  0
 25 26  2  0
 26 27  1  0
 27 28  2  0
 11  7  1  0
 17 12  1  0
 28 18  1  0
 27 21  1  0
  3 29  1  0
  4 30  1  0
  4 31  1  0
  8 32  1  0
  8 33  1  0
  9 34  1  0
  9 35  1  0
 10 36  1  0
 10 37  1  0
 11 38  1  1
 12 39  1  0
 13 40  1  0
 13 41  1  0
 14 42  1  0
 14 43  1  0
 15 44  1  0
 16 45  1  0
 16 46  1  0
 17 47  1  0
 17 48  1  0
 19 49  1  0
 20 50  1  0
 22 51  1  0
 25 52  1  0
 26 53  1  0
M  END
>  <smiles>  (100) 
O=C(NCC(=O)N1CCCC1C1CCNCC1)c1ccc2cc(Cl)ccc2n1

>  <score_type>  (100) 
oracle

>  <origin>  (100) 
autodockgpu

>  <m_score__min__energy>  (100) 
-8.6300000000000008

>  <m_primary>  (100) 
energy

>  <rmsd>  (100) 
8.732262668589499

>  <m_score__min__rmsd>  (100) 
8.732262668589499

>  <meeko>  (100) 
{"free_energy": -6.14, "intermolecular_energy": -7.63, "internal_energy": -3.12, "cluster_size": 6, "cluster_id": 5, "rank_in_cluster": 3}

>  <energy>  (100) 
-5.88

>  <cluster_rmsd>  (100) 
0.52

>  <cluster>  (100) 
5

$$$$
