
     RDKit          3D

 53 56  0  0  0  0  0  0  0  0999 V2000
  139.9940   73.4990  222.3610 O   0  0  0  0  0  0  0  0  0  0  0  0
  140.2760   72.2850  222.2410 C   0  0  0  0  0  0  0  0  0  0  0  0
  140.7800   71.7450  221.0370 N   0  0  0  0  0  0  0  0  0  0  0  0
  141.0020   72.5650  219.8740 C   0  0  0  0  0  0  0  0  0  0  0  0
  141.8100   73.7520  220.1310 C   0  0  0  0  0  0  0  0  0  0  0  0
  142.9490   73.5940  220.6840 O   0  0  0  0  0  0  0  0  0  0  0  0
  141.4520   75.0870  219.8280 N   0  0  0  0  0  0  0  0  0  0  0  0
  140.5240   75.4050  218.7280 C   0  0  0  0  0  0  0  0  0  0  0  0
  141.3270   76.5560  218.0930 C   0  0  0  0  0  0  0  0  0  0  0  0
  141.5830   77.3640  219.3790 C   0  0  2  0  0  0  0  0  0  0  0  0
  142.5560   78.3050  219.2020 O   0  0  0  0  0  0  0  0  0  0  0  0
  141.8740   76.3380  220.4550 C   0  0  1  0  0  0  0  0  0  0  0  0
  140.9940   76.5860  221.6930 C   0  0  0  0  0  0  0  0  0  0  0  0
  140.9750   77.8170  222.1540 O   0  0  0  0  0  0  0  0  0  0  0  0
  141.4240   78.9200  222.6750 C   0  0  0  0  0  0  0  0  0  0  0  0
  142.7510   79.3180  222.7340 C   0  0  0  0  0  0  0  0  0  0  0  0
  143.1560   80.5080  223.3070 C   0  0  0  0  0  0  0  0  0  0  0  0
  142.2020   81.3230  223.8360 C   0  0  0  0  0  0  0  0  0  0  0  0
  140.8840   81.0040  223.8180 C   0  0  0  0  0  0  0  0  0  0  0  0
  140.4970   79.8210  223.2470 C   0  0  0  0  0  0  0  0  0  0  0  0
  140.0700   71.3960  223.3990 C   0  0  0  0  0  0  0  0  0  0  0  0
  139.3590   70.2230  223.2840 C   0  0  0  0  0  0  0  0  0  0  0  0
  139.2100   69.4420  224.4220 C   0  0  0  0  0  0  0  0  0  0  0  0
  139.7400   69.7950  225.6440 C   0  0  0  0  0  0  0  0  0  0  0  0
  139.6080   69.0450  226.7780 C   0  0  0  0  0  0  0  0  0  0  0  0
  140.1760   69.4850  227.9540 C   0  0  0  0  0  0  0  0  0  0  0  0
  140.0880   68.7960  229.1190 F   0  0  0  0  0  0  0  0  0  0  0  0
  140.8830   70.6840  228.0030 C   0  0  0  0  0  0  0  0  0  0  0  0
  141.0270   71.4540  226.8660 C   0  0  0  0  0  0  0  0  0  0  0  0
  140.4430   70.9770  225.7110 C   0  0  0  0  0  0  0  0  0  0  0  0
  140.5760   71.7190  224.6010 N   0  0  0  0  0  0  0  0  0  0  0  0
  140.9900   70.7090  221.0270 H   0  0  0  0  0  0  0  0  0  0  0  0
  141.5135   71.9562  219.1139 H   0  0  0  0  0  0  0  0  0  0  0  0
  140.0151   72.9177  219.5399 H   0  0  0  0  0  0  0  0  0  0  0  0
  140.3917   74.5592  218.0373 H   0  0  0  0  0  0  0  0  0  0  0  0
  139.4912   75.6430  219.0224 H   0  0  0  0  0  0  0  0  0  0  0  0
  142.2599   76.2068  217.6263 H   0  0  0  0  0  0  0  0  0  0  0  0
  140.8344   77.0956  217.2707 H   0  0  0  0  0  0  0  0  0  0  0  0
  140.7134   77.9674  219.6785 H   0  0  0  0  0  0  0  0  0  0  0  0
  143.4250   77.9360  219.4840 H   0  0  0  0  0  0  0  0  0  0  0  0
  142.9221   76.3555  220.7884 H   0  0  0  0  0  0  0  0  0  0  0  0
  139.9618   76.3093  221.4320 H   0  0  0  0  0  0  0  0  0  0  0  0
  141.4365   75.9777  222.4956 H   0  0  0  0  0  0  0  0  0  0  0  0
  143.5168   78.6554  222.3045 H   0  0  0  0  0  0  0  0  0  0  0  0
  144.2191   80.7892  223.3351 H   0  0  0  0  0  0  0  0  0  0  0  0
  142.5114   82.2739  224.2942 H   0  0  0  0  0  0  0  0  0  0  0  0
  140.1381   81.6843  224.2549 H   0  0  0  0  0  0  0  0  0  0  0  0
  139.4278   79.5629  223.2329 H   0  0  0  0  0  0  0  0  0  0  0  0
  138.9233   69.9147  222.3222 H   0  0  0  0  0  0  0  0  0  0  0  0
  138.6449   68.5014  224.3449 H   0  0  0  0  0  0  0  0  0  0  0  0
  139.0520   68.0962  226.7527 H   0  0  0  0  0  0  0  0  0  0  0  0
  141.3285   71.0189  228.9514 H   0  0  0  0  0  0  0  0  0  0  0  0
  141.5817   72.4038  226.8806 H   0  0  0  0  0  0  0  0  0  0  0  0
  1  2  2  0
  2  3  1  0
  3  4  1  0
  4  5  1  0
  5  6  2  0
  5  7  1  0
  7  8  1  0
  8  9  1  0
  9 10  1  0
 10 11  1  0
 10 12  1  0
 12 13  1  0
 13 14  1  0
 14 15  1  0
 15 16  2  0
 16 17  1  0
 17 18  2  0
 18 19  1  0
 19 20  2  0
  2 21  1  0
 21 22  2  0
 22 23  1  0
 23 24  2  0
 24 25  1  0
 25 26  2  0
 26 27  1  0
 26 28  1  0
 28 29  2  0
 29 30  1  0
 30 31  2  0
 12  7  1  0
 20 15  1  0
 31 21  1  0
 30 24  1  0
  3 32  1  0
  4 33  1  0
  4 34  1  0
  8 35  1  0
  8 36  1  0
  9 37  1  0
  9 38  1  0
 10 39  1  1
 11 40  1  0
 12 41  1  1
 13 42  1  0
 13 43  1  0
 16 44  1  0
 17 45  1  0
 18 46  1  0
 19 47  1  0
 20 48  1  0
 22 49  1  0
 23 50  1  0
 25 51  1  0
 28 52  1  0
 29 53  1  0
M  END
>  <smiles>  (1) 
O=C(NCC(=O)N1CC[C@H](O)[C@H]1COc1ccccc1)c1ccc2cc(F)ccc2n1

>  <score_type>  (1) 
oracle

>  <origin>  (1) 
autodockgpu

>  <m_score__min__energy>  (1) 
-8.8599999999999994

>  <m_primary>  (1) 
energy

>  <rmsd>  (1) 
2.3586678492468915

>  <m_score__min__rmsd>  (1) 
2.3586678492468915

>  <meeko>  (1) 
{"free_energy": -8.32, "intermolecular_energy": -10.71, "internal_energy": -1.29, "cluster_size": 20, "cluster_id": 1, "rank_in_cluster": 8}

>  <energy>  (1) 
-8.86

>  <cluster_rmsd>  (1) 
0.0

>  <cluster>  (1) 
1

$$$$

     RDKit          3D

 53 56  0  0  0  0  0  0  0  0999 V2000
  139.2050   74.3260  222.3480 O   0  0  0  0  0  0  0  0  0  0  0  0
  139.9570   74.9340  221.5520 C   0  0  0  0  0  0  0  0  0  0  0  0
  140.6930   74.2600  220.5510 N   0  0  0  0  0  0  0  0  0  0  0  0
  140.6180   72.8310  220.3890 C   0  0  0  0  0  0  0  0  0  0  0  0
  141.8680   72.2170  219.9570 C   0  0  0  0  0  0  0  0  0  0  0  0
  142.0650   70.9900  220.2460 O   0  0  0  0  0  0  0  0  0  0  0  0
  142.9080   72.8550  219.2400 N   0  0  0  0  0  0  0  0  0  0  0  0
  142.8360   73.0380  217.7790 C   0  0  0  0  0  0  0  0  0  0  0  0
  144.2660   72.5800  217.4330 C   0  0  0  0  0  0  0  0  0  0  0  0
  145.0150   73.4500  218.4600 C   0  0  2  0  0  0  0  0  0  0  0  0
  146.3060   73.0420  218.6260 O   0  0  0  0  0  0  0  0  0  0  0  0
  144.1680   73.4210  219.7160 C   0  0  1  0  0  0  0  0  0  0  0  0
  143.9030   74.8480  220.2260 C   0  0  0  0  0  0  0  0  0  0  0  0
  143.2390   75.6400  219.4140 O   0  0  0  0  0  0  0  0  0  0  0  0
  142.8650   76.7440  218.8390 C   0  0  0  0  0  0  0  0  0  0  0  0
  142.3230   77.8550  219.4700 C   0  0  0  0  0  0  0  0  0  0  0  0
  141.9460   78.9970  218.7920 C   0  0  0  0  0  0  0  0  0  0  0  0
  142.1180   79.0280  217.4410 C   0  0  0  0  0  0  0  0  0  0  0  0
  142.6410   77.9840  216.7520 C   0  0  0  0  0  0  0  0  0  0  0  0
  143.0100   76.8570  217.4370 C   0  0  0  0  0  0  0  0  0  0  0  0
  140.0740   76.3980  221.6700 C   0  0  0  0  0  0  0  0  0  0  0  0
  139.2410   77.2420  220.9730 C   0  0  0  0  0  0  0  0  0  0  0  0
  139.4160   78.6090  221.1390 C   0  0  0  0  0  0  0  0  0  0  0  0
  140.3820   79.1430  221.9650 C   0  0  0  0  0  0  0  0  0  0  0  0
  140.5760   80.4820  222.1460 C   0  0  0  0  0  0  0  0  0  0  0  0
  141.5710   80.9170  222.9940 C   0  0  0  0  0  0  0  0  0  0  0  0
  141.8230   82.2290  223.2240 F   0  0  0  0  0  0  0  0  0  0  0  0
  142.3820   80.0090  223.6700 C   0  0  0  0  0  0  0  0  0  0  0  0
  142.2000   78.6510  223.5000 C   0  0  0  0  0  0  0  0  0  0  0  0
  141.1930   78.2590  222.6420 C   0  0  0  0  0  0  0  0  0  0  0  0
  141.0090   76.9410  222.4680 N   0  0  0  0  0  0  0  0  0  0  0  0
  141.3020   74.8530  219.9230 H   0  0  0  0  0  0  0  0  0  0  0  0
  140.3304   72.3881  221.3539 H   0  0  0  0  0  0  0  0  0  0  0  0
  139.8786   72.6386  219.5976 H   0  0  0  0  0  0  0  0  0  0  0  0
  142.0704   72.3978  217.3164 H   0  0  0  0  0  0  0  0  0  0  0  0
  142.5546   74.0433  217.4323 H   0  0  0  0  0  0  0  0  0  0  0  0
  144.4145   71.5044  217.6090 H   0  0  0  0  0  0  0  0  0  0  0  0
  144.5724   72.6957  216.3829 H   0  0  0  0  0  0  0  0  0  0  0  0
  145.1315   74.4913  218.1252 H   0  0  0  0  0  0  0  0  0  0  0  0
  146.8920   73.8290  218.7160 H   0  0  0  0  0  0  0  0  0  0  0  0
  144.6423   72.8632  220.5369 H   0  0  0  0  0  0  0  0  0  0  0  0
  143.3296   74.7691  221.1614 H   0  0  0  0  0  0  0  0  0  0  0  0
  144.8952   75.3088  220.3409 H   0  0  0  0  0  0  0  0  0  0  0  0
  142.1875   77.8242  220.5612 H   0  0  0  0  0  0  0  0  0  0  0  0
  141.5188   79.8576  219.3276 H   0  0  0  0  0  0  0  0  0  0  0  0
  141.8219   79.9324  216.8893 H   0  0  0  0  0  0  0  0  0  0  0  0
  142.7669   78.0413  215.6607 H   0  0  0  0  0  0  0  0  0  0  0  0
  143.4339   76.0103  216.8771 H   0  0  0  0  0  0  0  0  0  0  0  0
  138.4612   76.8464  220.3056 H   0  0  0  0  0  0  0  0  0  0  0  0
  138.7560   79.2952  220.5882 H   0  0  0  0  0  0  0  0  0  0  0  0
  139.9418   81.2093  221.6180 H   0  0  0  0  0  0  0  0  0  0  0  0
  143.1714   80.3755  224.3427 H   0  0  0  0  0  0  0  0  0  0  0  0
  142.8284   77.9159  224.0241 H   0  0  0  0  0  0  0  0  0  0  0  0
  1  2  2  0
  2  3  1  0
  3  4  1  0
  4  5  1  0
  5  6  2  0
  5  7  1  0
  7  8  1  0
  8  9  1  0
  9 10  1  0
 10 11  1  0
 10 12  1  0
 12 13  1  0
 13 14  1  0
 14 15  1  0
 15 16  2  0
 16 17  1  0
 17 18  2  0
 18 19  1  0
 19 20  2  0
  2 21  1  0
 21 22  2  0
 22 23  1  0
 23 24  2  0
 24 25  1  0
 25 26  2  0
 26 27  1  0
 26 28  1  0
 28 29  2  0
 29 30  1  0
 30 31  2  0
 12  7  1  0
 20 15  1  0
 31 21  1  0
 30 24  1  0
  3 32  1  0
  4 33  1  0
  4 34  1  0
  8 35  1  0
  8 36  1  0
  9 37  1  0
  9 38  1  0
 10 39  1  6
 11 40  1  0
 12 41  1  1
 13 42  1  0
 13 43  1  0
 16 44  1  0
 17 45  1  0
 18 46  1  0
 19 47  1  0
 20 48  1  0
 22 49  1  0
 23 50  1  0
 25 51  1  0
 28 52  1  0
 29 53  1  0
M  END
>  <smiles>  (2) 
O=C(NCC(=O)N1CC[C@H](O)[C@H]1COc1ccccc1)c1ccc2cc(F)ccc2n1

>  <score_type>  (2) 
oracle

>  <origin>  (2) 
autodockgpu

>  <m_score__min__energy>  (2) 
-8.8599999999999994

>  <m_primary>  (2) 
energy

>  <rmsd>  (2) 
7.516015782721577

>  <m_score__min__rmsd>  (2) 
7.516015782721577

>  <meeko>  (2) 
{"free_energy": -6.22, "intermolecular_energy": -8.6, "internal_energy": -3.18, "cluster_size": 7, "cluster_id": 3, "rank_in_cluster": 4}

>  <energy>  (2) 
-8.79

>  <cluster_rmsd>  (2) 
0.34

>  <cluster>  (2) 
1

$$$$

     RDKit          3D

 53 56  0  0  0  0  0  0  0  0999 V2000
  138.8370   70.6930  221.4400 O   0  0  0  0  0  0  0  0  0  0  0  0
  139.1560   71.2290  222.5270 C   0  0  0  0  0  0  0  0  0  0  0  0
  139.3210   72.6270  222.6550 N   0  0  0  0  0  0  0  0  0  0  0  0
  139.1300   73.5170  221.5400 C   0  0  0  0  0  0  0  0  0  0  0  0
  139.9430   74.7260  221.6000 C   0  0  0  0  0  0  0  0  0  0  0  0
  139.7870   75.5050  222.5990 O   0  0  0  0  0  0  0  0  0  0  0  0
  140.9050   75.1350  220.6460 N   0  0  0  0  0  0  0  0  0  0  0  0
  141.1570   74.3510  219.4230 C   0  0  0  0  0  0  0  0  0  0  0  0
  142.6970   74.3680  219.4700 C   0  0  0  0  0  0  0  0  0  0  0  0
  142.8820   75.8820  219.6780 C   0  0  2  0  0  0  0  0  0  0  0  0
  144.1500   76.1890  220.0790 O   0  0  0  0  0  0  0  0  0  0  0  0
  141.7890   76.2980  220.6420 C   0  0  1  0  0  0  0  0  0  0  0  0
  141.0090   77.5040  220.0890 C   0  0  0  0  0  0  0  0  0  0  0  0
  140.9310   78.5550  220.8740 O   0  0  0  0  0  0  0  0  0  0  0  0
  141.2500   79.3770  221.8300 C   0  0  0  0  0  0  0  0  0  0  0  0
  140.4050   80.2920  222.4400 C   0  0  0  0  0  0  0  0  0  0  0  0
  140.8150   81.1370  223.4520 C   0  0  0  0  0  0  0  0  0  0  0  0
  142.1110   81.0620  223.8660 C   0  0  0  0  0  0  0  0  0  0  0  0
  142.9980   80.1940  223.3190 C   0  0  0  0  0  0  0  0  0  0  0  0
  142.5780   79.3630  222.3160 C   0  0  0  0  0  0  0  0  0  0  0  0
  139.3660   70.3680  223.7030 C   0  0  0  0  0  0  0  0  0  0  0  0
  138.9680   69.0500  223.7070 C   0  0  0  0  0  0  0  0  0  0  0  0
  139.2030   68.3060  224.8550 C   0  0  0  0  0  0  0  0  0  0  0  0
  139.8080   68.8320  225.9760 C   0  0  0  0  0  0  0  0  0  0  0  0
  140.0490   68.1230  227.1170 C   0  0  0  0  0  0  0  0  0  0  0  0
  140.6620   68.7400  228.1860 C   0  0  0  0  0  0  0  0  0  0  0  0
  140.9340   68.1020  229.3500 F   0  0  0  0  0  0  0  0  0  0  0  0
  141.0390   70.0800  228.1180 C   0  0  0  0  0  0  0  0  0  0  0  0
  140.8040   70.8120  226.9710 C   0  0  0  0  0  0  0  0  0  0  0  0
  140.1880   70.1550  225.9260 C   0  0  0  0  0  0  0  0  0  0  0  0
  139.9540   70.8590  224.8080 N   0  0  0  0  0  0  0  0  0  0  0  0
  139.5920   72.9910  223.6090 H   0  0  0  0  0  0  0  0  0  0  0  0
  139.3840   72.9748  220.6172 H   0  0  0  0  0  0  0  0  0  0  0  0
  138.0785   73.8390  221.5663 H   0  0  0  0  0  0  0  0  0  0  0  0
  140.7494   73.3315  219.4904 H   0  0  0  0  0  0  0  0  0  0  0  0
  140.6982   74.7357  218.5002 H   0  0  0  0  0  0  0  0  0  0  0  0
  143.0958   73.7793  220.3093 H   0  0  0  0  0  0  0  0  0  0  0  0
  143.2136   73.9309  218.6028 H   0  0  0  0  0  0  0  0  0  0  0  0
  142.7788   76.4517  218.7427 H   0  0  0  0  0  0  0  0  0  0  0  0
  144.1980   77.1440  220.3160 H   0  0  0  0  0  0  0  0  0  0  0  0
  142.1781   76.5838  221.6304 H   0  0  0  0  0  0  0  0  0  0  0  0
  141.4964   77.8188  219.1545 H   0  0  0  0  0  0  0  0  0  0  0  0
  139.9741   77.1527  219.9645 H   0  0  0  0  0  0  0  0  0  0  0  0
  139.3597   80.3471  222.1019 H   0  0  0  0  0  0  0  0  0  0  0  0
  140.1151   81.8507  223.9111 H   0  0  0  0  0  0  0  0  0  0  0  0
  142.4498   81.7290  224.6724 H   0  0  0  0  0  0  0  0  0  0  0  0
  144.0380   80.1585  223.6757 H   0  0  0  0  0  0  0  0  0  0  0  0
  143.2983   78.6598  221.8725 H   0  0  0  0  0  0  0  0  0  0  0  0
  138.4798   68.6013  222.8293 H   0  0  0  0  0  0  0  0  0  0  0  0
  138.8929   67.2507  224.8707 H   0  0  0  0  0  0  0  0  0  0  0  0
  139.7556   67.0649  227.1830 H   0  0  0  0  0  0  0  0  0  0  0  0
  141.5258   70.5565  228.9817 H   0  0  0  0  0  0  0  0  0  0  0  0
  141.0946   71.8701  226.8941 H   0  0  0  0  0  0  0  0  0  0  0  0
  1  2  2  0
  2  3  1  0
  3  4  1  0
  4  5  1  0
  5  6  2  0
  5  7  1  0
  7  8  1  0
  8  9  1  0
  9 10  1  0
 10 11  1  0
 10 12  1  0
 12 13  1  0
 13 14  1  0
 14 15  1  0
 15 16  2  0
 16 17  1  0
 17 18  2  0
 18 19  1  0
 19 20  2  0
  2 21  1  0
 21 22  2  0
 22 23  1  0
 23 24  2  0
 24 25  1  0
 25 26  2  0
 26 27  1  0
 26 28  1  0
 28 29  2  0
 29 30  1  0
 30 31  2  0
 12  7  1  0
 20 15  1  0
 31 21  1  0
 30 24  1  0
  3 32  1  0
  4 33  1  0
  4 34  1  0
  8 35  1  0
  8 36  1  0
  9 37  1  0
  9 38  1  0
 10 39  1  6
 11 40  1  0
 12 41  1  1
 13 42  1  0
 13 43  1  0
 16 44  1  0
 17 45  1  0
 18 46  1  0
 19 47  1  0
 20 48  1  0
 22 49  1  0
 23 50  1  0
 25 51  1  0
 28 52  1  0
 29 53  1  0
M  END
>  <smiles>  (3) 
O=C(NCC(=O)N1CC[C@H](O)[C@H]1COc1ccccc1)c1ccc2cc(F)ccc2n1

>  <score_type>  (3) 
oracle

>  <origin>  (3) 
autodockgpu

>  <m_score__min__energy>  (3) 
-8.8599999999999994

>  <m_primary>  (3) 
energy

>  <rmsd>  (3) 
1.9760723009495236

>  <m_score__min__rmsd>  (3) 
1.9760723009495236

>  <meeko>  (3) 
{"free_energy": -8.5, "intermolecular_energy": -10.88, "internal_energy": -1.61, "cluster_size": 20, "cluster_id": 1, "rank_in_cluster": 3}

>  <energy>  (3) 
-8.5

>  <cluster_rmsd>  (3) 
0.91

>  <cluster>  (3) 
1

$$$$

     RDKit          3D

 53 56  0  0  0  0  0  0  0  0999 V2000
  143.0670   75.1370  218.2070 O   0  0  0  0  0  0  0  0  0  0  0  0
  143.0500   75.5720  219.3820 C   0  0  0  0  0  0  0  0  0  0  0  0
  143.4350   74.7760  220.4830 N   0  0  0  0  0  0  0  0  0  0  0  0
  143.8710   73.4130  220.3170 C   0  0  0  0  0  0  0  0  0  0  0  0
  142.8220   72.4240  220.5400 C   0  0  0  0  0  0  0  0  0  0  0  0
  143.1400   71.1890  220.4860 O   0  0  0  0  0  0  0  0  0  0  0  0
  141.4610   72.6980  220.8120 N   0  0  0  0  0  0  0  0  0  0  0  0
  140.4480   72.7100  219.7410 C   0  0  0  0  0  0  0  0  0  0  0  0
  139.7300   74.0140  220.1380 C   0  0  0  0  0  0  0  0  0  0  0  0
  139.5250   73.6930  221.6300 C   0  0  2  0  0  0  0  0  0  0  0  0
  139.1860   74.8030  222.3460 O   0  0  0  0  0  0  0  0  0  0  0  0
  140.8000   73.0070  222.0780 C   0  0  1  0  0  0  0  0  0  0  0  0
  140.4800   71.6860  222.8000 C   0  0  0  0  0  0  0  0  0  0  0  0
  140.7540   71.6460  224.0850 O   0  0  0  0  0  0  0  0  0  0  0  0
  140.6660   71.2810  225.3290 C   0  0  0  0  0  0  0  0  0  0  0  0
  141.2000   71.9500  226.4210 C   0  0  0  0  0  0  0  0  0  0  0  0
  141.0670   71.5000  227.7190 C   0  0  0  0  0  0  0  0  0  0  0  0
  140.3780   70.3440  227.9310 C   0  0  0  0  0  0  0  0  0  0  0  0
  139.8260   69.6330  226.9170 C   0  0  0  0  0  0  0  0  0  0  0  0
  139.9660   70.0900  225.6340 C   0  0  0  0  0  0  0  0  0  0  0  0
  142.6130   76.9600  219.6140 C   0  0  0  0  0  0  0  0  0  0  0  0
  142.6090   77.8890  218.5990 C   0  0  0  0  0  0  0  0  0  0  0  0
  142.1820   79.1750  218.9000 C   0  0  0  0  0  0  0  0  0  0  0  0
  141.7710   79.5500  220.1610 C   0  0  0  0  0  0  0  0  0  0  0  0
  141.3480   80.8070  220.4830 C   0  0  0  0  0  0  0  0  0  0  0  0
  140.9560   81.0830  221.7760 C   0  0  0  0  0  0  0  0  0  0  0  0
  140.5240   82.3060  222.1710 F   0  0  0  0  0  0  0  0  0  0  0  0
  140.9860   80.0960  222.7580 C   0  0  0  0  0  0  0  0  0  0  0  0
  141.4100   78.8190  222.4490 C   0  0  0  0  0  0  0  0  0  0  0  0
  141.7930   78.5870  221.1450 C   0  0  0  0  0  0  0  0  0  0  0  0
  142.2090   77.3490  220.8350 N   0  0  0  0  0  0  0  0  0  0  0  0
  143.3900   75.2250  221.4390 H   0  0  0  0  0  0  0  0  0  0  0  0
  144.2475   73.2927  219.2905 H   0  0  0  0  0  0  0  0  0  0  0  0
  144.6463   73.2318  221.0760 H   0  0  0  0  0  0  0  0  0  0  0  0
  140.9006   72.7718  218.7403 H   0  0  0  0  0  0  0  0  0  0  0  0
  139.8143   71.8140  219.6664 H   0  0  0  0  0  0  0  0  0  0  0  0
  140.3613   74.9017  219.9847 H   0  0  0  0  0  0  0  0  0  0  0  0
  138.8235   74.2618  219.5663 H   0  0  0  0  0  0  0  0  0  0  0  0
  138.6707   73.0224  221.8045 H   0  0  0  0  0  0  0  0  0  0  0  0
  138.5730   74.5490  223.0750 H   0  0  0  0  0  0  0  0  0  0  0  0
  141.3951   73.6223  222.7688 H   0  0  0  0  0  0  0  0  0  0  0  0
  139.4043   71.4899  222.6799 H   0  0  0  0  0  0  0  0  0  0  0  0
  141.1323   70.9314  222.3362 H   0  0  0  0  0  0  0  0  0  0  0  0
  141.7554   72.8828  226.2439 H   0  0  0  0  0  0  0  0  0  0  0  0
  141.5051   72.0592  228.5589 H   0  0  0  0  0  0  0  0  0  0  0  0
  140.2656   69.9745  228.9610 H   0  0  0  0  0  0  0  0  0  0  0  0
  139.2744   68.7036  227.1219 H   0  0  0  0  0  0  0  0  0  0  0  0
  139.5189   69.5113  224.8123 H   0  0  0  0  0  0  0  0  0  0  0  0
  142.9335   77.6214  217.5826 H   0  0  0  0  0  0  0  0  0  0  0  0
  142.1712   79.9273  218.0975 H   0  0  0  0  0  0  0  0  0  0  0  0
  141.3200   81.5950  219.7160 H   0  0  0  0  0  0  0  0  0  0  0  0
  140.6705   80.3349  223.7843 H   0  0  0  0  0  0  0  0  0  0  0  0
  141.4408   78.0234  223.2080 H   0  0  0  0  0  0  0  0  0  0  0  0
  1  2  2  0
  2  3  1  0
  3  4  1  0
  4  5  1  0
  5  6  2  0
  5  7  1  0
  7  8  1  0
  8  9  1  0
  9 10  1  0
 10 11  1  0
 10 12  1  0
 12 13  1  0
 13 14  1  0
 14 15  1  0
 15 16  2  0
 16 17  1  0
 17 18  2  0
 18 19  1  0
 19 20  2  0
  2 21  1  0
 21 22  2  0
 22 23  1  0
 23 24  2  0
 24 25  1  0
 25 26  2  0
 26 27  1  0
 26 28  1  0
 28 29  2  0
 29 30  1  0
 30 31  2  0
 12  7  1  0
 20 15  1  0
 31 21  1  0
 30 24  1  0
  3 32  1  0
  4 33  1  0
  4 34  1  0
  8 35  1  0
  8 36  1  0
  9 37  1  0
  9 38  1  0
 10 39  1  6
 11 40  1  0
 12 41  1  1
 13 42  1  0
 13 43  1  0
 16 44  1  0
 17 45  1  0
 18 46  1  0
 19 47  1  0
 20 48  1  0
 22 49  1  0
 23 50  1  0
 25 51  1  0
 28 52  1  0
 29 53  1  0
M  END
>  <smiles>  (4) 
O=C(NCC(=O)N1CC[C@H](O)[C@H]1COc1ccccc1)c1ccc2cc(F)ccc2n1

>  <score_type>  (4) 
oracle

>  <origin>  (4) 
autodockgpu

>  <m_score__min__energy>  (4) 
-8.8599999999999994

>  <m_primary>  (4) 
energy

>  <rmsd>  (4) 
8.541367780523698

>  <m_score__min__rmsd>  (4) 
8.541367780523698

>  <meeko>  (4) 
{"free_energy": -7.9, "intermolecular_energy": -10.28, "internal_energy": -1.79, "cluster_size": 7, "cluster_id": 3, "rank_in_cluster": 1}

>  <energy>  (4) 
-8.43

>  <cluster_rmsd>  (4) 
1.15

>  <cluster>  (4) 
1

$$$$

     RDKit          3D

 53 56  0  0  0  0  0  0  0  0999 V2000
  133.7820   69.8110  226.4660 O   0  0  0  0  0  0  0  0  0  0  0  0
  134.0880   70.9520  226.0490 C   0  0  0  0  0  0  0  0  0  0  0  0
  135.1300   71.1570  225.1170 N   0  0  0  0  0  0  0  0  0  0  0  0
  135.9010   70.0600  224.5910 C   0  0  0  0  0  0  0  0  0  0  0  0
  137.1380   70.4660  223.9330 C   0  0  0  0  0  0  0  0  0  0  0  0
  137.3900   71.7150  223.8480 O   0  0  0  0  0  0  0  0  0  0  0  0
  138.1060   69.6030  223.3670 N   0  0  0  0  0  0  0  0  0  0  0  0
  139.1080   70.0950  222.4040 C   0  0  0  0  0  0  0  0  0  0  0  0
  138.9820   68.9650  221.3650 C   0  0  0  0  0  0  0  0  0  0  0  0
  139.1060   67.7750  222.3360 C   0  0  2  0  0  0  0  0  0  0  0  0
  138.7150   66.6040  221.7560 O   0  0  0  0  0  0  0  0  0  0  0  0
  138.3210   68.1720  223.5700 C   0  0  1  0  0  0  0  0  0  0  0  0
  139.1700   67.9790  224.8380 C   0  0  0  0  0  0  0  0  0  0  0  0
  139.8220   69.0370  225.2670 O   0  0  0  0  0  0  0  0  0  0  0  0
  140.1970   69.9780  226.0810 C   0  0  0  0  0  0  0  0  0  0  0  0
  141.0110   71.0570  225.7680 C   0  0  0  0  0  0  0  0  0  0  0  0
  141.3710   72.0210  226.6880 C   0  0  0  0  0  0  0  0  0  0  0  0
  140.9010   71.9010  227.9610 C   0  0  0  0  0  0  0  0  0  0  0  0
  140.1010   70.8750  228.3450 C   0  0  0  0  0  0  0  0  0  0  0  0
  139.7530   69.9260  227.4220 C   0  0  0  0  0  0  0  0  0  0  0  0
  133.3340   72.1130  226.5530 C   0  0  0  0  0  0  0  0  0  0  0  0
  132.1280   71.9590  227.1980 C   0  0  0  0  0  0  0  0  0  0  0  0
  131.4810   73.1040  227.6420 C   0  0  0  0  0  0  0  0  0  0  0  0
  131.9940   74.3700  227.4620 C   0  0  0  0  0  0  0  0  0  0  0  0
  131.3780   75.5110  227.8890 C   0  0  0  0  0  0  0  0  0  0  0  0
  131.9730   76.7330  227.6610 C   0  0  0  0  0  0  0  0  0  0  0  0
  131.4230   77.9080  228.0540 F   0  0  0  0  0  0  0  0  0  0  0  0
  133.1960   76.8200  227.0000 C   0  0  0  0  0  0  0  0  0  0  0  0
  133.8340   75.6760  226.5620 C   0  0  0  0  0  0  0  0  0  0  0  0
  133.2030   74.4750  226.8110 C   0  0  0  0  0  0  0  0  0  0  0  0
  133.8150   73.3580  226.3880 N   0  0  0  0  0  0  0  0  0  0  0  0
  135.3190   72.1530  224.8210 H   0  0  0  0  0  0  0  0  0  0  0  0
  136.1564   69.3866  225.4225 H   0  0  0  0  0  0  0  0  0  0  0  0
  135.2791   69.5717  223.8263 H   0  0  0  0  0  0  0  0  0  0  0  0
  138.8379   71.0763  221.9868 H   0  0  0  0  0  0  0  0  0  0  0  0
  140.1170   70.2706  222.8054 H   0  0  0  0  0  0  0  0  0  0  0  0
  138.0124   68.9812  220.8458 H   0  0  0  0  0  0  0  0  0  0  0  0
  139.7008   68.9889  220.5327 H   0  0  0  0  0  0  0  0  0  0  0  0
  140.1484   67.5680  222.6199 H   0  0  0  0  0  0  0  0  0  0  0  0
  138.3740   65.9920  222.4490 H   0  0  0  0  0  0  0  0  0  0  0  0
  137.4014   67.5822  223.6984 H   0  0  0  0  0  0  0  0  0  0  0  0
  138.4986   67.6489  225.6443 H   0  0  0  0  0  0  0  0  0  0  0  0
  139.9443   67.2469  224.5650 H   0  0  0  0  0  0  0  0  0  0  0  0
  141.3872   71.1486  224.7384 H   0  0  0  0  0  0  0  0  0  0  0  0
  142.0191   72.8623  226.4014 H   0  0  0  0  0  0  0  0  0  0  0  0
  141.1800   72.6629  228.7037 H   0  0  0  0  0  0  0  0  0  0  0  0
  139.7379   70.8068  229.3811 H   0  0  0  0  0  0  0  0  0  0  0  0
  139.1052   69.0938  227.7347 H   0  0  0  0  0  0  0  0  0  0  0  0
  131.6914   70.9618  227.3564 H   0  0  0  0  0  0  0  0  0  0  0  0
  130.5167   72.9959  228.1601 H   0  0  0  0  0  0  0  0  0  0  0  0
  130.4120   75.4553  228.4122 H   0  0  0  0  0  0  0  0  0  0  0  0
  133.6557   77.8041  226.8261 H   0  0  0  0  0  0  0  0  0  0  0  0
  134.8006   75.7206  226.0388 H   0  0  0  0  0  0  0  0  0  0  0  0
  1  2  2  0
  2  3  1  0
  3  4  1  0
  4  5  1  0
  5  6  2  0
  5  7  1  0
  7  8  1  0
  8  9  1  0
  9 10  1  0
 10 11  1  0
 10 12  1  0
 12 13  1  0
 13 14  1  0
 14 15  1  0
 15 16  2  0
 16 17  1  0
 17 18  2  0
 18 19  1  0
 19 20  2  0
  2 21  1  0
 21 22  2  0
 22 23  1  0
 23 24  2  0
 24 25  1  0
 25 26  2  0
 26 27  1  0
 26 28  1  0
 28 29  2  0
 29 30  1  0
 30 31  2  0
 12  7  1  0
 20 15  1  0
 31 21  1  0
 30 24  1  0
  3 32  1  0
  4 33  1  0
  4 34  1  0
  8 35  1  0
  8 36  1  0
  9 37  1  0
  9 38  1  0
 10 39  1  1
 11 40  1  0
 12 41  1  1
 13 42  1  0
 13 43  1  0
 16 44  1  0
 17 45  1  0
 18 46  1  0
 19 47  1  0
 20 48  1  0
 22 49  1  0
 23 50  1  0
 25 51  1  0
 28 52  1  0
 29 53  1  0
M  END
>  <smiles>  (5) 
O=C(NCC(=O)N1CC[C@H](O)[C@H]1COc1ccccc1)c1ccc2cc(F)ccc2n1

>  <score_type>  (5) 
oracle

>  <origin>  (5) 
autodockgpu

>  <m_score__min__energy>  (5) 
-8.8599999999999994

>  <m_primary>  (5) 
energy

>  <rmsd>  (5) 
8.906032160454314

>  <m_score__min__rmsd>  (5) 
8.906032160454314

>  <meeko>  (5) 
{"free_energy": -7.25, "intermolecular_energy": -9.64, "internal_energy": -2.22, "cluster_size": 1, "cluster_id": 8, "rank_in_cluster": 1}

>  <energy>  (5) 
-8.39

>  <cluster_rmsd>  (5) 
0.95

>  <cluster>  (5) 
1

$$$$

     RDKit          3D

 53 56  0  0  0  0  0  0  0  0999 V2000
  138.5380   75.1340  222.0820 O   0  0  0  0  0  0  0  0  0  0  0  0
  139.6680   75.6450  221.9020 C   0  0  0  0  0  0  0  0  0  0  0  0
  140.7020   74.9620  221.2230 N   0  0  0  0  0  0  0  0  0  0  0  0
  140.5140   73.6340  220.6970 C   0  0  0  0  0  0  0  0  0  0  0  0
  141.6810   72.7700  220.8390 C   0  0  0  0  0  0  0  0  0  0  0  0
  141.5640   71.7150  221.5470 O   0  0  0  0  0  0  0  0  0  0  0  0
  142.9560   72.9880  220.2640 N   0  0  0  0  0  0  0  0  0  0  0  0
  143.6910   71.9040  219.5880 C   0  0  0  0  0  0  0  0  0  0  0  0
  145.0710   72.1460  220.2300 C   0  0  0  0  0  0  0  0  0  0  0  0
  145.1610   73.6600  219.9630 C   0  0  2  0  0  0  0  0  0  0  0  0
  146.1470   74.2480  220.6990 O   0  0  0  0  0  0  0  0  0  0  0  0
  143.7670   74.2020  220.2110 C   0  0  1  0  0  0  0  0  0  0  0  0
  143.2970   75.0550  219.0200 C   0  0  0  0  0  0  0  0  0  0  0  0
  142.6590   76.1650  219.3170 O   0  0  0  0  0  0  0  0  0  0  0  0
  142.0950   77.3210  219.1340 C   0  0  0  0  0  0  0  0  0  0  0  0
  140.7870   77.6560  219.4520 C   0  0  0  0  0  0  0  0  0  0  0  0
  140.2530   78.9090  219.2270 C   0  0  0  0  0  0  0  0  0  0  0  0
  141.0550   79.8570  218.6650 C   0  0  0  0  0  0  0  0  0  0  0  0
  142.3440   79.6080  218.3260 C   0  0  0  0  0  0  0  0  0  0  0  0
  142.8590   78.3600  218.5540 C   0  0  0  0  0  0  0  0  0  0  0  0
  139.9180   77.0020  222.4180 C   0  0  0  0  0  0  0  0  0  0  0  0
  138.8900   77.7970  222.8720 C   0  0  0  0  0  0  0  0  0  0  0  0
  139.2100   79.0630  223.3430 C   0  0  0  0  0  0  0  0  0  0  0  0
  140.5010   79.5450  223.3710 C   0  0  0  0  0  0  0  0  0  0  0  0
  140.8420   80.7850  223.8280 C   0  0  0  0  0  0  0  0  0  0  0  0
  142.1640   81.1760  223.8140 C   0  0  0  0  0  0  0  0  0  0  0  0
  142.5800   82.3900  224.2510 F   0  0  0  0  0  0  0  0  0  0  0  0
  143.1570   80.3230  223.3400 C   0  0  0  0  0  0  0  0  0  0  0  0
  142.8300   79.0640  222.8750 C   0  0  0  0  0  0  0  0  0  0  0  0
  141.4960   78.7140  222.9060 C   0  0  0  0  0  0  0  0  0  0  0  0
  141.1680   77.4940  222.4540 N   0  0  0  0  0  0  0  0  0  0  0  0
  141.6220   75.4700  221.1170 H   0  0  0  0  0  0  0  0  0  0  0  0
  139.6713   73.1674  221.2281 H   0  0  0  0  0  0  0  0  0  0  0  0
  140.3266   73.7419  219.6185 H   0  0  0  0  0  0  0  0  0  0  0  0
  143.2863   70.9108  219.8326 H   0  0  0  0  0  0  0  0  0  0  0  0
  143.6621   71.9144  218.4884 H   0  0  0  0  0  0  0  0  0  0  0  0
  145.0791   71.9100  221.3044 H   0  0  0  0  0  0  0  0  0  0  0  0
  145.9000   71.5349  219.8435 H   0  0  0  0  0  0  0  0  0  0  0  0
  145.4613   73.8891  218.9299 H   0  0  0  0  0  0  0  0  0  0  0  0
  146.7180   74.7940  220.1090 H   0  0  0  0  0  0  0  0  0  0  0  0
  143.7083   74.8339  221.1094 H   0  0  0  0  0  0  0  0  0  0  0  0
  144.1850   75.3259  218.4301 H   0  0  0  0  0  0  0  0  0  0  0  0
  142.5681   74.4318  218.4811 H   0  0  0  0  0  0  0  0  0  0  0  0
  140.1446   76.8865  219.9051 H   0  0  0  0  0  0  0  0  0  0  0  0
  139.2102   79.1358  219.4936 H   0  0  0  0  0  0  0  0  0  0  0  0
  140.6419   80.8595  218.4799 H   0  0  0  0  0  0  0  0  0  0  0  0
  142.9657   80.3956  217.8753 H   0  0  0  0  0  0  0  0  0  0  0  0
  143.9041   78.1585  218.2761 H   0  0  0  0  0  0  0  0  0  0  0  0
  137.8493   77.4408  222.8619 H   0  0  0  0  0  0  0  0  0  0  0  0
  138.3987   79.7091  223.7095 H   0  0  0  0  0  0  0  0  0  0  0  0
  140.0668   81.4682  224.2052 H   0  0  0  0  0  0  0  0  0  0  0  0
  144.2063   80.6530  223.3358 H   0  0  0  0  0  0  0  0  0  0  0  0
  143.5978   78.3726  222.4975 H   0  0  0  0  0  0  0  0  0  0  0  0
  1  2  2  0
  2  3  1  0
  3  4  1  0
  4  5  1  0
  5  6  2  0
  5  7  1  0
  7  8  1  0
  8  9  1  0
  9 10  1  0
 10 11  1  0
 10 12  1  0
 12 13  1  0
 13 14  1  0
 14 15  1  0
 15 16  2  0
 16 17  1  0
 17 18  2  0
 18 19  1  0
 19 20  2  0
  2 21  1  0
 21 22  2  0
 22 23  1  0
 23 24  2  0
 24 25  1  0
 25 26  2  0
 26 27  1  0
 26 28  1  0
 28 29  2  0
 29 30  1  0
 30 31  2  0
 12  7  1  0
 20 15  1  0
 31 21  1  0
 30 24  1  0
  3 32  1  0
  4 33  1  0
  4 34  1  0
  8 35  1  0
  8 36  1  0
  9 37  1  0
  9 38  1  0
 10 39  1  6
 11 40  1  0
 12 41  1  1
 13 42  1  0
 13 43  1  0
 16 44  1  0
 17 45  1  0
 18 46  1  0
 19 47  1  0
 20 48  1  0
 22 49  1  0
 23 50  1  0
 25 51  1  0
 28 52  1  0
 29 53  1  0
M  END
>  <smiles>  (6) 
O=C(NCC(=O)N1CC[C@H](O)[C@H]1COc1ccccc1)c1ccc2cc(F)ccc2n1

>  <score_type>  (6) 
oracle

>  <origin>  (6) 
autodockgpu

>  <m_score__min__energy>  (6) 
-8.8599999999999994

>  <m_primary>  (6) 
energy

>  <rmsd>  (6) 
7.730247235139199

>  <m_score__min__rmsd>  (6) 
7.730247235139199

>  <meeko>  (6) 
{"free_energy": -6.27, "intermolecular_energy": -8.65, "internal_energy": -3.23, "cluster_size": 7, "cluster_id": 3, "rank_in_cluster": 3}

>  <energy>  (6) 
-8.35

>  <cluster_rmsd>  (6) 
1.1

>  <cluster>  (6) 
1

$$$$

     RDKit          3D

 53 56  0  0  0  0  0  0  0  0999 V2000
  139.2160   71.3010  221.1050 O   0  0  0  0  0  0  0  0  0  0  0  0
  139.3670   71.8240  222.2330 C   0  0  0  0  0  0  0  0  0  0  0  0
  139.4330   73.2250  222.4090 N   0  0  0  0  0  0  0  0  0  0  0  0
  139.3290   74.1330  221.2970 C   0  0  0  0  0  0  0  0  0  0  0  0
  140.4900   75.0010  221.1300 C   0  0  0  0  0  0  0  0  0  0  0  0
  141.0450   75.4690  222.1800 O   0  0  0  0  0  0  0  0  0  0  0  0
  141.0750   75.3870  219.9000 N   0  0  0  0  0  0  0  0  0  0  0  0
  140.4870   74.9870  218.6090 C   0  0  0  0  0  0  0  0  0  0  0  0
  141.7850   74.5360  217.9110 C   0  0  0  0  0  0  0  0  0  0  0  0
  142.6300   75.7860  218.2200 C   0  0  2  0  0  0  0  0  0  0  0  0
  143.9590   75.5670  218.0000 O   0  0  0  0  0  0  0  0  0  0  0  0
  142.2730   76.1810  219.6390 C   0  0  1  0  0  0  0  0  0  0  0  0
  141.8970   77.6720  219.7080 C   0  0  0  0  0  0  0  0  0  0  0  0
  141.7600   78.1800  220.9130 O   0  0  0  0  0  0  0  0  0  0  0  0
  141.7820   79.0710  221.8580 C   0  0  0  0  0  0  0  0  0  0  0  0
  142.9120   79.5680  222.4920 C   0  0  0  0  0  0  0  0  0  0  0  0
  142.8590   80.5160  223.4930 C   0  0  0  0  0  0  0  0  0  0  0  0
  141.6360   80.9830  223.8720 C   0  0  0  0  0  0  0  0  0  0  0  0
  140.4850   80.5470  223.3010 C   0  0  0  0  0  0  0  0  0  0  0  0
  140.5530   79.6050  222.3100 C   0  0  0  0  0  0  0  0  0  0  0  0
  139.4790   70.9440  223.4090 C   0  0  0  0  0  0  0  0  0  0  0  0
  139.0550   69.6350  223.3680 C   0  0  0  0  0  0  0  0  0  0  0  0
  139.1950   68.8720  224.5190 C   0  0  0  0  0  0  0  0  0  0  0  0
  139.7350   69.3710  225.6850 C   0  0  0  0  0  0  0  0  0  0  0  0
  139.8840   68.6430  226.8290 C   0  0  0  0  0  0  0  0  0  0  0  0
  140.4370   69.2340  227.9460 C   0  0  0  0  0  0  0  0  0  0  0  0
  140.6160   68.5750  229.1170 F   0  0  0  0  0  0  0  0  0  0  0  0
  140.8450   70.5650  227.9210 C   0  0  0  0  0  0  0  0  0  0  0  0
  140.7030   71.3170  226.7720 C   0  0  0  0  0  0  0  0  0  0  0  0
  140.1450   70.6860  225.6790 C   0  0  0  0  0  0  0  0  0  0  0  0
  140.0020   71.4090  224.5570 N   0  0  0  0  0  0  0  0  0  0  0  0
  139.5610   73.5780  223.3970 H   0  0  0  0  0  0  0  0  0  0  0  0
  139.2039   73.5417  220.3779 H   0  0  0  0  0  0  0  0  0  0  0  0
  138.4684   74.7875  221.4994 H   0  0  0  0  0  0  0  0  0  0  0  0
  139.7649   74.1643  218.7173 H   0  0  0  0  0  0  0  0  0  0  0  0
  139.9012   75.7576  218.0865 H   0  0  0  0  0  0  0  0  0  0  0  0
  142.2065   73.6249  218.3607 H   0  0  0  0  0  0  0  0  0  0  0  0
  141.6954   74.2603  216.8499 H   0  0  0  0  0  0  0  0  0  0  0  0
  142.4067   76.6240  217.5434 H   0  0  0  0  0  0  0  0  0  0  0  0
  144.4590   76.4040  218.1470 H   0  0  0  0  0  0  0  0  0  0  0  0
  143.0977   76.0173  220.3482 H   0  0  0  0  0  0  0  0  0  0  0  0
  142.6838   78.2410  219.1911 H   0  0  0  0  0  0  0  0  0  0  0  0
  140.9037   77.7475  219.2415 H   0  0  0  0  0  0  0  0  0  0  0  0
  143.8966   79.1881  222.1818 H   0  0  0  0  0  0  0  0  0  0  0  0
  143.7782   80.8846  223.9718 H   0  0  0  0  0  0  0  0  0  0  0  0
  141.5801   81.7397  224.6684 H   0  0  0  0  0  0  0  0  0  0  0  0
  139.5130   80.9440  223.6290 H   0  0  0  0  0  0  0  0  0  0  0  0
  139.6190   79.2511  221.8492 H   0  0  0  0  0  0  0  0  0  0  0  0
  138.6194   69.2076  222.4528 H   0  0  0  0  0  0  0  0  0  0  0  0
  138.8607   67.8242  224.4999 H   0  0  0  0  0  0  0  0  0  0  0  0
  139.5650   67.5907  226.8605 H   0  0  0  0  0  0  0  0  0  0  0  0
  141.2829   71.0199  228.8218 H   0  0  0  0  0  0  0  0  0  0  0  0
  141.0197   72.3696  226.7298 H   0  0  0  0  0  0  0  0  0  0  0  0
  1  2  2  0
  2  3  1  0
  3  4  1  0
  4  5  1  0
  5  6  2  0
  5  7  1  0
  7  8  1  0
  8  9  1  0
  9 10  1  0
 10 11  1  0
 10 12  1  0
 12 13  1  0
 13 14  1  0
 14 15  1  0
 15 16  2  0
 16 17  1  0
 17 18  2  0
 18 19  1  0
 19 20  2  0
  2 21  1  0
 21 22  2  0
 22 23  1  0
 23 24  2  0
 24 25  1  0
 25 26  2  0
 26 27  1  0
 26 28  1  0
 28 29  2  0
 29 30  1  0
 30 31  2  0
 12  7  1  0
 20 15  1  0
 31 21  1  0
 30 24  1  0
  3 32  1  0
  4 33  1  0
  4 34  1  0
  8 35  1  0
  8 36  1  0
  9 37  1  0
  9 38  1  0
 10 39  1  6
 11 40  1  0
 12 41  1  1
 13 42  1  0
 13 43  1  0
 16 44  1  0
 17 45  1  0
 18 46  1  0
 19 47  1  0
 20 48  1  0
 22 49  1  0
 23 50  1  0
 25 51  1  0
 28 52  1  0
 29 53  1  0
M  END
>  <smiles>  (7) 
O=C(NCC(=O)N1CC[C@H](O)[C@H]1COc1ccccc1)c1ccc2cc(F)ccc2n1

>  <score_type>  (7) 
oracle

>  <origin>  (7) 
autodockgpu

>  <m_score__min__energy>  (7) 
-8.8599999999999994

>  <m_primary>  (7) 
energy

>  <rmsd>  (7) 
1.4535214802686958

>  <m_score__min__rmsd>  (7) 
1.4535214802686958

>  <meeko>  (7) 
{"free_energy": -7.92, "intermolecular_energy": -10.3, "internal_energy": -1.59, "cluster_size": 20, "cluster_id": 1, "rank_in_cluster": 15}

>  <energy>  (7) 
-8.33

>  <cluster_rmsd>  (7) 
1.02

>  <cluster>  (7) 
1

$$$$

     RDKit          3D

 53 56  0  0  0  0  0  0  0  0999 V2000
  138.0270   71.8320  222.6560 O   0  0  0  0  0  0  0  0  0  0  0  0
  139.1900   71.5010  222.9840 C   0  0  0  0  0  0  0  0  0  0  0  0
  140.3300   72.0140  222.3260 N   0  0  0  0  0  0  0  0  0  0  0  0
  140.2190   72.9510  221.2380 C   0  0  0  0  0  0  0  0  0  0  0  0
  141.5000   73.4700  220.7700 C   0  0  0  0  0  0  0  0  0  0  0  0
  142.5660   72.9160  221.2020 O   0  0  0  0  0  0  0  0  0  0  0  0
  141.6860   74.5480  219.8720 N   0  0  0  0  0  0  0  0  0  0  0  0
  141.5530   74.3680  218.4150 C   0  0  0  0  0  0  0  0  0  0  0  0
  142.8210   75.1300  217.9860 C   0  0  0  0  0  0  0  0  0  0  0  0
  142.5810   76.4100  218.8080 C   0  0  2  0  0  0  0  0  0  0  0  0
  143.7060   77.1780  218.8920 O   0  0  0  0  0  0  0  0  0  0  0  0
  142.0250   75.9440  220.1380 C   0  0  1  0  0  0  0  0  0  0  0  0
  140.7320   76.7050  220.4820 C   0  0  0  0  0  0  0  0  0  0  0  0
  140.8490   77.6840  221.3500 O   0  0  0  0  0  0  0  0  0  0  0  0
  141.4090   78.6510  222.0150 C   0  0  0  0  0  0  0  0  0  0  0  0
  141.9010   79.8340  221.4830 C   0  0  0  0  0  0  0  0  0  0  0  0
  142.4870   80.8190  222.2520 C   0  0  0  0  0  0  0  0  0  0  0  0
  142.5830   80.6140  223.5960 C   0  0  0  0  0  0  0  0  0  0  0  0
  142.1250   79.4840  224.1910 C   0  0  0  0  0  0  0  0  0  0  0  0
  141.5480   78.5150  223.4150 C   0  0  0  0  0  0  0  0  0  0  0  0
  139.3650   70.5460  224.0910 C   0  0  0  0  0  0  0  0  0  0  0  0
  138.8040   69.2900  224.0500 C   0  0  0  0  0  0  0  0  0  0  0  0
  139.0170   68.4490  225.1340 C   0  0  0  0  0  0  0  0  0  0  0  0
  139.7580   68.8220  226.2340 C   0  0  0  0  0  0  0  0  0  0  0  0
  139.9820   68.0150  227.3120 C   0  0  0  0  0  0  0  0  0  0  0  0
  140.7380   68.4810  228.3660 C   0  0  0  0  0  0  0  0  0  0  0  0
  141.0030   67.7400  229.4700 F   0  0  0  0  0  0  0  0  0  0  0  0
  141.2770   69.7650  228.3460 C   0  0  0  0  0  0  0  0  0  0  0  0
  141.0620   70.5950  227.2640 C   0  0  0  0  0  0  0  0  0  0  0  0
  140.2990   70.0880  226.2310 C   0  0  0  0  0  0  0  0  0  0  0  0
  140.0830   70.8870  225.1750 N   0  0  0  0  0  0  0  0  0  0  0  0
  141.2720   71.6800  222.6700 H   0  0  0  0  0  0  0  0  0  0  0  0
  139.7216   72.4468  220.3964 H   0  0  0  0  0  0  0  0  0  0  0  0
  139.6454   73.8106  221.6149 H   0  0  0  0  0  0  0  0  0  0  0  0
  141.5849   73.3083  218.1218 H   0  0  0  0  0  0  0  0  0  0  0  0
  140.6085   74.7153  217.9707 H   0  0  0  0  0  0  0  0  0  0  0  0
  143.7427   74.6087  218.2840 H   0  0  0  0  0  0  0  0  0  0  0  0
  142.9621   75.2673  216.9038 H   0  0  0  0  0  0  0  0  0  0  0  0
  141.8588   77.0884  218.3302 H   0  0  0  0  0  0  0  0  0  0  0  0
  143.6070   77.8280  219.6250 H   0  0  0  0  0  0  0  0  0  0  0  0
  142.7270   76.0969  220.9709 H   0  0  0  0  0  0  0  0  0  0  0  0
  140.3341   77.1298  219.5486 H   0  0  0  0  0  0  0  0  0  0  0  0
  140.0730   75.9651  220.9597 H   0  0  0  0  0  0  0  0  0  0  0  0
  141.8203   79.9945  220.3978 H   0  0  0  0  0  0  0  0  0  0  0  0
  142.8661   81.7439  221.7928 H   0  0  0  0  0  0  0  0  0  0  0  0
  143.0479   81.3916  224.2199 H   0  0  0  0  0  0  0  0  0  0  0  0
  142.2158   79.3487  225.2789 H   0  0  0  0  0  0  0  0  0  0  0  0
  141.1795   77.5980  223.8981 H   0  0  0  0  0  0  0  0  0  0  0  0
  138.2062   68.9630  223.1864 H   0  0  0  0  0  0  0  0  0  0  0  0
  138.5752   67.4418  225.1137 H   0  0  0  0  0  0  0  0  0  0  0  0
  139.5616   66.9989  227.3393 H   0  0  0  0  0  0  0  0  0  0  0  0
  141.8772   70.1197  229.1968 H   0  0  0  0  0  0  0  0  0  0  0  0
  141.4789   71.6123  227.2266 H   0  0  0  0  0  0  0  0  0  0  0  0
  1  2  2  0
  2  3  1  0
  3  4  1  0
  4  5  1  0
  5  6  2  0
  5  7  1  0
  7  8  1  0
  8  9  1  0
  9 10  1  0
 10 11  1  0
 10 12  1  0
 12 13  1  0
 13 14  1  0
 14 15  1  0
 15 16  2  0
 16 17  1  0
 17 18  2  0
 18 19  1  0
 19 20  2  0
  2 21  1  0
 21 22  2  0
 22 23  1  0
 23 24  2  0
 24 25  1  0
 25 26  2  0
 26 27  1  0
 26 28  1  0
 28 29  2  0
 29 30  1  0
 30 31  2  0
 12  7  1  0
 20 15  1  0
 31 21  1  0
 30 24  1  0
  3 32  1  0
  4 33  1  0
  4 34  1  0
  8 35  1  0
  8 36  1  0
  9 37  1  0
  9 38  1  0
 10 39  1  6
 11 40  1  0
 12 41  1  1
 13 42  1  0
 13 43  1  0
 16 44  1  0
 17 45  1  0
 18 46  1  0
 19 47  1  0
 20 48  1  0
 22 49  1  0
 23 50  1  0
 25 51  1  0
 28 52  1  0
 29 53  1  0
M  END
>  <smiles>  (8) 
O=C(NCC(=O)N1CC[C@H](O)[C@H]1COc1ccccc1)c1ccc2cc(F)ccc2n1

>  <score_type>  (8) 
oracle

>  <origin>  (8) 
autodockgpu

>  <m_score__min__energy>  (8) 
-8.8599999999999994

>  <m_primary>  (8) 
energy

>  <rmsd>  (8) 
2.1404966987555625

>  <m_score__min__rmsd>  (8) 
2.1404966987555625

>  <meeko>  (8) 
{"free_energy": -7.69, "intermolecular_energy": -10.08, "internal_energy": -1.64, "cluster_size": 20, "cluster_id": 1, "rank_in_cluster": 18}

>  <energy>  (8) 
-8.32

>  <cluster_rmsd>  (8) 
1.45

>  <cluster>  (8) 
1

$$$$

     RDKit          3D

 53 56  0  0  0  0  0  0  0  0999 V2000
  138.7840   74.8830  221.9400 O   0  0  0  0  0  0  0  0  0  0  0  0
  139.9300   75.3870  221.9790 C   0  0  0  0  0  0  0  0  0  0  0  0
  141.0840   74.6570  221.6150 N   0  0  0  0  0  0  0  0  0  0  0  0
  141.0070   73.2880  221.1750 C   0  0  0  0  0  0  0  0  0  0  0  0
  141.7240   73.0230  219.9330 C   0  0  0  0  0  0  0  0  0  0  0  0
  141.0530   72.6140  218.9270 O   0  0  0  0  0  0  0  0  0  0  0  0
  143.1160   73.1720  219.7240 N   0  0  0  0  0  0  0  0  0  0  0  0
  143.7950   72.5390  218.5790 C   0  0  0  0  0  0  0  0  0  0  0  0
  145.0070   71.9650  219.3380 C   0  0  0  0  0  0  0  0  0  0  0  0
  145.4110   73.2490  220.0860 C   0  0  2  0  0  0  0  0  0  0  0  0
  146.2820   72.9910  221.1040 O   0  0  0  0  0  0  0  0  0  0  0  0
  144.1100   73.9020  220.5080 C   0  0  1  0  0  0  0  0  0  0  0  0
  144.0820   75.3800  220.0800 C   0  0  0  0  0  0  0  0  0  0  0  0
  142.8970   75.8870  219.8200 O   0  0  0  0  0  0  0  0  0  0  0  0
  142.0080   76.7740  219.4870 C   0  0  0  0  0  0  0  0  0  0  0  0
  142.1270   78.1490  219.6310 C   0  0  0  0  0  0  0  0  0  0  0  0
  141.1370   79.0340  219.2540 C   0  0  0  0  0  0  0  0  0  0  0  0
  139.9930   78.5270  218.7150 C   0  0  0  0  0  0  0  0  0  0  0  0
  139.8020   77.1960  218.5410 C   0  0  0  0  0  0  0  0  0  0  0  0
  140.7910   76.3290  218.9200 C   0  0  0  0  0  0  0  0  0  0  0  0
  140.0720   76.7850  222.4210 C   0  0  0  0  0  0  0  0  0  0  0  0
  138.9730   77.5530  222.7300 C   0  0  0  0  0  0  0  0  0  0  0  0
  139.1910   78.8620  223.1390 C   0  0  0  0  0  0  0  0  0  0  0  0
  140.4510   79.4110  223.2450 C   0  0  0  0  0  0  0  0  0  0  0  0
  140.6930   80.6930  223.6440 C   0  0  0  0  0  0  0  0  0  0  0  0
  141.9920   81.1500  223.7170 C   0  0  0  0  0  0  0  0  0  0  0  0
  142.3110   82.4090  224.1040 F   0  0  0  0  0  0  0  0  0  0  0  0
  143.0610   80.3200  223.3890 C   0  0  0  0  0  0  0  0  0  0  0  0
  142.8350   79.0200  222.9840 C   0  0  0  0  0  0  0  0  0  0  0  0
  141.5200   78.6040  222.9250 C   0  0  0  0  0  0  0  0  0  0  0  0
  141.2900   77.3420  222.5310 N   0  0  0  0  0  0  0  0  0  0  0  0
  142.0110   75.1620  221.6780 H   0  0  0  0  0  0  0  0  0  0  0  0
  141.4306   72.6472  221.9624 H   0  0  0  0  0  0  0  0  0  0  0  0
  139.9453   73.0752  220.9813 H   0  0  0  0  0  0  0  0  0  0  0  0
  143.1829   71.7515  218.1152 H   0  0  0  0  0  0  0  0  0  0  0  0
  144.0259   73.1991  217.7299 H   0  0  0  0  0  0  0  0  0  0  0  0
  144.7238   71.1534  220.0243 H   0  0  0  0  0  0  0  0  0  0  0  0
  145.7882   71.4968  218.7212 H   0  0  0  0  0  0  0  0  0  0  0  0
  145.9787   73.9458  219.4518 H   0  0  0  0  0  0  0  0  0  0  0  0
  146.0190   72.1570  221.5590 H   0  0  0  0  0  0  0  0  0  0  0  0
  143.9507   73.8721  221.5960 H   0  0  0  0  0  0  0  0  0  0  0  0
  144.5300   75.9728  220.8911 H   0  0  0  0  0  0  0  0  0  0  0  0
  144.6348   75.4217  219.1299 H   0  0  0  0  0  0  0  0  0  0  0  0
  143.0533   78.5525  220.0658 H   0  0  0  0  0  0  0  0  0  0  0  0
  141.2680   80.1183  219.3851 H   0  0  0  0  0  0  0  0  0  0  0  0
  139.1965   79.2218  218.4103 H   0  0  0  0  0  0  0  0  0  0  0  0
  138.8666   76.8187  218.1020 H   0  0  0  0  0  0  0  0  0  0  0  0
  140.6340   75.2495  218.7788 H   0  0  0  0  0  0  0  0  0  0  0  0
  137.9548   77.1434  222.6555 H   0  0  0  0  0  0  0  0  0  0  0  0
  138.3213   79.4874  223.3890 H   0  0  0  0  0  0  0  0  0  0  0  0
  139.8569   81.3581  223.9059 H   0  0  0  0  0  0  0  0  0  0  0  0
  144.0905   80.7022  223.4530 H   0  0  0  0  0  0  0  0  0  0  0  0
  143.6641   78.3468  222.7205 H   0  0  0  0  0  0  0  0  0  0  0  0
  1  2  2  0
  2  3  1  0
  3  4  1  0
  4  5  1  0
  5  6  2  0
  5  7  1  0
  7  8  1  0
  8  9  1  0
  9 10  1  0
 10 11  1  0
 10 12  1  0
 12 13  1  0
 13 14  1  0
 14 15  1  0
 15 16  2  0
 16 17  1  0
 17 18  2  0
 18 19  1  0
 19 20  2  0
  2 21  1  0
 21 22  2  0
 22 23  1  0
 23 24  2  0
 24 25  1  0
 25 26  2  0
 26 27  1  0
 26 28  1  0
 28 29  2  0
 29 30  1  0
 30 31  2  0
 12  7  1  0
 20 15  1  0
 31 21  1  0
 30 24  1  0
  3 32  1  0
  4 33  1  0
  4 34  1  0
  8 35  1  0
  8 36  1  0
  9 37  1  0
  9 38  1  0
 10 39  1  6
 11 40  1  0
 12 41  1  1
 13 42  1  0
 13 43  1  0
 16 44  1  0
 17 45  1  0
 18 46  1  0
 19 47  1  0
 20 48  1  0
 22 49  1  0
 23 50  1  0
 25 51  1  0
 28 52  1  0
 29 53  1  0
M  END
>  <smiles>  (9) 
O=C(NCC(=O)N1CC[C@H](O)[C@H]1COc1ccccc1)c1ccc2cc(F)ccc2n1

>  <score_type>  (9) 
oracle

>  <origin>  (9) 
autodockgpu

>  <m_score__min__energy>  (9) 
-8.8599999999999994

>  <m_primary>  (9) 
energy

>  <rmsd>  (9) 
7.752194037857087

>  <m_score__min__rmsd>  (9) 
7.752194037857087

>  <meeko>  (9) 
{"free_energy": -5.95, "intermolecular_energy": -8.34, "internal_energy": -3.79, "cluster_size": 3, "cluster_id": 10, "rank_in_cluster": 3}

>  <energy>  (9) 
-8.32

>  <cluster_rmsd>  (9) 
1.1

>  <cluster>  (9) 
1

$$$$

     RDKit          3D

 53 56  0  0  0  0  0  0  0  0999 V2000
  141.4310   72.9980  222.0000 O   0  0  0  0  0  0  0  0  0  0  0  0
  140.3240   72.8390  222.5640 C   0  0  0  0  0  0  0  0  0  0  0  0
  139.2180   73.6760  222.2970 N   0  0  0  0  0  0  0  0  0  0  0  0
  139.3010   74.7650  221.3580 C   0  0  0  0  0  0  0  0  0  0  0  0
  139.9440   74.4120  220.0970 C   0  0  0  0  0  0  0  0  0  0  0  0
  139.4290   73.4720  219.4040 O   0  0  0  0  0  0  0  0  0  0  0  0
  141.1030   75.0140  219.5530 N   0  0  0  0  0  0  0  0  0  0  0  0
  141.6970   74.5400  218.2900 C   0  0  0  0  0  0  0  0  0  0  0  0
  143.1700   74.5080  218.7430 C   0  0  0  0  0  0  0  0  0  0  0  0
  143.2320   75.9240  219.3450 C   0  0  2  0  0  0  0  0  0  0  0  0
  144.3380   76.0960  220.1250 O   0  0  0  0  0  0  0  0  0  0  0  0
  141.9090   76.1230  220.0570 C   0  0  1  0  0  0  0  0  0  0  0  0
  141.2520   77.4450  219.6210 C   0  0  0  0  0  0  0  0  0  0  0  0
  141.5130   78.4960  220.3650 O   0  0  0  0  0  0  0  0  0  0  0  0
  141.6660   79.2070  221.4420 C   0  0  0  0  0  0  0  0  0  0  0  0
  141.9000   80.5730  221.4970 C   0  0  0  0  0  0  0  0  0  0  0  0
  142.0540   81.2640  222.6820 C   0  0  0  0  0  0  0  0  0  0  0  0
  141.9710   80.5650  223.8490 C   0  0  0  0  0  0  0  0  0  0  0  0
  141.7440   79.2280  223.8780 C   0  0  0  0  0  0  0  0  0  0  0  0
  141.5940   78.5560  222.6950 C   0  0  0  0  0  0  0  0  0  0  0  0
  140.1790   71.7400  223.5350 C   0  0  0  0  0  0  0  0  0  0  0  0
  139.5910   70.5460  223.1840 C   0  0  0  0  0  0  0  0  0  0  0  0
  139.4930   69.5620  224.1580 C   0  0  0  0  0  0  0  0  0  0  0  0
  139.9540   69.7360  225.4450 C   0  0  0  0  0  0  0  0  0  0  0  0
  139.8690   68.7850  226.4210 C   0  0  0  0  0  0  0  0  0  0  0  0
  140.3600   69.0550  227.6800 C   0  0  0  0  0  0  0  0  0  0  0  0
  140.3120   68.1630  228.6990 F   0  0  0  0  0  0  0  0  0  0  0  0
  140.9430   70.2870  227.9700 C   0  0  0  0  0  0  0  0  0  0  0  0
  141.0380   71.2600  226.9950 C   0  0  0  0  0  0  0  0  0  0  0  0
  140.5340   70.9470  225.7500 C   0  0  0  0  0  0  0  0  0  0  0  0
  140.6200   71.8870  224.7960 N   0  0  0  0  0  0  0  0  0  0  0  0
  138.3220   73.4680  222.8190 H   0  0  0  0  0  0  0  0  0  0  0  0
  138.2804   75.1131  221.1406 H   0  0  0  0  0  0  0  0  0  0  0  0
  139.9224   75.5427  221.8259 H   0  0  0  0  0  0  0  0  0  0  0  0
  141.3275   73.5442  218.0039 H   0  0  0  0  0  0  0  0  0  0  0  0
  141.4799   75.1456  217.3977 H   0  0  0  0  0  0  0  0  0  0  0  0
  143.3595   73.7263  219.4933 H   0  0  0  0  0  0  0  0  0  0  0  0
  143.9125   74.2785  217.9645 H   0  0  0  0  0  0  0  0  0  0  0  0
  143.3527   76.7039  218.5787 H   0  0  0  0  0  0  0  0  0  0  0  0
  144.4030   77.0400  220.4010 H   0  0  0  0  0  0  0  0  0  0  0  0
  142.0143   76.1546  221.1515 H   0  0  0  0  0  0  0  0  0  0  0  0
  141.5898   77.6660  218.5978 H   0  0  0  0  0  0  0  0  0  0  0  0
  140.1685   77.2800  219.7148 H   0  0  0  0  0  0  0  0  0  0  0  0
  141.9659   81.1320  220.5519 H   0  0  0  0  0  0  0  0  0  0  0  0
  142.2385   82.3484  222.6843 H   0  0  0  0  0  0  0  0  0  0  0  0
  142.0923   81.1037  224.8004 H   0  0  0  0  0  0  0  0  0  0  0  0
  141.6815   78.6924  224.8368 H   0  0  0  0  0  0  0  0  0  0  0  0
  141.4110   77.4716  222.7200 H   0  0  0  0  0  0  0  0  0  0  0  0
  139.2114   70.3772  222.1655 H   0  0  0  0  0  0  0  0  0  0  0  0
  139.0273   68.6019  223.8911 H   0  0  0  0  0  0  0  0  0  0  0  0
  139.4111   67.8087  226.2036 H   0  0  0  0  0  0  0  0  0  0  0  0
  141.3294   70.4853  228.9806 H   0  0  0  0  0  0  0  0  0  0  0  0
  141.4944   72.2393  227.2016 H   0  0  0  0  0  0  0  0  0  0  0  0
  1  2  2  0
  2  3  1  0
  3  4  1  0
  4  5  1  0
  5  6  2  0
  5  7  1  0
  7  8  1  0
  8  9  1  0
  9 10  1  0
 10 11  1  0
 10 12  1  0
 12 13  1  0
 13 14  1  0
 14 15  1  0
 15 16  2  0
 16 17  1  0
 17 18  2  0
 18 19  1  0
 19 20  2  0
  2 21  1  0
 21 22  2  0
 22 23  1  0
 23 24  2  0
 24 25  1  0
 25 26  2  0
 26 27  1  0
 26 28  1  0
 28 29  2  0
 29 30  1  0
 30 31  2  0
 12  7  1  0
 20 15  1  0
 31 21  1  0
 30 24  1  0
  3 32  1  0
  4 33  1  0
  4 34  1  0
  8 35  1  0
  8 36  1  0
  9 37  1  0
  9 38  1  0
 10 39  1  6
 11 40  1  0
 12 41  1  1
 13 42  1  0
 13 43  1  0
 16 44  1  0
 17 45  1  0
 18 46  1  0
 19 47  1  0
 20 48  1  0
 22 49  1  0
 23 50  1  0
 25 51  1  0
 28 52  1  0
 29 53  1  0
M  END
>  <smiles>  (10) 
O=C(NCC(=O)N1CC[C@H](O)[C@H]1COc1ccccc1)c1ccc2cc(F)ccc2n1

>  <score_type>  (10) 
oracle

>  <origin>  (10) 
autodockgpu

>  <m_score__min__energy>  (10) 
-8.8599999999999994

>  <m_primary>  (10) 
energy

>  <rmsd>  (10) 
2.266657674155955

>  <m_score__min__rmsd>  (10) 
2.266657674155955

>  <meeko>  (10) 
{"free_energy": -8.15, "intermolecular_energy": -10.54, "internal_energy": -1.31, "cluster_size": 20, "cluster_id": 1, "rank_in_cluster": 12}

>  <energy>  (10) 
-8.19

>  <cluster_rmsd>  (10) 
1.0

>  <cluster>  (10) 
1

$$$$

     RDKit          3D

 53 56  0  0  0  0  0  0  0  0999 V2000
  140.3030   73.6610  222.3620 O   0  0  0  0  0  0  0  0  0  0  0  0
  140.3310   72.4220  222.1840 C   0  0  0  0  0  0  0  0  0  0  0  0
  140.5550   71.8500  220.9120 N   0  0  0  0  0  0  0  0  0  0  0  0
  140.7670   72.6640  219.7430 C   0  0  0  0  0  0  0  0  0  0  0  0
  142.0160   73.4180  219.7640 C   0  0  0  0  0  0  0  0  0  0  0  0
  141.9470   74.6910  219.8240 O   0  0  0  0  0  0  0  0  0  0  0  0
  143.3210   72.8730  219.7210 N   0  0  0  0  0  0  0  0  0  0  0  0
  143.8760   72.1130  220.8560 C   0  0  0  0  0  0  0  0  0  0  0  0
  145.2630   72.7830  220.9070 C   0  0  0  0  0  0  0  0  0  0  0  0
  145.6140   72.6460  219.4140 C   0  0  2  0  0  0  0  0  0  0  0  0
  146.6700   73.4380  219.0660 O   0  0  0  0  0  0  0  0  0  0  0  0
  144.3280   72.9300  218.6640 C   0  0  1  0  0  0  0  0  0  0  0  0
  144.0350   71.8110  217.6480 C   0  0  0  0  0  0  0  0  0  0  0  0
  144.2030   70.5800  218.0760 O   0  0  0  0  0  0  0  0  0  0  0  0
  144.8220   69.4750  218.3680 C   0  0  0  0  0  0  0  0  0  0  0  0
  145.6810   68.7720  217.5360 C   0  0  0  0  0  0  0  0  0  0  0  0
  146.3040   67.6000  217.9140 C   0  0  0  0  0  0  0  0  0  0  0  0
  146.0610   67.1170  219.1650 C   0  0  0  0  0  0  0  0  0  0  0  0
  145.2340   67.7470  220.0370 C   0  0  0  0  0  0  0  0  0  0  0  0
  144.6210   68.9080  219.6470 C   0  0  0  0  0  0  0  0  0  0  0  0
  140.1200   71.5380  223.3440 C   0  0  0  0  0  0  0  0  0  0  0  0
  139.4030   70.3680  223.2330 C   0  0  0  0  0  0  0  0  0  0  0  0
  139.2500   69.5910  224.3730 C   0  0  0  0  0  0  0  0  0  0  0  0
  139.7810   69.9450  225.5950 C   0  0  0  0  0  0  0  0  0  0  0  0
  139.6450   69.2000  226.7300 C   0  0  0  0  0  0  0  0  0  0  0  0
  140.2140   69.6400  227.9060 C   0  0  0  0  0  0  0  0  0  0  0  0
  140.1220   68.9560  229.0720 F   0  0  0  0  0  0  0  0  0  0  0  0
  140.9280   70.8350  227.9510 C   0  0  0  0  0  0  0  0  0  0  0  0
  141.0760   71.6010  226.8120 C   0  0  0  0  0  0  0  0  0  0  0  0
  140.4900   71.1240  225.6570 C   0  0  0  0  0  0  0  0  0  0  0  0
  140.6280   71.8620  224.5450 N   0  0  0  0  0  0  0  0  0  0  0  0
  140.5620   70.7950  220.8550 H   0  0  0  0  0  0  0  0  0  0  0  0
  140.7742   72.0072  218.8607 H   0  0  0  0  0  0  0  0  0  0  0  0
  139.9506   73.4008  219.7156 H   0  0  0  0  0  0  0  0  0  0  0  0
  143.3034   72.2700  221.7820 H   0  0  0  0  0  0  0  0  0  0  0  0
  143.8730   71.0181  220.7507 H   0  0  0  0  0  0  0  0  0  0  0  0
  145.2080   73.8335  221.2286 H   0  0  0  0  0  0  0  0  0  0  0  0
  145.9844   72.3520  221.6168 H   0  0  0  0  0  0  0  0  0  0  0  0
  145.9705   71.6380  219.1553 H   0  0  0  0  0  0  0  0  0  0  0  0
  146.3760   74.1050  218.4030 H   0  0  0  0  0  0  0  0  0  0  0  0
  144.3589   73.8788  218.1082 H   0  0  0  0  0  0  0  0  0  0  0  0
  142.9880   71.9148  217.3271 H   0  0  0  0  0  0  0  0  0  0  0  0
  144.7712   71.9453  216.8418 H   0  0  0  0  0  0  0  0  0  0  0  0
  145.8746   69.1672  216.5279 H   0  0  0  0  0  0  0  0  0  0  0  0
  146.9780   67.0704  217.2247 H   0  0  0  0  0  0  0  0  0  0  0  0
  146.5523   66.1841  219.4787 H   0  0  0  0  0  0  0  0  0  0  0  0
  145.0588   67.3321  221.0406 H   0  0  0  0  0  0  0  0  0  0  0  0
  143.9489   69.4168  220.3537 H   0  0  0  0  0  0  0  0  0  0  0  0
  138.9656   70.0590  222.2722 H   0  0  0  0  0  0  0  0  0  0  0  0
  138.6807   68.6527  224.2982 H   0  0  0  0  0  0  0  0  0  0  0  0
  139.0846   68.2538  226.7067 H   0  0  0  0  0  0  0  0  0  0  0  0
  141.3759   71.1699  228.8982 H   0  0  0  0  0  0  0  0  0  0  0  0
  141.6353   72.5481  226.8244 H   0  0  0  0  0  0  0  0  0  0  0  0
  1  2  2  0
  2  3  1  0
  3  4  1  0
  4  5  1  0
  5  6  2  0
  5  7  1  0
  7  8  1  0
  8  9  1  0
  9 10  1  0
 10 11  1  0
 10 12  1  0
 12 13  1  0
 13 14  1  0
 14 15  1  0
 15 16  2  0
 16 17  1  0
 17 18  2  0
 18 19  1  0
 19 20  2  0
  2 21  1  0
 21 22  2  0
 22 23  1  0
 23 24  2  0
 24 25  1  0
 25 26  2  0
 26 27  1  0
 26 28  1  0
 28 29  2  0
 29 30  1  0
 30 31  2  0
 12  7  1  0
 20 15  1  0
 31 21  1  0
 30 24  1  0
  3 32  1  0
  4 33  1  0
  4 34  1  0
  8 35  1  0
  8 36  1  0
  9 37  1  0
  9 38  1  0
 10 39  1  1
 11 40  1  0
 12 41  1  6
 13 42  1  0
 13 43  1  0
 16 44  1  0
 17 45  1  0
 18 46  1  0
 19 47  1  0
 20 48  1  0
 22 49  1  0
 23 50  1  0
 25 51  1  0
 28 52  1  0
 29 53  1  0
M  END
>  <smiles>  (11) 
O=C(NCC(=O)N1CC[C@H](O)[C@H]1COc1ccccc1)c1ccc2cc(F)ccc2n1

>  <score_type>  (11) 
oracle

>  <origin>  (11) 
autodockgpu

>  <m_score__min__energy>  (11) 
-8.8599999999999994

>  <m_primary>  (11) 
energy

>  <rmsd>  (11) 
3.9007379732868555

>  <m_score__min__rmsd>  (11) 
3.9007379732868555

>  <meeko>  (11) 
{"free_energy": -8.22, "intermolecular_energy": -10.61, "internal_energy": -1.54, "cluster_size": 4, "cluster_id": 2, "rank_in_cluster": 2}

>  <energy>  (11) 
-8.15

>  <cluster_rmsd>  (11) 
1.04

>  <cluster>  (11) 
1

$$$$

     RDKit          3D

 53 56  0  0  0  0  0  0  0  0999 V2000
  138.1550   71.0250  221.3840 O   0  0  0  0  0  0  0  0  0  0  0  0
  138.6490   71.6460  222.3530 C   0  0  0  0  0  0  0  0  0  0  0  0
  138.7980   73.0510  222.3500 N   0  0  0  0  0  0  0  0  0  0  0  0
  138.3860   73.8520  221.2260 C   0  0  0  0  0  0  0  0  0  0  0  0
  139.4450   74.0950  220.2520 C   0  0  0  0  0  0  0  0  0  0  0  0
  139.6560   73.2050  219.3620 O   0  0  0  0  0  0  0  0  0  0  0  0
  140.2790   75.2360  220.1920 N   0  0  0  0  0  0  0  0  0  0  0  0
  140.0480   76.3080  219.2080 C   0  0  0  0  0  0  0  0  0  0  0  0
  141.5040   76.4830  218.7330 C   0  0  0  0  0  0  0  0  0  0  0  0
  142.1620   76.5980  220.1210 C   0  0  2  0  0  0  0  0  0  0  0  0
  143.5160   76.4470  220.0540 O   0  0  0  0  0  0  0  0  0  0  0  0
  141.4470   75.5880  220.9960 C   0  0  1  0  0  0  0  0  0  0  0  0
  140.9640   76.2470  222.3000 C   0  0  0  0  0  0  0  0  0  0  0  0
  141.0290   77.5590  222.3460 O   0  0  0  0  0  0  0  0  0  0  0  0
  141.3680   78.7390  222.7730 C   0  0  0  0  0  0  0  0  0  0  0  0
  142.6420   79.2870  222.7430 C   0  0  0  0  0  0  0  0  0  0  0  0
  142.9300   80.5510  223.2180 C   0  0  0  0  0  0  0  0  0  0  0  0
  141.9100   81.2890  223.7380 C   0  0  0  0  0  0  0  0  0  0  0  0
  140.6370   80.8240  223.8020 C   0  0  0  0  0  0  0  0  0  0  0  0
  140.3670   79.5680  223.3290 C   0  0  0  0  0  0  0  0  0  0  0  0
  139.0890   70.8780  223.5320 C   0  0  0  0  0  0  0  0  0  0  0  0
  138.9230   69.5130  223.6000 C   0  0  0  0  0  0  0  0  0  0  0  0
  139.3640   68.8640  224.7450 C   0  0  0  0  0  0  0  0  0  0  0  0
  139.9520   69.5280  225.8010 C   0  0  0  0  0  0  0  0  0  0  0  0
  140.3940   68.9140  226.9370 C   0  0  0  0  0  0  0  0  0  0  0  0
  140.9690   69.6660  227.9380 C   0  0  0  0  0  0  0  0  0  0  0  0
  141.4310   69.1290  229.0940 F   0  0  0  0  0  0  0  0  0  0  0  0
  141.1060   71.0460  227.8060 C   0  0  0  0  0  0  0  0  0  0  0  0
  140.6650   71.6840  226.6630 C   0  0  0  0  0  0  0  0  0  0  0  0
  140.0960   70.8930  225.6870 C   0  0  0  0  0  0  0  0  0  0  0  0
  139.6640   71.5030  224.5730 N   0  0  0  0  0  0  0  0  0  0  0  0
  139.2240   73.4900  223.2110 H   0  0  0  0  0  0  0  0  0  0  0  0
  137.5594   73.3348  220.7168 H   0  0  0  0  0  0  0  0  0  0  0  0
  138.0889   74.8329  221.6254 H   0  0  0  0  0  0  0  0  0  0  0  0
  139.3800   75.9893  218.3942 H   0  0  0  0  0  0  0  0  0  0  0  0
  139.5530   77.2135  219.5888 H   0  0  0  0  0  0  0  0  0  0  0  0
  141.8673   75.6111  218.1693 H   0  0  0  0  0  0  0  0  0  0  0  0
  141.6910   77.3139  218.0368 H   0  0  0  0  0  0  0  0  0  0  0  0
  142.0517   77.6006  220.5599 H   0  0  0  0  0  0  0  0  0  0  0  0
  143.9530   77.3120  220.2340 H   0  0  0  0  0  0  0  0  0  0  0  0
  142.0862   74.7374  221.2752 H   0  0  0  0  0  0  0  0  0  0  0  0
  139.9139   75.9575  222.4534 H   0  0  0  0  0  0  0  0  0  0  0  0
  141.6509   75.8907  223.0818 H   0  0  0  0  0  0  0  0  0  0  0  0
  143.4612   78.6863  222.3210 H   0  0  0  0  0  0  0  0  0  0  0  0
  143.9540   80.9507  223.1777 H   0  0  0  0  0  0  0  0  0  0  0  0
  142.1261   82.2978  224.1196 H   0  0  0  0  0  0  0  0  0  0  0  0
  139.8352   81.4458  224.2269 H   0  0  0  0  0  0  0  0  0  0  0  0
  139.3352   79.1907  223.3835 H   0  0  0  0  0  0  0  0  0  0  0  0
  138.4565   68.9553  222.7746 H   0  0  0  0  0  0  0  0  0  0  0  0
  139.2391   67.7732  224.8130 H   0  0  0  0  0  0  0  0  0  0  0  0
  140.2917   67.8249  227.0527 H   0  0  0  0  0  0  0  0  0  0  0  0
  141.5675   71.6303  228.6157 H   0  0  0  0  0  0  0  0  0  0  0  0
  140.7631   72.7724  226.5371 H   0  0  0  0  0  0  0  0  0  0  0  0
  1  2  2  0
  2  3  1  0
  3  4  1  0
  4  5  1  0
  5  6  2  0
  5  7  1  0
  7  8  1  0
  8  9  1  0
  9 10  1  0
 10 11  1  0
 10 12  1  0
 12 13  1  0
 13 14  1  0
 14 15  1  0
 15 16  2  0
 16 17  1  0
 17 18  2  0
 18 19  1  0
 19 20  2  0
  2 21  1  0
 21 22  2  0
 22 23  1  0
 23 24  2  0
 24 25  1  0
 25 26  2  0
 26 27  1  0
 26 28  1  0
 28 29  2  0
 29 30  1  0
 30 31  2  0
 12  7  1  0
 20 15  1  0
 31 21  1  0
 30 24  1  0
  3 32  1  0
  4 33  1  0
  4 34  1  0
  8 35  1  0
  8 36  1  0
  9 37  1  0
  9 38  1  0
 10 39  1  1
 11 40  1  0
 12 41  1  1
 13 42  1  0
 13 43  1  0
 16 44  1  0
 17 45  1  0
 18 46  1  0
 19 47  1  0
 20 48  1  0
 22 49  1  0
 23 50  1  0
 25 51  1  0
 28 52  1  0
 29 53  1  0
M  END
>  <smiles>  (12) 
O=C(NCC(=O)N1CC[C@H](O)[C@H]1COc1ccccc1)c1ccc2cc(F)ccc2n1

>  <score_type>  (12) 
oracle

>  <origin>  (12) 
autodockgpu

>  <m_score__min__energy>  (12) 
-8.8599999999999994

>  <m_primary>  (12) 
energy

>  <rmsd>  (12) 
2.1587863212129523

>  <m_score__min__rmsd>  (12) 
2.1587863212129523

>  <meeko>  (12) 
{"free_energy": -7.88, "intermolecular_energy": -10.27, "internal_energy": -1.57, "cluster_size": 20, "cluster_id": 1, "rank_in_cluster": 16}

>  <energy>  (12) 
-8.15

>  <cluster_rmsd>  (12) 
0.84

>  <cluster>  (12) 
1

$$$$

     RDKit          3D

 53 56  0  0  0  0  0  0  0  0999 V2000
  138.7720   75.0000  221.9340 O   0  0  0  0  0  0  0  0  0  0  0  0
  139.9290   75.4780  221.9670 C   0  0  0  0  0  0  0  0  0  0  0  0
  141.0630   74.7290  221.5790 N   0  0  0  0  0  0  0  0  0  0  0  0
  140.9510   73.3690  221.1200 C   0  0  0  0  0  0  0  0  0  0  0  0
  141.7600   73.0710  219.9430 C   0  0  0  0  0  0  0  0  0  0  0  0
  141.1650   72.6450  218.8980 O   0  0  0  0  0  0  0  0  0  0  0  0
  143.1650   73.2070  219.8400 N   0  0  0  0  0  0  0  0  0  0  0  0
  143.9370   72.4720  218.8220 C   0  0  0  0  0  0  0  0  0  0  0  0
  145.0780   71.9790  219.7310 C   0  0  0  0  0  0  0  0  0  0  0  0
  145.4210   73.3300  220.3860 C   0  0  2  0  0  0  0  0  0  0  0  0
  146.2020   73.1740  221.4930 O   0  0  0  0  0  0  0  0  0  0  0  0
  144.0910   74.0130  220.6320 C   0  0  1  0  0  0  0  0  0  0  0  0
  144.1040   75.4440  220.0650 C   0  0  0  0  0  0  0  0  0  0  0  0
  142.9300   76.0100  219.8920 O   0  0  0  0  0  0  0  0  0  0  0  0
  142.0590   76.8950  219.5090 C   0  0  0  0  0  0  0  0  0  0  0  0
  142.1720   78.2710  219.6500 C   0  0  0  0  0  0  0  0  0  0  0  0
  141.2020   79.1540  219.2190 C   0  0  0  0  0  0  0  0  0  0  0  0
  140.0860   78.6440  218.6270 C   0  0  0  0  0  0  0  0  0  0  0  0
  139.9020   77.3120  218.4520 C   0  0  0  0  0  0  0  0  0  0  0  0
  140.8710   76.4470  218.8860 C   0  0  0  0  0  0  0  0  0  0  0  0
  140.1060   76.8660  222.4280 C   0  0  0  0  0  0  0  0  0  0  0  0
  139.0260   77.6610  222.7380 C   0  0  0  0  0  0  0  0  0  0  0  0
  139.2780   78.9580  223.1650 C   0  0  0  0  0  0  0  0  0  0  0  0
  140.5510   79.4700  223.2880 C   0  0  0  0  0  0  0  0  0  0  0  0
  140.8260   80.7400  223.7050 C   0  0  0  0  0  0  0  0  0  0  0  0
  142.1360   81.1600  223.7940 C   0  0  0  0  0  0  0  0  0  0  0  0
  142.4870   82.4040  224.2000 F   0  0  0  0  0  0  0  0  0  0  0  0
  143.1850   80.3040  223.4640 C   0  0  0  0  0  0  0  0  0  0  0  0
  142.9250   79.0150  223.0410 C   0  0  0  0  0  0  0  0  0  0  0  0
  141.6010   78.6380  222.9660 C   0  0  0  0  0  0  0  0  0  0  0  0
  141.3380   77.3880  222.5540 N   0  0  0  0  0  0  0  0  0  0  0  0
  142.0000   75.2140  221.6390 H   0  0  0  0  0  0  0  0  0  0  0  0
  141.2676   72.7017  221.9352 H   0  0  0  0  0  0  0  0  0  0  0  0
  139.9007   73.2163  220.8310 H   0  0  0  0  0  0  0  0  0  0  0  0
  143.3642   71.6409  218.3847 H   0  0  0  0  0  0  0  0  0  0  0  0
  144.2410   73.0501  217.9369 H   0  0  0  0  0  0  0  0  0  0  0  0
  144.7355   71.2343  220.4645 H   0  0  0  0  0  0  0  0  0  0  0  0
  145.9073   71.4588  219.2294 H   0  0  0  0  0  0  0  0  0  0  0  0
  146.0426   73.9670  219.7396 H   0  0  0  0  0  0  0  0  0  0  0  0
  146.1790   72.2320  221.7820 H   0  0  0  0  0  0  0  0  0  0  0  0
  143.8397   74.0855  221.7004 H   0  0  0  0  0  0  0  0  0  0  0  0
  144.6818   76.0741  220.7572 H   0  0  0  0  0  0  0  0  0  0  0  0
  144.5409   75.3584  219.0591 H   0  0  0  0  0  0  0  0  0  0  0  0
  143.0762   78.6769  220.1272 H   0  0  0  0  0  0  0  0  0  0  0  0
  141.3268   80.2390  219.3500 H   0  0  0  0  0  0  0  0  0  0  0  0
  139.3064   79.3374  218.2786 H   0  0  0  0  0  0  0  0  0  0  0  0
  138.9893   76.9324  217.9693 H   0  0  0  0  0  0  0  0  0  0  0  0
  140.7201   75.3665  218.7452 H   0  0  0  0  0  0  0  0  0  0  0  0
  137.9973   77.2814  222.6504 H   0  0  0  0  0  0  0  0  0  0  0  0
  138.4242   79.6046  223.4159 H   0  0  0  0  0  0  0  0  0  0  0  0
  140.0067   81.4249  223.9687 H   0  0  0  0  0  0  0  0  0  0  0  0
  144.2243   80.6562  223.5407 H   0  0  0  0  0  0  0  0  0  0  0  0
  143.7367   78.3215  222.7763 H   0  0  0  0  0  0  0  0  0  0  0  0
  1  2  2  0
  2  3  1  0
  3  4  1  0
  4  5  1  0
  5  6  2  0
  5  7  1  0
  7  8  1  0
  8  9  1  0
  9 10  1  0
 10 11  1  0
 10 12  1  0
 12 13  1  0
 13 14  1  0
 14 15  1  0
 15 16  2  0
 16 17  1  0
 17 18  2  0
 18 19  1  0
 19 20  2  0
  2 21  1  0
 21 22  2  0
 22 23  1  0
 23 24  2  0
 24 25  1  0
 25 26  2  0
 26 27  1  0
 26 28  1  0
 28 29  2  0
 29 30  1  0
 30 31  2  0
 12  7  1  0
 20 15  1  0
 31 21  1  0
 30 24  1  0
  3 32  1  0
  4 33  1  0
  4 34  1  0
  8 35  1  0
  8 36  1  0
  9 37  1  0
  9 38  1  0
 10 39  1  6
 11 40  1  0
 12 41  1  1
 13 42  1  0
 13 43  1  0
 16 44  1  0
 17 45  1  0
 18 46  1  0
 19 47  1  0
 20 48  1  0
 22 49  1  0
 23 50  1  0
 25 51  1  0
 28 52  1  0
 29 53  1  0
M  END
>  <smiles>  (13) 
O=C(NCC(=O)N1CC[C@H](O)[C@H]1COc1ccccc1)c1ccc2cc(F)ccc2n1

>  <score_type>  (13) 
oracle

>  <origin>  (13) 
autodockgpu

>  <m_score__min__energy>  (13) 
-8.8599999999999994

>  <m_primary>  (13) 
energy

>  <rmsd>  (13) 
7.801968232898784

>  <m_score__min__rmsd>  (13) 
7.801968232898784

>  <meeko>  (13) 
{"free_energy": -6.01, "intermolecular_energy": -8.39, "internal_energy": -3.78, "cluster_size": 3, "cluster_id": 10, "rank_in_cluster": 2}

>  <energy>  (13) 
-8.08

>  <cluster_rmsd>  (13) 
1.32

>  <cluster>  (13) 
1

$$$$

     RDKit          3D

 53 56  0  0  0  0  0  0  0  0999 V2000
  138.6420   71.1430  221.3950 O   0  0  0  0  0  0  0  0  0  0  0  0
  139.1450   71.5910  222.4510 C   0  0  0  0  0  0  0  0  0  0  0  0
  139.5110   72.9480  222.5920 N   0  0  0  0  0  0  0  0  0  0  0  0
  139.3250   73.8980  221.5250 C   0  0  0  0  0  0  0  0  0  0  0  0
  139.1940   75.2790  221.9770 C   0  0  0  0  0  0  0  0  0  0  0  0
  140.2520   75.8960  222.3320 O   0  0  0  0  0  0  0  0  0  0  0  0
  137.9900   76.0170  222.0660 N   0  0  0  0  0  0  0  0  0  0  0  0
  136.7780   75.4440  222.6790 C   0  0  0  0  0  0  0  0  0  0  0  0
  135.7660   75.8780  221.6020 C   0  0  0  0  0  0  0  0  0  0  0  0
  136.1740   77.3610  221.5190 C   0  0  2  0  0  0  0  0  0  0  0  0
  135.6640   77.9660  220.4080 O   0  0  0  0  0  0  0  0  0  0  0  0
  137.6860   77.3740  221.6180 C   0  0  1  0  0  0  0  0  0  0  0  0
  138.1490   78.3640  222.7020 C   0  0  0  0  0  0  0  0  0  0  0  0
  139.4300   78.6620  222.7060 O   0  0  0  0  0  0  0  0  0  0  0  0
  140.5160   79.3260  222.9690 C   0  0  0  0  0  0  0  0  0  0  0  0
  140.5900   80.5670  223.5840 C   0  0  0  0  0  0  0  0  0  0  0  0
  141.7830   81.2150  223.8310 C   0  0  0  0  0  0  0  0  0  0  0  0
  142.9390   80.6000  223.4530 C   0  0  0  0  0  0  0  0  0  0  0  0
  142.9490   79.3860  222.8470 C   0  0  0  0  0  0  0  0  0  0  0  0
  141.7580   78.7560  222.6070 C   0  0  0  0  0  0  0  0  0  0  0  0
  139.3600   70.6660  223.5770 C   0  0  0  0  0  0  0  0  0  0  0  0
  138.9840   69.3440  223.5000 C   0  0  0  0  0  0  0  0  0  0  0  0
  139.2220   68.5380  224.6050 C   0  0  0  0  0  0  0  0  0  0  0  0
  139.8110   69.0070  225.7590 C   0  0  0  0  0  0  0  0  0  0  0  0
  140.0550   68.2360  226.8590 C   0  0  0  0  0  0  0  0  0  0  0  0
  140.6500   68.8000  227.9670 C   0  0  0  0  0  0  0  0  0  0  0  0
  140.9240   68.0990  229.0950 F   0  0  0  0  0  0  0  0  0  0  0  0
  141.0060   70.1470  227.9800 C   0  0  0  0  0  0  0  0  0  0  0  0
  140.7670   70.9410  226.8770 C   0  0  0  0  0  0  0  0  0  0  0  0
  140.1700   70.3360  225.7900 C   0  0  0  0  0  0  0  0  0  0  0  0
  139.9320   71.1010  224.7130 N   0  0  0  0  0  0  0  0  0  0  0  0
  139.9290   73.2380  223.5180 H   0  0  0  0  0  0  0  0  0  0  0  0
  140.1920   73.8353  220.8509 H   0  0  0  0  0  0  0  0  0  0  0  0
  138.3807   73.6353  221.0256 H   0  0  0  0  0  0  0  0  0  0  0  0
  136.8383   74.3500  222.7772 H   0  0  0  0  0  0  0  0  0  0  0  0
  136.5577   75.7686  223.7067 H   0  0  0  0  0  0  0  0  0  0  0  0
  135.9173   75.3492  220.6494 H   0  0  0  0  0  0  0  0  0  0  0  0
  134.7071   75.6778  221.8226 H   0  0  0  0  0  0  0  0  0  0  0  0
  135.7513   77.9621  222.3375 H   0  0  0  0  0  0  0  0  0  0  0  0
  136.0350   77.5400  219.6010 H   0  0  0  0  0  0  0  0  0  0  0  0
  138.1730   77.6671  220.6762 H   0  0  0  0  0  0  0  0  0  0  0  0
  137.5870   79.2995  222.5645 H   0  0  0  0  0  0  0  0  0  0  0  0
  137.9605   77.8601  223.6614 H   0  0  0  0  0  0  0  0  0  0  0  0
  139.6539   81.0576  223.8891 H   0  0  0  0  0  0  0  0  0  0  0  0
  141.8005   82.2005  224.3194 H   0  0  0  0  0  0  0  0  0  0  0  0
  143.8969   81.1052  223.6458 H   0  0  0  0  0  0  0  0  0  0  0  0
  143.8991   78.9158  222.5534 H   0  0  0  0  0  0  0  0  0  0  0  0
  141.7675   77.7720  222.1154 H   0  0  0  0  0  0  0  0  0  0  0  0
  138.5107   68.9397  222.5931 H   0  0  0  0  0  0  0  0  0  0  0  0
  138.9277   67.4792  224.5572 H   0  0  0  0  0  0  0  0  0  0  0  0
  139.7784   67.1713  226.8610 H   0  0  0  0  0  0  0  0  0  0  0  0
  141.4797   70.5795  228.8736 H   0  0  0  0  0  0  0  0  0  0  0  0
  141.0397   72.0066  226.8648 H   0  0  0  0  0  0  0  0  0  0  0  0
  1  2  2  0
  2  3  1  0
  3  4  1  0
  4  5  1  0
  5  6  2  0
  5  7  1  0
  7  8  1  0
  8  9  1  0
  9 10  1  0
 10 11  1  0
 10 12  1  0
 12 13  1  0
 13 14  1  0
 14 15  1  0
 15 16  2  0
 16 17  1  0
 17 18  2  0
 18 19  1  0
 19 20  2  0
  2 21  1  0
 21 22  2  0
 22 23  1  0
 23 24  2  0
 24 25  1  0
 25 26  2  0
 26 27  1  0
 26 28  1  0
 28 29  2  0
 29 30  1  0
 30 31  2  0
 12  7  1  0
 20 15  1  0
 31 21  1  0
 30 24  1  0
  3 32  1  0
  4 33  1  0
  4 34  1  0
  8 35  1  0
  8 36  1  0
  9 37  1  0
  9 38  1  0
 10 39  1  1
 11 40  1  0
 12 41  1  6
 13 42  1  0
 13 43  1  0
 16 44  1  0
 17 45  1  0
 18 46  1  0
 19 47  1  0
 20 48  1  0
 22 49  1  0
 23 50  1  0
 25 51  1  0
 28 52  1  0
 29 53  1  0
M  END
>  <smiles>  (14) 
O=C(NCC(=O)N1CC[C@H](O)[C@H]1COc1ccccc1)c1ccc2cc(F)ccc2n1

>  <score_type>  (14) 
oracle

>  <origin>  (14) 
autodockgpu

>  <m_score__min__energy>  (14) 
-8.8599999999999994

>  <m_primary>  (14) 
energy

>  <rmsd>  (14) 
3.467248413080796

>  <m_score__min__rmsd>  (14) 
3.467248413080796

>  <meeko>  (14) 
{"free_energy": -7.68, "intermolecular_energy": -10.06, "internal_energy": -1.55, "cluster_size": 1, "cluster_id": 5, "rank_in_cluster": 1}

>  <energy>  (14) 
-7.99

>  <cluster_rmsd>  (14) 
1.28

>  <cluster>  (14) 
1

$$$$

     RDKit          3D

 53 56  0  0  0  0  0  0  0  0999 V2000
  139.7550   73.3790  222.7120 O   0  0  0  0  0  0  0  0  0  0  0  0
  140.1980   72.2150  222.5780 C   0  0  0  0  0  0  0  0  0  0  0  0
  140.8570   71.7920  221.4010 N   0  0  0  0  0  0  0  0  0  0  0  0
  141.0580   72.6810  220.2860 C   0  0  0  0  0  0  0  0  0  0  0  0
  142.3180   73.4150  220.3330 C   0  0  0  0  0  0  0  0  0  0  0  0
  142.2800   74.6530  220.6380 O   0  0  0  0  0  0  0  0  0  0  0  0
  143.6030   72.8860  220.0660 N   0  0  0  0  0  0  0  0  0  0  0  0
  144.4350   72.3070  221.1360 C   0  0  0  0  0  0  0  0  0  0  0  0
  145.7650   72.9940  220.7710 C   0  0  0  0  0  0  0  0  0  0  0  0
  145.7740   72.6440  219.2720 C   0  0  2  0  0  0  0  0  0  0  0  0
  146.6860   73.3890  218.5820 O   0  0  0  0  0  0  0  0  0  0  0  0
  144.3400   72.7990  218.8070 C   0  0  1  0  0  0  0  0  0  0  0  0
  143.8750   71.5400  218.0530 C   0  0  0  0  0  0  0  0  0  0  0  0
  144.0340   70.3960  218.6810 O   0  0  0  0  0  0  0  0  0  0  0  0
  144.4380   69.1790  218.8930 C   0  0  0  0  0  0  0  0  0  0  0  0
  143.6430   68.0430  218.9180 C   0  0  0  0  0  0  0  0  0  0  0  0
  144.1430   66.7780  219.1520 C   0  0  0  0  0  0  0  0  0  0  0  0
  145.4820   66.6470  219.3680 C   0  0  0  0  0  0  0  0  0  0  0  0
  146.3250   67.7090  219.3590 C   0  0  0  0  0  0  0  0  0  0  0  0
  145.8150   68.9580  219.1270 C   0  0  0  0  0  0  0  0  0  0  0  0
  140.0210   71.2600  223.6860 C   0  0  0  0  0  0  0  0  0  0  0  0
  139.3040   70.0970  223.5230 C   0  0  0  0  0  0  0  0  0  0  0  0
  139.1840   69.2510  224.6170 C   0  0  0  0  0  0  0  0  0  0  0  0
  139.7470   69.5310  225.8430 C   0  0  0  0  0  0  0  0  0  0  0  0
  139.6440   68.7170  226.9340 C   0  0  0  0  0  0  0  0  0  0  0  0
  140.2440   69.0870  228.1190 C   0  0  0  0  0  0  0  0  0  0  0  0
  140.1860   68.3320  229.2430 F   0  0  0  0  0  0  0  0  0  0  0  0
  140.9560   70.2800  228.2180 C   0  0  0  0  0  0  0  0  0  0  0  0
  141.0720   71.1150  227.1240 C   0  0  0  0  0  0  0  0  0  0  0  0
  140.4550   70.7070  225.9590 C   0  0  0  0  0  0  0  0  0  0  0  0
  140.5610   71.5130  224.8910 N   0  0  0  0  0  0  0  0  0  0  0  0
  141.1980   70.7920  221.3760 H   0  0  0  0  0  0  0  0  0  0  0  0
  141.0384   72.0859  219.3611 H   0  0  0  0  0  0  0  0  0  0  0  0
  140.2521   73.4286  220.3252 H   0  0  0  0  0  0  0  0  0  0  0  0
  144.0811   72.5905  222.1382 H   0  0  0  0  0  0  0  0  0  0  0  0
  144.4580   71.2085  221.1879 H   0  0  0  0  0  0  0  0  0  0  0  0
  145.7365   74.0795  220.9464 H   0  0  0  0  0  0  0  0  0  0  0  0
  146.6476   72.6806  221.3480 H   0  0  0  0  0  0  0  0  0  0  0  0
  146.1082   71.6134  219.0820 H   0  0  0  0  0  0  0  0  0  0  0  0
  146.8140   74.2540  219.0360 H   0  0  0  0  0  0  0  0  0  0  0  0
  144.2007   73.6559  218.1314 H   0  0  0  0  0  0  0  0  0  0  0  0
  142.8034   71.6566  217.8338 H   0  0  0  0  0  0  0  0  0  0  0  0
  144.5152   71.4777  217.1607 H   0  0  0  0  0  0  0  0  0  0  0  0
  142.5628   68.1554  218.7431 H   0  0  0  0  0  0  0  0  0  0  0  0
  143.4796   65.9007  219.1638 H   0  0  0  0  0  0  0  0  0  0  0  0
  145.8935   65.6444  219.5563 H   0  0  0  0  0  0  0  0  0  0  0  0
  147.4017   67.5691  219.5353 H   0  0  0  0  0  0  0  0  0  0  0  0
  146.4996   69.8190  219.1224 H   0  0  0  0  0  0  0  0  0  0  0  0
  138.8410   69.8458  222.5573 H   0  0  0  0  0  0  0  0  0  0  0  0
  138.6150   68.3169  224.5001 H   0  0  0  0  0  0  0  0  0  0  0  0
  139.0856   67.7715  226.8682 H   0  0  0  0  0  0  0  0  0  0  0  0
  141.4280   70.5584  229.1718 H   0  0  0  0  0  0  0  0  0  0  0  0
  141.6303   72.0612  227.1788 H   0  0  0  0  0  0  0  0  0  0  0  0
  1  2  2  0
  2  3  1  0
  3  4  1  0
  4  5  1  0
  5  6  2  0
  5  7  1  0
  7  8  1  0
  8  9  1  0
  9 10  1  0
 10 11  1  0
 10 12  1  0
 12 13  1  0
 13 14  1  0
 14 15  1  0
 15 16  2  0
 16 17  1  0
 17 18  2  0
 18 19  1  0
 19 20  2  0
  2 21  1  0
 21 22  2  0
 22 23  1  0
 23 24  2  0
 24 25  1  0
 25 26  2  0
 26 27  1  0
 26 28  1  0
 28 29  2  0
 29 30  1  0
 30 31  2  0
 12  7  1  0
 20 15  1  0
 31 21  1  0
 30 24  1  0
  3 32  1  0
  4 33  1  0
  4 34  1  0
  8 35  1  0
  8 36  1  0
  9 37  1  0
  9 38  1  0
 10 39  1  1
 11 40  1  0
 12 41  1  6
 13 42  1  0
 13 43  1  0
 16 44  1  0
 17 45  1  0
 18 46  1  0
 19 47  1  0
 20 48  1  0
 22 49  1  0
 23 50  1  0
 25 51  1  0
 28 52  1  0
 29 53  1  0
M  END
>  <smiles>  (15) 
O=C(NCC(=O)N1CC[C@H](O)[C@H]1COc1ccccc1)c1ccc2cc(F)ccc2n1

>  <score_type>  (15) 
oracle

>  <origin>  (15) 
autodockgpu

>  <m_score__min__energy>  (15) 
-8.8599999999999994

>  <m_primary>  (15) 
energy

>  <rmsd>  (15) 
4.0194708471560485

>  <m_score__min__rmsd>  (15) 
4.0194708471560485

>  <meeko>  (15) 
{"free_energy": -8.35, "intermolecular_energy": -10.73, "internal_energy": -1.43, "cluster_size": 4, "cluster_id": 2, "rank_in_cluster": 1}

>  <energy>  (15) 
-7.92

>  <cluster_rmsd>  (15) 
1.12

>  <cluster>  (15) 
1

$$$$

     RDKit          3D

 53 56  0  0  0  0  0  0  0  0999 V2000
  139.2620   70.5720  221.2750 O   0  0  0  0  0  0  0  0  0  0  0  0
  139.4010   71.1460  222.3790 C   0  0  0  0  0  0  0  0  0  0  0  0
  139.4470   72.5530  222.4950 N   0  0  0  0  0  0  0  0  0  0  0  0
  139.3360   73.4110  221.3430 C   0  0  0  0  0  0  0  0  0  0  0  0
  139.9680   74.7150  221.5120 C   0  0  0  0  0  0  0  0  0  0  0  0
  139.9280   75.2560  222.6670 O   0  0  0  0  0  0  0  0  0  0  0  0
  140.6300   75.4580  220.5070 N   0  0  0  0  0  0  0  0  0  0  0  0
  140.4450   75.1550  219.0760 C   0  0  0  0  0  0  0  0  0  0  0  0
  141.9260   75.2020  218.6520 C   0  0  0  0  0  0  0  0  0  0  0  0
  142.2830   76.5560  219.2940 C   0  0  2  0  0  0  0  0  0  0  0  0
  143.6320   76.7440  219.3660 O   0  0  0  0  0  0  0  0  0  0  0  0
  141.5610   76.5780  220.6270 C   0  0  1  0  0  0  0  0  0  0  0  0
  140.7490   77.8760  220.7820 C   0  0  0  0  0  0  0  0  0  0  0  0
  140.9800   78.5790  221.8680 O   0  0  0  0  0  0  0  0  0  0  0  0
  141.5080   79.4920  222.6280 C   0  0  0  0  0  0  0  0  0  0  0  0
  140.8180   80.4320  223.3800 C   0  0  0  0  0  0  0  0  0  0  0  0
  141.4470   81.3770  224.1660 C   0  0  0  0  0  0  0  0  0  0  0  0
  142.8090   81.3790  224.2020 C   0  0  0  0  0  0  0  0  0  0  0  0
  143.5540   80.4920  223.4960 C   0  0  0  0  0  0  0  0  0  0  0  0
  142.9170   79.5620  222.7190 C   0  0  0  0  0  0  0  0  0  0  0  0
  139.5200   70.3190  223.5930 C   0  0  0  0  0  0  0  0  0  0  0  0
  139.0590   69.0230  223.6260 C   0  0  0  0  0  0  0  0  0  0  0  0
  139.2090   68.3110  224.8080 C   0  0  0  0  0  0  0  0  0  0  0  0
  139.7940   68.8490  225.9350 C   0  0  0  0  0  0  0  0  0  0  0  0
  139.9530   68.1720  227.1090 C   0  0  0  0  0  0  0  0  0  0  0  0
  140.5510   68.7990  228.1810 C   0  0  0  0  0  0  0  0  0  0  0  0
  140.7440   68.1920  229.3780 F   0  0  0  0  0  0  0  0  0  0  0  0
  140.9950   70.1150  228.0830 C   0  0  0  0  0  0  0  0  0  0  0  0
  140.8430   70.8150  226.9020 C   0  0  0  0  0  0  0  0  0  0  0  0
  140.2390   70.1500  225.8550 C   0  0  0  0  0  0  0  0  0  0  0  0
  140.0860   70.8220  224.7040 N   0  0  0  0  0  0  0  0  0  0  0  0
  139.5660   72.9510  223.4670 H   0  0  0  0  0  0  0  0  0  0  0  0
  139.8089   72.9054  220.4882 H   0  0  0  0  0  0  0  0  0  0  0  0
  138.2631   73.5951  221.1852 H   0  0  0  0  0  0  0  0  0  0  0  0
  139.9970   74.1634  218.9149 H   0  0  0  0  0  0  0  0  0  0  0  0
  139.7646   75.8217  218.5260 H   0  0  0  0  0  0  0  0  0  0  0  0
  142.5088   74.3715  219.0771 H   0  0  0  0  0  0  0  0  0  0  0  0
  142.1253   75.1085  217.5742 H   0  0  0  0  0  0  0  0  0  0  0  0
  141.9520   77.4117  218.6872 H   0  0  0  0  0  0  0  0  0  0  0  0
  143.8390   77.3610  220.1060 H   0  0  0  0  0  0  0  0  0  0  0  0
  142.2471   76.5157  221.4846 H   0  0  0  0  0  0  0  0  0  0  0  0
  140.9701   78.5157  219.9149 H   0  0  0  0  0  0  0  0  0  0  0  0
  139.6982   77.5588  220.8548 H   0  0  0  0  0  0  0  0  0  0  0  0
  139.7185   80.4240  223.3485 H   0  0  0  0  0  0  0  0  0  0  0  0
  140.8649   82.1077  224.7468 H   0  0  0  0  0  0  0  0  0  0  0  0
  143.3224   82.1259  224.8253 H   0  0  0  0  0  0  0  0  0  0  0  0
  144.6525   80.5195  223.5470 H   0  0  0  0  0  0  0  0  0  0  0  0
  143.5225   78.8445  222.1457 H   0  0  0  0  0  0  0  0  0  0  0  0
  138.5867   68.5659  222.7440 H   0  0  0  0  0  0  0  0  0  0  0  0
  138.8458   67.2734  224.8475 H   0  0  0  0  0  0  0  0  0  0  0  0
  139.6060   67.1321  227.1994 H   0  0  0  0  0  0  0  0  0  0  0  0
  141.4688   70.5992  228.9496 H   0  0  0  0  0  0  0  0  0  0  0  0
  141.1877   71.8547  226.8010 H   0  0  0  0  0  0  0  0  0  0  0  0
  1  2  2  0
  2  3  1  0
  3  4  1  0
  4  5  1  0
  5  6  2  0
  5  7  1  0
  7  8  1  0
  8  9  1  0
  9 10  1  0
 10 11  1  0
 10 12  1  0
 12 13  1  0
 13 14  1  0
 14 15  1  0
 15 16  2  0
 16 17  1  0
 17 18  2  0
 18 19  1  0
 19 20  2  0
  2 21  1  0
 21 22  2  0
 22 23  1  0
 23 24  2  0
 24 25  1  0
 25 26  2  0
 26 27  1  0
 26 28  1  0
 28 29  2  0
 29 30  1  0
 30 31  2  0
 12  7  1  0
 20 15  1  0
 31 21  1  0
 30 24  1  0
  3 32  1  0
  4 33  1  0
  4 34  1  0
  8 35  1  0
  8 36  1  0
  9 37  1  0
  9 38  1  0
 10 39  1  6
 11 40  1  0
 12 41  1  1
 13 42  1  0
 13 43  1  0
 16 44  1  0
 17 45  1  0
 18 46  1  0
 19 47  1  0
 20 48  1  0
 22 49  1  0
 23 50  1  0
 25 51  1  0
 28 52  1  0
 29 53  1  0
M  END
>  <smiles>  (16) 
O=C(NCC(=O)N1CC[C@H](O)[C@H]1COc1ccccc1)c1ccc2cc(F)ccc2n1

>  <score_type>  (16) 
oracle

>  <origin>  (16) 
autodockgpu

>  <m_score__min__energy>  (16) 
-8.8599999999999994

>  <m_primary>  (16) 
energy

>  <rmsd>  (16) 
1.7549609730032676

>  <m_score__min__rmsd>  (16) 
1.7549609730032676

>  <meeko>  (16) 
{"free_energy": -8.33, "intermolecular_energy": -10.72, "internal_energy": -1.62, "cluster_size": 20, "cluster_id": 1, "rank_in_cluster": 7}

>  <energy>  (16) 
-7.88

>  <cluster_rmsd>  (16) 
1.33

>  <cluster>  (16) 
1

$$$$

     RDKit          3D

 53 56  0  0  0  0  0  0  0  0999 V2000
  139.2080   71.7060  220.7570 O   0  0  0  0  0  0  0  0  0  0  0  0
  139.3090   72.2320  221.8900 C   0  0  0  0  0  0  0  0  0  0  0  0
  139.2050   73.6280  222.0820 N   0  0  0  0  0  0  0  0  0  0  0  0
  138.9760   74.5290  220.9820 C   0  0  0  0  0  0  0  0  0  0  0  0
  139.0730   75.9400  221.3410 C   0  0  0  0  0  0  0  0  0  0  0  0
  137.9900   76.5770  221.5650 O   0  0  0  0  0  0  0  0  0  0  0  0
  140.2660   76.6900  221.4650 N   0  0  0  0  0  0  0  0  0  0  0  0
  141.0460   76.6950  222.7160 C   0  0  0  0  0  0  0  0  0  0  0  0
  141.2910   78.2130  222.8110 C   0  0  0  0  0  0  0  0  0  0  0  0
  141.8030   78.4310  221.3750 C   0  0  2  0  0  0  0  0  0  0  0  0
  141.8140   79.7520  221.0350 O   0  0  0  0  0  0  0  0  0  0  0  0
  140.9390   77.5510  220.4950 C   0  0  1  0  0  0  0  0  0  0  0  0
  141.8130   76.6720  219.5830 C   0  0  0  0  0  0  0  0  0  0  0  0
  142.5470   75.7620  220.1830 O   0  0  0  0  0  0  0  0  0  0  0  0
  143.1120   74.6110  220.3950 C   0  0  0  0  0  0  0  0  0  0  0  0
  142.4620   73.4030  220.5940 C   0  0  0  0  0  0  0  0  0  0  0  0
  143.1300   72.2150  220.8160 C   0  0  0  0  0  0  0  0  0  0  0  0
  144.4920   72.2380  220.8370 C   0  0  0  0  0  0  0  0  0  0  0  0
  145.2000   73.3800  220.6500 C   0  0  0  0  0  0  0  0  0  0  0  0
  144.5240   74.5500  220.4320 C   0  0  0  0  0  0  0  0  0  0  0  0
  139.5440   71.3600  223.0540 C   0  0  0  0  0  0  0  0  0  0  0  0
  139.2500   70.0160  223.0130 C   0  0  0  0  0  0  0  0  0  0  0  0
  139.5020   69.2640  224.1520 C   0  0  0  0  0  0  0  0  0  0  0  0
  140.0270   69.8070  225.3060 C   0  0  0  0  0  0  0  0  0  0  0  0
  140.2830   69.0900  226.4380 C   0  0  0  0  0  0  0  0  0  0  0  0
  140.8090   69.7250  227.5420 C   0  0  0  0  0  0  0  0  0  0  0  0
  141.0900   69.0810  228.7020 F   0  0  0  0  0  0  0  0  0  0  0  0
  141.0840   71.0910  227.5180 C   0  0  0  0  0  0  0  0  0  0  0  0
  140.8310   71.8320  226.3800 C   0  0  0  0  0  0  0  0  0  0  0  0
  140.3050   71.1560  225.2990 C   0  0  0  0  0  0  0  0  0  0  0  0
  140.0550   71.8670  224.1890 N   0  0  0  0  0  0  0  0  0  0  0  0
  139.3030   73.9840  223.0720 H   0  0  0  0  0  0  0  0  0  0  0  0
  139.7219   74.3186  220.2014 H   0  0  0  0  0  0  0  0  0  0  0  0
  137.9448   74.3577  220.6395 H   0  0  0  0  0  0  0  0  0  0  0  0
  140.4670   76.3124  223.5694 H   0  0  0  0  0  0  0  0  0  0  0  0
  141.9440   76.0598  222.7271 H   0  0  0  0  0  0  0  0  0  0  0  0
  140.3666   78.7734  223.0144 H   0  0  0  0  0  0  0  0  0  0  0  0
  141.9576   78.5472  223.6197 H   0  0  0  0  0  0  0  0  0  0  0  0
  142.8572   78.1411  221.2544 H   0  0  0  0  0  0  0  0  0  0  0  0
  142.7460   80.0600  220.9400 H   0  0  0  0  0  0  0  0  0  0  0  0
  140.2642   78.1281  219.8457 H   0  0  0  0  0  0  0  0  0  0  0  0
  141.1466   76.1538  218.8778 H   0  0  0  0  0  0  0  0  0  0  0  0
  142.5280   77.3604  219.1087 H   0  0  0  0  0  0  0  0  0  0  0  0
  141.3623   73.3901  220.5741 H   0  0  0  0  0  0  0  0  0  0  0  0
  142.5779   71.2764  220.9715 H   0  0  0  0  0  0  0  0  0  0  0  0
  145.0364   71.2982  221.0116 H   0  0  0  0  0  0  0  0  0  0  0  0
  146.2997   73.3659  220.6732 H   0  0  0  0  0  0  0  0  0  0  0  0
  145.0994   75.4751  220.2803 H   0  0  0  0  0  0  0  0  0  0  0  0
  138.8294   69.5534  222.1079 H   0  0  0  0  0  0  0  0  0  0  0  0
  139.2731   68.1882  224.1335 H   0  0  0  0  0  0  0  0  0  0  0  0
  140.0707   68.0111  226.4693 H   0  0  0  0  0  0  0  0  0  0  0  0
  141.5041   71.5810  228.4087 H   0  0  0  0  0  0  0  0  0  0  0  0
  141.0394   72.9113  226.3379 H   0  0  0  0  0  0  0  0  0  0  0  0
  1  2  2  0
  2  3  1  0
  3  4  1  0
  4  5  1  0
  5  6  2  0
  5  7  1  0
  7  8  1  0
  8  9  1  0
  9 10  1  0
 10 11  1  0
 10 12  1  0
 12 13  1  0
 13 14  1  0
 14 15  1  0
 15 16  2  0
 16 17  1  0
 17 18  2  0
 18 19  1  0
 19 20  2  0
  2 21  1  0
 21 22  2  0
 22 23  1  0
 23 24  2  0
 24 25  1  0
 25 26  2  0
 26 27  1  0
 26 28  1  0
 28 29  2  0
 29 30  1  0
 30 31  2  0
 12  7  1  0
 20 15  1  0
 31 21  1  0
 30 24  1  0
  3 32  1  0
  4 33  1  0
  4 34  1  0
  8 35  1  0
  8 36  1  0
  9 37  1  0
  9 38  1  0
 10 39  1  1
 11 40  1  0
 12 41  1  6
 13 42  1  0
 13 43  1  0
 16 44  1  0
 17 45  1  0
 18 46  1  0
 19 47  1  0
 20 48  1  0
 22 49  1  0
 23 50  1  0
 25 51  1  0
 28 52  1  0
 29 53  1  0
M  END
>  <smiles>  (17) 
O=C(NCC(=O)N1CC[C@H](O)[C@H]1COc1ccccc1)c1ccc2cc(F)ccc2n1

>  <score_type>  (17) 
oracle

>  <origin>  (17) 
autodockgpu

>  <m_score__min__energy>  (17) 
-8.8599999999999994

>  <m_primary>  (17) 
energy

>  <rmsd>  (17) 
2.96973038548374

>  <m_score__min__rmsd>  (17) 
2.96973038548374

>  <meeko>  (17) 
{"free_energy": -7.34, "intermolecular_energy": -9.72, "internal_energy": -2.14, "cluster_size": 7, "cluster_id": 6, "rank_in_cluster": 2}

>  <energy>  (17) 
-7.78

>  <cluster_rmsd>  (17) 
1.35

>  <cluster>  (17) 
1

$$$$

     RDKit          3D

 53 56  0  0  0  0  0  0  0  0999 V2000
  139.4270   71.2460  220.9260 O   0  0  0  0  0  0  0  0  0  0  0  0
  140.0820   71.6000  221.9330 C   0  0  0  0  0  0  0  0  0  0  0  0
  140.9410   72.7210  221.9160 N   0  0  0  0  0  0  0  0  0  0  0  0
  141.1110   73.5260  220.7330 C   0  0  0  0  0  0  0  0  0  0  0  0
  142.4540   74.0750  220.5790 C   0  0  0  0  0  0  0  0  0  0  0  0
  142.6190   75.3230  220.7870 O   0  0  0  0  0  0  0  0  0  0  0  0
  143.6140   73.3530  220.2120 N   0  0  0  0  0  0  0  0  0  0  0  0
  144.6370   72.9810  221.2060 C   0  0  0  0  0  0  0  0  0  0  0  0
  145.8830   73.3950  220.3990 C   0  0  0  0  0  0  0  0  0  0  0  0
  145.5310   72.6700  219.0870 C   0  0  2  0  0  0  0  0  0  0  0  0
  146.2990   73.1020  218.0460 O   0  0  0  0  0  0  0  0  0  0  0  0
  144.0390   72.8600  218.9030 C   0  0  1  0  0  0  0  0  0  0  0  0
  143.3480   71.5100  218.6410 C   0  0  0  0  0  0  0  0  0  0  0  0
  143.9310   70.4510  219.1570 O   0  0  0  0  0  0  0  0  0  0  0  0
  144.4680   69.2680  219.2030 C   0  0  0  0  0  0  0  0  0  0  0  0
  145.8230   68.9860  219.2890 C   0  0  0  0  0  0  0  0  0  0  0  0
  146.3240   67.7000  219.3330 C   0  0  0  0  0  0  0  0  0  0  0  0
  145.4400   66.6650  219.2900 C   0  0  0  0  0  0  0  0  0  0  0  0
  144.1000   66.8590  219.2060 C   0  0  0  0  0  0  0  0  0  0  0  0
  143.6180   68.1390  219.1620 C   0  0  0  0  0  0  0  0  0  0  0  0
  139.9480   70.8140  223.1720 C   0  0  0  0  0  0  0  0  0  0  0  0
  139.2620   69.6210  223.1940 C   0  0  0  0  0  0  0  0  0  0  0  0
  139.1820   68.9420  224.4020 C   0  0  0  0  0  0  0  0  0  0  0  0
  139.7550   69.4130  225.5640 C   0  0  0  0  0  0  0  0  0  0  0  0
  139.6910   68.7660  226.7630 C   0  0  0  0  0  0  0  0  0  0  0  0
  140.2980   69.3200  227.8700 C   0  0  0  0  0  0  0  0  0  0  0  0
  140.2770   68.7370  229.0940 F   0  0  0  0  0  0  0  0  0  0  0  0
  140.9770   70.5330  227.7810 C   0  0  0  0  0  0  0  0  0  0  0  0
  141.0530   71.2010  226.5750 C   0  0  0  0  0  0  0  0  0  0  0  0
  140.4310   70.6110  225.4940 C   0  0  0  0  0  0  0  0  0  0  0  0
  140.4980   71.2540  224.3170 N   0  0  0  0  0  0  0  0  0  0  0  0
  141.4540   72.9460  222.8120 H   0  0  0  0  0  0  0  0  0  0  0  0
  140.8892   72.9020  219.8547 H   0  0  0  0  0  0  0  0  0  0  0  0
  140.4256   74.3811  220.8277 H   0  0  0  0  0  0  0  0  0  0  0  0
  144.5371   73.5529  222.1403 H   0  0  0  0  0  0  0  0  0  0  0  0
  144.6133   71.9382  221.5552 H   0  0  0  0  0  0  0  0  0  0  0  0
  145.9528   74.4850  220.2682 H   0  0  0  0  0  0  0  0  0  0  0  0
  146.8561   73.1437  220.8461 H   0  0  0  0  0  0  0  0  0  0  0  0
  145.7583   71.5944  219.1254 H   0  0  0  0  0  0  0  0  0  0  0  0
  146.3290   74.0870  218.0460 H   0  0  0  0  0  0  0  0  0  0  0  0
  143.7950   73.5228  218.0597 H   0  0  0  0  0  0  0  0  0  0  0  0
  142.3302   71.5679  219.0543 H   0  0  0  0  0  0  0  0  0  0  0  0
  143.3860   71.3659  217.5511 H   0  0  0  0  0  0  0  0  0  0  0  0
  146.5321   69.8262  219.3238 H   0  0  0  0  0  0  0  0  0  0  0  0
  147.4065   67.5168  219.4008 H   0  0  0  0  0  0  0  0  0  0  0  0
  145.8261   65.6356  219.3246 H   0  0  0  0  0  0  0  0  0  0  0  0
  143.4120   66.0013  219.1738 H   0  0  0  0  0  0  0  0  0  0  0  0
  142.5313   68.2949  219.0923 H   0  0  0  0  0  0  0  0  0  0  0  0
  138.7925   69.2188  222.2841 H   0  0  0  0  0  0  0  0  0  0  0  0
  138.6378   67.9866  224.4335 H   0  0  0  0  0  0  0  0  0  0  0  0
  139.1580   67.8074  226.8463 H   0  0  0  0  0  0  0  0  0  0  0  0
  141.4545   70.9604  228.6750 H   0  0  0  0  0  0  0  0  0  0  0  0
  141.5848   72.1592  226.4804 H   0  0  0  0  0  0  0  0  0  0  0  0
  1  2  2  0
  2  3  1  0
  3  4  1  0
  4  5  1  0
  5  6  2  0
  5  7  1  0
  7  8  1  0
  8  9  1  0
  9 10  1  0
 10 11  1  0
 10 12  1  0
 12 13  1  0
 13 14  1  0
 14 15  1  0
 15 16  2  0
 16 17  1  0
 17 18  2  0
 18 19  1  0
 19 20  2  0
  2 21  1  0
 21 22  2  0
 22 23  1  0
 23 24  2  0
 24 25  1  0
 25 26  2  0
 26 27  1  0
 26 28  1  0
 28 29  2  0
 29 30  1  0
 30 31  2  0
 12  7  1  0
 20 15  1  0
 31 21  1  0
 30 24  1  0
  3 32  1  0
  4 33  1  0
  4 34  1  0
  8 35  1  0
  8 36  1  0
  9 37  1  0
  9 38  1  0
 10 39  1  1
 11 40  1  0
 12 41  1  6
 13 42  1  0
 13 43  1  0
 16 44  1  0
 17 45  1  0
 18 46  1  0
 19 47  1  0
 20 48  1  0
 22 49  1  0
 23 50  1  0
 25 51  1  0
 28 52  1  0
 29 53  1  0
M  END
>  <smiles>  (18) 
O=C(NCC(=O)N1CC[C@H](O)[C@H]1COc1ccccc1)c1ccc2cc(F)ccc2n1

>  <score_type>  (18) 
oracle

>  <origin>  (18) 
autodockgpu

>  <m_score__min__energy>  (18) 
-8.8599999999999994

>  <m_primary>  (18) 
energy

>  <rmsd>  (18) 
3.800915775125462

>  <m_score__min__rmsd>  (18) 
3.800915775125462

>  <meeko>  (18) 
{"free_energy": -7.81, "intermolecular_energy": -10.2, "internal_energy": -1.72, "cluster_size": 4, "cluster_id": 2, "rank_in_cluster": 4}

>  <energy>  (18) 
-7.69

>  <cluster_rmsd>  (18) 
1.37

>  <cluster>  (18) 
1

$$$$

     RDKit          3D

 53 56  0  0  0  0  0  0  0  0999 V2000
  139.9550   74.2130  221.9530 O   0  0  0  0  0  0  0  0  0  0  0  0
  140.2140   75.4320  221.8210 C   0  0  0  0  0  0  0  0  0  0  0  0
  141.4380   75.8860  221.2810 N   0  0  0  0  0  0  0  0  0  0  0  0
  142.4620   74.9690  220.8510 C   0  0  0  0  0  0  0  0  0  0  0  0
  142.9680   75.2330  219.5080 C   0  0  0  0  0  0  0  0  0  0  0  0
  144.0710   74.6910  219.1650 O   0  0  0  0  0  0  0  0  0  0  0  0
  142.3500   76.0470  218.5280 N   0  0  0  0  0  0  0  0  0  0  0  0
  141.4980   75.4690  217.4730 C   0  0  0  0  0  0  0  0  0  0  0  0
  142.0820   76.2440  216.2760 C   0  0  0  0  0  0  0  0  0  0  0  0
  142.0060   77.6560  216.8870 C   0  0  2  0  0  0  0  0  0  0  0  0
  142.7520   78.5550  216.1820 O   0  0  0  0  0  0  0  0  0  0  0  0
  142.4050   77.4950  218.3400 C   0  0  1  0  0  0  0  0  0  0  0  0
  141.3620   78.1490  219.2640 C   0  0  0  0  0  0  0  0  0  0  0  0
  141.8230   78.6780  220.3760 O   0  0  0  0  0  0  0  0  0  0  0  0
  141.9230   79.5130  221.3660 C   0  0  0  0  0  0  0  0  0  0  0  0
  141.5900   80.8590  221.3410 C   0  0  0  0  0  0  0  0  0  0  0  0
  141.7250   81.6890  222.4360 C   0  0  0  0  0  0  0  0  0  0  0  0
  142.2080   81.1550  223.5920 C   0  0  0  0  0  0  0  0  0  0  0  0
  142.5560   79.8480  223.6960 C   0  0  0  0  0  0  0  0  0  0  0  0
  142.4180   79.0370  222.6020 C   0  0  0  0  0  0  0  0  0  0  0  0
  139.2040   76.4170  222.2440 C   0  0  0  0  0  0  0  0  0  0  0  0
  137.8580   76.1380  222.1750 C   0  0  0  0  0  0  0  0  0  0  0  0
  136.9710   77.1200  222.5940 C   0  0  0  0  0  0  0  0  0  0  0  0
  137.3830   78.3470  223.0680 C   0  0  0  0  0  0  0  0  0  0  0  0
  136.5320   79.3290  223.4850 C   0  0  0  0  0  0  0  0  0  0  0  0
  137.0440   80.5240  223.9430 C   0  0  0  0  0  0  0  0  0  0  0  0
  136.2630   81.5460  224.3740 F   0  0  0  0  0  0  0  0  0  0  0  0
  138.4190   80.7440  223.9870 C   0  0  0  0  0  0  0  0  0  0  0  0
  139.2940   79.7610  223.5700 C   0  0  0  0  0  0  0  0  0  0  0  0
  138.7400   78.5810  223.1180 C   0  0  0  0  0  0  0  0  0  0  0  0
  139.5820   77.6200  222.7090 N   0  0  0  0  0  0  0  0  0  0  0  0
  141.5700   76.9320  221.2060 H   0  0  0  0  0  0  0  0  0  0  0  0
  143.3033   75.0339  221.5567 H   0  0  0  0  0  0  0  0  0  0  0  0
  142.0049   73.9687  220.8284 H   0  0  0  0  0  0  0  0  0  0  0  0
  141.6374   74.3824  217.3737 H   0  0  0  0  0  0  0  0  0  0  0  0
  140.4125   75.5619  217.6246 H   0  0  0  0  0  0  0  0  0  0  0  0
  143.1149   75.9428  216.0470 H   0  0  0  0  0  0  0  0  0  0  0  0
  141.5718   76.1042  215.3116 H   0  0  0  0  0  0  0  0  0  0  0  0
  140.9943   78.0845  216.8334 H   0  0  0  0  0  0  0  0  0  0  0  0
  143.4350   78.9510  216.7720 H   0  0  0  0  0  0  0  0  0  0  0  0
  143.3788   77.9526  218.5688 H   0  0  0  0  0  0  0  0  0  0  0  0
  140.8623   78.9466  218.6947 H   0  0  0  0  0  0  0  0  0  0  0  0
  140.6954   77.3330  219.5801 H   0  0  0  0  0  0  0  0  0  0  0  0
  141.2000   81.2853  220.4049 H   0  0  0  0  0  0  0  0  0  0  0  0
  141.4500   82.7524  222.3764 H   0  0  0  0  0  0  0  0  0  0  0  0
  142.3198   81.8059  224.4716 H   0  0  0  0  0  0  0  0  0  0  0  0
  142.9428   79.4464  224.6442 H   0  0  0  0  0  0  0  0  0  0  0  0
  142.7022   77.9778  222.6874 H   0  0  0  0  0  0  0  0  0  0  0  0
  137.4971   75.1688  221.8002 H   0  0  0  0  0  0  0  0  0  0  0  0
  135.8923   76.9099  222.5457 H   0  0  0  0  0  0  0  0  0  0  0  0
  135.4443   79.1679  223.4558 H   0  0  0  0  0  0  0  0  0  0  0  0
  138.8088   81.7044  224.3553 H   0  0  0  0  0  0  0  0  0  0  0  0
  140.3833   79.9116  223.5969 H   0  0  0  0  0  0  0  0  0  0  0  0
  1  2  2  0
  2  3  1  0
  3  4  1  0
  4  5  1  0
  5  6  2  0
  5  7  1  0
  7  8  1  0
  8  9  1  0
  9 10  1  0
 10 11  1  0
 10 12  1  0
 12 13  1  0
 13 14  1  0
 14 15  1  0
 15 16  2  0
 16 17  1  0
 17 18  2  0
 18 19  1  0
 19 20  2  0
  2 21  1  0
 21 22  2  0
 22 23  1  0
 23 24  2  0
 24 25  1  0
 25 26  2  0
 26 27  1  0
 26 28  1  0
 28 29  2  0
 29 30  1  0
 30 31  2  0
 12  7  1  0
 20 15  1  0
 31 21  1  0
 30 24  1  0
  3 32  1  0
  4 33  1  0
  4 34  1  0
  8 35  1  0
  8 36  1  0
  9 37  1  0
  9 38  1  0
 10 39  1  1
 11 40  1  0
 12 41  1  6
 13 42  1  0
 13 43  1  0
 16 44  1  0
 17 45  1  0
 18 46  1  0
 19 47  1  0
 20 48  1  0
 22 49  1  0
 23 50  1  0
 25 51  1  0
 28 52  1  0
 29 53  1  0
M  END
>  <smiles>  (19) 
O=C(NCC(=O)N1CC[C@H](O)[C@H]1COc1ccccc1)c1ccc2cc(F)ccc2n1

>  <score_type>  (19) 
oracle

>  <origin>  (19) 
autodockgpu

>  <m_score__min__energy>  (19) 
-8.8599999999999994

>  <m_primary>  (19) 
energy

>  <rmsd>  (19) 
6.9667302513885785

>  <m_score__min__rmsd>  (19) 
6.9667302513885785

>  <meeko>  (19) 
{"free_energy": -6.19, "intermolecular_energy": -8.57, "internal_energy": -3.16, "cluster_size": 1, "cluster_id": 9, "rank_in_cluster": 1}

>  <energy>  (19) 
-7.48

>  <cluster_rmsd>  (19) 
1.52

>  <cluster>  (19) 
1

$$$$

     RDKit          3D

 53 56  0  0  0  0  0  0  0  0999 V2000
  140.5660   71.8820  221.0480 O   0  0  0  0  0  0  0  0  0  0  0  0
  140.1800   72.3530  222.1420 C   0  0  0  0  0  0  0  0  0  0  0  0
  139.8260   73.7130  222.2910 N   0  0  0  0  0  0  0  0  0  0  0  0
  139.8890   74.6370  221.1880 C   0  0  0  0  0  0  0  0  0  0  0  0
  140.6970   75.8220  221.4540 C   0  0  0  0  0  0  0  0  0  0  0  0
  141.0700   76.0370  222.6550 O   0  0  0  0  0  0  0  0  0  0  0  0
  141.1160   76.7780  220.4980 N   0  0  0  0  0  0  0  0  0  0  0  0
  141.8310   78.0040  220.8970 C   0  0  0  0  0  0  0  0  0  0  0  0
  141.0340   79.0080  220.0430 C   0  0  0  0  0  0  0  0  0  0  0  0
  141.1220   78.2540  218.7020 C   0  0  2  0  0  0  0  0  0  0  0  0
  140.2310   78.7380  217.7890 O   0  0  0  0  0  0  0  0  0  0  0  0
  140.9540   76.7880  219.0460 C   0  0  1  0  0  0  0  0  0  0  0  0
  142.0840   75.9510  218.4210 C   0  0  0  0  0  0  0  0  0  0  0  0
  142.9490   75.4270  219.2600 O   0  0  0  0  0  0  0  0  0  0  0  0
  143.6280   74.5080  219.8800 C   0  0  0  0  0  0  0  0  0  0  0  0
  143.2630   73.1780  220.0270 C   0  0  0  0  0  0  0  0  0  0  0  0
  144.0360   72.2550  220.7030 C   0  0  0  0  0  0  0  0  0  0  0  0
  145.2120   72.6770  221.2470 C   0  0  0  0  0  0  0  0  0  0  0  0
  145.6380   73.9600  221.1460 C   0  0  0  0  0  0  0  0  0  0  0  0
  144.8600   74.8650  220.4740 C   0  0  0  0  0  0  0  0  0  0  0  0
  140.0960   71.4550  223.3070 C   0  0  0  0  0  0  0  0  0  0  0  0
  139.5570   70.1930  223.2000 C   0  0  0  0  0  0  0  0  0  0  0  0
  139.5140   69.4080  224.3450 C   0  0  0  0  0  0  0  0  0  0  0  0
  139.9840   69.8420  225.5660 C   0  0  0  0  0  0  0  0  0  0  0  0
  139.9540   69.0920  226.7060 C   0  0  0  0  0  0  0  0  0  0  0  0
  140.4490   69.6170  227.8800 C   0  0  0  0  0  0  0  0  0  0  0  0
  140.4530   68.9330  229.0510 F   0  0  0  0  0  0  0  0  0  0  0  0
  140.9800   70.9030  227.9200 C   0  0  0  0  0  0  0  0  0  0  0  0
  141.0200   71.6760  226.7770 C   0  0  0  0  0  0  0  0  0  0  0  0
  140.5140   71.1120  225.6240 C   0  0  0  0  0  0  0  0  0  0  0  0
  140.5460   71.8560  224.5080 N   0  0  0  0  0  0  0  0  0  0  0  0
  139.5100   74.0230  223.2510 H   0  0  0  0  0  0  0  0  0  0  0  0
  140.3181   74.1128  220.3214 H   0  0  0  0  0  0  0  0  0  0  0  0
  138.8619   74.9858  221.0051 H   0  0  0  0  0  0  0  0  0  0  0  0
  141.7384   78.2080  221.9739 H   0  0  0  0  0  0  0  0  0  0  0  0
  142.9201   77.9983  220.7427 H   0  0  0  0  0  0  0  0  0  0  0  0
  139.9968   79.1219  220.3911 H   0  0  0  0  0  0  0  0  0  0  0  0
  141.4020   80.0446  220.0423 H   0  0  0  0  0  0  0  0  0  0  0  0
  142.0888   78.3994  218.1978 H   0  0  0  0  0  0  0  0  0  0  0  0
  139.3620   78.8930  218.2270 H   0  0  0  0  0  0  0  0  0  0  0  0
  140.0010   76.3725  218.6865 H   0  0  0  0  0  0  0  0  0  0  0  0
  141.6201   75.1271  217.8589 H   0  0  0  0  0  0  0  0  0  0  0  0
  142.6621   76.6523  217.8013 H   0  0  0  0  0  0  0  0  0  0  0  0
  142.3134   72.8429  219.5844 H   0  0  0  0  0  0  0  0  0  0  0  0
  143.7116   71.2084  220.7997 H   0  0  0  0  0  0  0  0  0  0  0  0
  145.8376   71.9511  221.7870 H   0  0  0  0  0  0  0  0  0  0  0  0
  146.5928   74.2691  221.5963 H   0  0  0  0  0  0  0  0  0  0  0  0
  145.2060   75.9061  220.3937 H   0  0  0  0  0  0  0  0  0  0  0  0
  139.1731   69.8186  222.2396 H   0  0  0  0  0  0  0  0  0  0  0  0
  139.0867   68.3969  224.2745 H   0  0  0  0  0  0  0  0  0  0  0  0
  139.5370   68.0743  226.6877 H   0  0  0  0  0  0  0  0  0  0  0  0
  141.3696   71.3052  228.8668 H   0  0  0  0  0  0  0  0  0  0  0  0
  141.4360   72.6943  226.7851 H   0  0  0  0  0  0  0  0  0  0  0  0
  1  2  2  0
  2  3  1  0
  3  4  1  0
  4  5  1  0
  5  6  2  0
  5  7  1  0
  7  8  1  0
  8  9  1  0
  9 10  1  0
 10 11  1  0
 10 12  1  0
 12 13  1  0
 13 14  1  0
 14 15  1  0
 15 16  2  0
 16 17  1  0
 17 18  2  0
 18 19  1  0
 19 20  2  0
  2 21  1  0
 21 22  2  0
 22 23  1  0
 23 24  2  0
 24 25  1  0
 25 26  2  0
 26 27  1  0
 26 28  1  0
 28 29  2  0
 29 30  1  0
 30 31  2  0
 12  7  1  0
 20 15  1  0
 31 21  1  0
 30 24  1  0
  3 32  1  0
  4 33  1  0
  4 34  1  0
  8 35  1  0
  8 36  1  0
  9 37  1  0
  9 38  1  0
 10 39  1  6
 11 40  1  0
 12 41  1  1
 13 42  1  0
 13 43  1  0
 16 44  1  0
 17 45  1  0
 18 46  1  0
 19 47  1  0
 20 48  1  0
 22 49  1  0
 23 50  1  0
 25 51  1  0
 28 52  1  0
 29 53  1  0
M  END
>  <smiles>  (20) 
O=C(NCC(=O)N1CC[C@H](O)[C@H]1COc1ccccc1)c1ccc2cc(F)ccc2n1

>  <score_type>  (20) 
oracle

>  <origin>  (20) 
autodockgpu

>  <m_score__min__energy>  (20) 
-8.8599999999999994

>  <m_primary>  (20) 
energy

>  <rmsd>  (20) 
2.4912658944105703

>  <m_score__min__rmsd>  (20) 
2.4912658944105703

>  <meeko>  (20) 
{"free_energy": -7.1, "intermolecular_energy": -9.48, "internal_energy": -2.18, "cluster_size": 7, "cluster_id": 6, "rank_in_cluster": 6}

>  <energy>  (20) 
-7.32

>  <cluster_rmsd>  (20) 
1.73

>  <cluster>  (20) 
1

$$$$

     RDKit          3D

 53 56  0  0  0  0  0  0  0  0999 V2000
  138.6110   75.1570  222.0300 O   0  0  0  0  0  0  0  0  0  0  0  0
  139.7750   75.6210  221.9940 C   0  0  0  0  0  0  0  0  0  0  0  0
  140.8700   74.8660  221.5190 N   0  0  0  0  0  0  0  0  0  0  0  0
  140.7110   73.5150  221.0470 C   0  0  0  0  0  0  0  0  0  0  0  0
  141.9690   72.8340  220.7620 C   0  0  0  0  0  0  0  0  0  0  0  0
  142.2650   71.8050  221.4570 O   0  0  0  0  0  0  0  0  0  0  0  0
  142.9150   73.2050  219.7770 N   0  0  0  0  0  0  0  0  0  0  0  0
  142.6440   73.0210  218.3400 C   0  0  0  0  0  0  0  0  0  0  0  0
  143.9970   72.4020  217.9420 C   0  0  0  0  0  0  0  0  0  0  0  0
  144.9080   73.4520  218.6070 C   0  0  2  0  0  0  0  0  0  0  0  0
  146.1970   73.0160  218.7040 O   0  0  0  0  0  0  0  0  0  0  0  0
  144.2460   73.7900  219.9270 C   0  0  1  0  0  0  0  0  0  0  0  0
  144.0970   75.3140  220.0840 C   0  0  0  0  0  0  0  0  0  0  0  0
  142.9410   75.8240  219.7210 O   0  0  0  0  0  0  0  0  0  0  0  0
  142.0530   76.7320  219.4460 C   0  0  0  0  0  0  0  0  0  0  0  0
  142.1660   78.0920  219.6970 C   0  0  0  0  0  0  0  0  0  0  0  0
  141.1780   79.0020  219.3770 C   0  0  0  0  0  0  0  0  0  0  0  0
  140.0420   78.5350  218.7860 C   0  0  0  0  0  0  0  0  0  0  0  0
  139.8570   77.2210  218.5070 C   0  0  0  0  0  0  0  0  0  0  0  0
  140.8450   76.3300  218.8320 C   0  0  0  0  0  0  0  0  0  0  0  0
  139.9990   76.9990  222.4650 C   0  0  0  0  0  0  0  0  0  0  0  0
  138.9480   77.8250  222.7900 C   0  0  0  0  0  0  0  0  0  0  0  0
  139.2440   79.1090  223.2260 C   0  0  0  0  0  0  0  0  0  0  0  0
  140.5340   79.5800  223.3420 C   0  0  0  0  0  0  0  0  0  0  0  0
  140.8530   80.8370  223.7670 C   0  0  0  0  0  0  0  0  0  0  0  0
  142.1760   81.2140  223.8480 C   0  0  0  0  0  0  0  0  0  0  0  0
  142.5700   82.4430  224.2610 F   0  0  0  0  0  0  0  0  0  0  0  0
  143.1940   80.3280  223.5030 C   0  0  0  0  0  0  0  0  0  0  0  0
  142.8900   79.0520  223.0710 C   0  0  0  0  0  0  0  0  0  0  0  0
  141.5540   78.7170  223.0040 C   0  0  0  0  0  0  0  0  0  0  0  0
  141.2480   77.4800  222.5850 N   0  0  0  0  0  0  0  0  0  0  0  0
  141.8160   75.3380  221.5250 H   0  0  0  0  0  0  0  0  0  0  0  0
  140.1735   72.9409  221.8161 H   0  0  0  0  0  0  0  0  0  0  0  0
  140.1582   73.5726  220.0977 H   0  0  0  0  0  0  0  0  0  0  0  0
  141.8032   72.3351  218.1594 H   0  0  0  0  0  0  0  0  0  0  0  0
  142.3454   73.9235  217.7864 H   0  0  0  0  0  0  0  0  0  0  0  0
  144.1380   71.3972  218.3669 H   0  0  0  0  0  0  0  0  0  0  0  0
  144.1559   72.2323  216.8668 H   0  0  0  0  0  0  0  0  0  0  0  0
  145.0061   74.3678  218.0055 H   0  0  0  0  0  0  0  0  0  0  0  0
  146.8030   73.7910  218.7680 H   0  0  0  0  0  0  0  0  0  0  0  0
  144.8140   73.4248  220.7953 H   0  0  0  0  0  0  0  0  0  0  0  0
  144.2539   75.5592  221.1448 H   0  0  0  0  0  0  0  0  0  0  0  0
  144.8402   75.7545  219.4031 H   0  0  0  0  0  0  0  0  0  0  0  0
  143.0857   78.4626  220.1732 H   0  0  0  0  0  0  0  0  0  0  0  0
  141.3041   80.0732  219.5929 H   0  0  0  0  0  0  0  0  0  0  0  0
  139.2470   79.2495  218.5261 H   0  0  0  0  0  0  0  0  0  0  0  0
  138.9288   76.8764  218.0276 H   0  0  0  0  0  0  0  0  0  0  0  0
  140.6931   75.2640  218.6073 H   0  0  0  0  0  0  0  0  0  0  0  0
  137.9071   77.4792  222.7070 H   0  0  0  0  0  0  0  0  0  0  0  0
  138.4131   79.7796  223.4904 H   0  0  0  0  0  0  0  0  0  0  0  0
  140.0583   81.5455  224.0434 H   0  0  0  0  0  0  0  0  0  0  0  0
  144.2446   80.6461  223.5750 H   0  0  0  0  0  0  0  0  0  0  0  0
  143.6773   78.3358  222.7931 H   0  0  0  0  0  0  0  0  0  0  0  0
  1  2  2  0
  2  3  1  0
  3  4  1  0
  4  5  1  0
  5  6  2  0
  5  7  1  0
  7  8  1  0
  8  9  1  0
  9 10  1  0
 10 11  1  0
 10 12  1  0
 12 13  1  0
 13 14  1  0
 14 15  1  0
 15 16  2  0
 16 17  1  0
 17 18  2  0
 18 19  1  0
 19 20  2  0
  2 21  1  0
 21 22  2  0
 22 23  1  0
 23 24  2  0
 24 25  1  0
 25 26  2  0
 26 27  1  0
 26 28  1  0
 28 29  2  0
 29 30  1  0
 30 31  2  0
 12  7  1  0
 20 15  1  0
 31 21  1  0
 30 24  1  0
  3 32  1  0
  4 33  1  0
  4 34  1  0
  8 35  1  0
  8 36  1  0
  9 37  1  0
  9 38  1  0
 10 39  1  6
 11 40  1  0
 12 41  1  1
 13 42  1  0
 13 43  1  0
 16 44  1  0
 17 45  1  0
 18 46  1  0
 19 47  1  0
 20 48  1  0
 22 49  1  0
 23 50  1  0
 25 51  1  0
 28 52  1  0
 29 53  1  0
M  END
>  <smiles>  (21) 
O=C(NCC(=O)N1CC[C@H](O)[C@H]1COc1ccccc1)c1ccc2cc(F)ccc2n1

>  <score_type>  (21) 
oracle

>  <origin>  (21) 
autodockgpu

>  <m_score__min__energy>  (21) 
-8.8599999999999994

>  <m_primary>  (21) 
energy

>  <rmsd>  (21) 
7.600806596980332

>  <m_score__min__rmsd>  (21) 
7.600806596980332

>  <meeko>  (21) 
{"free_energy": -6.1, "intermolecular_energy": -8.48, "internal_energy": -3.73, "cluster_size": 3, "cluster_id": 10, "rank_in_cluster": 1}

>  <energy>  (21) 
-8.35

>  <cluster_rmsd>  (21) 
0.0

>  <cluster>  (21) 
2

$$$$

     RDKit          3D

 53 56  0  0  0  0  0  0  0  0999 V2000
  139.0400   74.3910  222.0450 O   0  0  0  0  0  0  0  0  0  0  0  0
  140.1170   75.0190  221.9290 C   0  0  0  0  0  0  0  0  0  0  0  0
  141.3190   74.3860  221.5410 N   0  0  0  0  0  0  0  0  0  0  0  0
  141.3730   72.9750  221.2550 C   0  0  0  0  0  0  0  0  0  0  0  0
  142.1530   72.6400  220.0680 C   0  0  0  0  0  0  0  0  0  0  0  0
  141.5450   72.1030  219.0830 O   0  0  0  0  0  0  0  0  0  0  0  0
  143.5410   72.8510  219.8950 N   0  0  0  0  0  0  0  0  0  0  0  0
  144.2960   72.1710  218.8260 C   0  0  0  0  0  0  0  0  0  0  0  0
  145.5080   71.7260  219.6680 C   0  0  0  0  0  0  0  0  0  0  0  0
  145.8140   73.0850  220.3250 C   0  0  2  0  0  0  0  0  0  0  0  0
  146.6590   72.9550  221.3880 O   0  0  0  0  0  0  0  0  0  0  0  0
  144.4650   73.6940  220.6510 C   0  0  1  0  0  0  0  0  0  0  0  0
  144.3740   75.1310  220.1070 C   0  0  0  0  0  0  0  0  0  0  0  0
  143.1960   75.5100  219.6630 O   0  0  0  0  0  0  0  0  0  0  0  0
  142.2560   76.3120  219.2610 C   0  0  0  0  0  0  0  0  0  0  0  0
  142.3140   77.6980  219.2410 C   0  0  0  0  0  0  0  0  0  0  0  0
  141.2730   78.4890  218.8000 C   0  0  0  0  0  0  0  0  0  0  0  0
  140.1380   77.8740  218.3640 C   0  0  0  0  0  0  0  0  0  0  0  0
  140.0050   76.5240  218.3520 C   0  0  0  0  0  0  0  0  0  0  0  0
  141.0450   75.7520  218.7930 C   0  0  0  0  0  0  0  0  0  0  0  0
  140.1230   76.4660  222.2090 C   0  0  0  0  0  0  0  0  0  0  0  0
  138.9570   77.1510  222.4660 C   0  0  0  0  0  0  0  0  0  0  0  0
  139.0490   78.5120  222.7200 C   0  0  0  0  0  0  0  0  0  0  0  0
  140.2470   79.1930  222.7230 C   0  0  0  0  0  0  0  0  0  0  0  0
  140.3650   80.5300  222.9700 C   0  0  0  0  0  0  0  0  0  0  0  0
  141.6100   81.1200  222.9500 C   0  0  0  0  0  0  0  0  0  0  0  0
  141.8060   82.4410  223.1840 F   0  0  0  0  0  0  0  0  0  0  0  0
  142.7520   80.3690  222.6810 C   0  0  0  0  0  0  0  0  0  0  0  0
  142.6530   79.0150  222.4310 C   0  0  0  0  0  0  0  0  0  0  0  0
  141.3870   78.4660  222.4600 C   0  0  0  0  0  0  0  0  0  0  0  0
  141.2800   77.1510  222.2160 N   0  0  0  0  0  0  0  0  0  0  0  0
  142.1800   74.9940  221.4690 H   0  0  0  0  0  0  0  0  0  0  0  0
  141.8216   72.4637  222.1195 H   0  0  0  0  0  0  0  0  0  0  0  0
  140.3404   72.6498  221.0599 H   0  0  0  0  0  0  0  0  0  0  0  0
  143.7449   71.3170  218.4054 H   0  0  0  0  0  0  0  0  0  0  0  0
  144.5230   72.7760  217.9358 H   0  0  0  0  0  0  0  0  0  0  0  0
  145.2432   70.9551  220.4066 H   0  0  0  0  0  0  0  0  0  0  0  0
  146.3358   71.2561  219.1166 H   0  0  0  0  0  0  0  0  0  0  0  0
  146.3662   73.7624  219.6570 H   0  0  0  0  0  0  0  0  0  0  0  0
  146.4130   72.1560  221.9090 H   0  0  0  0  0  0  0  0  0  0  0  0
  144.2671   73.7389  221.7321 H   0  0  0  0  0  0  0  0  0  0  0  0
  144.6633   75.8158  220.9178 H   0  0  0  0  0  0  0  0  0  0  0  0
  145.0407   75.1575  219.2325 H   0  0  0  0  0  0  0  0  0  0  0  0
  143.2330   78.1894  219.5932 H   0  0  0  0  0  0  0  0  0  0  0  0
  141.3571   79.5858  218.8004 H   0  0  0  0  0  0  0  0  0  0  0  0
  139.3009   78.4934  218.0096 H   0  0  0  0  0  0  0  0  0  0  0  0
  139.0757   76.0574  217.9934 H   0  0  0  0  0  0  0  0  0  0  0  0
  140.9351   74.6575  218.7831 H   0  0  0  0  0  0  0  0  0  0  0  0
  137.9847   76.6366  222.4699 H   0  0  0  0  0  0  0  0  0  0  0  0
  138.1252   79.0718  222.9281 H   0  0  0  0  0  0  0  0  0  0  0  0
  139.4707   81.1336  223.1840 H   0  0  0  0  0  0  0  0  0  0  0  0
  143.7376   80.8573  222.6677 H   0  0  0  0  0  0  0  0  0  0  0  0
  143.5415   78.4023  222.2186 H   0  0  0  0  0  0  0  0  0  0  0  0
  1  2  2  0
  2  3  1  0
  3  4  1  0
  4  5  1  0
  5  6  2  0
  5  7  1  0
  7  8  1  0
  8  9  1  0
  9 10  1  0
 10 11  1  0
 10 12  1  0
 12 13  1  0
 13 14  1  0
 14 15  1  0
 15 16  2  0
 16 17  1  0
 17 18  2  0
 18 19  1  0
 19 20  2  0
  2 21  1  0
 21 22  2  0
 22 23  1  0
 23 24  2  0
 24 25  1  0
 25 26  2  0
 26 27  1  0
 26 28  1  0
 28 29  2  0
 29 30  1  0
 30 31  2  0
 12  7  1  0
 20 15  1  0
 31 21  1  0
 30 24  1  0
  3 32  1  0
  4 33  1  0
  4 34  1  0
  8 35  1  0
  8 36  1  0
  9 37  1  0
  9 38  1  0
 10 39  1  6
 11 40  1  0
 12 41  1  1
 13 42  1  0
 13 43  1  0
 16 44  1  0
 17 45  1  0
 18 46  1  0
 19 47  1  0
 20 48  1  0
 22 49  1  0
 23 50  1  0
 25 51  1  0
 28 52  1  0
 29 53  1  0
M  END
>  <smiles>  (22) 
O=C(NCC(=O)N1CC[C@H](O)[C@H]1COc1ccccc1)c1ccc2cc(F)ccc2n1

>  <score_type>  (22) 
oracle

>  <origin>  (22) 
autodockgpu

>  <m_score__min__energy>  (22) 
-8.8599999999999994

>  <m_primary>  (22) 
energy

>  <rmsd>  (22) 
7.900096867126135

>  <m_score__min__rmsd>  (22) 
7.900096867126135

>  <meeko>  (22) 
{"free_energy": -5.68, "intermolecular_energy": -8.07, "internal_energy": -3.81, "cluster_size": 7, "cluster_id": 3, "rank_in_cluster": 7}

>  <energy>  (22) 
-8.22

>  <cluster_rmsd>  (22) 
0.72

>  <cluster>  (22) 
2

$$$$

     RDKit          3D

 53 56  0  0  0  0  0  0  0  0999 V2000
  139.3670   71.6990  220.8540 O   0  0  0  0  0  0  0  0  0  0  0  0
  139.4800   72.2310  221.9830 C   0  0  0  0  0  0  0  0  0  0  0  0
  139.4330   73.6320  222.1610 N   0  0  0  0  0  0  0  0  0  0  0  0
  139.2500   74.5310  221.0510 C   0  0  0  0  0  0  0  0  0  0  0  0
  139.1770   75.9370  221.4330 C   0  0  0  0  0  0  0  0  0  0  0  0
  138.0360   76.4160  221.7420 O   0  0  0  0  0  0  0  0  0  0  0  0
  140.2630   76.8430  221.4950 N   0  0  0  0  0  0  0  0  0  0  0  0
  141.0610   77.0050  222.7240 C   0  0  0  0  0  0  0  0  0  0  0  0
  141.1030   78.5450  222.7520 C   0  0  0  0  0  0  0  0  0  0  0  0
  141.5520   78.7670  221.2950 C   0  0  2  0  0  0  0  0  0  0  0  0
  141.3800   80.0620  220.9020 O   0  0  0  0  0  0  0  0  0  0  0  0
  140.7940   77.7430  220.4740 C   0  0  1  0  0  0  0  0  0  0  0  0
  141.7580   76.9480  219.5750 C   0  0  0  0  0  0  0  0  0  0  0  0
  142.1740   75.7950  220.0470 O   0  0  0  0  0  0  0  0  0  0  0  0
  142.9870   74.8100  220.2890 C   0  0  0  0  0  0  0  0  0  0  0  0
  144.3730   74.8730  220.2980 C   0  0  0  0  0  0  0  0  0  0  0  0
  145.1750   73.7810  220.5640 C   0  0  0  0  0  0  0  0  0  0  0  0
  144.5710   72.5900  220.8300 C   0  0  0  0  0  0  0  0  0  0  0  0
  143.2220   72.4470  220.8400 C   0  0  0  0  0  0  0  0  0  0  0  0
  142.4390   73.5380  220.5740 C   0  0  0  0  0  0  0  0  0  0  0  0
  139.6690   71.3610  223.1560 C   0  0  0  0  0  0  0  0  0  0  0  0
  139.3520   70.0220  223.1140 C   0  0  0  0  0  0  0  0  0  0  0  0
  139.5600   69.2710  224.2630 C   0  0  0  0  0  0  0  0  0  0  0  0
  140.0640   69.8100  225.4270 C   0  0  0  0  0  0  0  0  0  0  0  0
  140.2780   69.0940  226.5690 C   0  0  0  0  0  0  0  0  0  0  0  0
  140.7860   69.7260  227.6840 C   0  0  0  0  0  0  0  0  0  0  0  0
  141.0250   69.0830  228.8530 F   0  0  0  0  0  0  0  0  0  0  0  0
  141.0860   71.0860  227.6610 C   0  0  0  0  0  0  0  0  0  0  0  0
  140.8770   71.8260  226.5130 C   0  0  0  0  0  0  0  0  0  0  0  0
  140.3660   71.1540  225.4220 C   0  0  0  0  0  0  0  0  0  0  0  0
  140.1590   71.8640  224.3030 N   0  0  0  0  0  0  0  0  0  0  0  0
  139.5370   73.9920  223.1500 H   0  0  0  0  0  0  0  0  0  0  0  0
  140.0960   74.4037  220.3595 H   0  0  0  0  0  0  0  0  0  0  0  0
  138.2845   74.2756  220.5899 H   0  0  0  0  0  0  0  0  0  0  0  0
  140.5560   76.5860  223.6068 H   0  0  0  0  0  0  0  0  0  0  0  0
  142.0358   76.4955  222.7369 H   0  0  0  0  0  0  0  0  0  0  0  0
  140.1164   78.9861  222.9569 H   0  0  0  0  0  0  0  0  0  0  0  0
  141.7354   78.9991  223.5291 H   0  0  0  0  0  0  0  0  0  0  0  0
  142.6328   78.6144  221.1585 H   0  0  0  0  0  0  0  0  0  0  0  0
  140.5500   80.1380  220.3760 H   0  0  0  0  0  0  0  0  0  0  0  0
  140.0348   78.1977  219.8206 H   0  0  0  0  0  0  0  0  0  0  0  0
  141.2450   76.7547  218.6213 H   0  0  0  0  0  0  0  0  0  0  0  0
  142.6595   77.5720  219.4862 H   0  0  0  0  0  0  0  0  0  0  0  0
  144.8554   75.8380  220.0832 H   0  0  0  0  0  0  0  0  0  0  0  0
  146.2713   73.8707  220.5611 H   0  0  0  0  0  0  0  0  0  0  0  0
  145.1991   71.7128  221.0444 H   0  0  0  0  0  0  0  0  0  0  0  0
  142.7649   71.4706  221.0582 H   0  0  0  0  0  0  0  0  0  0  0  0
  141.3453   73.4210  220.5823 H   0  0  0  0  0  0  0  0  0  0  0  0
  138.9473   69.5623  222.2003 H   0  0  0  0  0  0  0  0  0  0  0  0
  139.3118   68.1995  224.2435 H   0  0  0  0  0  0  0  0  0  0  0  0
  140.0465   68.0191  226.5996 H   0  0  0  0  0  0  0  0  0  0  0  0
  141.4910   71.5729  228.5604 H   0  0  0  0  0  0  0  0  0  0  0  0
  141.1073   72.9008  226.4710 H   0  0  0  0  0  0  0  0  0  0  0  0
  1  2  2  0
  2  3  1  0
  3  4  1  0
  4  5  1  0
  5  6  2  0
  5  7  1  0
  7  8  1  0
  8  9  1  0
  9 10  1  0
 10 11  1  0
 10 12  1  0
 12 13  1  0
 13 14  1  0
 14 15  1  0
 15 16  2  0
 16 17  1  0
 17 18  2  0
 18 19  1  0
 19 20  2  0
  2 21  1  0
 21 22  2  0
 22 23  1  0
 23 24  2  0
 24 25  1  0
 25 26  2  0
 26 27  1  0
 26 28  1  0
 28 29  2  0
 29 30  1  0
 30 31  2  0
 12  7  1  0
 20 15  1  0
 31 21  1  0
 30 24  1  0
  3 32  1  0
  4 33  1  0
  4 34  1  0
  8 35  1  0
  8 36  1  0
  9 37  1  0
  9 38  1  0
 10 39  1  1
 11 40  1  0
 12 41  1  6
 13 42  1  0
 13 43  1  0
 16 44  1  0
 17 45  1  0
 18 46  1  0
 19 47  1  0
 20 48  1  0
 22 49  1  0
 23 50  1  0
 25 51  1  0
 28 52  1  0
 29 53  1  0
M  END
>  <smiles>  (23) 
O=C(NCC(=O)N1CC[C@H](O)[C@H]1COc1ccccc1)c1ccc2cc(F)ccc2n1

>  <score_type>  (23) 
oracle

>  <origin>  (23) 
autodockgpu

>  <m_score__min__energy>  (23) 
-8.8599999999999994

>  <m_primary>  (23) 
energy

>  <rmsd>  (23) 
2.9974224782253396

>  <m_score__min__rmsd>  (23) 
2.9974224782253396

>  <meeko>  (23) 
{"free_energy": -7.28, "intermolecular_energy": -9.66, "internal_energy": -2.16, "cluster_size": 7, "cluster_id": 6, "rank_in_cluster": 3}

>  <energy>  (23) 
-8.12

>  <cluster_rmsd>  (23) 
0.59

>  <cluster>  (23) 
2

$$$$

     RDKit          3D

 53 56  0  0  0  0  0  0  0  0999 V2000
  140.7820   71.8060  221.1440 O   0  0  0  0  0  0  0  0  0  0  0  0
  140.3190   72.2740  222.2100 C   0  0  0  0  0  0  0  0  0  0  0  0
  139.9540   73.6330  222.3370 N   0  0  0  0  0  0  0  0  0  0  0  0
  140.0920   74.5600  221.2440 C   0  0  0  0  0  0  0  0  0  0  0  0
  139.6620   75.9180  221.5600 C   0  0  0  0  0  0  0  0  0  0  0  0
  139.2880   76.1660  222.7540 O   0  0  0  0  0  0  0  0  0  0  0  0
  139.6120   77.0090  220.6600 N   0  0  0  0  0  0  0  0  0  0  0  0
  138.8680   78.2400  220.9820 C   0  0  0  0  0  0  0  0  0  0  0  0
  138.1460   78.4150  219.6320 C   0  0  0  0  0  0  0  0  0  0  0  0
  139.3770   78.2650  218.7180 C   0  0  2  0  0  0  0  0  0  0  0  0
  139.0220   78.0570  217.4170 O   0  0  0  0  0  0  0  0  0  0  0  0
  140.2130   77.1630  219.3370 C   0  0  1  0  0  0  0  0  0  0  0  0
  141.6710   77.6210  219.5120 C   0  0  0  0  0  0  0  0  0  0  0  0
  141.8660   78.6430  220.3150 O   0  0  0  0  0  0  0  0  0  0  0  0
  141.8390   79.3430  221.4100 C   0  0  0  0  0  0  0  0  0  0  0  0
  141.8340   80.7270  221.4990 C   0  0  0  0  0  0  0  0  0  0  0  0
  141.8070   81.4040  222.7020 C   0  0  0  0  0  0  0  0  0  0  0  0
  141.7820   80.6720  223.8510 C   0  0  0  0  0  0  0  0  0  0  0  0
  141.7850   79.3160  223.8470 C   0  0  0  0  0  0  0  0  0  0  0  0
  141.8140   78.6580  222.6470 C   0  0  0  0  0  0  0  0  0  0  0  0
  140.1550   71.3730  223.3630 C   0  0  0  0  0  0  0  0  0  0  0  0
  139.5950   70.1230  223.2220 C   0  0  0  0  0  0  0  0  0  0  0  0
  139.4760   69.3350  224.3580 C   0  0  0  0  0  0  0  0  0  0  0  0
  139.8900   69.7530  225.6050 C   0  0  0  0  0  0  0  0  0  0  0  0
  139.7840   68.9980  226.7370 C   0  0  0  0  0  0  0  0  0  0  0  0
  140.2280   69.5060  227.9390 C   0  0  0  0  0  0  0  0  0  0  0  0
  140.1560   68.8180  229.1040 F   0  0  0  0  0  0  0  0  0  0  0  0
  140.7850   70.7810  228.0140 C   0  0  0  0  0  0  0  0  0  0  0  0
  140.9010   71.5580  226.8780 C   0  0  0  0  0  0  0  0  0  0  0  0
  140.4440   71.0110  225.6970 C   0  0  0  0  0  0  0  0  0  0  0  0
  140.5510   71.7590  224.5890 N   0  0  0  0  0  0  0  0  0  0  0  0
  139.5710   73.9410  223.2740 H   0  0  0  0  0  0  0  0  0  0  0  0
  141.1513   74.5923  220.9494 H   0  0  0  0  0  0  0  0  0  0  0  0
  139.4386   74.1991  220.4360 H   0  0  0  0  0  0  0  0  0  0  0  0
  138.1643   78.0954  221.8150 H   0  0  0  0  0  0  0  0  0  0  0  0
  139.4726   79.0945  221.3199 H   0  0  0  0  0  0  0  0  0  0  0  0
  137.3958   77.6303  219.4546 H   0  0  0  0  0  0  0  0  0  0  0  0
  137.5609   79.3385  219.5106 H   0  0  0  0  0  0  0  0  0  0  0  0
  139.9749   79.1865  218.6611 H   0  0  0  0  0  0  0  0  0  0  0  0
  138.9570   78.9230  216.9520 H   0  0  0  0  0  0  0  0  0  0  0  0
  140.2281   76.2467  218.7285 H   0  0  0  0  0  0  0  0  0  0  0  0
  142.2450   76.7698  219.9068 H   0  0  0  0  0  0  0  0  0  0  0  0
  141.9935   77.9626  218.5174 H   0  0  0  0  0  0  0  0  0  0  0  0
  141.8524   81.3125  220.5679 H   0  0  0  0  0  0  0  0  0  0  0  0
  141.8057   82.5036  222.7320 H   0  0  0  0  0  0  0  0  0  0  0  0
  141.7585   81.1997  224.8159 H   0  0  0  0  0  0  0  0  0  0  0  0
  141.7645   78.7541  224.7924 H   0  0  0  0  0  0  0  0  0  0  0  0
  141.8180   77.5580  222.6448 H   0  0  0  0  0  0  0  0  0  0  0  0
  139.2532   69.7610  222.2411 H   0  0  0  0  0  0  0  0  0  0  0  0
  139.0321   68.3334  224.2594 H   0  0  0  0  0  0  0  0  0  0  0  0
  139.3467   67.9897  226.6904 H   0  0  0  0  0  0  0  0  0  0  0  0
  141.1338   71.1703  228.9819 H   0  0  0  0  0  0  0  0  0  0  0  0
  141.3379   72.5669  226.9134 H   0  0  0  0  0  0  0  0  0  0  0  0
  1  2  2  0
  2  3  1  0
  3  4  1  0
  4  5  1  0
  5  6  2  0
  5  7  1  0
  7  8  1  0
  8  9  1  0
  9 10  1  0
 10 11  1  0
 10 12  1  0
 12 13  1  0
 13 14  1  0
 14 15  1  0
 15 16  2  0
 16 17  1  0
 17 18  2  0
 18 19  1  0
 19 20  2  0
  2 21  1  0
 21 22  2  0
 22 23  1  0
 23 24  2  0
 24 25  1  0
 25 26  2  0
 26 27  1  0
 26 28  1  0
 28 29  2  0
 29 30  1  0
 30 31  2  0
 12  7  1  0
 20 15  1  0
 31 21  1  0
 30 24  1  0
  3 32  1  0
  4 33  1  0
  4 34  1  0
  8 35  1  0
  8 36  1  0
  9 37  1  0
  9 38  1  0
 10 39  1  6
 11 40  1  0
 12 41  1  6
 13 42  1  0
 13 43  1  0
 16 44  1  0
 17 45  1  0
 18 46  1  0
 19 47  1  0
 20 48  1  0
 22 49  1  0
 23 50  1  0
 25 51  1  0
 28 52  1  0
 29 53  1  0
M  END
>  <smiles>  (24) 
O=C(NCC(=O)N1CC[C@H](O)[C@H]1COc1ccccc1)c1ccc2cc(F)ccc2n1

>  <score_type>  (24) 
oracle

>  <origin>  (24) 
autodockgpu

>  <m_score__min__energy>  (24) 
-8.8599999999999994

>  <m_primary>  (24) 
energy

>  <rmsd>  (24) 
2.37766457791461

>  <m_score__min__rmsd>  (24) 
2.37766457791461

>  <meeko>  (24) 
{"free_energy": -7.32, "intermolecular_energy": -9.7, "internal_energy": -2.08, "cluster_size": 20, "cluster_id": 1, "rank_in_cluster": 20}

>  <energy>  (24) 
-7.81

>  <cluster_rmsd>  (24) 
0.87

>  <cluster>  (24) 
2

$$$$

     RDKit          3D

 53 56  0  0  0  0  0  0  0  0999 V2000
  138.0150   75.4420  222.0420 O   0  0  0  0  0  0  0  0  0  0  0  0
  139.2050   75.8260  221.9720 C   0  0  0  0  0  0  0  0  0  0  0  0
  140.2260   75.0120  221.4310 N   0  0  0  0  0  0  0  0  0  0  0  0
  139.9550   73.6910  220.9280 C   0  0  0  0  0  0  0  0  0  0  0  0
  139.9510   72.6550  221.9550 C   0  0  0  0  0  0  0  0  0  0  0  0
  140.7710   72.7690  222.9250 O   0  0  0  0  0  0  0  0  0  0  0  0
  139.1170   71.5120  221.9850 N   0  0  0  0  0  0  0  0  0  0  0  0
  139.6210   70.1800  221.6010 C   0  0  0  0  0  0  0  0  0  0  0  0
  138.4430   69.7540  220.7040 C   0  0  0  0  0  0  0  0  0  0  0  0
  137.3030   70.0890  221.6860 C   0  0  2  0  0  0  0  0  0  0  0  0
  136.0900   70.1160  221.0640 O   0  0  0  0  0  0  0  0  0  0  0  0
  137.7090   71.3860  222.3550 C   0  0  1  0  0  0  0  0  0  0  0  0
  137.6150   71.2590  223.8860 C   0  0  0  0  0  0  0  0  0  0  0  0
  138.5780   70.5840  224.4730 O   0  0  0  0  0  0  0  0  0  0  0  0
  139.3490   70.1610  225.4300 C   0  0  0  0  0  0  0  0  0  0  0  0
  139.4130   68.8660  225.9210 C   0  0  0  0  0  0  0  0  0  0  0  0
  140.2580   68.4890  226.9450 C   0  0  0  0  0  0  0  0  0  0  0  0
  141.0660   69.4390  227.4930 C   0  0  0  0  0  0  0  0  0  0  0  0
  141.0630   70.7270  227.0680 C   0  0  0  0  0  0  0  0  0  0  0  0
  140.2180   71.0870  226.0530 C   0  0  0  0  0  0  0  0  0  0  0  0
  139.5430   77.1700  222.4720 C   0  0  0  0  0  0  0  0  0  0  0  0
  138.5670   78.0440  222.8920 C   0  0  0  0  0  0  0  0  0  0  0  0
  138.9690   79.2920  223.3490 C   0  0  0  0  0  0  0  0  0  0  0  0
  140.2900   79.6810  223.3960 C   0  0  0  0  0  0  0  0  0  0  0  0
  140.7120   80.9000  223.8410 C   0  0  0  0  0  0  0  0  0  0  0  0
  142.0580   81.1950  223.8480 C   0  0  0  0  0  0  0  0  0  0  0  0
  142.5520   82.3830  224.2750 F   0  0  0  0  0  0  0  0  0  0  0  0
  142.9960   80.2640  223.4080 C   0  0  0  0  0  0  0  0  0  0  0  0
  142.5880   79.0240  222.9560 C   0  0  0  0  0  0  0  0  0  0  0  0
  141.2310   78.7720  222.9650 C   0  0  0  0  0  0  0  0  0  0  0  0
  140.8250   77.5710  222.5260 N   0  0  0  0  0  0  0  0  0  0  0  0
  141.2020   75.4180  221.4120 H   0  0  0  0  0  0  0  0  0  0  0  0
  138.9678   73.7012  220.4430 H   0  0  0  0  0  0  0  0  0  0  0  0
  140.7674   73.4434  220.2290 H   0  0  0  0  0  0  0  0  0  0  0  0
  140.5683   70.2376  221.0449 H   0  0  0  0  0  0  0  0  0  0  0  0
  139.8665   69.4999  222.4299 H   0  0  0  0  0  0  0  0  0  0  0  0
  138.3859   70.3474  219.7795 H   0  0  0  0  0  0  0  0  0  0  0  0
  138.4698   68.7215  220.3255 H   0  0  0  0  0  0  0  0  0  0  0  0
  137.1641   69.3132  222.4534 H   0  0  0  0  0  0  0  0  0  0  0  0
  135.8550   71.0470  220.8400 H   0  0  0  0  0  0  0  0  0  0  0  0
  137.0769   72.2353  222.0563 H   0  0  0  0  0  0  0  0  0  0  0  0
  137.6124   72.2751  224.3074 H   0  0  0  0  0  0  0  0  0  0  0  0
  136.6955   70.6866  224.0777 H   0  0  0  0  0  0  0  0  0  0  0  0
  138.7594   68.1029  225.4732 H   0  0  0  0  0  0  0  0  0  0  0  0
  140.2784   67.4509  227.3083 H   0  0  0  0  0  0  0  0  0  0  0  0
  141.7450   69.1513  228.3092 H   0  0  0  0  0  0  0  0  0  0  0  0
  141.7287   71.4701  227.5313 H   0  0  0  0  0  0  0  0  0  0  0  0
  140.2147   72.1322  225.7101 H   0  0  0  0  0  0  0  0  0  0  0  0
  137.5037   77.7635  222.8666 H   0  0  0  0  0  0  0  0  0  0  0  0
  138.1994   80.0010  223.6883 H   0  0  0  0  0  0  0  0  0  0  0  0
  139.9814   81.6434  224.1924 H   0  0  0  0  0  0  0  0  0  0  0  0
  144.0664   80.5173  223.4205 H   0  0  0  0  0  0  0  0  0  0  0  0
  143.3108   78.2726  222.6053 H   0  0  0  0  0  0  0  0  0  0  0  0
  1  2  2  0
  2  3  1  0
  3  4  1  0
  4  5  1  0
  5  6  2  0
  5  7  1  0
  7  8  1  0
  8  9  1  0
  9 10  1  0
 10 11  1  0
 10 12  1  0
 12 13  1  0
 13 14  1  0
 14 15  1  0
 15 16  2  0
 16 17  1  0
 17 18  2  0
 18 19  1  0
 19 20  2  0
  2 21  1  0
 21 22  2  0
 22 23  1  0
 23 24  2  0
 24 25  1  0
 25 26  2  0
 26 27  1  0
 26 28  1  0
 28 29  2  0
 29 30  1  0
 30 31  2  0
 12  7  1  0
 20 15  1  0
 31 21  1  0
 30 24  1  0
  3 32  1  0
  4 33  1  0
  4 34  1  0
  8 35  1  0
  8 36  1  0
  9 37  1  0
  9 38  1  0
 10 39  1  1
 11 40  1  0
 12 41  1  6
 13 42  1  0
 13 43  1  0
 16 44  1  0
 17 45  1  0
 18 46  1  0
 19 47  1  0
 20 48  1  0
 22 49  1  0
 23 50  1  0
 25 51  1  0
 28 52  1  0
 29 53  1  0
M  END
>  <smiles>  (25) 
O=C(NCC(=O)N1CC[C@H](O)[C@H]1COc1ccccc1)c1ccc2cc(F)ccc2n1

>  <score_type>  (25) 
oracle

>  <origin>  (25) 
autodockgpu

>  <m_score__min__energy>  (25) 
-8.8599999999999994

>  <m_primary>  (25) 
energy

>  <rmsd>  (25) 
8.355018847825194

>  <m_score__min__rmsd>  (25) 
8.355018847825194

>  <meeko>  (25) 
{"free_energy": -6.97, "intermolecular_energy": -9.36, "internal_energy": -1.85, "cluster_size": 3, "cluster_id": 4, "rank_in_cluster": 3}

>  <energy>  (25) 
-7.9

>  <cluster_rmsd>  (25) 
0.0

>  <cluster>  (25) 
3

$$$$

     RDKit          3D

 53 56  0  0  0  0  0  0  0  0999 V2000
  140.4590   71.4360  221.0750 O   0  0  0  0  0  0  0  0  0  0  0  0
  140.1130   71.9570  222.1600 C   0  0  0  0  0  0  0  0  0  0  0  0
  139.8630   73.3420  222.2830 N   0  0  0  0  0  0  0  0  0  0  0  0
  139.9910   74.2370  221.1620 C   0  0  0  0  0  0  0  0  0  0  0  0
  139.8100   75.6440  221.5030 C   0  0  0  0  0  0  0  0  0  0  0  0
  139.5660   75.9400  222.7200 O   0  0  0  0  0  0  0  0  0  0  0  0
  139.8750   76.7360  220.6050 N   0  0  0  0  0  0  0  0  0  0  0  0
  138.8880   77.8290  220.6480 C   0  0  0  0  0  0  0  0  0  0  0  0
  138.6040   77.9240  219.1370 C   0  0  0  0  0  0  0  0  0  0  0  0
  140.0660   77.9880  218.6560 C   0  0  2  0  0  0  0  0  0  0  0  0
  140.1700   77.7600  217.3150 O   0  0  0  0  0  0  0  0  0  0  0  0
  140.8270   77.0130  219.5310 C   0  0  1  0  0  0  0  0  0  0  0  0
  142.0700   77.6860  220.1400 C   0  0  0  0  0  0  0  0  0  0  0  0
  141.9000   78.2740  221.3030 O   0  0  0  0  0  0  0  0  0  0  0  0
  141.8280   79.2380  222.1710 C   0  0  0  0  0  0  0  0  0  0  0  0
  140.6730   79.8830  222.5870 C   0  0  0  0  0  0  0  0  0  0  0  0
  140.6720   80.9040  223.5160 C   0  0  0  0  0  0  0  0  0  0  0  0
  141.8660   81.2910  224.0460 C   0  0  0  0  0  0  0  0  0  0  0  0
  143.0390   80.7100  223.6910 C   0  0  0  0  0  0  0  0  0  0  0  0
  143.0250   79.6990  222.7670 C   0  0  0  0  0  0  0  0  0  0  0  0
  139.9660   71.0910  223.3430 C   0  0  0  0  0  0  0  0  0  0  0  0
  139.3770   69.8500  223.2530 C   0  0  0  0  0  0  0  0  0  0  0  0
  139.2770   69.0950  224.4140 C   0  0  0  0  0  0  0  0  0  0  0  0
  139.7380   69.5380  225.6350 C   0  0  0  0  0  0  0  0  0  0  0  0
  139.6520   68.8170  226.7910 C   0  0  0  0  0  0  0  0  0  0  0  0
  140.1430   69.3480  227.9640 C   0  0  0  0  0  0  0  0  0  0  0  0
  140.0930   68.6930  229.1490 F   0  0  0  0  0  0  0  0  0  0  0  0
  140.7270   70.6120  227.9860 C   0  0  0  0  0  0  0  0  0  0  0  0
  140.8240   71.3560  226.8270 C   0  0  0  0  0  0  0  0  0  0  0  0
  140.3190   70.7860  225.6760 C   0  0  0  0  0  0  0  0  0  0  0  0
  140.4080   71.5020  224.5440 N   0  0  0  0  0  0  0  0  0  0  0  0
  139.5760   73.6940  223.2370 H   0  0  0  0  0  0  0  0  0  0  0  0
  140.9957   74.1116  220.7321 H   0  0  0  0  0  0  0  0  0  0  0  0
  139.1916   73.9757  220.4530 H   0  0  0  0  0  0  0  0  0  0  0  0
  137.9910   77.5575  221.2239 H   0  0  0  0  0  0  0  0  0  0  0  0
  139.2186   78.7580  221.1356 H   0  0  0  0  0  0  0  0  0  0  0  0
  138.0766   77.0378  218.7543 H   0  0  0  0  0  0  0  0  0  0  0  0
  137.9507   78.7489  218.8165 H   0  0  0  0  0  0  0  0  0  0  0  0
  140.5024   78.9917  218.7658 H   0  0  0  0  0  0  0  0  0  0  0  0
  140.9590   78.2310  216.9610 H   0  0  0  0  0  0  0  0  0  0  0  0
  141.1716   76.1253  218.9803 H   0  0  0  0  0  0  0  0  0  0  0  0
  142.8430   76.9134  220.2643 H   0  0  0  0  0  0  0  0  0  0  0  0
  142.3421   78.4901  219.4404 H   0  0  0  0  0  0  0  0  0  0  0  0
  139.7118   79.5659  222.1562 H   0  0  0  0  0  0  0  0  0  0  0  0
  139.7338   81.3913  223.8198 H   0  0  0  0  0  0  0  0  0  0  0  0
  141.8791   82.1031  224.7878 H   0  0  0  0  0  0  0  0  0  0  0  0
  143.9865   81.0454  224.1380 H   0  0  0  0  0  0  0  0  0  0  0  0
  143.9771   79.2296  222.4786 H   0  0  0  0  0  0  0  0  0  0  0  0
  138.9981   69.4691  222.2931 H   0  0  0  0  0  0  0  0  0  0  0  0
  138.8098   68.1008  224.3568 H   0  0  0  0  0  0  0  0  0  0  0  0
  139.1931   67.8173  226.7862 H   0  0  0  0  0  0  0  0  0  0  0  0
  141.1131   71.0199  228.9318 H   0  0  0  0  0  0  0  0  0  0  0  0
  141.2822   72.3560  226.8213 H   0  0  0  0  0  0  0  0  0  0  0  0
  1  2  2  0
  2  3  1  0
  3  4  1  0
  4  5  1  0
  5  6  2  0
  5  7  1  0
  7  8  1  0
  8  9  1  0
  9 10  1  0
 10 11  1  0
 10 12  1  0
 12 13  1  0
 13 14  1  0
 14 15  1  0
 15 16  2  0
 16 17  1  0
 17 18  2  0
 18 19  1  0
 19 20  2  0
  2 21  1  0
 21 22  2  0
 22 23  1  0
 23 24  2  0
 24 25  1  0
 25 26  2  0
 26 27  1  0
 26 28  1  0
 28 29  2  0
 29 30  1  0
 30 31  2  0
 12  7  1  0
 20 15  1  0
 31 21  1  0
 30 24  1  0
  3 32  1  0
  4 33  1  0
  4 34  1  0
  8 35  1  0
  8 36  1  0
  9 37  1  0
  9 38  1  0
 10 39  1  6
 11 40  1  0
 12 41  1  6
 13 42  1  0
 13 43  1  0
 16 44  1  0
 17 45  1  0
 18 46  1  0
 19 47  1  0
 20 48  1  0
 22 49  1  0
 23 50  1  0
 25 51  1  0
 28 52  1  0
 29 53  1  0
M  END
>  <smiles>  (26) 
O=C(NCC(=O)N1CC[C@H](O)[C@H]1COc1ccccc1)c1ccc2cc(F)ccc2n1

>  <score_type>  (26) 
oracle

>  <origin>  (26) 
autodockgpu

>  <m_score__min__energy>  (26) 
-8.8599999999999994

>  <m_primary>  (26) 
energy

>  <rmsd>  (26) 
2.042036768418474

>  <m_score__min__rmsd>  (26) 
2.042036768418474

>  <meeko>  (26) 
{"free_energy": -7.48, "intermolecular_energy": -9.87, "internal_energy": -1.99, "cluster_size": 20, "cluster_id": 1, "rank_in_cluster": 19}

>  <energy>  (26) 
-7.57

>  <cluster_rmsd>  (26) 
0.31

>  <cluster>  (26) 
3

$$$$

     RDKit          3D

 53 56  0  0  0  0  0  0  0  0999 V2000
  140.0940   71.7070  220.9100 O   0  0  0  0  0  0  0  0  0  0  0  0
  139.8610   72.2410  222.0190 C   0  0  0  0  0  0  0  0  0  0  0  0
  139.5770   73.6200  222.1440 N   0  0  0  0  0  0  0  0  0  0  0  0
  139.5380   74.4920  220.9990 C   0  0  0  0  0  0  0  0  0  0  0  0
  139.3590   75.9000  221.3320 C   0  0  0  0  0  0  0  0  0  0  0  0
  138.1710   76.3220  221.5350 O   0  0  0  0  0  0  0  0  0  0  0  0
  140.3850   76.8670  221.4540 N   0  0  0  0  0  0  0  0  0  0  0  0
  141.0760   77.1000  222.7350 C   0  0  0  0  0  0  0  0  0  0  0  0
  141.0310   78.6400  222.7280 C   0  0  0  0  0  0  0  0  0  0  0  0
  141.5790   78.8560  221.3040 C   0  0  2  0  0  0  0  0  0  0  0  0
  141.3670   80.1310  220.8670 O   0  0  0  0  0  0  0  0  0  0  0  0
  140.9440   77.7740  220.4540 C   0  0  1  0  0  0  0  0  0  0  0  0
  142.0160   77.0170  219.6510 C   0  0  0  0  0  0  0  0  0  0  0  0
  142.3160   75.8100  220.0770 O   0  0  0  0  0  0  0  0  0  0  0  0
  143.0440   74.7660  220.3350 C   0  0  0  0  0  0  0  0  0  0  0  0
  142.5800   73.4800  220.5710 C   0  0  0  0  0  0  0  0  0  0  0  0
  143.4160   72.4150  220.8420 C   0  0  0  0  0  0  0  0  0  0  0  0
  144.7590   72.6450  220.8770 C   0  0  0  0  0  0  0  0  0  0  0  0
  145.2900   73.8730  220.6570 C   0  0  0  0  0  0  0  0  0  0  0  0
  144.4490   74.9200  220.3900 C   0  0  0  0  0  0  0  0  0  0  0  0
  139.8880   71.3980  223.2270 C   0  0  0  0  0  0  0  0  0  0  0  0
  139.4260   70.1010  223.2060 C   0  0  0  0  0  0  0  0  0  0  0  0
  139.4860   69.3740  224.3870 C   0  0  0  0  0  0  0  0  0  0  0  0
  139.9820   69.8960  225.5620 C   0  0  0  0  0  0  0  0  0  0  0  0
  140.0510   69.2030  226.7360 C   0  0  0  0  0  0  0  0  0  0  0  0
  140.5650   69.8140  227.8590 C   0  0  0  0  0  0  0  0  0  0  0  0
  140.6660   69.1910  229.0580 F   0  0  0  0  0  0  0  0  0  0  0  0
  141.0140   71.1320  227.8130 C   0  0  0  0  0  0  0  0  0  0  0  0
  140.9530   71.8480  226.6340 C   0  0  0  0  0  0  0  0  0  0  0  0
  140.4320   71.1970  225.5350 C   0  0  0  0  0  0  0  0  0  0  0  0
  140.3660   71.8860  224.3840 N   0  0  0  0  0  0  0  0  0  0  0  0
  139.3930   73.9840  223.1190 H   0  0  0  0  0  0  0  0  0  0  0  0
  140.4848   74.3841  220.4496 H   0  0  0  0  0  0  0  0  0  0  0  0
  138.6648   74.1929  220.4007 H   0  0  0  0  0  0  0  0  0  0  0  0
  140.5286   76.6713  223.5874 H   0  0  0  0  0  0  0  0  0  0  0  0
  142.0736   76.6473  222.8339 H   0  0  0  0  0  0  0  0  0  0  0  0
  140.0088   79.0288  222.8459 H   0  0  0  0  0  0  0  0  0  0  0  0
  141.5750   79.1455  223.5396 H   0  0  0  0  0  0  0  0  0  0  0  0
  142.6738   78.7615  221.2535 H   0  0  0  0  0  0  0  0  0  0  0  0
  140.4340   80.2240  220.5630 H   0  0  0  0  0  0  0  0  0  0  0  0
  140.2137   78.1711  219.7336 H   0  0  0  0  0  0  0  0  0  0  0  0
  141.6583   76.9278  218.6146 H   0  0  0  0  0  0  0  0  0  0  0  0
  142.9382   77.6062  219.7628 H   0  0  0  0  0  0  0  0  0  0  0  0
  141.4952   73.3004  220.5408 H   0  0  0  0  0  0  0  0  0  0  0  0
  143.0096   71.4093  221.0245 H   0  0  0  0  0  0  0  0  0  0  0  0
  145.4359   71.8048  221.0913 H   0  0  0  0  0  0  0  0  0  0  0  0
  146.3788   74.0257  220.6924 H   0  0  0  0  0  0  0  0  0  0  0  0
  144.8811   75.9158  220.2120 H   0  0  0  0  0  0  0  0  0  0  0  0
  139.0229   69.6560  222.2843 H   0  0  0  0  0  0  0  0  0  0  0  0
  139.1218   68.3361  224.3849 H   0  0  0  0  0  0  0  0  0  0  0  0
  139.6981   68.1623  226.7853 H   0  0  0  0  0  0  0  0  0  0  0  0
  141.4190   71.6044  228.7201 H   0  0  0  0  0  0  0  0  0  0  0  0
  141.3035   72.8889  226.5739 H   0  0  0  0  0  0  0  0  0  0  0  0
  1  2  2  0
  2  3  1  0
  3  4  1  0
  4  5  1  0
  5  6  2  0
  5  7  1  0
  7  8  1  0
  8  9  1  0
  9 10  1  0
 10 11  1  0
 10 12  1  0
 12 13  1  0
 13 14  1  0
 14 15  1  0
 15 16  2  0
 16 17  1  0
 17 18  2  0
 18 19  1  0
 19 20  2  0
  2 21  1  0
 21 22  2  0
 22 23  1  0
 23 24  2  0
 24 25  1  0
 25 26  2  0
 26 27  1  0
 26 28  1  0
 28 29  2  0
 29 30  1  0
 30 31  2  0
 12  7  1  0
 20 15  1  0
 31 21  1  0
 30 24  1  0
  3 32  1  0
  4 33  1  0
  4 34  1  0
  8 35  1  0
  8 36  1  0
  9 37  1  0
  9 38  1  0
 10 39  1  1
 11 40  1  0
 12 41  1  6
 13 42  1  0
 13 43  1  0
 16 44  1  0
 17 45  1  0
 18 46  1  0
 19 47  1  0
 20 48  1  0
 22 49  1  0
 23 50  1  0
 25 51  1  0
 28 52  1  0
 29 53  1  0
M  END
>  <smiles>  (27) 
O=C(NCC(=O)N1CC[C@H](O)[C@H]1COc1ccccc1)c1ccc2cc(F)ccc2n1

>  <score_type>  (27) 
oracle

>  <origin>  (27) 
autodockgpu

>  <m_score__min__energy>  (27) 
-8.8599999999999994

>  <m_primary>  (27) 
energy

>  <rmsd>  (27) 
3.052435327165227

>  <m_score__min__rmsd>  (27) 
3.052435327165227

>  <meeko>  (27) 
{"free_energy": -7.51, "intermolecular_energy": -9.9, "internal_energy": -2.03, "cluster_size": 7, "cluster_id": 6, "rank_in_cluster": 1}

>  <energy>  (27) 
-6.27

>  <cluster_rmsd>  (27) 
1.88

>  <cluster>  (27) 
3

$$$$

     RDKit          3D

 53 56  0  0  0  0  0  0  0  0999 V2000
  143.2150   75.1200  218.2380 O   0  0  0  0  0  0  0  0  0  0  0  0
  143.0100   75.5510  219.3970 C   0  0  0  0  0  0  0  0  0  0  0  0
  143.1910   74.7430  220.5410 N   0  0  0  0  0  0  0  0  0  0  0  0
  143.6240   73.3730  220.4400 C   0  0  0  0  0  0  0  0  0  0  0  0
  142.5430   72.4000  220.5530 C   0  0  0  0  0  0  0  0  0  0  0  0
  142.8300   71.1650  220.4080 O   0  0  0  0  0  0  0  0  0  0  0  0
  141.1810   72.6900  220.8090 N   0  0  0  0  0  0  0  0  0  0  0  0
  140.1860   72.7350  219.7220 C   0  0  0  0  0  0  0  0  0  0  0  0
  139.4820   74.0440  220.1290 C   0  0  0  0  0  0  0  0  0  0  0  0
  139.2490   73.7000  221.6120 C   0  0  2  0  0  0  0  0  0  0  0  0
  138.9140   74.8030  222.3420 O   0  0  0  0  0  0  0  0  0  0  0  0
  140.5060   72.9880  222.0690 C   0  0  1  0  0  0  0  0  0  0  0  0
  140.1540   71.6600  222.7630 C   0  0  0  0  0  0  0  0  0  0  0  0
  140.4260   71.5870  224.0470 O   0  0  0  0  0  0  0  0  0  0  0  0
  140.5220   71.0680  225.2350 C   0  0  0  0  0  0  0  0  0  0  0  0
  140.2370   69.7560  225.5830 C   0  0  0  0  0  0  0  0  0  0  0  0
  140.3610   69.2740  226.8700 C   0  0  0  0  0  0  0  0  0  0  0  0
  140.7840   70.1330  227.8400 C   0  0  0  0  0  0  0  0  0  0  0  0
  141.0820   71.4300  227.5800 C   0  0  0  0  0  0  0  0  0  0  0  0
  140.9540   71.8940  226.2980 C   0  0  0  0  0  0  0  0  0  0  0  0
  142.5650   76.9450  219.5620 C   0  0  0  0  0  0  0  0  0  0  0  0
  142.5350   77.8190  218.4990 C   0  0  0  0  0  0  0  0  0  0  0  0
  142.1030   79.1160  218.7390 C   0  0  0  0  0  0  0  0  0  0  0  0
  141.7090   79.5540  219.9850 C   0  0  0  0  0  0  0  0  0  0  0  0
  141.2800   80.8230  220.2470 C   0  0  0  0  0  0  0  0  0  0  0  0
  140.9070   81.1650  221.5290 C   0  0  0  0  0  0  0  0  0  0  0  0
  140.4720   82.4030  221.8670 F   0  0  0  0  0  0  0  0  0  0  0  0
  140.9620   80.2320  222.5620 C   0  0  0  0  0  0  0  0  0  0  0  0
  141.3920   78.9430  222.3150 C   0  0  0  0  0  0  0  0  0  0  0  0
  141.7560   78.6450  221.0180 C   0  0  0  0  0  0  0  0  0  0  0  0
  142.1770   77.3950  220.7680 N   0  0  0  0  0  0  0  0  0  0  0  0
  142.9940   75.1890  221.4790 H   0  0  0  0  0  0  0  0  0  0  0  0
  144.1127   73.2356  219.4641 H   0  0  0  0  0  0  0  0  0  0  0  0
  144.3057   73.1913  221.2840 H   0  0  0  0  0  0  0  0  0  0  0  0
  140.6558   72.8057  218.7299 H   0  0  0  0  0  0  0  0  0  0  0  0
  139.5398   71.8504  219.6224 H   0  0  0  0  0  0  0  0  0  0  0  0
  140.1293   74.9241  220.0008 H   0  0  0  0  0  0  0  0  0  0  0  0
  138.5890   74.3164  219.5474 H   0  0  0  0  0  0  0  0  0  0  0  0
  138.3829   73.0383  221.7607 H   0  0  0  0  0  0  0  0  0  0  0  0
  139.2360   74.6960  223.2670 H   0  0  0  0  0  0  0  0  0  0  0  0
  141.0993   73.5823  222.7795 H   0  0  0  0  0  0  0  0  0  0  0  0
  139.0741   71.4920  222.6385 H   0  0  0  0  0  0  0  0  0  0  0  0
  140.7883   70.8998  222.2837 H   0  0  0  0  0  0  0  0  0  0  0  0
  139.8961   69.0673  224.7960 H   0  0  0  0  0  0  0  0  0  0  0  0
  140.1251   68.2259  227.1065 H   0  0  0  0  0  0  0  0  0  0  0  0
  140.8873   69.7610  228.8700 H   0  0  0  0  0  0  0  0  0  0  0  0
  141.4209   72.0982  228.3854 H   0  0  0  0  0  0  0  0  0  0  0  0
  141.1958   72.9463  226.0879 H   0  0  0  0  0  0  0  0  0  0  0  0
  142.8433   77.5000  217.4924 H   0  0  0  0  0  0  0  0  0  0  0  0
  142.0738   79.8250  217.8985 H   0  0  0  0  0  0  0  0  0  0  0  0
  141.2322   81.5685  219.4396 H   0  0  0  0  0  0  0  0  0  0  0  0
  140.6615   80.5233  223.5793 H   0  0  0  0  0  0  0  0  0  0  0  0
  141.4419   78.1894  223.1147 H   0  0  0  0  0  0  0  0  0  0  0  0
  1  2  2  0
  2  3  1  0
  3  4  1  0
  4  5  1  0
  5  6  2  0
  5  7  1  0
  7  8  1  0
  8  9  1  0
  9 10  1  0
 10 11  1  0
 10 12  1  0
 12 13  1  0
 13 14  1  0
 14 15  1  0
 15 16  2  0
 16 17  1  0
 17 18  2  0
 18 19  1  0
 19 20  2  0
  2 21  1  0
 21 22  2  0
 22 23  1  0
 23 24  2  0
 24 25  1  0
 25 26  2  0
 26 27  1  0
 26 28  1  0
 28 29  2  0
 29 30  1  0
 30 31  2  0
 12  7  1  0
 20 15  1  0
 31 21  1  0
 30 24  1  0
  3 32  1  0
  4 33  1  0
  4 34  1  0
  8 35  1  0
  8 36  1  0
  9 37  1  0
  9 38  1  0
 10 39  1  6
 11 40  1  0
 12 41  1  1
 13 42  1  0
 13 43  1  0
 16 44  1  0
 17 45  1  0
 18 46  1  0
 19 47  1  0
 20 48  1  0
 22 49  1  0
 23 50  1  0
 25 51  1  0
 28 52  1  0
 29 53  1  0
M  END
>  <smiles>  (28) 
O=C(NCC(=O)N1CC[C@H](O)[C@H]1COc1ccccc1)c1ccc2cc(F)ccc2n1

>  <score_type>  (28) 
oracle

>  <origin>  (28) 
autodockgpu

>  <m_score__min__energy>  (28) 
-8.8599999999999994

>  <m_primary>  (28) 
energy

>  <rmsd>  (28) 
8.565948905059845

>  <m_score__min__rmsd>  (28) 
8.565948905059845

>  <meeko>  (28) 
{"free_energy": -7.57, "intermolecular_energy": -9.96, "internal_energy": -1.79, "cluster_size": 7, "cluster_id": 3, "rank_in_cluster": 2}

>  <energy>  (28) 
-6.22

>  <cluster_rmsd>  (28) 
1.98

>  <cluster>  (28) 
3

$$$$

     RDKit          3D

 53 56  0  0  0  0  0  0  0  0999 V2000
  139.0270   70.1470  221.3230 O   0  0  0  0  0  0  0  0  0  0  0  0
  139.3460   70.7490  222.3740 C   0  0  0  0  0  0  0  0  0  0  0  0
  139.5780   72.1430  222.4000 N   0  0  0  0  0  0  0  0  0  0  0  0
  139.4600   72.9520  221.2150 C   0  0  0  0  0  0  0  0  0  0  0  0
  139.8820   74.3370  221.3980 C   0  0  0  0  0  0  0  0  0  0  0  0
  139.4360   74.9710  222.4110 O   0  0  0  0  0  0  0  0  0  0  0  0
  140.7500   75.0640  220.5490 N   0  0  0  0  0  0  0  0  0  0  0  0
  140.8570   74.7570  219.1110 C   0  0  0  0  0  0  0  0  0  0  0  0
  142.3940   74.7770  219.0000 C   0  0  0  0  0  0  0  0  0  0  0  0
  142.6350   76.1280  219.7000 C   0  0  2  0  0  0  0  0  0  0  0  0
  143.9440   76.2930  220.0470 O   0  0  0  0  0  0  0  0  0  0  0  0
  141.6560   76.1690  220.8560 C   0  0  1  0  0  0  0  0  0  0  0  0
  140.8520   77.4810  220.8400 C   0  0  0  0  0  0  0  0  0  0  0  0
  141.4240   78.5190  221.4070 O   0  0  0  0  0  0  0  0  0  0  0  0
  141.6630   79.4280  222.3050 C   0  0  0  0  0  0  0  0  0  0  0  0
  140.7320   80.2890  222.8670 C   0  0  0  0  0  0  0  0  0  0  0  0
  141.0590   81.2340  223.8190 C   0  0  0  0  0  0  0  0  0  0  0  0
  142.3580   81.3190  224.2200 C   0  0  0  0  0  0  0  0  0  0  0  0
  143.3260   80.5140  223.7170 C   0  0  0  0  0  0  0  0  0  0  0  0
  142.9880   79.5820  222.7730 C   0  0  0  0  0  0  0  0  0  0  0  0
  139.4830   69.9730  223.6180 C   0  0  0  0  0  0  0  0  0  0  0  0
  139.0320   68.6750  223.7060 C   0  0  0  0  0  0  0  0  0  0  0  0
  139.1990   68.0120  224.9150 C   0  0  0  0  0  0  0  0  0  0  0  0
  139.7900   68.5990  226.0130 C   0  0  0  0  0  0  0  0  0  0  0  0
  139.9650   67.9700  227.2120 C   0  0  0  0  0  0  0  0  0  0  0  0
  140.5680   68.6430  228.2520 C   0  0  0  0  0  0  0  0  0  0  0  0
  140.7770   68.0860  229.4700 F   0  0  0  0  0  0  0  0  0  0  0  0
  141.0020   69.9580  228.0970 C   0  0  0  0  0  0  0  0  0  0  0  0
  140.8330   70.6090  226.8920 C   0  0  0  0  0  0  0  0  0  0  0  0
  140.2250   69.8990  225.8780 C   0  0  0  0  0  0  0  0  0  0  0  0
  140.0550   70.5240  224.7020 N   0  0  0  0  0  0  0  0  0  0  0  0
  139.8430   72.5670  223.3310 H   0  0  0  0  0  0  0  0  0  0  0  0
  140.0808   72.5025  220.4260 H   0  0  0  0  0  0  0  0  0  0  0  0
  138.3924   72.9766  220.9511 H   0  0  0  0  0  0  0  0  0  0  0  0
  140.4343   73.7723  218.8628 H   0  0  0  0  0  0  0  0  0  0  0  0
  140.3156   75.4322  218.4321 H   0  0  0  0  0  0  0  0  0  0  0  0
  142.8625   73.9389  219.5368 H   0  0  0  0  0  0  0  0  0  0  0  0
  142.8087   74.6750  217.9863 H   0  0  0  0  0  0  0  0  0  0  0  0
  142.4501   76.9863  219.0373 H   0  0  0  0  0  0  0  0  0  0  0  0
  144.0510   77.1460  220.5290 H   0  0  0  0  0  0  0  0  0  0  0  0
  142.1507   76.0997  221.8360 H   0  0  0  0  0  0  0  0  0  0  0  0
  140.6529   77.7398  219.7896 H   0  0  0  0  0  0  0  0  0  0  0  0
  139.9495   77.2803  221.4359 H   0  0  0  0  0  0  0  0  0  0  0  0
  139.6846   80.2155  222.5390 H   0  0  0  0  0  0  0  0  0  0  0  0
  140.2920   81.8996  224.2418 H   0  0  0  0  0  0  0  0  0  0  0  0
  142.6312   82.0672  224.9787 H   0  0  0  0  0  0  0  0  0  0  0  0
  144.3663   80.6082  224.0619 H   0  0  0  0  0  0  0  0  0  0  0  0
  143.7746   78.9305  222.3645 H   0  0  0  0  0  0  0  0  0  0  0  0
  138.5553   68.1796  222.8473 H   0  0  0  0  0  0  0  0  0  0  0  0
  138.8445   66.9742  224.9997 H   0  0  0  0  0  0  0  0  0  0  0  0
  139.6266   66.9321  227.3469 H   0  0  0  0  0  0  0  0  0  0  0  0
  141.4813   70.4794  228.9387 H   0  0  0  0  0  0  0  0  0  0  0  0
  141.1679   71.6467  226.7469 H   0  0  0  0  0  0  0  0  0  0  0  0
  1  2  2  0
  2  3  1  0
  3  4  1  0
  4  5  1  0
  5  6  2  0
  5  7  1  0
  7  8  1  0
  8  9  1  0
  9 10  1  0
 10 11  1  0
 10 12  1  0
 12 13  1  0
 13 14  1  0
 14 15  1  0
 15 16  2  0
 16 17  1  0
 17 18  2  0
 18 19  1  0
 19 20  2  0
  2 21  1  0
 21 22  2  0
 22 23  1  0
 23 24  2  0
 24 25  1  0
 25 26  2  0
 26 27  1  0
 26 28  1  0
 28 29  2  0
 29 30  1  0
 30 31  2  0
 12  7  1  0
 20 15  1  0
 31 21  1  0
 30 24  1  0
  3 32  1  0
  4 33  1  0
  4 34  1  0
  8 35  1  0
  8 36  1  0
  9 37  1  0
  9 38  1  0
 10 39  1  6
 11 40  1  0
 12 41  1  1
 13 42  1  0
 13 43  1  0
 16 44  1  0
 17 45  1  0
 18 46  1  0
 19 47  1  0
 20 48  1  0
 22 49  1  0
 23 50  1  0
 25 51  1  0
 28 52  1  0
 29 53  1  0
M  END
>  <smiles>  (29) 
O=C(NCC(=O)N1CC[C@H](O)[C@H]1COc1ccccc1)c1ccc2cc(F)ccc2n1

>  <score_type>  (29) 
oracle

>  <origin>  (29) 
autodockgpu

>  <m_score__min__energy>  (29) 
-8.8599999999999994

>  <m_primary>  (29) 
energy

>  <rmsd>  (29) 
2.0038816424554833

>  <m_score__min__rmsd>  (29) 
2.0038816424554833

>  <meeko>  (29) 
{"free_energy": -8.32, "intermolecular_energy": -10.7, "internal_energy": -1.56, "cluster_size": 20, "cluster_id": 1, "rank_in_cluster": 9}

>  <energy>  (29) 
-6.11

>  <cluster_rmsd>  (29) 
1.98

>  <cluster>  (29) 
3

$$$$

     RDKit          3D

 53 56  0  0  0  0  0  0  0  0999 V2000
  140.7420   71.3150  221.6550 O   0  0  0  0  0  0  0  0  0  0  0  0
  139.9590   71.5990  222.5910 C   0  0  0  0  0  0  0  0  0  0  0  0
  139.1400   72.7490  222.5620 N   0  0  0  0  0  0  0  0  0  0  0  0
  139.1570   73.6640  221.4500 C   0  0  0  0  0  0  0  0  0  0  0  0
  140.3030   74.5670  221.4430 C   0  0  0  0  0  0  0  0  0  0  0  0
  140.3510   75.4810  222.3320 O   0  0  0  0  0  0  0  0  0  0  0  0
  141.3870   74.5350  220.5340 N   0  0  0  0  0  0  0  0  0  0  0  0
  141.4410   73.5550  219.4340 C   0  0  0  0  0  0  0  0  0  0  0  0
  142.9060   73.1140  219.6100 C   0  0  0  0  0  0  0  0  0  0  0  0
  143.5400   74.5170  219.6590 C   0  0  2  0  0  0  0  0  0  0  0  0
  144.8210   74.4790  220.1280 O   0  0  0  0  0  0  0  0  0  0  0  0
  142.5860   75.3680  220.4720 C   0  0  1  0  0  0  0  0  0  0  0  0
  142.2420   76.6660  219.7200 C   0  0  0  0  0  0  0  0  0  0  0  0
  141.9120   77.6980  220.4650 O   0  0  0  0  0  0  0  0  0  0  0  0
  141.6560   78.3790  221.5420 C   0  0  0  0  0  0  0  0  0  0  0  0
  142.5630   79.1370  222.2680 C   0  0  0  0  0  0  0  0  0  0  0  0
  142.2190   79.8360  223.4070 C   0  0  0  0  0  0  0  0  0  0  0  0
  140.9270   79.7750  223.8330 C   0  0  0  0  0  0  0  0  0  0  0  0
  139.9810   79.0560  223.1780 C   0  0  0  0  0  0  0  0  0  0  0  0
  140.3370   78.3670  222.0500 C   0  0  0  0  0  0  0  0  0  0  0  0
  139.8980   70.7000  223.7560 C   0  0  0  0  0  0  0  0  0  0  0  0
  139.2760   69.4740  223.6840 C   0  0  0  0  0  0  0  0  0  0  0  0
  139.2620   68.6860  224.8260 C   0  0  0  0  0  0  0  0  0  0  0  0
  139.8390   69.0820  226.0140 C   0  0  0  0  0  0  0  0  0  0  0  0
  139.8390   68.3270  227.1510 C   0  0  0  0  0  0  0  0  0  0  0  0
  140.4430   68.8130  228.2910 C   0  0  0  0  0  0  0  0  0  0  0  0
  140.4830   68.1220  229.4570 F   0  0  0  0  0  0  0  0  0  0  0  0
  141.0540   70.0640  228.2980 C   0  0  0  0  0  0  0  0  0  0  0  0
  141.0650   70.8410  227.1570 C   0  0  0  0  0  0  0  0  0  0  0  0
  140.4490   70.3170  226.0390 C   0  0  0  0  0  0  0  0  0  0  0  0
  140.4520   71.0650  224.9250 N   0  0  0  0  0  0  0  0  0  0  0  0
  138.5090   72.9100  223.3950 H   0  0  0  0  0  0  0  0  0  0  0  0
  139.1728   73.0775  220.5195 H   0  0  0  0  0  0  0  0  0  0  0  0
  138.2577   74.2911  221.5396 H   0  0  0  0  0  0  0  0  0  0  0  0
  140.7354   72.7241  219.5815 H   0  0  0  0  0  0  0  0  0  0  0  0
  141.1673   73.9326  218.4378 H   0  0  0  0  0  0  0  0  0  0  0  0
  143.0639   72.5514  220.5419 H   0  0  0  0  0  0  0  0  0  0  0  0
  143.3018   72.4289  218.8459 H   0  0  0  0  0  0  0  0  0  0  0  0
  143.6608   74.9609  218.6598 H   0  0  0  0  0  0  0  0  0  0  0  0
  145.4260   74.8880  219.4660 H   0  0  0  0  0  0  0  0  0  0  0  0
  142.9985   75.6551  221.4505 H   0  0  0  0  0  0  0  0  0  0  0  0
  143.1205   76.9506  219.1224 H   0  0  0  0  0  0  0  0  0  0  0  0
  141.3462   76.4334  219.1254 H   0  0  0  0  0  0  0  0  0  0  0  0
  143.6053   79.1830  221.9194 H   0  0  0  0  0  0  0  0  0  0  0  0
  142.9677   80.4262  223.9557 H   0  0  0  0  0  0  0  0  0  0  0  0
  140.6403   80.3279  224.7397 H   0  0  0  0  0  0  0  0  0  0  0  0
  138.9452   79.0272  223.5472 H   0  0  0  0  0  0  0  0  0  0  0  0
  139.5696   77.7835  221.5203 H   0  0  0  0  0  0  0  0  0  0  0  0
  138.8053   69.1301  222.7512 H   0  0  0  0  0  0  0  0  0  0  0  0
  138.7695   67.7034  224.7817 H   0  0  0  0  0  0  0  0  0  0  0  0
  139.3600   67.3368  227.1577 H   0  0  0  0  0  0  0  0  0  0  0  0
  141.5304   70.4352  229.2174 H   0  0  0  0  0  0  0  0  0  0  0  0
  141.5426   71.8318  227.1399 H   0  0  0  0  0  0  0  0  0  0  0  0
  1  2  2  0
  2  3  1  0
  3  4  1  0
  4  5  1  0
  5  6  2  0
  5  7  1  0
  7  8  1  0
  8  9  1  0
  9 10  1  0
 10 11  1  0
 10 12  1  0
 12 13  1  0
 13 14  1  0
 14 15  1  0
 15 16  2  0
 16 17  1  0
 17 18  2  0
 18 19  1  0
 19 20  2  0
  2 21  1  0
 21 22  2  0
 22 23  1  0
 23 24  2  0
 24 25  1  0
 25 26  2  0
 26 27  1  0
 26 28  1  0
 28 29  2  0
 29 30  1  0
 30 31  2  0
 12  7  1  0
 20 15  1  0
 31 21  1  0
 30 24  1  0
  3 32  1  0
  4 33  1  0
  4 34  1  0
  8 35  1  0
  8 36  1  0
  9 37  1  0
  9 38  1  0
 10 39  1  6
 11 40  1  0
 12 41  1  1
 13 42  1  0
 13 43  1  0
 16 44  1  0
 17 45  1  0
 18 46  1  0
 19 47  1  0
 20 48  1  0
 22 49  1  0
 23 50  1  0
 25 51  1  0
 28 52  1  0
 29 53  1  0
M  END
>  <smiles>  (30) 
O=C(NCC(=O)N1CC[C@H](O)[C@H]1COc1ccccc1)c1ccc2cc(F)ccc2n1

>  <score_type>  (30) 
oracle

>  <origin>  (30) 
autodockgpu

>  <m_score__min__energy>  (30) 
-8.8599999999999994

>  <m_primary>  (30) 
energy

>  <rmsd>  (30) 
2.2451955274027897

>  <m_score__min__rmsd>  (30) 
2.2451955274027897

>  <meeko>  (30) 
{"free_energy": -8.35, "intermolecular_energy": -10.73, "internal_energy": -1.5, "cluster_size": 20, "cluster_id": 1, "rank_in_cluster": 6}

>  <energy>  (30) 
-6.02

>  <cluster_rmsd>  (30) 
1.87

>  <cluster>  (30) 
3

$$$$

     RDKit          3D

 53 56  0  0  0  0  0  0  0  0999 V2000
  136.7500   76.2700  221.3170 O   0  0  0  0  0  0  0  0  0  0  0  0
  137.8050   76.2000  221.9880 C   0  0  0  0  0  0  0  0  0  0  0  0
  138.4030   74.9650  222.3230 N   0  0  0  0  0  0  0  0  0  0  0  0
  137.8310   73.7100  221.9090 C   0  0  0  0  0  0  0  0  0  0  0  0
  138.5910   72.5410  222.3380 C   0  0  0  0  0  0  0  0  0  0  0  0
  139.8000   72.7140  222.7060 O   0  0  0  0  0  0  0  0  0  0  0  0
  138.1170   71.2090  222.3870 N   0  0  0  0  0  0  0  0  0  0  0  0
  137.5780   70.5380  221.1900 C   0  0  0  0  0  0  0  0  0  0  0  0
  136.3180   69.9270  221.8330 C   0  0  0  0  0  0  0  0  0  0  0  0
  137.0010   69.2810  223.0530 C   0  0  2  0  0  0  0  0  0  0  0  0
  136.0970   68.9160  224.0070 O   0  0  0  0  0  0  0  0  0  0  0  0
  138.0470   70.2770  223.5110 C   0  0  1  0  0  0  0  0  0  0  0  0
  139.4170   69.5930  223.6660 C   0  0  0  0  0  0  0  0  0  0  0  0
  140.1320   69.9550  224.7080 O   0  0  0  0  0  0  0  0  0  0  0  0
  140.4180   70.5340  225.8350 C   0  0  0  0  0  0  0  0  0  0  0  0
  141.1560   71.6980  225.9960 C   0  0  0  0  0  0  0  0  0  0  0  0
  141.4230   72.2570  227.2290 C   0  0  0  0  0  0  0  0  0  0  0  0
  140.9340   71.6320  228.3370 C   0  0  0  0  0  0  0  0  0  0  0  0
  140.2040   70.4910  228.2630 C   0  0  0  0  0  0  0  0  0  0  0  0
  139.9480   69.9470  227.0330 C   0  0  0  0  0  0  0  0  0  0  0  0
  138.4370   77.4520  222.4400 C   0  0  0  0  0  0  0  0  0  0  0  0
  137.6880   78.5720  222.7220 C   0  0  0  0  0  0  0  0  0  0  0  0
  138.3590   79.7120  223.1420 C   0  0  0  0  0  0  0  0  0  0  0  0
  139.7300   79.7620  223.2850 C   0  0  0  0  0  0  0  0  0  0  0  0
  140.4140   80.8690  223.6960 C   0  0  0  0  0  0  0  0  0  0  0  0
  141.7870   80.8190  223.8080 C   0  0  0  0  0  0  0  0  0  0  0  0
  142.5340   81.8760  224.2090 F   0  0  0  0  0  0  0  0  0  0  0  0
  142.4860   79.6520  223.5070 C   0  0  0  0  0  0  0  0  0  0  0  0
  141.8100   78.5230  223.0900 C   0  0  0  0  0  0  0  0  0  0  0  0
  140.4370   78.6170  222.9920 C   0  0  0  0  0  0  0  0  0  0  0  0
  139.7710   77.5250  222.5860 N   0  0  0  0  0  0  0  0  0  0  0  0
  139.2930   75.0020  222.8920 H   0  0  0  0  0  0  0  0  0  0  0  0
  136.8171   73.6366  222.3293 H   0  0  0  0  0  0  0  0  0  0  0  0
  137.8350   73.7060  220.8090 H   0  0  0  0  0  0  0  0  0  0  0  0
  137.3327   71.2503  220.3884 H   0  0  0  0  0  0  0  0  0  0  0  0
  138.2546   69.8304  220.6884 H   0  0  0  0  0  0  0  0  0  0  0  0
  135.5833   70.6928  222.1223 H   0  0  0  0  0  0  0  0  0  0  0  0
  135.7253   69.2543  221.1957 H   0  0  0  0  0  0  0  0  0  0  0  0
  137.4910   68.3276  222.8061 H   0  0  0  0  0  0  0  0  0  0  0  0
  135.2680   69.4370  223.8920 H   0  0  0  0  0  0  0  0  0  0  0  0
  137.8002   70.7395  224.4780 H   0  0  0  0  0  0  0  0  0  0  0  0
  139.2447   68.5089  223.7375 H   0  0  0  0  0  0  0  0  0  0  0  0
  140.0012   69.9017  222.7866 H   0  0  0  0  0  0  0  0  0  0  0  0
  141.5468   72.1989  225.0980 H   0  0  0  0  0  0  0  0  0  0  0  0
  142.0138   73.1809  227.3152 H   0  0  0  0  0  0  0  0  0  0  0  0
  141.1384   72.0680  229.3260 H   0  0  0  0  0  0  0  0  0  0  0  0
  139.8238   70.0106  229.1766 H   0  0  0  0  0  0  0  0  0  0  0  0
  139.3564   69.0215  226.9744 H   0  0  0  0  0  0  0  0  0  0  0  0
  136.5930   78.5637  222.6178 H   0  0  0  0  0  0  0  0  0  0  0  0
  137.7725   80.6141  223.3706 H   0  0  0  0  0  0  0  0  0  0  0  0
  139.8728   81.7960  223.9365 H   0  0  0  0  0  0  0  0  0  0  0  0
  143.5817   79.6302  223.6021 H   0  0  0  0  0  0  0  0  0  0  0  0
  142.3416   77.5911  222.8470 H   0  0  0  0  0  0  0  0  0  0  0  0
  1  2  2  0
  2  3  1  0
  3  4  1  0
  4  5  1  0
  5  6  2  0
  5  7  1  0
  7  8  1  0
  8  9  1  0
  9 10  1  0
 10 11  1  0
 10 12  1  0
 12 13  1  0
 13 14  1  0
 14 15  1  0
 15 16  2  0
 16 17  1  0
 17 18  2  0
 18 19  1  0
 19 20  2  0
  2 21  1  0
 21 22  2  0
 22 23  1  0
 23 24  2  0
 24 25  1  0
 25 26  2  0
 26 27  1  0
 26 28  1  0
 28 29  2  0
 29 30  1  0
 30 31  2  0
 12  7  1  0
 20 15  1  0
 31 21  1  0
 30 24  1  0
  3 32  1  0
  4 33  1  0
  4 34  1  0
  8 35  1  0
  8 36  1  0
  9 37  1  0
  9 38  1  0
 10 39  1  6
 11 40  1  0
 12 41  1  1
 13 42  1  0
 13 43  1  0
 16 44  1  0
 17 45  1  0
 18 46  1  0
 19 47  1  0
 20 48  1  0
 22 49  1  0
 23 50  1  0
 25 51  1  0
 28 52  1  0
 29 53  1  0
M  END
>  <smiles>  (31) 
O=C(NCC(=O)N1CC[C@H](O)[C@H]1COc1ccccc1)c1ccc2cc(F)ccc2n1

>  <score_type>  (31) 
oracle

>  <origin>  (31) 
autodockgpu

>  <m_score__min__energy>  (31) 
-8.8599999999999994

>  <m_primary>  (31) 
energy

>  <rmsd>  (31) 
8.69817711766947

>  <m_score__min__rmsd>  (31) 
8.69817711766947

>  <meeko>  (31) 
{"free_energy": -7.67, "intermolecular_energy": -10.06, "internal_energy": -1.8, "cluster_size": 3, "cluster_id": 4, "rank_in_cluster": 2}

>  <energy>  (31) 
-5.68

>  <cluster_rmsd>  (31) 
1.99

>  <cluster>  (31) 
3

$$$$

     RDKit          3D

 53 56  0  0  0  0  0  0  0  0999 V2000
  140.1740   71.4700  220.9180 O   0  0  0  0  0  0  0  0  0  0  0  0
  139.9530   72.0270  222.0180 C   0  0  0  0  0  0  0  0  0  0  0  0
  139.7650   73.4230  222.1300 N   0  0  0  0  0  0  0  0  0  0  0  0
  139.8170   74.2880  220.9800 C   0  0  0  0  0  0  0  0  0  0  0  0
  140.2400   75.6510  221.2820 C   0  0  0  0  0  0  0  0  0  0  0  0
  140.3160   75.9980  222.5070 O   0  0  0  0  0  0  0  0  0  0  0  0
  140.5780   76.6490  220.3370 N   0  0  0  0  0  0  0  0  0  0  0  0
  139.9660   77.9890  220.3810 C   0  0  0  0  0  0  0  0  0  0  0  0
  139.6390   78.1260  218.8810 C   0  0  0  0  0  0  0  0  0  0  0  0
  141.0230   77.7350  218.3310 C   0  0  2  0  0  0  0  0  0  0  0  0
  140.9770   77.4520  216.9970 O   0  0  0  0  0  0  0  0  0  0  0  0
  141.5060   76.5990  219.2100 C   0  0  1  0  0  0  0  0  0  0  0  0
  142.9260   76.8830  219.7310 C   0  0  0  0  0  0  0  0  0  0  0  0
  143.6680   75.8300  219.9960 O   0  0  0  0  0  0  0  0  0  0  0  0
  143.9700   74.5800  220.1810 C   0  0  0  0  0  0  0  0  0  0  0  0
  145.2300   74.0750  220.4690 C   0  0  0  0  0  0  0  0  0  0  0  0
  145.4780   72.7300  220.6520 C   0  0  0  0  0  0  0  0  0  0  0  0
  144.4330   71.8630  220.5440 C   0  0  0  0  0  0  0  0  0  0  0  0
  143.1720   72.2790  220.2650 C   0  0  0  0  0  0  0  0  0  0  0  0
  142.9410   73.6160  220.0850 C   0  0  0  0  0  0  0  0  0  0  0  0
  139.8900   71.1920  223.2310 C   0  0  0  0  0  0  0  0  0  0  0  0
  139.3650   69.9200  223.1990 C   0  0  0  0  0  0  0  0  0  0  0  0
  139.3420   69.1990  224.3840 C   0  0  0  0  0  0  0  0  0  0  0  0
  139.8170   69.7040  225.5750 C   0  0  0  0  0  0  0  0  0  0  0  0
  139.8060   69.0160  226.7540 C   0  0  0  0  0  0  0  0  0  0  0  0
  140.3050   69.6090  227.8940 C   0  0  0  0  0  0  0  0  0  0  0  0
  140.3270   68.9900  229.1000 F   0  0  0  0  0  0  0  0  0  0  0  0
  140.8220   70.9020  227.8590 C   0  0  0  0  0  0  0  0  0  0  0  0
  140.8420   71.6120  226.6750 C   0  0  0  0  0  0  0  0  0  0  0  0
  140.3320   70.9810  225.5590 C   0  0  0  0  0  0  0  0  0  0  0  0
  140.3460   71.6630  224.4040 N   0  0  0  0  0  0  0  0  0  0  0  0
  139.5840   73.8060  223.0980 H   0  0  0  0  0  0  0  0  0  0  0  0
  140.5248   73.8585  220.2557 H   0  0  0  0  0  0  0  0  0  0  0  0
  138.7929   74.3528  220.5837 H   0  0  0  0  0  0  0  0  0  0  0  0
  139.0627   78.0139  221.0082 H   0  0  0  0  0  0  0  0  0  0  0  0
  140.5852   78.7881  220.8146 H   0  0  0  0  0  0  0  0  0  0  0  0
  138.8500   77.4299  218.5601 H   0  0  0  0  0  0  0  0  0  0  0  0
  139.2456   79.1008  218.5570 H   0  0  0  0  0  0  0  0  0  0  0  0
  141.7457   78.5629  218.3786 H   0  0  0  0  0  0  0  0  0  0  0  0
  140.3650   78.0800  216.5480 H   0  0  0  0  0  0  0  0  0  0  0  0
  141.5372   75.6344  218.6821 H   0  0  0  0  0  0  0  0  0  0  0  0
  143.4498   77.4799  218.9698 H   0  0  0  0  0  0  0  0  0  0  0  0
  142.7893   77.3971  220.6938 H   0  0  0  0  0  0  0  0  0  0  0  0
  146.0702   74.7797  220.5554 H   0  0  0  0  0  0  0  0  0  0  0  0
  146.4916   72.3679  220.8788 H   0  0  0  0  0  0  0  0  0  0  0  0
  144.6178   70.7882  220.6880 H   0  0  0  0  0  0  0  0  0  0  0  0
  142.3489   71.5537  220.1848 H   0  0  0  0  0  0  0  0  0  0  0  0
  141.9185   73.9520  219.8577 H   0  0  0  0  0  0  0  0  0  0  0  0
  138.9764   69.4893  222.2644 H   0  0  0  0  0  0  0  0  0  0  0  0
  138.9268   68.1804  224.3724 H   0  0  0  0  0  0  0  0  0  0  0  0
  139.4012   67.9940  226.7941 H   0  0  0  0  0  0  0  0  0  0  0  0
  141.2160   71.3593  228.7785 H   0  0  0  0  0  0  0  0  0  0  0  0
  141.2460   72.6338  226.6238 H   0  0  0  0  0  0  0  0  0  0  0  0
  1  2  2  0
  2  3  1  0
  3  4  1  0
  4  5  1  0
  5  6  2  0
  5  7  1  0
  7  8  1  0
  8  9  1  0
  9 10  1  0
 10 11  1  0
 10 12  1  0
 12 13  1  0
 13 14  1  0
 14 15  1  0
 15 16  2  0
 16 17  1  0
 17 18  2  0
 18 19  1  0
 19 20  2  0
  2 21  1  0
 21 22  2  0
 22 23  1  0
 23 24  2  0
 24 25  1  0
 25 26  2  0
 26 27  1  0
 26 28  1  0
 28 29  2  0
 29 30  1  0
 30 31  2  0
 12  7  1  0
 20 15  1  0
 31 21  1  0
 30 24  1  0
  3 32  1  0
  4 33  1  0
  4 34  1  0
  8 35  1  0
  8 36  1  0
  9 37  1  0
  9 38  1  0
 10 39  1  6
 11 40  1  0
 12 41  1  6
 13 42  1  0
 13 43  1  0
 16 44  1  0
 17 45  1  0
 18 46  1  0
 19 47  1  0
 20 48  1  0
 22 49  1  0
 23 50  1  0
 25 51  1  0
 28 52  1  0
 29 53  1  0
M  END
>  <smiles>  (32) 
O=C(NCC(=O)N1CC[C@H](O)[C@H]1COc1ccccc1)c1ccc2cc(F)ccc2n1

>  <score_type>  (32) 
oracle

>  <origin>  (32) 
autodockgpu

>  <m_score__min__energy>  (32) 
-8.8599999999999994

>  <m_primary>  (32) 
energy

>  <rmsd>  (32) 
1.983493033616061

>  <m_score__min__rmsd>  (32) 
1.983493033616061

>  <meeko>  (32) 
{"free_energy": -6.89, "intermolecular_energy": -9.28, "internal_energy": -2.19, "cluster_size": 7, "cluster_id": 6, "rank_in_cluster": 7}

>  <energy>  (32) 
-7.88

>  <cluster_rmsd>  (32) 
0.0

>  <cluster>  (32) 
4

$$$$

     RDKit          3D

 53 56  0  0  0  0  0  0  0  0999 V2000
  139.4830   70.6280  221.0360 O   0  0  0  0  0  0  0  0  0  0  0  0
  139.5240   71.2330  222.1320 C   0  0  0  0  0  0  0  0  0  0  0  0
  139.5360   72.6440  222.2120 N   0  0  0  0  0  0  0  0  0  0  0  0
  139.5020   73.4690  221.0320 C   0  0  0  0  0  0  0  0  0  0  0  0
  140.2140   74.7340  221.1730 C   0  0  0  0  0  0  0  0  0  0  0  0
  140.3670   75.2090  222.3480 O   0  0  0  0  0  0  0  0  0  0  0  0
  140.7600   75.5070  220.1210 N   0  0  0  0  0  0  0  0  0  0  0  0
  140.6200   75.0970  218.7120 C   0  0  0  0  0  0  0  0  0  0  0  0
  142.0780   75.3350  218.2720 C   0  0  0  0  0  0  0  0  0  0  0  0
  142.2330   76.7620  218.8330 C   0  0  2  0  0  0  0  0  0  0  0  0
  143.5400   77.1490  218.8810 O   0  0  0  0  0  0  0  0  0  0  0  0
  141.5170   76.7560  220.1680 C   0  0  1  0  0  0  0  0  0  0  0  0
  140.5240   77.9280  220.2560 C   0  0  0  0  0  0  0  0  0  0  0  0
  140.6960   78.7610  221.2580 O   0  0  0  0  0  0  0  0  0  0  0  0
  141.3270   79.4970  222.1230 C   0  0  0  0  0  0  0  0  0  0  0  0
  142.6840   79.4510  222.4050 C   0  0  0  0  0  0  0  0  0  0  0  0
  143.2880   80.2660  223.3410 C   0  0  0  0  0  0  0  0  0  0  0  0
  142.5070   81.1560  224.0170 C   0  0  0  0  0  0  0  0  0  0  0  0
  141.1730   81.2620  223.7980 C   0  0  0  0  0  0  0  0  0  0  0  0
  140.5880   80.4460  222.8670 C   0  0  0  0  0  0  0  0  0  0  0  0
  139.5600   70.4410  223.3740 C   0  0  0  0  0  0  0  0  0  0  0  0
  139.0940   69.1460  223.4120 C   0  0  0  0  0  0  0  0  0  0  0  0
  139.1650   68.4680  224.6210 C   0  0  0  0  0  0  0  0  0  0  0  0
  139.6760   69.0360  225.7680 C   0  0  0  0  0  0  0  0  0  0  0  0
  139.7560   68.3920  226.9680 C   0  0  0  0  0  0  0  0  0  0  0  0
  140.2840   69.0480  228.0590 C   0  0  0  0  0  0  0  0  0  0  0  0
  140.3960   68.4740  229.2830 F   0  0  0  0  0  0  0  0  0  0  0  0
  140.7380   70.3600  227.9540 C   0  0  0  0  0  0  0  0  0  0  0  0
  140.6660   71.0270  226.7470 C   0  0  0  0  0  0  0  0  0  0  0  0
  140.1300   70.3340  225.6810 C   0  0  0  0  0  0  0  0  0  0  0  0
  140.0540   70.9740  224.5050 N   0  0  0  0  0  0  0  0  0  0  0  0
  139.5710   73.0680  223.1790 H   0  0  0  0  0  0  0  0  0  0  0  0
  139.9567   72.9065  220.2032 H   0  0  0  0  0  0  0  0  0  0  0  0
  138.4464   73.7164  220.8465 H   0  0  0  0  0  0  0  0  0  0  0  0
  140.3218   74.0428  218.6127 H   0  0  0  0  0  0  0  0  0  0  0  0
  139.8488   75.6238  218.1308 H   0  0  0  0  0  0  0  0  0  0  0  0
  142.7765   74.6245  218.7383 H   0  0  0  0  0  0  0  0  0  0  0  0
  142.2882   75.2094  217.1996 H   0  0  0  0  0  0  0  0  0  0  0  0
  141.7792   77.5236  218.1819 H   0  0  0  0  0  0  0  0  0  0  0  0
  143.6560   77.8270  219.5860 H   0  0  0  0  0  0  0  0  0  0  0  0
  142.2055   76.8448  221.0213 H   0  0  0  0  0  0  0  0  0  0  0  0
  140.6025   78.5050  219.3228 H   0  0  0  0  0  0  0  0  0  0  0  0
  139.5391   77.4672  220.4224 H   0  0  0  0  0  0  0  0  0  0  0  0
  143.3088   78.7307  221.8566 H   0  0  0  0  0  0  0  0  0  0  0  0
  144.3685   80.1994  223.5360 H   0  0  0  0  0  0  0  0  0  0  0  0
  142.9755   81.8110  224.7663 H   0  0  0  0  0  0  0  0  0  0  0  0
  140.5707   81.9916  224.3591 H   0  0  0  0  0  0  0  0  0  0  0  0
  139.5054   80.5315  222.6916 H   0  0  0  0  0  0  0  0  0  0  0  0
  138.6792   68.6647  222.5141 H   0  0  0  0  0  0  0  0  0  0  0  0
  138.7974   67.4322  224.6656 H   0  0  0  0  0  0  0  0  0  0  0  0
  139.4012   67.3553  227.0642 H   0  0  0  0  0  0  0  0  0  0  0  0
  141.1558   70.8673  228.8361 H   0  0  0  0  0  0  0  0  0  0  0  0
  141.0197   72.0631  226.6403 H   0  0  0  0  0  0  0  0  0  0  0  0
  1  2  2  0
  2  3  1  0
  3  4  1  0
  4  5  1  0
  5  6  2  0
  5  7  1  0
  7  8  1  0
  8  9  1  0
  9 10  1  0
 10 11  1  0
 10 12  1  0
 12 13  1  0
 13 14  1  0
 14 15  1  0
 15 16  2  0
 16 17  1  0
 17 18  2  0
 18 19  1  0
 19 20  2  0
  2 21  1  0
 21 22  2  0
 22 23  1  0
 23 24  2  0
 24 25  1  0
 25 26  2  0
 26 27  1  0
 26 28  1  0
 28 29  2  0
 29 30  1  0
 30 31  2  0
 12  7  1  0
 20 15  1  0
 31 21  1  0
 30 24  1  0
  3 32  1  0
  4 33  1  0
  4 34  1  0
  8 35  1  0
  8 36  1  0
  9 37  1  0
  9 38  1  0
 10 39  1  6
 11 40  1  0
 12 41  1  1
 13 42  1  0
 13 43  1  0
 16 44  1  0
 17 45  1  0
 18 46  1  0
 19 47  1  0
 20 48  1  0
 22 49  1  0
 23 50  1  0
 25 51  1  0
 28 52  1  0
 29 53  1  0
M  END
>  <smiles>  (33) 
O=C(NCC(=O)N1CC[C@H](O)[C@H]1COc1ccccc1)c1ccc2cc(F)ccc2n1

>  <score_type>  (33) 
oracle

>  <origin>  (33) 
autodockgpu

>  <m_score__min__energy>  (33) 
-8.8599999999999994

>  <m_primary>  (33) 
energy

>  <rmsd>  (33) 
1.622545338981383

>  <m_score__min__rmsd>  (33) 
1.622545338981383

>  <meeko>  (33) 
{"free_energy": -8.15, "intermolecular_energy": -10.54, "internal_energy": -1.71, "cluster_size": 20, "cluster_id": 1, "rank_in_cluster": 11}

>  <energy>  (33) 
-7.67

>  <cluster_rmsd>  (33) 
1.57

>  <cluster>  (33) 
4

$$$$

     RDKit          3D

 53 56  0  0  0  0  0  0  0  0999 V2000
  141.1490   72.7640  221.9540 O   0  0  0  0  0  0  0  0  0  0  0  0
  140.0840   72.6000  222.5930 C   0  0  0  0  0  0  0  0  0  0  0  0
  138.9240   73.3620  222.3300 N   0  0  0  0  0  0  0  0  0  0  0  0
  138.9000   74.3740  221.3060 C   0  0  0  0  0  0  0  0  0  0  0  0
  139.9680   75.3600  221.4220 C   0  0  0  0  0  0  0  0  0  0  0  0
  139.9650   76.1310  222.4390 O   0  0  0  0  0  0  0  0  0  0  0  0
  141.0270   75.5560  220.5040 N   0  0  0  0  0  0  0  0  0  0  0  0
  141.2380   74.6440  219.3650 C   0  0  0  0  0  0  0  0  0  0  0  0
  142.7620   74.4640  219.5120 C   0  0  0  0  0  0  0  0  0  0  0  0
  143.1370   75.9540  219.6140 C   0  0  2  0  0  0  0  0  0  0  0  0
  144.4110   76.1270  220.0710 O   0  0  0  0  0  0  0  0  0  0  0  0
  142.0590   76.5910  220.4670 C   0  0  1  0  0  0  0  0  0  0  0  0
  141.4800   77.8350  219.7710 C   0  0  0  0  0  0  0  0  0  0  0  0
  141.4560   78.9400  220.4830 O   0  0  0  0  0  0  0  0  0  0  0  0
  141.6150   79.7190  221.5110 C   0  0  0  0  0  0  0  0  0  0  0  0
  140.9180   80.8910  221.7670 C   0  0  0  0  0  0  0  0  0  0  0  0
  141.1410   81.6720  222.8830 C   0  0  0  0  0  0  0  0  0  0  0  0
  142.0920   81.2670  223.7710 C   0  0  0  0  0  0  0  0  0  0  0  0
  142.8150   80.1330  223.5920 C   0  0  0  0  0  0  0  0  0  0  0  0
  142.5830   79.3690  222.4800 C   0  0  0  0  0  0  0  0  0  0  0  0
  140.0490   71.5780  223.6540 C   0  0  0  0  0  0  0  0  0  0  0  0
  139.5480   70.3180  223.4190 C   0  0  0  0  0  0  0  0  0  0  0  0
  139.5510   69.4130  224.4710 C   0  0  0  0  0  0  0  0  0  0  0  0
  140.0300   69.7260  225.7250 C   0  0  0  0  0  0  0  0  0  0  0  0
  140.0440   68.8560  226.7760 C   0  0  0  0  0  0  0  0  0  0  0  0
  140.5440   69.2660  227.9930 C   0  0  0  0  0  0  0  0  0  0  0  0
  140.5910   68.4590  229.0820 F   0  0  0  0  0  0  0  0  0  0  0  0
  141.0360   70.5570  228.1660 C   0  0  0  0  0  0  0  0  0  0  0  0
  141.0310   71.4510  227.1130 C   0  0  0  0  0  0  0  0  0  0  0  0
  140.5210   70.9990  225.9130 C   0  0  0  0  0  0  0  0  0  0  0  0
  140.5100   71.8610  224.8850 N   0  0  0  0  0  0  0  0  0  0  0  0
  138.0710   73.1550  222.9180 H   0  0  0  0  0  0  0  0  0  0  0  0
  138.9910   73.8788  220.3280 H   0  0  0  0  0  0  0  0  0  0  0  0
  137.9506   74.9182  221.4183 H   0  0  0  0  0  0  0  0  0  0  0  0
  140.6933   73.6958  219.4843 H   0  0  0  0  0  0  0  0  0  0  0  0
  140.8871   75.0048  218.3869 H   0  0  0  0  0  0  0  0  0  0  0  0
  143.0309   73.9024  220.4188 H   0  0  0  0  0  0  0  0  0  0  0  0
  143.2621   73.8907  218.7175 H   0  0  0  0  0  0  0  0  0  0  0  0
  143.1622   76.4501  218.6325 H   0  0  0  0  0  0  0  0  0  0  0  0
  144.4590   76.9520  220.6080 H   0  0  0  0  0  0  0  0  0  0  0  0
  142.4282   76.9095  221.4530 H   0  0  0  0  0  0  0  0  0  0  0  0
  142.0837   78.0281  218.8720 H   0  0  0  0  0  0  0  0  0  0  0  0
  140.4265   77.5940  219.5658 H   0  0  0  0  0  0  0  0  0  0  0  0
  140.1516   81.2130  221.0466 H   0  0  0  0  0  0  0  0  0  0  0  0
  140.5672   82.5954  223.0508 H   0  0  0  0  0  0  0  0  0  0  0  0
  142.2800   81.8809  224.6641 H   0  0  0  0  0  0  0  0  0  0  0  0
  143.5750   79.8325  224.3282 H   0  0  0  0  0  0  0  0  0  0  0  0
  143.1705   78.4504  222.3354 H   0  0  0  0  0  0  0  0  0  0  0  0
  139.1579   70.0374  222.4295 H   0  0  0  0  0  0  0  0  0  0  0  0
  139.1539   68.4021  224.2966 H   0  0  0  0  0  0  0  0  0  0  0  0
  139.6584   67.8332  226.6526 H   0  0  0  0  0  0  0  0  0  0  0  0
  141.4303   70.8663  229.1452 H   0  0  0  0  0  0  0  0  0  0  0  0
  141.4156   72.4754  227.2257 H   0  0  0  0  0  0  0  0  0  0  0  0
  1  2  2  0
  2  3  1  0
  3  4  1  0
  4  5  1  0
  5  6  2  0
  5  7  1  0
  7  8  1  0
  8  9  1  0
  9 10  1  0
 10 11  1  0
 10 12  1  0
 12 13  1  0
 13 14  1  0
 14 15  1  0
 15 16  2  0
 16 17  1  0
 17 18  2  0
 18 19  1  0
 19 20  2  0
  2 21  1  0
 21 22  2  0
 22 23  1  0
 23 24  2  0
 24 25  1  0
 25 26  2  0
 26 27  1  0
 26 28  1  0
 28 29  2  0
 29 30  1  0
 30 31  2  0
 12  7  1  0
 20 15  1  0
 31 21  1  0
 30 24  1  0
  3 32  1  0
  4 33  1  0
  4 34  1  0
  8 35  1  0
  8 36  1  0
  9 37  1  0
  9 38  1  0
 10 39  1  6
 11 40  1  0
 12 41  1  1
 13 42  1  0
 13 43  1  0
 16 44  1  0
 17 45  1  0
 18 46  1  0
 19 47  1  0
 20 48  1  0
 22 49  1  0
 23 50  1  0
 25 51  1  0
 28 52  1  0
 29 53  1  0
M  END
>  <smiles>  (34) 
O=C(NCC(=O)N1CC[C@H](O)[C@H]1COc1ccccc1)c1ccc2cc(F)ccc2n1

>  <score_type>  (34) 
oracle

>  <origin>  (34) 
autodockgpu

>  <m_score__min__energy>  (34) 
-8.8599999999999994

>  <m_primary>  (34) 
energy

>  <rmsd>  (34) 
2.1210339943352423

>  <m_score__min__rmsd>  (34) 
2.1210339943352423

>  <meeko>  (34) 
{"free_energy": -8.79, "intermolecular_energy": -11.18, "internal_energy": -1.4, "cluster_size": 20, "cluster_id": 1, "rank_in_cluster": 2}

>  <energy>  (34) 
-6.97

>  <cluster_rmsd>  (34) 
1.29

>  <cluster>  (34) 
4

$$$$

     RDKit          3D

 53 56  0  0  0  0  0  0  0  0999 V2000
  139.8280   73.7350  222.4260 O   0  0  0  0  0  0  0  0  0  0  0  0
  140.1850   72.5520  222.2220 C   0  0  0  0  0  0  0  0  0  0  0  0
  140.6430   72.1120  220.9600 N   0  0  0  0  0  0  0  0  0  0  0  0
  140.7250   73.0030  219.8320 C   0  0  0  0  0  0  0  0  0  0  0  0
  142.0200   73.6610  219.6900 C   0  0  0  0  0  0  0  0  0  0  0  0
  142.0330   74.9180  219.4700 O   0  0  0  0  0  0  0  0  0  0  0  0
  143.2870   73.0360  219.7690 N   0  0  0  0  0  0  0  0  0  0  0  0
  143.6990   72.2780  220.9640 C   0  0  0  0  0  0  0  0  0  0  0  0
  145.1160   72.8630  221.1140 C   0  0  0  0  0  0  0  0  0  0  0  0
  145.5780   72.6600  219.6580 C   0  0  2  0  0  0  0  0  0  0  0  0
  146.7070   73.3750  219.3800 O   0  0  0  0  0  0  0  0  0  0  0  0
  144.3780   72.9990  218.7980 C   0  0  1  0  0  0  0  0  0  0  0  0
  144.0980   71.8710  217.7890 C   0  0  0  0  0  0  0  0  0  0  0  0
  144.0250   70.6550  218.2850 O   0  0  0  0  0  0  0  0  0  0  0  0
  144.4300   69.4930  218.7020 C   0  0  0  0  0  0  0  0  0  0  0  0
  143.6430   68.3650  218.8800 C   0  0  0  0  0  0  0  0  0  0  0  0
  144.1440   67.1600  219.3300 C   0  0  0  0  0  0  0  0  0  0  0  0
  145.4760   67.0820  219.6080 C   0  0  0  0  0  0  0  0  0  0  0  0
  146.3110   68.1400  219.4600 C   0  0  0  0  0  0  0  0  0  0  0  0
  145.8000   69.3290  219.0140 C   0  0  0  0  0  0  0  0  0  0  0  0
  140.1220   71.5940  223.3400 C   0  0  0  0  0  0  0  0  0  0  0  0
  139.5980   70.3320  223.1740 C   0  0  0  0  0  0  0  0  0  0  0  0
  139.5760   69.4900  224.2770 C   0  0  0  0  0  0  0  0  0  0  0  0
  140.0510   69.8670  225.5150 C   0  0  0  0  0  0  0  0  0  0  0  0
  140.0400   69.0590  226.6150 C   0  0  0  0  0  0  0  0  0  0  0  0
  140.5380   69.5290  227.8110 C   0  0  0  0  0  0  0  0  0  0  0  0
  140.5610   68.7870  228.9440 F   0  0  0  0  0  0  0  0  0  0  0  0
  141.0540   70.8190  227.9120 C   0  0  0  0  0  0  0  0  0  0  0  0
  141.0750   71.6500  226.8090 C   0  0  0  0  0  0  0  0  0  0  0  0
  140.5650   71.1390  225.6330 C   0  0  0  0  0  0  0  0  0  0  0  0
  140.5790   71.9390  224.5560 N   0  0  0  0  0  0  0  0  0  0  0  0
  140.9240   71.0960  220.8800 H   0  0  0  0  0  0  0  0  0  0  0  0
  140.5292   72.4232  218.9179 H   0  0  0  0  0  0  0  0  0  0  0  0
  139.9808   73.7960  219.9972 H   0  0  0  0  0  0  0  0  0  0  0  0
  143.0640   72.4968  221.8351 H   0  0  0  0  0  0  0  0  0  0  0  0
  143.6358   71.1826  220.8853 H   0  0  0  0  0  0  0  0  0  0  0  0
  145.1016   73.9240  221.4039 H   0  0  0  0  0  0  0  0  0  0  0  0
  145.7485   72.4104  221.8919 H   0  0  0  0  0  0  0  0  0  0  0  0
  145.8898   71.6251  219.4539 H   0  0  0  0  0  0  0  0  0  0  0  0
  146.4930   74.3370  219.3700 H   0  0  0  0  0  0  0  0  0  0  0  0
  144.5140   73.9270  218.2233 H   0  0  0  0  0  0  0  0  0  0  0  0
  143.1393   72.0911  217.2966 H   0  0  0  0  0  0  0  0  0  0  0  0
  144.9632   71.8612  217.1097 H   0  0  0  0  0  0  0  0  0  0  0  0
  142.5691   68.4338  218.6519 H   0  0  0  0  0  0  0  0  0  0  0  0
  143.4869   66.2876  219.4605 H   0  0  0  0  0  0  0  0  0  0  0  0
  145.8883   66.1268  219.9651 H   0  0  0  0  0  0  0  0  0  0  0  0
  147.3815   68.0444  219.6945 H   0  0  0  0  0  0  0  0  0  0  0  0
  146.4782   70.1867  218.8941 H   0  0  0  0  0  0  0  0  0  0  0  0
  139.2095   70.0018  222.1993 H   0  0  0  0  0  0  0  0  0  0  0  0
  139.1616   68.4780  224.1582 H   0  0  0  0  0  0  0  0  0  0  0  0
  139.6358   68.0382  226.5473 H   0  0  0  0  0  0  0  0  0  0  0  0
  141.4467   71.1776  228.8749 H   0  0  0  0  0  0  0  0  0  0  0  0
  141.4794   72.6714  226.8654 H   0  0  0  0  0  0  0  0  0  0  0  0
  1  2  2  0
  2  3  1  0
  3  4  1  0
  4  5  1  0
  5  6  2  0
  5  7  1  0
  7  8  1  0
  8  9  1  0
  9 10  1  0
 10 11  1  0
 10 12  1  0
 12 13  1  0
 13 14  1  0
 14 15  1  0
 15 16  2  0
 16 17  1  0
 17 18  2  0
 18 19  1  0
 19 20  2  0
  2 21  1  0
 21 22  2  0
 22 23  1  0
 23 24  2  0
 24 25  1  0
 25 26  2  0
 26 27  1  0
 26 28  1  0
 28 29  2  0
 29 30  1  0
 30 31  2  0
 12  7  1  0
 20 15  1  0
 31 21  1  0
 30 24  1  0
  3 32  1  0
  4 33  1  0
  4 34  1  0
  8 35  1  0
  8 36  1  0
  9 37  1  0
  9 38  1  0
 10 39  1  1
 11 40  1  0
 12 41  1  6
 13 42  1  0
 13 43  1  0
 16 44  1  0
 17 45  1  0
 18 46  1  0
 19 47  1  0
 20 48  1  0
 22 49  1  0
 23 50  1  0
 25 51  1  0
 28 52  1  0
 29 53  1  0
M  END
>  <smiles>  (35) 
O=C(NCC(=O)N1CC[C@H](O)[C@H]1COc1ccccc1)c1ccc2cc(F)ccc2n1

>  <score_type>  (35) 
oracle

>  <origin>  (35) 
autodockgpu

>  <m_score__min__energy>  (35) 
-8.8599999999999994

>  <m_primary>  (35) 
energy

>  <rmsd>  (35) 
3.8913165737153244

>  <m_score__min__rmsd>  (35) 
3.8913165737153244

>  <meeko>  (35) 
{"free_energy": -8.12, "intermolecular_energy": -10.51, "internal_energy": -1.57, "cluster_size": 4, "cluster_id": 2, "rank_in_cluster": 3}

>  <energy>  (35) 
-7.68

>  <cluster_rmsd>  (35) 
0.0

>  <cluster>  (35) 
5

$$$$

     RDKit          3D

 53 56  0  0  0  0  0  0  0  0999 V2000
  139.1390   75.8650  222.4410 O   0  0  0  0  0  0  0  0  0  0  0  0
  140.3200   76.2010  222.1950 C   0  0  0  0  0  0  0  0  0  0  0  0
  141.2950   75.2680  221.7760 N   0  0  0  0  0  0  0  0  0  0  0  0
  140.9840   73.8730  221.6050 C   0  0  0  0  0  0  0  0  0  0  0  0
  141.5680   73.2770  220.4080 C   0  0  0  0  0  0  0  0  0  0  0  0
  140.7810   72.7380  219.5610 O   0  0  0  0  0  0  0  0  0  0  0  0
  142.9450   73.2330  220.0850 N   0  0  0  0  0  0  0  0  0  0  0  0
  143.4520   72.3840  218.9910 C   0  0  0  0  0  0  0  0  0  0  0  0
  144.6550   71.7700  219.7340 C   0  0  0  0  0  0  0  0  0  0  0  0
  145.2570   73.0820  220.2720 C   0  0  2  0  0  0  0  0  0  0  0  0
  146.1780   72.8530  221.2520 O   0  0  0  0  0  0  0  0  0  0  0  0
  144.0750   73.9330  220.6910 C   0  0  1  0  0  0  0  0  0  0  0  0
  144.1710   75.3380  220.0700 C   0  0  0  0  0  0  0  0  0  0  0  0
  143.0470   75.8540  219.6260 O   0  0  0  0  0  0  0  0  0  0  0  0
  142.2450   76.7250  219.0900 C   0  0  0  0  0  0  0  0  0  0  0  0
  142.5710   78.0220  218.7220 C   0  0  0  0  0  0  0  0  0  0  0  0
  141.6630   78.8950  218.1560 C   0  0  0  0  0  0  0  0  0  0  0  0
  140.3900   78.4550  217.9520 C   0  0  0  0  0  0  0  0  0  0  0  0
  139.9940   77.2010  218.2840 C   0  0  0  0  0  0  0  0  0  0  0  0
  140.9050   76.3470  218.8460 C   0  0  0  0  0  0  0  0  0  0  0  0
  140.6980   77.6160  222.3530 C   0  0  0  0  0  0  0  0  0  0  0  0
  141.4680   78.0390  223.4120 C   0  0  0  0  0  0  0  0  0  0  0  0
  141.7800   79.3890  223.4880 C   0  0  0  0  0  0  0  0  0  0  0  0
  141.3510   80.3090  222.5550 C   0  0  0  0  0  0  0  0  0  0  0  0
  141.6440   81.6410  222.6070 C   0  0  0  0  0  0  0  0  0  0  0  0
  141.1670   82.4820  221.6240 C   0  0  0  0  0  0  0  0  0  0  0  0
  141.4140   83.8140  221.6070 F   0  0  0  0  0  0  0  0  0  0  0  0
  140.3900   81.9890  220.5770 C   0  0  0  0  0  0  0  0  0  0  0  0
  140.0850   80.6440  220.5090 C   0  0  0  0  0  0  0  0  0  0  0  0
  140.5830   79.8400  221.5130 C   0  0  0  0  0  0  0  0  0  0  0  0
  140.2910   78.5310  221.4560 N   0  0  0  0  0  0  0  0  0  0  0  0
  142.2670   75.6410  221.5910 H   0  0  0  0  0  0  0  0  0  0  0  0
  141.3586   73.3251  222.4822 H   0  0  0  0  0  0  0  0  0  0  0  0
  139.8918   73.8016  221.4955 H   0  0  0  0  0  0  0  0  0  0  0  0
  142.7208   71.6226  218.6817 H   0  0  0  0  0  0  0  0  0  0  0  0
  143.6805   72.8997  218.0466 H   0  0  0  0  0  0  0  0  0  0  0  0
  144.3449   71.0905  220.5415 H   0  0  0  0  0  0  0  0  0  0  0  0
  145.3259   71.1384  219.1332 H   0  0  0  0  0  0  0  0  0  0  0  0
  145.8407   73.6215  219.5116 H   0  0  0  0  0  0  0  0  0  0  0  0
  146.0340   71.9580  221.6360 H   0  0  0  0  0  0  0  0  0  0  0  0
  144.0065   74.0603  221.7815 H   0  0  0  0  0  0  0  0  0  0  0  0
  144.5723   76.0171  220.8367 H   0  0  0  0  0  0  0  0  0  0  0  0
  144.8133   75.2251  219.1842 H   0  0  0  0  0  0  0  0  0  0  0  0
  143.6006   78.3714  218.8888 H   0  0  0  0  0  0  0  0  0  0  0  0
  141.9593   79.9171  217.8777 H   0  0  0  0  0  0  0  0  0  0  0  0
  139.6573   79.1411  217.5021 H   0  0  0  0  0  0  0  0  0  0  0  0
  138.9586   76.8755  218.1048 H   0  0  0  0  0  0  0  0  0  0  0  0
  140.5826   75.3309  219.1172 H   0  0  0  0  0  0  0  0  0  0  0  0
  141.8247   77.3300  224.1737 H   0  0  0  0  0  0  0  0  0  0  0  0
  142.3961   79.7403  224.3288 H   0  0  0  0  0  0  0  0  0  0  0  0
  142.2569   82.0411  223.4281 H   0  0  0  0  0  0  0  0  0  0  0  0
  140.0181   82.6746  219.8013 H   0  0  0  0  0  0  0  0  0  0  0  0
  139.4735   80.2329  219.6923 H   0  0  0  0  0  0  0  0  0  0  0  0
  1  2  2  0
  2  3  1  0
  3  4  1  0
  4  5  1  0
  5  6  2  0
  5  7  1  0
  7  8  1  0
  8  9  1  0
  9 10  1  0
 10 11  1  0
 10 12  1  0
 12 13  1  0
 13 14  1  0
 14 15  1  0
 15 16  2  0
 16 17  1  0
 17 18  2  0
 18 19  1  0
 19 20  2  0
  2 21  1  0
 21 22  2  0
 22 23  1  0
 23 24  2  0
 24 25  1  0
 25 26  2  0
 26 27  1  0
 26 28  1  0
 28 29  2  0
 29 30  1  0
 30 31  2  0
 12  7  1  0
 20 15  1  0
 31 21  1  0
 30 24  1  0
  3 32  1  0
  4 33  1  0
  4 34  1  0
  8 35  1  0
  8 36  1  0
  9 37  1  0
  9 38  1  0
 10 39  1  6
 11 40  1  0
 12 41  1  1
 13 42  1  0
 13 43  1  0
 16 44  1  0
 17 45  1  0
 18 46  1  0
 19 47  1  0
 20 48  1  0
 22 49  1  0
 23 50  1  0
 25 51  1  0
 28 52  1  0
 29 53  1  0
M  END
>  <smiles>  (36) 
O=C(NCC(=O)N1CC[C@H](O)[C@H]1COc1ccccc1)c1ccc2cc(F)ccc2n1

>  <score_type>  (36) 
oracle

>  <origin>  (36) 
autodockgpu

>  <m_score__min__energy>  (36) 
-8.8599999999999994

>  <m_primary>  (36) 
energy

>  <rmsd>  (36) 
8.69430881727266

>  <m_score__min__rmsd>  (36) 
8.69430881727266

>  <meeko>  (36) 
{"free_energy": -6.02, "intermolecular_energy": -8.4, "internal_energy": -3.33, "cluster_size": 7, "cluster_id": 3, "rank_in_cluster": 6}

>  <energy>  (36) 
-7.51

>  <cluster_rmsd>  (36) 
0.0

>  <cluster>  (36) 
6

$$$$

     RDKit          3D

 53 56  0  0  0  0  0  0  0  0999 V2000
  141.0990   72.1900  221.9500 O   0  0  0  0  0  0  0  0  0  0  0  0
  140.0650   72.1500  222.6560 C   0  0  0  0  0  0  0  0  0  0  0  0
  138.9740   73.0220  222.4420 N   0  0  0  0  0  0  0  0  0  0  0  0
  138.9890   74.0100  221.3940 C   0  0  0  0  0  0  0  0  0  0  0  0
  140.1910   74.8370  221.3770 C   0  0  0  0  0  0  0  0  0  0  0  0
  140.3570   75.6750  222.3250 O   0  0  0  0  0  0  0  0  0  0  0  0
  141.2110   74.8070  220.3960 N   0  0  0  0  0  0  0  0  0  0  0  0
  141.1110   73.9410  219.2070 C   0  0  0  0  0  0  0  0  0  0  0  0
  142.5400   73.3650  219.2390 C   0  0  0  0  0  0  0  0  0  0  0  0
  143.2980   74.6990  219.3780 C   0  0  2  0  0  0  0  0  0  0  0  0
  144.5960   74.5090  219.7530 O   0  0  0  0  0  0  0  0  0  0  0  0
  142.4730   75.5400  220.3320 C   0  0  1  0  0  0  0  0  0  0  0  0
  142.2020   76.9310  219.7320 C   0  0  0  0  0  0  0  0  0  0  0  0
  142.1650   77.9320  220.5830 O   0  0  0  0  0  0  0  0  0  0  0  0
  141.8060   78.6200  221.6250 C   0  0  0  0  0  0  0  0  0  0  0  0
  142.6360   79.3950  222.4230 C   0  0  0  0  0  0  0  0  0  0  0  0
  142.1830   80.1000  223.5200 C   0  0  0  0  0  0  0  0  0  0  0  0
  140.8580   80.0280  223.8270 C   0  0  0  0  0  0  0  0  0  0  0  0
  139.9830   79.2930  223.0970 C   0  0  0  0  0  0  0  0  0  0  0  0
  140.4460   78.5980  222.0120 C   0  0  0  0  0  0  0  0  0  0  0  0
  139.9920   71.1590  223.7450 C   0  0  0  0  0  0  0  0  0  0  0  0
  139.4040   69.9300  223.5560 C   0  0  0  0  0  0  0  0  0  0  0  0
  139.3760   69.0530  224.6320 C   0  0  0  0  0  0  0  0  0  0  0  0
  139.9080   69.3660  225.8640 C   0  0  0  0  0  0  0  0  0  0  0  0
  139.8930   68.5230  226.9380 C   0  0  0  0  0  0  0  0  0  0  0  0
  140.4520   68.9290  228.1300 C   0  0  0  0  0  0  0  0  0  0  0  0
  140.4760   68.1490  229.2390 F   0  0  0  0  0  0  0  0  0  0  0  0
  141.0320   70.1890  228.2550 C   0  0  0  0  0  0  0  0  0  0  0  0
  141.0560   71.0550  227.1800 C   0  0  0  0  0  0  0  0  0  0  0  0
  140.4860   70.6080  226.0060 C   0  0  0  0  0  0  0  0  0  0  0  0
  140.5030   71.4420  224.9550 N   0  0  0  0  0  0  0  0  0  0  0  0
  138.1430   72.9170  223.0860 H   0  0  0  0  0  0  0  0  0  0  0  0
  138.9125   73.4905  220.4274 H   0  0  0  0  0  0  0  0  0  0  0  0
  138.1403   74.6847  221.5797 H   0  0  0  0  0  0  0  0  0  0  0  0
  140.3447   73.1605  219.3235 H   0  0  0  0  0  0  0  0  0  0  0  0
  140.8120   74.4378  218.2722 H   0  0  0  0  0  0  0  0  0  0  0  0
  142.7032   72.7000  220.0999 H   0  0  0  0  0  0  0  0  0  0  0  0
  142.8266   72.7303  218.3875 H   0  0  0  0  0  0  0  0  0  0  0  0
  143.3980   75.2294  218.4195 H   0  0  0  0  0  0  0  0  0  0  0  0
  145.1950   74.8280  219.0380 H   0  0  0  0  0  0  0  0  0  0  0  0
  142.9666   75.6920  221.3032 H   0  0  0  0  0  0  0  0  0  0  0  0
  142.9959   77.1415  219.0002 H   0  0  0  0  0  0  0  0  0  0  0  0
  141.1920   76.8740  219.2998 H   0  0  0  0  0  0  0  0  0  0  0  0
  143.7050   79.4500  222.1694 H   0  0  0  0  0  0  0  0  0  0  0  0
  142.8727   80.7029  224.1290 H   0  0  0  0  0  0  0  0  0  0  0  0
  140.4844   80.5860  224.6982 H   0  0  0  0  0  0  0  0  0  0  0  0
  138.9186   79.2557  223.3720 H   0  0  0  0  0  0  0  0  0  0  0  0
  139.7354   78.0018  221.4208 H   0  0  0  0  0  0  0  0  0  0  0  0
  138.9702   69.6511  222.5844 H   0  0  0  0  0  0  0  0  0  0  0  0
  138.9093   68.0664  224.4952 H   0  0  0  0  0  0  0  0  0  0  0  0
  139.4373   67.5255  226.8520 H   0  0  0  0  0  0  0  0  0  0  0  0
  141.4731   70.4957  229.2149 H   0  0  0  0  0  0  0  0  0  0  0  0
  141.5085   72.0547  227.2561 H   0  0  0  0  0  0  0  0  0  0  0  0
  1  2  2  0
  2  3  1  0
  3  4  1  0
  4  5  1  0
  5  6  2  0
  5  7  1  0
  7  8  1  0
  8  9  1  0
  9 10  1  0
 10 11  1  0
 10 12  1  0
 12 13  1  0
 13 14  1  0
 14 15  1  0
 15 16  2  0
 16 17  1  0
 17 18  2  0
 18 19  1  0
 19 20  2  0
  2 21  1  0
 21 22  2  0
 22 23  1  0
 23 24  2  0
 24 25  1  0
 25 26  2  0
 26 27  1  0
 26 28  1  0
 28 29  2  0
 29 30  1  0
 30 31  2  0
 12  7  1  0
 20 15  1  0
 31 21  1  0
 30 24  1  0
  3 32  1  0
  4 33  1  0
  4 34  1  0
  8 35  1  0
  8 36  1  0
  9 37  1  0
  9 38  1  0
 10 39  1  6
 11 40  1  0
 12 41  1  1
 13 42  1  0
 13 43  1  0
 16 44  1  0
 17 45  1  0
 18 46  1  0
 19 47  1  0
 20 48  1  0
 22 49  1  0
 23 50  1  0
 25 51  1  0
 28 52  1  0
 29 53  1  0
M  END
>  <smiles>  (37) 
O=C(NCC(=O)N1CC[C@H](O)[C@H]1COc1ccccc1)c1ccc2cc(F)ccc2n1

>  <score_type>  (37) 
oracle

>  <origin>  (37) 
autodockgpu

>  <m_score__min__energy>  (37) 
-8.8599999999999994

>  <m_primary>  (37) 
energy

>  <rmsd>  (37) 
2.068651602405607

>  <m_score__min__rmsd>  (37) 
2.068651602405607

>  <meeko>  (37) 
{"free_energy": -8.39, "intermolecular_energy": -10.77, "internal_energy": -1.46, "cluster_size": 20, "cluster_id": 1, "rank_in_cluster": 5}

>  <energy>  (37) 
-7.34

>  <cluster_rmsd>  (37) 
0.57

>  <cluster>  (37) 
6

$$$$

     RDKit          3D

 53 56  0  0  0  0  0  0  0  0999 V2000
  138.8800   70.5230  221.4900 O   0  0  0  0  0  0  0  0  0  0  0  0
  139.1780   71.0830  222.5710 C   0  0  0  0  0  0  0  0  0  0  0  0
  139.3250   72.4840  222.6760 N   0  0  0  0  0  0  0  0  0  0  0  0
  139.1390   73.3520  221.5420 C   0  0  0  0  0  0  0  0  0  0  0  0
  140.0970   74.4500  221.4740 C   0  0  0  0  0  0  0  0  0  0  0  0
  140.0580   75.3380  222.3900 O   0  0  0  0  0  0  0  0  0  0  0  0
  141.0820   74.6390  220.4750 N   0  0  0  0  0  0  0  0  0  0  0  0
  141.0580   73.8740  219.2160 C   0  0  0  0  0  0  0  0  0  0  0  0
  142.5490   73.4880  219.1690 C   0  0  0  0  0  0  0  0  0  0  0  0
  143.1340   74.8920  219.4130 C   0  0  2  0  0  0  0  0  0  0  0  0
  144.4560   74.8400  219.7440 O   0  0  0  0  0  0  0  0  0  0  0  0
  142.2380   75.5320  220.4540 C   0  0  1  0  0  0  0  0  0  0  0  0
  141.7730   76.9230  219.9870 C   0  0  0  0  0  0  0  0  0  0  0  0
  141.5040   77.7930  220.9350 O   0  0  0  0  0  0  0  0  0  0  0  0
  141.7210   78.6350  221.9000 C   0  0  0  0  0  0  0  0  0  0  0  0
  141.5270   78.4000  223.2530 C   0  0  0  0  0  0  0  0  0  0  0  0
  141.7790   79.3470  224.2260 C   0  0  0  0  0  0  0  0  0  0  0  0
  142.2400   80.5660  223.8320 C   0  0  0  0  0  0  0  0  0  0  0  0
  142.4560   80.8730  222.5280 C   0  0  0  0  0  0  0  0  0  0  0  0
  142.2000   79.9250  221.5740 C   0  0  0  0  0  0  0  0  0  0  0  0
  139.3800   70.2450  223.7660 C   0  0  0  0  0  0  0  0  0  0  0  0
  138.9770   68.9290  223.7960 C   0  0  0  0  0  0  0  0  0  0  0  0
  139.2040   68.2080  224.9600 C   0  0  0  0  0  0  0  0  0  0  0  0
  139.8090   68.7550  226.0710 C   0  0  0  0  0  0  0  0  0  0  0  0
  140.0440   68.0680  227.2270 C   0  0  0  0  0  0  0  0  0  0  0  0
  140.6570   68.7050  228.2850 C   0  0  0  0  0  0  0  0  0  0  0  0
  140.9230   68.0900  229.4630 F   0  0  0  0  0  0  0  0  0  0  0  0
  141.0400   70.0410  228.1900 C   0  0  0  0  0  0  0  0  0  0  0  0
  140.8110   70.7510  227.0280 C   0  0  0  0  0  0  0  0  0  0  0  0
  140.1960   70.0750  225.9950 C   0  0  0  0  0  0  0  0  0  0  0  0
  139.9670   70.7560  224.8610 N   0  0  0  0  0  0  0  0  0  0  0  0
  139.5780   72.8690  223.6280 H   0  0  0  0  0  0  0  0  0  0  0  0
  139.2360   72.7506  220.6261 H   0  0  0  0  0  0  0  0  0  0  0  0
  138.1419   73.8046  221.6468 H   0  0  0  0  0  0  0  0  0  0  0  0
  140.4016   72.9934  219.2763 H   0  0  0  0  0  0  0  0  0  0  0  0
  140.6700   74.4069  218.3354 H   0  0  0  0  0  0  0  0  0  0  0  0
  142.8220   72.7778  219.9634 H   0  0  0  0  0  0  0  0  0  0  0  0
  142.8884   72.9721  218.2587 H   0  0  0  0  0  0  0  0  0  0  0  0
  143.1360   75.5127  218.5049 H   0  0  0  0  0  0  0  0  0  0  0  0
  145.0030   74.8890  218.9260 H   0  0  0  0  0  0  0  0  0  0  0  0
  142.7377   75.6613  221.4254 H   0  0  0  0  0  0  0  0  0  0  0  0
  142.5676   77.3485  219.3565 H   0  0  0  0  0  0  0  0  0  0  0  0
  140.8207   76.7547  219.4627 H   0  0  0  0  0  0  0  0  0  0  0  0
  141.1550   77.4132  223.5657 H   0  0  0  0  0  0  0  0  0  0  0  0
  141.6119   79.1227  225.2898 H   0  0  0  0  0  0  0  0  0  0  0  0
  142.4446   81.3288  224.5977 H   0  0  0  0  0  0  0  0  0  0  0  0
  142.8305   81.8670  222.2422 H   0  0  0  0  0  0  0  0  0  0  0  0
  142.3730   80.1755  220.5170 H   0  0  0  0  0  0  0  0  0  0  0  0
  138.4909   68.4640  222.9257 H   0  0  0  0  0  0  0  0  0  0  0  0
  138.8876   67.1552  224.9974 H   0  0  0  0  0  0  0  0  0  0  0  0
  139.7461   67.0127  227.3139 H   0  0  0  0  0  0  0  0  0  0  0  0
  141.5272   70.5328  229.0448 H   0  0  0  0  0  0  0  0  0  0  0  0
  141.1053   71.8064  226.9308 H   0  0  0  0  0  0  0  0  0  0  0  0
  1  2  2  0
  2  3  1  0
  3  4  1  0
  4  5  1  0
  5  6  2  0
  5  7  1  0
  7  8  1  0
  8  9  1  0
  9 10  1  0
 10 11  1  0
 10 12  1  0
 12 13  1  0
 13 14  1  0
 14 15  1  0
 15 16  2  0
 16 17  1  0
 17 18  2  0
 18 19  1  0
 19 20  2  0
  2 21  1  0
 21 22  2  0
 22 23  1  0
 23 24  2  0
 24 25  1  0
 25 26  2  0
 26 27  1  0
 26 28  1  0
 28 29  2  0
 29 30  1  0
 30 31  2  0
 12  7  1  0
 20 15  1  0
 31 21  1  0
 30 24  1  0
  3 32  1  0
  4 33  1  0
  4 34  1  0
  8 35  1  0
  8 36  1  0
  9 37  1  0
  9 38  1  0
 10 39  1  6
 11 40  1  0
 12 41  1  1
 13 42  1  0
 13 43  1  0
 16 44  1  0
 17 45  1  0
 18 46  1  0
 19 47  1  0
 20 48  1  0
 22 49  1  0
 23 50  1  0
 25 51  1  0
 28 52  1  0
 29 53  1  0
M  END
>  <smiles>  (38) 
O=C(NCC(=O)N1CC[C@H](O)[C@H]1COc1ccccc1)c1ccc2cc(F)ccc2n1

>  <score_type>  (38) 
oracle

>  <origin>  (38) 
autodockgpu

>  <m_score__min__energy>  (38) 
-8.8599999999999994

>  <m_primary>  (38) 
energy

>  <rmsd>  (38) 
1.9740512474474905

>  <m_score__min__rmsd>  (38) 
1.9740512474474905

>  <meeko>  (38) 
{"free_energy": -8.43, "intermolecular_energy": -10.82, "internal_energy": -1.56, "cluster_size": 20, "cluster_id": 1, "rank_in_cluster": 4}

>  <energy>  (38) 
-7.28

>  <cluster_rmsd>  (38) 
0.24

>  <cluster>  (38) 
6

$$$$

     RDKit          3D

 53 56  0  0  0  0  0  0  0  0999 V2000
  141.6540   73.0160  220.9760 O   0  0  0  0  0  0  0  0  0  0  0  0
  140.8940   73.8420  221.5330 C   0  0  0  0  0  0  0  0  0  0  0  0
  139.7850   73.4380  222.3080 N   0  0  0  0  0  0  0  0  0  0  0  0
  139.4630   72.0480  222.5040 C   0  0  0  0  0  0  0  0  0  0  0  0
  138.0390   71.7880  222.6830 C   0  0  0  0  0  0  0  0  0  0  0  0
  137.2620   72.7880  222.8420 O   0  0  0  0  0  0  0  0  0  0  0  0
  137.4180   70.5170  222.7030 N   0  0  0  0  0  0  0  0  0  0  0  0
  136.8780   69.9050  221.4750 C   0  0  0  0  0  0  0  0  0  0  0  0
  135.5230   69.4410  222.0440 C   0  0  0  0  0  0  0  0  0  0  0  0
  136.0590   68.7280  223.3000 C   0  0  2  0  0  0  0  0  0  0  0  0
  135.0660   68.4710  224.2000 O   0  0  0  0  0  0  0  0  0  0  0  0
  137.1810   69.6050  223.8190 C   0  0  1  0  0  0  0  0  0  0  0  0
  138.4550   68.7730  224.0520 C   0  0  0  0  0  0  0  0  0  0  0  0
  139.1860   69.1100  225.0910 O   0  0  0  0  0  0  0  0  0  0  0  0
  139.7270   69.8740  225.9920 C   0  0  0  0  0  0  0  0  0  0  0  0
  139.6200   69.7250  227.3670 C   0  0  0  0  0  0  0  0  0  0  0  0
  140.2230   70.5800  228.2670 C   0  0  0  0  0  0  0  0  0  0  0  0
  140.9580   71.6160  227.7750 C   0  0  0  0  0  0  0  0  0  0  0  0
  141.1110   71.8300  226.4440 C   0  0  0  0  0  0  0  0  0  0  0  0
  140.5050   70.9740  225.5630 C   0  0  0  0  0  0  0  0  0  0  0  0
  141.1740   75.2790  221.3670 C   0  0  0  0  0  0  0  0  0  0  0  0
  141.9650   75.7420  220.3410 C   0  0  0  0  0  0  0  0  0  0  0  0
  142.1790   77.1110  220.2540 C   0  0  0  0  0  0  0  0  0  0  0  0
  141.6370   78.0090  221.1480 C   0  0  0  0  0  0  0  0  0  0  0  0
  141.8320   79.3590  221.0860 C   0  0  0  0  0  0  0  0  0  0  0  0
  141.2460   80.1760  222.0290 C   0  0  0  0  0  0  0  0  0  0  0  0
  141.3930   81.5230  222.0330 F   0  0  0  0  0  0  0  0  0  0  0  0
  140.4560   79.6430  223.0450 C   0  0  0  0  0  0  0  0  0  0  0  0
  140.2470   78.2800  223.1220 C   0  0  0  0  0  0  0  0  0  0  0  0
  140.8520   77.5000  222.1590 C   0  0  0  0  0  0  0  0  0  0  0  0
  140.6560   76.1740  222.2270 N   0  0  0  0  0  0  0  0  0  0  0  0
  139.1990   74.2040  222.7410 H   0  0  0  0  0  0  0  0  0  0  0  0
  139.8094   71.4854  221.6245 H   0  0  0  0  0  0  0  0  0  0  0  0
  139.9628   71.7335  223.4320 H   0  0  0  0  0  0  0  0  0  0  0  0
  136.7599   70.6366  220.6621 H   0  0  0  0  0  0  0  0  0  0  0  0
  137.4993   69.1247  221.0112 H   0  0  0  0  0  0  0  0  0  0  0  0
  134.8630   70.2852  222.2925 H   0  0  0  0  0  0  0  0  0  0  0  0
  134.8963   68.8357  221.3726 H   0  0  0  0  0  0  0  0  0  0  0  0
  136.4534   67.7249  223.0805 H   0  0  0  0  0  0  0  0  0  0  0  0
  135.2180   68.9980  225.0180 H   0  0  0  0  0  0  0  0  0  0  0  0
  136.9323   70.0978  224.7705 H   0  0  0  0  0  0  0  0  0  0  0  0
  138.1516   67.7236  224.1813 H   0  0  0  0  0  0  0  0  0  0  0  0
  139.0907   68.9555  223.1731 H   0  0  0  0  0  0  0  0  0  0  0  0
  139.0265   68.8857  227.7585 H   0  0  0  0  0  0  0  0  0  0  0  0
  140.1132   70.4291  229.3511 H   0  0  0  0  0  0  0  0  0  0  0  0
  141.4449   72.3037  228.4821 H   0  0  0  0  0  0  0  0  0  0  0  0
  141.7113   72.6763  226.0787 H   0  0  0  0  0  0  0  0  0  0  0  0
  140.6279   71.1484  224.4839 H   0  0  0  0  0  0  0  0  0  0  0  0
  142.4134   75.0499  219.6131 H   0  0  0  0  0  0  0  0  0  0  0  0
  142.8076   77.4951  219.4371 H   0  0  0  0  0  0  0  0  0  0  0  0
  142.4531   79.7921  220.2881 H   0  0  0  0  0  0  0  0  0  0  0  0
  139.9967   80.3105  223.7890 H   0  0  0  0  0  0  0  0  0  0  0  0
  139.6265   77.8370  223.9149 H   0  0  0  0  0  0  0  0  0  0  0  0
  1  2  2  0
  2  3  1  0
  3  4  1  0
  4  5  1  0
  5  6  2  0
  5  7  1  0
  7  8  1  0
  8  9  1  0
  9 10  1  0
 10 11  1  0
 10 12  1  0
 12 13  1  0
 13 14  1  0
 14 15  1  0
 15 16  2  0
 16 17  1  0
 17 18  2  0
 18 19  1  0
 19 20  2  0
  2 21  1  0
 21 22  2  0
 22 23  1  0
 23 24  2  0
 24 25  1  0
 25 26  2  0
 26 27  1  0
 26 28  1  0
 28 29  2  0
 29 30  1  0
 30 31  2  0
 12  7  1  0
 20 15  1  0
 31 21  1  0
 30 24  1  0
  3 32  1  0
  4 33  1  0
  4 34  1  0
  8 35  1  0
  8 36  1  0
  9 37  1  0
  9 38  1  0
 10 39  1  6
 11 40  1  0
 12 41  1  1
 13 42  1  0
 13 43  1  0
 16 44  1  0
 17 45  1  0
 18 46  1  0
 19 47  1  0
 20 48  1  0
 22 49  1  0
 23 50  1  0
 25 51  1  0
 28 52  1  0
 29 53  1  0
M  END
>  <smiles>  (39) 
O=C(NCC(=O)N1CC[C@H](O)[C@H]1COc1ccccc1)c1ccc2cc(F)ccc2n1

>  <score_type>  (39) 
oracle

>  <origin>  (39) 
autodockgpu

>  <m_score__min__energy>  (39) 
-8.8599999999999994

>  <m_primary>  (39) 
energy

>  <rmsd>  (39) 
8.745488421457605

>  <m_score__min__rmsd>  (39) 
8.745488421457605

>  <meeko>  (39) 
{"free_energy": -7.33, "intermolecular_energy": -9.72, "internal_energy": -2.0, "cluster_size": 2, "cluster_id": 7, "rank_in_cluster": 2}

>  <energy>  (39) 
-7.26

>  <cluster_rmsd>  (39) 
0.43

>  <cluster>  (39) 
6

$$$$

     RDKit          3D

 53 56  0  0  0  0  0  0  0  0999 V2000
  141.7510   73.0170  221.0400 O   0  0  0  0  0  0  0  0  0  0  0  0
  140.9750   73.8400  221.5790 C   0  0  0  0  0  0  0  0  0  0  0  0
  139.8740   73.4320  222.3640 N   0  0  0  0  0  0  0  0  0  0  0  0
  139.5800   72.0400  222.5900 C   0  0  0  0  0  0  0  0  0  0  0  0
  138.1540   71.7360  222.6410 C   0  0  0  0  0  0  0  0  0  0  0  0
  137.3330   72.7130  222.6690 O   0  0  0  0  0  0  0  0  0  0  0  0
  137.5760   70.4450  222.6650 N   0  0  0  0  0  0  0  0  0  0  0  0
  137.3030   69.7000  221.4230 C   0  0  0  0  0  0  0  0  0  0  0  0
  135.8770   69.2270  221.7630 C   0  0  0  0  0  0  0  0  0  0  0  0
  136.1760   68.6580  223.1630 C   0  0  2  0  0  0  0  0  0  0  0  0
  135.0340   68.4370  223.8760 O   0  0  0  0  0  0  0  0  0  0  0  0
  137.1500   69.6280  223.7990 C   0  0  1  0  0  0  0  0  0  0  0  0
  138.3760   68.8800  224.3520 C   0  0  0  0  0  0  0  0  0  0  0  0
  139.2870   69.6190  224.9470 O   0  0  0  0  0  0  0  0  0  0  0  0
  139.8660   70.2940  225.8940 C   0  0  0  0  0  0  0  0  0  0  0  0
  140.7100   71.3820  225.7270 C   0  0  0  0  0  0  0  0  0  0  0  0
  141.2930   72.0530  226.7840 C   0  0  0  0  0  0  0  0  0  0  0  0
  141.0220   71.6200  228.0470 C   0  0  0  0  0  0  0  0  0  0  0  0
  140.2070   70.5640  228.2920 C   0  0  0  0  0  0  0  0  0  0  0  0
  139.6370   69.9080  227.2340 C   0  0  0  0  0  0  0  0  0  0  0  0
  141.2260   75.2790  221.3820 C   0  0  0  0  0  0  0  0  0  0  0  0
  141.9890   75.7360  220.3320 C   0  0  0  0  0  0  0  0  0  0  0  0
  142.1780   77.1060  220.2170 C   0  0  0  0  0  0  0  0  0  0  0  0
  141.6370   78.0120  221.1040 C   0  0  0  0  0  0  0  0  0  0  0  0
  141.8080   79.3630  221.0140 C   0  0  0  0  0  0  0  0  0  0  0  0
  141.2260   80.1870  221.9530 C   0  0  0  0  0  0  0  0  0  0  0  0
  141.3500   81.5370  221.9290 F   0  0  0  0  0  0  0  0  0  0  0  0
  140.4650   79.6600  222.9940 C   0  0  0  0  0  0  0  0  0  0  0  0
  140.2810   78.2950  223.1000 C   0  0  0  0  0  0  0  0  0  0  0  0
  140.8820   77.5080  222.1390 C   0  0  0  0  0  0  0  0  0  0  0  0
  140.7100   76.1800  222.2350 N   0  0  0  0  0  0  0  0  0  0  0  0
  139.2730   74.1950  222.7800 H   0  0  0  0  0  0  0  0  0  0  0  0
  140.0296   71.4545  221.7745 H   0  0  0  0  0  0  0  0  0  0  0  0
  139.9960   71.7824  223.5752 H   0  0  0  0  0  0  0  0  0  0  0  0
  137.3258   70.3487  220.5349 H   0  0  0  0  0  0  0  0  0  0  0  0
  138.0243   68.9102  221.1664 H   0  0  0  0  0  0  0  0  0  0  0  0
  135.1575   70.0584  221.7948 H   0  0  0  0  0  0  0  0  0  0  0  0
  135.4117   68.5340  221.0466 H   0  0  0  0  0  0  0  0  0  0  0  0
  136.6335   67.6585  223.1232 H   0  0  0  0  0  0  0  0  0  0  0  0
  134.4680   69.2440  223.8480 H   0  0  0  0  0  0  0  0  0  0  0  0
  136.7067   70.1930  224.6322 H   0  0  0  0  0  0  0  0  0  0  0  0
  138.0164   68.1389  225.0810 H   0  0  0  0  0  0  0  0  0  0  0  0
  138.8766   68.4454  223.4742 H   0  0  0  0  0  0  0  0  0  0  0  0
  140.9251   71.7266  224.7047 H   0  0  0  0  0  0  0  0  0  0  0  0
  141.9572   72.9126  226.6110 H   0  0  0  0  0  0  0  0  0  0  0  0
  141.4803   72.1453  228.8979 H   0  0  0  0  0  0  0  0  0  0  0  0
  140.0072   70.2398  229.3240 H   0  0  0  0  0  0  0  0  0  0  0  0
  138.9777   69.0505  227.4340 H   0  0  0  0  0  0  0  0  0  0  0  0
  142.4345   75.0383  219.6076 H   0  0  0  0  0  0  0  0  0  0  0  0
  142.7856   77.4853  219.3822 H   0  0  0  0  0  0  0  0  0  0  0  0
  142.4068   79.7917  220.1969 H   0  0  0  0  0  0  0  0  0  0  0  0
  140.0088   80.3334  223.7345 H   0  0  0  0  0  0  0  0  0  0  0  0
  139.6834   77.8560  223.9125 H   0  0  0  0  0  0  0  0  0  0  0  0
  1  2  2  0
  2  3  1  0
  3  4  1  0
  4  5  1  0
  5  6  2  0
  5  7  1  0
  7  8  1  0
  8  9  1  0
  9 10  1  0
 10 11  1  0
 10 12  1  0
 12 13  1  0
 13 14  1  0
 14 15  1  0
 15 16  2  0
 16 17  1  0
 17 18  2  0
 18 19  1  0
 19 20  2  0
  2 21  1  0
 21 22  2  0
 22 23  1  0
 23 24  2  0
 24 25  1  0
 25 26  2  0
 26 27  1  0
 26 28  1  0
 28 29  2  0
 29 30  1  0
 30 31  2  0
 12  7  1  0
 20 15  1  0
 31 21  1  0
 30 24  1  0
  3 32  1  0
  4 33  1  0
  4 34  1  0
  8 35  1  0
  8 36  1  0
  9 37  1  0
  9 38  1  0
 10 39  1  6
 11 40  1  0
 12 41  1  1
 13 42  1  0
 13 43  1  0
 16 44  1  0
 17 45  1  0
 18 46  1  0
 19 47  1  0
 20 48  1  0
 22 49  1  0
 23 50  1  0
 25 51  1  0
 28 52  1  0
 29 53  1  0
M  END
>  <smiles>  (40) 
O=C(NCC(=O)N1CC[C@H](O)[C@H]1COc1ccccc1)c1ccc2cc(F)ccc2n1

>  <score_type>  (40) 
oracle

>  <origin>  (40) 
autodockgpu

>  <m_score__min__energy>  (40) 
-8.8599999999999994

>  <m_primary>  (40) 
energy

>  <rmsd>  (40) 
8.747832323052787

>  <m_score__min__rmsd>  (40) 
8.747832323052787

>  <meeko>  (40) 
{"free_energy": -7.4, "intermolecular_energy": -9.79, "internal_energy": -1.98, "cluster_size": 2, "cluster_id": 7, "rank_in_cluster": 1}

>  <energy>  (40) 
-7.17

>  <cluster_rmsd>  (40) 
0.31

>  <cluster>  (40) 
6

$$$$

     RDKit          3D

 53 56  0  0  0  0  0  0  0  0999 V2000
  139.9870   73.2810  222.7120 O   0  0  0  0  0  0  0  0  0  0  0  0
  140.0530   72.0510  222.4850 C   0  0  0  0  0  0  0  0  0  0  0  0
  140.2140   71.5350  221.1790 N   0  0  0  0  0  0  0  0  0  0  0  0
  140.3130   72.3990  220.0310 C   0  0  0  0  0  0  0  0  0  0  0  0
  141.3600   73.4090  220.1390 C   0  0  0  0  0  0  0  0  0  0  0  0
  142.4960   73.0500  220.5960 O   0  0  0  0  0  0  0  0  0  0  0  0
  141.2430   74.7740  219.7840 N   0  0  0  0  0  0  0  0  0  0  0  0
  140.5190   75.1960  218.5710 C   0  0  0  0  0  0  0  0  0  0  0  0
  141.5570   76.2040  218.0400 C   0  0  0  0  0  0  0  0  0  0  0  0
  141.7610   76.9970  219.3440 C   0  0  2  0  0  0  0  0  0  0  0  0
  142.8740   77.7840  219.2910 O   0  0  0  0  0  0  0  0  0  0  0  0
  141.7580   75.9660  220.4540 C   0  0  1  0  0  0  0  0  0  0  0  0
  140.7720   76.3680  221.5650 C   0  0  0  0  0  0  0  0  0  0  0  0
  141.1310   77.3820  222.3200 O   0  0  0  0  0  0  0  0  0  0  0  0
  141.4890   78.5930  222.6290 C   0  0  0  0  0  0  0  0  0  0  0  0
  141.9150   79.0300  223.8750 C   0  0  0  0  0  0  0  0  0  0  0  0
  142.2800   80.3370  224.1300 C   0  0  0  0  0  0  0  0  0  0  0  0
  142.2170   81.2330  223.1060 C   0  0  0  0  0  0  0  0  0  0  0  0
  141.8110   80.8840  221.8600 C   0  0  0  0  0  0  0  0  0  0  0  0
  141.4510   79.5840  221.6220 C   0  0  0  0  0  0  0  0  0  0  0  0
  139.9570   71.1180  223.6210 C   0  0  0  0  0  0  0  0  0  0  0  0
  139.3300   69.8990  223.4970 C   0  0  0  0  0  0  0  0  0  0  0  0
  139.2820   69.0780  224.6150 C   0  0  0  0  0  0  0  0  0  0  0  0
  139.8320   69.4340  225.8280 C   0  0  0  0  0  0  0  0  0  0  0  0
  139.7990   68.6470  226.9420 C   0  0  0  0  0  0  0  0  0  0  0  0
  140.3770   69.0940  228.1100 C   0  0  0  0  0  0  0  0  0  0  0  0
  140.3850   68.3690  229.2550 F   0  0  0  0  0  0  0  0  0  0  0  0
  140.9970   70.3400  228.1690 C   0  0  0  0  0  0  0  0  0  0  0  0
  141.0410   71.1500  227.0520 C   0  0  0  0  0  0  0  0  0  0  0  0
  140.4490   70.6630  225.9040 C   0  0  0  0  0  0  0  0  0  0  0  0
  140.4850   71.4440  224.8140 N   0  0  0  0  0  0  0  0  0  0  0  0
  140.2600   70.4840  221.0820 H   0  0  0  0  0  0  0  0  0  0  0  0
  140.5209   71.7780  219.1472 H   0  0  0  0  0  0  0  0  0  0  0  0
  139.3570   72.9376  219.9538 H   0  0  0  0  0  0  0  0  0  0  0  0
  140.3537   74.3618  217.8733 H   0  0  0  0  0  0  0  0  0  0  0  0
  139.5029   75.5872  218.7274 H   0  0  0  0  0  0  0  0  0  0  0  0
  142.4809   75.7128  217.7008 H   0  0  0  0  0  0  0  0  0  0  0  0
  141.2583   76.7891  217.1577 H   0  0  0  0  0  0  0  0  0  0  0  0
  140.9576   77.7264  219.5244 H   0  0  0  0  0  0  0  0  0  0  0  0
  143.5010   77.5150  220.0020 H   0  0  0  0  0  0  0  0  0  0  0  0
  142.7457   75.8405  220.9216 H   0  0  0  0  0  0  0  0  0  0  0  0
  139.8156   76.6272  221.0874 H   0  0  0  0  0  0  0  0  0  0  0  0
  140.7204   75.5015  222.2407 H   0  0  0  0  0  0  0  0  0  0  0  0
  141.9642   78.3015  224.6978 H   0  0  0  0  0  0  0  0  0  0  0  0
  142.6124   80.6460  225.1320 H   0  0  0  0  0  0  0  0  0  0  0  0
  142.5058   82.2772  223.2966 H   0  0  0  0  0  0  0  0  0  0  0  0
  141.7715   81.6320  221.0544 H   0  0  0  0  0  0  0  0  0  0  0  0
  141.1207   79.3014  220.6115 H   0  0  0  0  0  0  0  0  0  0  0  0
  138.8815   69.5856  222.5427 H   0  0  0  0  0  0  0  0  0  0  0  0
  138.7836   68.1011  224.5296 H   0  0  0  0  0  0  0  0  0  0  0  0
  139.3134   67.6606  226.9078 H   0  0  0  0  0  0  0  0  0  0  0  0
  141.4537   70.6801  229.1101 H   0  0  0  0  0  0  0  0  0  0  0  0
  141.5252   72.1374  227.0756 H   0  0  0  0  0  0  0  0  0  0  0  0
  1  2  2  0
  2  3  1  0
  3  4  1  0
  4  5  1  0
  5  6  2  0
  5  7  1  0
  7  8  1  0
  8  9  1  0
  9 10  1  0
 10 11  1  0
 10 12  1  0
 12 13  1  0
 13 14  1  0
 14 15  1  0
 15 16  2  0
 16 17  1  0
 17 18  2  0
 18 19  1  0
 19 20  2  0
  2 21  1  0
 21 22  2  0
 22 23  1  0
 23 24  2  0
 24 25  1  0
 25 26  2  0
 26 27  1  0
 26 28  1  0
 28 29  2  0
 29 30  1  0
 30 31  2  0
 12  7  1  0
 20 15  1  0
 31 21  1  0
 30 24  1  0
  3 32  1  0
  4 33  1  0
  4 34  1  0
  8 35  1  0
  8 36  1  0
  9 37  1  0
  9 38  1  0
 10 39  1  1
 11 40  1  0
 12 41  1  1
 13 42  1  0
 13 43  1  0
 16 44  1  0
 17 45  1  0
 18 46  1  0
 19 47  1  0
 20 48  1  0
 22 49  1  0
 23 50  1  0
 25 51  1  0
 28 52  1  0
 29 53  1  0
M  END
>  <smiles>  (41) 
O=C(NCC(=O)N1CC[C@H](O)[C@H]1COc1ccccc1)c1ccc2cc(F)ccc2n1

>  <score_type>  (41) 
oracle

>  <origin>  (41) 
autodockgpu

>  <m_score__min__energy>  (41) 
-8.8599999999999994

>  <m_primary>  (41) 
energy

>  <rmsd>  (41) 
2.2200501756059454

>  <m_score__min__rmsd>  (41) 
2.2200501756059454

>  <meeko>  (41) 
{"free_energy": -8.08, "intermolecular_energy": -10.47, "internal_energy": -1.33, "cluster_size": 20, "cluster_id": 1, "rank_in_cluster": 13}

>  <energy>  (41) 
-7.1

>  <cluster_rmsd>  (41) 
1.2

>  <cluster>  (41) 
6

$$$$

     RDKit          3D

 53 56  0  0  0  0  0  0  0  0999 V2000
  138.3960   75.3540  221.7680 O   0  0  0  0  0  0  0  0  0  0  0  0
  139.5820   75.7560  221.8120 C   0  0  0  0  0  0  0  0  0  0  0  0
  140.6620   74.9600  221.3690 N   0  0  0  0  0  0  0  0  0  0  0  0
  140.4600   73.6370  220.8390 C   0  0  0  0  0  0  0  0  0  0  0  0
  140.1490   72.6340  221.8510 C   0  0  0  0  0  0  0  0  0  0  0  0
  141.1030   72.2000  222.5790 O   0  0  0  0  0  0  0  0  0  0  0  0
  138.8730   72.0790  222.1120 N   0  0  0  0  0  0  0  0  0  0  0  0
  137.8310   72.0200  221.0720 C   0  0  0  0  0  0  0  0  0  0  0  0
  136.6510   72.5330  221.9200 C   0  0  0  0  0  0  0  0  0  0  0  0
  136.8380   71.5920  223.1250 C   0  0  2  0  0  0  0  0  0  0  0  0
  136.1250   72.0100  224.2110 O   0  0  0  0  0  0  0  0  0  0  0  0
  138.3350   71.4990  223.3410 C   0  0  1  0  0  0  0  0  0  0  0  0
  138.7800   70.0280  223.4240 C   0  0  0  0  0  0  0  0  0  0  0  0
  139.4890   69.6950  224.4800 O   0  0  0  0  0  0  0  0  0  0  0  0
  139.9910   69.7820  225.6760 C   0  0  0  0  0  0  0  0  0  0  0  0
  140.4210   70.9420  226.3030 C   0  0  0  0  0  0  0  0  0  0  0  0
  140.9470   70.9580  227.5790 C   0  0  0  0  0  0  0  0  0  0  0  0
  141.0440   69.7760  228.2490 C   0  0  0  0  0  0  0  0  0  0  0  0
  140.6450   68.5990  227.7050 C   0  0  0  0  0  0  0  0  0  0  0  0
  140.1260   68.5980  226.4370 C   0  0  0  0  0  0  0  0  0  0  0  0
  139.8510   77.1030  222.3460 C   0  0  0  0  0  0  0  0  0  0  0  0
  138.8310   77.9160  222.7840 C   0  0  0  0  0  0  0  0  0  0  0  0
  139.1680   79.1710  223.2730 C   0  0  0  0  0  0  0  0  0  0  0  0
  140.4680   79.6250  223.3330 C   0  0  0  0  0  0  0  0  0  0  0  0
  140.8260   80.8540  223.8080 C   0  0  0  0  0  0  0  0  0  0  0  0
  142.1550   81.2160  223.8270 C   0  0  0  0  0  0  0  0  0  0  0  0
  142.5880   82.4170  224.2830 F   0  0  0  0  0  0  0  0  0  0  0  0
  143.1400   80.3440  223.3670 C   0  0  0  0  0  0  0  0  0  0  0  0
  142.7960   79.0970  222.8830 C   0  0  0  0  0  0  0  0  0  0  0  0
  141.4540   78.7760  222.8830 C   0  0  0  0  0  0  0  0  0  0  0  0
  141.1100   77.5670  222.4130 N   0  0  0  0  0  0  0  0  0  0  0  0
  141.6290   75.3810  221.4440 H   0  0  0  0  0  0  0  0  0  0  0  0
  139.6266   73.6751  220.1221 H   0  0  0  0  0  0  0  0  0  0  0  0
  141.4079   73.3335  220.3707 H   0  0  0  0  0  0  0  0  0  0  0  0
  138.0525   72.6827  220.2224 H   0  0  0  0  0  0  0  0  0  0  0  0
  137.6879   71.0429  220.5874 H   0  0  0  0  0  0  0  0  0  0  0  0
  136.7636   73.5920  222.1954 H   0  0  0  0  0  0  0  0  0  0  0  0
  135.6624   72.5141  221.4381 H   0  0  0  0  0  0  0  0  0  0  0  0
  136.4335   70.5857  222.9416 H   0  0  0  0  0  0  0  0  0  0  0  0
  136.5590   72.8010  224.6050 H   0  0  0  0  0  0  0  0  0  0  0  0
  138.6642   71.9944  224.2663 H   0  0  0  0  0  0  0  0  0  0  0  0
  137.8751   69.4026  223.4164 H   0  0  0  0  0  0  0  0  0  0  0  0
  139.4450   69.8724  222.5617 H   0  0  0  0  0  0  0  0  0  0  0  0
  140.3390   71.8939  225.7578 H   0  0  0  0  0  0  0  0  0  0  0  0
  141.2786   71.8991  228.0420 H   0  0  0  0  0  0  0  0  0  0  0  0
  141.4606   69.7758  229.2671 H   0  0  0  0  0  0  0  0  0  0  0  0
  140.7366   67.6611  228.2725 H   0  0  0  0  0  0  0  0  0  0  0  0
  139.8033   67.6434  225.9959 H   0  0  0  0  0  0  0  0  0  0  0  0
  137.7833   77.5827  222.7479 H   0  0  0  0  0  0  0  0  0  0  0  0
  138.3629   79.8313  223.6278 H   0  0  0  0  0  0  0  0  0  0  0  0
  140.0576   81.5511  224.1734 H   0  0  0  0  0  0  0  0  0  0  0  0
  144.1963   80.6503  223.3895 H   0  0  0  0  0  0  0  0  0  0  0  0
  143.5564   78.3926  222.5147 H   0  0  0  0  0  0  0  0  0  0  0  0
  1  2  2  0
  2  3  1  0
  3  4  1  0
  4  5  1  0
  5  6  2  0
  5  7  1  0
  7  8  1  0
  8  9  1  0
  9 10  1  0
 10 11  1  0
 10 12  1  0
 12 13  1  0
 13 14  1  0
 14 15  1  0
 15 16  2  0
 16 17  1  0
 17 18  2  0
 18 19  1  0
 19 20  2  0
  2 21  1  0
 21 22  2  0
 22 23  1  0
 23 24  2  0
 24 25  1  0
 25 26  2  0
 26 27  1  0
 26 28  1  0
 28 29  2  0
 29 30  1  0
 30 31  2  0
 12  7  1  0
 20 15  1  0
 31 21  1  0
 30 24  1  0
  3 32  1  0
  4 33  1  0
  4 34  1  0
  8 35  1  0
  8 36  1  0
  9 37  1  0
  9 38  1  0
 10 39  1  6
 11 40  1  0
 12 41  1  1
 13 42  1  0
 13 43  1  0
 16 44  1  0
 17 45  1  0
 18 46  1  0
 19 47  1  0
 20 48  1  0
 22 49  1  0
 23 50  1  0
 25 51  1  0
 28 52  1  0
 29 53  1  0
M  END
>  <smiles>  (42) 
O=C(NCC(=O)N1CC[C@H](O)[C@H]1COc1ccccc1)c1ccc2cc(F)ccc2n1

>  <score_type>  (42) 
oracle

>  <origin>  (42) 
autodockgpu

>  <m_score__min__energy>  (42) 
-8.8599999999999994

>  <m_primary>  (42) 
energy

>  <rmsd>  (42) 
8.392194693950705

>  <m_score__min__rmsd>  (42) 
8.392194693950705

>  <meeko>  (42) 
{"free_energy": -7.88, "intermolecular_energy": -10.26, "internal_energy": -1.75, "cluster_size": 3, "cluster_id": 4, "rank_in_cluster": 1}

>  <energy>  (42) 
-6.89

>  <cluster_rmsd>  (42) 
1.33

>  <cluster>  (42) 
6

$$$$

     RDKit          3D

 53 56  0  0  0  0  0  0  0  0999 V2000
  139.0410   71.0890  221.1400 O   0  0  0  0  0  0  0  0  0  0  0  0
  139.3310   71.6150  222.2390 C   0  0  0  0  0  0  0  0  0  0  0  0
  139.5200   73.0080  222.3780 N   0  0  0  0  0  0  0  0  0  0  0  0
  139.3870   73.9060  221.2600 C   0  0  0  0  0  0  0  0  0  0  0  0
  140.5170   74.8140  221.0920 C   0  0  0  0  0  0  0  0  0  0  0  0
  141.0340   75.3290  222.1390 O   0  0  0  0  0  0  0  0  0  0  0  0
  141.1080   75.1930  219.8630 N   0  0  0  0  0  0  0  0  0  0  0  0
  140.3390   75.1890  218.6050 C   0  0  0  0  0  0  0  0  0  0  0  0
  141.3840   74.4860  217.7170 C   0  0  0  0  0  0  0  0  0  0  0  0
  142.5940   75.3660  218.0840 C   0  0  2  0  0  0  0  0  0  0  0  0
  143.7710   74.7990  217.6920 O   0  0  0  0  0  0  0  0  0  0  0  0
  142.4720   75.6270  219.5720 C   0  0  1  0  0  0  0  0  0  0  0  0
  142.5820   77.1320  219.8690 C   0  0  0  0  0  0  0  0  0  0  0  0
  141.7870   77.5980  220.8060 O   0  0  0  0  0  0  0  0  0  0  0  0
  141.3770   78.3620  221.7750 C   0  0  0  0  0  0  0  0  0  0  0  0
  140.1490   78.2860  222.4150 C   0  0  0  0  0  0  0  0  0  0  0  0
  139.7800   79.1350  223.4400 C   0  0  0  0  0  0  0  0  0  0  0  0
  140.6700   80.0870  223.8370 C   0  0  0  0  0  0  0  0  0  0  0  0
  141.8900   80.2240  223.2610 C   0  0  0  0  0  0  0  0  0  0  0  0
  142.2420   79.3770  222.2450 C   0  0  0  0  0  0  0  0  0  0  0  0
  139.4800   70.7460  223.4190 C   0  0  0  0  0  0  0  0  0  0  0  0
  139.0520   69.4380  223.4050 C   0  0  0  0  0  0  0  0  0  0  0  0
  139.2290   68.6860  224.5580 C   0  0  0  0  0  0  0  0  0  0  0  0
  139.8090   69.1950  225.7010 C   0  0  0  0  0  0  0  0  0  0  0  0
  139.9940   68.4780  226.8470 C   0  0  0  0  0  0  0  0  0  0  0  0
  140.5850   69.0780  227.9380 C   0  0  0  0  0  0  0  0  0  0  0  0
  140.8020   68.4310  229.1090 F   0  0  0  0  0  0  0  0  0  0  0  0
  140.9960   70.4080  227.8870 C   0  0  0  0  0  0  0  0  0  0  0  0
  140.8170   71.1480  226.7360 C   0  0  0  0  0  0  0  0  0  0  0  0
  140.2220   70.5090  225.6680 C   0  0  0  0  0  0  0  0  0  0  0  0
  140.0420   71.2200  224.5450 N   0  0  0  0  0  0  0  0  0  0  0  0
  139.7630   73.3650  223.3430 H   0  0  0  0  0  0  0  0  0  0  0  0
  139.2862   73.3056  220.3438 H   0  0  0  0  0  0  0  0  0  0  0  0
  138.5027   74.5302  221.4559 H   0  0  0  0  0  0  0  0  0  0  0  0
  139.4067   74.6112  218.6884 H   0  0  0  0  0  0  0  0  0  0  0  0
  139.9864   76.1692  218.2517 H   0  0  0  0  0  0  0  0  0  0  0  0
  141.5320   73.4333  217.9997 H   0  0  0  0  0  0  0  0  0  0  0  0
  141.1422   74.4156  216.6462 H   0  0  0  0  0  0  0  0  0  0  0  0
  142.5976   76.3258  217.5466 H   0  0  0  0  0  0  0  0  0  0  0  0
  144.5190   75.3910  217.9380 H   0  0  0  0  0  0  0  0  0  0  0  0
  143.2512   75.1194  220.1595 H   0  0  0  0  0  0  0  0  0  0  0  0
  143.6183   77.3390  220.1745 H   0  0  0  0  0  0  0  0  0  0  0  0
  142.2735   77.6383  218.9425 H   0  0  0  0  0  0  0  0  0  0  0  0
  139.4358   77.5137  222.0912 H   0  0  0  0  0  0  0  0  0  0  0  0
  138.7954   79.0451  223.9221 H   0  0  0  0  0  0  0  0  0  0  0  0
  140.3891   80.7685  224.6535 H   0  0  0  0  0  0  0  0  0  0  0  0
  142.5858   81.0035  223.6048 H   0  0  0  0  0  0  0  0  0  0  0  0
  143.2316   79.4898  221.7782 H   0  0  0  0  0  0  0  0  0  0  0  0
  138.5849   69.0028  222.5092 H   0  0  0  0  0  0  0  0  0  0  0  0
  138.8921   67.6388  224.5602 H   0  0  0  0  0  0  0  0  0  0  0  0
  139.6733   67.4271  226.8999 H   0  0  0  0  0  0  0  0  0  0  0  0
  141.4652   70.8704  228.7679 H   0  0  0  0  0  0  0  0  0  0  0  0
  141.1343   72.1994  226.6730 H   0  0  0  0  0  0  0  0  0  0  0  0
  1  2  2  0
  2  3  1  0
  3  4  1  0
  4  5  1  0
  5  6  2  0
  5  7  1  0
  7  8  1  0
  8  9  1  0
  9 10  1  0
 10 11  1  0
 10 12  1  0
 12 13  1  0
 13 14  1  0
 14 15  1  0
 15 16  2  0
 16 17  1  0
 17 18  2  0
 18 19  1  0
 19 20  2  0
  2 21  1  0
 21 22  2  0
 22 23  1  0
 23 24  2  0
 24 25  1  0
 25 26  2  0
 26 27  1  0
 26 28  1  0
 28 29  2  0
 29 30  1  0
 30 31  2  0
 12  7  1  0
 20 15  1  0
 31 21  1  0
 30 24  1  0
  3 32  1  0
  4 33  1  0
  4 34  1  0
  8 35  1  0
  8 36  1  0
  9 37  1  0
  9 38  1  0
 10 39  1  6
 11 40  1  0
 12 41  1  1
 13 42  1  0
 13 43  1  0
 16 44  1  0
 17 45  1  0
 18 46  1  0
 19 47  1  0
 20 48  1  0
 22 49  1  0
 23 50  1  0
 25 51  1  0
 28 52  1  0
 29 53  1  0
M  END
>  <smiles>  (43) 
O=C(NCC(=O)N1CC[C@H](O)[C@H]1COc1ccccc1)c1ccc2cc(F)ccc2n1

>  <score_type>  (43) 
oracle

>  <origin>  (43) 
autodockgpu

>  <m_score__min__energy>  (43) 
-8.8599999999999994

>  <m_primary>  (43) 
energy

>  <rmsd>  (43) 
1.4939209602937011

>  <m_score__min__rmsd>  (43) 
1.4939209602937011

>  <meeko>  (43) 
{"free_energy": -7.78, "intermolecular_energy": -10.16, "internal_energy": -1.78, "cluster_size": 20, "cluster_id": 1, "rank_in_cluster": 17}

>  <energy>  (43) 
-7.4

>  <cluster_rmsd>  (43) 
0.0

>  <cluster>  (43) 
7

$$$$

     RDKit          3D

 53 56  0  0  0  0  0  0  0  0999 V2000
  140.9900   73.3000  222.4750 O   0  0  0  0  0  0  0  0  0  0  0  0
  139.9490   72.6330  222.6740 C   0  0  0  0  0  0  0  0  0  0  0  0
  138.7640   72.8510  221.9360 N   0  0  0  0  0  0  0  0  0  0  0  0
  138.6870   73.8560  220.9080 C   0  0  0  0  0  0  0  0  0  0  0  0
  139.8470   73.8900  220.0240 C   0  0  0  0  0  0  0  0  0  0  0  0
  140.2040   72.8020  219.4610 O   0  0  0  0  0  0  0  0  0  0  0  0
  140.6350   75.0260  219.7240 N   0  0  0  0  0  0  0  0  0  0  0  0
  140.7580   75.5360  218.3460 C   0  0  0  0  0  0  0  0  0  0  0  0
  142.2850   75.7420  218.3280 C   0  0  0  0  0  0  0  0  0  0  0  0
  142.4030   76.5330  219.6440 C   0  0  2  0  0  0  0  0  0  0  0  0
  143.6930   76.6010  220.0820 O   0  0  0  0  0  0  0  0  0  0  0  0
  141.4350   75.8740  220.6050 C   0  0  1  0  0  0  0  0  0  0  0  0
  140.5100   76.9230  221.2470 C   0  0  0  0  0  0  0  0  0  0  0  0
  141.0680   77.7310  222.1210 O   0  0  0  0  0  0  0  0  0  0  0  0
  141.4680   78.8480  222.6520 C   0  0  0  0  0  0  0  0  0  0  0  0
  142.7760   79.3050  222.7140 C   0  0  0  0  0  0  0  0  0  0  0  0
  143.1280   80.5060  223.2970 C   0  0  0  0  0  0  0  0  0  0  0  0
  142.1390   81.2740  223.8320 C   0  0  0  0  0  0  0  0  0  0  0  0
  140.8360   80.8980  223.8110 C   0  0  0  0  0  0  0  0  0  0  0  0
  140.5020   79.7030  223.2310 C   0  0  0  0  0  0  0  0  0  0  0  0
  139.9680   71.5910  223.7150 C   0  0  0  0  0  0  0  0  0  0  0  0
  139.4980   70.3210  223.4660 C   0  0  0  0  0  0  0  0  0  0  0  0
  139.5510   69.3970  224.5000 C   0  0  0  0  0  0  0  0  0  0  0  0
  140.0490   69.7000  225.7490 C   0  0  0  0  0  0  0  0  0  0  0  0
  140.1120   68.8110  226.7830 C   0  0  0  0  0  0  0  0  0  0  0  0
  140.6280   69.2120  227.9960 C   0  0  0  0  0  0  0  0  0  0  0  0
  140.7230   68.3870  229.0670 F   0  0  0  0  0  0  0  0  0  0  0  0
  141.0860   70.5140  228.1830 C   0  0  0  0  0  0  0  0  0  0  0  0
  141.0310   71.4270  227.1480 C   0  0  0  0  0  0  0  0  0  0  0  0
  140.5070   70.9830  225.9520 C   0  0  0  0  0  0  0  0  0  0  0  0
  140.4480   71.8640  224.9410 N   0  0  0  0  0  0  0  0  0  0  0  0
  137.9330   72.2420  222.1730 H   0  0  0  0  0  0  0  0  0  0  0  0
  137.7929   73.6593  220.2982 H   0  0  0  0  0  0  0  0  0  0  0  0
  138.6461   74.8301  221.4174 H   0  0  0  0  0  0  0  0  0  0  0  0
  140.4282   74.7996  217.5984 H   0  0  0  0  0  0  0  0  0  0  0  0
  140.1492   76.4192  218.1024 H   0  0  0  0  0  0  0  0  0  0  0  0
  142.8354   74.7902  218.3619 H   0  0  0  0  0  0  0  0  0  0  0  0
  142.6987   76.2270  217.4315 H   0  0  0  0  0  0  0  0  0  0  0  0
  142.1318   77.5924  219.5250 H   0  0  0  0  0  0  0  0  0  0  0  0
  143.7590   77.2580  220.8130 H   0  0  0  0  0  0  0  0  0  0  0  0
  141.9425   75.3398  221.4218 H   0  0  0  0  0  0  0  0  0  0  0  0
  140.0908   77.5404  220.4389 H   0  0  0  0  0  0  0  0  0  0  0  0
  139.7614   76.3489  221.8126 H   0  0  0  0  0  0  0  0  0  0  0  0
  143.5703   78.6812  222.2782 H   0  0  0  0  0  0  0  0  0  0  0  0
  144.1777   80.8332  223.3284 H   0  0  0  0  0  0  0  0  0  0  0  0
  142.4064   82.2339  224.2980 H   0  0  0  0  0  0  0  0  0  0  0  0
  140.0608   81.5417  224.2522 H   0  0  0  0  0  0  0  0  0  0  0  0
  139.4453   79.3977  223.2151 H   0  0  0  0  0  0  0  0  0  0  0  0
  139.0939   70.0478  222.4801 H   0  0  0  0  0  0  0  0  0  0  0  0
  139.1794   68.3784  224.3148 H   0  0  0  0  0  0  0  0  0  0  0  0
  139.7527   67.7800  226.6485 H   0  0  0  0  0  0  0  0  0  0  0  0
  141.4932   70.8165  229.1591 H   0  0  0  0  0  0  0  0  0  0  0  0
  141.3884   72.4599  227.2718 H   0  0  0  0  0  0  0  0  0  0  0  0
  1  2  2  0
  2  3  1  0
  3  4  1  0
  4  5  1  0
  5  6  2  0
  5  7  1  0
  7  8  1  0
  8  9  1  0
  9 10  1  0
 10 11  1  0
 10 12  1  0
 12 13  1  0
 13 14  1  0
 14 15  1  0
 15 16  2  0
 16 17  1  0
 17 18  2  0
 18 19  1  0
 19 20  2  0
  2 21  1  0
 21 22  2  0
 22 23  1  0
 23 24  2  0
 24 25  1  0
 25 26  2  0
 26 27  1  0
 26 28  1  0
 28 29  2  0
 29 30  1  0
 30 31  2  0
 12  7  1  0
 20 15  1  0
 31 21  1  0
 30 24  1  0
  3 32  1  0
  4 33  1  0
  4 34  1  0
  8 35  1  0
  8 36  1  0
  9 37  1  0
  9 38  1  0
 10 39  1  6
 11 40  1  0
 12 41  1  1
 13 42  1  0
 13 43  1  0
 16 44  1  0
 17 45  1  0
 18 46  1  0
 19 47  1  0
 20 48  1  0
 22 49  1  0
 23 50  1  0
 25 51  1  0
 28 52  1  0
 29 53  1  0
M  END
>  <smiles>  (44) 
O=C(NCC(=O)N1CC[C@H](O)[C@H]1COc1ccccc1)c1ccc2cc(F)ccc2n1

>  <score_type>  (44) 
oracle

>  <origin>  (44) 
autodockgpu

>  <m_score__min__energy>  (44) 
-8.8599999999999994

>  <m_primary>  (44) 
energy

>  <rmsd>  (44) 
2.1393091114259057

>  <m_score__min__rmsd>  (44) 
2.1393091114259057

>  <meeko>  (44) 
{"free_energy": -8.19, "intermolecular_energy": -10.58, "internal_energy": -1.23, "cluster_size": 20, "cluster_id": 1, "rank_in_cluster": 10}

>  <energy>  (44) 
-7.33

>  <cluster_rmsd>  (44) 
0.35

>  <cluster>  (44) 
7

$$$$

     RDKit          3D

 53 56  0  0  0  0  0  0  0  0999 V2000
  139.5390   71.4920  221.0350 O   0  0  0  0  0  0  0  0  0  0  0  0
  139.5120   72.0240  222.1690 C   0  0  0  0  0  0  0  0  0  0  0  0
  139.3640   73.4190  222.3410 N   0  0  0  0  0  0  0  0  0  0  0  0
  139.2330   74.3100  221.2180 C   0  0  0  0  0  0  0  0  0  0  0  0
  139.1300   75.7180  221.5870 C   0  0  0  0  0  0  0  0  0  0  0  0
  137.9940   76.1550  221.9720 O   0  0  0  0  0  0  0  0  0  0  0  0
  140.1780   76.6680  221.5600 N   0  0  0  0  0  0  0  0  0  0  0  0
  141.0650   76.8690  222.7200 C   0  0  0  0  0  0  0  0  0  0  0  0
  141.0460   78.4100  222.7410 C   0  0  0  0  0  0  0  0  0  0  0  0
  141.3670   78.6410  221.2530 C   0  0  2  0  0  0  0  0  0  0  0  0
  141.1110   79.9260  220.8720 O   0  0  0  0  0  0  0  0  0  0  0  0
  140.5890   77.5830  220.4980 C   0  0  1  0  0  0  0  0  0  0  0  0
  141.5090   76.8240  219.5250 C   0  0  0  0  0  0  0  0  0  0  0  0
  142.3820   76.0070  220.0710 O   0  0  0  0  0  0  0  0  0  0  0  0
  142.9890   74.8890  220.3370 C   0  0  0  0  0  0  0  0  0  0  0  0
  142.3870   73.6580  220.5490 C   0  0  0  0  0  0  0  0  0  0  0  0
  143.0990   72.5090  220.8300 C   0  0  0  0  0  0  0  0  0  0  0  0
  144.4560   72.5960  220.9010 C   0  0  0  0  0  0  0  0  0  0  0  0
  145.1190   73.7630  220.7070 C   0  0  0  0  0  0  0  0  0  0  0  0
  144.4000   74.8950  220.4300 C   0  0  0  0  0  0  0  0  0  0  0  0
  139.6410   71.1610  223.3560 C   0  0  0  0  0  0  0  0  0  0  0  0
  139.2640   69.8380  223.3250 C   0  0  0  0  0  0  0  0  0  0  0  0
  139.4180   69.0930  224.4860 C   0  0  0  0  0  0  0  0  0  0  0  0
  139.9270   69.6230  225.6520 C   0  0  0  0  0  0  0  0  0  0  0  0
  140.0880   68.9130  226.8060 C   0  0  0  0  0  0  0  0  0  0  0  0
  140.6060   69.5350  227.9220 C   0  0  0  0  0  0  0  0  0  0  0  0
  140.7950   68.8970  229.1030 F   0  0  0  0  0  0  0  0  0  0  0  0
  140.9680   70.8800  227.8870 C   0  0  0  0  0  0  0  0  0  0  0  0
  140.8130   71.6130  226.7280 C   0  0  0  0  0  0  0  0  0  0  0  0
  140.2900   70.9520  225.6360 C   0  0  0  0  0  0  0  0  0  0  0  0
  140.1340   71.6560  224.5040 N   0  0  0  0  0  0  0  0  0  0  0  0
  139.3510   73.7800  223.3340 H   0  0  0  0  0  0  0  0  0  0  0  0
  140.1149   74.1851  220.5725 H   0  0  0  0  0  0  0  0  0  0  0  0
  138.2947   74.0448  220.7088 H   0  0  0  0  0  0  0  0  0  0  0  0
  140.6503   76.4347  223.6417 H   0  0  0  0  0  0  0  0  0  0  0  0
  142.0577   76.3996  222.6554 H   0  0  0  0  0  0  0  0  0  0  0  0
  140.0618   78.8119  223.0234 H   0  0  0  0  0  0  0  0  0  0  0  0
  141.7194   78.8940  223.4637 H   0  0  0  0  0  0  0  0  0  0  0  0
  142.4387   78.5311  221.0306 H   0  0  0  0  0  0  0  0  0  0  0  0
  141.9550   80.3720  220.6280 H   0  0  0  0  0  0  0  0  0  0  0  0
  139.7618   78.0026  219.9067 H   0  0  0  0  0  0  0  0  0  0  0  0
  140.8710   76.2326  218.8518 H   0  0  0  0  0  0  0  0  0  0  0  0
  142.1054   77.5976  219.0191 H   0  0  0  0  0  0  0  0  0  0  0  0
  141.2904   73.5939  220.4905 H   0  0  0  0  0  0  0  0  0  0  0  0
  142.5845   71.5503  220.9920 H   0  0  0  0  0  0  0  0  0  0  0  0
  145.0349   71.6876  221.1236 H   0  0  0  0  0  0  0  0  0  0  0  0
  146.2165   73.7997  220.7711 H   0  0  0  0  0  0  0  0  0  0  0  0
  144.9385   75.8415  220.2745 H   0  0  0  0  0  0  0  0  0  0  0  0
  138.8540   69.3856  222.4100 H   0  0  0  0  0  0  0  0  0  0  0  0
  139.1210   68.0339  224.4750 H   0  0  0  0  0  0  0  0  0  0  0  0
  139.8061   67.8505  226.8457 H   0  0  0  0  0  0  0  0  0  0  0  0
  141.3793   71.3598  228.7873 H   0  0  0  0  0  0  0  0  0  0  0  0
  141.0936   72.6754  226.6773 H   0  0  0  0  0  0  0  0  0  0  0  0
  1  2  2  0
  2  3  1  0
  3  4  1  0
  4  5  1  0
  5  6  2  0
  5  7  1  0
  7  8  1  0
  8  9  1  0
  9 10  1  0
 10 11  1  0
 10 12  1  0
 12 13  1  0
 13 14  1  0
 14 15  1  0
 15 16  2  0
 16 17  1  0
 17 18  2  0
 18 19  1  0
 19 20  2  0
  2 21  1  0
 21 22  2  0
 22 23  1  0
 23 24  2  0
 24 25  1  0
 25 26  2  0
 26 27  1  0
 26 28  1  0
 28 29  2  0
 29 30  1  0
 30 31  2  0
 12  7  1  0
 20 15  1  0
 31 21  1  0
 30 24  1  0
  3 32  1  0
  4 33  1  0
  4 34  1  0
  8 35  1  0
  8 36  1  0
  9 37  1  0
  9 38  1  0
 10 39  1  1
 11 40  1  0
 12 41  1  6
 13 42  1  0
 13 43  1  0
 16 44  1  0
 17 45  1  0
 18 46  1  0
 19 47  1  0
 20 48  1  0
 22 49  1  0
 23 50  1  0
 25 51  1  0
 28 52  1  0
 29 53  1  0
M  END
>  <smiles>  (45) 
O=C(NCC(=O)N1CC[C@H](O)[C@H]1COc1ccccc1)c1ccc2cc(F)ccc2n1

>  <score_type>  (45) 
oracle

>  <origin>  (45) 
autodockgpu

>  <m_score__min__energy>  (45) 
-8.8599999999999994

>  <m_primary>  (45) 
energy

>  <rmsd>  (45) 
2.9528155384650856

>  <m_score__min__rmsd>  (45) 
2.9528155384650856

>  <meeko>  (45) 
{"free_energy": -7.26, "intermolecular_energy": -9.65, "internal_energy": -2.04, "cluster_size": 7, "cluster_id": 6, "rank_in_cluster": 4}

>  <energy>  (45) 
-7.25

>  <cluster_rmsd>  (45) 
0.0

>  <cluster>  (45) 
8

$$$$

     RDKit          3D

 53 56  0  0  0  0  0  0  0  0999 V2000
  137.3160   77.1360  223.0670 O   0  0  0  0  0  0  0  0  0  0  0  0
  138.1910   77.5720  222.2840 C   0  0  0  0  0  0  0  0  0  0  0  0
  138.9490   76.7160  221.4530 N   0  0  0  0  0  0  0  0  0  0  0  0
  138.7580   75.2890  221.4610 C   0  0  0  0  0  0  0  0  0  0  0  0
  140.0000   74.5240  221.4420 C   0  0  0  0  0  0  0  0  0  0  0  0
  140.1680   73.6310  222.3370 O   0  0  0  0  0  0  0  0  0  0  0  0
  141.0590   74.6760  220.5160 N   0  0  0  0  0  0  0  0  0  0  0  0
  141.1940   73.7880  219.3470 C   0  0  0  0  0  0  0  0  0  0  0  0
  142.7020   73.4990  219.4680 C   0  0  0  0  0  0  0  0  0  0  0  0
  143.1820   74.9550  219.6100 C   0  0  2  0  0  0  0  0  0  0  0  0
  144.4690   75.0240  220.0560 O   0  0  0  0  0  0  0  0  0  0  0  0
  142.1600   75.6370  220.4980 C   0  0  1  0  0  0  0  0  0  0  0  0
  141.6620   76.9400  219.8480 C   0  0  0  0  0  0  0  0  0  0  0  0
  141.5840   77.9890  220.6370 O   0  0  0  0  0  0  0  0  0  0  0  0
  141.8130   78.7440  221.6700 C   0  0  0  0  0  0  0  0  0  0  0  0
  142.3200   80.0350  221.6450 C   0  0  0  0  0  0  0  0  0  0  0  0
  142.5390   80.7800  222.7860 C   0  0  0  0  0  0  0  0  0  0  0  0
  142.2390   80.2160  223.9900 C   0  0  0  0  0  0  0  0  0  0  0  0
  141.7400   78.9590  224.0970 C   0  0  0  0  0  0  0  0  0  0  0  0
  141.5290   78.2310  222.9560 C   0  0  0  0  0  0  0  0  0  0  0  0
  138.4320   79.0240  222.2320 C   0  0  0  0  0  0  0  0  0  0  0  0
  138.1240   79.8400  223.2980 C   0  0  0  0  0  0  0  0  0  0  0  0
  138.3810   81.1980  223.1700 C   0  0  0  0  0  0  0  0  0  0  0  0
  138.9250   81.7510  222.0300 C   0  0  0  0  0  0  0  0  0  0  0  0
  139.1880   83.0820  221.8790 C   0  0  0  0  0  0  0  0  0  0  0  0
  139.7330   83.5380  220.6980 C   0  0  0  0  0  0  0  0  0  0  0  0
  140.0210   84.8440  220.4740 F   0  0  0  0  0  0  0  0  0  0  0  0
  140.0210   82.6590  219.6570 C   0  0  0  0  0  0  0  0  0  0  0  0
  139.7620   81.3090  219.7930 C   0  0  0  0  0  0  0  0  0  0  0  0
  139.2160   80.8960  220.9900 C   0  0  0  0  0  0  0  0  0  0  0  0
  138.9600   79.5860  221.1320 N   0  0  0  0  0  0  0  0  0  0  0  0
  139.6660   77.1710  220.8230 H   0  0  0  0  0  0  0  0  0  0  0  0
  138.1998   75.0198  222.3698 H   0  0  0  0  0  0  0  0  0  0  0  0
  138.2140   75.0356  220.5391 H   0  0  0  0  0  0  0  0  0  0  0  0
  140.5862   72.8763  219.4443 H   0  0  0  0  0  0  0  0  0  0  0  0
  140.8583   74.2029  218.3851 H   0  0  0  0  0  0  0  0  0  0  0  0
  142.9412   72.8921  220.3537 H   0  0  0  0  0  0  0  0  0  0  0  0
  143.1517   72.9177  218.6495 H   0  0  0  0  0  0  0  0  0  0  0  0
  143.2318   75.4790  218.6441 H   0  0  0  0  0  0  0  0  0  0  0  0
  145.0870   74.9130  219.2970 H   0  0  0  0  0  0  0  0  0  0  0  0
  142.5608   75.8965  221.4890 H   0  0  0  0  0  0  0  0  0  0  0  0
  142.3489   77.1888  219.0257 H   0  0  0  0  0  0  0  0  0  0  0  0
  140.6297   76.7341  219.5288 H   0  0  0  0  0  0  0  0  0  0  0  0
  142.5586   80.4859  220.6705 H   0  0  0  0  0  0  0  0  0  0  0  0
  142.9445   81.8007  222.7254 H   0  0  0  0  0  0  0  0  0  0  0  0
  142.4073   80.8003  224.9067 H   0  0  0  0  0  0  0  0  0  0  0  0
  141.5087   78.5314  225.0838 H   0  0  0  0  0  0  0  0  0  0  0  0
  141.1245   77.2118  223.0436 H   0  0  0  0  0  0  0  0  0  0  0  0
  137.6885   79.4289  224.2207 H   0  0  0  0  0  0  0  0  0  0  0  0
  138.1405   81.8613  224.0139 H   0  0  0  0  0  0  0  0  0  0  0  0
  138.9664   83.7860  222.6946 H   0  0  0  0  0  0  0  0  0  0  0  0
  140.4567   83.0414  218.7222 H   0  0  0  0  0  0  0  0  0  0  0  0
  139.9811   80.5965  218.9841 H   0  0  0  0  0  0  0  0  0  0  0  0
  1  2  2  0
  2  3  1  0
  3  4  1  0
  4  5  1  0
  5  6  2  0
  5  7  1  0
  7  8  1  0
  8  9  1  0
  9 10  1  0
 10 11  1  0
 10 12  1  0
 12 13  1  0
 13 14  1  0
 14 15  1  0
 15 16  2  0
 16 17  1  0
 17 18  2  0
 18 19  1  0
 19 20  2  0
  2 21  1  0
 21 22  2  0
 22 23  1  0
 23 24  2  0
 24 25  1  0
 25 26  2  0
 26 27  1  0
 26 28  1  0
 28 29  2  0
 29 30  1  0
 30 31  2  0
 12  7  1  0
 20 15  1  0
 31 21  1  0
 30 24  1  0
  3 32  1  0
  4 33  1  0
  4 34  1  0
  8 35  1  0
  8 36  1  0
  9 37  1  0
  9 38  1  0
 10 39  1  6
 11 40  1  0
 12 41  1  1
 13 42  1  0
 13 43  1  0
 16 44  1  0
 17 45  1  0
 18 46  1  0
 19 47  1  0
 20 48  1  0
 22 49  1  0
 23 50  1  0
 25 51  1  0
 28 52  1  0
 29 53  1  0
M  END
>  <smiles>  (46) 
O=C(NCC(=O)N1CC[C@H](O)[C@H]1COc1ccccc1)c1ccc2cc(F)ccc2n1

>  <score_type>  (46) 
oracle

>  <origin>  (46) 
autodockgpu

>  <m_score__min__energy>  (46) 
-8.8599999999999994

>  <m_primary>  (46) 
energy

>  <rmsd>  (46) 
9.048263392557924

>  <m_score__min__rmsd>  (46) 
9.048263392557924

>  <meeko>  (46) 
{"free_energy": -5.42, "intermolecular_energy": -7.81, "internal_energy": -3.67, "cluster_size": 1, "cluster_id": 11, "rank_in_cluster": 1}

>  <energy>  (46) 
-6.19

>  <cluster_rmsd>  (46) 
0.0

>  <cluster>  (46) 
9

$$$$

     RDKit          3D

 53 56  0  0  0  0  0  0  0  0999 V2000
  139.1720   74.2650  222.3560 O   0  0  0  0  0  0  0  0  0  0  0  0
  140.0400   75.0060  221.8390 C   0  0  0  0  0  0  0  0  0  0  0  0
  140.9910   74.5190  220.9150 N   0  0  0  0  0  0  0  0  0  0  0  0
  141.0150   73.1370  220.5120 C   0  0  0  0  0  0  0  0  0  0  0  0
  141.7870   72.8860  219.2990 C   0  0  0  0  0  0  0  0  0  0  0  0
  141.1820   72.3810  218.2960 O   0  0  0  0  0  0  0  0  0  0  0  0
  143.1660   73.1490  219.1190 N   0  0  0  0  0  0  0  0  0  0  0  0
  143.7720   73.1920  217.7760 C   0  0  0  0  0  0  0  0  0  0  0  0
  145.0200   72.3380  218.0750 C   0  0  0  0  0  0  0  0  0  0  0  0
  145.4780   73.0800  219.3450 C   0  0  2  0  0  0  0  0  0  0  0  0
  146.4040   72.3630  220.0450 O   0  0  0  0  0  0  0  0  0  0  0  0
  144.2100   73.4060  220.1080 C   0  0  1  0  0  0  0  0  0  0  0  0
  144.1720   74.8970  220.4840 C   0  0  0  0  0  0  0  0  0  0  0  0
  143.4020   75.6630  219.7440 O   0  0  0  0  0  0  0  0  0  0  0  0
  143.0790   76.5740  218.8740 C   0  0  0  0  0  0  0  0  0  0  0  0
  143.4010   76.5690  217.5250 C   0  0  0  0  0  0  0  0  0  0  0  0
  143.0240   77.5750  216.6580 C   0  0  0  0  0  0  0  0  0  0  0  0
  142.3020   78.6170  217.1570 C   0  0  0  0  0  0  0  0  0  0  0  0
  141.9490   78.6940  218.4640 C   0  0  0  0  0  0  0  0  0  0  0  0
  142.3300   77.6890  219.3130 C   0  0  0  0  0  0  0  0  0  0  0  0
  140.0640   76.4310  222.2150 C   0  0  0  0  0  0  0  0  0  0  0  0
  138.9320   77.0740  222.6600 C   0  0  0  0  0  0  0  0  0  0  0  0
  139.0390   78.4170  222.9930 C   0  0  0  0  0  0  0  0  0  0  0  0
  140.2210   79.1200  222.8950 C   0  0  0  0  0  0  0  0  0  0  0  0
  140.3530   80.4400  223.2160 C   0  0  0  0  0  0  0  0  0  0  0  0
  141.5790   81.0540  223.0820 C   0  0  0  0  0  0  0  0  0  0  0  0
  141.7880   82.3600  223.3810 F   0  0  0  0  0  0  0  0  0  0  0  0
  142.6880   80.3450  222.6240 C   0  0  0  0  0  0  0  0  0  0  0  0
  142.5730   79.0090  222.2960 C   0  0  0  0  0  0  0  0  0  0  0  0
  141.3270   78.4340  222.4440 C   0  0  0  0  0  0  0  0  0  0  0  0
  141.2050   77.1360  222.1260 N   0  0  0  0  0  0  0  0  0  0  0  0
  141.6860   75.2160  220.5300 H   0  0  0  0  0  0  0  0  0  0  0  0
  141.4533   72.5458  221.3295 H   0  0  0  0  0  0  0  0  0  0  0  0
  139.9757   72.8512  220.2928 H   0  0  0  0  0  0  0  0  0  0  0  0
  143.1263   72.7330  217.0129 H   0  0  0  0  0  0  0  0  0  0  0  0
  143.9608   74.1943  217.3640 H   0  0  0  0  0  0  0  0  0  0  0  0
  144.7686   71.2857  218.2735 H   0  0  0  0  0  0  0  0  0  0  0  0
  145.7601   72.2591  217.2650 H   0  0  0  0  0  0  0  0  0  0  0  0
  146.0145   74.0132  219.1186 H   0  0  0  0  0  0  0  0  0  0  0  0
  145.9560   71.8620  220.7650 H   0  0  0  0  0  0  0  0  0  0  0  0
  144.1130   72.8301  221.0402 H   0  0  0  0  0  0  0  0  0  0  0  0
  143.8202   74.9720  221.5235 H   0  0  0  0  0  0  0  0  0  0  0  0
  145.1956   75.2668  220.3242 H   0  0  0  0  0  0  0  0  0  0  0  0
  143.9835   75.7247  217.1277 H   0  0  0  0  0  0  0  0  0  0  0  0
  143.2990   77.5363  215.5936 H   0  0  0  0  0  0  0  0  0  0  0  0
  141.9946   79.4241  216.4758 H   0  0  0  0  0  0  0  0  0  0  0  0
  141.3663   79.5495  218.8363 H   0  0  0  0  0  0  0  0  0  0  0  0
  142.0431   77.7520  220.3731 H   0  0  0  0  0  0  0  0  0  0  0  0
  137.9738   76.5412  222.7489 H   0  0  0  0  0  0  0  0  0  0  0  0
  138.1418   78.9435  223.3506 H   0  0  0  0  0  0  0  0  0  0  0  0
  139.4855   81.0103  223.5796 H   0  0  0  0  0  0  0  0  0  0  0  0
  143.6590   80.8521  222.5234 H   0  0  0  0  0  0  0  0  0  0  0  0
  143.4347   78.4294  221.9334 H   0  0  0  0  0  0  0  0  0  0  0  0
  1  2  2  0
  2  3  1  0
  3  4  1  0
  4  5  1  0
  5  6  2  0
  5  7  1  0
  7  8  1  0
  8  9  1  0
  9 10  1  0
 10 11  1  0
 10 12  1  0
 12 13  1  0
 13 14  1  0
 14 15  1  0
 15 16  2  0
 16 17  1  0
 17 18  2  0
 18 19  1  0
 19 20  2  0
  2 21  1  0
 21 22  2  0
 22 23  1  0
 23 24  2  0
 24 25  1  0
 25 26  2  0
 26 27  1  0
 26 28  1  0
 28 29  2  0
 29 30  1  0
 30 31  2  0
 12  7  1  0
 20 15  1  0
 31 21  1  0
 30 24  1  0
  3 32  1  0
  4 33  1  0
  4 34  1  0
  8 35  1  0
  8 36  1  0
  9 37  1  0
  9 38  1  0
 10 39  1  6
 11 40  1  0
 12 41  1  1
 13 42  1  0
 13 43  1  0
 16 44  1  0
 17 45  1  0
 18 46  1  0
 19 47  1  0
 20 48  1  0
 22 49  1  0
 23 50  1  0
 25 51  1  0
 28 52  1  0
 29 53  1  0
M  END
>  <smiles>  (47) 
O=C(NCC(=O)N1CC[C@H](O)[C@H]1COc1ccccc1)c1ccc2cc(F)ccc2n1

>  <score_type>  (47) 
oracle

>  <origin>  (47) 
autodockgpu

>  <m_score__min__energy>  (47) 
-8.8599999999999994

>  <m_primary>  (47) 
energy

>  <rmsd>  (47) 
7.6959758871030175

>  <m_score__min__rmsd>  (47) 
7.6959758871030175

>  <meeko>  (47) 
{"free_energy": -6.11, "intermolecular_energy": -8.5, "internal_energy": -3.28, "cluster_size": 7, "cluster_id": 3, "rank_in_cluster": 5}

>  <energy>  (47) 
-6.1

>  <cluster_rmsd>  (47) 
0.0

>  <cluster>  (47) 
10

$$$$

     RDKit          3D

 53 56  0  0  0  0  0  0  0  0999 V2000
  141.0750   72.6190  222.0580 O   0  0  0  0  0  0  0  0  0  0  0  0
  139.9910   72.4130  222.6490 C   0  0  0  0  0  0  0  0  0  0  0  0
  138.8190   73.1420  222.3440 N   0  0  0  0  0  0  0  0  0  0  0  0
  138.8060   74.1650  221.3310 C   0  0  0  0  0  0  0  0  0  0  0  0
  139.8630   75.1590  221.4800 C   0  0  0  0  0  0  0  0  0  0  0  0
  139.9020   75.8370  222.5600 O   0  0  0  0  0  0  0  0  0  0  0  0
  140.8670   75.4590  220.5290 N   0  0  0  0  0  0  0  0  0  0  0  0
  141.0830   74.6110  219.3420 C   0  0  0  0  0  0  0  0  0  0  0  0
  142.6190   74.5180  219.4190 C   0  0  0  0  0  0  0  0  0  0  0  0
  142.9090   76.0230  219.5720 C   0  0  2  0  0  0  0  0  0  0  0  0
  144.1890   76.2530  219.9850 O   0  0  0  0  0  0  0  0  0  0  0  0
  141.8330   76.5550  220.4970 C   0  0  1  0  0  0  0  0  0  0  0  0
  141.1520   77.7900  219.8820 C   0  0  0  0  0  0  0  0  0  0  0  0
  141.1730   78.8860  220.6080 O   0  0  0  0  0  0  0  0  0  0  0  0
  141.4820   79.6810  221.5890 C   0  0  0  0  0  0  0  0  0  0  0  0
  141.4000   81.0650  221.5800 C   0  0  0  0  0  0  0  0  0  0  0  0
  141.7480   81.8480  222.6630 C   0  0  0  0  0  0  0  0  0  0  0  0
  142.1900   81.2240  223.7900 C   0  0  0  0  0  0  0  0  0  0  0  0
  142.2970   79.8750  223.8780 C   0  0  0  0  0  0  0  0  0  0  0  0
  141.9500   79.1110  222.7950 C   0  0  0  0  0  0  0  0  0  0  0  0
  139.9430   71.3780  223.6960 C   0  0  0  0  0  0  0  0  0  0  0  0
  139.3560   70.1540  223.4680 C   0  0  0  0  0  0  0  0  0  0  0  0
  139.3530   69.2330  224.5070 C   0  0  0  0  0  0  0  0  0  0  0  0
  139.9080   69.4980  225.7410 C   0  0  0  0  0  0  0  0  0  0  0  0
  139.9180   68.6110  226.7780 C   0  0  0  0  0  0  0  0  0  0  0  0
  140.4980   68.9700  227.9760 C   0  0  0  0  0  0  0  0  0  0  0  0
  140.5460   68.1450  229.0500 F   0  0  0  0  0  0  0  0  0  0  0  0
  141.0750   70.2270  228.1420 C   0  0  0  0  0  0  0  0  0  0  0  0
  141.0750   71.1360  227.1030 C   0  0  0  0  0  0  0  0  0  0  0  0
  140.4830   70.7360  225.9230 C   0  0  0  0  0  0  0  0  0  0  0  0
  140.4770   71.6130  224.9080 N   0  0  0  0  0  0  0  0  0  0  0  0
  137.9490   72.9010  222.8940 H   0  0  0  0  0  0  0  0  0  0  0  0
  138.9211   73.6818  220.3495 H   0  0  0  0  0  0  0  0  0  0  0  0
  137.8496   74.6993  221.4297 H   0  0  0  0  0  0  0  0  0  0  0  0
  140.6009   73.6271  219.4399 H   0  0  0  0  0  0  0  0  0  0  0  0
  140.6700   74.9915  218.3962 H   0  0  0  0  0  0  0  0  0  0  0  0
  142.9595   73.9362  220.2883 H   0  0  0  0  0  0  0  0  0  0  0  0
  143.1176   74.0100  218.5803 H   0  0  0  0  0  0  0  0  0  0  0  0
  142.8622   76.5616  218.6140 H   0  0  0  0  0  0  0  0  0  0  0  0
  144.2550   77.1610  220.3620 H   0  0  0  0  0  0  0  0  0  0  0  0
  142.2249   76.8521  221.4809 H   0  0  0  0  0  0  0  0  0  0  0  0
  141.6536   78.0097  218.9280 H   0  0  0  0  0  0  0  0  0  0  0  0
  140.0896   77.5222  219.7838 H   0  0  0  0  0  0  0  0  0  0  0  0
  141.0408   81.5628  220.6672 H   0  0  0  0  0  0  0  0  0  0  0  0
  141.6704   82.9443  222.6167 H   0  0  0  0  0  0  0  0  0  0  0  0
  142.4702   81.8361  224.6599 H   0  0  0  0  0  0  0  0  0  0  0  0
  142.6565   79.4019  224.8037 H   0  0  0  0  0  0  0  0  0  0  0  0
  142.0386   78.0169  222.8663 H   0  0  0  0  0  0  0  0  0  0  0  0
  138.9041   69.9134  222.4944 H   0  0  0  0  0  0  0  0  0  0  0  0
  138.8882   68.2504  224.3385 H   0  0  0  0  0  0  0  0  0  0  0  0
  139.4659   67.6153  226.6587 H   0  0  0  0  0  0  0  0  0  0  0  0
  141.5327   70.4965  229.1053 H   0  0  0  0  0  0  0  0  0  0  0  0
  141.5263   72.1333  227.2111 H   0  0  0  0  0  0  0  0  0  0  0  0
  1  2  2  0
  2  3  1  0
  3  4  1  0
  4  5  1  0
  5  6  2  0
  5  7  1  0
  7  8  1  0
  8  9  1  0
  9 10  1  0
 10 11  1  0
 10 12  1  0
 12 13  1  0
 13 14  1  0
 14 15  1  0
 15 16  2  0
 16 17  1  0
 17 18  2  0
 18 19  1  0
 19 20  2  0
  2 21  1  0
 21 22  2  0
 22 23  1  0
 23 24  2  0
 24 25  1  0
 25 26  2  0
 26 27  1  0
 26 28  1  0
 28 29  2  0
 29 30  1  0
 30 31  2  0
 12  7  1  0
 20 15  1  0
 31 21  1  0
 30 24  1  0
  3 32  1  0
  4 33  1  0
  4 34  1  0
  8 35  1  0
  8 36  1  0
  9 37  1  0
  9 38  1  0
 10 39  1  6
 11 40  1  0
 12 41  1  1
 13 42  1  0
 13 43  1  0
 16 44  1  0
 17 45  1  0
 18 46  1  0
 19 47  1  0
 20 48  1  0
 22 49  1  0
 23 50  1  0
 25 51  1  0
 28 52  1  0
 29 53  1  0
M  END
>  <smiles>  (48) 
O=C(NCC(=O)N1CC[C@H](O)[C@H]1COc1ccccc1)c1ccc2cc(F)ccc2n1

>  <score_type>  (48) 
oracle

>  <origin>  (48) 
autodockgpu

>  <m_score__min__energy>  (48) 
-8.8599999999999994

>  <m_primary>  (48) 
energy

>  <rmsd>  (48) 
2.0159753651663515

>  <m_score__min__rmsd>  (48) 
2.0159753651663515

>  <meeko>  (48) 
{"free_energy": -8.86, "intermolecular_energy": -11.25, "internal_energy": -1.35, "cluster_size": 20, "cluster_id": 1, "rank_in_cluster": 1}

>  <energy>  (48) 
-6.01

>  <cluster_rmsd>  (48) 
1.05

>  <cluster>  (48) 
10

$$$$

     RDKit          3D

 53 56  0  0  0  0  0  0  0  0999 V2000
  141.5580   72.5730  221.8660 O   0  0  0  0  0  0  0  0  0  0  0  0
  140.5090   72.6480  222.5460 C   0  0  0  0  0  0  0  0  0  0  0  0
  139.5510   73.6660  222.3420 N   0  0  0  0  0  0  0  0  0  0  0  0
  139.7270   74.6790  221.3330 C   0  0  0  0  0  0  0  0  0  0  0  0
  140.3380   74.1900  220.1020 C   0  0  0  0  0  0  0  0  0  0  0  0
  139.6280   73.4680  219.3260 O   0  0  0  0  0  0  0  0  0  0  0  0
  141.6640   74.4360  219.6730 N   0  0  0  0  0  0  0  0  0  0  0  0
  142.2010   73.8250  218.4440 C   0  0  0  0  0  0  0  0  0  0  0  0
  143.5580   73.3620  219.0080 C   0  0  0  0  0  0  0  0  0  0  0  0
  143.9740   74.6920  219.6640 C   0  0  2  0  0  0  0  0  0  0  0  0
  145.0120   74.5270  220.5340 O   0  0  0  0  0  0  0  0  0  0  0  0
  142.7090   75.2580  220.2770 C   0  0  1  0  0  0  0  0  0  0  0  0
  142.5000   76.7180  219.8380 C   0  0  0  0  0  0  0  0  0  0  0  0
  141.7600   77.4620  220.6290 O   0  0  0  0  0  0  0  0  0  0  0  0
  141.4490   78.2010  221.6520 C   0  0  0  0  0  0  0  0  0  0  0  0
  140.2760   78.1320  222.3880 C   0  0  0  0  0  0  0  0  0  0  0  0
  140.0130   78.9530  223.4660 C   0  0  0  0  0  0  0  0  0  0  0  0
  140.9550   79.8720  223.8180 C   0  0  0  0  0  0  0  0  0  0  0  0
  142.1280   80.0010  223.1490 C   0  0  0  0  0  0  0  0  0  0  0  0
  142.3740   79.1810  222.0810 C   0  0  0  0  0  0  0  0  0  0  0  0
  140.2740   71.6380  223.5930 C   0  0  0  0  0  0  0  0  0  0  0  0
  139.6020   70.4680  223.3230 C   0  0  0  0  0  0  0  0  0  0  0  0
  139.4220   69.5680  224.3640 C   0  0  0  0  0  0  0  0  0  0  0  0
  139.8860   69.8020  225.6410 C   0  0  0  0  0  0  0  0  0  0  0  0
  139.7220   68.9350  226.6830 C   0  0  0  0  0  0  0  0  0  0  0  0
  140.2230   69.2600  227.9250 C   0  0  0  0  0  0  0  0  0  0  0  0
  140.1000   68.4510  229.0060 F   0  0  0  0  0  0  0  0  0  0  0  0
  140.8940   70.4630  228.1330 C   0  0  0  0  0  0  0  0  0  0  0  0
  141.0700   71.3510  227.0900 C   0  0  0  0  0  0  0  0  0  0  0  0
  140.5520   70.9860  225.8650 C   0  0  0  0  0  0  0  0  0  0  0  0
  140.7160   71.8440  224.8460 N   0  0  0  0  0  0  0  0  0  0  0  0
  138.6960   73.6510  222.9620 H   0  0  0  0  0  0  0  0  0  0  0  0
  138.7399   75.0973  221.0868 H   0  0  0  0  0  0  0  0  0  0  0  0
  140.4126   75.4302  221.7522 H   0  0  0  0  0  0  0  0  0  0  0  0
  141.5859   72.9825  218.0947 H   0  0  0  0  0  0  0  0  0  0  0  0
  142.2439   74.4780  217.5599 H   0  0  0  0  0  0  0  0  0  0  0  0
  143.4502   72.5498  219.7420 H   0  0  0  0  0  0  0  0  0  0  0  0
  144.2660   72.9367  218.2815 H   0  0  0  0  0  0  0  0  0  0  0  0
  144.3795   75.4119  218.9378 H   0  0  0  0  0  0  0  0  0  0  0  0
  145.8610   74.7280  220.0750 H   0  0  0  0  0  0  0  0  0  0  0  0
  142.7256   75.2457  221.3768 H   0  0  0  0  0  0  0  0  0  0  0  0
  143.4904   77.1907  219.7626 H   0  0  0  0  0  0  0  0  0  0  0  0
  141.9504   76.6632  218.8867 H   0  0  0  0  0  0  0  0  0  0  0  0
  139.5192   77.3878  222.0992 H   0  0  0  0  0  0  0  0  0  0  0  0
  139.0695   78.8676  224.0250 H   0  0  0  0  0  0  0  0  0  0  0  0
  140.7575   80.5328  224.6749 H   0  0  0  0  0  0  0  0  0  0  0  0
  142.8692   80.7521  223.4596 H   0  0  0  0  0  0  0  0  0  0  0  0
  143.3243   79.2880  221.5374 H   0  0  0  0  0  0  0  0  0  0  0  0
  139.2197   70.2529  222.3143 H   0  0  0  0  0  0  0  0  0  0  0  0
  138.8867   68.6286  224.1618 H   0  0  0  0  0  0  0  0  0  0  0  0
  139.1930   67.9825  226.5319 H   0  0  0  0  0  0  0  0  0  0  0  0
  141.2851   70.7066  229.1318 H   0  0  0  0  0  0  0  0  0  0  0  0
  141.5989   72.3053  227.2298 H   0  0  0  0  0  0  0  0  0  0  0  0
  1  2  2  0
  2  3  1  0
  3  4  1  0
  4  5  1  0
  5  6  2  0
  5  7  1  0
  7  8  1  0
  8  9  1  0
  9 10  1  0
 10 11  1  0
 10 12  1  0
 12 13  1  0
 13 14  1  0
 14 15  1  0
 15 16  2  0
 16 17  1  0
 17 18  2  0
 18 19  1  0
 19 20  2  0
  2 21  1  0
 21 22  2  0
 22 23  1  0
 23 24  2  0
 24 25  1  0
 25 26  2  0
 26 27  1  0
 26 28  1  0
 28 29  2  0
 29 30  1  0
 30 31  2  0
 12  7  1  0
 20 15  1  0
 31 21  1  0
 30 24  1  0
  3 32  1  0
  4 33  1  0
  4 34  1  0
  8 35  1  0
  8 36  1  0
  9 37  1  0
  9 38  1  0
 10 39  1  6
 11 40  1  0
 12 41  1  1
 13 42  1  0
 13 43  1  0
 16 44  1  0
 17 45  1  0
 18 46  1  0
 19 47  1  0
 20 48  1  0
 22 49  1  0
 23 50  1  0
 25 51  1  0
 28 52  1  0
 29 53  1  0
M  END
>  <smiles>  (49) 
O=C(NCC(=O)N1CC[C@H](O)[C@H]1COc1ccccc1)c1ccc2cc(F)ccc2n1

>  <score_type>  (49) 
oracle

>  <origin>  (49) 
autodockgpu

>  <m_score__min__energy>  (49) 
-8.8599999999999994

>  <m_primary>  (49) 
energy

>  <rmsd>  (49) 
2.6316256470269166

>  <m_score__min__rmsd>  (49) 
2.6316256470269166

>  <meeko>  (49) 
{"free_energy": -7.99, "intermolecular_energy": -10.38, "internal_energy": -1.37, "cluster_size": 20, "cluster_id": 1, "rank_in_cluster": 14}

>  <energy>  (49) 
-5.95

>  <cluster_rmsd>  (49) 
0.99

>  <cluster>  (49) 
10

$$$$

     RDKit          3D

 53 56  0  0  0  0  0  0  0  0999 V2000
  139.5120   71.6270  220.8830 O   0  0  0  0  0  0  0  0  0  0  0  0
  139.5500   72.1800  222.0060 C   0  0  0  0  0  0  0  0  0  0  0  0
  139.4380   73.5800  222.1590 N   0  0  0  0  0  0  0  0  0  0  0  0
  139.2730   74.4540  221.0270 C   0  0  0  0  0  0  0  0  0  0  0  0
  139.1470   75.8640  221.3800 C   0  0  0  0  0  0  0  0  0  0  0  0
  137.9780   76.3230  221.6060 O   0  0  0  0  0  0  0  0  0  0  0  0
  140.2080   76.7940  221.4960 N   0  0  0  0  0  0  0  0  0  0  0  0
  141.0780   76.8250  222.6850 C   0  0  0  0  0  0  0  0  0  0  0  0
  141.0770   78.3480  222.9140 C   0  0  0  0  0  0  0  0  0  0  0  0
  141.4250   78.7740  221.4750 C   0  0  2  0  0  0  0  0  0  0  0  0
  141.1900   80.1020  221.2680 O   0  0  0  0  0  0  0  0  0  0  0  0
  140.6460   77.8380  220.5730 C   0  0  1  0  0  0  0  0  0  0  0  0
  141.5720   77.2050  219.5200 C   0  0  0  0  0  0  0  0  0  0  0  0
  142.0130   75.9960  219.7880 O   0  0  0  0  0  0  0  0  0  0  0  0
  142.8590   75.0570  220.0910 C   0  0  0  0  0  0  0  0  0  0  0  0
  144.2410   75.1690  220.0990 C   0  0  0  0  0  0  0  0  0  0  0  0
  145.0800   74.1240  220.4320 C   0  0  0  0  0  0  0  0  0  0  0  0
  144.5170   72.9310  220.7690 C   0  0  0  0  0  0  0  0  0  0  0  0
  143.1740   72.7410  220.7860 C   0  0  0  0  0  0  0  0  0  0  0  0
  142.3540   73.7860  220.4520 C   0  0  0  0  0  0  0  0  0  0  0  0
  139.7170   71.3360  223.2020 C   0  0  0  0  0  0  0  0  0  0  0  0
  139.3800   70.0010  223.1900 C   0  0  0  0  0  0  0  0  0  0  0  0
  139.5680   69.2750  224.3580 C   0  0  0  0  0  0  0  0  0  0  0  0
  140.0710   69.8350  225.5130 C   0  0  0  0  0  0  0  0  0  0  0  0
  140.2650   69.1440  226.6740 C   0  0  0  0  0  0  0  0  0  0  0  0
  140.7740   69.7940  227.7770 C   0  0  0  0  0  0  0  0  0  0  0  0
  140.9940   69.1760  228.9630 F   0  0  0  0  0  0  0  0  0  0  0  0
  141.0940   71.1490  227.7230 C   0  0  0  0  0  0  0  0  0  0  0  0
  140.9050   71.8640  226.5570 C   0  0  0  0  0  0  0  0  0  0  0  0
  140.3930   71.1730  225.4770 C   0  0  0  0  0  0  0  0  0  0  0  0
  140.2050   71.8590  224.3400 N   0  0  0  0  0  0  0  0  0  0  0  0
  139.4800   73.9590  223.1450 H   0  0  0  0  0  0  0  0  0  0  0  0
  140.1479   74.3386  220.3703 H   0  0  0  0  0  0  0  0  0  0  0  0
  138.3331   74.1637  220.5348 H   0  0  0  0  0  0  0  0  0  0  0  0
  140.6433   76.2761  223.5334 H   0  0  0  0  0  0  0  0  0  0  0  0
  142.0662   76.3552  222.5717 H   0  0  0  0  0  0  0  0  0  0  0  0
  140.0932   78.7217  223.2340 H   0  0  0  0  0  0  0  0  0  0  0  0
  141.7443   78.7203  223.7052 H   0  0  0  0  0  0  0  0  0  0  0  0
  142.4987   78.6809  221.2547 H   0  0  0  0  0  0  0  0  0  0  0  0
  140.3880   80.2110  220.7060 H   0  0  0  0  0  0  0  0  0  0  0  0
  139.8329   78.3446  220.0324 H   0  0  0  0  0  0  0  0  0  0  0  0
  141.0182   77.1577  218.5708 H   0  0  0  0  0  0  0  0  0  0  0  0
  142.4660   77.8452  219.4906 H   0  0  0  0  0  0  0  0  0  0  0  0
  144.6901   76.1357  219.8273 H   0  0  0  0  0  0  0  0  0  0  0  0
  146.1725   74.2518  220.4252 H   0  0  0  0  0  0  0  0  0  0  0  0
  145.1748   72.0911  221.0371 H   0  0  0  0  0  0  0  0  0  0  0  0
  142.7507   71.7643  221.0633 H   0  0  0  0  0  0  0  0  0  0  0  0
  141.2650   73.6315  220.4649 H   0  0  0  0  0  0  0  0  0  0  0  0
  138.9751   69.5254  222.2845 H   0  0  0  0  0  0  0  0  0  0  0  0
  139.3043   68.2071  224.3622 H   0  0  0  0  0  0  0  0  0  0  0  0
  140.0163   68.0739  226.7287 H   0  0  0  0  0  0  0  0  0  0  0  0
  141.4992   71.6516  228.6136 H   0  0  0  0  0  0  0  0  0  0  0  0
  141.1509   72.9342  226.4917 H   0  0  0  0  0  0  0  0  0  0  0  0
  1  2  2  0
  2  3  1  0
  3  4  1  0
  4  5  1  0
  5  6  2  0
  5  7  1  0
  7  8  1  0
  8  9  1  0
  9 10  1  0
 10 11  1  0
 10 12  1  0
 12 13  1  0
 13 14  1  0
 14 15  1  0
 15 16  2  0
 16 17  1  0
 17 18  2  0
 18 19  1  0
 19 20  2  0
  2 21  1  0
 21 22  2  0
 22 23  1  0
 23 24  2  0
 24 25  1  0
 25 26  2  0
 26 27  1  0
 26 28  1  0
 28 29  2  0
 29 30  1  0
 30 31  2  0
 12  7  1  0
 20 15  1  0
 31 21  1  0
 30 24  1  0
  3 32  1  0
  4 33  1  0
  4 34  1  0
  8 35  1  0
  8 36  1  0
  9 37  1  0
  9 38  1  0
 10 39  1  6
 11 40  1  0
 12 41  1  6
 13 42  1  0
 13 43  1  0
 16 44  1  0
 17 45  1  0
 18 46  1  0
 19 47  1  0
 20 48  1  0
 22 49  1  0
 23 50  1  0
 25 51  1  0
 28 52  1  0
 29 53  1  0
M  END
>  <smiles>  (50) 
O=C(NCC(=O)N1CC[C@H](O)[C@H]1COc1ccccc1)c1ccc2cc(F)ccc2n1

>  <score_type>  (50) 
oracle

>  <origin>  (50) 
autodockgpu

>  <m_score__min__energy>  (50) 
-8.8599999999999994

>  <m_primary>  (50) 
energy

>  <rmsd>  (50) 
3.033204036821911

>  <m_score__min__rmsd>  (50) 
3.033204036821911

>  <meeko>  (50) 
{"free_energy": -7.17, "intermolecular_energy": -9.56, "internal_energy": -2.14, "cluster_size": 7, "cluster_id": 6, "rank_in_cluster": 5}

>  <energy>  (50) 
-5.42

>  <cluster_rmsd>  (50) 
0.0

>  <cluster>  (50) 
11

$$$$
