
     RDKit          3D

 48 51  0  0  0  0  0  0  0  0999 V2000
  140.8830   71.6160  221.3450 O   0  0  0  0  0  0  0  0  0  0  0  0
  140.3740   72.1590  222.3540 C   0  0  0  0  0  0  0  0  0  0  0  0
  139.9520   73.5010  222.2550 N   0  0  0  0  0  0  0  0  0  0  0  0
  140.0980   74.2470  221.0200 C   0  0  0  0  0  0  0  0  0  0  0  0
  141.2420   75.1680  221.0490 C   0  0  0  0  0  0  0  0  0  0  0  0
  142.4360   74.8350  220.8540 O   0  0  0  0  0  0  0  0  0  0  0  0
  140.9920   76.5400  221.3190 N   0  0  0  0  0  0  0  0  0  0  0  0
  141.4150   77.6350  220.4800 C   0  0  0  0  0  0  0  0  0  0  0  0
  141.8150   78.7110  221.4630 C   0  0  0  0  0  0  0  0  0  0  0  0
  141.2350   78.2720  222.8010 C   0  0  0  0  0  0  0  0  0  0  0  0
  140.2860   77.1430  222.4430 C   0  0  1  0  0  0  0  0  0  0  0  0
  138.9590   77.6830  221.9480 C   0  0  0  0  0  0  0  0  0  0  0  0
  137.9130   76.6350  221.9980 C   0  0  0  0  0  0  0  0  0  0  0  0
  137.3080   76.0670  223.1130 C   0  0  0  0  0  0  0  0  0  0  0  0
  136.4210   75.1620  222.6450 N   0  0  0  0  0  0  0  0  0  0  0  0
  136.4480   75.1430  221.2980 C   0  0  0  0  0  0  0  0  0  0  0  0
  137.3590   76.0440  220.9300 N   0  0  0  0  0  0  0  0  0  0  0  0
  140.2190   71.4250  223.6040 C   0  0  0  0  0  0  0  0  0  0  0  0
  139.5810   70.2050  223.6160 C   0  0  0  0  0  0  0  0  0  0  0  0
  139.4010   69.4630  224.7510 C   0  0  0  0  0  0  0  0  0  0  0  0
  139.9000   69.9990  225.9410 C   0  0  0  0  0  0  0  0  0  0  0  0
  139.7580   69.3120  227.1280 C   0  0  0  0  0  0  0  0  0  0  0  0
  140.2410   69.8210  228.3070 C   0  0  0  0  0  0  0  0  0  0  0  0
  140.8750   71.0380  228.2910 C   0  0  0  0  0  0  0  0  0  0  0  0
  141.0410   71.7580  227.1300 C   0  0  0  0  0  0  0  0  0  0  0  0
  140.5430   71.2270  225.9360 C   0  0  0  0  0  0  0  0  0  0  0  0
  140.6840   71.9010  224.7810 N   0  0  0  0  0  0  0  0  0  0  0  0
  139.5270   73.9260  223.1260 H   0  0  0  0  0  0  0  0  0  0  0  0
  140.2393   73.5355  220.1931 H   0  0  0  0  0  0  0  0  0  0  0  0
  139.1879   74.8499  220.8850 H   0  0  0  0  0  0  0  0  0  0  0  0
  142.2693   77.3404  219.8528 H   0  0  0  0  0  0  0  0  0  0  0  0
  140.6291   77.9656  219.7849 H   0  0  0  0  0  0  0  0  0  0  0  0
  142.9106   78.7877  221.5250 H   0  0  0  0  0  0  0  0  0  0  0  0
  141.4422   79.7007  221.1604 H   0  0  0  0  0  0  0  0  0  0  0  0
  142.0298   77.9154  223.4726 H   0  0  0  0  0  0  0  0  0  0  0  0
  140.7314   79.0934  223.3317 H   0  0  0  0  0  0  0  0  0  0  0  0
  140.0574   76.4725  223.2845 H   0  0  0  0  0  0  0  0  0  0  0  0
  138.6539   78.5277  222.5831 H   0  0  0  0  0  0  0  0  0  0  0  0
  139.0791   78.0119  220.9052 H   0  0  0  0  0  0  0  0  0  0  0  0
  137.5111   76.3068  224.1672 H   0  0  0  0  0  0  0  0  0  0  0  0
  135.8070   74.5650  223.2170 H   0  0  0  0  0  0  0  0  0  0  0  0
  135.8399   74.5105  220.6346 H   0  0  0  0  0  0  0  0  0  0  0  0
  139.1967   69.8070  222.6652 H   0  0  0  0  0  0  0  0  0  0  0  0
  138.8877   68.4904  224.7280 H   0  0  0  0  0  0  0  0  0  0  0  0
  139.2478   68.3374  227.1298 H   0  0  0  0  0  0  0  0  0  0  0  0
  140.1222   69.2638  229.2479 H   0  0  0  0  0  0  0  0  0  0  0  0
  141.2621   71.4503  229.2345 H   0  0  0  0  0  0  0  0  0  0  0  0
  141.5546   72.7307  227.1410 H   0  0  0  0  0  0  0  0  0  0  0  0
  1  2  2  0
  2  3  1  0
  3  4  1  0
  4  5  1  0
  5  6  2  0
  5  7  1  0
  7  8  1  0
  8  9  1  0
  9 10  1  0
 10 11  1  0
 11 12  1  0
 12 13  1  0
 13 14  2  0
 14 15  1  0
 15 16  1  0
 16 17  2  0
  2 18  1  0
 18 19  2  0
 19 20  1  0
 20 21  2  0
 21 22  1  0
 22 23  2  0
 23 24  1  0
 24 25  2  0
 25 26  1  0
 26 27  2  0
 11  7  1  0
 17 13  1  0
 27 18  1  0
 26 21  1  0
  3 28  1  0
  4 29  1  0
  4 30  1  0
  8 31  1  0
  8 32  1  0
  9 33  1  0
  9 34  1  0
 10 35  1  0
 10 36  1  0
 11 37  1  1
 12 38  1  0
 12 39  1  0
 14 40  1  0
 15 41  1  0
 16 42  1  0
 19 43  1  0
 20 44  1  0
 22 45  1  0
 23 46  1  0
 24 47  1  0
 25 48  1  0
M  END
>  <smiles>  (1) 
O=C(NCC(=O)N1CCC[C@H]1Cc1c[nH]cn1)c1ccc2ccccc2n1

>  <score_type>  (1) 
oracle

>  <origin>  (1) 
autodockgpu

>  <m_score__min__energy>  (1) 
-8.4499999999999993

>  <m_primary>  (1) 
energy

>  <rmsd>  (1) 
2.7635076320360223

>  <m_score__min__rmsd>  (1) 
2.7635076320360223

>  <meeko>  (1) 
{"free_energy": -7.14, "intermolecular_energy": -8.93, "internal_energy": -1.46, "cluster_size": 4, "cluster_id": 6, "rank_in_cluster": 3}

>  <energy>  (1) 
-8.45

>  <cluster_rmsd>  (1) 
0.0

>  <cluster>  (1) 
1

$$$$

     RDKit          3D

 48 51  0  0  0  0  0  0  0  0999 V2000
  135.9600   70.7650  223.3300 O   0  0  0  0  0  0  0  0  0  0  0  0
  135.8990   71.9610  223.7020 C   0  0  0  0  0  0  0  0  0  0  0  0
  136.7900   72.8900  223.1250 N   0  0  0  0  0  0  0  0  0  0  0  0
  137.7570   72.4840  222.1230 C   0  0  0  0  0  0  0  0  0  0  0  0
  139.0870   72.2300  222.6930 C   0  0  0  0  0  0  0  0  0  0  0  0
  140.0830   72.9810  222.5510 O   0  0  0  0  0  0  0  0  0  0  0  0
  139.2720   71.0520  223.4630 N   0  0  0  0  0  0  0  0  0  0  0  0
  139.5840   69.7510  222.9180 C   0  0  0  0  0  0  0  0  0  0  0  0
  138.7900   68.7980  223.7790 C   0  0  0  0  0  0  0  0  0  0  0  0
  138.3680   69.6090  224.9980 C   0  0  0  0  0  0  0  0  0  0  0  0
  139.2000   70.8750  224.9080 C   0  0  1  0  0  0  0  0  0  0  0  0
  140.6020   70.6450  225.4390 C   0  0  0  0  0  0  0  0  0  0  0  0
  140.5980   69.6170  226.5050 C   0  0  0  0  0  0  0  0  0  0  0  0
  141.0070   68.2900  226.4320 C   0  0  0  0  0  0  0  0  0  0  0  0
  140.8120   67.7630  227.6600 N   0  0  0  0  0  0  0  0  0  0  0  0
  140.3030   68.6980  228.4880 C   0  0  0  0  0  0  0  0  0  0  0  0
  140.1840   69.8120  227.7650 N   0  0  0  0  0  0  0  0  0  0  0  0
  134.9340   72.3880  224.7080 C   0  0  0  0  0  0  0  0  0  0  0  0
  134.1450   71.4590  225.3470 C   0  0  0  0  0  0  0  0  0  0  0  0
  133.2200   71.7880  226.2990 C   0  0  0  0  0  0  0  0  0  0  0  0
  133.0940   73.1430  226.6150 C   0  0  0  0  0  0  0  0  0  0  0  0
  132.1840   73.5570  227.5650 C   0  0  0  0  0  0  0  0  0  0  0  0
  132.0460   74.8820  227.8890 C   0  0  0  0  0  0  0  0  0  0  0  0
  132.8350   75.8050  227.2490 C   0  0  0  0  0  0  0  0  0  0  0  0
  133.7570   75.4390  226.2960 C   0  0  0  0  0  0  0  0  0  0  0  0
  133.8860   74.0840  225.9750 C   0  0  0  0  0  0  0  0  0  0  0  0
  134.7750   73.6860  225.0480 N   0  0  0  0  0  0  0  0  0  0  0  0
  136.7100   73.8900  223.4620 H   0  0  0  0  0  0  0  0  0  0  0  0
  137.3987   71.5629  221.6402 H   0  0  0  0  0  0  0  0  0  0  0  0
  137.8553   73.3081  221.4011 H   0  0  0  0  0  0  0  0  0  0  0  0
  139.2707   69.6818  221.8658 H   0  0  0  0  0  0  0  0  0  0  0  0
  140.6623   69.5340  222.9275 H   0  0  0  0  0  0  0  0  0  0  0  0
  137.9064   68.4330  223.2350 H   0  0  0  0  0  0  0  0  0  0  0  0
  139.3798   67.9133  224.0607 H   0  0  0  0  0  0  0  0  0  0  0  0
  137.2942   69.8440  224.9577 H   0  0  0  0  0  0  0  0  0  0  0  0
  138.5270   69.0661  225.9414 H   0  0  0  0  0  0  0  0  0  0  0  0
  138.7842   71.7198  225.4767 H   0  0  0  0  0  0  0  0  0  0  0  0
  141.2489   70.3082  224.6155 H   0  0  0  0  0  0  0  0  0  0  0  0
  140.9789   71.5886  225.8603 H   0  0  0  0  0  0  0  0  0  0  0  0
  141.4096   67.7721  225.5490 H   0  0  0  0  0  0  0  0  0  0  0  0
  141.0150   66.7940  227.9430 H   0  0  0  0  0  0  0  0  0  0  0  0
  140.0388   68.5677  229.5478 H   0  0  0  0  0  0  0  0  0  0  0  0
  134.2643   70.3989  225.0786 H   0  0  0  0  0  0  0  0  0  0  0  0
  132.6042   71.0218  226.7927 H   0  0  0  0  0  0  0  0  0  0  0  0
  131.5567   72.8095  228.0727 H   0  0  0  0  0  0  0  0  0  0  0  0
  131.3161   75.1997  228.6482 H   0  0  0  0  0  0  0  0  0  0  0  0
  132.7268   76.8691  227.5058 H   0  0  0  0  0  0  0  0  0  0  0  0
  134.3797   76.1961  225.7970 H   0  0  0  0  0  0  0  0  0  0  0  0
  1  2  2  0
  2  3  1  0
  3  4  1  0
  4  5  1  0
  5  6  2  0
  5  7  1  0
  7  8  1  0
  8  9  1  0
  9 10  1  0
 10 11  1  0
 11 12  1  0
 12 13  1  0
 13 14  2  0
 14 15  1  0
 15 16  1  0
 16 17  2  0
  2 18  1  0
 18 19  2  0
 19 20  1  0
 20 21  2  0
 21 22  1  0
 22 23  2  0
 23 24  1  0
 24 25  2  0
 25 26  1  0
 26 27  2  0
 11  7  1  0
 17 13  1  0
 27 18  1  0
 26 21  1  0
  3 28  1  0
  4 29  1  0
  4 30  1  0
  8 31  1  0
  8 32  1  0
  9 33  1  0
  9 34  1  0
 10 35  1  0
 10 36  1  0
 11 37  1  1
 12 38  1  0
 12 39  1  0
 14 40  1  0
 15 41  1  0
 16 42  1  0
 19 43  1  0
 20 44  1  0
 22 45  1  0
 23 46  1  0
 24 47  1  0
 25 48  1  0
M  END
>  <smiles>  (2) 
O=C(NCC(=O)N1CCC[C@H]1Cc1c[nH]cn1)c1ccc2ccccc2n1

>  <score_type>  (2) 
oracle

>  <origin>  (2) 
autodockgpu

>  <m_score__min__energy>  (2) 
-8.4499999999999993

>  <m_primary>  (2) 
energy

>  <rmsd>  (2) 
7.2980732478623125

>  <m_score__min__rmsd>  (2) 
7.2980732478623125

>  <meeko>  (2) 
{"free_energy": -7.1, "intermolecular_energy": -8.89, "internal_energy": -1.75, "cluster_size": 2, "cluster_id": 7, "rank_in_cluster": 2}

>  <energy>  (2) 
-8.4

>  <cluster_rmsd>  (2) 
0.13

>  <cluster>  (2) 
1

$$$$

     RDKit          3D

 48 51  0  0  0  0  0  0  0  0999 V2000
  141.3960   71.8430  221.5480 O   0  0  0  0  0  0  0  0  0  0  0  0
  140.6470   72.2710  222.4580 C   0  0  0  0  0  0  0  0  0  0  0  0
  140.0740   73.5520  222.3100 N   0  0  0  0  0  0  0  0  0  0  0  0
  140.3380   74.3630  221.1370 C   0  0  0  0  0  0  0  0  0  0  0  0
  140.6100   75.7680  221.4730 C   0  0  0  0  0  0  0  0  0  0  0  0
  140.1340   76.3730  222.4640 O   0  0  0  0  0  0  0  0  0  0  0  0
  141.4740   76.5060  220.6210 N   0  0  0  0  0  0  0  0  0  0  0  0
  141.8380   77.8890  220.8140 C   0  0  0  0  0  0  0  0  0  0  0  0
  141.8720   78.4540  219.4140 C   0  0  0  0  0  0  0  0  0  0  0  0
  141.8820   77.2440  218.4890 C   0  0  0  0  0  0  0  0  0  0  0  0
  142.1650   76.0730  219.4120 C   0  0  1  0  0  0  0  0  0  0  0  0
  143.6460   75.9630  219.7150 C   0  0  0  0  0  0  0  0  0  0  0  0
  143.9760   74.6200  220.2460 C   0  0  0  0  0  0  0  0  0  0  0  0
  143.1820   73.4780  220.2710 C   0  0  0  0  0  0  0  0  0  0  0  0
  143.9240   72.5110  220.8520 N   0  0  0  0  0  0  0  0  0  0  0  0
  145.1360   72.9980  221.1870 C   0  0  0  0  0  0  0  0  0  0  0  0
  145.1430   74.2760  220.8090 N   0  0  0  0  0  0  0  0  0  0  0  0
  140.3700   71.4700  223.6440 C   0  0  0  0  0  0  0  0  0  0  0  0
  139.7450   70.2490  223.5230 C   0  0  0  0  0  0  0  0  0  0  0  0
  139.4550   69.4460  224.5920 C   0  0  0  0  0  0  0  0  0  0  0  0
  139.8240   69.9170  225.8540 C   0  0  0  0  0  0  0  0  0  0  0  0
  139.5660   69.1670  226.9820 C   0  0  0  0  0  0  0  0  0  0  0  0
  139.9210   69.6120  228.2290 C   0  0  0  0  0  0  0  0  0  0  0  0
  140.5430   70.8290  228.3450 C   0  0  0  0  0  0  0  0  0  0  0  0
  140.8210   71.6120  227.2480 C   0  0  0  0  0  0  0  0  0  0  0  0
  140.4530   71.1460  225.9820 C   0  0  0  0  0  0  0  0  0  0  0  0
  140.7070   71.8820  224.8860 N   0  0  0  0  0  0  0  0  0  0  0  0
  139.4470   73.8800  223.0960 H   0  0  0  0  0  0  0  0  0  0  0  0
  141.2123   73.9502  220.6123 H   0  0  0  0  0  0  0  0  0  0  0  0
  139.4381   74.3389  220.5049 H   0  0  0  0  0  0  0  0  0  0  0  0
  141.0880   78.4092  221.4279 H   0  0  0  0  0  0  0  0  0  0  0  0
  142.7958   78.0060  221.3422 H   0  0  0  0  0  0  0  0  0  0  0  0
  140.9824   79.0736  219.2274 H   0  0  0  0  0  0  0  0  0  0  0  0
  142.7493   79.0980  219.2542 H   0  0  0  0  0  0  0  0  0  0  0  0
  140.9074   77.1236  217.9934 H   0  0  0  0  0  0  0  0  0  0  0  0
  142.6256   77.3352  217.6835 H   0  0  0  0  0  0  0  0  0  0  0  0
  141.8557   75.1006  219.0012 H   0  0  0  0  0  0  0  0  0  0  0  0
  144.2170   76.1357  218.7908 H   0  0  0  0  0  0  0  0  0  0  0  0
  143.9077   76.7159  220.4730 H   0  0  0  0  0  0  0  0  0  0  0  0
  142.1537   73.3818  219.8925 H   0  0  0  0  0  0  0  0  0  0  0  0
  143.6260   71.5400  221.0230 H   0  0  0  0  0  0  0  0  0  0  0  0
  145.9554   72.4498  221.6749 H   0  0  0  0  0  0  0  0  0  0  0  0
  139.4651   69.9022  222.5173 H   0  0  0  0  0  0  0  0  0  0  0  0
  138.9546   68.4748  224.4636 H   0  0  0  0  0  0  0  0  0  0  0  0
  139.0656   68.1928  226.8792 H   0  0  0  0  0  0  0  0  0  0  0  0
  139.7107   69.0037  229.1211 H   0  0  0  0  0  0  0  0  0  0  0  0
  140.8280   71.1897  229.3443 H   0  0  0  0  0  0  0  0  0  0  0  0
  141.3223   72.5842  227.3646 H   0  0  0  0  0  0  0  0  0  0  0  0
  1  2  2  0
  2  3  1  0
  3  4  1  0
  4  5  1  0
  5  6  2  0
  5  7  1  0
  7  8  1  0
  8  9  1  0
  9 10  1  0
 10 11  1  0
 11 12  1  0
 12 13  1  0
 13 14  2  0
 14 15  1  0
 15 16  1  0
 16 17  2  0
  2 18  1  0
 18 19  2  0
 19 20  1  0
 20 21  2  0
 21 22  1  0
 22 23  2  0
 23 24  1  0
 24 25  2  0
 25 26  1  0
 26 27  2  0
 11  7  1  0
 17 13  1  0
 27 18  1  0
 26 21  1  0
  3 28  1  0
  4 29  1  0
  4 30  1  0
  8 31  1  0
  8 32  1  0
  9 33  1  0
  9 34  1  0
 10 35  1  0
 10 36  1  0
 11 37  1  6
 12 38  1  0
 12 39  1  0
 14 40  1  0
 15 41  1  0
 16 42  1  0
 19 43  1  0
 20 44  1  0
 22 45  1  0
 23 46  1  0
 24 47  1  0
 25 48  1  0
M  END
>  <smiles>  (3) 
O=C(NCC(=O)N1CCC[C@H]1Cc1c[nH]cn1)c1ccc2ccccc2n1

>  <score_type>  (3) 
oracle

>  <origin>  (3) 
autodockgpu

>  <m_score__min__energy>  (3) 
-8.4499999999999993

>  <m_primary>  (3) 
energy

>  <rmsd>  (3) 
2.338341121864324

>  <m_score__min__rmsd>  (3) 
2.338341121864324

>  <meeko>  (3) 
{"free_energy": -7.79, "intermolecular_energy": -9.58, "internal_energy": -1.83, "cluster_size": 14, "cluster_id": 1, "rank_in_cluster": 8}

>  <energy>  (3) 
-8.4

>  <cluster_rmsd>  (3) 
0.2

>  <cluster>  (3) 
1

$$$$

     RDKit          3D

 48 51  0  0  0  0  0  0  0  0999 V2000
  139.7370   70.9380  221.4750 O   0  0  0  0  0  0  0  0  0  0  0  0
  139.8010   71.4480  222.6200 C   0  0  0  0  0  0  0  0  0  0  0  0
  139.8610   72.8530  222.7270 N   0  0  0  0  0  0  0  0  0  0  0  0
  139.8490   73.6990  221.5500 C   0  0  0  0  0  0  0  0  0  0  0  0
  141.0440   74.5490  221.4530 C   0  0  0  0  0  0  0  0  0  0  0  0
  141.1350   75.7130  221.9130 O   0  0  0  0  0  0  0  0  0  0  0  0
  142.1860   74.0260  220.7910 N   0  0  0  0  0  0  0  0  0  0  0  0
  142.3670   72.6400  220.4300 C   0  0  0  0  0  0  0  0  0  0  0  0
  143.8340   72.3880  220.6840 C   0  0  0  0  0  0  0  0  0  0  0  0
  144.4640   73.7680  220.8250 C   0  0  0  0  0  0  0  0  0  0  0  0
  143.3860   74.7200  220.3390 C   0  0  1  0  0  0  0  0  0  0  0  0
  143.3630   74.7890  218.8240 C   0  0  0  0  0  0  0  0  0  0  0  0
  143.1740   76.1850  218.3650 C   0  0  0  0  0  0  0  0  0  0  0  0
  143.5780   76.7660  217.1680 C   0  0  0  0  0  0  0  0  0  0  0  0
  143.1760   78.0550  217.2160 N   0  0  0  0  0  0  0  0  0  0  0  0
  142.5430   78.2970  218.3810 C   0  0  0  0  0  0  0  0  0  0  0  0
  142.5540   77.1500  219.0590 N   0  0  0  0  0  0  0  0  0  0  0  0
  139.8150   70.6130  223.8150 C   0  0  0  0  0  0  0  0  0  0  0  0
  139.2230   69.3710  223.7980 C   0  0  0  0  0  0  0  0  0  0  0  0
  139.1980   68.5370  224.8810 C   0  0  0  0  0  0  0  0  0  0  0  0
  139.8140   68.9980  226.0480 C   0  0  0  0  0  0  0  0  0  0  0  0
  139.8320   68.2160  227.1830 C   0  0  0  0  0  0  0  0  0  0  0  0
  140.4310   68.6510  228.3380 C   0  0  0  0  0  0  0  0  0  0  0  0
  141.0200   69.8900  228.3510 C   0  0  0  0  0  0  0  0  0  0  0  0
  141.0270   70.7050  227.2420 C   0  0  0  0  0  0  0  0  0  0  0  0
  140.4120   70.2480  226.0720 C   0  0  0  0  0  0  0  0  0  0  0  0
  140.3970   71.0150  224.9670 N   0  0  0  0  0  0  0  0  0  0  0  0
  139.9150   73.2480  223.7070 H   0  0  0  0  0  0  0  0  0  0  0  0
  139.7983   73.0591  220.6567 H   0  0  0  0  0  0  0  0  0  0  0  0
  138.9740   74.3614  221.6246 H   0  0  0  0  0  0  0  0  0  0  0  0
  141.7431   71.9871  221.0581 H   0  0  0  0  0  0  0  0  0  0  0  0
  142.0739   72.4302  219.3907 H   0  0  0  0  0  0  0  0  0  0  0  0
  143.9702   71.8067  221.6079 H   0  0  0  0  0  0  0  0  0  0  0  0
  144.2960   71.8089  219.8709 H   0  0  0  0  0  0  0  0  0  0  0  0
  144.7223   73.9738  221.8743 H   0  0  0  0  0  0  0  0  0  0  0  0
  145.3999   73.8645  220.2551 H   0  0  0  0  0  0  0  0  0  0  0  0
  143.5110   75.7520  220.6988 H   0  0  0  0  0  0  0  0  0  0  0  0
  144.3162   74.4058  218.4308 H   0  0  0  0  0  0  0  0  0  0  0  0
  142.5248   74.1795  218.4554 H   0  0  0  0  0  0  0  0  0  0  0  0
  144.1177   76.2739  216.3454 H   0  0  0  0  0  0  0  0  0  0  0  0
  143.3220   78.7620  216.4810 H   0  0  0  0  0  0  0  0  0  0  0  0
  142.1045   79.2516  218.7072 H   0  0  0  0  0  0  0  0  0  0  0  0
  138.7460   69.0322  222.8665 H   0  0  0  0  0  0  0  0  0  0  0  0
  138.7157   67.5494  224.8361 H   0  0  0  0  0  0  0  0  0  0  0  0
  139.3569   67.2241  227.1622 H   0  0  0  0  0  0  0  0  0  0  0  0
  140.4389   68.0178  229.2374 H   0  0  0  0  0  0  0  0  0  0  0  0
  141.5010   70.2425  229.2753 H   0  0  0  0  0  0  0  0  0  0  0  0
  141.5060   71.6947  227.2752 H   0  0  0  0  0  0  0  0  0  0  0  0
  1  2  2  0
  2  3  1  0
  3  4  1  0
  4  5  1  0
  5  6  2  0
  5  7  1  0
  7  8  1  0
  8  9  1  0
  9 10  1  0
 10 11  1  0
 11 12  1  0
 12 13  1  0
 13 14  2  0
 14 15  1  0
 15 16  1  0
 16 17  2  0
  2 18  1  0
 18 19  2  0
 19 20  1  0
 20 21  2  0
 21 22  1  0
 22 23  2  0
 23 24  1  0
 24 25  2  0
 25 26  1  0
 26 27  2  0
 11  7  1  0
 17 13  1  0
 27 18  1  0
 26 21  1  0
  3 28  1  0
  4 29  1  0
  4 30  1  0
  8 31  1  0
  8 32  1  0
  9 33  1  0
  9 34  1  0
 10 35  1  0
 10 36  1  0
 11 37  1  1
 12 38  1  0
 12 39  1  0
 14 40  1  0
 15 41  1  0
 16 42  1  0
 19 43  1  0
 20 44  1  0
 22 45  1  0
 23 46  1  0
 24 47  1  0
 25 48  1  0
M  END
>  <smiles>  (4) 
O=C(NCC(=O)N1CCC[C@H]1Cc1c[nH]cn1)c1ccc2ccccc2n1

>  <score_type>  (4) 
oracle

>  <origin>  (4) 
autodockgpu

>  <m_score__min__energy>  (4) 
-8.4499999999999993

>  <m_primary>  (4) 
energy

>  <rmsd>  (4) 
3.0212637369331348

>  <m_score__min__rmsd>  (4) 
3.0212637369331348

>  <meeko>  (4) 
{"free_energy": -7.58, "intermolecular_energy": -9.37, "internal_energy": -1.47, "cluster_size": 3, "cluster_id": 5, "rank_in_cluster": 1}

>  <energy>  (4) 
-8.3

>  <cluster_rmsd>  (4) 
0.72

>  <cluster>  (4) 
1

$$$$

     RDKit          3D

 48 51  0  0  0  0  0  0  0  0999 V2000
  138.8330   75.3550  221.8790 O   0  0  0  0  0  0  0  0  0  0  0  0
  139.9690   75.8820  221.8160 C   0  0  0  0  0  0  0  0  0  0  0  0
  141.0190   75.1460  221.2280 N   0  0  0  0  0  0  0  0  0  0  0  0
  140.8020   73.8100  220.7060 C   0  0  0  0  0  0  0  0  0  0  0  0
  141.8460   72.8650  221.1240 C   0  0  0  0  0  0  0  0  0  0  0  0
  141.7090   71.9940  222.0170 O   0  0  0  0  0  0  0  0  0  0  0  0
  143.1090   72.9320  220.4780 N   0  0  0  0  0  0  0  0  0  0  0  0
  143.6940   71.8670  219.6970 C   0  0  0  0  0  0  0  0  0  0  0  0
  145.1640   71.9320  220.0390 C   0  0  0  0  0  0  0  0  0  0  0  0
  145.3620   73.2820  220.7170 C   0  0  0  0  0  0  0  0  0  0  0  0
  144.0690   74.0290  220.4450 C   0  0  1  0  0  0  0  0  0  0  0  0
  144.0690   74.6300  219.0530 C   0  0  0  0  0  0  0  0  0  0  0  0
  143.1410   75.7810  218.9780 C   0  0  0  0  0  0  0  0  0  0  0  0
  142.1240   76.0170  218.0590 C   0  0  0  0  0  0  0  0  0  0  0  0
  141.5620   77.1950  218.4070 N   0  0  0  0  0  0  0  0  0  0  0  0
  142.1800   77.6980  219.4940 C   0  0  0  0  0  0  0  0  0  0  0  0
  143.1310   76.8240  219.8210 N   0  0  0  0  0  0  0  0  0  0  0  0
  140.2060   77.2230  222.3350 C   0  0  0  0  0  0  0  0  0  0  0  0
  139.1460   78.0170  222.7100 C   0  0  0  0  0  0  0  0  0  0  0  0
  139.2950   79.2840  223.2050 C   0  0  0  0  0  0  0  0  0  0  0  0
  140.6010   79.7650  223.3230 C   0  0  0  0  0  0  0  0  0  0  0  0
  140.8360   81.0330  223.8130 C   0  0  0  0  0  0  0  0  0  0  0  0
  142.1100   81.5230  223.9360 C   0  0  0  0  0  0  0  0  0  0  0  0
  143.1640   80.7290  223.5610 C   0  0  0  0  0  0  0  0  0  0  0  0
  142.9780   79.4580  223.0680 C   0  0  0  0  0  0  0  0  0  0  0  0
  141.6730   78.9710  222.9470 C   0  0  0  0  0  0  0  0  0  0  0  0
  141.4500   77.7340  222.4680 N   0  0  0  0  0  0  0  0  0  0  0  0
  141.9640   75.6210  221.1910 H   0  0  0  0  0  0  0  0  0  0  0  0
  139.8298   73.4438  221.0676 H   0  0  0  0  0  0  0  0  0  0  0  0
  140.8285   73.8723  219.6081 H   0  0  0  0  0  0  0  0  0  0  0  0
  143.2685   70.8934  219.9818 H   0  0  0  0  0  0  0  0  0  0  0  0
  143.5036   71.9770  218.6192 H   0  0  0  0  0  0  0  0  0  0  0  0
  145.4367   71.1144  220.7224 H   0  0  0  0  0  0  0  0  0  0  0  0
  145.7971   71.8259  219.1457 H   0  0  0  0  0  0  0  0  0  0  0  0
  145.5196   73.1560  221.7983 H   0  0  0  0  0  0  0  0  0  0  0  0
  146.2453   73.8176  220.3390 H   0  0  0  0  0  0  0  0  0  0  0  0
  143.8801   74.8569  221.1442 H   0  0  0  0  0  0  0  0  0  0  0  0
  145.0858   74.9698  218.8068 H   0  0  0  0  0  0  0  0  0  0  0  0
  143.7382   73.8628  218.3374 H   0  0  0  0  0  0  0  0  0  0  0  0
  141.8347   75.3722  217.2160 H   0  0  0  0  0  0  0  0  0  0  0  0
  140.7770   77.6570  217.9260 H   0  0  0  0  0  0  0  0  0  0  0  0
  141.9460   78.6417  220.0085 H   0  0  0  0  0  0  0  0  0  0  0  0
  138.1282   77.6128  222.6066 H   0  0  0  0  0  0  0  0  0  0  0  0
  138.4276   79.8946  223.4961 H   0  0  0  0  0  0  0  0  0  0  0  0
  139.9846   81.6628  224.1107 H   0  0  0  0  0  0  0  0  0  0  0  0
  142.2844   82.5356  224.3287 H   0  0  0  0  0  0  0  0  0  0  0  0
  144.1877   81.1199  223.6573 H   0  0  0  0  0  0  0  0  0  0  0  0
  143.8381   78.8379  222.7751 H   0  0  0  0  0  0  0  0  0  0  0  0
  1  2  2  0
  2  3  1  0
  3  4  1  0
  4  5  1  0
  5  6  2  0
  5  7  1  0
  7  8  1  0
  8  9  1  0
  9 10  1  0
 10 11  1  0
 11 12  1  0
 12 13  1  0
 13 14  2  0
 14 15  1  0
 15 16  1  0
 16 17  2  0
  2 18  1  0
 18 19  2  0
 19 20  1  0
 20 21  2  0
 21 22  1  0
 22 23  2  0
 23 24  1  0
 24 25  2  0
 25 26  1  0
 26 27  2  0
 11  7  1  0
 17 13  1  0
 27 18  1  0
 26 21  1  0
  3 28  1  0
  4 29  1  0
  4 30  1  0
  8 31  1  0
  8 32  1  0
  9 33  1  0
  9 34  1  0
 10 35  1  0
 10 36  1  0
 11 37  1  1
 12 38  1  0
 12 39  1  0
 14 40  1  0
 15 41  1  0
 16 42  1  0
 19 43  1  0
 20 44  1  0
 22 45  1  0
 23 46  1  0
 24 47  1  0
 25 48  1  0
M  END
>  <smiles>  (5) 
O=C(NCC(=O)N1CCC[C@H]1Cc1c[nH]cn1)c1ccc2ccccc2n1

>  <score_type>  (5) 
oracle

>  <origin>  (5) 
autodockgpu

>  <m_score__min__energy>  (5) 
-8.4499999999999993

>  <m_primary>  (5) 
energy

>  <rmsd>  (5) 
7.846085121534343

>  <m_score__min__rmsd>  (5) 
7.846085121534343

>  <meeko>  (5) 
{"free_energy": -6.31, "intermolecular_energy": -8.1, "internal_energy": -2.72, "cluster_size": 10, "cluster_id": 8, "rank_in_cluster": 5}

>  <energy>  (5) 
-7.97

>  <cluster_rmsd>  (5) 
1.24

>  <cluster>  (5) 
1

$$$$

     RDKit          3D

 48 51  0  0  0  0  0  0  0  0999 V2000
  136.1680   70.7490  223.2490 O   0  0  0  0  0  0  0  0  0  0  0  0
  136.0600   71.9380  223.6320 C   0  0  0  0  0  0  0  0  0  0  0  0
  136.9320   72.9030  223.0860 N   0  0  0  0  0  0  0  0  0  0  0  0
  137.9340   72.5400  222.1020 C   0  0  0  0  0  0  0  0  0  0  0  0
  139.2400   72.2480  222.7080 C   0  0  0  0  0  0  0  0  0  0  0  0
  140.2650   72.9620  222.5800 O   0  0  0  0  0  0  0  0  0  0  0  0
  139.3650   71.0750  223.4990 N   0  0  0  0  0  0  0  0  0  0  0  0
  139.3870   69.7290  222.9780 C   0  0  0  0  0  0  0  0  0  0  0  0
  138.6050   68.9340  223.9960 C   0  0  0  0  0  0  0  0  0  0  0  0
  138.5080   69.8310  225.2230 C   0  0  0  0  0  0  0  0  0  0  0  0
  139.4960   70.9490  224.9450 C   0  0  1  0  0  0  0  0  0  0  0  0
  140.9130   70.5160  225.2670 C   0  0  0  0  0  0  0  0  0  0  0  0
  140.9280   69.5650  226.4020 C   0  0  0  0  0  0  0  0  0  0  0  0
  141.0590   68.1810  226.3720 C   0  0  0  0  0  0  0  0  0  0  0  0
  141.0140   67.7670  227.6560 N   0  0  0  0  0  0  0  0  0  0  0  0
  140.8610   68.8250  228.4770 C   0  0  0  0  0  0  0  0  0  0  0  0
  140.8120   69.9020  227.6940 N   0  0  0  0  0  0  0  0  0  0  0  0
  135.0590   72.3210  224.6200 C   0  0  0  0  0  0  0  0  0  0  0  0
  134.2710   71.3620  225.2150 C   0  0  0  0  0  0  0  0  0  0  0  0
  133.3140   71.6500  226.1480 C   0  0  0  0  0  0  0  0  0  0  0  0
  133.1520   72.9940  226.4930 C   0  0  0  0  0  0  0  0  0  0  0  0
  132.2080   73.3660  227.4260 C   0  0  0  0  0  0  0  0  0  0  0  0
  132.0340   74.6800  227.7780 C   0  0  0  0  0  0  0  0  0  0  0  0
  132.8210   75.6340  227.1820 C   0  0  0  0  0  0  0  0  0  0  0  0
  133.7760   75.3090  226.2470 C   0  0  0  0  0  0  0  0  0  0  0  0
  133.9420   73.9650  225.8970 C   0  0  0  0  0  0  0  0  0  0  0  0
  134.8640   73.6080  224.9860 N   0  0  0  0  0  0  0  0  0  0  0  0
  136.8120   73.8950  223.4320 H   0  0  0  0  0  0  0  0  0  0  0  0
  137.5890   71.6467  221.5607 H   0  0  0  0  0  0  0  0  0  0  0  0
  138.0642   73.3982  221.4264 H   0  0  0  0  0  0  0  0  0  0  0  0
  138.9042   69.6833  221.9907 H   0  0  0  0  0  0  0  0  0  0  0  0
  140.4081   69.3462  222.8335 H   0  0  0  0  0  0  0  0  0  0  0  0
  137.6017   68.6980  223.6117 H   0  0  0  0  0  0  0  0  0  0  0  0
  139.0922   67.9754  224.2279 H   0  0  0  0  0  0  0  0  0  0  0  0
  137.4890   70.2297  225.3354 H   0  0  0  0  0  0  0  0  0  0  0  0
  138.7309   69.2938  226.1567 H   0  0  0  0  0  0  0  0  0  0  0  0
  139.3069   71.8627  225.5276 H   0  0  0  0  0  0  0  0  0  0  0  0
  141.3509   70.0293  224.3831 H   0  0  0  0  0  0  0  0  0  0  0  0
  141.4985   71.4049  225.5445 H   0  0  0  0  0  0  0  0  0  0  0  0
  141.1761   67.5491  225.4793 H   0  0  0  0  0  0  0  0  0  0  0  0
  141.0840   66.7910  227.9810 H   0  0  0  0  0  0  0  0  0  0  0  0
  140.7906   68.8036  229.5745 H   0  0  0  0  0  0  0  0  0  0  0  0
  134.4186   70.3112  224.9253 H   0  0  0  0  0  0  0  0  0  0  0  0
  132.7002   70.8602  226.6057 H   0  0  0  0  0  0  0  0  0  0  0  0
  131.5821   72.5939  227.8973 H   0  0  0  0  0  0  0  0  0  0  0  0
  131.2776   74.9644  228.5243 H   0  0  0  0  0  0  0  0  0  0  0  0
  132.6838   76.6893  227.4604 H   0  0  0  0  0  0  0  0  0  0  0  0
  134.3966   76.0902  225.7839 H   0  0  0  0  0  0  0  0  0  0  0  0
  1  2  2  0
  2  3  1  0
  3  4  1  0
  4  5  1  0
  5  6  2  0
  5  7  1  0
  7  8  1  0
  8  9  1  0
  9 10  1  0
 10 11  1  0
 11 12  1  0
 12 13  1  0
 13 14  2  0
 14 15  1  0
 15 16  1  0
 16 17  2  0
  2 18  1  0
 18 19  2  0
 19 20  1  0
 20 21  2  0
 21 22  1  0
 22 23  2  0
 23 24  1  0
 24 25  2  0
 25 26  1  0
 26 27  2  0
 11  7  1  0
 17 13  1  0
 27 18  1  0
 26 21  1  0
  3 28  1  0
  4 29  1  0
  4 30  1  0
  8 31  1  0
  8 32  1  0
  9 33  1  0
  9 34  1  0
 10 35  1  0
 10 36  1  0
 11 37  1  1
 12 38  1  0
 12 39  1  0
 14 40  1  0
 15 41  1  0
 16 42  1  0
 19 43  1  0
 20 44  1  0
 22 45  1  0
 23 46  1  0
 24 47  1  0
 25 48  1  0
M  END
>  <smiles>  (6) 
O=C(NCC(=O)N1CCC[C@H]1Cc1c[nH]cn1)c1ccc2ccccc2n1

>  <score_type>  (6) 
oracle

>  <origin>  (6) 
autodockgpu

>  <m_score__min__energy>  (6) 
-8.4499999999999993

>  <m_primary>  (6) 
energy

>  <rmsd>  (6) 
7.225758309201984

>  <m_score__min__rmsd>  (6) 
7.225758309201984

>  <meeko>  (6) 
{"free_energy": -7.1, "intermolecular_energy": -8.89, "internal_energy": -1.76, "cluster_size": 2, "cluster_id": 7, "rank_in_cluster": 1}

>  <energy>  (6) 
-7.87

>  <cluster_rmsd>  (6) 
1.32

>  <cluster>  (6) 
1

$$$$

     RDKit          3D

 48 51  0  0  0  0  0  0  0  0999 V2000
  141.5170   71.5890  221.9640 O   0  0  0  0  0  0  0  0  0  0  0  0
  140.7050   71.9930  222.8300 C   0  0  0  0  0  0  0  0  0  0  0  0
  139.9500   73.1520  222.5540 N   0  0  0  0  0  0  0  0  0  0  0  0
  140.0990   73.8680  221.3010 C   0  0  0  0  0  0  0  0  0  0  0  0
  140.5570   75.2500  221.4930 C   0  0  0  0  0  0  0  0  0  0  0  0
  140.3680   75.9310  222.5300 O   0  0  0  0  0  0  0  0  0  0  0  0
  141.2670   75.8740  220.4330 N   0  0  0  0  0  0  0  0  0  0  0  0
  141.2860   77.2960  220.1780 C   0  0  0  0  0  0  0  0  0  0  0  0
  141.2590   77.3940  218.6710 C   0  0  0  0  0  0  0  0  0  0  0  0
  141.6010   75.9980  218.1680 C   0  0  0  0  0  0  0  0  0  0  0  0
  142.1020   75.2700  219.4020 C   0  0  1  0  0  0  0  0  0  0  0  0
  143.5500   75.6150  219.6890 C   0  0  0  0  0  0  0  0  0  0  0  0
  144.2460   74.4750  220.3280 C   0  0  0  0  0  0  0  0  0  0  0  0
  143.7770   73.1850  220.5470 C   0  0  0  0  0  0  0  0  0  0  0  0
  144.7760   72.5150  221.1600 N   0  0  0  0  0  0  0  0  0  0  0  0
  145.8390   73.3260  221.3310 C   0  0  0  0  0  0  0  0  0  0  0  0
  145.4940   74.5070  220.8190 N   0  0  0  0  0  0  0  0  0  0  0  0
  140.5410   71.2870  224.0950 C   0  0  0  0  0  0  0  0  0  0  0  0
  140.9160   71.8870  225.2750 C   0  0  0  0  0  0  0  0  0  0  0  0
  140.7910   71.2840  226.4970 C   0  0  0  0  0  0  0  0  0  0  0  0
  140.2520   69.9950  226.5120 C   0  0  0  0  0  0  0  0  0  0  0  0
  140.0940   69.3190  227.7030 C   0  0  0  0  0  0  0  0  0  0  0  0
  139.5670   68.0540  227.7390 C   0  0  0  0  0  0  0  0  0  0  0  0
  139.1940   67.4590  226.5600 C   0  0  0  0  0  0  0  0  0  0  0  0
  139.3340   68.0950  225.3480 C   0  0  0  0  0  0  0  0  0  0  0  0
  139.8730   69.3850  225.3270 C   0  0  0  0  0  0  0  0  0  0  0  0
  140.0260   70.0400  224.1610 N   0  0  0  0  0  0  0  0  0  0  0  0
  139.2750   73.4640  223.3070 H   0  0  0  0  0  0  0  0  0  0  0  0
  140.8325   73.3370  220.6765 H   0  0  0  0  0  0  0  0  0  0  0  0
  139.1107   73.9077  220.8196 H   0  0  0  0  0  0  0  0  0  0  0  0
  140.4041   77.7845  220.6180 H   0  0  0  0  0  0  0  0  0  0  0  0
  142.1607   77.7952  220.6204 H   0  0  0  0  0  0  0  0  0  0  0  0
  140.2597   77.6943  218.3228 H   0  0  0  0  0  0  0  0  0  0  0  0
  141.9676   78.1480  218.2977 H   0  0  0  0  0  0  0  0  0  0  0  0
  140.7092   75.5019  217.7575 H   0  0  0  0  0  0  0  0  0  0  0  0
  142.3438   76.0127  217.3568 H   0  0  0  0  0  0  0  0  0  0  0  0
  142.0509   74.1742  219.3203 H   0  0  0  0  0  0  0  0  0  0  0  0
  144.0558   75.8624  218.7440 H   0  0  0  0  0  0  0  0  0  0  0  0
  143.5781   76.4744  220.3751 H   0  0  0  0  0  0  0  0  0  0  0  0
  142.7877   72.7885  220.2747 H   0  0  0  0  0  0  0  0  0  0  0  0
  144.7500   71.5290  221.4600 H   0  0  0  0  0  0  0  0  0  0  0  0
  146.7994   73.0651  221.7996 H   0  0  0  0  0  0  0  0  0  0  0  0
  141.3374   72.9023  225.2340 H   0  0  0  0  0  0  0  0  0  0  0  0
  141.1002   71.7900  227.4235 H   0  0  0  0  0  0  0  0  0  0  0  0
  140.3967   69.8041  228.6427 H   0  0  0  0  0  0  0  0  0  0  0  0
  139.4453   67.5253  228.6959 H   0  0  0  0  0  0  0  0  0  0  0  0
  138.7707   66.4440  226.5846 H   0  0  0  0  0  0  0  0  0  0  0  0
  139.0283   67.5990  224.4150 H   0  0  0  0  0  0  0  0  0  0  0  0
  1  2  2  0
  2  3  1  0
  3  4  1  0
  4  5  1  0
  5  6  2  0
  5  7  1  0
  7  8  1  0
  8  9  1  0
  9 10  1  0
 10 11  1  0
 11 12  1  0
 12 13  1  0
 13 14  2  0
 14 15  1  0
 15 16  1  0
 16 17  2  0
  2 18  1  0
 18 19  2  0
 19 20  1  0
 20 21  2  0
 21 22  1  0
 22 23  2  0
 23 24  1  0
 24 25  2  0
 25 26  1  0
 26 27  2  0
 11  7  1  0
 17 13  1  0
 27 18  1  0
 26 21  1  0
  3 28  1  0
  4 29  1  0
  4 30  1  0
  8 31  1  0
  8 32  1  0
  9 33  1  0
  9 34  1  0
 10 35  1  0
 10 36  1  0
 11 37  1  6
 12 38  1  0
 12 39  1  0
 14 40  1  0
 15 41  1  0
 16 42  1  0
 19 43  1  0
 20 44  1  0
 22 45  1  0
 23 46  1  0
 24 47  1  0
 25 48  1  0
M  END
>  <smiles>  (7) 
O=C(NCC(=O)N1CCC[C@H]1Cc1c[nH]cn1)c1ccc2ccccc2n1

>  <score_type>  (7) 
oracle

>  <origin>  (7) 
autodockgpu

>  <m_score__min__energy>  (7) 
-8.4499999999999993

>  <m_primary>  (7) 
energy

>  <rmsd>  (7) 
3.0558878419773383

>  <m_score__min__rmsd>  (7) 
3.0558878419773383

>  <meeko>  (7) 
{"free_energy": -7.79, "intermolecular_energy": -9.58, "internal_energy": -1.38, "cluster_size": 14, "cluster_id": 1, "rank_in_cluster": 9}

>  <energy>  (7) 
-7.81

>  <cluster_rmsd>  (7) 
0.99

>  <cluster>  (7) 
1

$$$$

     RDKit          3D

 48 51  0  0  0  0  0  0  0  0999 V2000
  138.7910   72.0670  222.2330 O   0  0  0  0  0  0  0  0  0  0  0  0
  139.8590   71.6080  222.7040 C   0  0  0  0  0  0  0  0  0  0  0  0
  141.0760   71.9810  222.0970 N   0  0  0  0  0  0  0  0  0  0  0  0
  141.1050   72.8740  220.9550 C   0  0  0  0  0  0  0  0  0  0  0  0
  140.8940   74.2780  221.3310 C   0  0  0  0  0  0  0  0  0  0  0  0
  140.1820   74.6640  222.2900 O   0  0  0  0  0  0  0  0  0  0  0  0
  141.5370   75.2830  220.5600 N   0  0  0  0  0  0  0  0  0  0  0  0
  141.4490   76.7010  220.8170 C   0  0  0  0  0  0  0  0  0  0  0  0
  141.3860   77.3160  219.4390 C   0  0  0  0  0  0  0  0  0  0  0  0
  141.8180   76.2110  218.4830 C   0  0  0  0  0  0  0  0  0  0  0  0
  142.3930   75.1380  219.3900 C   0  0  1  0  0  0  0  0  0  0  0  0
  143.8180   75.4680  219.7880 C   0  0  0  0  0  0  0  0  0  0  0  0
  144.6010   74.2320  220.0140 C   0  0  0  0  0  0  0  0  0  0  0  0
  145.2570   73.8190  221.1680 C   0  0  0  0  0  0  0  0  0  0  0  0
  145.8250   72.6280  220.8780 N   0  0  0  0  0  0  0  0  0  0  0  0
  145.5510   72.2850  219.6030 C   0  0  0  0  0  0  0  0  0  0  0  0
  144.8090   73.2710  219.1010 N   0  0  0  0  0  0  0  0  0  0  0  0
  139.8490   70.7090  223.8520 C   0  0  0  0  0  0  0  0  0  0  0  0
  139.2070   69.4940  223.7740 C   0  0  0  0  0  0  0  0  0  0  0  0
  139.1590   68.6030  224.8100 C   0  0  0  0  0  0  0  0  0  0  0  0
  139.8020   68.9750  225.9930 C   0  0  0  0  0  0  0  0  0  0  0  0
  139.7980   68.1320  227.0850 C   0  0  0  0  0  0  0  0  0  0  0  0
  140.4230   68.4790  228.2540 C   0  0  0  0  0  0  0  0  0  0  0  0
  141.0620   69.6920  228.3290 C   0  0  0  0  0  0  0  0  0  0  0  0
  141.0920   70.5650  227.2660 C   0  0  0  0  0  0  0  0  0  0  0  0
  140.4490   70.1980  226.0790 C   0  0  0  0  0  0  0  0  0  0  0  0
  140.4560   71.0240  225.0180 N   0  0  0  0  0  0  0  0  0  0  0  0
  141.9570   71.5750  222.5210 H   0  0  0  0  0  0  0  0  0  0  0  0
  142.0845   72.7845  220.4624 H   0  0  0  0  0  0  0  0  0  0  0  0
  140.2848   72.5821  220.2826 H   0  0  0  0  0  0  0  0  0  0  0  0
  140.5430   76.9389  221.3937 H   0  0  0  0  0  0  0  0  0  0  0  0
  142.2941   77.0778  221.4118 H   0  0  0  0  0  0  0  0  0  0  0  0
  140.3612   77.6440  219.2103 H   0  0  0  0  0  0  0  0  0  0  0  0
  142.0309   78.2033  219.3570 H   0  0  0  0  0  0  0  0  0  0  0  0
  140.9565   75.8244  217.9187 H   0  0  0  0  0  0  0  0  0  0  0  0
  142.5425   76.5617  217.7333 H   0  0  0  0  0  0  0  0  0  0  0  0
  142.4187   74.1379  218.9328 H   0  0  0  0  0  0  0  0  0  0  0  0
  144.2905   76.0523  218.9847 H   0  0  0  0  0  0  0  0  0  0  0  0
  143.7975   76.0479  220.7225 H   0  0  0  0  0  0  0  0  0  0  0  0
  145.3042   74.3556  222.1271 H   0  0  0  0  0  0  0  0  0  0  0  0
  146.3860   72.0520  221.5220 H   0  0  0  0  0  0  0  0  0  0  0  0
  145.8756   71.3726  219.0812 H   0  0  0  0  0  0  0  0  0  0  0  0
  138.7076   69.2265  222.8311 H   0  0  0  0  0  0  0  0  0  0  0  0
  138.6385   67.6385  224.7163 H   0  0  0  0  0  0  0  0  0  0  0  0
  139.2831   67.1624  227.0160 H   0  0  0  0  0  0  0  0  0  0  0  0
  140.4130   67.7976  229.1174 H   0  0  0  0  0  0  0  0  0  0  0  0
  141.5645   69.9740  229.2660 H   0  0  0  0  0  0  0  0  0  0  0  0
  141.6108   71.5315  227.3478 H   0  0  0  0  0  0  0  0  0  0  0  0
  1  2  2  0
  2  3  1  0
  3  4  1  0
  4  5  1  0
  5  6  2  0
  5  7  1  0
  7  8  1  0
  8  9  1  0
  9 10  1  0
 10 11  1  0
 11 12  1  0
 12 13  1  0
 13 14  2  0
 14 15  1  0
 15 16  1  0
 16 17  2  0
  2 18  1  0
 18 19  2  0
 19 20  1  0
 20 21  2  0
 21 22  1  0
 22 23  2  0
 23 24  1  0
 24 25  2  0
 25 26  1  0
 26 27  2  0
 11  7  1  0
 17 13  1  0
 27 18  1  0
 26 21  1  0
  3 28  1  0
  4 29  1  0
  4 30  1  0
  8 31  1  0
  8 32  1  0
  9 33  1  0
  9 34  1  0
 10 35  1  0
 10 36  1  0
 11 37  1  6
 12 38  1  0
 12 39  1  0
 14 40  1  0
 15 41  1  0
 16 42  1  0
 19 43  1  0
 20 44  1  0
 22 45  1  0
 23 46  1  0
 24 47  1  0
 25 48  1  0
M  END
>  <smiles>  (8) 
O=C(NCC(=O)N1CCC[C@H]1Cc1c[nH]cn1)c1ccc2ccccc2n1

>  <score_type>  (8) 
oracle

>  <origin>  (8) 
autodockgpu

>  <m_score__min__energy>  (8) 
-8.4499999999999993

>  <m_primary>  (8) 
energy

>  <rmsd>  (8) 
2.2650632149674412

>  <m_score__min__rmsd>  (8) 
2.2650632149674412

>  <meeko>  (8) 
{"free_energy": -7.87, "intermolecular_energy": -9.66, "internal_energy": -1.2, "cluster_size": 14, "cluster_id": 1, "rank_in_cluster": 6}

>  <energy>  (8) 
-7.79

>  <cluster_rmsd>  (8) 
0.79

>  <cluster>  (8) 
1

$$$$

     RDKit          3D

 48 51  0  0  0  0  0  0  0  0999 V2000
  139.5660   74.5330  222.3780 O   0  0  0  0  0  0  0  0  0  0  0  0
  140.0700   75.4370  221.6690 C   0  0  0  0  0  0  0  0  0  0  0  0
  140.5240   75.1020  220.3760 N   0  0  0  0  0  0  0  0  0  0  0  0
  140.4160   73.7490  219.8670 C   0  0  0  0  0  0  0  0  0  0  0  0
  141.5070   72.8820  220.3320 C   0  0  0  0  0  0  0  0  0  0  0  0
  141.3540   71.8360  221.0080 O   0  0  0  0  0  0  0  0  0  0  0  0
  142.8390   73.2450  219.9980 N   0  0  0  0  0  0  0  0  0  0  0  0
  143.8830   72.3120  219.6430 C   0  0  0  0  0  0  0  0  0  0  0  0
  145.1200   72.8880  220.2910 C   0  0  0  0  0  0  0  0  0  0  0  0
  144.7520   74.3180  220.6650 C   0  0  0  0  0  0  0  0  0  0  0  0
  143.4450   74.5690  219.9360 C   0  0  1  0  0  0  0  0  0  0  0  0
  143.6900   74.9210  218.4820 C   0  0  0  0  0  0  0  0  0  0  0  0
  143.2740   76.3140  218.2000 C   0  0  0  0  0  0  0  0  0  0  0  0
  143.5110   77.0770  217.0620 C   0  0  0  0  0  0  0  0  0  0  0  0
  142.9330   78.2780  217.2810 N   0  0  0  0  0  0  0  0  0  0  0  0
  142.3500   78.2940  218.4960 C   0  0  0  0  0  0  0  0  0  0  0  0
  142.5690   77.0940  219.0320 N   0  0  0  0  0  0  0  0  0  0  0  0
  140.1880   76.8030  222.1640 C   0  0  0  0  0  0  0  0  0  0  0  0
  139.0660   77.4910  222.5700 C   0  0  0  0  0  0  0  0  0  0  0  0
  139.1030   78.7730  223.0440 C   0  0  0  0  0  0  0  0  0  0  0  0
  140.3560   79.3870  223.1060 C   0  0  0  0  0  0  0  0  0  0  0  0
  140.4770   80.6800  223.5720 C   0  0  0  0  0  0  0  0  0  0  0  0
  141.6990   81.3000  223.6400 C   0  0  0  0  0  0  0  0  0  0  0  0
  142.8140   80.6120  223.2330 C   0  0  0  0  0  0  0  0  0  0  0  0
  142.7410   79.3210  222.7620 C   0  0  0  0  0  0  0  0  0  0  0  0
  141.4890   78.7010  222.6970 C   0  0  0  0  0  0  0  0  0  0  0  0
  141.3770   77.4410  222.2420 N   0  0  0  0  0  0  0  0  0  0  0  0
  140.9430   75.8890  219.8060 H   0  0  0  0  0  0  0  0  0  0  0  0
  139.4593   73.3218  220.2020 H   0  0  0  0  0  0  0  0  0  0  0  0
  140.4753   73.8000  218.7698 H   0  0  0  0  0  0  0  0  0  0  0  0
  143.6638   71.3097  220.0398 H   0  0  0  0  0  0  0  0  0  0  0  0
  143.9913   72.1900  218.5552 H   0  0  0  0  0  0  0  0  0  0  0  0
  145.3877   72.3120  221.1891 H   0  0  0  0  0  0  0  0  0  0  0  0
  145.9891   72.8520  219.6177 H   0  0  0  0  0  0  0  0  0  0  0  0
  144.6169   74.4144  221.7524 H   0  0  0  0  0  0  0  0  0  0  0  0
  145.5341   75.0403  220.3884 H   0  0  0  0  0  0  0  0  0  0  0  0
  142.8518   75.3914  220.3622 H   0  0  0  0  0  0  0  0  0  0  0  0
  144.7621   74.8131  218.2607 H   0  0  0  0  0  0  0  0  0  0  0  0
  143.0981   74.2420  217.8507 H   0  0  0  0  0  0  0  0  0  0  0  0
  144.0604   76.7645  216.1617 H   0  0  0  0  0  0  0  0  0  0  0  0
  142.9270   79.0750  216.6290 H   0  0  0  0  0  0  0  0  0  0  0  0
  141.8025   79.1310  218.9539 H   0  0  0  0  0  0  0  0  0  0  0  0
  138.0917   76.9839  222.5099 H   0  0  0  0  0  0  0  0  0  0  0  0
  138.1890   79.2962  223.3616 H   0  0  0  0  0  0  0  0  0  0  0  0
  139.5770   81.2238  223.8950 H   0  0  0  0  0  0  0  0  0  0  0  0
  141.7833   82.3309  224.0144 H   0  0  0  0  0  0  0  0  0  0  0  0
  143.7951   81.1068  223.2847 H   0  0  0  0  0  0  0  0  0  0  0  0
  143.6487   78.7877  222.4432 H   0  0  0  0  0  0  0  0  0  0  0  0
  1  2  2  0
  2  3  1  0
  3  4  1  0
  4  5  1  0
  5  6  2  0
  5  7  1  0
  7  8  1  0
  8  9  1  0
  9 10  1  0
 10 11  1  0
 11 12  1  0
 12 13  1  0
 13 14  2  0
 14 15  1  0
 15 16  1  0
 16 17  2  0
  2 18  1  0
 18 19  2  0
 19 20  1  0
 20 21  2  0
 21 22  1  0
 22 23  2  0
 23 24  1  0
 24 25  2  0
 25 26  1  0
 26 27  2  0
 11  7  1  0
 17 13  1  0
 27 18  1  0
 26 21  1  0
  3 28  1  0
  4 29  1  0
  4 30  1  0
  8 31  1  0
  8 32  1  0
  9 33  1  0
  9 34  1  0
 10 35  1  0
 10 36  1  0
 11 37  1  1
 12 38  1  0
 12 39  1  0
 14 40  1  0
 15 41  1  0
 16 42  1  0
 19 43  1  0
 20 44  1  0
 22 45  1  0
 23 46  1  0
 24 47  1  0
 25 48  1  0
M  END
>  <smiles>  (9) 
O=C(NCC(=O)N1CCC[C@H]1Cc1c[nH]cn1)c1ccc2ccccc2n1

>  <score_type>  (9) 
oracle

>  <origin>  (9) 
autodockgpu

>  <m_score__min__energy>  (9) 
-8.4499999999999993

>  <m_primary>  (9) 
energy

>  <rmsd>  (9) 
7.550011924565381

>  <m_score__min__rmsd>  (9) 
7.550011924565381

>  <meeko>  (9) 
{"free_energy": -6.81, "intermolecular_energy": -8.6, "internal_energy": -2.45, "cluster_size": 10, "cluster_id": 8, "rank_in_cluster": 3}

>  <energy>  (9) 
-7.79

>  <cluster_rmsd>  (9) 
1.02

>  <cluster>  (9) 
1

$$$$

     RDKit          3D

 48 51  0  0  0  0  0  0  0  0999 V2000
  141.0910   71.7040  221.4350 O   0  0  0  0  0  0  0  0  0  0  0  0
  140.4840   72.2200  222.4040 C   0  0  0  0  0  0  0  0  0  0  0  0
  140.0340   73.5510  222.2830 N   0  0  0  0  0  0  0  0  0  0  0  0
  140.2600   74.3150  221.0710 C   0  0  0  0  0  0  0  0  0  0  0  0
  140.0260   75.7530  221.2590 C   0  0  0  0  0  0  0  0  0  0  0  0
  139.3760   76.2560  222.2070 O   0  0  0  0  0  0  0  0  0  0  0  0
  140.5700   76.6510  220.3030 N   0  0  0  0  0  0  0  0  0  0  0  0
  139.8990   77.0790  219.0990 C   0  0  0  0  0  0  0  0  0  0  0  0
  141.0030   77.1410  218.0700 C   0  0  0  0  0  0  0  0  0  0  0  0
  142.3010   77.0980  218.8670 C   0  0  0  0  0  0  0  0  0  0  0  0
  141.8630   77.3240  220.3030 C   0  0  1  0  0  0  0  0  0  0  0  0
  141.6420   78.7980  220.5800 C   0  0  0  0  0  0  0  0  0  0  0  0
  141.8470   79.1000  222.0150 C   0  0  0  0  0  0  0  0  0  0  0  0
  141.4350   78.3690  223.1230 C   0  0  0  0  0  0  0  0  0  0  0  0
  141.8590   79.0510  224.2090 N   0  0  0  0  0  0  0  0  0  0  0  0
  142.5130   80.1660  223.8270 C   0  0  0  0  0  0  0  0  0  0  0  0
  142.4930   80.1730  222.4950 N   0  0  0  0  0  0  0  0  0  0  0  0
  140.2480   71.4680  223.6310 C   0  0  0  0  0  0  0  0  0  0  0  0
  139.5570   70.2780  223.5900 C   0  0  0  0  0  0  0  0  0  0  0  0
  139.3000   69.5210  224.7000 C   0  0  0  0  0  0  0  0  0  0  0  0
  139.7740   70.0090  225.9200 C   0  0  0  0  0  0  0  0  0  0  0  0
  139.5550   69.3050  227.0850 C   0  0  0  0  0  0  0  0  0  0  0  0
  140.0130   69.7660  228.2920 C   0  0  0  0  0  0  0  0  0  0  0  0
  140.7000   70.9530  228.3290 C   0  0  0  0  0  0  0  0  0  0  0  0
  140.9430   71.6900  227.1920 C   0  0  0  0  0  0  0  0  0  0  0  0
  140.4700   71.2070  225.9680 C   0  0  0  0  0  0  0  0  0  0  0  0
  140.6860   71.8980  224.8340 N   0  0  0  0  0  0  0  0  0  0  0  0
  139.5260   73.9540  223.1190 H   0  0  0  0  0  0  0  0  0  0  0  0
  141.3015   74.1664  220.7497 H   0  0  0  0  0  0  0  0  0  0  0  0
  139.5473   73.9573  220.3134 H   0  0  0  0  0  0  0  0  0  0  0  0
  139.1275   76.3534  218.8019 H   0  0  0  0  0  0  0  0  0  0  0  0
  139.3794   78.0407  219.2220 H   0  0  0  0  0  0  0  0  0  0  0  0
  140.9417   76.2806  217.3874 H   0  0  0  0  0  0  0  0  0  0  0  0
  140.9336   78.0465  217.4493 H   0  0  0  0  0  0  0  0  0  0  0  0
  142.7934   76.1204  218.7584 H   0  0  0  0  0  0  0  0  0  0  0  0
  143.0304   77.8474  218.5257 H   0  0  0  0  0  0  0  0  0  0  0  0
  142.5903   76.9705  221.0487 H   0  0  0  0  0  0  0  0  0  0  0  0
  142.3526   79.3877  219.9823 H   0  0  0  0  0  0  0  0  0  0  0  0
  140.6075   79.0562  220.3097 H   0  0  0  0  0  0  0  0  0  0  0  0
  140.8746   77.4225  223.1167 H   0  0  0  0  0  0  0  0  0  0  0  0
  141.7140   78.7750  225.1910 H   0  0  0  0  0  0  0  0  0  0  0  0
  142.9717   80.9197  224.4840 H   0  0  0  0  0  0  0  0  0  0  0  0
  139.1935   69.9180  222.6162 H   0  0  0  0  0  0  0  0  0  0  0  0
  138.7462   68.5728  224.6349 H   0  0  0  0  0  0  0  0  0  0  0  0
  139.0020   68.3549  227.0452 H   0  0  0  0  0  0  0  0  0  0  0  0
  139.8329   69.1944  229.2144 H   0  0  0  0  0  0  0  0  0  0  0  0
  141.0676   71.3269  229.2960 H   0  0  0  0  0  0  0  0  0  0  0  0
  141.4974   72.6386  227.2452 H   0  0  0  0  0  0  0  0  0  0  0  0
  1  2  2  0
  2  3  1  0
  3  4  1  0
  4  5  1  0
  5  6  2  0
  5  7  1  0
  7  8  1  0
  8  9  1  0
  9 10  1  0
 10 11  1  0
 11 12  1  0
 12 13  1  0
 13 14  2  0
 14 15  1  0
 15 16  1  0
 16 17  2  0
  2 18  1  0
 18 19  2  0
 19 20  1  0
 20 21  2  0
 21 22  1  0
 22 23  2  0
 23 24  1  0
 24 25  2  0
 25 26  1  0
 26 27  2  0
 11  7  1  0
 17 13  1  0
 27 18  1  0
 26 21  1  0
  3 28  1  0
  4 29  1  0
  4 30  1  0
  8 31  1  0
  8 32  1  0
  9 33  1  0
  9 34  1  0
 10 35  1  0
 10 36  1  0
 11 37  1  1
 12 38  1  0
 12 39  1  0
 14 40  1  0
 15 41  1  0
 16 42  1  0
 19 43  1  0
 20 44  1  0
 22 45  1  0
 23 46  1  0
 24 47  1  0
 25 48  1  0
M  END
>  <smiles>  (10) 
O=C(NCC(=O)N1CCC[C@H]1Cc1c[nH]cn1)c1ccc2ccccc2n1

>  <score_type>  (10) 
oracle

>  <origin>  (10) 
autodockgpu

>  <m_score__min__energy>  (10) 
-8.4499999999999993

>  <m_primary>  (10) 
energy

>  <rmsd>  (10) 
1.6957531586159023

>  <m_score__min__rmsd>  (10) 
1.6957531586159023

>  <meeko>  (10) 
{"free_energy": -7.66, "intermolecular_energy": -9.45, "internal_energy": -1.39, "cluster_size": 10, "cluster_id": 2, "rank_in_cluster": 8}

>  <energy>  (10) 
-7.75

>  <cluster_rmsd>  (10) 
0.94

>  <cluster>  (10) 
1

$$$$

     RDKit          3D

 48 51  0  0  0  0  0  0  0  0999 V2000
  137.4500   75.9820  222.3960 O   0  0  0  0  0  0  0  0  0  0  0  0
  138.6920   76.1520  222.4480 C   0  0  0  0  0  0  0  0  0  0  0  0
  139.5320   75.0380  222.2400 N   0  0  0  0  0  0  0  0  0  0  0  0
  138.9850   73.7220  221.9710 C   0  0  0  0  0  0  0  0  0  0  0  0
  139.9030   72.6400  222.3530 C   0  0  0  0  0  0  0  0  0  0  0  0
  141.1540   72.7040  222.2830 O   0  0  0  0  0  0  0  0  0  0  0  0
  139.3450   71.4280  222.8380 N   0  0  0  0  0  0  0  0  0  0  0  0
  139.2010   70.2190  222.0610 C   0  0  0  0  0  0  0  0  0  0  0  0
  137.8730   69.6570  222.5100 C   0  0  0  0  0  0  0  0  0  0  0  0
  137.5280   70.4050  223.7910 C   0  0  0  0  0  0  0  0  0  0  0  0
  138.8140   71.1220  224.1600 C   0  0  1  0  0  0  0  0  0  0  0  0
  139.7770   70.1860  224.8640 C   0  0  0  0  0  0  0  0  0  0  0  0
  140.3490   70.8290  226.0690 C   0  0  0  0  0  0  0  0  0  0  0  0
  140.2380   70.4350  227.3980 C   0  0  0  0  0  0  0  0  0  0  0  0
  140.9310   71.3390  228.1230 N   0  0  0  0  0  0  0  0  0  0  0  0
  141.4640   72.2710  227.3090 C   0  0  0  0  0  0  0  0  0  0  0  0
  141.0990   71.9400  226.0710 N   0  0  0  0  0  0  0  0  0  0  0  0
  139.2600   77.4670  222.7180 C   0  0  0  0  0  0  0  0  0  0  0  0
  138.4340   78.5500  222.9150 C   0  0  0  0  0  0  0  0  0  0  0  0
  138.8980   79.8110  223.1720 C   0  0  0  0  0  0  0  0  0  0  0  0
  140.2840   79.9730  223.2300 C   0  0  0  0  0  0  0  0  0  0  0  0
  140.8320   81.2140  223.4840 C   0  0  0  0  0  0  0  0  0  0  0  0
  142.1900   81.3930  223.5450 C   0  0  0  0  0  0  0  0  0  0  0  0
  143.0100   80.3110  223.3470 C   0  0  0  0  0  0  0  0  0  0  0  0
  142.5090   79.0550  223.0910 C   0  0  0  0  0  0  0  0  0  0  0  0
  141.1220   78.8870  223.0310 C   0  0  0  0  0  0  0  0  0  0  0  0
  140.5940   77.6750  222.7830 N   0  0  0  0  0  0  0  0  0  0  0  0
  140.5730   75.2180  222.2920 H   0  0  0  0  0  0  0  0  0  0  0  0
  138.0493   73.6067  222.5377 H   0  0  0  0  0  0  0  0  0  0  0  0
  138.8144   73.6472  220.8869 H   0  0  0  0  0  0  0  0  0  0  0  0
  139.1870   70.4446  220.9845 H   0  0  0  0  0  0  0  0  0  0  0  0
  140.0330   69.5154  222.2116 H   0  0  0  0  0  0  0  0  0  0  0  0
  137.1030   69.8308  221.7439 H   0  0  0  0  0  0  0  0  0  0  0  0
  137.9232   68.5702  222.6724 H   0  0  0  0  0  0  0  0  0  0  0  0
  136.7158   71.1258  223.6154 H   0  0  0  0  0  0  0  0  0  0  0  0
  137.1749   69.7349  224.5887 H   0  0  0  0  0  0  0  0  0  0  0  0
  138.6652   71.9814  224.8303 H   0  0  0  0  0  0  0  0  0  0  0  0
  139.2398   69.2737  225.1626 H   0  0  0  0  0  0  0  0  0  0  0  0
  140.5968   69.9389  224.1734 H   0  0  0  0  0  0  0  0  0  0  0  0
  139.6934   69.5600  227.7825 H   0  0  0  0  0  0  0  0  0  0  0  0
  141.0460   71.3340  229.1470 H   0  0  0  0  0  0  0  0  0  0  0  0
  142.0782   73.1335  227.6071 H   0  0  0  0  0  0  0  0  0  0  0  0
  137.3464   78.3939  222.8632 H   0  0  0  0  0  0  0  0  0  0  0  0
  138.2121   80.6571  223.3257 H   0  0  0  0  0  0  0  0  0  0  0  0
  140.1666   82.0758  223.6405 H   0  0  0  0  0  0  0  0  0  0  0  0
  142.6147   82.3869  223.7492 H   0  0  0  0  0  0  0  0  0  0  0  0
  144.1000   80.4515  223.3943 H   0  0  0  0  0  0  0  0  0  0  0  0
  143.1853   78.2013  222.9368 H   0  0  0  0  0  0  0  0  0  0  0  0
  1  2  2  0
  2  3  1  0
  3  4  1  0
  4  5  1  0
  5  6  2  0
  5  7  1  0
  7  8  1  0
  8  9  1  0
  9 10  1  0
 10 11  1  0
 11 12  1  0
 12 13  1  0
 13 14  2  0
 14 15  1  0
 15 16  1  0
 16 17  2  0
  2 18  1  0
 18 19  2  0
 19 20  1  0
 20 21  2  0
 21 22  1  0
 22 23  2  0
 23 24  1  0
 24 25  2  0
 25 26  1  0
 26 27  2  0
 11  7  1  0
 17 13  1  0
 27 18  1  0
 26 21  1  0
  3 28  1  0
  4 29  1  0
  4 30  1  0
  8 31  1  0
  8 32  1  0
  9 33  1  0
  9 34  1  0
 10 35  1  0
 10 36  1  0
 11 37  1  1
 12 38  1  0
 12 39  1  0
 14 40  1  0
 15 41  1  0
 16 42  1  0
 19 43  1  0
 20 44  1  0
 22 45  1  0
 23 46  1  0
 24 47  1  0
 25 48  1  0
M  END
>  <smiles>  (11) 
O=C(NCC(=O)N1CCC[C@H]1Cc1c[nH]cn1)c1ccc2ccccc2n1

>  <score_type>  (11) 
oracle

>  <origin>  (11) 
autodockgpu

>  <m_score__min__energy>  (11) 
-8.4499999999999993

>  <m_primary>  (11) 
energy

>  <rmsd>  (11) 
8.39535246647332

>  <m_score__min__rmsd>  (11) 
8.39535246647332

>  <meeko>  (11) 
{"free_energy": -7.22, "intermolecular_energy": -9.01, "internal_energy": -1.51, "cluster_size": 4, "cluster_id": 3, "rank_in_cluster": 4}

>  <energy>  (11) 
-7.69

>  <cluster_rmsd>  (11) 
0.91

>  <cluster>  (11) 
1

$$$$

     RDKit          3D

 48 51  0  0  0  0  0  0  0  0999 V2000
  138.7160   71.9730  221.8700 O   0  0  0  0  0  0  0  0  0  0  0  0
  139.7230   71.9440  222.6160 C   0  0  0  0  0  0  0  0  0  0  0  0
  140.8410   72.7310  222.2690 N   0  0  0  0  0  0  0  0  0  0  0  0
  140.8370   73.5590  221.0780 C   0  0  0  0  0  0  0  0  0  0  0  0
  140.7610   74.9930  221.3890 C   0  0  0  0  0  0  0  0  0  0  0  0
  140.0900   75.4890  222.3270 O   0  0  0  0  0  0  0  0  0  0  0  0
  141.4960   75.8960  220.5760 N   0  0  0  0  0  0  0  0  0  0  0  0
  141.7110   77.2910  220.8800 C   0  0  0  0  0  0  0  0  0  0  0  0
  141.6170   77.9730  219.5350 C   0  0  0  0  0  0  0  0  0  0  0  0
  141.7210   76.8550  218.5060 C   0  0  0  0  0  0  0  0  0  0  0  0
  142.1750   75.6500  219.3100 C   0  0  1  0  0  0  0  0  0  0  0  0
  143.6720   75.6870  219.5490 C   0  0  0  0  0  0  0  0  0  0  0  0
  144.1590   74.3760  220.0340 C   0  0  0  0  0  0  0  0  0  0  0  0
  145.2540   74.1040  220.8480 C   0  0  0  0  0  0  0  0  0  0  0  0
  145.2850   72.7640  221.0100 N   0  0  0  0  0  0  0  0  0  0  0  0
  144.2650   72.1940  220.3380 C   0  0  0  0  0  0  0  0  0  0  0  0
  143.5970   73.1900  219.7560 N   0  0  0  0  0  0  0  0  0  0  0  0
  139.7460   71.1170  223.8170 C   0  0  0  0  0  0  0  0  0  0  0  0
  139.1050   69.8990  223.8300 C   0  0  0  0  0  0  0  0  0  0  0  0
  139.0860   69.0730  224.9200 C   0  0  0  0  0  0  0  0  0  0  0  0
  139.7580   69.5170  226.0610 C   0  0  0  0  0  0  0  0  0  0  0  0
  139.7840   68.7420  227.2010 C   0  0  0  0  0  0  0  0  0  0  0  0
  140.4390   69.1610  228.3310 C   0  0  0  0  0  0  0  0  0  0  0  0
  141.0750   70.3770  228.3150 C   0  0  0  0  0  0  0  0  0  0  0  0
  141.0760   71.1830  227.2000 C   0  0  0  0  0  0  0  0  0  0  0  0
  140.4040   70.7430  226.0550 C   0  0  0  0  0  0  0  0  0  0  0  0
  140.3810   71.5030  224.9450 N   0  0  0  0  0  0  0  0  0  0  0  0
  141.6720   72.6810  222.9210 H   0  0  0  0  0  0  0  0  0  0  0  0
  141.7618   73.3692  220.5135 H   0  0  0  0  0  0  0  0  0  0  0  0
  139.9439   73.2966  220.4920 H   0  0  0  0  0  0  0  0  0  0  0  0
  140.9362   77.6666  221.5646 H   0  0  0  0  0  0  0  0  0  0  0  0
  142.6725   77.4731  221.3824 H   0  0  0  0  0  0  0  0  0  0  0  0
  140.6557   78.4985  219.4364 H   0  0  0  0  0  0  0  0  0  0  0  0
  142.4079   78.7259  219.4021 H   0  0  0  0  0  0  0  0  0  0  0  0
  140.7447   76.6652  218.0362 H   0  0  0  0  0  0  0  0  0  0  0  0
  142.4127   77.0996  217.6865 H   0  0  0  0  0  0  0  0  0  0  0  0
  141.9581   74.6867  218.8253 H   0  0  0  0  0  0  0  0  0  0  0  0
  144.1818   75.9349  218.6063 H   0  0  0  0  0  0  0  0  0  0  0  0
  143.8886   76.4483  220.3128 H   0  0  0  0  0  0  0  0  0  0  0  0
  145.9555   74.8358  221.2750 H   0  0  0  0  0  0  0  0  0  0  0  0
  145.9770   72.2370  221.5610 H   0  0  0  0  0  0  0  0  0  0  0  0
  144.0305   71.1208  220.2812 H   0  0  0  0  0  0  0  0  0  0  0  0
  138.5821   69.5738  222.9185 H   0  0  0  0  0  0  0  0  0  0  0  0
  138.5657   68.1041  224.8989 H   0  0  0  0  0  0  0  0  0  0  0  0
  139.2699   67.7695  227.2044 H   0  0  0  0  0  0  0  0  0  0  0  0
  140.4542   68.5333  229.2342 H   0  0  0  0  0  0  0  0  0  0  0  0
  141.5993   70.7172  229.2202 H   0  0  0  0  0  0  0  0  0  0  0  0
  141.5944   72.1531  227.2089 H   0  0  0  0  0  0  0  0  0  0  0  0
  1  2  2  0
  2  3  1  0
  3  4  1  0
  4  5  1  0
  5  6  2  0
  5  7  1  0
  7  8  1  0
  8  9  1  0
  9 10  1  0
 10 11  1  0
 11 12  1  0
 12 13  1  0
 13 14  2  0
 14 15  1  0
 15 16  1  0
 16 17  2  0
  2 18  1  0
 18 19  2  0
 19 20  1  0
 20 21  2  0
 21 22  1  0
 22 23  2  0
 23 24  1  0
 24 25  2  0
 25 26  1  0
 26 27  2  0
 11  7  1  0
 17 13  1  0
 27 18  1  0
 26 21  1  0
  3 28  1  0
  4 29  1  0
  4 30  1  0
  8 31  1  0
  8 32  1  0
  9 33  1  0
  9 34  1  0
 10 35  1  0
 10 36  1  0
 11 37  1  6
 12 38  1  0
 12 39  1  0
 14 40  1  0
 15 41  1  0
 16 42  1  0
 19 43  1  0
 20 44  1  0
 22 45  1  0
 23 46  1  0
 24 47  1  0
 25 48  1  0
M  END
>  <smiles>  (12) 
O=C(NCC(=O)N1CCC[C@H]1Cc1c[nH]cn1)c1ccc2ccccc2n1

>  <score_type>  (12) 
oracle

>  <origin>  (12) 
autodockgpu

>  <m_score__min__energy>  (12) 
-8.4499999999999993

>  <m_primary>  (12) 
energy

>  <rmsd>  (12) 
2.2503020493809984

>  <m_score__min__rmsd>  (12) 
2.2503020493809984

>  <meeko>  (12) 
{"free_energy": -7.69, "intermolecular_energy": -9.48, "internal_energy": -1.4, "cluster_size": 14, "cluster_id": 1, "rank_in_cluster": 11}

>  <energy>  (12) 
-7.61

>  <cluster_rmsd>  (12) 
0.81

>  <cluster>  (12) 
1

$$$$

     RDKit          3D

 48 51  0  0  0  0  0  0  0  0999 V2000
  141.4200   71.7700  221.5440 O   0  0  0  0  0  0  0  0  0  0  0  0
  140.6940   72.2200  222.4620 C   0  0  0  0  0  0  0  0  0  0  0  0
  140.1660   73.5210  222.3250 N   0  0  0  0  0  0  0  0  0  0  0  0
  140.4490   74.3280  221.1530 C   0  0  0  0  0  0  0  0  0  0  0  0
  140.6340   75.7490  221.4790 C   0  0  0  0  0  0  0  0  0  0  0  0
  140.1090   76.3350  222.4570 O   0  0  0  0  0  0  0  0  0  0  0  0
  141.4660   76.5280  220.6320 N   0  0  0  0  0  0  0  0  0  0  0  0
  141.8630   77.8910  220.8930 C   0  0  0  0  0  0  0  0  0  0  0  0
  141.8360   78.5440  219.5310 C   0  0  0  0  0  0  0  0  0  0  0  0
  141.7800   77.3940  218.5330 C   0  0  0  0  0  0  0  0  0  0  0  0
  142.0890   76.1630  219.3650 C   0  0  1  0  0  0  0  0  0  0  0  0
  143.5820   76.0140  219.5850 C   0  0  0  0  0  0  0  0  0  0  0  0
  143.9010   74.6760  220.1330 C   0  0  0  0  0  0  0  0  0  0  0  0
  143.1180   73.5270  220.1280 C   0  0  0  0  0  0  0  0  0  0  0  0
  143.8440   72.5680  220.7430 N   0  0  0  0  0  0  0  0  0  0  0  0
  145.0360   73.0670  221.1270 C   0  0  0  0  0  0  0  0  0  0  0  0
  145.0470   74.3440  220.7460 N   0  0  0  0  0  0  0  0  0  0  0  0
  140.4000   71.4230  223.6470 C   0  0  0  0  0  0  0  0  0  0  0  0
  139.7380   70.2220  223.5260 C   0  0  0  0  0  0  0  0  0  0  0  0
  139.4290   69.4250  224.5930 C   0  0  0  0  0  0  0  0  0  0  0  0
  139.8180   69.8800  225.8550 C   0  0  0  0  0  0  0  0  0  0  0  0
  139.5440   69.1340  226.9820 C   0  0  0  0  0  0  0  0  0  0  0  0
  139.9180   69.5640  228.2290 C   0  0  0  0  0  0  0  0  0  0  0  0
  140.5760   70.7620  228.3460 C   0  0  0  0  0  0  0  0  0  0  0  0
  140.8720   71.5400  227.2500 C   0  0  0  0  0  0  0  0  0  0  0  0
  140.4840   71.0890  225.9840 C   0  0  0  0  0  0  0  0  0  0  0  0
  140.7550   71.8210  224.8880 N   0  0  0  0  0  0  0  0  0  0  0  0
  139.5590   73.8680  223.1180 H   0  0  0  0  0  0  0  0  0  0  0  0
  141.3681   73.9522  220.6796 H   0  0  0  0  0  0  0  0  0  0  0  0
  139.5847   74.2501  220.4771 H   0  0  0  0  0  0  0  0  0  0  0  0
  141.1539   78.3812  221.5763 H   0  0  0  0  0  0  0  0  0  0  0  0
  142.8480   77.9607  221.3776 H   0  0  0  0  0  0  0  0  0  0  0  0
  140.9484   79.1857  219.4292 H   0  0  0  0  0  0  0  0  0  0  0  0
  142.7141   79.1859  219.3672 H   0  0  0  0  0  0  0  0  0  0  0  0
  140.7801   77.3183  218.0809 H   0  0  0  0  0  0  0  0  0  0  0  0
  142.4844   77.5259  217.6985 H   0  0  0  0  0  0  0  0  0  0  0  0
  141.7437   75.2227  218.9104 H   0  0  0  0  0  0  0  0  0  0  0  0
  144.1029   76.1442  218.6250 H   0  0  0  0  0  0  0  0  0  0  0  0
  143.9106   76.7778  220.3052 H   0  0  0  0  0  0  0  0  0  0  0  0
  142.1075   73.4201  219.7067 H   0  0  0  0  0  0  0  0  0  0  0  0
  143.5490   71.5950  220.9040 H   0  0  0  0  0  0  0  0  0  0  0  0
  145.8393   72.5277  221.6504 H   0  0  0  0  0  0  0  0  0  0  0  0
  139.4430   69.8869  222.5207 H   0  0  0  0  0  0  0  0  0  0  0  0
  138.8988   68.4700  224.4637 H   0  0  0  0  0  0  0  0  0  0  0  0
  139.0150   68.1751  226.8785 H   0  0  0  0  0  0  0  0  0  0  0  0
  139.6943   68.9590  229.1200 H   0  0  0  0  0  0  0  0  0  0  0  0
  140.8759   71.1110  229.3451 H   0  0  0  0  0  0  0  0  0  0  0  0
  141.4026   72.4964  227.3671 H   0  0  0  0  0  0  0  0  0  0  0  0
  1  2  2  0
  2  3  1  0
  3  4  1  0
  4  5  1  0
  5  6  2  0
  5  7  1  0
  7  8  1  0
  8  9  1  0
  9 10  1  0
 10 11  1  0
 11 12  1  0
 12 13  1  0
 13 14  2  0
 14 15  1  0
 15 16  1  0
 16 17  2  0
  2 18  1  0
 18 19  2  0
 19 20  1  0
 20 21  2  0
 21 22  1  0
 22 23  2  0
 23 24  1  0
 24 25  2  0
 25 26  1  0
 26 27  2  0
 11  7  1  0
 17 13  1  0
 27 18  1  0
 26 21  1  0
  3 28  1  0
  4 29  1  0
  4 30  1  0
  8 31  1  0
  8 32  1  0
  9 33  1  0
  9 34  1  0
 10 35  1  0
 10 36  1  0
 11 37  1  6
 12 38  1  0
 12 39  1  0
 14 40  1  0
 15 41  1  0
 16 42  1  0
 19 43  1  0
 20 44  1  0
 22 45  1  0
 23 46  1  0
 24 47  1  0
 25 48  1  0
M  END
>  <smiles>  (13) 
O=C(NCC(=O)N1CCC[C@H]1Cc1c[nH]cn1)c1ccc2ccccc2n1

>  <score_type>  (13) 
oracle

>  <origin>  (13) 
autodockgpu

>  <m_score__min__energy>  (13) 
-8.4499999999999993

>  <m_primary>  (13) 
energy

>  <rmsd>  (13) 
2.366799473089494

>  <m_score__min__rmsd>  (13) 
2.366799473089494

>  <meeko>  (13) 
{"free_energy": -7.61, "intermolecular_energy": -9.4, "internal_energy": -1.9, "cluster_size": 14, "cluster_id": 1, "rank_in_cluster": 12}

>  <energy>  (13) 
-7.57

>  <cluster_rmsd>  (13) 
1.18

>  <cluster>  (13) 
1

$$$$

     RDKit          3D

 48 51  0  0  0  0  0  0  0  0999 V2000
  140.7970   74.8750  221.0550 O   0  0  0  0  0  0  0  0  0  0  0  0
  139.9670   75.3440  221.8710 C   0  0  0  0  0  0  0  0  0  0  0  0
  138.9440   74.4990  222.3480 N   0  0  0  0  0  0  0  0  0  0  0  0
  138.8430   73.1190  221.9130 C   0  0  0  0  0  0  0  0  0  0  0  0
  139.8000   72.2400  222.5990 C   0  0  0  0  0  0  0  0  0  0  0  0
  141.0250   72.4780  222.7300 O   0  0  0  0  0  0  0  0  0  0  0  0
  139.3150   71.0280  223.1590 N   0  0  0  0  0  0  0  0  0  0  0  0
  139.2870   69.7570  222.4740 C   0  0  0  0  0  0  0  0  0  0  0  0
  137.9880   69.1310  222.9240 C   0  0  0  0  0  0  0  0  0  0  0  0
  137.5440   69.9460  224.1320 C   0  0  0  0  0  0  0  0  0  0  0  0
  138.7600   70.7830  224.4840 C   0  0  1  0  0  0  0  0  0  0  0  0
  139.7620   69.9780  225.2870 C   0  0  0  0  0  0  0  0  0  0  0  0
  140.3460   70.7980  226.3730 C   0  0  0  0  0  0  0  0  0  0  0  0
  140.2360   70.6230  227.7480 C   0  0  0  0  0  0  0  0  0  0  0  0
  140.9420   71.6230  228.3180 N   0  0  0  0  0  0  0  0  0  0  0  0
  141.4840   72.4060  227.3640 C   0  0  0  0  0  0  0  0  0  0  0  0
  141.1100   71.8860  226.1950 N   0  0  0  0  0  0  0  0  0  0  0  0
  140.0530   76.7280  222.3190 C   0  0  0  0  0  0  0  0  0  0  0  0
  138.9050   77.4460  222.5690 C   0  0  0  0  0  0  0  0  0  0  0  0
  138.9110   78.7470  222.9920 C   0  0  0  0  0  0  0  0  0  0  0  0
  140.1600   79.3480  223.1670 C   0  0  0  0  0  0  0  0  0  0  0  0
  140.2510   80.6570  223.5910 C   0  0  0  0  0  0  0  0  0  0  0  0
  141.4670   81.2650  223.7690 C   0  0  0  0  0  0  0  0  0  0  0  0
  142.6090   80.5460  223.5170 C   0  0  0  0  0  0  0  0  0  0  0  0
  142.5670   79.2370  223.0940 C   0  0  0  0  0  0  0  0  0  0  0  0
  141.3190   78.6310  222.9160 C   0  0  0  0  0  0  0  0  0  0  0  0
  141.2360   77.3540  222.5030 N   0  0  0  0  0  0  0  0  0  0  0  0
  138.2620   74.9270  223.0340 H   0  0  0  0  0  0  0  0  0  0  0  0
  137.8241   72.7586  222.1175 H   0  0  0  0  0  0  0  0  0  0  0  0
  139.0747   73.0902  220.8381 H   0  0  0  0  0  0  0  0  0  0  0  0
  139.2956   69.8998  221.3833 H   0  0  0  0  0  0  0  0  0  0  0  0
  140.1619   69.1313  222.7044 H   0  0  0  0  0  0  0  0  0  0  0  0
  137.2356   69.1880  222.1236 H   0  0  0  0  0  0  0  0  0  0  0  0
  138.1108   68.0662  223.1713 H   0  0  0  0  0  0  0  0  0  0  0  0
  136.6888   70.5888  223.8760 H   0  0  0  0  0  0  0  0  0  0  0  0
  137.2119   69.3131  224.9681 H   0  0  0  0  0  0  0  0  0  0  0  0
  138.5248   71.6764  225.0811 H   0  0  0  0  0  0  0  0  0  0  0  0
  139.2550   69.1062  225.7262 H   0  0  0  0  0  0  0  0  0  0  0  0
  140.5712   69.6529  224.6166 H   0  0  0  0  0  0  0  0  0  0  0  0
  139.6831   69.8272  228.2686 H   0  0  0  0  0  0  0  0  0  0  0  0
  141.0610   71.7810  229.3290 H   0  0  0  0  0  0  0  0  0  0  0  0
  142.1103   73.2968  227.5193 H   0  0  0  0  0  0  0  0  0  0  0  0
  137.9349   76.9488  222.4213 H   0  0  0  0  0  0  0  0  0  0  0  0
  137.9765   79.2941  223.1852 H   0  0  0  0  0  0  0  0  0  0  0  0
  139.3300   81.2245  223.7903 H   0  0  0  0  0  0  0  0  0  0  0  0
  141.5264   82.3099  224.1076 H   0  0  0  0  0  0  0  0  0  0  0  0
  143.5866   81.0304  223.6573 H   0  0  0  0  0  0  0  0  0  0  0  0
  143.4951   78.6793  222.9000 H   0  0  0  0  0  0  0  0  0  0  0  0
  1  2  2  0
  2  3  1  0
  3  4  1  0
  4  5  1  0
  5  6  2  0
  5  7  1  0
  7  8  1  0
  8  9  1  0
  9 10  1  0
 10 11  1  0
 11 12  1  0
 12 13  1  0
 13 14  2  0
 14 15  1  0
 15 16  1  0
 16 17  2  0
  2 18  1  0
 18 19  2  0
 19 20  1  0
 20 21  2  0
 21 22  1  0
 22 23  2  0
 23 24  1  0
 24 25  2  0
 25 26  1  0
 26 27  2  0
 11  7  1  0
 17 13  1  0
 27 18  1  0
 26 21  1  0
  3 28  1  0
  4 29  1  0
  4 30  1  0
  8 31  1  0
  8 32  1  0
  9 33  1  0
  9 34  1  0
 10 35  1  0
 10 36  1  0
 11 37  1  1
 12 38  1  0
 12 39  1  0
 14 40  1  0
 15 41  1  0
 16 42  1  0
 19 43  1  0
 20 44  1  0
 22 45  1  0
 23 46  1  0
 24 47  1  0
 25 48  1  0
M  END
>  <smiles>  (14) 
O=C(NCC(=O)N1CCC[C@H]1Cc1c[nH]cn1)c1ccc2ccccc2n1

>  <score_type>  (14) 
oracle

>  <origin>  (14) 
autodockgpu

>  <m_score__min__energy>  (14) 
-8.4499999999999993

>  <m_primary>  (14) 
energy

>  <rmsd>  (14) 
8.263932952828567

>  <m_score__min__rmsd>  (14) 
8.263932952828567

>  <meeko>  (14) 
{"free_energy": -7.96, "intermolecular_energy": -9.74, "internal_energy": -1.05, "cluster_size": 4, "cluster_id": 3, "rank_in_cluster": 1}

>  <energy>  (14) 
-6.87

>  <cluster_rmsd>  (14) 
1.19

>  <cluster>  (14) 
1

$$$$

     RDKit          3D

 48 51  0  0  0  0  0  0  0  0999 V2000
  141.1370   72.3350  221.5370 O   0  0  0  0  0  0  0  0  0  0  0  0
  140.2900   72.6240  222.4160 C   0  0  0  0  0  0  0  0  0  0  0  0
  139.5650   73.8260  222.2800 N   0  0  0  0  0  0  0  0  0  0  0  0
  139.7840   74.7150  221.1560 C   0  0  0  0  0  0  0  0  0  0  0  0
  141.0190   75.5000  221.2900 C   0  0  0  0  0  0  0  0  0  0  0  0
  142.1800   75.0320  221.1920 O   0  0  0  0  0  0  0  0  0  0  0  0
  140.9050   76.8910  221.5510 N   0  0  0  0  0  0  0  0  0  0  0  0
  141.3640   77.9360  220.6670 C   0  0  0  0  0  0  0  0  0  0  0  0
  141.9170   78.9850  221.6030 C   0  0  0  0  0  0  0  0  0  0  0  0
  141.3920   78.6130  222.9840 C   0  0  0  0  0  0  0  0  0  0  0  0
  140.3280   77.5660  222.7080 C   0  0  1  0  0  0  0  0  0  0  0  0
  139.0220   78.2120  222.2890 C   0  0  0  0  0  0  0  0  0  0  0  0
  137.8850   77.2870  222.5040 C   0  0  0  0  0  0  0  0  0  0  0  0
  136.5380   77.4890  222.2240 C   0  0  0  0  0  0  0  0  0  0  0  0
  135.8990   76.3590  222.5950 N   0  0  0  0  0  0  0  0  0  0  0  0
  136.7830   75.4690  223.0890 C   0  0  0  0  0  0  0  0  0  0  0  0
  137.9790   76.0540  223.0230 N   0  0  0  0  0  0  0  0  0  0  0  0
  140.0560   71.7430  223.5530 C   0  0  0  0  0  0  0  0  0  0  0  0
  139.2020   70.6700  223.4330 C   0  0  0  0  0  0  0  0  0  0  0  0
  138.9360   69.8030  224.4570 C   0  0  0  0  0  0  0  0  0  0  0  0
  139.5780   70.0480  225.6730 C   0  0  0  0  0  0  0  0  0  0  0  0
  139.3630   69.2200  226.7550 C   0  0  0  0  0  0  0  0  0  0  0  0
  139.9840   69.4430  227.9570 C   0  0  0  0  0  0  0  0  0  0  0  0
  140.8340   70.5140  228.0730 C   0  0  0  0  0  0  0  0  0  0  0  0
  141.0800   71.3670  227.0210 C   0  0  0  0  0  0  0  0  0  0  0  0
  140.4390   71.1270  225.8020 C   0  0  0  0  0  0  0  0  0  0  0  0
  140.6530   71.9380  224.7500 N   0  0  0  0  0  0  0  0  0  0  0  0
  138.8590   74.0370  223.0390 H   0  0  0  0  0  0  0  0  0  0  0  0
  139.8468   74.1130  220.2375 H   0  0  0  0  0  0  0  0  0  0  0  0
  138.9417   75.4216  221.1205 H   0  0  0  0  0  0  0  0  0  0  0  0
  142.1474   77.5616  219.9917 H   0  0  0  0  0  0  0  0  0  0  0  0
  140.5654   78.3245  220.0179 H   0  0  0  0  0  0  0  0  0  0  0  0
  143.0168   78.9689  221.5923 H   0  0  0  0  0  0  0  0  0  0  0  0
  141.6093   79.9991  221.3081 H   0  0  0  0  0  0  0  0  0  0  0  0
  142.1965   78.1967  223.6081 H   0  0  0  0  0  0  0  0  0  0  0  0
  140.9970   79.4808  223.5326 H   0  0  0  0  0  0  0  0  0  0  0  0
  140.0985   76.9286  223.5746 H   0  0  0  0  0  0  0  0  0  0  0  0
  138.8631   79.1233  222.8843 H   0  0  0  0  0  0  0  0  0  0  0  0
  139.0782   78.4589  221.2185 H   0  0  0  0  0  0  0  0  0  0  0  0
  136.0834   78.3903  221.7871 H   0  0  0  0  0  0  0  0  0  0  0  0
  134.8870   76.1830  222.5190 H   0  0  0  0  0  0  0  0  0  0  0  0
  136.5616   74.4613  223.4704 H   0  0  0  0  0  0  0  0  0  0  0  0
  138.7085   70.5013  222.4645 H   0  0  0  0  0  0  0  0  0  0  0  0
  138.2492   68.9533  224.3289 H   0  0  0  0  0  0  0  0  0  0  0  0
  138.6800   68.3640  226.6516 H   0  0  0  0  0  0  0  0  0  0  0  0
  139.8041   68.7756  228.8127 H   0  0  0  0  0  0  0  0  0  0  0  0
  141.3339   70.6964  229.0357 H   0  0  0  0  0  0  0  0  0  0  0  0
  141.7661   72.2190  227.1370 H   0  0  0  0  0  0  0  0  0  0  0  0
  1  2  2  0
  2  3  1  0
  3  4  1  0
  4  5  1  0
  5  6  2  0
  5  7  1  0
  7  8  1  0
  8  9  1  0
  9 10  1  0
 10 11  1  0
 11 12  1  0
 12 13  1  0
 13 14  2  0
 14 15  1  0
 15 16  1  0
 16 17  2  0
  2 18  1  0
 18 19  2  0
 19 20  1  0
 20 21  2  0
 21 22  1  0
 22 23  2  0
 23 24  1  0
 24 25  2  0
 25 26  1  0
 26 27  2  0
 11  7  1  0
 17 13  1  0
 27 18  1  0
 26 21  1  0
  3 28  1  0
  4 29  1  0
  4 30  1  0
  8 31  1  0
  8 32  1  0
  9 33  1  0
  9 34  1  0
 10 35  1  0
 10 36  1  0
 11 37  1  1
 12 38  1  0
 12 39  1  0
 14 40  1  0
 15 41  1  0
 16 42  1  0
 19 43  1  0
 20 44  1  0
 22 45  1  0
 23 46  1  0
 24 47  1  0
 25 48  1  0
M  END
>  <smiles>  (15) 
O=C(NCC(=O)N1CCC[C@H]1Cc1c[nH]cn1)c1ccc2ccccc2n1

>  <score_type>  (15) 
oracle

>  <origin>  (15) 
autodockgpu

>  <m_score__min__energy>  (15) 
-8.4499999999999993

>  <m_primary>  (15) 
energy

>  <rmsd>  (15) 
2.9099968453375125

>  <m_score__min__rmsd>  (15) 
2.9099968453375125

>  <meeko>  (15) 
{"free_energy": -7.21, "intermolecular_energy": -9.0, "internal_energy": -1.84, "cluster_size": 4, "cluster_id": 6, "rank_in_cluster": 1}

>  <energy>  (15) 
-8.4

>  <cluster_rmsd>  (15) 
0.0

>  <cluster>  (15) 
2

$$$$

     RDKit          3D

 48 51  0  0  0  0  0  0  0  0999 V2000
  140.2330   71.4580  221.2800 O   0  0  0  0  0  0  0  0  0  0  0  0
  140.0230   72.0460  222.3680 C   0  0  0  0  0  0  0  0  0  0  0  0
  139.7500   73.4290  222.3410 N   0  0  0  0  0  0  0  0  0  0  0  0
  139.7090   74.1650  221.0920 C   0  0  0  0  0  0  0  0  0  0  0  0
  139.7680   75.6200  221.2920 C   0  0  0  0  0  0  0  0  0  0  0  0
  139.1830   76.2410  222.2120 O   0  0  0  0  0  0  0  0  0  0  0  0
  140.5410   76.3900  220.3830 N   0  0  0  0  0  0  0  0  0  0  0  0
  140.1600   76.6860  219.0220 C   0  0  0  0  0  0  0  0  0  0  0  0
  141.4590   76.6080  218.2560 C   0  0  0  0  0  0  0  0  0  0  0  0
  142.5550   76.6340  219.3150 C   0  0  0  0  0  0  0  0  0  0  0  0
  141.8320   77.0350  220.5880 C   0  0  1  0  0  0  0  0  0  0  0  0
  141.6200   78.5350  220.6460 C   0  0  0  0  0  0  0  0  0  0  0  0
  141.8490   79.0460  222.0170 C   0  0  0  0  0  0  0  0  0  0  0  0
  142.5020   80.2080  222.4120 C   0  0  0  0  0  0  0  0  0  0  0  0
  142.4520   80.2340  223.7610 N   0  0  0  0  0  0  0  0  0  0  0  0
  141.8000   79.1470  224.2190 C   0  0  0  0  0  0  0  0  0  0  0  0
  141.4450   78.4430  223.1450 N   0  0  0  0  0  0  0  0  0  0  0  0
  140.0610   71.3230  223.6330 C   0  0  0  0  0  0  0  0  0  0  0  0
  139.5970   70.0290  223.7040 C   0  0  0  0  0  0  0  0  0  0  0  0
  139.6020   69.2930  224.8570 C   0  0  0  0  0  0  0  0  0  0  0  0
  140.1080   69.9140  226.0010 C   0  0  0  0  0  0  0  0  0  0  0  0
  140.1470   69.2390  227.2030 C   0  0  0  0  0  0  0  0  0  0  0  0
  140.6400   69.8320  228.3360 C   0  0  0  0  0  0  0  0  0  0  0  0
  141.1000   71.1220  228.2620 C   0  0  0  0  0  0  0  0  0  0  0  0
  141.0820   71.8350  227.0840 C   0  0  0  0  0  0  0  0  0  0  0  0
  140.5760   71.2180  225.9360 C   0  0  0  0  0  0  0  0  0  0  0  0
  140.5400   71.8810  224.7670 N   0  0  0  0  0  0  0  0  0  0  0  0
  139.5770   73.8930  223.2770 H   0  0  0  0  0  0  0  0  0  0  0  0
  140.5663   73.8591  220.4743 H   0  0  0  0  0  0  0  0  0  0  0  0
  138.7524   73.9345  220.6003 H   0  0  0  0  0  0  0  0  0  0  0  0
  139.4395   75.9442  218.6472 H   0  0  0  0  0  0  0  0  0  0  0  0
  139.6671   77.6644  218.9227 H   0  0  0  0  0  0  0  0  0  0  0  0
  141.5076   75.6755  217.6745 H   0  0  0  0  0  0  0  0  0  0  0  0
  141.5622   77.4365  217.5398 H   0  0  0  0  0  0  0  0  0  0  0  0
  143.0159   75.6412  219.4241 H   0  0  0  0  0  0  0  0  0  0  0  0
  143.3724   77.3241  219.0590 H   0  0  0  0  0  0  0  0  0  0  0  0
  142.3687   76.7587  221.5076 H   0  0  0  0  0  0  0  0  0  0  0  0
  142.3227   79.0254  219.9563 H   0  0  0  0  0  0  0  0  0  0  0  0
  140.5821   78.7558  220.3563 H   0  0  0  0  0  0  0  0  0  0  0  0
  142.9674   80.9579  221.7554 H   0  0  0  0  0  0  0  0  0  0  0  0
  142.8460   80.9680  224.3680 H   0  0  0  0  0  0  0  0  0  0  0  0
  141.6006   78.8918  225.2703 H   0  0  0  0  0  0  0  0  0  0  0  0
  139.2028   69.5639  222.7884 H   0  0  0  0  0  0  0  0  0  0  0  0
  139.2250   68.2599  224.8820 H   0  0  0  0  0  0  0  0  0  0  0  0
  139.7753   68.2049  227.2533 H   0  0  0  0  0  0  0  0  0  0  0  0
  140.6663   69.2826  229.2886 H   0  0  0  0  0  0  0  0  0  0  0  0
  141.4948   71.6010  229.1701 H   0  0  0  0  0  0  0  0  0  0  0  0
  141.4578   72.8682  227.0470 H   0  0  0  0  0  0  0  0  0  0  0  0
  1  2  2  0
  2  3  1  0
  3  4  1  0
  4  5  1  0
  5  6  2  0
  5  7  1  0
  7  8  1  0
  8  9  1  0
  9 10  1  0
 10 11  1  0
 11 12  1  0
 12 13  1  0
 13 14  2  0
 14 15  1  0
 15 16  1  0
 16 17  2  0
  2 18  1  0
 18 19  2  0
 19 20  1  0
 20 21  2  0
 21 22  1  0
 22 23  2  0
 23 24  1  0
 24 25  2  0
 25 26  1  0
 26 27  2  0
 11  7  1  0
 17 13  1  0
 27 18  1  0
 26 21  1  0
  3 28  1  0
  4 29  1  0
  4 30  1  0
  8 31  1  0
  8 32  1  0
  9 33  1  0
  9 34  1  0
 10 35  1  0
 10 36  1  0
 11 37  1  1
 12 38  1  0
 12 39  1  0
 14 40  1  0
 15 41  1  0
 16 42  1  0
 19 43  1  0
 20 44  1  0
 22 45  1  0
 23 46  1  0
 24 47  1  0
 25 48  1  0
M  END
>  <smiles>  (16) 
O=C(NCC(=O)N1CCC[C@H]1Cc1c[nH]cn1)c1ccc2ccccc2n1

>  <score_type>  (16) 
oracle

>  <origin>  (16) 
autodockgpu

>  <m_score__min__energy>  (16) 
-8.4499999999999993

>  <m_primary>  (16) 
energy

>  <rmsd>  (16) 
1.5772294905603699

>  <m_score__min__rmsd>  (16) 
1.5772294905603699

>  <meeko>  (16) 
{"free_energy": -7.64, "intermolecular_energy": -9.43, "internal_energy": -1.36, "cluster_size": 10, "cluster_id": 2, "rank_in_cluster": 9}

>  <energy>  (16) 
-8.36

>  <cluster_rmsd>  (16) 
0.67

>  <cluster>  (16) 
2

$$$$

     RDKit          3D

 48 51  0  0  0  0  0  0  0  0999 V2000
  141.4010   71.9810  221.6390 O   0  0  0  0  0  0  0  0  0  0  0  0
  140.4370   72.2180  222.4060 C   0  0  0  0  0  0  0  0  0  0  0  0
  139.5440   73.2540  222.0640 N   0  0  0  0  0  0  0  0  0  0  0  0
  139.7240   74.0350  220.8550 C   0  0  0  0  0  0  0  0  0  0  0  0
  140.8920   74.9230  220.9260 C   0  0  0  0  0  0  0  0  0  0  0  0
  141.4240   75.3240  221.9900 O   0  0  0  0  0  0  0  0  0  0  0  0
  141.4710   75.3690  219.7080 N   0  0  0  0  0  0  0  0  0  0  0  0
  141.4370   76.7310  219.2300 C   0  0  0  0  0  0  0  0  0  0  0  0
  141.2440   76.5870  217.7390 C   0  0  0  0  0  0  0  0  0  0  0  0
  141.5530   75.1280  217.4300 C   0  0  0  0  0  0  0  0  0  0  0  0
  142.1980   74.6070  218.7010 C   0  0  1  0  0  0  0  0  0  0  0  0
  143.6630   74.9940  218.7660 C   0  0  0  0  0  0  0  0  0  0  0  0
  144.4390   73.9870  219.5260 C   0  0  0  0  0  0  0  0  0  0  0  0
  144.2610   73.5640  220.8390 C   0  0  0  0  0  0  0  0  0  0  0  0
  145.2130   72.6350  221.0720 N   0  0  0  0  0  0  0  0  0  0  0  0
  145.9690   72.4620  219.9700 C   0  0  0  0  0  0  0  0  0  0  0  0
  145.4810   73.2910  219.0470 N   0  0  0  0  0  0  0  0  0  0  0  0
  140.2400   71.4440  223.6260 C   0  0  0  0  0  0  0  0  0  0  0  0
  139.5550   70.2510  223.5850 C   0  0  0  0  0  0  0  0  0  0  0  0
  139.3330   69.4740  224.6880 C   0  0  0  0  0  0  0  0  0  0  0  0
  139.8400   69.9440  225.9030 C   0  0  0  0  0  0  0  0  0  0  0  0
  139.6580   69.2190  227.0620 C   0  0  0  0  0  0  0  0  0  0  0  0
  140.1470   69.6640  228.2630 C   0  0  0  0  0  0  0  0  0  0  0  0
  140.8290   70.8540  228.3000 C   0  0  0  0  0  0  0  0  0  0  0  0
  141.0350   71.6100  227.1690 C   0  0  0  0  0  0  0  0  0  0  0  0
  140.5300   71.1450  225.9510 C   0  0  0  0  0  0  0  0  0  0  0  0
  140.7100   71.8560  224.8240 N   0  0  0  0  0  0  0  0  0  0  0  0
  138.7430   73.4250  222.7340 H   0  0  0  0  0  0  0  0  0  0  0  0
  139.8555   73.3468  220.0070 H   0  0  0  0  0  0  0  0  0  0  0  0
  138.8320   74.6664  220.7298 H   0  0  0  0  0  0  0  0  0  0  0  0
  140.5999   77.2836  219.6816 H   0  0  0  0  0  0  0  0  0  0  0  0
  142.3459   77.2943  219.4880 H   0  0  0  0  0  0  0  0  0  0  0  0
  140.2077   76.8283  217.4600 H   0  0  0  0  0  0  0  0  0  0  0  0
  141.8944   77.2713  217.1744 H   0  0  0  0  0  0  0  0  0  0  0  0
  140.6303   74.5730  217.2049 H   0  0  0  0  0  0  0  0  0  0  0  0
  142.2024   75.0121  216.5498 H   0  0  0  0  0  0  0  0  0  0  0  0
  142.1570   73.5124  218.8021 H   0  0  0  0  0  0  0  0  0  0  0  0
  144.0638   75.0622  217.7439 H   0  0  0  0  0  0  0  0  0  0  0  0
  143.7493   75.9647  219.2762 H   0  0  0  0  0  0  0  0  0  0  0  0
  143.4965   73.9163  221.5471 H   0  0  0  0  0  0  0  0  0  0  0  0
  145.3560   72.1230  221.9550 H   0  0  0  0  0  0  0  0  0  0  0  0
  146.8194   71.7738  219.8549 H   0  0  0  0  0  0  0  0  0  0  0  0
  139.1664   69.9051  222.6158 H   0  0  0  0  0  0  0  0  0  0  0  0
  138.7817   68.5244  224.6224 H   0  0  0  0  0  0  0  0  0  0  0  0
  139.1103   68.2659  227.0220 H   0  0  0  0  0  0  0  0  0  0  0  0
  139.9952   69.0772  229.1810 H   0  0  0  0  0  0  0  0  0  0  0  0
  141.2226   71.2141  229.2620 H   0  0  0  0  0  0  0  0  0  0  0  0
  141.5857   72.5607  227.2220 H   0  0  0  0  0  0  0  0  0  0  0  0
  1  2  2  0
  2  3  1  0
  3  4  1  0
  4  5  1  0
  5  6  2  0
  5  7  1  0
  7  8  1  0
  8  9  1  0
  9 10  1  0
 10 11  1  0
 11 12  1  0
 12 13  1  0
 13 14  2  0
 14 15  1  0
 15 16  1  0
 16 17  2  0
  2 18  1  0
 18 19  2  0
 19 20  1  0
 20 21  2  0
 21 22  1  0
 22 23  2  0
 23 24  1  0
 24 25  2  0
 25 26  1  0
 26 27  2  0
 11  7  1  0
 17 13  1  0
 27 18  1  0
 26 21  1  0
  3 28  1  0
  4 29  1  0
  4 30  1  0
  8 31  1  0
  8 32  1  0
  9 33  1  0
  9 34  1  0
 10 35  1  0
 10 36  1  0
 11 37  1  1
 12 38  1  0
 12 39  1  0
 14 40  1  0
 15 41  1  0
 16 42  1  0
 19 43  1  0
 20 44  1  0
 22 45  1  0
 23 46  1  0
 24 47  1  0
 25 48  1  0
M  END
>  <smiles>  (17) 
O=C(NCC(=O)N1CCC[C@H]1Cc1c[nH]cn1)c1ccc2ccccc2n1

>  <score_type>  (17) 
oracle

>  <origin>  (17) 
autodockgpu

>  <m_score__min__energy>  (17) 
-8.4499999999999993

>  <m_primary>  (17) 
energy

>  <rmsd>  (17) 
2.0301235059251233

>  <m_score__min__rmsd>  (17) 
2.0301235059251233

>  <meeko>  (17) 
{"free_energy": -7.75, "intermolecular_energy": -9.54, "internal_energy": -1.35, "cluster_size": 14, "cluster_id": 1, "rank_in_cluster": 10}

>  <energy>  (17) 
-8.02

>  <cluster_rmsd>  (17) 
1.25

>  <cluster>  (17) 
2

$$$$

     RDKit          3D

 48 51  0  0  0  0  0  0  0  0999 V2000
  138.9270   70.3780  221.2870 O   0  0  0  0  0  0  0  0  0  0  0  0
  139.1120   71.2000  222.2160 C   0  0  0  0  0  0  0  0  0  0  0  0
  139.0640   72.5770  221.9140 N   0  0  0  0  0  0  0  0  0  0  0  0
  138.8070   73.0440  220.5650 C   0  0  0  0  0  0  0  0  0  0  0  0
  137.5220   73.7470  220.4460 C   0  0  0  0  0  0  0  0  0  0  0  0
  136.8160   73.7790  219.4090 O   0  0  0  0  0  0  0  0  0  0  0  0
  137.0340   74.4460  221.5810 N   0  0  0  0  0  0  0  0  0  0  0  0
  136.4480   73.8220  222.7440 C   0  0  0  0  0  0  0  0  0  0  0  0
  135.3260   74.7560  223.1300 C   0  0  0  0  0  0  0  0  0  0  0  0
  135.5920   76.0460  222.3670 C   0  0  0  0  0  0  0  0  0  0  0  0
  137.0050   75.8800  221.8380 C   0  0  1  0  0  0  0  0  0  0  0  0
  138.0300   76.2010  222.9090 C   0  0  0  0  0  0  0  0  0  0  0  0
  139.4020   76.1640  222.3520 C   0  0  0  0  0  0  0  0  0  0  0  0
  140.2300   77.2280  222.0140 C   0  0  0  0  0  0  0  0  0  0  0  0
  141.3770   76.6860  221.5510 N   0  0  0  0  0  0  0  0  0  0  0  0
  141.2980   75.3410  221.5860 C   0  0  0  0  0  0  0  0  0  0  0  0
  140.0940   75.0490  222.0750 N   0  0  0  0  0  0  0  0  0  0  0  0
  139.3720   70.7500  223.5780 C   0  0  0  0  0  0  0  0  0  0  0  0
  139.0030   69.4830  223.9700 C   0  0  0  0  0  0  0  0  0  0  0  0
  139.2160   68.9960  225.2300 C   0  0  0  0  0  0  0  0  0  0  0  0
  139.8390   69.8520  226.1410 C   0  0  0  0  0  0  0  0  0  0  0  0
  140.0890   69.4360  227.4320 C   0  0  0  0  0  0  0  0  0  0  0  0
  140.7000   70.2620  228.3400 C   0  0  0  0  0  0  0  0  0  0  0  0
  141.0650   71.5240  227.9460 C   0  0  0  0  0  0  0  0  0  0  0  0
  140.8360   71.9820  226.6690 C   0  0  0  0  0  0  0  0  0  0  0  0
  140.2120   71.1300  225.7530 C   0  0  0  0  0  0  0  0  0  0  0  0
  139.9710   71.5410  224.4950 N   0  0  0  0  0  0  0  0  0  0  0  0
  139.2250   73.2420  222.7210 H   0  0  0  0  0  0  0  0  0  0  0  0
  139.6135   73.7317  220.2705 H   0  0  0  0  0  0  0  0  0  0  0  0
  138.7665   72.1620  219.9089 H   0  0  0  0  0  0  0  0  0  0  0  0
  136.0586   72.8231  222.4979 H   0  0  0  0  0  0  0  0  0  0  0  0
  137.1742   73.6723  223.5566 H   0  0  0  0  0  0  0  0  0  0  0  0
  134.3541   74.3306  222.8394 H   0  0  0  0  0  0  0  0  0  0  0  0
  135.2896   74.9239  224.2165 H   0  0  0  0  0  0  0  0  0  0  0  0
  134.8769   76.1646  221.5396 H   0  0  0  0  0  0  0  0  0  0  0  0
  135.4803   76.9400  222.9982 H   0  0  0  0  0  0  0  0  0  0  0  0
  137.2350   76.5282  220.9795 H   0  0  0  0  0  0  0  0  0  0  0  0
  137.8304   77.2058  223.3096 H   0  0  0  0  0  0  0  0  0  0  0  0
  137.9532   75.4483  223.7074 H   0  0  0  0  0  0  0  0  0  0  0  0
  139.9972   78.2992  222.1055 H   0  0  0  0  0  0  0  0  0  0  0  0
  142.2000   77.2070  221.2160 H   0  0  0  0  0  0  0  0  0  0  0  0
  142.0736   74.6265  221.2730 H   0  0  0  0  0  0  0  0  0  0  0  0
  138.5125   68.8299  223.2332 H   0  0  0  0  0  0  0  0  0  0  0  0
  138.9109   67.9777  225.5128 H   0  0  0  0  0  0  0  0  0  0  0  0
  139.7926   68.4222  227.7391 H   0  0  0  0  0  0  0  0  0  0  0  0
  140.8941   69.9184  229.3668 H   0  0  0  0  0  0  0  0  0  0  0  0
  141.5551   72.1893  228.6721 H   0  0  0  0  0  0  0  0  0  0  0  0
  141.1378   72.9980  226.3747 H   0  0  0  0  0  0  0  0  0  0  0  0
  1  2  2  0
  2  3  1  0
  3  4  1  0
  4  5  1  0
  5  6  2  0
  5  7  1  0
  7  8  1  0
  8  9  1  0
  9 10  1  0
 10 11  1  0
 11 12  1  0
 12 13  1  0
 13 14  2  0
 14 15  1  0
 15 16  1  0
 16 17  2  0
  2 18  1  0
 18 19  2  0
 19 20  1  0
 20 21  2  0
 21 22  1  0
 22 23  2  0
 23 24  1  0
 24 25  2  0
 25 26  1  0
 26 27  2  0
 11  7  1  0
 17 13  1  0
 27 18  1  0
 26 21  1  0
  3 28  1  0
  4 29  1  0
  4 30  1  0
  8 31  1  0
  8 32  1  0
  9 33  1  0
  9 34  1  0
 10 35  1  0
 10 36  1  0
 11 37  1  6
 12 38  1  0
 12 39  1  0
 14 40  1  0
 15 41  1  0
 16 42  1  0
 19 43  1  0
 20 44  1  0
 22 45  1  0
 23 46  1  0
 24 47  1  0
 25 48  1  0
M  END
>  <smiles>  (18) 
O=C(NCC(=O)N1CCC[C@H]1Cc1c[nH]cn1)c1ccc2ccccc2n1

>  <score_type>  (18) 
oracle

>  <origin>  (18) 
autodockgpu

>  <m_score__min__energy>  (18) 
-8.4499999999999993

>  <m_primary>  (18) 
energy

>  <rmsd>  (18) 
3.6345203436309466

>  <m_score__min__rmsd>  (18) 
3.6345203436309466

>  <meeko>  (18) 
{"free_energy": -6.69, "intermolecular_energy": -8.48, "internal_energy": -2.25, "cluster_size": 2, "cluster_id": 9, "rank_in_cluster": 1}

>  <energy>  (18) 
-7.85

>  <cluster_rmsd>  (18) 
1.46

>  <cluster>  (18) 
2

$$$$

     RDKit          3D

 48 51  0  0  0  0  0  0  0  0999 V2000
  140.1050   71.3730  221.3460 O   0  0  0  0  0  0  0  0  0  0  0  0
  139.9370   71.9270  222.4590 C   0  0  0  0  0  0  0  0  0  0  0  0
  139.7120   73.3190  222.4890 N   0  0  0  0  0  0  0  0  0  0  0  0
  139.6730   74.1030  221.2690 C   0  0  0  0  0  0  0  0  0  0  0  0
  140.3030   75.4210  221.4250 C   0  0  0  0  0  0  0  0  0  0  0  0
  141.5280   75.6520  221.2800 O   0  0  0  0  0  0  0  0  0  0  0  0
  139.4750   76.5230  221.7670 N   0  0  0  0  0  0  0  0  0  0  0  0
  138.1270   76.4150  222.2740 C   0  0  0  0  0  0  0  0  0  0  0  0
  137.3990   77.5610  221.6130 C   0  0  0  0  0  0  0  0  0  0  0  0
  138.4890   78.4670  221.0560 C   0  0  0  0  0  0  0  0  0  0  0  0
  139.7650   77.9500  221.6960 C   0  0  1  0  0  0  0  0  0  0  0  0
  139.9220   78.4830  223.1060 C   0  0  0  0  0  0  0  0  0  0  0  0
  141.0500   79.4410  223.1840 C   0  0  0  0  0  0  0  0  0  0  0  0
  141.0170   80.7960  223.4940 C   0  0  0  0  0  0  0  0  0  0  0  0
  142.2940   81.2310  223.4350 N   0  0  0  0  0  0  0  0  0  0  0  0
  143.1130   80.2130  223.1050 C   0  0  0  0  0  0  0  0  0  0  0  0
  142.3370   79.1400  222.9590 N   0  0  0  0  0  0  0  0  0  0  0  0
  139.9720   71.1560  223.6950 C   0  0  0  0  0  0  0  0  0  0  0  0
  139.5480   69.8470  223.7070 C   0  0  0  0  0  0  0  0  0  0  0  0
  139.5540   69.0660  224.8300 C   0  0  0  0  0  0  0  0  0  0  0  0
  140.0190   69.6570  226.0070 C   0  0  0  0  0  0  0  0  0  0  0  0
  140.0560   68.9360  227.1820 C   0  0  0  0  0  0  0  0  0  0  0  0
  140.5090   69.4980  228.3480 C   0  0  0  0  0  0  0  0  0  0  0  0
  140.9300   70.8040  228.3330 C   0  0  0  0  0  0  0  0  0  0  0  0
  140.9110   71.5610  227.1840 C   0  0  0  0  0  0  0  0  0  0  0  0
  140.4470   70.9750  226.0030 C   0  0  0  0  0  0  0  0  0  0  0  0
  140.4120   71.6830  224.8590 N   0  0  0  0  0  0  0  0  0  0  0  0
  139.5740   73.7530  223.4450 H   0  0  0  0  0  0  0  0  0  0  0  0
  140.2020   73.5509  220.4782 H   0  0  0  0  0  0  0  0  0  0  0  0
  138.6162   74.2668  221.0115 H   0  0  0  0  0  0  0  0  0  0  0  0
  137.6784   75.4511  221.9916 H   0  0  0  0  0  0  0  0  0  0  0  0
  138.0813   76.4597  223.3721 H   0  0  0  0  0  0  0  0  0  0  0  0
  136.7549   77.1907  220.8018 H   0  0  0  0  0  0  0  0  0  0  0  0
  136.7474   78.0938  222.3212 H   0  0  0  0  0  0  0  0  0  0  0  0
  138.5415   78.3862  219.9602 H   0  0  0  0  0  0  0  0  0  0  0  0
  138.3074   79.5294  221.2759 H   0  0  0  0  0  0  0  0  0  0  0  0
  140.6789   78.2299  221.1515 H   0  0  0  0  0  0  0  0  0  0  0  0
  138.9942   78.9933  223.4040 H   0  0  0  0  0  0  0  0  0  0  0  0
  140.1287   77.6393  223.7809 H   0  0  0  0  0  0  0  0  0  0  0  0
  140.1273   81.3948  223.7387 H   0  0  0  0  0  0  0  0  0  0  0  0
  142.6140   82.1940  223.6130 H   0  0  0  0  0  0  0  0  0  0  0  0
  144.2050   80.2589  222.9809 H   0  0  0  0  0  0  0  0  0  0  0  0
  139.1861   69.4065  222.7663 H   0  0  0  0  0  0  0  0  0  0  0  0
  139.2089   68.0218  224.8072 H   0  0  0  0  0  0  0  0  0  0  0  0
  139.7156   67.8900  227.1840 H   0  0  0  0  0  0  0  0  0  0  0  0
  140.5345   68.9123  229.2788 H   0  0  0  0  0  0  0  0  0  0  0  0
  141.2931   71.2589  229.2664 H   0  0  0  0  0  0  0  0  0  0  0  0
  141.2540   72.6061  227.1948 H   0  0  0  0  0  0  0  0  0  0  0  0
  1  2  2  0
  2  3  1  0
  3  4  1  0
  4  5  1  0
  5  6  2  0
  5  7  1  0
  7  8  1  0
  8  9  1  0
  9 10  1  0
 10 11  1  0
 11 12  1  0
 12 13  1  0
 13 14  2  0
 14 15  1  0
 15 16  1  0
 16 17  2  0
  2 18  1  0
 18 19  2  0
 19 20  1  0
 20 21  2  0
 21 22  1  0
 22 23  2  0
 23 24  1  0
 24 25  2  0
 25 26  1  0
 26 27  2  0
 11  7  1  0
 17 13  1  0
 27 18  1  0
 26 21  1  0
  3 28  1  0
  4 29  1  0
  4 30  1  0
  8 31  1  0
  8 32  1  0
  9 33  1  0
  9 34  1  0
 10 35  1  0
 10 36  1  0
 11 37  1  6
 12 38  1  0
 12 39  1  0
 14 40  1  0
 15 41  1  0
 16 42  1  0
 19 43  1  0
 20 44  1  0
 22 45  1  0
 23 46  1  0
 24 47  1  0
 25 48  1  0
M  END
>  <smiles>  (19) 
O=C(NCC(=O)N1CCC[C@H]1Cc1c[nH]cn1)c1ccc2ccccc2n1

>  <score_type>  (19) 
oracle

>  <origin>  (19) 
autodockgpu

>  <m_score__min__energy>  (19) 
-8.4499999999999993

>  <m_primary>  (19) 
energy

>  <rmsd>  (19) 
2.4340364578858398

>  <m_score__min__rmsd>  (19) 
2.4340364578858398

>  <meeko>  (19) 
{"free_energy": -7.55, "intermolecular_energy": -9.33, "internal_energy": -1.21, "cluster_size": 10, "cluster_id": 2, "rank_in_cluster": 10}

>  <energy>  (19) 
-7.76

>  <cluster_rmsd>  (19) 
1.95

>  <cluster>  (19) 
2

$$$$

     RDKit          3D

 48 51  0  0  0  0  0  0  0  0999 V2000
  141.1570   71.6040  221.4550 O   0  0  0  0  0  0  0  0  0  0  0  0
  140.5440   72.1020  222.4290 C   0  0  0  0  0  0  0  0  0  0  0  0
  140.0890   73.4340  222.3270 N   0  0  0  0  0  0  0  0  0  0  0  0
  140.3190   74.2180  221.1290 C   0  0  0  0  0  0  0  0  0  0  0  0
  140.7000   75.6050  221.4280 C   0  0  0  0  0  0  0  0  0  0  0  0
  140.3310   76.2480  222.4400 O   0  0  0  0  0  0  0  0  0  0  0  0
  141.5470   76.2800  220.5090 N   0  0  0  0  0  0  0  0  0  0  0  0
  141.8350   77.6950  220.5400 C   0  0  0  0  0  0  0  0  0  0  0  0
  141.8780   78.0870  219.0820 C   0  0  0  0  0  0  0  0  0  0  0  0
  141.9760   76.7760  218.3130 C   0  0  0  0  0  0  0  0  0  0  0  0
  142.2930   75.7420  219.3780 C   0  0  1  0  0  0  0  0  0  0  0  0
  143.7690   75.7500  219.7240 C   0  0  0  0  0  0  0  0  0  0  0  0
  144.1910   74.4360  220.2600 C   0  0  0  0  0  0  0  0  0  0  0  0
  145.4130   74.0780  220.8180 C   0  0  0  0  0  0  0  0  0  0  0  0
  145.3110   72.7750  221.1570 N   0  0  0  0  0  0  0  0  0  0  0  0
  144.0860   72.3100  220.8380 C   0  0  0  0  0  0  0  0  0  0  0  0
  143.4270   73.3340  220.2970 N   0  0  0  0  0  0  0  0  0  0  0  0
  140.3040   71.3290  223.6410 C   0  0  0  0  0  0  0  0  0  0  0  0
  139.6560   70.1170  223.5720 C   0  0  0  0  0  0  0  0  0  0  0  0
  139.3980   69.3400  224.6680 C   0  0  0  0  0  0  0  0  0  0  0  0
  139.8260   69.8300  225.9040 C   0  0  0  0  0  0  0  0  0  0  0  0
  139.6030   69.1070  227.0560 C   0  0  0  0  0  0  0  0  0  0  0  0
  140.0150   69.5710  228.2790 C   0  0  0  0  0  0  0  0  0  0  0  0
  140.6590   70.7810  228.3440 C   0  0  0  0  0  0  0  0  0  0  0  0
  140.9040   71.5370  227.2210 C   0  0  0  0  0  0  0  0  0  0  0  0
  140.4780   71.0510  225.9810 C   0  0  0  0  0  0  0  0  0  0  0  0
  140.6970   71.7610  224.8600 N   0  0  0  0  0  0  0  0  0  0  0  0
  139.5760   73.8210  223.1670 H   0  0  0  0  0  0  0  0  0  0  0  0
  141.1269   73.7475  220.5494 H   0  0  0  0  0  0  0  0  0  0  0  0
  139.3769   74.2454  220.5619 H   0  0  0  0  0  0  0  0  0  0  0  0
  141.0431   78.2444  221.0701 H   0  0  0  0  0  0  0  0  0  0  0  0
  142.7705   77.9268  221.0701 H   0  0  0  0  0  0  0  0  0  0  0  0
  140.9630   78.6297  218.8023 H   0  0  0  0  0  0  0  0  0  0  0  0
  142.7248   78.7540  218.8627 H   0  0  0  0  0  0  0  0  0  0  0  0
  141.0230   76.5436  217.8151 H   0  0  0  0  0  0  0  0  0  0  0  0
  142.7363   76.8094  217.5188 H   0  0  0  0  0  0  0  0  0  0  0  0
  142.0460   74.7115  219.0828 H   0  0  0  0  0  0  0  0  0  0  0  0
  144.3506   75.9732  218.8174 H   0  0  0  0  0  0  0  0  0  0  0  0
  143.9468   76.5173  220.4919 H   0  0  0  0  0  0  0  0  0  0  0  0
  146.2897   74.7279  220.9560 H   0  0  0  0  0  0  0  0  0  0  0  0
  146.0470   72.2040  221.5960 H   0  0  0  0  0  0  0  0  0  0  0  0
  143.7066   71.2893  220.9934 H   0  0  0  0  0  0  0  0  0  0  0  0
  139.3291   69.7548  222.5862 H   0  0  0  0  0  0  0  0  0  0  0  0
  138.8779   68.3747  224.5800 H   0  0  0  0  0  0  0  0  0  0  0  0
  139.0844   68.1389  226.9932 H   0  0  0  0  0  0  0  0  0  0  0  0
  139.8326   68.9840  229.1912 H   0  0  0  0  0  0  0  0  0  0  0  0
  140.9892   71.1577  229.3233 H   0  0  0  0  0  0  0  0  0  0  0  0
  141.4240   72.5033  227.2969 H   0  0  0  0  0  0  0  0  0  0  0  0
  1  2  2  0
  2  3  1  0
  3  4  1  0
  4  5  1  0
  5  6  2  0
  5  7  1  0
  7  8  1  0
  8  9  1  0
  9 10  1  0
 10 11  1  0
 11 12  1  0
 12 13  1  0
 13 14  2  0
 14 15  1  0
 15 16  1  0
 16 17  2  0
  2 18  1  0
 18 19  2  0
 19 20  1  0
 20 21  2  0
 21 22  1  0
 22 23  2  0
 23 24  1  0
 24 25  2  0
 25 26  1  0
 26 27  2  0
 11  7  1  0
 17 13  1  0
 27 18  1  0
 26 21  1  0
  3 28  1  0
  4 29  1  0
  4 30  1  0
  8 31  1  0
  8 32  1  0
  9 33  1  0
  9 34  1  0
 10 35  1  0
 10 36  1  0
 11 37  1  6
 12 38  1  0
 12 39  1  0
 14 40  1  0
 15 41  1  0
 16 42  1  0
 19 43  1  0
 20 44  1  0
 22 45  1  0
 23 46  1  0
 24 47  1  0
 25 48  1  0
M  END
>  <smiles>  (20) 
O=C(NCC(=O)N1CCC[C@H]1Cc1c[nH]cn1)c1ccc2ccccc2n1

>  <score_type>  (20) 
oracle

>  <origin>  (20) 
autodockgpu

>  <m_score__min__energy>  (20) 
-8.4499999999999993

>  <m_primary>  (20) 
energy

>  <rmsd>  (20) 
2.23692789501858

>  <m_score__min__rmsd>  (20) 
2.23692789501858

>  <meeko>  (20) 
{"free_energy": -8.4, "intermolecular_energy": -10.19, "internal_energy": -1.56, "cluster_size": 14, "cluster_id": 1, "rank_in_cluster": 3}

>  <energy>  (20) 
-7.71

>  <cluster_rmsd>  (20) 
1.9

>  <cluster>  (20) 
2

$$$$

     RDKit          3D

 48 51  0  0  0  0  0  0  0  0999 V2000
  140.1460   75.6880  222.6780 O   0  0  0  0  0  0  0  0  0  0  0  0
  140.4860   76.4270  221.7230 C   0  0  0  0  0  0  0  0  0  0  0  0
  140.5950   75.8570  220.4380 N   0  0  0  0  0  0  0  0  0  0  0  0
  140.3220   74.4500  220.2130 C   0  0  0  0  0  0  0  0  0  0  0  0
  141.3330   73.5750  220.8240 C   0  0  0  0  0  0  0  0  0  0  0  0
  141.1310   72.8270  221.8110 O   0  0  0  0  0  0  0  0  0  0  0  0
  142.6380   73.5670  220.2650 N   0  0  0  0  0  0  0  0  0  0  0  0
  143.3400   72.3840  219.8270 C   0  0  0  0  0  0  0  0  0  0  0  0
  144.7720   72.6400  220.2340 C   0  0  0  0  0  0  0  0  0  0  0  0
  144.8430   74.1290  220.5500 C   0  0  0  0  0  0  0  0  0  0  0  0
  143.5380   74.6860  220.0110 C   0  0  1  0  0  0  0  0  0  0  0  0
  143.6180   74.9110  218.5140 C   0  0  0  0  0  0  0  0  0  0  0  0
  143.2860   76.3140  218.1750 C   0  0  0  0  0  0  0  0  0  0  0  0
  143.4490   76.9760  216.9620 C   0  0  0  0  0  0  0  0  0  0  0  0
  142.9990   78.2350  217.1520 N   0  0  0  0  0  0  0  0  0  0  0  0
  142.5660   78.3840  218.4200 C   0  0  0  0  0  0  0  0  0  0  0  0
  142.7490   77.2070  219.0180 N   0  0  0  0  0  0  0  0  0  0  0  0
  140.7640   77.8430  221.9300 C   0  0  0  0  0  0  0  0  0  0  0  0
  141.1450   78.2990  223.1720 C   0  0  0  0  0  0  0  0  0  0  0  0
  141.4210   79.6120  223.4370 C   0  0  0  0  0  0  0  0  0  0  0  0
  141.3000   80.5100  222.3730 C   0  0  0  0  0  0  0  0  0  0  0  0
  141.5600   81.8510  222.5590 C   0  0  0  0  0  0  0  0  0  0  0  0
  141.4470   82.7480  221.5280 C   0  0  0  0  0  0  0  0  0  0  0  0
  141.0660   82.2900  220.2920 C   0  0  0  0  0  0  0  0  0  0  0  0
  140.7970   80.9600  220.0590 C   0  0  0  0  0  0  0  0  0  0  0  0
  140.9160   80.0580  221.1210 C   0  0  0  0  0  0  0  0  0  0  0  0
  140.6600   78.7500  220.9340 N   0  0  0  0  0  0  0  0  0  0  0  0
  140.8830   76.5090  219.6570 H   0  0  0  0  0  0  0  0  0  0  0  0
  139.3393   74.2081  220.6441 H   0  0  0  0  0  0  0  0  0  0  0  0
  140.3417   74.2755  219.1271 H   0  0  0  0  0  0  0  0  0  0  0  0
  142.9454   71.4871  220.3269 H   0  0  0  0  0  0  0  0  0  0  0  0
  143.2318   72.2016  218.7476 H   0  0  0  0  0  0  0  0  0  0  0  0
  145.0318   72.0453  221.1221 H   0  0  0  0  0  0  0  0  0  0  0  0
  145.4796   72.3559  219.4411 H   0  0  0  0  0  0  0  0  0  0  0  0
  144.9195   74.2945  221.6348 H   0  0  0  0  0  0  0  0  0  0  0  0
  145.7242   74.6131  220.1039 H   0  0  0  0  0  0  0  0  0  0  0  0
  143.2496   75.6486  220.4584 H   0  0  0  0  0  0  0  0  0  0  0  0
  144.6388   74.6886  218.1699 H   0  0  0  0  0  0  0  0  0  0  0  0
  142.8940   74.2475  218.0184 H   0  0  0  0  0  0  0  0  0  0  0  0
  143.8624   76.5570  216.0327 H   0  0  0  0  0  0  0  0  0  0  0  0
  142.9820   78.9840  216.4450 H   0  0  0  0  0  0  0  0  0  0  0  0
  142.1456   79.2950  218.8710 H   0  0  0  0  0  0  0  0  0  0  0  0
  141.2317   77.5710  223.9920 H   0  0  0  0  0  0  0  0  0  0  0  0
  141.7240   79.9456  224.4404 H   0  0  0  0  0  0  0  0  0  0  0  0
  141.8640   82.2084  223.5539 H   0  0  0  0  0  0  0  0  0  0  0  0
  141.6580   83.8155  221.6889 H   0  0  0  0  0  0  0  0  0  0  0  0
  140.9727   83.0067  219.4627 H   0  0  0  0  0  0  0  0  0  0  0  0
  140.4951   80.6144  219.0593 H   0  0  0  0  0  0  0  0  0  0  0  0
  1  2  2  0
  2  3  1  0
  3  4  1  0
  4  5  1  0
  5  6  2  0
  5  7  1  0
  7  8  1  0
  8  9  1  0
  9 10  1  0
 10 11  1  0
 11 12  1  0
 12 13  1  0
 13 14  2  0
 14 15  1  0
 15 16  1  0
 16 17  2  0
  2 18  1  0
 18 19  2  0
 19 20  1  0
 20 21  2  0
 21 22  1  0
 22 23  2  0
 23 24  1  0
 24 25  2  0
 25 26  1  0
 26 27  2  0
 11  7  1  0
 17 13  1  0
 27 18  1  0
 26 21  1  0
  3 28  1  0
  4 29  1  0
  4 30  1  0
  8 31  1  0
  8 32  1  0
  9 33  1  0
  9 34  1  0
 10 35  1  0
 10 36  1  0
 11 37  1  1
 12 38  1  0
 12 39  1  0
 14 40  1  0
 15 41  1  0
 16 42  1  0
 19 43  1  0
 20 44  1  0
 22 45  1  0
 23 46  1  0
 24 47  1  0
 25 48  1  0
M  END
>  <smiles>  (21) 
O=C(NCC(=O)N1CCC[C@H]1Cc1c[nH]cn1)c1ccc2ccccc2n1

>  <score_type>  (21) 
oracle

>  <origin>  (21) 
autodockgpu

>  <m_score__min__energy>  (21) 
-8.4499999999999993

>  <m_primary>  (21) 
energy

>  <rmsd>  (21) 
8.56612896633486

>  <m_score__min__rmsd>  (21) 
8.56612896633486

>  <meeko>  (21) 
{"free_energy": -6.18, "intermolecular_energy": -7.97, "internal_energy": -2.66, "cluster_size": 10, "cluster_id": 8, "rank_in_cluster": 7}

>  <energy>  (21) 
-7.68

>  <cluster_rmsd>  (21) 
1.96

>  <cluster>  (21) 
2

$$$$

     RDKit          3D

 48 51  0  0  0  0  0  0  0  0999 V2000
  141.4240   72.1840  221.6960 O   0  0  0  0  0  0  0  0  0  0  0  0
  140.5180   72.4420  222.5240 C   0  0  0  0  0  0  0  0  0  0  0  0
  139.7220   73.5870  222.3140 N   0  0  0  0  0  0  0  0  0  0  0  0
  139.9360   74.4540  221.1720 C   0  0  0  0  0  0  0  0  0  0  0  0
  140.6990   75.6620  221.5160 C   0  0  0  0  0  0  0  0  0  0  0  0
  140.6930   76.2180  222.6410 O   0  0  0  0  0  0  0  0  0  0  0  0
  141.5070   76.2540  220.5090 N   0  0  0  0  0  0  0  0  0  0  0  0
  141.7530   77.6710  220.3780 C   0  0  0  0  0  0  0  0  0  0  0  0
  141.7540   77.9020  218.8850 C   0  0  0  0  0  0  0  0  0  0  0  0
  141.8730   76.5180  218.2610 C   0  0  0  0  0  0  0  0  0  0  0  0
  142.2430   75.6160  219.4250 C   0  0  1  0  0  0  0  0  0  0  0  0
  143.7250   75.7010  219.7310 C   0  0  0  0  0  0  0  0  0  0  0  0
  144.2440   74.3910  220.1860 C   0  0  0  0  0  0  0  0  0  0  0  0
  145.4510   74.1070  220.8170 C   0  0  0  0  0  0  0  0  0  0  0  0
  145.4650   72.7740  221.0300 N   0  0  0  0  0  0  0  0  0  0  0  0
  144.3280   72.2200  220.5640 C   0  0  0  0  0  0  0  0  0  0  0  0
  143.6050   73.2190  220.0590 N   0  0  0  0  0  0  0  0  0  0  0  0
  140.2870   71.5820  223.6790 C   0  0  0  0  0  0  0  0  0  0  0  0
  139.6010   70.3970  223.5330 C   0  0  0  0  0  0  0  0  0  0  0  0
  139.3490   69.5430  224.5710 C   0  0  0  0  0  0  0  0  0  0  0  0
  139.8240   69.9220  225.8290 C   0  0  0  0  0  0  0  0  0  0  0  0
  139.6100   69.1150  226.9270 C   0  0  0  0  0  0  0  0  0  0  0  0
  140.0690   69.4700  228.1700 C   0  0  0  0  0  0  0  0  0  0  0  0
  140.7510   70.6520  228.3120 C   0  0  0  0  0  0  0  0  0  0  0  0
  140.9880   71.4880  227.2450 C   0  0  0  0  0  0  0  0  0  0  0  0
  140.5140   71.1140  225.9830 C   0  0  0  0  0  0  0  0  0  0  0  0
  140.7250   71.9050  224.9150 N   0  0  0  0  0  0  0  0  0  0  0  0
  138.9670   73.7730  223.0320 H   0  0  0  0  0  0  0  0  0  0  0  0
  140.4894   73.8945  220.4034 H   0  0  0  0  0  0  0  0  0  0  0  0
  138.9491   74.7753  220.8074 H   0  0  0  0  0  0  0  0  0  0  0  0
  140.9562   78.2533  220.8638 H   0  0  0  0  0  0  0  0  0  0  0  0
  142.6922   77.9850  220.8569 H   0  0  0  0  0  0  0  0  0  0  0  0
  140.8182   78.3868  218.5701 H   0  0  0  0  0  0  0  0  0  0  0  0
  142.5767   78.5627  218.5741 H   0  0  0  0  0  0  0  0  0  0  0  0
  140.9166   76.2073  217.8152 H   0  0  0  0  0  0  0  0  0  0  0  0
  142.6143   76.4839  217.4490 H   0  0  0  0  0  0  0  0  0  0  0  0
  142.0192   74.5533  219.2501 H   0  0  0  0  0  0  0  0  0  0  0  0
  144.2640   76.0064  218.8220 H   0  0  0  0  0  0  0  0  0  0  0  0
  143.8777   76.4385  220.5328 H   0  0  0  0  0  0  0  0  0  0  0  0
  146.2379   74.8261  221.0885 H   0  0  0  0  0  0  0  0  0  0  0  0
  146.2220   72.2410  221.4810 H   0  0  0  0  0  0  0  0  0  0  0  0
  144.0520   71.1556  220.5945 H   0  0  0  0  0  0  0  0  0  0  0  0
  139.2375   70.1236  222.5314 H   0  0  0  0  0  0  0  0  0  0  0  0
  138.7984   68.6023  224.4225 H   0  0  0  0  0  0  0  0  0  0  0  0
  139.0613   68.1696  226.8036 H   0  0  0  0  0  0  0  0  0  0  0  0
  139.8932   68.8180  229.0383 H   0  0  0  0  0  0  0  0  0  0  0  0
  141.1191   70.9398  229.3078 H   0  0  0  0  0  0  0  0  0  0  0  0
  141.5386   72.4305  227.3815 H   0  0  0  0  0  0  0  0  0  0  0  0
  1  2  2  0
  2  3  1  0
  3  4  1  0
  4  5  1  0
  5  6  2  0
  5  7  1  0
  7  8  1  0
  8  9  1  0
  9 10  1  0
 10 11  1  0
 11 12  1  0
 12 13  1  0
 13 14  2  0
 14 15  1  0
 15 16  1  0
 16 17  2  0
  2 18  1  0
 18 19  2  0
 19 20  1  0
 20 21  2  0
 21 22  1  0
 22 23  2  0
 23 24  1  0
 24 25  2  0
 25 26  1  0
 26 27  2  0
 11  7  1  0
 17 13  1  0
 27 18  1  0
 26 21  1  0
  3 28  1  0
  4 29  1  0
  4 30  1  0
  8 31  1  0
  8 32  1  0
  9 33  1  0
  9 34  1  0
 10 35  1  0
 10 36  1  0
 11 37  1  6
 12 38  1  0
 12 39  1  0
 14 40  1  0
 15 41  1  0
 16 42  1  0
 19 43  1  0
 20 44  1  0
 22 45  1  0
 23 46  1  0
 24 47  1  0
 25 48  1  0
M  END
>  <smiles>  (22) 
O=C(NCC(=O)N1CCC[C@H]1Cc1c[nH]cn1)c1ccc2ccccc2n1

>  <score_type>  (22) 
oracle

>  <origin>  (22) 
autodockgpu

>  <m_score__min__energy>  (22) 
-8.4499999999999993

>  <m_primary>  (22) 
energy

>  <rmsd>  (22) 
2.1893921033152095

>  <m_score__min__rmsd>  (22) 
2.1893921033152095

>  <meeko>  (22) 
{"free_energy": -8.4, "intermolecular_energy": -10.19, "internal_energy": -1.4, "cluster_size": 14, "cluster_id": 1, "rank_in_cluster": 2}

>  <energy>  (22) 
-7.66

>  <cluster_rmsd>  (22) 
1.97

>  <cluster>  (22) 
2

$$$$

     RDKit          3D

 48 51  0  0  0  0  0  0  0  0999 V2000
  141.4520   72.1190  221.6490 O   0  0  0  0  0  0  0  0  0  0  0  0
  140.5930   72.4420  222.5040 C   0  0  0  0  0  0  0  0  0  0  0  0
  139.9030   73.6600  222.3360 N   0  0  0  0  0  0  0  0  0  0  0  0
  140.1710   74.5280  221.2050 C   0  0  0  0  0  0  0  0  0  0  0  0
  139.8410   75.9330  221.4820 C   0  0  0  0  0  0  0  0  0  0  0  0
  138.7840   76.3260  222.0320 O   0  0  0  0  0  0  0  0  0  0  0  0
  140.7790   76.9290  221.1010 N   0  0  0  0  0  0  0  0  0  0  0  0
  141.3900   77.8740  222.0060 C   0  0  0  0  0  0  0  0  0  0  0  0
  141.4560   79.1520  221.2050 C   0  0  0  0  0  0  0  0  0  0  0  0
  141.2080   78.7380  219.7600 C   0  0  0  0  0  0  0  0  0  0  0  0
  141.3240   77.2250  219.7820 C   0  0  1  0  0  0  0  0  0  0  0  0
  142.7760   76.7890  219.7490 C   0  0  0  0  0  0  0  0  0  0  0  0
  142.8800   75.3120  219.7020 C   0  0  0  0  0  0  0  0  0  0  0  0
  143.2780   74.4380  220.7080 C   0  0  0  0  0  0  0  0  0  0  0  0
  143.2070   73.1960  220.1820 N   0  0  0  0  0  0  0  0  0  0  0  0
  142.7860   73.2590  218.9040 C   0  0  0  0  0  0  0  0  0  0  0  0
  142.5940   74.5500  218.6360 N   0  0  0  0  0  0  0  0  0  0  0  0
  140.3100   71.5830  223.6480 C   0  0  0  0  0  0  0  0  0  0  0  0
  139.6190   70.4050  223.4740 C   0  0  0  0  0  0  0  0  0  0  0  0
  139.3190   69.5530  224.5000 C   0  0  0  0  0  0  0  0  0  0  0  0
  139.7490   69.9250  225.7760 C   0  0  0  0  0  0  0  0  0  0  0  0
  139.4860   69.1190  226.8640 C   0  0  0  0  0  0  0  0  0  0  0  0
  139.9010   69.4670  228.1240 C   0  0  0  0  0  0  0  0  0  0  0  0
  140.5890   70.6410  228.2930 C   0  0  0  0  0  0  0  0  0  0  0  0
  140.8750   71.4760  227.2370 C   0  0  0  0  0  0  0  0  0  0  0  0
  140.4460   71.1090  225.9580 C   0  0  0  0  0  0  0  0  0  0  0  0
  140.7050   71.8990  224.9010 N   0  0  0  0  0  0  0  0  0  0  0  0
  139.1860   73.9000  223.0760 H   0  0  0  0  0  0  0  0  0  0  0  0
  141.2397   74.4598  220.9537 H   0  0  0  0  0  0  0  0  0  0  0  0
  139.5367   74.1944  220.3705 H   0  0  0  0  0  0  0  0  0  0  0  0
  140.7734   78.0081  222.9070 H   0  0  0  0  0  0  0  0  0  0  0  0
  142.3774   77.5441  222.3612 H   0  0  0  0  0  0  0  0  0  0  0  0
  140.6818   79.8573  221.5414 H   0  0  0  0  0  0  0  0  0  0  0  0
  142.4246   79.6596  221.3243 H   0  0  0  0  0  0  0  0  0  0  0  0
  140.2048   79.0478  219.4320 H   0  0  0  0  0  0  0  0  0  0  0  0
  141.9164   79.2051  219.0600 H   0  0  0  0  0  0  0  0  0  0  0  0
  140.8286   76.7304  218.9335 H   0  0  0  0  0  0  0  0  0  0  0  0
  143.2599   77.2133  218.8569 H   0  0  0  0  0  0  0  0  0  0  0  0
  143.2734   77.1490  220.6617 H   0  0  0  0  0  0  0  0  0  0  0  0
  143.5887   74.7051  221.7288 H   0  0  0  0  0  0  0  0  0  0  0  0
  143.4370   72.3180  220.6710 H   0  0  0  0  0  0  0  0  0  0  0  0
  142.6315   72.4130  218.2181 H   0  0  0  0  0  0  0  0  0  0  0  0
  139.2920   70.1360  222.4588 H   0  0  0  0  0  0  0  0  0  0  0  0
  138.7650   68.6183  224.3289 H   0  0  0  0  0  0  0  0  0  0  0  0
  138.9329   68.1794  226.7183 H   0  0  0  0  0  0  0  0  0  0  0  0
  139.6857   68.8157  228.9839 H   0  0  0  0  0  0  0  0  0  0  0  0
  140.9222   70.9238  229.3025 H   0  0  0  0  0  0  0  0  0  0  0  0
  141.4296   72.4126  227.3960 H   0  0  0  0  0  0  0  0  0  0  0  0
  1  2  2  0
  2  3  1  0
  3  4  1  0
  4  5  1  0
  5  6  2  0
  5  7  1  0
  7  8  1  0
  8  9  1  0
  9 10  1  0
 10 11  1  0
 11 12  1  0
 12 13  1  0
 13 14  2  0
 14 15  1  0
 15 16  1  0
 16 17  2  0
  2 18  1  0
 18 19  2  0
 19 20  1  0
 20 21  2  0
 21 22  1  0
 22 23  2  0
 23 24  1  0
 24 25  2  0
 25 26  1  0
 26 27  2  0
 11  7  1  0
 17 13  1  0
 27 18  1  0
 26 21  1  0
  3 28  1  0
  4 29  1  0
  4 30  1  0
  8 31  1  0
  8 32  1  0
  9 33  1  0
  9 34  1  0
 10 35  1  0
 10 36  1  0
 11 37  1  6
 12 38  1  0
 12 39  1  0
 14 40  1  0
 15 41  1  0
 16 42  1  0
 19 43  1  0
 20 44  1  0
 22 45  1  0
 23 46  1  0
 24 47  1  0
 25 48  1  0
M  END
>  <smiles>  (23) 
O=C(NCC(=O)N1CCC[C@H]1Cc1c[nH]cn1)c1ccc2ccccc2n1

>  <score_type>  (23) 
oracle

>  <origin>  (23) 
autodockgpu

>  <m_score__min__energy>  (23) 
-8.4499999999999993

>  <m_primary>  (23) 
energy

>  <rmsd>  (23) 
2.626077122253239

>  <m_score__min__rmsd>  (23) 
2.626077122253239

>  <meeko>  (23) 
{"free_energy": -6.87, "intermolecular_energy": -8.66, "internal_energy": -1.94, "cluster_size": 14, "cluster_id": 1, "rank_in_cluster": 14}

>  <energy>  (23) 
-7.64

>  <cluster_rmsd>  (23) 
1.87

>  <cluster>  (23) 
2

$$$$

     RDKit          3D

 48 51  0  0  0  0  0  0  0  0999 V2000
  141.2720   71.8210  221.5810 O   0  0  0  0  0  0  0  0  0  0  0  0
  140.3900   72.1340  222.4160 C   0  0  0  0  0  0  0  0  0  0  0  0
  139.5450   73.2250  222.1230 N   0  0  0  0  0  0  0  0  0  0  0  0
  139.6830   73.9740  220.8890 C   0  0  0  0  0  0  0  0  0  0  0  0
  140.5540   75.1490  221.0360 C   0  0  0  0  0  0  0  0  0  0  0  0
  141.7180   75.2400  220.5770 O   0  0  0  0  0  0  0  0  0  0  0  0
  140.0520   76.2690  221.7500 N   0  0  0  0  0  0  0  0  0  0  0  0
  138.9500   76.2280  222.6810 C   0  0  0  0  0  0  0  0  0  0  0  0
  138.2130   77.5220  222.4280 C   0  0  0  0  0  0  0  0  0  0  0  0
  139.1740   78.3830  221.6180 C   0  0  0  0  0  0  0  0  0  0  0  0
  140.5020   77.6550  221.7210 C   0  0  1  0  0  0  0  0  0  0  0  0
  141.1940   77.9670  223.0330 C   0  0  0  0  0  0  0  0  0  0  0  0
  141.6610   79.3730  223.0610 C   0  0  0  0  0  0  0  0  0  0  0  0
  141.6790   80.3010  222.0250 C   0  0  0  0  0  0  0  0  0  0  0  0
  142.1930   81.4380  222.5430 N   0  0  0  0  0  0  0  0  0  0  0  0
  142.4910   81.2590  223.8450 C   0  0  0  0  0  0  0  0  0  0  0  0
  142.1600   80.0010  224.1350 N   0  0  0  0  0  0  0  0  0  0  0  0
  140.2370   71.3930  223.6620 C   0  0  0  0  0  0  0  0  0  0  0  0
  139.6010   70.1720  223.6670 C   0  0  0  0  0  0  0  0  0  0  0  0
  139.4230   69.4240  224.7970 C   0  0  0  0  0  0  0  0  0  0  0  0
  139.9210   69.9530  225.9900 C   0  0  0  0  0  0  0  0  0  0  0  0
  139.7800   69.2600  227.1740 C   0  0  0  0  0  0  0  0  0  0  0  0
  140.2620   69.7630  228.3550 C   0  0  0  0  0  0  0  0  0  0  0  0
  140.8940   70.9800  228.3460 C   0  0  0  0  0  0  0  0  0  0  0  0
  141.0580   71.7080  227.1890 C   0  0  0  0  0  0  0  0  0  0  0  0
  140.5610   71.1820  225.9930 C   0  0  0  0  0  0  0  0  0  0  0  0
  140.7010   71.8630  224.8410 N   0  0  0  0  0  0  0  0  0  0  0  0
  138.8130   73.4610  222.8500 H   0  0  0  0  0  0  0  0  0  0  0  0
  140.1103   73.3124  220.1211 H   0  0  0  0  0  0  0  0  0  0  0  0
  138.6834   74.3336  220.6037 H   0  0  0  0  0  0  0  0  0  0  0  0
  138.3011   75.3625  222.4816 H   0  0  0  0  0  0  0  0  0  0  0  0
  139.2802   76.1248  223.7252 H   0  0  0  0  0  0  0  0  0  0  0  0
  137.2907   77.3347  221.8585 H   0  0  0  0  0  0  0  0  0  0  0  0
  137.9149   78.0132  223.3660 H   0  0  0  0  0  0  0  0  0  0  0  0
  138.8472   78.4523  220.5700 H   0  0  0  0  0  0  0  0  0  0  0  0
  139.2298   79.4167  221.9899 H   0  0  0  0  0  0  0  0  0  0  0  0
  141.2124   77.9144  220.9222 H   0  0  0  0  0  0  0  0  0  0  0  0
  140.4876   77.8052  223.8606 H   0  0  0  0  0  0  0  0  0  0  0  0
  142.0656   77.3041  223.1380 H   0  0  0  0  0  0  0  0  0  0  0  0
  141.3419   80.1410  220.9902 H   0  0  0  0  0  0  0  0  0  0  0  0
  142.3410   82.3210  222.0340 H   0  0  0  0  0  0  0  0  0  0  0  0
  142.9216   82.0029  224.5315 H   0  0  0  0  0  0  0  0  0  0  0  0
  139.2170   69.7788  222.7141 H   0  0  0  0  0  0  0  0  0  0  0  0
  138.9114   68.4507  224.7683 H   0  0  0  0  0  0  0  0  0  0  0  0
  139.2710   68.2849  227.1709 H   0  0  0  0  0  0  0  0  0  0  0  0
  140.1438   69.2004  229.2928 H   0  0  0  0  0  0  0  0  0  0  0  0
  141.2816   71.3868  229.2917 H   0  0  0  0  0  0  0  0  0  0  0  0
  141.5688   72.6821  227.2054 H   0  0  0  0  0  0  0  0  0  0  0  0
  1  2  2  0
  2  3  1  0
  3  4  1  0
  4  5  1  0
  5  6  2  0
  5  7  1  0
  7  8  1  0
  8  9  1  0
  9 10  1  0
 10 11  1  0
 11 12  1  0
 12 13  1  0
 13 14  2  0
 14 15  1  0
 15 16  1  0
 16 17  2  0
  2 18  1  0
 18 19  2  0
 19 20  1  0
 20 21  2  0
 21 22  1  0
 22 23  2  0
 23 24  1  0
 24 25  2  0
 25 26  1  0
 26 27  2  0
 11  7  1  0
 17 13  1  0
 27 18  1  0
 26 21  1  0
  3 28  1  0
  4 29  1  0
  4 30  1  0
  8 31  1  0
  8 32  1  0
  9 33  1  0
  9 34  1  0
 10 35  1  0
 10 36  1  0
 11 37  1  6
 12 38  1  0
 12 39  1  0
 14 40  1  0
 15 41  1  0
 16 42  1  0
 19 43  1  0
 20 44  1  0
 22 45  1  0
 23 46  1  0
 24 47  1  0
 25 48  1  0
M  END
>  <smiles>  (24) 
O=C(NCC(=O)N1CCC[C@H]1Cc1c[nH]cn1)c1ccc2ccccc2n1

>  <score_type>  (24) 
oracle

>  <origin>  (24) 
autodockgpu

>  <m_score__min__energy>  (24) 
-8.4499999999999993

>  <m_primary>  (24) 
energy

>  <rmsd>  (24) 
2.5665110294928475

>  <m_score__min__rmsd>  (24) 
2.5665110294928475

>  <meeko>  (24) 
{"free_energy": -8.02, "intermolecular_energy": -9.81, "internal_energy": -1.08, "cluster_size": 10, "cluster_id": 2, "rank_in_cluster": 3}

>  <energy>  (24) 
-7.55

>  <cluster_rmsd>  (24) 
1.17

>  <cluster>  (24) 
2

$$$$

     RDKit          3D

 48 51  0  0  0  0  0  0  0  0999 V2000
  141.0180   71.6820  221.4270 O   0  0  0  0  0  0  0  0  0  0  0  0
  140.4660   72.1960  222.4290 C   0  0  0  0  0  0  0  0  0  0  0  0
  140.0330   73.5360  222.3450 N   0  0  0  0  0  0  0  0  0  0  0  0
  140.2170   74.3110  221.1330 C   0  0  0  0  0  0  0  0  0  0  0  0
  140.0790   75.7560  221.3620 C   0  0  0  0  0  0  0  0  0  0  0  0
  139.4700   76.2740  222.3300 O   0  0  0  0  0  0  0  0  0  0  0  0
  140.6720   76.6430  220.4240 N   0  0  0  0  0  0  0  0  0  0  0  0
  140.2100   76.8410  219.0710 C   0  0  0  0  0  0  0  0  0  0  0  0
  141.4830   76.9950  218.2730 C   0  0  0  0  0  0  0  0  0  0  0  0
  142.5790   77.2430  219.3020 C   0  0  0  0  0  0  0  0  0  0  0  0
  141.8240   77.5210  220.5890 C   0  0  1  0  0  0  0  0  0  0  0  0
  141.3360   78.9560  220.6360 C   0  0  0  0  0  0  0  0  0  0  0  0
  141.7560   79.6130  221.8950 C   0  0  0  0  0  0  0  0  0  0  0  0
  142.1970   79.0250  223.0750 C   0  0  0  0  0  0  0  0  0  0  0  0
  142.4600   80.0370  223.9300 N   0  0  0  0  0  0  0  0  0  0  0  0
  142.2050   81.2200  223.3370 C   0  0  0  0  0  0  0  0  0  0  0  0
  141.7800   80.9370  222.1050 N   0  0  0  0  0  0  0  0  0  0  0  0
  140.2720   71.4320  223.6560 C   0  0  0  0  0  0  0  0  0  0  0  0
  139.6310   70.2150  223.6190 C   0  0  0  0  0  0  0  0  0  0  0  0
  139.4160   69.4470  224.7300 C   0  0  0  0  0  0  0  0  0  0  0  0
  139.8820   69.9510  225.9460 C   0  0  0  0  0  0  0  0  0  0  0  0
  139.7040   69.2360  227.1120 C   0  0  0  0  0  0  0  0  0  0  0  0
  140.1540   69.7140  228.3160 C   0  0  0  0  0  0  0  0  0  0  0  0
  140.7930   70.9280  228.3490 C   0  0  0  0  0  0  0  0  0  0  0  0
  140.9940   71.6760  227.2110 C   0  0  0  0  0  0  0  0  0  0  0  0
  140.5280   71.1760  225.9910 C   0  0  0  0  0  0  0  0  0  0  0  0
  140.7050   71.8780  224.8570 N   0  0  0  0  0  0  0  0  0  0  0  0
  139.5720   73.9370  223.2090 H   0  0  0  0  0  0  0  0  0  0  0  0
  141.2233   74.1114  220.7361 H   0  0  0  0  0  0  0  0  0  0  0  0
  139.4341   74.0093  220.4216 H   0  0  0  0  0  0  0  0  0  0  0  0
  139.6325   75.9718  218.7232 H   0  0  0  0  0  0  0  0  0  0  0  0
  139.5400   77.7079  218.9735 H   0  0  0  0  0  0  0  0  0  0  0  0
  141.6921   76.0787  217.7015 H   0  0  0  0  0  0  0  0  0  0  0  0
  141.4123   77.8166  217.5451 H   0  0  0  0  0  0  0  0  0  0  0  0
  143.2210   76.3563  219.4099 H   0  0  0  0  0  0  0  0  0  0  0  0
  143.2456   78.0703  219.0170 H   0  0  0  0  0  0  0  0  0  0  0  0
  142.4242   77.3639  221.4973 H   0  0  0  0  0  0  0  0  0  0  0  0
  141.7571   79.5083  219.7830 H   0  0  0  0  0  0  0  0  0  0  0  0
  140.2371   78.9566  220.5874 H   0  0  0  0  0  0  0  0  0  0  0  0
  142.3095   77.9488  223.2731 H   0  0  0  0  0  0  0  0  0  0  0  0
  142.8060   79.9390  224.8950 H   0  0  0  0  0  0  0  0  0  0  0  0
  142.3237   82.2196  223.7806 H   0  0  0  0  0  0  0  0  0  0  0  0
  139.2739   69.8414  222.6480 H   0  0  0  0  0  0  0  0  0  0  0  0
  138.9000   68.4775  224.6685 H   0  0  0  0  0  0  0  0  0  0  0  0
  139.1911   68.2636  227.0754 H   0  0  0  0  0  0  0  0  0  0  0  0
  140.0054   69.1345  229.2391 H   0  0  0  0  0  0  0  0  0  0  0  0
  141.1552   71.3147  229.3130 H   0  0  0  0  0  0  0  0  0  0  0  0
  141.5101   72.6462  227.2602 H   0  0  0  0  0  0  0  0  0  0  0  0
  1  2  2  0
  2  3  1  0
  3  4  1  0
  4  5  1  0
  5  6  2  0
  5  7  1  0
  7  8  1  0
  8  9  1  0
  9 10  1  0
 10 11  1  0
 11 12  1  0
 12 13  1  0
 13 14  2  0
 14 15  1  0
 15 16  1  0
 16 17  2  0
  2 18  1  0
 18 19  2  0
 19 20  1  0
 20 21  2  0
 21 22  1  0
 22 23  2  0
 23 24  1  0
 24 25  2  0
 25 26  1  0
 26 27  2  0
 11  7  1  0
 17 13  1  0
 27 18  1  0
 26 21  1  0
  3 28  1  0
  4 29  1  0
  4 30  1  0
  8 31  1  0
  8 32  1  0
  9 33  1  0
  9 34  1  0
 10 35  1  0
 10 36  1  0
 11 37  1  1
 12 38  1  0
 12 39  1  0
 14 40  1  0
 15 41  1  0
 16 42  1  0
 19 43  1  0
 20 44  1  0
 22 45  1  0
 23 46  1  0
 24 47  1  0
 25 48  1  0
M  END
>  <smiles>  (25) 
O=C(NCC(=O)N1CCC[C@H]1Cc1c[nH]cn1)c1ccc2ccccc2n1

>  <score_type>  (25) 
oracle

>  <origin>  (25) 
autodockgpu

>  <m_score__min__energy>  (25) 
-8.4499999999999993

>  <m_primary>  (25) 
energy

>  <rmsd>  (25) 
1.7353998382835991

>  <m_score__min__rmsd>  (25) 
1.7353998382835991

>  <meeko>  (25) 
{"free_energy": -7.71, "intermolecular_energy": -9.49, "internal_energy": -1.35, "cluster_size": 10, "cluster_id": 2, "rank_in_cluster": 6}

>  <energy>  (25) 
-7.96

>  <cluster_rmsd>  (25) 
0.0

>  <cluster>  (25) 
3

$$$$

     RDKit          3D

 48 51  0  0  0  0  0  0  0  0999 V2000
  140.4830   74.5300  220.1240 O   0  0  0  0  0  0  0  0  0  0  0  0
  140.2870   75.1630  221.1900 C   0  0  0  0  0  0  0  0  0  0  0  0
  139.5270   74.5470  222.2060 N   0  0  0  0  0  0  0  0  0  0  0  0
  138.9800   73.2150  222.0360 C   0  0  0  0  0  0  0  0  0  0  0  0
  140.0030   72.1660  222.1540 C   0  0  0  0  0  0  0  0  0  0  0  0
  141.0760   72.1350  221.5050 O   0  0  0  0  0  0  0  0  0  0  0  0
  139.7710   71.1040  223.0670 N   0  0  0  0  0  0  0  0  0  0  0  0
  139.5690   69.7240  222.6920 C   0  0  0  0  0  0  0  0  0  0  0  0
  138.5100   69.2380  223.6530 C   0  0  0  0  0  0  0  0  0  0  0  0
  138.4520   70.2870  224.7550 C   0  0  0  0  0  0  0  0  0  0  0  0
  139.6850   71.1420  224.5220 C   0  0  1  0  0  0  0  0  0  0  0  0
  140.9220   70.4810  225.0970 C   0  0  0  0  0  0  0  0  0  0  0  0
  140.5740   69.6380  226.2640 C   0  0  0  0  0  0  0  0  0  0  0  0
  140.5300   68.2510  226.3500 C   0  0  0  0  0  0  0  0  0  0  0  0
  140.1620   67.9590  227.6160 N   0  0  0  0  0  0  0  0  0  0  0  0
  139.9770   69.0960  228.3160 C   0  0  0  0  0  0  0  0  0  0  0  0
  140.2330   70.0990  227.4760 N   0  0  0  0  0  0  0  0  0  0  0  0
  140.8280   76.5030  221.3790 C   0  0  0  0  0  0  0  0  0  0  0  0
  141.1850   77.2650  220.2900 C   0  0  0  0  0  0  0  0  0  0  0  0
  141.6980   78.5290  220.3940 C   0  0  0  0  0  0  0  0  0  0  0  0
  141.8560   79.0410  221.6830 C   0  0  0  0  0  0  0  0  0  0  0  0
  142.3680   80.3080  221.8730 C   0  0  0  0  0  0  0  0  0  0  0  0
  142.5310   80.8290  223.1310 C   0  0  0  0  0  0  0  0  0  0  0  0
  142.1750   80.0660  224.2140 C   0  0  0  0  0  0  0  0  0  0  0  0
  141.6610   78.7970  224.0730 C   0  0  0  0  0  0  0  0  0  0  0  0
  141.5000   78.2790  222.7850 C   0  0  0  0  0  0  0  0  0  0  0  0
  141.0010   77.0420  222.6060 N   0  0  0  0  0  0  0  0  0  0  0  0
  139.3810   75.1100  223.0900 H   0  0  0  0  0  0  0  0  0  0  0  0
  138.2130   73.0478  222.8066 H   0  0  0  0  0  0  0  0  0  0  0  0
  138.5559   73.1551  221.0228 H   0  0  0  0  0  0  0  0  0  0  0  0
  139.2184   69.6483  221.6521 H   0  0  0  0  0  0  0  0  0  0  0  0
  140.4937   69.1305  222.7439 H   0  0  0  0  0  0  0  0  0  0  0  0
  137.5372   69.1586  223.1457 H   0  0  0  0  0  0  0  0  0  0  0  0
  138.7454   68.2397  224.0505 H   0  0  0  0  0  0  0  0  0  0  0  0
  137.5367   70.8913  224.6704 H   0  0  0  0  0  0  0  0  0  0  0  0
  138.4329   69.8409  225.7603 H   0  0  0  0  0  0  0  0  0  0  0  0
  139.6235   72.1422  224.9758 H   0  0  0  0  0  0  0  0  0  0  0  0
  141.3872   69.8520  224.3237 H   0  0  0  0  0  0  0  0  0  0  0  0
  141.6206   71.2650  225.4244 H   0  0  0  0  0  0  0  0  0  0  0  0
  140.7512   67.5336  225.5460 H   0  0  0  0  0  0  0  0  0  0  0  0
  140.0360   67.0150  228.0070 H   0  0  0  0  0  0  0  0  0  0  0  0
  139.6749   69.1796  229.3704 H   0  0  0  0  0  0  0  0  0  0  0  0
  141.0512   76.8364  219.2858 H   0  0  0  0  0  0  0  0  0  0  0  0
  141.9729   79.1141  219.5040 H   0  0  0  0  0  0  0  0  0  0  0  0
  142.6510   80.9120  220.9983 H   0  0  0  0  0  0  0  0  0  0  0  0
  142.9400   81.8408  223.2692 H   0  0  0  0  0  0  0  0  0  0  0  0
  142.3041   80.4805  225.2247 H   0  0  0  0  0  0  0  0  0  0  0  0
  141.3827   78.2028  224.9559 H   0  0  0  0  0  0  0  0  0  0  0  0
  1  2  2  0
  2  3  1  0
  3  4  1  0
  4  5  1  0
  5  6  2  0
  5  7  1  0
  7  8  1  0
  8  9  1  0
  9 10  1  0
 10 11  1  0
 11 12  1  0
 12 13  1  0
 13 14  2  0
 14 15  1  0
 15 16  1  0
 16 17  2  0
  2 18  1  0
 18 19  2  0
 19 20  1  0
 20 21  2  0
 21 22  1  0
 22 23  2  0
 23 24  1  0
 24 25  2  0
 25 26  1  0
 26 27  2  0
 11  7  1  0
 17 13  1  0
 27 18  1  0
 26 21  1  0
  3 28  1  0
  4 29  1  0
  4 30  1  0
  8 31  1  0
  8 32  1  0
  9 33  1  0
  9 34  1  0
 10 35  1  0
 10 36  1  0
 11 37  1  1
 12 38  1  0
 12 39  1  0
 14 40  1  0
 15 41  1  0
 16 42  1  0
 19 43  1  0
 20 44  1  0
 22 45  1  0
 23 46  1  0
 24 47  1  0
 25 48  1  0
M  END
>  <smiles>  (26) 
O=C(NCC(=O)N1CCC[C@H]1Cc1c[nH]cn1)c1ccc2ccccc2n1

>  <score_type>  (26) 
oracle

>  <origin>  (26) 
autodockgpu

>  <m_score__min__energy>  (26) 
-8.4499999999999993

>  <m_primary>  (26) 
energy

>  <rmsd>  (26) 
8.276661391605026

>  <m_score__min__rmsd>  (26) 
8.276661391605026

>  <meeko>  (26) 
{"free_energy": -7.75, "intermolecular_energy": -9.54, "internal_energy": -1.27, "cluster_size": 4, "cluster_id": 3, "rank_in_cluster": 2}

>  <energy>  (26) 
-7.75

>  <cluster_rmsd>  (26) 
1.73

>  <cluster>  (26) 
3

$$$$

     RDKit          3D

 48 51  0  0  0  0  0  0  0  0999 V2000
  139.7630   73.6190  222.4030 O   0  0  0  0  0  0  0  0  0  0  0  0
  140.3040   72.4880  222.3950 C   0  0  0  0  0  0  0  0  0  0  0  0
  141.0410   72.1040  221.2550 N   0  0  0  0  0  0  0  0  0  0  0  0
  141.1780   72.9890  220.1140 C   0  0  0  0  0  0  0  0  0  0  0  0
  142.1540   72.4960  219.1320 C   0  0  0  0  0  0  0  0  0  0  0  0
  141.9920   72.5170  217.8870 O   0  0  0  0  0  0  0  0  0  0  0  0
  143.3740   71.9530  219.6140 N   0  0  0  0  0  0  0  0  0  0  0  0
  144.0670   72.4050  220.7970 C   0  0  0  0  0  0  0  0  0  0  0  0
  145.5260   72.3260  220.4160 C   0  0  0  0  0  0  0  0  0  0  0  0
  145.5690   71.4760  219.1530 C   0  0  0  0  0  0  0  0  0  0  0  0
  144.1800   70.8690  219.0660 C   0  0  1  0  0  0  0  0  0  0  0  0
  144.0530   69.6640  219.9770 C   0  0  0  0  0  0  0  0  0  0  0  0
  144.7510   68.4920  219.3990 C   0  0  0  0  0  0  0  0  0  0  0  0
  144.3070   67.6180  218.4120 C   0  0  0  0  0  0  0  0  0  0  0  0
  145.2960   66.7180  218.2280 N   0  0  0  0  0  0  0  0  0  0  0  0
  146.3280   66.9910  219.0510 C   0  0  0  0  0  0  0  0  0  0  0  0
  145.9740   68.0700  219.7490 N   0  0  0  0  0  0  0  0  0  0  0  0
  140.1780   71.5850  223.5320 C   0  0  0  0  0  0  0  0  0  0  0  0
  139.5060   70.3910  223.3970 C   0  0  0  0  0  0  0  0  0  0  0  0
  139.3490   69.4980  224.4200 C   0  0  0  0  0  0  0  0  0  0  0  0
  139.9110   69.8440  225.6520 C   0  0  0  0  0  0  0  0  0  0  0  0
  139.7960   68.9970  226.7340 C   0  0  0  0  0  0  0  0  0  0  0  0
  140.3400   69.3190  227.9500 C   0  0  0  0  0  0  0  0  0  0  0  0
  141.0080   70.5100  228.0820 C   0  0  0  0  0  0  0  0  0  0  0  0
  141.1480   71.3860  227.0300 C   0  0  0  0  0  0  0  0  0  0  0  0
  140.5880   71.0450  225.7950 C   0  0  0  0  0  0  0  0  0  0  0  0
  140.7020   71.8750  224.7430 N   0  0  0  0  0  0  0  0  0  0  0  0
  141.4840   71.1430  221.2820 H   0  0  0  0  0  0  0  0  0  0  0  0
  140.1990   73.0832  219.6213 H   0  0  0  0  0  0  0  0  0  0  0  0
  141.5394   73.9592  220.4856 H   0  0  0  0  0  0  0  0  0  0  0  0
  143.7830   73.4381  221.0462 H   0  0  0  0  0  0  0  0  0  0  0  0
  143.8274   71.8021  221.6853 H   0  0  0  0  0  0  0  0  0  0  0  0
  145.9268   73.3309  220.2174 H   0  0  0  0  0  0  0  0  0  0  0  0
  146.1362   71.8922  221.2219 H   0  0  0  0  0  0  0  0  0  0  0  0
  145.7789   72.0984  218.2707 H   0  0  0  0  0  0  0  0  0  0  0  0
  146.3611   70.7134  219.1847 H   0  0  0  0  0  0  0  0  0  0  0  0
  143.9083   70.5286  218.0559 H   0  0  0  0  0  0  0  0  0  0  0  0
  144.4974   69.9025  220.9546 H   0  0  0  0  0  0  0  0  0  0  0  0
  142.9868   69.4187  220.0908 H   0  0  0  0  0  0  0  0  0  0  0  0
  143.3416   67.6533  217.8859 H   0  0  0  0  0  0  0  0  0  0  0  0
  145.2830   65.9310  217.5630 H   0  0  0  0  0  0  0  0  0  0  0  0
  147.2735   66.4345  219.1307 H   0  0  0  0  0  0  0  0  0  0  0  0
  139.0736   70.1431  222.4164 H   0  0  0  0  0  0  0  0  0  0  0  0
  138.8059   68.5517  224.2802 H   0  0  0  0  0  0  0  0  0  0  0  0
  139.2574   68.0448  226.6190 H   0  0  0  0  0  0  0  0  0  0  0  0
  140.2427   68.6343  228.8054 H   0  0  0  0  0  0  0  0  0  0  0  0
  141.4444   70.7723  229.0571 H   0  0  0  0  0  0  0  0  0  0  0  0
  141.6893   72.3350  227.1580 H   0  0  0  0  0  0  0  0  0  0  0  0
  1  2  2  0
  2  3  1  0
  3  4  1  0
  4  5  1  0
  5  6  2  0
  5  7  1  0
  7  8  1  0
  8  9  1  0
  9 10  1  0
 10 11  1  0
 11 12  1  0
 12 13  1  0
 13 14  2  0
 14 15  1  0
 15 16  1  0
 16 17  2  0
  2 18  1  0
 18 19  2  0
 19 20  1  0
 20 21  2  0
 21 22  1  0
 22 23  2  0
 23 24  1  0
 24 25  2  0
 25 26  1  0
 26 27  2  0
 11  7  1  0
 17 13  1  0
 27 18  1  0
 26 21  1  0
  3 28  1  0
  4 29  1  0
  4 30  1  0
  8 31  1  0
  8 32  1  0
  9 33  1  0
  9 34  1  0
 10 35  1  0
 10 36  1  0
 11 37  1  6
 12 38  1  0
 12 39  1  0
 14 40  1  0
 15 41  1  0
 16 42  1  0
 19 43  1  0
 20 44  1  0
 22 45  1  0
 23 46  1  0
 24 47  1  0
 25 48  1  0
M  END
>  <smiles>  (27) 
O=C(NCC(=O)N1CCC[C@H]1Cc1c[nH]cn1)c1ccc2ccccc2n1

>  <score_type>  (27) 
oracle

>  <origin>  (27) 
autodockgpu

>  <m_score__min__energy>  (27) 
-8.4499999999999993

>  <m_primary>  (27) 
energy

>  <rmsd>  (27) 
4.438614245654643

>  <m_score__min__rmsd>  (27) 
4.438614245654643

>  <meeko>  (27) 
{"free_energy": -7.91, "intermolecular_energy": -9.7, "internal_energy": -1.16, "cluster_size": 1, "cluster_id": 4, "rank_in_cluster": 1}

>  <energy>  (27) 
-7.27

>  <cluster_rmsd>  (27) 
1.2

>  <cluster>  (27) 
3

$$$$

     RDKit          3D

 48 51  0  0  0  0  0  0  0  0999 V2000
  140.8680   71.6520  221.3590 O   0  0  0  0  0  0  0  0  0  0  0  0
  140.2530   72.1180  222.3470 C   0  0  0  0  0  0  0  0  0  0  0  0
  139.6280   73.3760  222.2170 N   0  0  0  0  0  0  0  0  0  0  0  0
  139.6870   74.1210  220.9740 C   0  0  0  0  0  0  0  0  0  0  0  0
  140.8600   75.0030  220.9000 C   0  0  0  0  0  0  0  0  0  0  0  0
  142.0530   74.6120  220.9090 O   0  0  0  0  0  0  0  0  0  0  0  0
  140.6410   76.4030  220.8130 N   0  0  0  0  0  0  0  0  0  0  0  0
  139.5120   77.0220  220.1600 C   0  0  0  0  0  0  0  0  0  0  0  0
  140.1020   78.2440  219.4970 C   0  0  0  0  0  0  0  0  0  0  0  0
  141.4730   78.4300  220.1360 C   0  0  0  0  0  0  0  0  0  0  0  0
  141.4550   77.4960  221.3320 C   0  0  1  0  0  0  0  0  0  0  0  0
  140.7270   78.1260  222.5040 C   0  0  0  0  0  0  0  0  0  0  0  0
  141.4680   79.3040  223.0110 C   0  0  0  0  0  0  0  0  0  0  0  0
  142.8430   79.4990  223.0820 C   0  0  0  0  0  0  0  0  0  0  0  0
  143.0270   80.7260  223.6160 N   0  0  0  0  0  0  0  0  0  0  0  0
  141.8350   81.2980  223.8770 C   0  0  0  0  0  0  0  0  0  0  0  0
  140.9070   80.4180  223.5020 N   0  0  0  0  0  0  0  0  0  0  0  0
  140.1830   71.3840  223.6050 C   0  0  0  0  0  0  0  0  0  0  0  0
  139.6050   70.1360  223.6460 C   0  0  0  0  0  0  0  0  0  0  0  0
  139.5050   69.3920  224.7890 C   0  0  0  0  0  0  0  0  0  0  0  0
  140.0260   69.9560  225.9560 C   0  0  0  0  0  0  0  0  0  0  0  0
  139.9640   69.2700  227.1510 C   0  0  0  0  0  0  0  0  0  0  0  0
  140.4700   69.8060  228.3070 C   0  0  0  0  0  0  0  0  0  0  0  0
  141.0450   71.0510  228.2620 C   0  0  0  0  0  0  0  0  0  0  0  0
  141.1290   71.7720  227.0930 C   0  0  0  0  0  0  0  0  0  0  0  0
  140.6090   71.2130  225.9220 C   0  0  0  0  0  0  0  0  0  0  0  0
  140.6720   71.8870  224.7600 N   0  0  0  0  0  0  0  0  0  0  0  0
  139.1190   73.7390  223.0700 H   0  0  0  0  0  0  0  0  0  0  0  0
  139.7287   73.4080  220.1374 H   0  0  0  0  0  0  0  0  0  0  0  0
  138.7894   74.7547  220.9220 H   0  0  0  0  0  0  0  0  0  0  0  0
  139.0724   76.3450  219.4128 H   0  0  0  0  0  0  0  0  0  0  0  0
  138.6999   77.2690  220.8596 H   0  0  0  0  0  0  0  0  0  0  0  0
  140.2012   78.0836  218.4133 H   0  0  0  0  0  0  0  0  0  0  0  0
  139.4645   79.1302  219.6320 H   0  0  0  0  0  0  0  0  0  0  0  0
  142.2721   78.1497  219.4339 H   0  0  0  0  0  0  0  0  0  0  0  0
  141.6678   79.4748  220.4197 H   0  0  0  0  0  0  0  0  0  0  0  0
  142.4567   77.2215  221.6944 H   0  0  0  0  0  0  0  0  0  0  0  0
  139.7252   78.4428  222.1783 H   0  0  0  0  0  0  0  0  0  0  0  0
  140.6497   77.3834  223.3118 H   0  0  0  0  0  0  0  0  0  0  0  0
  143.6258   78.7938  222.7659 H   0  0  0  0  0  0  0  0  0  0  0  0
  143.9350   81.1750  223.8020 H   0  0  0  0  0  0  0  0  0  0  0  0
  141.6624   82.2931  224.3128 H   0  0  0  0  0  0  0  0  0  0  0  0
  139.2031   69.7156  222.7123 H   0  0  0  0  0  0  0  0  0  0  0  0
  139.0366   68.3967  224.7895 H   0  0  0  0  0  0  0  0  0  0  0  0
  139.4994   68.2732  227.1770 H   0  0  0  0  0  0  0  0  0  0  0  0
  140.4160   69.2480  229.2535 H   0  0  0  0  0  0  0  0  0  0  0  0
  141.4507   71.4855  229.1875 H   0  0  0  0  0  0  0  0  0  0  0  0
  141.5958   72.7680  227.0802 H   0  0  0  0  0  0  0  0  0  0  0  0
  1  2  2  0
  2  3  1  0
  3  4  1  0
  4  5  1  0
  5  6  2  0
  5  7  1  0
  7  8  1  0
  8  9  1  0
  9 10  1  0
 10 11  1  0
 11 12  1  0
 12 13  1  0
 13 14  2  0
 14 15  1  0
 15 16  1  0
 16 17  2  0
  2 18  1  0
 18 19  2  0
 19 20  1  0
 20 21  2  0
 21 22  1  0
 22 23  2  0
 23 24  1  0
 24 25  2  0
 25 26  1  0
 26 27  2  0
 11  7  1  0
 17 13  1  0
 27 18  1  0
 26 21  1  0
  3 28  1  0
  4 29  1  0
  4 30  1  0
  8 31  1  0
  8 32  1  0
  9 33  1  0
  9 34  1  0
 10 35  1  0
 10 36  1  0
 11 37  1  1
 12 38  1  0
 12 39  1  0
 14 40  1  0
 15 41  1  0
 16 42  1  0
 19 43  1  0
 20 44  1  0
 22 45  1  0
 23 46  1  0
 24 47  1  0
 25 48  1  0
M  END
>  <smiles>  (28) 
O=C(NCC(=O)N1CCC[C@H]1Cc1c[nH]cn1)c1ccc2ccccc2n1

>  <score_type>  (28) 
oracle

>  <origin>  (28) 
autodockgpu

>  <m_score__min__energy>  (28) 
-8.4499999999999993

>  <m_primary>  (28) 
energy

>  <rmsd>  (28) 
1.7619801438360105

>  <m_score__min__rmsd>  (28) 
1.7619801438360105

>  <meeko>  (28) 
{"free_energy": -7.85, "intermolecular_energy": -9.64, "internal_energy": -1.1, "cluster_size": 10, "cluster_id": 2, "rank_in_cluster": 4}

>  <energy>  (28) 
-7.22

>  <cluster_rmsd>  (28) 
1.03

>  <cluster>  (28) 
3

$$$$

     RDKit          3D

 48 51  0  0  0  0  0  0  0  0999 V2000
  136.6760   70.9610  221.7850 O   0  0  0  0  0  0  0  0  0  0  0  0
  137.4920   71.5490  222.5350 C   0  0  0  0  0  0  0  0  0  0  0  0
  137.7010   72.9310  222.3480 N   0  0  0  0  0  0  0  0  0  0  0  0
  136.9940   73.6670  221.3170 C   0  0  0  0  0  0  0  0  0  0  0  0
  137.8670   74.5990  220.5910 C   0  0  0  0  0  0  0  0  0  0  0  0
  138.0450   74.5950  219.3480 O   0  0  0  0  0  0  0  0  0  0  0  0
  138.5660   75.5830  221.3390 N   0  0  0  0  0  0  0  0  0  0  0  0
  138.2110   76.0130  222.6710 C   0  0  0  0  0  0  0  0  0  0  0  0
  138.4800   77.4990  222.6560 C   0  0  0  0  0  0  0  0  0  0  0  0
  139.3270   77.7440  221.4140 C   0  0  0  0  0  0  0  0  0  0  0  0
  139.7460   76.3550  220.9690 C   0  0  1  0  0  0  0  0  0  0  0  0
  140.9250   75.8550  221.7790 C   0  0  0  0  0  0  0  0  0  0  0  0
  141.0900   74.3920  221.6200 C   0  0  0  0  0  0  0  0  0  0  0  0
  141.8950   73.7020  220.7200 C   0  0  0  0  0  0  0  0  0  0  0  0
  141.7020   72.3880  220.9650 N   0  0  0  0  0  0  0  0  0  0  0  0
  140.8190   72.2320  221.9720 C   0  0  0  0  0  0  0  0  0  0  0  0
  140.4640   73.4590  222.3520 N   0  0  0  0  0  0  0  0  0  0  0  0
  138.2120   70.8260  223.5770 C   0  0  0  0  0  0  0  0  0  0  0  0
  138.1230   69.4550  223.6550 C   0  0  0  0  0  0  0  0  0  0  0  0
  138.7710   68.7140  224.6050 C   0  0  0  0  0  0  0  0  0  0  0  0
  139.5520   69.4140  225.5270 C   0  0  0  0  0  0  0  0  0  0  0  0
  140.2360   68.7400  226.5160 C   0  0  0  0  0  0  0  0  0  0  0  0
  141.0080   69.4090  227.4310 C   0  0  0  0  0  0  0  0  0  0  0  0
  141.0930   70.7760  227.3500 C   0  0  0  0  0  0  0  0  0  0  0  0
  140.4290   71.4910  226.3800 C   0  0  0  0  0  0  0  0  0  0  0  0
  139.6450   70.7950  225.4550 C   0  0  0  0  0  0  0  0  0  0  0  0
  138.9790   71.4580  224.4920 N   0  0  0  0  0  0  0  0  0  0  0  0
  138.3950   73.3940  222.9980 H   0  0  0  0  0  0  0  0  0  0  0  0
  136.5700   72.9493  220.5993 H   0  0  0  0  0  0  0  0  0  0  0  0
  136.2086   74.2596  221.8089 H   0  0  0  0  0  0  0  0  0  0  0  0
  137.1501   75.8093  222.8784 H   0  0  0  0  0  0  0  0  0  0  0  0
  138.7788   75.4867  223.4524 H   0  0  0  0  0  0  0  0  0  0  0  0
  137.5360   78.0604  222.5950 H   0  0  0  0  0  0  0  0  0  0  0  0
  138.9907   77.8316  223.5717 H   0  0  0  0  0  0  0  0  0  0  0  0
  138.7366   78.2428  220.6313 H   0  0  0  0  0  0  0  0  0  0  0  0
  140.1873   78.3999  221.6134 H   0  0  0  0  0  0  0  0  0  0  0  0
  140.0464   76.3005  219.9122 H   0  0  0  0  0  0  0  0  0  0  0  0
  141.8393   76.3605  221.4348 H   0  0  0  0  0  0  0  0  0  0  0  0
  140.7420   76.0757  222.8410 H   0  0  0  0  0  0  0  0  0  0  0  0
  142.5578   74.1399  219.9591 H   0  0  0  0  0  0  0  0  0  0  0  0
  142.1530   71.6070  220.4680 H   0  0  0  0  0  0  0  0  0  0  0  0
  140.4627   71.2814  222.3955 H   0  0  0  0  0  0  0  0  0  0  0  0
  137.4999   68.9288  222.9169 H   0  0  0  0  0  0  0  0  0  0  0  0
  138.6811   67.6183  224.6409 H   0  0  0  0  0  0  0  0  0  0  0  0
  140.1611   67.6440  226.5724 H   0  0  0  0  0  0  0  0  0  0  0  0
  141.5492   68.8597  228.2155 H   0  0  0  0  0  0  0  0  0  0  0  0
  141.7105   71.3165  228.0825 H   0  0  0  0  0  0  0  0  0  0  0  0
  140.5132   72.5868  226.3333 H   0  0  0  0  0  0  0  0  0  0  0  0
  1  2  2  0
  2  3  1  0
  3  4  1  0
  4  5  1  0
  5  6  2  0
  5  7  1  0
  7  8  1  0
  8  9  1  0
  9 10  1  0
 10 11  1  0
 11 12  1  0
 12 13  1  0
 13 14  2  0
 14 15  1  0
 15 16  1  0
 16 17  2  0
  2 18  1  0
 18 19  2  0
 19 20  1  0
 20 21  2  0
 21 22  1  0
 22 23  2  0
 23 24  1  0
 24 25  2  0
 25 26  1  0
 26 27  2  0
 11  7  1  0
 17 13  1  0
 27 18  1  0
 26 21  1  0
  3 28  1  0
  4 29  1  0
  4 30  1  0
  8 31  1  0
  8 32  1  0
  9 33  1  0
  9 34  1  0
 10 35  1  0
 10 36  1  0
 11 37  1  6
 12 38  1  0
 12 39  1  0
 14 40  1  0
 15 41  1  0
 16 42  1  0
 19 43  1  0
 20 44  1  0
 22 45  1  0
 23 46  1  0
 24 47  1  0
 25 48  1  0
M  END
>  <smiles>  (29) 
O=C(NCC(=O)N1CCC[C@H]1Cc1c[nH]cn1)c1ccc2ccccc2n1

>  <score_type>  (29) 
oracle

>  <origin>  (29) 
autodockgpu

>  <m_score__min__energy>  (29) 
-8.4499999999999993

>  <m_primary>  (29) 
energy

>  <rmsd>  (29) 
2.5661967645069064

>  <m_score__min__rmsd>  (29) 
2.5661967645069064

>  <meeko>  (29) 
{"free_energy": -6.04, "intermolecular_energy": -7.83, "internal_energy": -2.7, "cluster_size": 2, "cluster_id": 9, "rank_in_cluster": 2}

>  <energy>  (29) 
-7.91

>  <cluster_rmsd>  (29) 
0.0

>  <cluster>  (29) 
4

$$$$

     RDKit          3D

 48 51  0  0  0  0  0  0  0  0999 V2000
  140.0570   71.1500  221.3270 O   0  0  0  0  0  0  0  0  0  0  0  0
  139.8990   71.7230  222.4320 C   0  0  0  0  0  0  0  0  0  0  0  0
  139.6820   73.1160  222.4410 N   0  0  0  0  0  0  0  0  0  0  0  0
  139.6390   73.8800  221.2080 C   0  0  0  0  0  0  0  0  0  0  0  0
  140.5560   75.0280  221.2230 C   0  0  0  0  0  0  0  0  0  0  0  0
  140.7850   75.7490  222.2240 O   0  0  0  0  0  0  0  0  0  0  0  0
  141.2380   75.3560  220.0220 N   0  0  0  0  0  0  0  0  0  0  0  0
  141.0340   76.5670  219.2630 C   0  0  0  0  0  0  0  0  0  0  0  0
  141.1240   76.1140  217.8250 C   0  0  0  0  0  0  0  0  0  0  0  0
  141.7460   74.7240  217.8770 C   0  0  0  0  0  0  0  0  0  0  0  0
  142.2530   74.5970  219.3020 C   0  0  1  0  0  0  0  0  0  0  0  0
  143.5890   75.2960  219.4690 C   0  0  0  0  0  0  0  0  0  0  0  0
  144.5820   74.3890  220.0900 C   0  0  0  0  0  0  0  0  0  0  0  0
  144.6480   73.0020  220.0270 C   0  0  0  0  0  0  0  0  0  0  0  0
  145.7290   72.6390  220.7510 N   0  0  0  0  0  0  0  0  0  0  0  0
  146.3340   73.7320  221.2560 C   0  0  0  0  0  0  0  0  0  0  0  0
  145.6210   74.7790  220.8420 N   0  0  0  0  0  0  0  0  0  0  0  0
  139.9400   70.9720  223.6810 C   0  0  0  0  0  0  0  0  0  0  0  0
  139.4940   69.6710  223.7200 C   0  0  0  0  0  0  0  0  0  0  0  0
  139.5030   68.9090  224.8560 C   0  0  0  0  0  0  0  0  0  0  0  0
  139.9950   69.5110  226.0170 C   0  0  0  0  0  0  0  0  0  0  0  0
  140.0370   68.8100  227.2030 C   0  0  0  0  0  0  0  0  0  0  0  0
  140.5160   69.3840  228.3530 C   0  0  0  0  0  0  0  0  0  0  0  0
  140.9580   70.6820  228.3090 C   0  0  0  0  0  0  0  0  0  0  0  0
  140.9360   71.4200  227.1480 C   0  0  0  0  0  0  0  0  0  0  0  0
  140.4440   70.8220  225.9840 C   0  0  0  0  0  0  0  0  0  0  0  0
  140.4060   71.5110  224.8290 N   0  0  0  0  0  0  0  0  0  0  0  0
  139.5540   73.5660  223.3900 H   0  0  0  0  0  0  0  0  0  0  0  0
  139.9159   73.2186  220.3738 H   0  0  0  0  0  0  0  0  0  0  0  0
  138.6172   74.2709  221.0934 H   0  0  0  0  0  0  0  0  0  0  0  0
  140.0456   77.0003  219.4757 H   0  0  0  0  0  0  0  0  0  0  0  0
  141.7671   77.3497  219.5079 H   0  0  0  0  0  0  0  0  0  0  0  0
  140.1227   76.0709  217.3717 H   0  0  0  0  0  0  0  0  0  0  0  0
  141.7214   76.8070  217.2144 H   0  0  0  0  0  0  0  0  0  0  0  0
  140.9936   73.9514  217.6601 H   0  0  0  0  0  0  0  0  0  0  0  0
  142.5443   74.5911  217.1320 H   0  0  0  0  0  0  0  0  0  0  0  0
  142.3992   73.5569  219.6289 H   0  0  0  0  0  0  0  0  0  0  0  0
  143.9568   75.6120  218.4816 H   0  0  0  0  0  0  0  0  0  0  0  0
  143.4511   76.1695  220.1232 H   0  0  0  0  0  0  0  0  0  0  0  0
  143.9570   72.3328  219.4934 H   0  0  0  0  0  0  0  0  0  0  0  0
  146.0590   71.6750  220.9050 H   0  0  0  0  0  0  0  0  0  0  0  0
  147.2364   73.7554  221.8846 H   0  0  0  0  0  0  0  0  0  0  0  0
  139.1113   69.2214  222.7919 H   0  0  0  0  0  0  0  0  0  0  0  0
  139.1398   67.8707  224.8555 H   0  0  0  0  0  0  0  0  0  0  0  0
  139.6794   67.7700  227.2278 H   0  0  0  0  0  0  0  0  0  0  0  0
  140.5452   68.8140  229.2933 H   0  0  0  0  0  0  0  0  0  0  0  0
  141.3414   71.1466  229.2294 H   0  0  0  0  0  0  0  0  0  0  0  0
  141.2979   72.4587  227.1359 H   0  0  0  0  0  0  0  0  0  0  0  0
  1  2  2  0
  2  3  1  0
  3  4  1  0
  4  5  1  0
  5  6  2  0
  5  7  1  0
  7  8  1  0
  8  9  1  0
  9 10  1  0
 10 11  1  0
 11 12  1  0
 12 13  1  0
 13 14  2  0
 14 15  1  0
 15 16  1  0
 16 17  2  0
  2 18  1  0
 18 19  2  0
 19 20  1  0
 20 21  2  0
 21 22  1  0
 22 23  2  0
 23 24  1  0
 24 25  2  0
 25 26  1  0
 26 27  2  0
 11  7  1  0
 17 13  1  0
 27 18  1  0
 26 21  1  0
  3 28  1  0
  4 29  1  0
  4 30  1  0
  8 31  1  0
  8 32  1  0
  9 33  1  0
  9 34  1  0
 10 35  1  0
 10 36  1  0
 11 37  1  1
 12 38  1  0
 12 39  1  0
 14 40  1  0
 15 41  1  0
 16 42  1  0
 19 43  1  0
 20 44  1  0
 22 45  1  0
 23 46  1  0
 24 47  1  0
 25 48  1  0
M  END
>  <smiles>  (30) 
O=C(NCC(=O)N1CCC[C@H]1Cc1c[nH]cn1)c1ccc2ccccc2n1

>  <score_type>  (30) 
oracle

>  <origin>  (30) 
autodockgpu

>  <m_score__min__energy>  (30) 
-8.4499999999999993

>  <m_primary>  (30) 
energy

>  <rmsd>  (30) 
1.8315031484612536

>  <m_score__min__rmsd>  (30) 
1.8315031484612536

>  <meeko>  (30) 
{"free_energy": -7.81, "intermolecular_energy": -9.6, "internal_energy": -1.36, "cluster_size": 14, "cluster_id": 1, "rank_in_cluster": 7}

>  <energy>  (30) 
-7.58

>  <cluster_rmsd>  (30) 
0.0

>  <cluster>  (30) 
5

$$$$

     RDKit          3D

 48 51  0  0  0  0  0  0  0  0999 V2000
  141.1560   71.9840  221.5870 O   0  0  0  0  0  0  0  0  0  0  0  0
  140.3370   72.3180  222.4760 C   0  0  0  0  0  0  0  0  0  0  0  0
  139.5760   73.4900  222.2820 N   0  0  0  0  0  0  0  0  0  0  0  0
  139.7290   74.2980  221.0880 C   0  0  0  0  0  0  0  0  0  0  0  0
  140.2420   75.6440  221.3790 C   0  0  0  0  0  0  0  0  0  0  0  0
  141.4140   76.0290  221.1510 O   0  0  0  0  0  0  0  0  0  0  0  0
  139.3550   76.5870  221.9630 N   0  0  0  0  0  0  0  0  0  0  0  0
  138.2000   76.2480  222.7610 C   0  0  0  0  0  0  0  0  0  0  0  0
  137.1640   77.2680  222.3500 C   0  0  0  0  0  0  0  0  0  0  0  0
  137.9350   78.3510  221.6070 C   0  0  0  0  0  0  0  0  0  0  0  0
  139.3910   78.0430  221.9050 C   0  0  1  0  0  0  0  0  0  0  0  0
  139.7920   78.5720  223.2690 C   0  0  0  0  0  0  0  0  0  0  0  0
  141.0780   79.3020  223.1930 C   0  0  0  0  0  0  0  0  0  0  0  0
  142.2110   78.9890  222.4500 C   0  0  0  0  0  0  0  0  0  0  0  0
  143.1180   79.9540  222.7130 N   0  0  0  0  0  0  0  0  0  0  0  0
  142.6020   80.8480  223.5800 C   0  0  0  0  0  0  0  0  0  0  0  0
  141.3660   80.4320  223.8550 N   0  0  0  0  0  0  0  0  0  0  0  0
  140.1690   71.5180  223.6830 C   0  0  0  0  0  0  0  0  0  0  0  0
  139.4520   70.3440  223.6410 C   0  0  0  0  0  0  0  0  0  0  0  0
  139.2560   69.5450  224.7340 C   0  0  0  0  0  0  0  0  0  0  0  0
  139.8230   69.9710  225.9370 C   0  0  0  0  0  0  0  0  0  0  0  0
  139.6700   69.2220  227.0850 C   0  0  0  0  0  0  0  0  0  0  0  0
  140.2190   69.6230  228.2750 C   0  0  0  0  0  0  0  0  0  0  0  0
  140.9320   70.7940  228.3130 C   0  0  0  0  0  0  0  0  0  0  0  0
  141.1120   71.5740  227.1940 C   0  0  0  0  0  0  0  0  0  0  0  0
  140.5450   71.1530  225.9870 C   0  0  0  0  0  0  0  0  0  0  0  0
  140.6980   71.8880  224.8710 N   0  0  0  0  0  0  0  0  0  0  0  0
  138.8950   73.7410  223.0520 H   0  0  0  0  0  0  0  0  0  0  0  0
  140.4308   73.7928  220.4081 H   0  0  0  0  0  0  0  0  0  0  0  0
  138.7342   74.4116  220.6326 H   0  0  0  0  0  0  0  0  0  0  0  0
  137.8552   75.2277  222.5373 H   0  0  0  0  0  0  0  0  0  0  0  0
  138.4094   76.2666  223.8407 H   0  0  0  0  0  0  0  0  0  0  0  0
  136.4127   76.8092  221.6904 H   0  0  0  0  0  0  0  0  0  0  0  0
  136.6226   77.6734  223.2175 H   0  0  0  0  0  0  0  0  0  0  0  0
  137.7384   78.2979  220.5260 H   0  0  0  0  0  0  0  0  0  0  0  0
  137.6460   79.3647  221.9214 H   0  0  0  0  0  0  0  0  0  0  0  0
  140.0936   78.4797  221.1800 H   0  0  0  0  0  0  0  0  0  0  0  0
  139.0109   79.2547  223.6348 H   0  0  0  0  0  0  0  0  0  0  0  0
  139.9098   77.7212  223.9563 H   0  0  0  0  0  0  0  0  0  0  0  0
  142.3423   78.1261  221.7806 H   0  0  0  0  0  0  0  0  0  0  0  0
  144.0680   80.0160  222.3190 H   0  0  0  0  0  0  0  0  0  0  0  0
  143.1014   81.7425  223.9806 H   0  0  0  0  0  0  0  0  0  0  0  0
  139.0148   70.0327  222.6808 H   0  0  0  0  0  0  0  0  0  0  0  0
  138.6789   68.6109  224.6683 H   0  0  0  0  0  0  0  0  0  0  0  0
  139.0961   68.2844  227.0447 H   0  0  0  0  0  0  0  0  0  0  0  0
  140.0901   69.0164  229.1835 H   0  0  0  0  0  0  0  0  0  0  0  0
  141.3732   71.1193  229.2667 H   0  0  0  0  0  0  0  0  0  0  0  0
  141.6895   72.5087  227.2476 H   0  0  0  0  0  0  0  0  0  0  0  0
  1  2  2  0
  2  3  1  0
  3  4  1  0
  4  5  1  0
  5  6  2  0
  5  7  1  0
  7  8  1  0
  8  9  1  0
  9 10  1  0
 10 11  1  0
 11 12  1  0
 12 13  1  0
 13 14  2  0
 14 15  1  0
 15 16  1  0
 16 17  2  0
  2 18  1  0
 18 19  2  0
 19 20  1  0
 20 21  2  0
 21 22  1  0
 22 23  2  0
 23 24  1  0
 24 25  2  0
 25 26  1  0
 26 27  2  0
 11  7  1  0
 17 13  1  0
 27 18  1  0
 26 21  1  0
  3 28  1  0
  4 29  1  0
  4 30  1  0
  8 31  1  0
  8 32  1  0
  9 33  1  0
  9 34  1  0
 10 35  1  0
 10 36  1  0
 11 37  1  6
 12 38  1  0
 12 39  1  0
 14 40  1  0
 15 41  1  0
 16 42  1  0
 19 43  1  0
 20 44  1  0
 22 45  1  0
 23 46  1  0
 24 47  1  0
 25 48  1  0
M  END
>  <smiles>  (31) 
O=C(NCC(=O)N1CCC[C@H]1Cc1c[nH]cn1)c1ccc2ccccc2n1

>  <score_type>  (31) 
oracle

>  <origin>  (31) 
autodockgpu

>  <m_score__min__energy>  (31) 
-8.4499999999999993

>  <m_primary>  (31) 
energy

>  <rmsd>  (31) 
2.795496570985775

>  <m_score__min__rmsd>  (31) 
2.795496570985775

>  <meeko>  (31) 
{"free_energy": -8.36, "intermolecular_energy": -10.15, "internal_energy": -1.13, "cluster_size": 10, "cluster_id": 2, "rank_in_cluster": 2}

>  <energy>  (31) 
-7.5

>  <cluster_rmsd>  (31) 
0.74

>  <cluster>  (31) 
5

$$$$

     RDKit          3D

 48 51  0  0  0  0  0  0  0  0999 V2000
  139.3260   74.6470  222.3850 O   0  0  0  0  0  0  0  0  0  0  0  0
  140.1290   75.4480  221.8500 C   0  0  0  0  0  0  0  0  0  0  0  0
  140.9450   74.9790  220.7980 N   0  0  0  0  0  0  0  0  0  0  0  0
  140.8650   73.6060  220.3380 C   0  0  0  0  0  0  0  0  0  0  0  0
  141.9970   72.7900  220.8000 C   0  0  0  0  0  0  0  0  0  0  0  0
  141.9040   71.8120  221.5800 O   0  0  0  0  0  0  0  0  0  0  0  0
  143.2970   73.1240  220.3360 N   0  0  0  0  0  0  0  0  0  0  0  0
  144.2320   72.1880  219.7570 C   0  0  0  0  0  0  0  0  0  0  0  0
  145.5710   72.6330  220.2960 C   0  0  0  0  0  0  0  0  0  0  0  0
  145.3380   74.0310  220.8550 C   0  0  0  0  0  0  0  0  0  0  0  0
  143.9680   74.4180  220.3290 C   0  0  1  0  0  0  0  0  0  0  0  0
  144.0530   74.9120  218.8980 C   0  0  0  0  0  0  0  0  0  0  0  0
  143.3410   76.2010  218.7430 C   0  0  0  0  0  0  0  0  0  0  0  0
  143.0790   76.9120  217.5770 C   0  0  0  0  0  0  0  0  0  0  0  0
  142.4050   78.0210  217.9510 N   0  0  0  0  0  0  0  0  0  0  0  0
  142.2380   78.0300  219.2890 C   0  0  0  0  0  0  0  0  0  0  0  0
  142.8130   76.9180  219.7450 N   0  0  0  0  0  0  0  0  0  0  0  0
  140.2230   76.8310  222.2980 C   0  0  0  0  0  0  0  0  0  0  0  0
  139.0840   77.5310  222.6270 C   0  0  0  0  0  0  0  0  0  0  0  0
  139.0990   78.8300  223.0540 C   0  0  0  0  0  0  0  0  0  0  0  0
  140.3470   79.4490  223.1510 C   0  0  0  0  0  0  0  0  0  0  0  0
  140.4460   80.7580  223.5750 C   0  0  0  0  0  0  0  0  0  0  0  0
  141.6630   81.3820  223.6770 C   0  0  0  0  0  0  0  0  0  0  0  0
  142.7960   80.6820  223.3480 C   0  0  0  0  0  0  0  0  0  0  0  0
  142.7460   79.3740  222.9220 C   0  0  0  0  0  0  0  0  0  0  0  0
  141.4980   78.7500  222.8220 C   0  0  0  0  0  0  0  0  0  0  0  0
  141.4070   77.4730  222.4080 N   0  0  0  0  0  0  0  0  0  0  0  0
  141.6100   75.6820  220.3700 H   0  0  0  0  0  0  0  0  0  0  0  0
  139.9324   73.1614  220.7156 H   0  0  0  0  0  0  0  0  0  0  0  0
  140.8904   73.6202  219.2384 H   0  0  0  0  0  0  0  0  0  0  0  0
  144.0042   71.1598  220.0747 H   0  0  0  0  0  0  0  0  0  0  0  0
  144.1985   72.1796  218.6575 H   0  0  0  0  0  0  0  0  0  0  0  0
  145.9114   71.9527  221.0905 H   0  0  0  0  0  0  0  0  0  0  0  0
  146.3476   72.6282  219.5169 H   0  0  0  0  0  0  0  0  0  0  0  0
  145.3442   74.0175  221.9549 H   0  0  0  0  0  0  0  0  0  0  0  0
  146.1216   74.7416  220.5534 H   0  0  0  0  0  0  0  0  0  0  0  0
  143.4809   75.2164  220.9080 H   0  0  0  0  0  0  0  0  0  0  0  0
  145.1100   75.0490  218.6261 H   0  0  0  0  0  0  0  0  0  0  0  0
  143.5814   74.1676  218.2397 H   0  0  0  0  0  0  0  0  0  0  0  0
  143.3641   76.6277  216.5533 H   0  0  0  0  0  0  0  0  0  0  0  0
  142.0610   78.7610  217.3230 H   0  0  0  0  0  0  0  0  0  0  0  0
  141.7287   78.8015  219.8851 H   0  0  0  0  0  0  0  0  0  0  0  0
  138.1136   77.0199  222.5421 H   0  0  0  0  0  0  0  0  0  0  0  0
  138.1710   79.3626  223.3092 H   0  0  0  0  0  0  0  0  0  0  0  0
  139.5320   81.3115  223.8361 H   0  0  0  0  0  0  0  0  0  0  0  0
  141.7295   82.4261  224.0169 H   0  0  0  0  0  0  0  0  0  0  0  0
  143.7733   81.1807  223.4270 H   0  0  0  0  0  0  0  0  0  0  0  0
  143.6677   78.8311  222.6657 H   0  0  0  0  0  0  0  0  0  0  0  0
  1  2  2  0
  2  3  1  0
  3  4  1  0
  4  5  1  0
  5  6  2  0
  5  7  1  0
  7  8  1  0
  8  9  1  0
  9 10  1  0
 10 11  1  0
 11 12  1  0
 12 13  1  0
 13 14  2  0
 14 15  1  0
 15 16  1  0
 16 17  2  0
  2 18  1  0
 18 19  2  0
 19 20  1  0
 20 21  2  0
 21 22  1  0
 22 23  2  0
 23 24  1  0
 24 25  2  0
 25 26  1  0
 26 27  2  0
 11  7  1  0
 17 13  1  0
 27 18  1  0
 26 21  1  0
  3 28  1  0
  4 29  1  0
  4 30  1  0
  8 31  1  0
  8 32  1  0
  9 33  1  0
  9 34  1  0
 10 35  1  0
 10 36  1  0
 11 37  1  1
 12 38  1  0
 12 39  1  0
 14 40  1  0
 15 41  1  0
 16 42  1  0
 19 43  1  0
 20 44  1  0
 22 45  1  0
 23 46  1  0
 24 47  1  0
 25 48  1  0
M  END
>  <smiles>  (32) 
O=C(NCC(=O)N1CCC[C@H]1Cc1c[nH]cn1)c1ccc2ccccc2n1

>  <score_type>  (32) 
oracle

>  <origin>  (32) 
autodockgpu

>  <m_score__min__energy>  (32) 
-8.4499999999999993

>  <m_primary>  (32) 
energy

>  <rmsd>  (32) 
7.692689814838532

>  <m_score__min__rmsd>  (32) 
7.692689814838532

>  <meeko>  (32) 
{"free_energy": -6.69, "intermolecular_energy": -8.48, "internal_energy": -2.59, "cluster_size": 10, "cluster_id": 8, "rank_in_cluster": 4}

>  <energy>  (32) 
-7.5

>  <cluster_rmsd>  (32) 
1.39

>  <cluster>  (32) 
5

$$$$

     RDKit          3D

 48 51  0  0  0  0  0  0  0  0999 V2000
  141.3730   71.9970  221.6140 O   0  0  0  0  0  0  0  0  0  0  0  0
  140.5470   72.3460  222.4900 C   0  0  0  0  0  0  0  0  0  0  0  0
  139.8600   73.5660  222.3200 N   0  0  0  0  0  0  0  0  0  0  0  0
  140.0960   74.4060  221.1610 C   0  0  0  0  0  0  0  0  0  0  0  0
  140.7050   75.6960  221.5150 C   0  0  0  0  0  0  0  0  0  0  0  0
  140.5570   76.2810  222.6150 O   0  0  0  0  0  0  0  0  0  0  0  0
  141.5240   76.3380  220.5480 N   0  0  0  0  0  0  0  0  0  0  0  0
  141.8050   77.7530  220.5150 C   0  0  0  0  0  0  0  0  0  0  0  0
  141.8060   78.0890  219.0420 C   0  0  0  0  0  0  0  0  0  0  0  0
  141.8900   76.7490  218.3230 C   0  0  0  0  0  0  0  0  0  0  0  0
  142.2410   75.7590  219.4190 C   0  0  1  0  0  0  0  0  0  0  0  0
  143.7260   75.7860  219.7230 C   0  0  0  0  0  0  0  0  0  0  0  0
  144.1930   74.4580  220.1830 C   0  0  0  0  0  0  0  0  0  0  0  0
  145.3720   74.1360  220.8470 C   0  0  0  0  0  0  0  0  0  0  0  0
  145.3410   72.8010  221.0500 N   0  0  0  0  0  0  0  0  0  0  0  0
  144.2030   72.2840  220.5450 C   0  0  0  0  0  0  0  0  0  0  0  0
  143.5250   73.3070  220.0260 N   0  0  0  0  0  0  0  0  0  0  0  0
  140.2970   71.5140  223.6610 C   0  0  0  0  0  0  0  0  0  0  0  0
  139.6230   70.3210  223.5310 C   0  0  0  0  0  0  0  0  0  0  0  0
  139.3550   69.4920  224.5860 C   0  0  0  0  0  0  0  0  0  0  0  0
  139.7990   69.9060  225.8430 C   0  0  0  0  0  0  0  0  0  0  0  0
  139.5670   69.1270  226.9570 C   0  0  0  0  0  0  0  0  0  0  0  0
  139.9960   69.5160  228.2000 C   0  0  0  0  0  0  0  0  0  0  0  0
  140.6660   70.7070  228.3260 C   0  0  0  0  0  0  0  0  0  0  0  0
  140.9200   71.5170  227.2430 C   0  0  0  0  0  0  0  0  0  0  0  0
  140.4770   71.1070  225.9820 C   0  0  0  0  0  0  0  0  0  0  0  0
  140.7060   71.8720  224.8990 N   0  0  0  0  0  0  0  0  0  0  0  0
  139.1710   73.8280  223.0780 H   0  0  0  0  0  0  0  0  0  0  0  0
  140.7695   73.8753  220.4720 H   0  0  0  0  0  0  0  0  0  0  0  0
  139.1215   74.6134  220.6947 H   0  0  0  0  0  0  0  0  0  0  0  0
  141.0251   78.3193  221.0451 H   0  0  0  0  0  0  0  0  0  0  0  0
  142.7539   78.0087  221.0091 H   0  0  0  0  0  0  0  0  0  0  0  0
  140.8808   78.6164  218.7667 H   0  0  0  0  0  0  0  0  0  0  0  0
  142.6424   78.7511  218.7735 H   0  0  0  0  0  0  0  0  0  0  0  0
  140.9252   76.4932  217.8608 H   0  0  0  0  0  0  0  0  0  0  0  0
  142.6285   76.7541  217.5078 H   0  0  0  0  0  0  0  0  0  0  0  0
  141.9907   74.7168  219.1717 H   0  0  0  0  0  0  0  0  0  0  0  0
  144.2755   76.0659  218.8121 H   0  0  0  0  0  0  0  0  0  0  0  0
  143.9091   76.5201  220.5215 H   0  0  0  0  0  0  0  0  0  0  0  0
  146.1707   74.8303  221.1471 H   0  0  0  0  0  0  0  0  0  0  0  0
  146.0680   72.2430  221.5190 H   0  0  0  0  0  0  0  0  0  0  0  0
  143.8954   71.2280  220.5586 H   0  0  0  0  0  0  0  0  0  0  0  0
  139.2830   70.0191  222.5294 H   0  0  0  0  0  0  0  0  0  0  0  0
  138.8148   68.5435  224.4500 H   0  0  0  0  0  0  0  0  0  0  0  0
  139.0273   68.1749  226.8463 H   0  0  0  0  0  0  0  0  0  0  0  0
  139.8064   68.8845  229.0805 H   0  0  0  0  0  0  0  0  0  0  0  0
  141.0100   71.0234  229.3218 H   0  0  0  0  0  0  0  0  0  0  0  0
  141.4603   72.4671  227.3668 H   0  0  0  0  0  0  0  0  0  0  0  0
  1  2  2  0
  2  3  1  0
  3  4  1  0
  4  5  1  0
  5  6  2  0
  5  7  1  0
  7  8  1  0
  8  9  1  0
  9 10  1  0
 10 11  1  0
 11 12  1  0
 12 13  1  0
 13 14  2  0
 14 15  1  0
 15 16  1  0
 16 17  2  0
  2 18  1  0
 18 19  2  0
 19 20  1  0
 20 21  2  0
 21 22  1  0
 22 23  2  0
 23 24  1  0
 24 25  2  0
 25 26  1  0
 26 27  2  0
 11  7  1  0
 17 13  1  0
 27 18  1  0
 26 21  1  0
  3 28  1  0
  4 29  1  0
  4 30  1  0
  8 31  1  0
  8 32  1  0
  9 33  1  0
  9 34  1  0
 10 35  1  0
 10 36  1  0
 11 37  1  6
 12 38  1  0
 12 39  1  0
 14 40  1  0
 15 41  1  0
 16 42  1  0
 19 43  1  0
 20 44  1  0
 22 45  1  0
 23 46  1  0
 24 47  1  0
 25 48  1  0
M  END
>  <smiles>  (33) 
O=C(NCC(=O)N1CCC[C@H]1Cc1c[nH]cn1)c1ccc2ccccc2n1

>  <score_type>  (33) 
oracle

>  <origin>  (33) 
autodockgpu

>  <m_score__min__energy>  (33) 
-8.4499999999999993

>  <m_primary>  (33) 
energy

>  <rmsd>  (33) 
2.232722941557448

>  <m_score__min__rmsd>  (33) 
2.232722941557448

>  <meeko>  (33) 
{"free_energy": -8.45, "intermolecular_energy": -10.24, "internal_energy": -1.44, "cluster_size": 14, "cluster_id": 1, "rank_in_cluster": 1}

>  <energy>  (33) 
-7.21

>  <cluster_rmsd>  (33) 
0.0

>  <cluster>  (33) 
6

$$$$

     RDKit          3D

 48 51  0  0  0  0  0  0  0  0999 V2000
  139.8470   71.3210  221.2750 O   0  0  0  0  0  0  0  0  0  0  0  0
  139.7930   71.9360  222.3670 C   0  0  0  0  0  0  0  0  0  0  0  0
  139.6110   73.3340  222.3410 N   0  0  0  0  0  0  0  0  0  0  0  0
  139.4860   74.0550  221.0890 C   0  0  0  0  0  0  0  0  0  0  0  0
  140.6090   74.9730  220.8520 C   0  0  0  0  0  0  0  0  0  0  0  0
  140.5870   76.2070  221.0830 O   0  0  0  0  0  0  0  0  0  0  0  0
  141.8130   74.4380  220.3230 N   0  0  0  0  0  0  0  0  0  0  0  0
  141.9700   73.0880  219.8360 C   0  0  0  0  0  0  0  0  0  0  0  0
  143.3580   72.6980  220.2880 C   0  0  0  0  0  0  0  0  0  0  0  0
  144.0340   74.0040  220.6870 C   0  0  0  0  0  0  0  0  0  0  0  0
  143.1090   75.0810  220.1510 C   0  0  1  0  0  0  0  0  0  0  0  0
  143.3420   75.3120  218.6710 C   0  0  0  0  0  0  0  0  0  0  0  0
  143.0810   76.7250  218.3120 C   0  0  0  0  0  0  0  0  0  0  0  0
  143.3120   77.3700  217.1020 C   0  0  0  0  0  0  0  0  0  0  0  0
  142.9110   78.6490  217.2690 N   0  0  0  0  0  0  0  0  0  0  0  0
  142.4430   78.8260  218.5200 C   0  0  0  0  0  0  0  0  0  0  0  0
  142.5560   77.6470  219.1320 N   0  0  0  0  0  0  0  0  0  0  0  0
  139.9160   71.2290  223.6350 C   0  0  0  0  0  0  0  0  0  0  0  0
  139.5470   69.9060  223.7290 C   0  0  0  0  0  0  0  0  0  0  0  0
  139.6350   69.1820  224.8860 C   0  0  0  0  0  0  0  0  0  0  0  0
  140.1290   69.8480  226.0100 C   0  0  0  0  0  0  0  0  0  0  0  0
  140.2480   69.1880  227.2150 C   0  0  0  0  0  0  0  0  0  0  0  0
  140.7310   69.8230  228.3300 C   0  0  0  0  0  0  0  0  0  0  0  0
  141.0970   71.1420  228.2340 C   0  0  0  0  0  0  0  0  0  0  0  0
  140.9960   71.8410  227.0520 C   0  0  0  0  0  0  0  0  0  0  0  0
  140.5020   71.1800  225.9240 C   0  0  0  0  0  0  0  0  0  0  0  0
  140.3870   71.8290  224.7510 N   0  0  0  0  0  0  0  0  0  0  0  0
  139.5700   73.8200  223.2800 H   0  0  0  0  0  0  0  0  0  0  0  0
  139.4461   73.3269  220.2654 H   0  0  0  0  0  0  0  0  0  0  0  0
  138.5675   74.6581  221.1416 H   0  0  0  0  0  0  0  0  0  0  0  0
  141.2133   72.4224  220.2769 H   0  0  0  0  0  0  0  0  0  0  0  0
  141.8418   73.0125  218.7461 H   0  0  0  0  0  0  0  0  0  0  0  0
  143.3050   72.0135  221.1475 H   0  0  0  0  0  0  0  0  0  0  0  0
  143.9143   72.1738  219.4969 H   0  0  0  0  0  0  0  0  0  0  0  0
  144.1258   74.0775  221.7807 H   0  0  0  0  0  0  0  0  0  0  0  0
  145.0554   74.0889  220.2876 H   0  0  0  0  0  0  0  0  0  0  0  0
  143.2323   76.0564  220.6443 H   0  0  0  0  0  0  0  0  0  0  0  0
  144.3858   75.0648  218.4273 H   0  0  0  0  0  0  0  0  0  0  0  0
  142.6537   74.6704  218.1013 H   0  0  0  0  0  0  0  0  0  0  0  0
  143.7371   76.9265  216.1895 H   0  0  0  0  0  0  0  0  0  0  0  0
  142.9480   79.3930  216.5570 H   0  0  0  0  0  0  0  0  0  0  0  0
  142.0467   79.7575  218.9505 H   0  0  0  0  0  0  0  0  0  0  0  0
  139.1619   69.4060  222.8281 H   0  0  0  0  0  0  0  0  0  0  0  0
  139.3312   68.1257  224.9293 H   0  0  0  0  0  0  0  0  0  0  0  0
  139.9496   68.1314  227.2829 H   0  0  0  0  0  0  0  0  0  0  0  0
  140.8235   69.2846  229.2848 H   0  0  0  0  0  0  0  0  0  0  0  0
  141.4822   71.6558  229.1271 H   0  0  0  0  0  0  0  0  0  0  0  0
  141.2977   72.8974  226.9967 H   0  0  0  0  0  0  0  0  0  0  0  0
  1  2  2  0
  2  3  1  0
  3  4  1  0
  4  5  1  0
  5  6  2  0
  5  7  1  0
  7  8  1  0
  8  9  1  0
  9 10  1  0
 10 11  1  0
 11 12  1  0
 12 13  1  0
 13 14  2  0
 14 15  1  0
 15 16  1  0
 16 17  2  0
  2 18  1  0
 18 19  2  0
 19 20  1  0
 20 21  2  0
 21 22  1  0
 22 23  2  0
 23 24  1  0
 24 25  2  0
 25 26  1  0
 26 27  2  0
 11  7  1  0
 17 13  1  0
 27 18  1  0
 26 21  1  0
  3 28  1  0
  4 29  1  0
  4 30  1  0
  8 31  1  0
  8 32  1  0
  9 33  1  0
  9 34  1  0
 10 35  1  0
 10 36  1  0
 11 37  1  1
 12 38  1  0
 12 39  1  0
 14 40  1  0
 15 41  1  0
 16 42  1  0
 19 43  1  0
 20 44  1  0
 22 45  1  0
 23 46  1  0
 24 47  1  0
 25 48  1  0
M  END
>  <smiles>  (34) 
O=C(NCC(=O)N1CCC[C@H]1Cc1c[nH]cn1)c1ccc2ccccc2n1

>  <score_type>  (34) 
oracle

>  <origin>  (34) 
autodockgpu

>  <m_score__min__energy>  (34) 
-8.4499999999999993

>  <m_primary>  (34) 
energy

>  <rmsd>  (34) 
2.7239383408704785

>  <m_score__min__rmsd>  (34) 
2.7239383408704785

>  <meeko>  (34) 
{"free_energy": -7.5, "intermolecular_energy": -9.29, "internal_energy": -1.54, "cluster_size": 3, "cluster_id": 5, "rank_in_cluster": 2}

>  <energy>  (34) 
-7.17

>  <cluster_rmsd>  (34) 
0.11

>  <cluster>  (34) 
6

$$$$

     RDKit          3D

 48 51  0  0  0  0  0  0  0  0999 V2000
  141.1250   72.8000  222.2000 O   0  0  0  0  0  0  0  0  0  0  0  0
  140.0330   72.5010  222.7400 C   0  0  0  0  0  0  0  0  0  0  0  0
  138.8740   73.1990  222.3430 N   0  0  0  0  0  0  0  0  0  0  0  0
  138.9300   74.2400  221.3350 C   0  0  0  0  0  0  0  0  0  0  0  0
  139.6000   75.4570  221.8170 C   0  0  0  0  0  0  0  0  0  0  0  0
  140.8390   75.5790  221.9710 O   0  0  0  0  0  0  0  0  0  0  0  0
  138.7960   76.5820  222.1360 N   0  0  0  0  0  0  0  0  0  0  0  0
  137.5470   76.5250  222.8580 C   0  0  0  0  0  0  0  0  0  0  0  0
  136.6850   77.5600  222.1740 C   0  0  0  0  0  0  0  0  0  0  0  0
  137.6440   78.3970  221.3380 C   0  0  0  0  0  0  0  0  0  0  0  0
  139.0200   77.9900  221.8320 C   0  0  1  0  0  0  0  0  0  0  0  0
  139.3730   78.7130  223.1170 C   0  0  0  0  0  0  0  0  0  0  0  0
  140.7750   79.1910  223.0840 C   0  0  0  0  0  0  0  0  0  0  0  0
  141.8340   78.7210  222.3150 C   0  0  0  0  0  0  0  0  0  0  0  0
  142.9040   79.4780  222.6380 N   0  0  0  0  0  0  0  0  0  0  0  0
  142.5600   80.3920  223.5660 C   0  0  0  0  0  0  0  0  0  0  0  0
  141.2660   80.1990  223.8200 N   0  0  0  0  0  0  0  0  0  0  0  0
  139.9570   71.4570  223.7550 C   0  0  0  0  0  0  0  0  0  0  0  0
  139.3070   70.2740  223.4840 C   0  0  0  0  0  0  0  0  0  0  0  0
  139.1970   69.2540  224.3880 C   0  0  0  0  0  0  0  0  0  0  0  0
  139.7840   69.4540  225.6390 C   0  0  0  0  0  0  0  0  0  0  0  0
  139.7170   68.4730  226.6060 C   0  0  0  0  0  0  0  0  0  0  0  0
  140.2870   68.6500  227.8410 C   0  0  0  0  0  0  0  0  0  0  0  0
  140.9330   69.8310  228.1080 C   0  0  0  0  0  0  0  0  0  0  0  0
  141.0250   70.8380  227.1740 C   0  0  0  0  0  0  0  0  0  0  0  0
  140.4390   70.6430  225.9200 C   0  0  0  0  0  0  0  0  0  0  0  0
  140.5080   71.6030  224.9800 N   0  0  0  0  0  0  0  0  0  0  0  0
  137.9710   72.9210  222.8190 H   0  0  0  0  0  0  0  0  0  0  0  0
  139.4798   73.8568  220.4627 H   0  0  0  0  0  0  0  0  0  0  0  0
  137.8955   74.5092  221.0756 H   0  0  0  0  0  0  0  0  0  0  0  0
  137.0948   75.5253  222.7797 H   0  0  0  0  0  0  0  0  0  0  0  0
  137.6695   76.7185  223.9339 H   0  0  0  0  0  0  0  0  0  0  0  0
  135.9374   77.0735  221.5303 H   0  0  0  0  0  0  0  0  0  0  0  0
  136.1311   78.1746  222.8989 H   0  0  0  0  0  0  0  0  0  0  0  0
  137.5302   78.1687  220.2680 H   0  0  0  0  0  0  0  0  0  0  0  0
  137.4613   79.4768  221.4415 H   0  0  0  0  0  0  0  0  0  0  0  0
  139.8286   78.2057  221.1181 H   0  0  0  0  0  0  0  0  0  0  0  0
  138.7010   79.5749  223.2421 H   0  0  0  0  0  0  0  0  0  0  0  0
  139.2589   78.0131  223.9580 H   0  0  0  0  0  0  0  0  0  0  0  0
  141.8055   77.8961  221.5879 H   0  0  0  0  0  0  0  0  0  0  0  0
  143.8520   79.3860  222.2440 H   0  0  0  0  0  0  0  0  0  0  0  0
  143.2164   81.1472  224.0230 H   0  0  0  0  0  0  0  0  0  0  0  0
  138.8535   70.1428  222.4905 H   0  0  0  0  0  0  0  0  0  0  0  0
  138.6709   68.3200  224.1413 H   0  0  0  0  0  0  0  0  0  0  0  0
  139.1963   67.5302  226.3825 H   0  0  0  0  0  0  0  0  0  0  0  0
  140.2274   67.8596  228.6037 H   0  0  0  0  0  0  0  0  0  0  0  0
  141.3907   69.9772  229.0975 H   0  0  0  0  0  0  0  0  0  0  0  0
  141.5486   71.7763  227.4095 H   0  0  0  0  0  0  0  0  0  0  0  0
  1  2  2  0
  2  3  1  0
  3  4  1  0
  4  5  1  0
  5  6  2  0
  5  7  1  0
  7  8  1  0
  8  9  1  0
  9 10  1  0
 10 11  1  0
 11 12  1  0
 12 13  1  0
 13 14  2  0
 14 15  1  0
 15 16  1  0
 16 17  2  0
  2 18  1  0
 18 19  2  0
 19 20  1  0
 20 21  2  0
 21 22  1  0
 22 23  2  0
 23 24  1  0
 24 25  2  0
 25 26  1  0
 26 27  2  0
 11  7  1  0
 17 13  1  0
 27 18  1  0
 26 21  1  0
  3 28  1  0
  4 29  1  0
  4 30  1  0
  8 31  1  0
  8 32  1  0
  9 33  1  0
  9 34  1  0
 10 35  1  0
 10 36  1  0
 11 37  1  6
 12 38  1  0
 12 39  1  0
 14 40  1  0
 15 41  1  0
 16 42  1  0
 19 43  1  0
 20 44  1  0
 22 45  1  0
 23 46  1  0
 24 47  1  0
 25 48  1  0
M  END
>  <smiles>  (35) 
O=C(NCC(=O)N1CCC[C@H]1Cc1c[nH]cn1)c1ccc2ccccc2n1

>  <score_type>  (35) 
oracle

>  <origin>  (35) 
autodockgpu

>  <m_score__min__energy>  (35) 
-8.4499999999999993

>  <m_primary>  (35) 
energy

>  <rmsd>  (35) 
2.8301019252531683

>  <m_score__min__rmsd>  (35) 
2.8301019252531683

>  <meeko>  (35) 
{"free_energy": -8.4, "intermolecular_energy": -10.19, "internal_energy": -1.09, "cluster_size": 10, "cluster_id": 2, "rank_in_cluster": 1}

>  <energy>  (35) 
-7.14

>  <cluster_rmsd>  (35) 
0.85

>  <cluster>  (35) 
6

$$$$

     RDKit          3D

 48 51  0  0  0  0  0  0  0  0999 V2000
  139.1720   74.8210  222.3750 O   0  0  0  0  0  0  0  0  0  0  0  0
  140.0770   75.5540  221.9110 C   0  0  0  0  0  0  0  0  0  0  0  0
  140.9460   75.0150  220.9390 N   0  0  0  0  0  0  0  0  0  0  0  0
  140.8040   73.6470  220.4780 C   0  0  0  0  0  0  0  0  0  0  0  0
  141.9260   72.7940  220.8930 C   0  0  0  0  0  0  0  0  0  0  0  0
  141.8330   71.8210  221.6800 O   0  0  0  0  0  0  0  0  0  0  0  0
  143.2160   73.0810  220.3730 N   0  0  0  0  0  0  0  0  0  0  0  0
  144.1730   72.0880  219.9460 C   0  0  0  0  0  0  0  0  0  0  0  0
  145.5010   72.6480  220.3970 C   0  0  0  0  0  0  0  0  0  0  0  0
  145.2330   74.1110  220.7250 C   0  0  0  0  0  0  0  0  0  0  0  0
  143.8520   74.3740  220.1520 C   0  0  1  0  0  0  0  0  0  0  0  0
  143.9210   74.6310  218.6600 C   0  0  0  0  0  0  0  0  0  0  0  0
  143.5010   76.0160  218.3450 C   0  0  0  0  0  0  0  0  0  0  0  0
  143.6930   76.7350  217.1700 C   0  0  0  0  0  0  0  0  0  0  0  0
  143.1320   77.9480  217.3700 N   0  0  0  0  0  0  0  0  0  0  0  0
  142.6050   78.0140  218.6080 C   0  0  0  0  0  0  0  0  0  0  0  0
  142.8400   76.8320  219.1790 N   0  0  0  0  0  0  0  0  0  0  0  0
  140.2350   76.9310  222.3620 C   0  0  0  0  0  0  0  0  0  0  0  0
  139.1320   77.6740  222.7170 C   0  0  0  0  0  0  0  0  0  0  0  0
  139.2060   78.9700  223.1480 C   0  0  0  0  0  0  0  0  0  0  0  0
  140.4800   79.5390  223.2200 C   0  0  0  0  0  0  0  0  0  0  0  0
  140.6390   80.8410  223.6450 C   0  0  0  0  0  0  0  0  0  0  0  0
  141.8810   81.4170  223.7220 C   0  0  0  0  0  0  0  0  0  0  0  0
  142.9780   80.6750  223.3670 C   0  0  0  0  0  0  0  0  0  0  0  0
  142.8680   79.3720  222.9370 C   0  0  0  0  0  0  0  0  0  0  0  0
  141.5950   78.7970  222.8630 C   0  0  0  0  0  0  0  0  0  0  0  0
  141.4450   77.5260  222.4480 N   0  0  0  0  0  0  0  0  0  0  0  0
  141.6980   75.6620  220.5700 H   0  0  0  0  0  0  0  0  0  0  0  0
  139.8731   73.2307  220.8903 H   0  0  0  0  0  0  0  0  0  0  0  0
  140.7868   73.6650  219.3783 H   0  0  0  0  0  0  0  0  0  0  0  0
  143.9730   71.1191  220.4268 H   0  0  0  0  0  0  0  0  0  0  0  0
  144.1366   71.9012  218.8626 H   0  0  0  0  0  0  0  0  0  0  0  0
  145.8612   72.1135  221.2884 H   0  0  0  0  0  0  0  0  0  0  0  0
  146.2753   72.5375  219.6235 H   0  0  0  0  0  0  0  0  0  0  0  0
  145.2418   74.2749  221.8127 H   0  0  0  0  0  0  0  0  0  0  0  0
  145.9973   74.7832  220.3080 H   0  0  0  0  0  0  0  0  0  0  0  0
  143.3455   75.2434  220.5965 H   0  0  0  0  0  0  0  0  0  0  0  0
  144.9548   74.4804  218.3155 H   0  0  0  0  0  0  0  0  0  0  0  0
  143.2419   73.9319  218.1500 H   0  0  0  0  0  0  0  0  0  0  0  0
  144.2007   76.3856  216.2588 H   0  0  0  0  0  0  0  0  0  0  0  0
  143.1020   78.7200  216.6890 H   0  0  0  0  0  0  0  0  0  0  0  0
  142.0844   78.8721  219.0583 H   0  0  0  0  0  0  0  0  0  0  0  0
  138.1408   77.2016  222.6507 H   0  0  0  0  0  0  0  0  0  0  0  0
  138.3052   79.5374  223.4248 H   0  0  0  0  0  0  0  0  0  0  0  0
  139.7531   81.4286  223.9276 H   0  0  0  0  0  0  0  0  0  0  0  0
  141.9953   82.4566  224.0628 H   0  0  0  0  0  0  0  0  0  0  0  0
  143.9755   81.1346  223.4276 H   0  0  0  0  0  0  0  0  0  0  0  0
  143.7620   78.7953  222.6575 H   0  0  0  0  0  0  0  0  0  0  0  0
  1  2  2  0
  2  3  1  0
  3  4  1  0
  4  5  1  0
  5  6  2  0
  5  7  1  0
  7  8  1  0
  8  9  1  0
  9 10  1  0
 10 11  1  0
 11 12  1  0
 12 13  1  0
 13 14  2  0
 14 15  1  0
 15 16  1  0
 16 17  2  0
  2 18  1  0
 18 19  2  0
 19 20  1  0
 20 21  2  0
 21 22  1  0
 22 23  2  0
 23 24  1  0
 24 25  2  0
 25 26  1  0
 26 27  2  0
 11  7  1  0
 17 13  1  0
 27 18  1  0
 26 21  1  0
  3 28  1  0
  4 29  1  0
  4 30  1  0
  8 31  1  0
  8 32  1  0
  9 33  1  0
  9 34  1  0
 10 35  1  0
 10 36  1  0
 11 37  1  1
 12 38  1  0
 12 39  1  0
 14 40  1  0
 15 41  1  0
 16 42  1  0
 19 43  1  0
 20 44  1  0
 22 45  1  0
 23 46  1  0
 24 47  1  0
 25 48  1  0
M  END
>  <smiles>  (36) 
O=C(NCC(=O)N1CCC[C@H]1Cc1c[nH]cn1)c1ccc2ccccc2n1

>  <score_type>  (36) 
oracle

>  <origin>  (36) 
autodockgpu

>  <m_score__min__energy>  (36) 
-8.4499999999999993

>  <m_primary>  (36) 
energy

>  <rmsd>  (36) 
7.720280220383536

>  <m_score__min__rmsd>  (36) 
7.720280220383536

>  <meeko>  (36) 
{"free_energy": -7.07, "intermolecular_energy": -8.85, "internal_energy": -2.4, "cluster_size": 10, "cluster_id": 8, "rank_in_cluster": 2}

>  <energy>  (36) 
-7.07

>  <cluster_rmsd>  (36) 
0.47

>  <cluster>  (36) 
6

$$$$

     RDKit          3D

 48 51  0  0  0  0  0  0  0  0999 V2000
  141.0490   72.2580  221.4640 O   0  0  0  0  0  0  0  0  0  0  0  0
  140.2500   72.5870  222.3740 C   0  0  0  0  0  0  0  0  0  0  0  0
  139.5750   73.8200  222.2620 N   0  0  0  0  0  0  0  0  0  0  0  0
  139.7890   74.6950  221.1250 C   0  0  0  0  0  0  0  0  0  0  0  0
  141.0170   75.4920  221.2510 C   0  0  0  0  0  0  0  0  0  0  0  0
  142.1810   75.0410  221.1160 O   0  0  0  0  0  0  0  0  0  0  0  0
  140.8920   76.8740  221.5490 N   0  0  0  0  0  0  0  0  0  0  0  0
  141.3520   77.9460  220.6970 C   0  0  0  0  0  0  0  0  0  0  0  0
  141.8910   78.9720  221.6650 C   0  0  0  0  0  0  0  0  0  0  0  0
  141.3570   78.5610  223.0310 C   0  0  0  0  0  0  0  0  0  0  0  0
  140.3020   77.5150  222.7180 C   0  0  1  0  0  0  0  0  0  0  0  0
  138.9950   78.1650  222.3060 C   0  0  0  0  0  0  0  0  0  0  0  0
  137.8670   77.2170  222.4560 C   0  0  0  0  0  0  0  0  0  0  0  0
  136.5620   77.3420  221.9920 C   0  0  0  0  0  0  0  0  0  0  0  0
  135.9120   76.2230  222.3780 N   0  0  0  0  0  0  0  0  0  0  0  0
  136.7490   75.4140  223.0570 C   0  0  0  0  0  0  0  0  0  0  0  0
  137.9270   76.0380  223.0910 N   0  0  0  0  0  0  0  0  0  0  0  0
  140.0220   71.7200  223.5240 C   0  0  0  0  0  0  0  0  0  0  0  0
  139.1670   70.6460  223.4210 C   0  0  0  0  0  0  0  0  0  0  0  0
  138.9070   69.7920  224.4580 C   0  0  0  0  0  0  0  0  0  0  0  0
  139.5560   70.0520  225.6670 C   0  0  0  0  0  0  0  0  0  0  0  0
  139.3460   69.2380  226.7610 C   0  0  0  0  0  0  0  0  0  0  0  0
  139.9730   69.4770  227.9560 C   0  0  0  0  0  0  0  0  0  0  0  0
  140.8240   70.5490  228.0550 C   0  0  0  0  0  0  0  0  0  0  0  0
  141.0640   71.3880  226.9910 C   0  0  0  0  0  0  0  0  0  0  0  0
  140.4170   71.1330  225.7780 C   0  0  0  0  0  0  0  0  0  0  0  0
  140.6250   71.9300  224.7140 N   0  0  0  0  0  0  0  0  0  0  0  0
  138.9090   74.0640  223.0470 H   0  0  0  0  0  0  0  0  0  0  0  0
  139.8592   74.0805  220.2154 H   0  0  0  0  0  0  0  0  0  0  0  0
  138.9408   75.3937  221.0769 H   0  0  0  0  0  0  0  0  0  0  0  0
  142.1430   77.5946  220.0182 H   0  0  0  0  0  0  0  0  0  0  0  0
  140.5562   78.3473  220.0523 H   0  0  0  0  0  0  0  0  0  0  0  0
  142.9910   78.9620  221.6631 H   0  0  0  0  0  0  0  0  0  0  0  0
  141.5798   79.9918  221.3946 H   0  0  0  0  0  0  0  0  0  0  0  0
  142.1587   78.1334  223.6510 H   0  0  0  0  0  0  0  0  0  0  0  0
  140.9521   79.4116  223.5989 H   0  0  0  0  0  0  0  0  0  0  0  0
  140.0697   76.8529  223.5652 H   0  0  0  0  0  0  0  0  0  0  0  0
  138.8137   79.0448  222.9409 H   0  0  0  0  0  0  0  0  0  0  0  0
  139.0669   78.4638  221.2498 H   0  0  0  0  0  0  0  0  0  0  0  0
  136.1425   78.1850  221.4234 H   0  0  0  0  0  0  0  0  0  0  0  0
  134.9230   76.0020  222.1910 H   0  0  0  0  0  0  0  0  0  0  0  0
  136.5084   74.4344  223.4957 H   0  0  0  0  0  0  0  0  0  0  0  0
  138.6682   70.4654  222.4574 H   0  0  0  0  0  0  0  0  0  0  0  0
  138.2193   68.9409  224.3448 H   0  0  0  0  0  0  0  0  0  0  0  0
  138.6623   68.3809  226.6724 H   0  0  0  0  0  0  0  0  0  0  0  0
  139.7971   68.8207  228.8211 H   0  0  0  0  0  0  0  0  0  0  0  0
  141.3290   70.7433  229.0127 H   0  0  0  0  0  0  0  0  0  0  0  0
  141.7505   72.2415  227.0926 H   0  0  0  0  0  0  0  0  0  0  0  0
  1  2  2  0
  2  3  1  0
  3  4  1  0
  4  5  1  0
  5  6  2  0
  5  7  1  0
  7  8  1  0
  8  9  1  0
  9 10  1  0
 10 11  1  0
 11 12  1  0
 12 13  1  0
 13 14  2  0
 14 15  1  0
 15 16  1  0
 16 17  2  0
  2 18  1  0
 18 19  2  0
 19 20  1  0
 20 21  2  0
 21 22  1  0
 22 23  2  0
 23 24  1  0
 24 25  2  0
 25 26  1  0
 26 27  2  0
 11  7  1  0
 17 13  1  0
 27 18  1  0
 26 21  1  0
  3 28  1  0
  4 29  1  0
  4 30  1  0
  8 31  1  0
  8 32  1  0
  9 33  1  0
  9 34  1  0
 10 35  1  0
 10 36  1  0
 11 37  1  1
 12 38  1  0
 12 39  1  0
 14 40  1  0
 15 41  1  0
 16 42  1  0
 19 43  1  0
 20 44  1  0
 22 45  1  0
 23 46  1  0
 24 47  1  0
 25 48  1  0
M  END
>  <smiles>  (37) 
O=C(NCC(=O)N1CCC[C@H]1Cc1c[nH]cn1)c1ccc2ccccc2n1

>  <score_type>  (37) 
oracle

>  <origin>  (37) 
autodockgpu

>  <m_score__min__energy>  (37) 
-8.4499999999999993

>  <m_primary>  (37) 
energy

>  <rmsd>  (37) 
2.914887522170725

>  <m_score__min__rmsd>  (37) 
2.914887522170725

>  <meeko>  (37) 
{"free_energy": -7.17, "intermolecular_energy": -8.96, "internal_energy": -1.91, "cluster_size": 4, "cluster_id": 6, "rank_in_cluster": 2}

>  <energy>  (37) 
-7.1

>  <cluster_rmsd>  (37) 
0.0

>  <cluster>  (37) 
7

$$$$

     RDKit          3D

 48 51  0  0  0  0  0  0  0  0999 V2000
  138.7000   72.6640  222.4300 O   0  0  0  0  0  0  0  0  0  0  0  0
  139.7600   72.0400  222.6740 C   0  0  0  0  0  0  0  0  0  0  0  0
  140.8620   72.2250  221.8130 N   0  0  0  0  0  0  0  0  0  0  0  0
  140.7830   73.1150  220.6710 C   0  0  0  0  0  0  0  0  0  0  0  0
  140.8040   74.5330  221.0570 C   0  0  0  0  0  0  0  0  0  0  0  0
  140.0880   75.0420  221.9540 O   0  0  0  0  0  0  0  0  0  0  0  0
  141.6950   75.4010  220.3720 N   0  0  0  0  0  0  0  0  0  0  0  0
  141.7180   76.8380  220.5150 C   0  0  0  0  0  0  0  0  0  0  0  0
  141.9980   77.3370  219.1170 C   0  0  0  0  0  0  0  0  0  0  0  0
  142.4830   76.1180  218.3430 C   0  0  0  0  0  0  0  0  0  0  0  0
  142.7440   75.0750  219.4140 C   0  0  1  0  0  0  0  0  0  0  0  0
  144.0900   75.2980  220.0760 C   0  0  0  0  0  0  0  0  0  0  0  0
  144.8510   74.0310  220.1580 C   0  0  0  0  0  0  0  0  0  0  0  0
  145.8680   73.6860  221.0420 C   0  0  0  0  0  0  0  0  0  0  0  0
  146.2430   72.4290  220.7190 N   0  0  0  0  0  0  0  0  0  0  0  0
  145.5090   71.9810  219.6810 C   0  0  0  0  0  0  0  0  0  0  0  0
  144.6730   72.9680  219.3600 N   0  0  0  0  0  0  0  0  0  0  0  0
  139.8580   71.1410  223.8180 C   0  0  0  0  0  0  0  0  0  0  0  0
  139.4210   69.8400  223.7140 C   0  0  0  0  0  0  0  0  0  0  0  0
  139.4830   68.9430  224.7450 C   0  0  0  0  0  0  0  0  0  0  0  0
  140.0200   69.4030  225.9500 C   0  0  0  0  0  0  0  0  0  0  0  0
  140.1160   68.5610  227.0370 C   0  0  0  0  0  0  0  0  0  0  0  0
  140.6400   68.9930  228.2280 C   0  0  0  0  0  0  0  0  0  0  0  0
  141.0730   70.2910  228.3280 C   0  0  0  0  0  0  0  0  0  0  0  0
  140.9970   71.1670  227.2700 C   0  0  0  0  0  0  0  0  0  0  0  0
  140.4600   70.7130  226.0610 C   0  0  0  0  0  0  0  0  0  0  0  0
  140.3690   71.5390  225.0040 N   0  0  0  0  0  0  0  0  0  0  0  0
  141.7390   71.6830  222.0490 H   0  0  0  0  0  0  0  0  0  0  0  0
  141.6398   72.9170  220.0102 H   0  0  0  0  0  0  0  0  0  0  0  0
  139.8262   72.9219  220.1637 H   0  0  0  0  0  0  0  0  0  0  0  0
  140.7485   77.2110  220.8770 H   0  0  0  0  0  0  0  0  0  0  0  0
  142.4659   77.1800  221.2456 H   0  0  0  0  0  0  0  0  0  0  0  0
  141.0821   77.7425  218.6623 H   0  0  0  0  0  0  0  0  0  0  0  0
  142.7419   78.1473  219.1128 H   0  0  0  0  0  0  0  0  0  0  0  0
  141.7118   75.7703  217.6399 H   0  0  0  0  0  0  0  0  0  0  0  0
  143.3760   76.3320  217.7375 H   0  0  0  0  0  0  0  0  0  0  0  0
  142.7480   74.0423  219.0352 H   0  0  0  0  0  0  0  0  0  0  0  0
  144.6655   76.0270  219.4867 H   0  0  0  0  0  0  0  0  0  0  0  0
  143.9235   75.6763  221.0954 H   0  0  0  0  0  0  0  0  0  0  0  0
  146.2843   74.3123  221.8448 H   0  0  0  0  0  0  0  0  0  0  0  0
  146.9780   71.8780  221.1850 H   0  0  0  0  0  0  0  0  0  0  0  0
  145.5849   70.9968  219.1956 H   0  0  0  0  0  0  0  0  0  0  0  0
  139.0010   69.5048  222.7542 H   0  0  0  0  0  0  0  0  0  0  0  0
  139.1269   67.9085  224.6307 H   0  0  0  0  0  0  0  0  0  0  0  0
  139.7654   67.5222  226.9472 H   0  0  0  0  0  0  0  0  0  0  0  0
  140.7120   68.3110  229.0881 H   0  0  0  0  0  0  0  0  0  0  0  0
  141.4933   70.6415  229.2822 H   0  0  0  0  0  0  0  0  0  0  0  0
  141.3513   72.2033  227.3728 H   0  0  0  0  0  0  0  0  0  0  0  0
  1  2  2  0
  2  3  1  0
  3  4  1  0
  4  5  1  0
  5  6  2  0
  5  7  1  0
  7  8  1  0
  8  9  1  0
  9 10  1  0
 10 11  1  0
 11 12  1  0
 12 13  1  0
 13 14  2  0
 14 15  1  0
 15 16  1  0
 16 17  2  0
  2 18  1  0
 18 19  2  0
 19 20  1  0
 20 21  2  0
 21 22  1  0
 22 23  2  0
 23 24  1  0
 24 25  2  0
 25 26  1  0
 26 27  2  0
 11  7  1  0
 17 13  1  0
 27 18  1  0
 26 21  1  0
  3 28  1  0
  4 29  1  0
  4 30  1  0
  8 31  1  0
  8 32  1  0
  9 33  1  0
  9 34  1  0
 10 35  1  0
 10 36  1  0
 11 37  1  6
 12 38  1  0
 12 39  1  0
 14 40  1  0
 15 41  1  0
 16 42  1  0
 19 43  1  0
 20 44  1  0
 22 45  1  0
 23 46  1  0
 24 47  1  0
 25 48  1  0
M  END
>  <smiles>  (38) 
O=C(NCC(=O)N1CCC[C@H]1Cc1c[nH]cn1)c1ccc2ccccc2n1

>  <score_type>  (38) 
oracle

>  <origin>  (38) 
autodockgpu

>  <m_score__min__energy>  (38) 
-8.4499999999999993

>  <m_primary>  (38) 
energy

>  <rmsd>  (38) 
2.2743470779038786

>  <m_score__min__rmsd>  (38) 
2.2743470779038786

>  <meeko>  (38) 
{"free_energy": -7.97, "intermolecular_energy": -9.76, "internal_energy": -1.09, "cluster_size": 14, "cluster_id": 1, "rank_in_cluster": 5}

>  <energy>  (38) 
-7.1

>  <cluster_rmsd>  (38) 
0.26

>  <cluster>  (38) 
7

$$$$

     RDKit          3D

 48 51  0  0  0  0  0  0  0  0999 V2000
  140.2940   75.0410  222.3460 O   0  0  0  0  0  0  0  0  0  0  0  0
  140.5990   75.9000  221.4840 C   0  0  0  0  0  0  0  0  0  0  0  0
  140.6160   75.5140  220.1270 N   0  0  0  0  0  0  0  0  0  0  0  0
  140.2890   74.1600  219.7250 C   0  0  0  0  0  0  0  0  0  0  0  0
  141.2590   73.1740  220.2220 C   0  0  0  0  0  0  0  0  0  0  0  0
  140.9700   72.1750  220.9250 O   0  0  0  0  0  0  0  0  0  0  0  0
  142.6270   73.3540  219.8890 N   0  0  0  0  0  0  0  0  0  0  0  0
  143.5310   72.2920  219.5160 C   0  0  0  0  0  0  0  0  0  0  0  0
  144.8370   72.6810  220.1680 C   0  0  0  0  0  0  0  0  0  0  0  0
  144.6710   74.1430  220.5640 C   0  0  0  0  0  0  0  0  0  0  0  0
  143.4100   74.5830  219.8430 C   0  0  1  0  0  0  0  0  0  0  0  0
  143.6990   74.9180  218.3930 C   0  0  0  0  0  0  0  0  0  0  0  0
  143.3220   76.3190  218.0920 C   0  0  0  0  0  0  0  0  0  0  0  0
  143.4500   77.0130  216.8950 C   0  0  0  0  0  0  0  0  0  0  0  0
  142.9680   78.2540  217.1210 N   0  0  0  0  0  0  0  0  0  0  0  0
  142.5470   78.3600  218.3970 C   0  0  0  0  0  0  0  0  0  0  0  0
  142.7720   77.1760  218.9650 N   0  0  0  0  0  0  0  0  0  0  0  0
  140.9320   77.2660  221.8690 C   0  0  0  0  0  0  0  0  0  0  0  0
  141.3680   77.5380  223.1460 C   0  0  0  0  0  0  0  0  0  0  0  0
  141.6960   78.7940  223.5750 C   0  0  0  0  0  0  0  0  0  0  0  0
  141.5710   79.8310  222.6470 C   0  0  0  0  0  0  0  0  0  0  0  0
  141.8830   81.1270  223.0020 C   0  0  0  0  0  0  0  0  0  0  0  0
  141.7670   82.1570  222.1050 C   0  0  0  0  0  0  0  0  0  0  0  0
  141.3310   81.8820  220.8340 C   0  0  0  0  0  0  0  0  0  0  0  0
  141.0090   80.6050  220.4350 C   0  0  0  0  0  0  0  0  0  0  0  0
  141.1320   79.5640  221.3600 C   0  0  0  0  0  0  0  0  0  0  0  0
  140.8270   78.3020  221.0080 N   0  0  0  0  0  0  0  0  0  0  0  0
  140.8780   76.2640  219.4290 H   0  0  0  0  0  0  0  0  0  0  0  0
  139.2942   73.9057  220.1196 H   0  0  0  0  0  0  0  0  0  0  0  0
  140.3102   74.1241  218.6258 H   0  0  0  0  0  0  0  0  0  0  0  0
  143.1760   71.3235  219.8981 H   0  0  0  0  0  0  0  0  0  0  0  0
  143.6197   72.1736  218.4260 H   0  0  0  0  0  0  0  0  0  0  0  0
  145.0235   72.0602  221.0567 H   0  0  0  0  0  0  0  0  0  0  0  0
  145.6919   72.5347  219.4914 H   0  0  0  0  0  0  0  0  0  0  0  0
  144.5521   74.2411  221.6531 H   0  0  0  0  0  0  0  0  0  0  0  0
  145.5452   74.7542  220.2952 H   0  0  0  0  0  0  0  0  0  0  0  0
  142.9369   75.4736  220.2824 H   0  0  0  0  0  0  0  0  0  0  0  0
  144.7734   74.7839  218.1990 H   0  0  0  0  0  0  0  0  0  0  0  0
  143.1078   74.2479  217.7515 H   0  0  0  0  0  0  0  0  0  0  0  0
  143.8622   76.6279  215.9507 H   0  0  0  0  0  0  0  0  0  0  0  0
  142.9190   79.0190  216.4330 H   0  0  0  0  0  0  0  0  0  0  0  0
  142.1056   79.2473  218.8743 H   0  0  0  0  0  0  0  0  0  0  0  0
  141.4569   76.7032  223.8567 H   0  0  0  0  0  0  0  0  0  0  0  0
  142.0421   78.9794  224.6025 H   0  0  0  0  0  0  0  0  0  0  0  0
  142.2313   81.3378  224.0239 H   0  0  0  0  0  0  0  0  0  0  0  0
  142.0193   83.1864  222.3995 H   0  0  0  0  0  0  0  0  0  0  0  0
  141.2359   82.7066  220.1122 H   0  0  0  0  0  0  0  0  0  0  0  0
  140.6622   80.4075  219.4100 H   0  0  0  0  0  0  0  0  0  0  0  0
  1  2  2  0
  2  3  1  0
  3  4  1  0
  4  5  1  0
  5  6  2  0
  5  7  1  0
  7  8  1  0
  8  9  1  0
  9 10  1  0
 10 11  1  0
 11 12  1  0
 12 13  1  0
 13 14  2  0
 14 15  1  0
 15 16  1  0
 16 17  2  0
  2 18  1  0
 18 19  2  0
 19 20  1  0
 20 21  2  0
 21 22  1  0
 22 23  2  0
 23 24  1  0
 24 25  2  0
 25 26  1  0
 26 27  2  0
 11  7  1  0
 17 13  1  0
 27 18  1  0
 26 21  1  0
  3 28  1  0
  4 29  1  0
  4 30  1  0
  8 31  1  0
  8 32  1  0
  9 33  1  0
  9 34  1  0
 10 35  1  0
 10 36  1  0
 11 37  1  1
 12 38  1  0
 12 39  1  0
 14 40  1  0
 15 41  1  0
 16 42  1  0
 19 43  1  0
 20 44  1  0
 22 45  1  0
 23 46  1  0
 24 47  1  0
 25 48  1  0
M  END
>  <smiles>  (39) 
O=C(NCC(=O)N1CCC[C@H]1Cc1c[nH]cn1)c1ccc2ccccc2n1

>  <score_type>  (39) 
oracle

>  <origin>  (39) 
autodockgpu

>  <m_score__min__energy>  (39) 
-8.4499999999999993

>  <m_primary>  (39) 
energy

>  <rmsd>  (39) 
8.180174774476207

>  <m_score__min__rmsd>  (39) 
8.180174774476207

>  <meeko>  (39) 
{"free_energy": -6.19, "intermolecular_energy": -7.98, "internal_energy": -2.77, "cluster_size": 10, "cluster_id": 8, "rank_in_cluster": 6}

>  <energy>  (39) 
-7.09

>  <cluster_rmsd>  (39) 
0.0

>  <cluster>  (39) 
8

$$$$

     RDKit          3D

 48 51  0  0  0  0  0  0  0  0999 V2000
  138.6520   75.6810  221.4430 O   0  0  0  0  0  0  0  0  0  0  0  0
  139.8150   76.0030  221.7850 C   0  0  0  0  0  0  0  0  0  0  0  0
  140.8420   75.0440  221.6580 N   0  0  0  0  0  0  0  0  0  0  0  0
  140.5710   73.7150  221.1450 C   0  0  0  0  0  0  0  0  0  0  0  0
  141.7640   72.8560  221.1460 C   0  0  0  0  0  0  0  0  0  0  0  0
  141.8500   71.7490  221.7300 O   0  0  0  0  0  0  0  0  0  0  0  0
  142.9110   73.3020  220.4370 N   0  0  0  0  0  0  0  0  0  0  0  0
  143.9060   72.4350  219.8510 C   0  0  0  0  0  0  0  0  0  0  0  0
  145.2090   73.1580  220.1000 C   0  0  0  0  0  0  0  0  0  0  0  0
  144.8160   74.5770  220.4920 C   0  0  0  0  0  0  0  0  0  0  0  0
  143.3410   74.6640  220.1440 C   0  0  1  0  0  0  0  0  0  0  0  0
  143.1440   74.9250  218.6630 C   0  0  0  0  0  0  0  0  0  0  0  0
  142.9670   76.3720  218.4040 C   0  0  0  0  0  0  0  0  0  0  0  0
  143.3020   77.0960  217.2650 C   0  0  0  0  0  0  0  0  0  0  0  0
  142.9460   78.3760  217.5090 N   0  0  0  0  0  0  0  0  0  0  0  0
  142.4090   78.4780  218.7410 C   0  0  0  0  0  0  0  0  0  0  0  0
  142.4320   77.2520  219.2620 N   0  0  0  0  0  0  0  0  0  0  0  0
  140.1060   77.3340  222.3030 C   0  0  0  0  0  0  0  0  0  0  0  0
  139.0800   78.1610  222.7010 C   0  0  0  0  0  0  0  0  0  0  0  0
  139.2800   79.4200  223.1960 C   0  0  0  0  0  0  0  0  0  0  0  0
  140.6030   79.8590  223.2880 C   0  0  0  0  0  0  0  0  0  0  0  0
  140.8880   81.1170  223.7760 C   0  0  0  0  0  0  0  0  0  0  0  0
  142.1800   81.5660  223.8750 C   0  0  0  0  0  0  0  0  0  0  0  0
  143.2000   80.7390  223.4760 C   0  0  0  0  0  0  0  0  0  0  0  0
  142.9630   79.4760  222.9830 C   0  0  0  0  0  0  0  0  0  0  0  0
  141.6410   79.0320  222.8880 C   0  0  0  0  0  0  0  0  0  0  0  0
  141.3680   77.8040  222.4110 N   0  0  0  0  0  0  0  0  0  0  0  0
  141.8100   75.3490  221.9560 H   0  0  0  0  0  0  0  0  0  0  0  0
  139.7983   73.2459  221.7718 H   0  0  0  0  0  0  0  0  0  0  0  0
  140.2371   73.8214  220.1023 H   0  0  0  0  0  0  0  0  0  0  0  0
  143.9048   71.4503  220.3412 H   0  0  0  0  0  0  0  0  0  0  0  0
  143.7250   72.2419  218.7833 H   0  0  0  0  0  0  0  0  0  0  0  0
  145.7678   72.6744  220.9148 H   0  0  0  0  0  0  0  0  0  0  0  0
  145.8604   73.1440  219.2137 H   0  0  0  0  0  0  0  0  0  0  0  0
  144.9734   74.7423  221.5680 H   0  0  0  0  0  0  0  0  0  0  0  0
  145.4169   75.3391  219.9742 H   0  0  0  0  0  0  0  0  0  0  0  0
  142.8070   75.4642  220.6774 H   0  0  0  0  0  0  0  0  0  0  0  0
  144.0259   74.5652  218.1128 H   0  0  0  0  0  0  0  0  0  0  0  0
  142.2411   74.3934  218.3279 H   0  0  0  0  0  0  0  0  0  0  0  0
  143.7650   76.7041  216.3474 H   0  0  0  0  0  0  0  0  0  0  0  0
  143.0600   79.1700  216.8630 H   0  0  0  0  0  0  0  0  0  0  0  0
  142.0277   79.3915  219.2207 H   0  0  0  0  0  0  0  0  0  0  0  0
  138.0477   77.7906  222.6167 H   0  0  0  0  0  0  0  0  0  0  0  0
  138.4388   80.0569  223.5070 H   0  0  0  0  0  0  0  0  0  0  0  0
  140.0633   81.7728  224.0919 H   0  0  0  0  0  0  0  0  0  0  0  0
  142.3949   82.5710  224.2672 H   0  0  0  0  0  0  0  0  0  0  0  0
  144.2376   81.0961  223.5525 H   0  0  0  0  0  0  0  0  0  0  0  0
  143.7964   78.8296  222.6704 H   0  0  0  0  0  0  0  0  0  0  0  0
  1  2  2  0
  2  3  1  0
  3  4  1  0
  4  5  1  0
  5  6  2  0
  5  7  1  0
  7  8  1  0
  8  9  1  0
  9 10  1  0
 10 11  1  0
 11 12  1  0
 12 13  1  0
 13 14  2  0
 14 15  1  0
 15 16  1  0
 16 17  2  0
  2 18  1  0
 18 19  2  0
 19 20  1  0
 20 21  2  0
 21 22  1  0
 22 23  2  0
 23 24  1  0
 24 25  2  0
 25 26  1  0
 26 27  2  0
 11  7  1  0
 17 13  1  0
 27 18  1  0
 26 21  1  0
  3 28  1  0
  4 29  1  0
  4 30  1  0
  8 31  1  0
  8 32  1  0
  9 33  1  0
  9 34  1  0
 10 35  1  0
 10 36  1  0
 11 37  1  1
 12 38  1  0
 12 39  1  0
 14 40  1  0
 15 41  1  0
 16 42  1  0
 19 43  1  0
 20 44  1  0
 22 45  1  0
 23 46  1  0
 24 47  1  0
 25 48  1  0
M  END
>  <smiles>  (40) 
O=C(NCC(=O)N1CCC[C@H]1Cc1c[nH]cn1)c1ccc2ccccc2n1

>  <score_type>  (40) 
oracle

>  <origin>  (40) 
autodockgpu

>  <m_score__min__energy>  (40) 
-8.4499999999999993

>  <m_primary>  (40) 
energy

>  <rmsd>  (40) 
7.738410774120695

>  <m_score__min__rmsd>  (40) 
7.738410774120695

>  <meeko>  (40) 
{"free_energy": -7.09, "intermolecular_energy": -8.88, "internal_energy": -1.91, "cluster_size": 10, "cluster_id": 8, "rank_in_cluster": 1}

>  <energy>  (40) 
-7.07

>  <cluster_rmsd>  (40) 
0.61

>  <cluster>  (40) 
8

$$$$

     RDKit          3D

 48 51  0  0  0  0  0  0  0  0999 V2000
  140.1180   74.3960  222.3100 O   0  0  0  0  0  0  0  0  0  0  0  0
  140.2370   75.3880  221.5520 C   0  0  0  0  0  0  0  0  0  0  0  0
  140.3630   75.1630  220.1650 N   0  0  0  0  0  0  0  0  0  0  0  0
  140.3550   73.8200  219.6170 C   0  0  0  0  0  0  0  0  0  0  0  0
  141.4420   73.5980  218.6540 C   0  0  0  0  0  0  0  0  0  0  0  0
  141.2800   73.3570  217.4330 O   0  0  0  0  0  0  0  0  0  0  0  0
  142.7800   73.6560  219.1270 N   0  0  0  0  0  0  0  0  0  0  0  0
  143.9230   73.1050  218.4390 C   0  0  0  0  0  0  0  0  0  0  0  0
  144.7800   72.5450  219.5490 C   0  0  0  0  0  0  0  0  0  0  0  0
  144.2280   73.1530  220.8320 C   0  0  0  0  0  0  0  0  0  0  0  0
  143.2970   74.2520  220.3530 C   0  0  1  0  0  0  0  0  0  0  0  0
  144.0730   75.5040  219.9920 C   0  0  0  0  0  0  0  0  0  0  0  0
  143.2530   76.4060  219.1510 C   0  0  0  0  0  0  0  0  0  0  0  0
  143.3170   76.6070  217.7770 C   0  0  0  0  0  0  0  0  0  0  0  0
  142.3690   77.5230  217.4810 N   0  0  0  0  0  0  0  0  0  0  0  0
  141.7240   77.8970  218.6030 C   0  0  0  0  0  0  0  0  0  0  0  0
  142.2770   77.2070  219.6010 N   0  0  0  0  0  0  0  0  0  0  0  0
  140.2470   76.7450  222.0850 C   0  0  0  0  0  0  0  0  0  0  0  0
  139.0620   77.3810  222.3790 C   0  0  0  0  0  0  0  0  0  0  0  0
  138.9980   78.6520  222.8810 C   0  0  0  0  0  0  0  0  0  0  0  0
  140.2120   79.3090  223.0930 C   0  0  0  0  0  0  0  0  0  0  0  0
  140.2310   80.5930  223.5960 C   0  0  0  0  0  0  0  0  0  0  0  0
  141.4130   81.2550  223.8120 C   0  0  0  0  0  0  0  0  0  0  0  0
  142.5910   80.6180  223.5160 C   0  0  0  0  0  0  0  0  0  0  0  0
  142.6210   79.3370  223.0130 C   0  0  0  0  0  0  0  0  0  0  0  0
  141.4080   78.6750  222.7980 C   0  0  0  0  0  0  0  0  0  0  0  0
  141.3950   77.4220  222.3070 N   0  0  0  0  0  0  0  0  0  0  0  0
  140.4610   76.0220  219.5560 H   0  0  0  0  0  0  0  0  0  0  0  0
  140.4634   73.1015  220.4429 H   0  0  0  0  0  0  0  0  0  0  0  0
  139.4030   73.6828  219.0833 H   0  0  0  0  0  0  0  0  0  0  0  0
  143.6154   72.3104  217.7433 H   0  0  0  0  0  0  0  0  0  0  0  0
  144.4526   73.8526  217.8303 H   0  0  0  0  0  0  0  0  0  0  0  0
  144.7029   71.4481  219.5787 H   0  0  0  0  0  0  0  0  0  0  0  0
  145.8436   72.7866  219.4063 H   0  0  0  0  0  0  0  0  0  0  0  0
  143.6761   72.4005  221.4143 H   0  0  0  0  0  0  0  0  0  0  0  0
  145.0209   73.5314  221.4940 H   0  0  0  0  0  0  0  0  0  0  0  0
  142.5452   74.5519  221.0979 H   0  0  0  0  0  0  0  0  0  0  0  0
  144.3575   76.0307  220.9148 H   0  0  0  0  0  0  0  0  0  0  0  0
  144.9699   75.2123  219.4260 H   0  0  0  0  0  0  0  0  0  0  0  0
  144.0035   76.1173  217.0706 H   0  0  0  0  0  0  0  0  0  0  0  0
  142.1560   77.8920  216.5430 H   0  0  0  0  0  0  0  0  0  0  0  0
  140.9043   78.6264  218.6804 H   0  0  0  0  0  0  0  0  0  0  0  0
  138.1204   76.8407  222.2016 H   0  0  0  0  0  0  0  0  0  0  0  0
  138.0354   79.1339  223.1071 H   0  0  0  0  0  0  0  0  0  0  0  0
  139.2806   81.0957  223.8283 H   0  0  0  0  0  0  0  0  0  0  0  0
  141.4159   82.2784  224.2154 H   0  0  0  0  0  0  0  0  0  0  0  0
  143.5405   81.1467  223.6857 H   0  0  0  0  0  0  0  0  0  0  0  0
  143.5780   78.8449  222.7852 H   0  0  0  0  0  0  0  0  0  0  0  0
  1  2  2  0
  2  3  1  0
  3  4  1  0
  4  5  1  0
  5  6  2  0
  5  7  1  0
  7  8  1  0
  8  9  1  0
  9 10  1  0
 10 11  1  0
 11 12  1  0
 12 13  1  0
 13 14  2  0
 14 15  1  0
 15 16  1  0
 16 17  2  0
  2 18  1  0
 18 19  2  0
 19 20  1  0
 20 21  2  0
 21 22  1  0
 22 23  2  0
 23 24  1  0
 24 25  2  0
 25 26  1  0
 26 27  2  0
 11  7  1  0
 17 13  1  0
 27 18  1  0
 26 21  1  0
  3 28  1  0
  4 29  1  0
  4 30  1  0
  8 31  1  0
  8 32  1  0
  9 33  1  0
  9 34  1  0
 10 35  1  0
 10 36  1  0
 11 37  1  1
 12 38  1  0
 12 39  1  0
 14 40  1  0
 15 41  1  0
 16 42  1  0
 19 43  1  0
 20 44  1  0
 22 45  1  0
 23 46  1  0
 24 47  1  0
 25 48  1  0
M  END
>  <smiles>  (41) 
O=C(NCC(=O)N1CCC[C@H]1Cc1c[nH]cn1)c1ccc2ccccc2n1

>  <score_type>  (41) 
oracle

>  <origin>  (41) 
autodockgpu

>  <m_score__min__energy>  (41) 
-8.4499999999999993

>  <m_primary>  (41) 
energy

>  <rmsd>  (41) 
7.502091596616718

>  <m_score__min__rmsd>  (41) 
7.502091596616718

>  <meeko>  (41) 
{"free_energy": -5.92, "intermolecular_energy": -7.71, "internal_energy": -2.75, "cluster_size": 10, "cluster_id": 8, "rank_in_cluster": 8}

>  <energy>  (41) 
-6.81

>  <cluster_rmsd>  (41) 
0.8

>  <cluster>  (41) 
8

$$$$

     RDKit          3D

 48 51  0  0  0  0  0  0  0  0999 V2000
  137.6150   75.8440  222.4600 O   0  0  0  0  0  0  0  0  0  0  0  0
  138.8450   76.0830  222.3980 C   0  0  0  0  0  0  0  0  0  0  0  0
  139.7180   75.0300  222.0530 N   0  0  0  0  0  0  0  0  0  0  0  0
  139.2170   73.6980  221.7740 C   0  0  0  0  0  0  0  0  0  0  0  0
  140.1780   72.6470  222.1360 C   0  0  0  0  0  0  0  0  0  0  0  0
  141.4210   72.7280  221.9820 O   0  0  0  0  0  0  0  0  0  0  0  0
  139.6750   71.4450  222.7010 N   0  0  0  0  0  0  0  0  0  0  0  0
  139.5350   70.1960  221.9910 C   0  0  0  0  0  0  0  0  0  0  0  0
  138.2420   69.6210  222.5210 C   0  0  0  0  0  0  0  0  0  0  0  0
  137.9280   70.4240  223.7780 C   0  0  0  0  0  0  0  0  0  0  0  0
  139.2070   71.1920  224.0580 C   0  0  1  0  0  0  0  0  0  0  0  0
  140.2240   70.3180  224.7660 C   0  0  0  0  0  0  0  0  0  0  0  0
  140.5470   70.8660  226.1030 C   0  0  0  0  0  0  0  0  0  0  0  0
  141.4280   71.8910  226.4310 C   0  0  0  0  0  0  0  0  0  0  0  0
  141.3760   72.0230  227.7740 N   0  0  0  0  0  0  0  0  0  0  0  0
  140.5070   71.1320  228.2920 C   0  0  0  0  0  0  0  0  0  0  0  0
  140.0180   70.4440  227.2610 N   0  0  0  0  0  0  0  0  0  0  0  0
  139.3670   77.4160  222.6760 C   0  0  0  0  0  0  0  0  0  0  0  0
  138.5030   78.4690  222.8740 C   0  0  0  0  0  0  0  0  0  0  0  0
  138.9230   79.7440  223.1380 C   0  0  0  0  0  0  0  0  0  0  0  0
  140.3020   79.9540  223.2030 C   0  0  0  0  0  0  0  0  0  0  0  0
  140.8060   81.2110  223.4650 C   0  0  0  0  0  0  0  0  0  0  0  0
  142.1570   81.4360  223.5340 C   0  0  0  0  0  0  0  0  0  0  0  0
  143.0140   80.3840  223.3350 C   0  0  0  0  0  0  0  0  0  0  0  0
  142.5580   79.1130  223.0720 C   0  0  0  0  0  0  0  0  0  0  0  0
  141.1780   78.8970  223.0050 C   0  0  0  0  0  0  0  0  0  0  0  0
  140.6920   77.6690  222.7490 N   0  0  0  0  0  0  0  0  0  0  0  0
  140.7480   75.2680  222.0110 H   0  0  0  0  0  0  0  0  0  0  0  0
  138.2914   73.5422  222.3476 H   0  0  0  0  0  0  0  0  0  0  0  0
  139.0387   73.6285  220.6908 H   0  0  0  0  0  0  0  0  0  0  0  0
  139.4718   70.3672  220.9062 H   0  0  0  0  0  0  0  0  0  0  0  0
  140.3922   69.5234  222.1418 H   0  0  0  0  0  0  0  0  0  0  0  0
  137.4373   69.7357  221.7799 H   0  0  0  0  0  0  0  0  0  0  0  0
  138.3291   68.5452  222.7335 H   0  0  0  0  0  0  0  0  0  0  0  0
  137.0895   71.1137  223.6011 H   0  0  0  0  0  0  0  0  0  0  0  0
  137.6264   69.7857  224.6215 H   0  0  0  0  0  0  0  0  0  0  0  0
  139.0613   72.0795  224.6914 H   0  0  0  0  0  0  0  0  0  0  0  0
  139.8110   69.3050  224.8814 H   0  0  0  0  0  0  0  0  0  0  0  0
  141.1445   70.2895  224.1645 H   0  0  0  0  0  0  0  0  0  0  0  0
  142.0449   72.4779  225.7345 H   0  0  0  0  0  0  0  0  0  0  0  0
  141.9130   72.6990  228.3370 H   0  0  0  0  0  0  0  0  0  0  0  0
  140.2524   70.9994  229.3539 H   0  0  0  0  0  0  0  0  0  0  0  0
  137.4216   78.2759  222.8172 H   0  0  0  0  0  0  0  0  0  0  0  0
  138.2078   80.5654  223.2919 H   0  0  0  0  0  0  0  0  0  0  0  0
  140.1109   82.0490  223.6216 H   0  0  0  0  0  0  0  0  0  0  0  0
  142.5465   82.4428  223.7453 H   0  0  0  0  0  0  0  0  0  0  0  0
  144.0983   80.5618  223.3872 H   0  0  0  0  0  0  0  0  0  0  0  0
  143.2642   78.2839  222.9176 H   0  0  0  0  0  0  0  0  0  0  0  0
  1  2  2  0
  2  3  1  0
  3  4  1  0
  4  5  1  0
  5  6  2  0
  5  7  1  0
  7  8  1  0
  8  9  1  0
  9 10  1  0
 10 11  1  0
 11 12  1  0
 12 13  1  0
 13 14  2  0
 14 15  1  0
 15 16  1  0
 16 17  2  0
  2 18  1  0
 18 19  2  0
 19 20  1  0
 20 21  2  0
 21 22  1  0
 22 23  2  0
 23 24  1  0
 24 25  2  0
 25 26  1  0
 26 27  2  0
 11  7  1  0
 17 13  1  0
 27 18  1  0
 26 21  1  0
  3 28  1  0
  4 29  1  0
  4 30  1  0
  8 31  1  0
  8 32  1  0
  9 33  1  0
  9 34  1  0
 10 35  1  0
 10 36  1  0
 11 37  1  1
 12 38  1  0
 12 39  1  0
 14 40  1  0
 15 41  1  0
 16 42  1  0
 19 43  1  0
 20 44  1  0
 22 45  1  0
 23 46  1  0
 24 47  1  0
 25 48  1  0
M  END
>  <smiles>  (42) 
O=C(NCC(=O)N1CCC[C@H]1Cc1c[nH]cn1)c1ccc2ccccc2n1

>  <score_type>  (42) 
oracle

>  <origin>  (42) 
autodockgpu

>  <m_score__min__energy>  (42) 
-8.4499999999999993

>  <m_primary>  (42) 
energy

>  <rmsd>  (42) 
8.355625497838968

>  <m_score__min__rmsd>  (42) 
8.355625497838968

>  <meeko>  (42) 
{"free_energy": -7.27, "intermolecular_energy": -9.06, "internal_energy": -1.47, "cluster_size": 4, "cluster_id": 3, "rank_in_cluster": 3}

>  <energy>  (42) 
-6.69

>  <cluster_rmsd>  (42) 
0.74

>  <cluster>  (42) 
8

$$$$

     RDKit          3D

 48 51  0  0  0  0  0  0  0  0999 V2000
  140.3020   70.6200  221.7530 O   0  0  0  0  0  0  0  0  0  0  0  0
  140.0910   71.4260  222.6900 C   0  0  0  0  0  0  0  0  0  0  0  0
  139.7130   72.7460  222.3680 N   0  0  0  0  0  0  0  0  0  0  0  0
  139.5660   73.1730  220.9900 C   0  0  0  0  0  0  0  0  0  0  0  0
  140.8580   73.4340  220.3400 C   0  0  0  0  0  0  0  0  0  0  0  0
  141.5110   72.5910  219.6790 O   0  0  0  0  0  0  0  0  0  0  0  0
  141.4190   74.7330  220.4620 N   0  0  0  0  0  0  0  0  0  0  0  0
  141.2440   75.6020  221.6010 C   0  0  0  0  0  0  0  0  0  0  0  0
  141.1150   76.9780  220.9910 C   0  0  0  0  0  0  0  0  0  0  0  0
  141.6000   76.8300  219.5540 C   0  0  0  0  0  0  0  0  0  0  0  0
  142.2610   75.4640  219.5230 C   0  0  1  0  0  0  0  0  0  0  0  0
  143.6690   75.5260  220.0830 C   0  0  0  0  0  0  0  0  0  0  0  0
  144.3300   74.2040  219.9920 C   0  0  0  0  0  0  0  0  0  0  0  0
  145.0390   73.5200  220.9730 C   0  0  0  0  0  0  0  0  0  0  0  0
  145.4460   72.3610  220.4100 N   0  0  0  0  0  0  0  0  0  0  0  0
  145.0230   72.2960  219.1320 C   0  0  0  0  0  0  0  0  0  0  0  0
  144.3500   73.4230  218.9020 N   0  0  0  0  0  0  0  0  0  0  0  0
  140.2340   71.0160  224.0820 C   0  0  0  0  0  0  0  0  0  0  0  0
  140.7730   71.8820  225.0060 C   0  0  0  0  0  0  0  0  0  0  0  0
  140.9360   71.5640  226.3270 C   0  0  0  0  0  0  0  0  0  0  0  0
  140.5250   70.2900  226.7240 C   0  0  0  0  0  0  0  0  0  0  0  0
  140.6570   69.8920  228.0380 C   0  0  0  0  0  0  0  0  0  0  0  0
  140.2590   68.6450  228.4480 C   0  0  0  0  0  0  0  0  0  0  0  0
  139.7230   67.7850  227.5230 C   0  0  0  0  0  0  0  0  0  0  0  0
  139.5720   68.1380  226.2020 C   0  0  0  0  0  0  0  0  0  0  0  0
  139.9820   69.4120  225.7980 C   0  0  0  0  0  0  0  0  0  0  0  0
  139.8520   69.7950  224.5150 N   0  0  0  0  0  0  0  0  0  0  0  0
  139.5440   73.3990  223.1840 H   0  0  0  0  0  0  0  0  0  0  0  0
  139.0427   72.3838  220.4302 H   0  0  0  0  0  0  0  0  0  0  0  0
  138.9966   74.1142  220.9910 H   0  0  0  0  0  0  0  0  0  0  0  0
  140.3355   75.3353  222.1610 H   0  0  0  0  0  0  0  0  0  0  0  0
  142.0740   75.5323  222.3195 H   0  0  0  0  0  0  0  0  0  0  0  0
  140.0669   77.3113  221.0112 H   0  0  0  0  0  0  0  0  0  0  0  0
  141.6990   77.7277  221.5450 H   0  0  0  0  0  0  0  0  0  0  0  0
  140.7550   76.8706  218.8509 H   0  0  0  0  0  0  0  0  0  0  0  0
  142.2856   77.6367  219.2555 H   0  0  0  0  0  0  0  0  0  0  0  0
  142.3437   75.0349  218.5135 H   0  0  0  0  0  0  0  0  0  0  0  0
  144.2529   76.2613  219.5100 H   0  0  0  0  0  0  0  0  0  0  0  0
  143.6148   75.8209  221.1413 H   0  0  0  0  0  0  0  0  0  0  0  0
  145.2306   73.8556  222.0029 H   0  0  0  0  0  0  0  0  0  0  0  0
  145.9980   71.6240  220.8720 H   0  0  0  0  0  0  0  0  0  0  0  0
  145.1984   71.4758  218.4203 H   0  0  0  0  0  0  0  0  0  0  0  0
  141.0884   72.8794  224.6657 H   0  0  0  0  0  0  0  0  0  0  0  0
  141.3702   72.2782  227.0421 H   0  0  0  0  0  0  0  0  0  0  0  0
  141.0899   70.5882  228.7714 H   0  0  0  0  0  0  0  0  0  0  0  0
  140.3676   68.3400  229.4993 H   0  0  0  0  0  0  0  0  0  0  0  0
  139.4045   66.7833  227.8474 H   0  0  0  0  0  0  0  0  0  0  0  0
  139.1376   67.4324  225.4785 H   0  0  0  0  0  0  0  0  0  0  0  0
  1  2  2  0
  2  3  1  0
  3  4  1  0
  4  5  1  0
  5  6  2  0
  5  7  1  0
  7  8  1  0
  8  9  1  0
  9 10  1  0
 10 11  1  0
 11 12  1  0
 12 13  1  0
 13 14  2  0
 14 15  1  0
 15 16  1  0
 16 17  2  0
  2 18  1  0
 18 19  2  0
 19 20  1  0
 20 21  2  0
 21 22  1  0
 22 23  2  0
 23 24  1  0
 24 25  2  0
 25 26  1  0
 26 27  2  0
 11  7  1  0
 17 13  1  0
 27 18  1  0
 26 21  1  0
  3 28  1  0
  4 29  1  0
  4 30  1  0
  8 31  1  0
  8 32  1  0
  9 33  1  0
  9 34  1  0
 10 35  1  0
 10 36  1  0
 11 37  1  6
 12 38  1  0
 12 39  1  0
 14 40  1  0
 15 41  1  0
 16 42  1  0
 19 43  1  0
 20 44  1  0
 22 45  1  0
 23 46  1  0
 24 47  1  0
 25 48  1  0
M  END
>  <smiles>  (43) 
O=C(NCC(=O)N1CCC[C@H]1Cc1c[nH]cn1)c1ccc2ccccc2n1

>  <score_type>  (43) 
oracle

>  <origin>  (43) 
autodockgpu

>  <m_score__min__energy>  (43) 
-8.4499999999999993

>  <m_primary>  (43) 
energy

>  <rmsd>  (43) 
3.087280056409591

>  <m_score__min__rmsd>  (43) 
3.087280056409591

>  <meeko>  (43) 
{"free_energy": -7.57, "intermolecular_energy": -9.36, "internal_energy": -1.28, "cluster_size": 14, "cluster_id": 1, "rank_in_cluster": 13}

>  <energy>  (43) 
-6.31

>  <cluster_rmsd>  (43) 
0.89

>  <cluster>  (43) 
8

$$$$

     RDKit          3D

 48 51  0  0  0  0  0  0  0  0999 V2000
  140.9800   71.5080  221.4220 O   0  0  0  0  0  0  0  0  0  0  0  0
  140.4390   72.0340  222.4250 C   0  0  0  0  0  0  0  0  0  0  0  0
  140.0200   73.3780  222.3340 N   0  0  0  0  0  0  0  0  0  0  0  0
  140.2040   74.1440  221.1160 C   0  0  0  0  0  0  0  0  0  0  0  0
  140.2940   75.5890  221.3660 C   0  0  0  0  0  0  0  0  0  0  0  0
  139.9310   76.1570  222.4250 O   0  0  0  0  0  0  0  0  0  0  0  0
  140.8280   76.4150  220.3420 N   0  0  0  0  0  0  0  0  0  0  0  0
  140.2110   76.6350  219.0550 C   0  0  0  0  0  0  0  0  0  0  0  0
  141.3770   76.6770  218.0960 C   0  0  0  0  0  0  0  0  0  0  0  0
  142.6140   76.8450  218.9700 C   0  0  0  0  0  0  0  0  0  0  0  0
  142.0580   77.1970  220.3380 C   0  0  1  0  0  0  0  0  0  0  0  0
  141.6960   78.6680  220.4170 C   0  0  0  0  0  0  0  0  0  0  0  0
  141.8950   79.1850  221.7910 C   0  0  0  0  0  0  0  0  0  0  0  0
  141.4680   78.6350  222.9950 C   0  0  0  0  0  0  0  0  0  0  0  0
  141.8920   79.4720  223.9660 N   0  0  0  0  0  0  0  0  0  0  0  0
  142.5590   80.5100  223.4230 C   0  0  0  0  0  0  0  0  0  0  0  0
  142.5480   80.3130  222.1050 N   0  0  0  0  0  0  0  0  0  0  0  0
  140.2460   71.2810  223.6580 C   0  0  0  0  0  0  0  0  0  0  0  0
  139.5850   70.0740  223.6340 C   0  0  0  0  0  0  0  0  0  0  0  0
  139.3690   69.3150  224.7510 C   0  0  0  0  0  0  0  0  0  0  0  0
  139.8550   69.8180  225.9600 C   0  0  0  0  0  0  0  0  0  0  0  0
  139.6770   69.1130  227.1320 C   0  0  0  0  0  0  0  0  0  0  0  0
  140.1470   69.5900  228.3280 C   0  0  0  0  0  0  0  0  0  0  0  0
  140.8050   70.7940  228.3480 C   0  0  0  0  0  0  0  0  0  0  0  0
  141.0060   71.5320  227.2040 C   0  0  0  0  0  0  0  0  0  0  0  0
  140.5210   71.0340  225.9910 C   0  0  0  0  0  0  0  0  0  0  0  0
  140.6970   71.7260  224.8510 N   0  0  0  0  0  0  0  0  0  0  0  0
  139.5680   73.7890  223.1980 H   0  0  0  0  0  0  0  0  0  0  0  0
  141.1323   73.8123  220.6280 H   0  0  0  0  0  0  0  0  0  0  0  0
  139.3256   73.9703  220.4771 H   0  0  0  0  0  0  0  0  0  0  0  0
  139.5265   75.8115  218.8032 H   0  0  0  0  0  0  0  0  0  0  0  0
  139.6047   77.5524  219.0263 H   0  0  0  0  0  0  0  0  0  0  0  0
  141.4363   75.7411  217.5210 H   0  0  0  0  0  0  0  0  0  0  0  0
  141.2775   77.4943  217.3665 H   0  0  0  0  0  0  0  0  0  0  0  0
  143.1917   75.9099  219.0124 H   0  0  0  0  0  0  0  0  0  0  0  0
  143.3015   77.6122  218.5843 H   0  0  0  0  0  0  0  0  0  0  0  0
  142.7572   77.0005  221.1641 H   0  0  0  0  0  0  0  0  0  0  0  0
  142.3340   79.2343  219.7225 H   0  0  0  0  0  0  0  0  0  0  0  0
  140.6365   78.7857  220.1457 H   0  0  0  0  0  0  0  0  0  0  0  0
  140.8983   77.7036  223.1294 H   0  0  0  0  0  0  0  0  0  0  0  0
  141.7380   79.3520  224.9780 H   0  0  0  0  0  0  0  0  0  0  0  0
  143.0203   81.3516  223.9605 H   0  0  0  0  0  0  0  0  0  0  0  0
  139.2120   69.7014  222.6686 H   0  0  0  0  0  0  0  0  0  0  0  0
  138.8374   68.3534  224.6997 H   0  0  0  0  0  0  0  0  0  0  0  0
  139.1475   68.1491  227.1064 H   0  0  0  0  0  0  0  0  0  0  0  0
  139.9993   69.0176  229.2556 H   0  0  0  0  0  0  0  0  0  0  0  0
  141.1827   71.1804  229.3061 H   0  0  0  0  0  0  0  0  0  0  0  0
  141.5375   72.4943  227.2431 H   0  0  0  0  0  0  0  0  0  0  0  0
  1  2  2  0
  2  3  1  0
  3  4  1  0
  4  5  1  0
  5  6  2  0
  5  7  1  0
  7  8  1  0
  8  9  1  0
  9 10  1  0
 10 11  1  0
 11 12  1  0
 12 13  1  0
 13 14  2  0
 14 15  1  0
 15 16  1  0
 16 17  2  0
  2 18  1  0
 18 19  2  0
 19 20  1  0
 20 21  2  0
 21 22  1  0
 22 23  2  0
 23 24  1  0
 24 25  2  0
 25 26  1  0
 26 27  2  0
 11  7  1  0
 17 13  1  0
 27 18  1  0
 26 21  1  0
  3 28  1  0
  4 29  1  0
  4 30  1  0
  8 31  1  0
  8 32  1  0
  9 33  1  0
  9 34  1  0
 10 35  1  0
 10 36  1  0
 11 37  1  1
 12 38  1  0
 12 39  1  0
 14 40  1  0
 15 41  1  0
 16 42  1  0
 19 43  1  0
 20 44  1  0
 22 45  1  0
 23 46  1  0
 24 47  1  0
 25 48  1  0
M  END
>  <smiles>  (44) 
O=C(NCC(=O)N1CCC[C@H]1Cc1c[nH]cn1)c1ccc2ccccc2n1

>  <score_type>  (44) 
oracle

>  <origin>  (44) 
autodockgpu

>  <m_score__min__energy>  (44) 
-8.4499999999999993

>  <m_primary>  (44) 
energy

>  <rmsd>  (44) 
1.6299373071735879

>  <m_score__min__rmsd>  (44) 
1.6299373071735879

>  <meeko>  (44) 
{"free_energy": -7.76, "intermolecular_energy": -9.55, "internal_energy": -1.35, "cluster_size": 10, "cluster_id": 2, "rank_in_cluster": 5}

>  <energy>  (44) 
-6.19

>  <cluster_rmsd>  (44) 
1.39

>  <cluster>  (44) 
8

$$$$

     RDKit          3D

 48 51  0  0  0  0  0  0  0  0999 V2000
  141.4290   72.2810  221.8130 O   0  0  0  0  0  0  0  0  0  0  0  0
  140.4270   72.4260  222.5540 C   0  0  0  0  0  0  0  0  0  0  0  0
  139.4980   73.4390  222.2380 N   0  0  0  0  0  0  0  0  0  0  0  0
  139.6860   74.3000  221.0850 C   0  0  0  0  0  0  0  0  0  0  0  0
  140.6070   75.4120  221.3560 C   0  0  0  0  0  0  0  0  0  0  0  0
  140.7630   75.9570  222.4750 O   0  0  0  0  0  0  0  0  0  0  0  0
  141.3830   75.9180  220.2790 N   0  0  0  0  0  0  0  0  0  0  0  0
  141.4070   77.2980  219.8580 C   0  0  0  0  0  0  0  0  0  0  0  0
  141.4830   77.2160  218.3510 C   0  0  0  0  0  0  0  0  0  0  0  0
  141.8710   75.7760  218.0440 C   0  0  0  0  0  0  0  0  0  0  0  0
  142.2920   75.2090  219.3870 C   0  0  1  0  0  0  0  0  0  0  0  0
  143.7140   75.6110  219.7270 C   0  0  0  0  0  0  0  0  0  0  0  0
  144.4370   74.4910  220.3720 C   0  0  0  0  0  0  0  0  0  0  0  0
  143.9940   73.1940  220.6080 C   0  0  0  0  0  0  0  0  0  0  0  0
  145.0120   72.5490  221.2180 N   0  0  0  0  0  0  0  0  0  0  0  0
  146.0610   73.3820  221.3700 C   0  0  0  0  0  0  0  0  0  0  0  0
  145.6890   74.5510  220.8500 N   0  0  0  0  0  0  0  0  0  0  0  0
  140.2220   71.5710  223.7160 C   0  0  0  0  0  0  0  0  0  0  0  0
  139.5310   70.3870  223.5910 C   0  0  0  0  0  0  0  0  0  0  0  0
  139.3010   69.5370  224.6380 C   0  0  0  0  0  0  0  0  0  0  0  0
  139.8060   69.9200  225.8830 C   0  0  0  0  0  0  0  0  0  0  0  0
  139.6170   69.1180  226.9890 C   0  0  0  0  0  0  0  0  0  0  0  0
  140.1050   69.4750  228.2200 C   0  0  0  0  0  0  0  0  0  0  0  0
  140.7920   70.6560  228.3410 C   0  0  0  0  0  0  0  0  0  0  0  0
  141.0060   71.4880  227.2650 C   0  0  0  0  0  0  0  0  0  0  0  0
  140.5020   71.1110  226.0170 C   0  0  0  0  0  0  0  0  0  0  0  0
  140.6900   71.8970  224.9410 N   0  0  0  0  0  0  0  0  0  0  0  0
  138.6660   73.5330  222.8840 H   0  0  0  0  0  0  0  0  0  0  0  0
  140.0928   73.6987  220.2586 H   0  0  0  0  0  0  0  0  0  0  0  0
  138.7076   74.7321  220.8281 H   0  0  0  0  0  0  0  0  0  0  0  0
  140.4927   77.8203  220.1761 H   0  0  0  0  0  0  0  0  0  0  0  0
  142.2448   77.8608  220.2954 H   0  0  0  0  0  0  0  0  0  0  0  0
  140.5075   77.4558  217.9027 H   0  0  0  0  0  0  0  0  0  0  0  0
  142.2086   77.9323  217.9382 H   0  0  0  0  0  0  0  0  0  0  0  0
  141.0139   75.2194  217.6370 H   0  0  0  0  0  0  0  0  0  0  0  0
  142.6679   75.7064  217.2890 H   0  0  0  0  0  0  0  0  0  0  0  0
  142.2562   74.1106  219.4347 H   0  0  0  0  0  0  0  0  0  0  0  0
  144.2392   75.8949  218.8031 H   0  0  0  0  0  0  0  0  0  0  0  0
  143.6830   76.4598  220.4260 H   0  0  0  0  0  0  0  0  0  0  0  0
  143.0098   72.7763  220.3492 H   0  0  0  0  0  0  0  0  0  0  0  0
  145.0070   71.5670  221.5290 H   0  0  0  0  0  0  0  0  0  0  0  0
  147.0308   73.1440  221.8314 H   0  0  0  0  0  0  0  0  0  0  0  0
  139.1442   70.1103  222.5991 H   0  0  0  0  0  0  0  0  0  0  0  0
  138.7451   68.5971  224.5059 H   0  0  0  0  0  0  0  0  0  0  0  0
  139.0639   68.1733  226.8816 H   0  0  0  0  0  0  0  0  0  0  0  0
  139.9483   68.8261  229.0943 H   0  0  0  0  0  0  0  0  0  0  0  0
  141.1836   70.9470  229.3269 H   0  0  0  0  0  0  0  0  0  0  0  0
  141.5619   72.4296  227.3850 H   0  0  0  0  0  0  0  0  0  0  0  0
  1  2  2  0
  2  3  1  0
  3  4  1  0
  4  5  1  0
  5  6  2  0
  5  7  1  0
  7  8  1  0
  8  9  1  0
  9 10  1  0
 10 11  1  0
 11 12  1  0
 12 13  1  0
 13 14  2  0
 14 15  1  0
 15 16  1  0
 16 17  2  0
  2 18  1  0
 18 19  2  0
 19 20  1  0
 20 21  2  0
 21 22  1  0
 22 23  2  0
 23 24  1  0
 24 25  2  0
 25 26  1  0
 26 27  2  0
 11  7  1  0
 17 13  1  0
 27 18  1  0
 26 21  1  0
  3 28  1  0
  4 29  1  0
  4 30  1  0
  8 31  1  0
  8 32  1  0
  9 33  1  0
  9 34  1  0
 10 35  1  0
 10 36  1  0
 11 37  1  6
 12 38  1  0
 12 39  1  0
 14 40  1  0
 15 41  1  0
 16 42  1  0
 19 43  1  0
 20 44  1  0
 22 45  1  0
 23 46  1  0
 24 47  1  0
 25 48  1  0
M  END
>  <smiles>  (45) 
O=C(NCC(=O)N1CCC[C@H]1Cc1c[nH]cn1)c1ccc2ccccc2n1

>  <score_type>  (45) 
oracle

>  <origin>  (45) 
autodockgpu

>  <m_score__min__energy>  (45) 
-8.4499999999999993

>  <m_primary>  (45) 
energy

>  <rmsd>  (45) 
2.0234448695904566

>  <m_score__min__rmsd>  (45) 
2.0234448695904566

>  <meeko>  (45) 
{"free_energy": -8.3, "intermolecular_energy": -10.09, "internal_energy": -1.34, "cluster_size": 14, "cluster_id": 1, "rank_in_cluster": 4}

>  <energy>  (45) 
-6.18

>  <cluster_rmsd>  (45) 
1.51

>  <cluster>  (45) 
8

$$$$

     RDKit          3D

 48 51  0  0  0  0  0  0  0  0999 V2000
  140.0560   70.9300  221.3690 O   0  0  0  0  0  0  0  0  0  0  0  0
  139.9290   71.5200  222.4700 C   0  0  0  0  0  0  0  0  0  0  0  0
  139.7980   72.9240  222.4680 N   0  0  0  0  0  0  0  0  0  0  0  0
  139.8090   73.6800  221.2310 C   0  0  0  0  0  0  0  0  0  0  0  0
  140.4950   74.9730  221.3650 C   0  0  0  0  0  0  0  0  0  0  0  0
  140.3990   75.7350  222.3570 O   0  0  0  0  0  0  0  0  0  0  0  0
  141.3310   75.4020  220.3000 N   0  0  0  0  0  0  0  0  0  0  0  0
  141.7950   74.5580  219.2250 C   0  0  0  0  0  0  0  0  0  0  0  0
  143.2110   75.0230  218.9840 C   0  0  0  0  0  0  0  0  0  0  0  0
  143.3250   76.3610  219.7030 C   0  0  0  0  0  0  0  0  0  0  0  0
  141.8910   76.7230  220.0450 C   0  0  1  0  0  0  0  0  0  0  0  0
  141.1810   77.3270  218.8490 C   0  0  0  0  0  0  0  0  0  0  0  0
  141.7510   78.6520  218.5140 C   0  0  0  0  0  0  0  0  0  0  0  0
  142.6030   78.9900  217.4680 C   0  0  0  0  0  0  0  0  0  0  0  0
  142.8410   80.3150  217.5840 N   0  0  0  0  0  0  0  0  0  0  0  0
  142.1780   80.8110  218.6470 C   0  0  0  0  0  0  0  0  0  0  0  0
  141.5260   79.7860  219.1930 N   0  0  0  0  0  0  0  0  0  0  0  0
  139.9160   70.7760  223.7240 C   0  0  0  0  0  0  0  0  0  0  0  0
  139.3360   69.5300  223.7830 C   0  0  0  0  0  0  0  0  0  0  0  0
  139.2890   68.7780  224.9250 C   0  0  0  0  0  0  0  0  0  0  0  0
  139.8660   69.3320  226.0700 C   0  0  0  0  0  0  0  0  0  0  0  0
  139.8590   68.6370  227.2610 C   0  0  0  0  0  0  0  0  0  0  0  0
  140.4200   69.1630  228.3950 C   0  0  0  0  0  0  0  0  0  0  0  0
  140.9970   70.4070  228.3320 C   0  0  0  0  0  0  0  0  0  0  0  0
  141.0280   71.1360  227.1660 C   0  0  0  0  0  0  0  0  0  0  0  0
  140.4510   70.5870  226.0170 C   0  0  0  0  0  0  0  0  0  0  0  0
  140.4610   71.2690  224.8580 N   0  0  0  0  0  0  0  0  0  0  0  0
  139.6930   73.3870  223.4140 H   0  0  0  0  0  0  0  0  0  0  0  0
  140.3227   73.0868  220.4601 H   0  0  0  0  0  0  0  0  0  0  0  0
  138.7637   73.8843  220.9560 H   0  0  0  0  0  0  0  0  0  0  0  0
  141.7760   73.4992  219.5226 H   0  0  0  0  0  0  0  0  0  0  0  0
  141.1655   74.6313  218.3260 H   0  0  0  0  0  0  0  0  0  0  0  0
  143.9293   74.3006  219.3990 H   0  0  0  0  0  0  0  0  0  0  0  0
  143.4345   75.1148  217.9109 H   0  0  0  0  0  0  0  0  0  0  0  0
  143.9310   76.2630  220.6158 H   0  0  0  0  0  0  0  0  0  0  0  0
  143.8185   77.1287  219.0889 H   0  0  0  0  0  0  0  0  0  0  0  0
  141.8011   77.4518  220.8640 H   0  0  0  0  0  0  0  0  0  0  0  0
  141.2954   76.6561  217.9848 H   0  0  0  0  0  0  0  0  0  0  0  0
  140.1168   77.4531  219.0970 H   0  0  0  0  0  0  0  0  0  0  0  0
  143.0035   78.3131  216.6990 H   0  0  0  0  0  0  0  0  0  0  0  0
  143.4370   80.8790  216.9610 H   0  0  0  0  0  0  0  0  0  0  0  0
  142.1757   81.8546  218.9946 H   0  0  0  0  0  0  0  0  0  0  0  0
  138.8879   69.1179  222.8668 H   0  0  0  0  0  0  0  0  0  0  0  0
  138.8188   67.7837  224.9407 H   0  0  0  0  0  0  0  0  0  0  0  0
  139.3940   67.6409  227.3014 H   0  0  0  0  0  0  0  0  0  0  0  0
  140.4082   68.5985  229.3391 H   0  0  0  0  0  0  0  0  0  0  0  0
  141.4477   70.8332  229.2404 H   0  0  0  0  0  0  0  0  0  0  0  0
  141.4972   72.1305  227.1382 H   0  0  0  0  0  0  0  0  0  0  0  0
  1  2  2  0
  2  3  1  0
  3  4  1  0
  4  5  1  0
  5  6  2  0
  5  7  1  0
  7  8  1  0
  8  9  1  0
  9 10  1  0
 10 11  1  0
 11 12  1  0
 12 13  1  0
 13 14  2  0
 14 15  1  0
 15 16  1  0
 16 17  2  0
  2 18  1  0
 18 19  2  0
 19 20  1  0
 20 21  2  0
 21 22  1  0
 22 23  2  0
 23 24  1  0
 24 25  2  0
 25 26  1  0
 26 27  2  0
 11  7  1  0
 17 13  1  0
 27 18  1  0
 26 21  1  0
  3 28  1  0
  4 29  1  0
  4 30  1  0
  8 31  1  0
  8 32  1  0
  9 33  1  0
  9 34  1  0
 10 35  1  0
 10 36  1  0
 11 37  1  1
 12 38  1  0
 12 39  1  0
 14 40  1  0
 15 41  1  0
 16 42  1  0
 19 43  1  0
 20 44  1  0
 22 45  1  0
 23 46  1  0
 24 47  1  0
 25 48  1  0
M  END
>  <smiles>  (46) 
O=C(NCC(=O)N1CCC[C@H]1Cc1c[nH]cn1)c1ccc2ccccc2n1

>  <score_type>  (46) 
oracle

>  <origin>  (46) 
autodockgpu

>  <m_score__min__energy>  (46) 
-8.4499999999999993

>  <m_primary>  (46) 
energy

>  <rmsd>  (46) 
1.9036733234181515

>  <m_score__min__rmsd>  (46) 
1.9036733234181515

>  <meeko>  (46) 
{"free_energy": -7.5, "intermolecular_energy": -9.28, "internal_energy": -1.33, "cluster_size": 3, "cluster_id": 5, "rank_in_cluster": 3}

>  <energy>  (46) 
-5.92

>  <cluster_rmsd>  (46) 
1.46

>  <cluster>  (46) 
8

$$$$

     RDKit          3D

 48 51  0  0  0  0  0  0  0  0999 V2000
  141.0060   72.2110  221.3680 O   0  0  0  0  0  0  0  0  0  0  0  0
  140.2870   72.5950  222.3210 C   0  0  0  0  0  0  0  0  0  0  0  0
  139.6660   73.8580  222.2280 N   0  0  0  0  0  0  0  0  0  0  0  0
  139.8450   74.7010  221.0620 C   0  0  0  0  0  0  0  0  0  0  0  0
  141.0590   75.5250  221.1430 C   0  0  0  0  0  0  0  0  0  0  0  0
  142.2230   75.1110  220.9250 O   0  0  0  0  0  0  0  0  0  0  0  0
  140.9180   76.8940  221.4960 N   0  0  0  0  0  0  0  0  0  0  0  0
  141.2910   78.0050  220.6530 C   0  0  0  0  0  0  0  0  0  0  0  0
  141.8670   79.0140  221.6170 C   0  0  0  0  0  0  0  0  0  0  0  0
  141.4370   78.5440  223.0000 C   0  0  0  0  0  0  0  0  0  0  0  0
  140.3910   77.4790  222.7230 C   0  0  1  0  0  0  0  0  0  0  0  0
  139.0430   78.1040  222.4210 C   0  0  0  0  0  0  0  0  0  0  0  0
  137.9990   77.0620  222.2890 C   0  0  0  0  0  0  0  0  0  0  0  0
  136.9720   76.9770  221.3540 C   0  0  0  0  0  0  0  0  0  0  0  0
  136.2860   75.8510  221.6440 N   0  0  0  0  0  0  0  0  0  0  0  0
  136.8370   75.2360  222.7100 C   0  0  0  0  0  0  0  0  0  0  0  0
  137.8720   75.9880  223.0820 N   0  0  0  0  0  0  0  0  0  0  0  0
  140.0950   71.7610  223.5010 C   0  0  0  0  0  0  0  0  0  0  0  0
  139.3220   70.6250  223.4270 C   0  0  0  0  0  0  0  0  0  0  0  0
  139.1000   69.7970  224.4930 C   0  0  0  0  0  0  0  0  0  0  0  0
  139.7000   70.1520  225.7030 C   0  0  0  0  0  0  0  0  0  0  0  0
  139.5230   69.3700  226.8250 C   0  0  0  0  0  0  0  0  0  0  0  0
  140.1040   69.7020  228.0220 C   0  0  0  0  0  0  0  0  0  0  0  0
  140.8730   70.8360  228.0930 C   0  0  0  0  0  0  0  0  0  0  0  0
  141.0770   71.6460  227.0000 C   0  0  0  0  0  0  0  0  0  0  0  0
  140.4780   71.2960  225.7860 C   0  0  0  0  0  0  0  0  0  0  0  0
  140.6530   72.0630  224.6940 N   0  0  0  0  0  0  0  0  0  0  0  0
  139.0670   74.1490  223.0500 H   0  0  0  0  0  0  0  0  0  0  0  0
  139.9128   74.0600  220.1706 H   0  0  0  0  0  0  0  0  0  0  0  0
  138.9827   75.3817  221.0068 H   0  0  0  0  0  0  0  0  0  0  0  0
  142.0433   77.6984  219.9114 H   0  0  0  0  0  0  0  0  0  0  0  0
  140.4431   78.4042  220.0770 H   0  0  0  0  0  0  0  0  0  0  0  0
  142.9642   79.0352  221.5418 H   0  0  0  0  0  0  0  0  0  0  0  0
  141.5122   80.0329  221.4028 H   0  0  0  0  0  0  0  0  0  0  0  0
  142.2896   78.1196  223.5504 H   0  0  0  0  0  0  0  0  0  0  0  0
  141.0488   79.3641  223.6218 H   0  0  0  0  0  0  0  0  0  0  0  0
  140.2335   76.7837  223.5607 H   0  0  0  0  0  0  0  0  0  0  0  0
  138.7702   78.7864  223.2395 H   0  0  0  0  0  0  0  0  0  0  0  0
  139.1141   78.6548  221.4715 H   0  0  0  0  0  0  0  0  0  0  0  0
  136.7610   77.6864  220.5402 H   0  0  0  0  0  0  0  0  0  0  0  0
  135.4610   75.4970  221.1380 H   0  0  0  0  0  0  0  0  0  0  0  0
  136.4993   74.3000  223.1790 H   0  0  0  0  0  0  0  0  0  0  0  0
  138.8594   70.3699  222.4622 H   0  0  0  0  0  0  0  0  0  0  0  0
  138.4783   68.8942  224.4014 H   0  0  0  0  0  0  0  0  0  0  0  0
  138.9042   68.4630  226.7586 H   0  0  0  0  0  0  0  0  0  0  0  0
  139.9560   69.0699  228.9100 H   0  0  0  0  0  0  0  0  0  0  0  0
  141.3400   71.1053  229.0518 H   0  0  0  0  0  0  0  0  0  0  0  0
  141.6984   72.5502  227.0794 H   0  0  0  0  0  0  0  0  0  0  0  0
  1  2  2  0
  2  3  1  0
  3  4  1  0
  4  5  1  0
  5  6  2  0
  5  7  1  0
  7  8  1  0
  8  9  1  0
  9 10  1  0
 10 11  1  0
 11 12  1  0
 12 13  1  0
 13 14  2  0
 14 15  1  0
 15 16  1  0
 16 17  2  0
  2 18  1  0
 18 19  2  0
 19 20  1  0
 20 21  2  0
 21 22  1  0
 22 23  2  0
 23 24  1  0
 24 25  2  0
 25 26  1  0
 26 27  2  0
 11  7  1  0
 17 13  1  0
 27 18  1  0
 26 21  1  0
  3 28  1  0
  4 29  1  0
  4 30  1  0
  8 31  1  0
  8 32  1  0
  9 33  1  0
  9 34  1  0
 10 35  1  0
 10 36  1  0
 11 37  1  1
 12 38  1  0
 12 39  1  0
 14 40  1  0
 15 41  1  0
 16 42  1  0
 19 43  1  0
 20 44  1  0
 22 45  1  0
 23 46  1  0
 24 47  1  0
 25 48  1  0
M  END
>  <smiles>  (47) 
O=C(NCC(=O)N1CCC[C@H]1Cc1c[nH]cn1)c1ccc2ccccc2n1

>  <score_type>  (47) 
oracle

>  <origin>  (47) 
autodockgpu

>  <m_score__min__energy>  (47) 
-8.4499999999999993

>  <m_primary>  (47) 
energy

>  <rmsd>  (47) 
2.9100144747634973

>  <m_score__min__rmsd>  (47) 
2.9100144747634973

>  <meeko>  (47) 
{"free_energy": -7.07, "intermolecular_energy": -8.86, "internal_energy": -1.99, "cluster_size": 4, "cluster_id": 6, "rank_in_cluster": 4}

>  <energy>  (47) 
-5.76

>  <cluster_rmsd>  (47) 
1.66

>  <cluster>  (47) 
8

$$$$

     RDKit          3D

 48 51  0  0  0  0  0  0  0  0999 V2000
  141.3800   72.2750  221.5730 O   0  0  0  0  0  0  0  0  0  0  0  0
  140.4330   72.4620  222.3740 C   0  0  0  0  0  0  0  0  0  0  0  0
  139.5640   73.5490  222.1460 N   0  0  0  0  0  0  0  0  0  0  0  0
  139.7500   74.4370  221.0130 C   0  0  0  0  0  0  0  0  0  0  0  0
  140.7730   75.4610  221.2620 C   0  0  0  0  0  0  0  0  0  0  0  0
  141.4270   75.5780  222.3280 O   0  0  0  0  0  0  0  0  0  0  0  0
  141.0520   76.3950  220.2290 N   0  0  0  0  0  0  0  0  0  0  0  0
  140.2330   76.5970  219.0580 C   0  0  0  0  0  0  0  0  0  0  0  0
  141.2340   76.8300  217.9510 C   0  0  0  0  0  0  0  0  0  0  0  0
  142.5560   77.1110  218.6550 C   0  0  0  0  0  0  0  0  0  0  0  0
  142.1670   77.3260  220.1060 C   0  0  1  0  0  0  0  0  0  0  0  0
  141.6490   78.7330  220.3290 C   0  0  0  0  0  0  0  0  0  0  0  0
  141.8570   79.1530  221.7340 C   0  0  0  0  0  0  0  0  0  0  0  0
  141.3700   78.5650  222.8960 C   0  0  0  0  0  0  0  0  0  0  0  0
  141.8320   79.3110  223.9230 N   0  0  0  0  0  0  0  0  0  0  0  0
  142.5780   80.3300  223.4540 C   0  0  0  0  0  0  0  0  0  0  0  0
  142.5790   80.2130  222.1260 N   0  0  0  0  0  0  0  0  0  0  0  0
  140.2310   71.5810  223.5180 C   0  0  0  0  0  0  0  0  0  0  0  0
  139.5410   70.3990  223.3670 C   0  0  0  0  0  0  0  0  0  0  0  0
  139.3140   69.5260  224.3950 C   0  0  0  0  0  0  0  0  0  0  0  0
  139.8200   69.8810  225.6470 C   0  0  0  0  0  0  0  0  0  0  0  0
  139.6330   69.0540  226.7350 C   0  0  0  0  0  0  0  0  0  0  0  0
  140.1220   69.3840  227.9730 C   0  0  0  0  0  0  0  0  0  0  0  0
  140.8090   70.5630  228.1190 C   0  0  0  0  0  0  0  0  0  0  0  0
  141.0200   71.4190  227.0630 C   0  0  0  0  0  0  0  0  0  0  0  0
  140.5150   71.0690  225.8070 C   0  0  0  0  0  0  0  0  0  0  0  0
  140.7000   71.8800  224.7490 N   0  0  0  0  0  0  0  0  0  0  0  0
  138.7770   73.6760  222.8410 H   0  0  0  0  0  0  0  0  0  0  0  0
  140.0550   73.8383  220.1421 H   0  0  0  0  0  0  0  0  0  0  0  0
  138.7960   74.9546  220.8343 H   0  0  0  0  0  0  0  0  0  0  0  0
  139.6201   75.7074  218.8507 H   0  0  0  0  0  0  0  0  0  0  0  0
  139.5259   77.4317  219.1734 H   0  0  0  0  0  0  0  0  0  0  0  0
  141.3189   75.9369  217.3144 H   0  0  0  0  0  0  0  0  0  0  0  0
  140.9341   77.6612  217.2959 H   0  0  0  0  0  0  0  0  0  0  0  0
  143.2397   76.2549  218.5572 H   0  0  0  0  0  0  0  0  0  0  0  0
  143.0851   77.9758  218.2281 H   0  0  0  0  0  0  0  0  0  0  0  0
  142.9970   77.1816  220.8134 H   0  0  0  0  0  0  0  0  0  0  0  0
  142.1852   79.4247  219.6626 H   0  0  0  0  0  0  0  0  0  0  0  0
  140.5709   78.7506  220.1114 H   0  0  0  0  0  0  0  0  0  0  0  0
  140.7345   77.6698  222.9653 H   0  0  0  0  0  0  0  0  0  0  0  0
  141.6510   79.1420  224.9230 H   0  0  0  0  0  0  0  0  0  0  0  0
  143.0852   81.1043  224.0483 H   0  0  0  0  0  0  0  0  0  0  0  0
  139.1530   70.1442  222.3698 H   0  0  0  0  0  0  0  0  0  0  0  0
  138.7590   68.5885  224.2427 H   0  0  0  0  0  0  0  0  0  0  0  0
  139.0808   68.1113  226.6071 H   0  0  0  0  0  0  0  0  0  0  0  0
  139.9664   68.7161  228.8330 H   0  0  0  0  0  0  0  0  0  0  0  0
  141.2028   70.8317  229.1103 H   0  0  0  0  0  0  0  0  0  0  0  0
  141.5742   72.3587  227.2037 H   0  0  0  0  0  0  0  0  0  0  0  0
  1  2  2  0
  2  3  1  0
  3  4  1  0
  4  5  1  0
  5  6  2  0
  5  7  1  0
  7  8  1  0
  8  9  1  0
  9 10  1  0
 10 11  1  0
 11 12  1  0
 12 13  1  0
 13 14  2  0
 14 15  1  0
 15 16  1  0
 16 17  2  0
  2 18  1  0
 18 19  2  0
 19 20  1  0
 20 21  2  0
 21 22  1  0
 22 23  2  0
 23 24  1  0
 24 25  2  0
 25 26  1  0
 26 27  2  0
 11  7  1  0
 17 13  1  0
 27 18  1  0
 26 21  1  0
  3 28  1  0
  4 29  1  0
  4 30  1  0
  8 31  1  0
  8 32  1  0
  9 33  1  0
  9 34  1  0
 10 35  1  0
 10 36  1  0
 11 37  1  1
 12 38  1  0
 12 39  1  0
 14 40  1  0
 15 41  1  0
 16 42  1  0
 19 43  1  0
 20 44  1  0
 22 45  1  0
 23 46  1  0
 24 47  1  0
 25 48  1  0
M  END
>  <smiles>  (48) 
O=C(NCC(=O)N1CCC[C@H]1Cc1c[nH]cn1)c1ccc2ccccc2n1

>  <score_type>  (48) 
oracle

>  <origin>  (48) 
autodockgpu

>  <m_score__min__energy>  (48) 
-8.4499999999999993

>  <m_primary>  (48) 
energy

>  <rmsd>  (48) 
1.563945068981308

>  <m_score__min__rmsd>  (48) 
1.563945068981308

>  <meeko>  (48) 
{"free_energy": -7.68, "intermolecular_energy": -9.47, "internal_energy": -1.15, "cluster_size": 10, "cluster_id": 2, "rank_in_cluster": 7}

>  <energy>  (48) 
-5.62

>  <cluster_rmsd>  (48) 
1.71

>  <cluster>  (48) 
8

$$$$

     RDKit          3D

 48 51  0  0  0  0  0  0  0  0999 V2000
  139.9100   74.9560  222.3540 O   0  0  0  0  0  0  0  0  0  0  0  0
  140.5410   75.6570  221.5280 C   0  0  0  0  0  0  0  0  0  0  0  0
  140.9390   75.0660  220.3100 N   0  0  0  0  0  0  0  0  0  0  0  0
  140.6300   73.6810  220.0090 C   0  0  0  0  0  0  0  0  0  0  0  0
  141.5490   72.7420  220.6670 C   0  0  0  0  0  0  0  0  0  0  0  0
  141.2930   72.1050  221.7180 O   0  0  0  0  0  0  0  0  0  0  0  0
  142.8260   72.5320  220.0810 N   0  0  0  0  0  0  0  0  0  0  0  0
  143.1680   71.4180  219.2300 C   0  0  0  0  0  0  0  0  0  0  0  0
  144.5820   71.0730  219.6340 C   0  0  0  0  0  0  0  0  0  0  0  0
  145.0740   72.2680  220.4410 C   0  0  0  0  0  0  0  0  0  0  0  0
  144.0320   73.3430  220.1880 C   0  0  1  0  0  0  0  0  0  0  0  0
  144.2720   74.0320  218.8590 C   0  0  0  0  0  0  0  0  0  0  0  0
  143.6110   75.3570  218.8270 C   0  0  0  0  0  0  0  0  0  0  0  0
  143.7010   76.3940  219.7490 C   0  0  0  0  0  0  0  0  0  0  0  0
  142.9190   77.3900  219.2800 N   0  0  0  0  0  0  0  0  0  0  0  0
  142.3500   77.0200  218.1160 C   0  0  0  0  0  0  0  0  0  0  0  0
  142.7850   75.7860  217.8620 N   0  0  0  0  0  0  0  0  0  0  0  0
  140.8610   77.0500  221.8130 C   0  0  0  0  0  0  0  0  0  0  0  0
  141.1670   77.4410  223.0970 C   0  0  0  0  0  0  0  0  0  0  0  0
  141.4760   78.7300  223.4350 C   0  0  0  0  0  0  0  0  0  0  0  0
  141.4720   79.6720  222.4040 C   0  0  0  0  0  0  0  0  0  0  0  0
  141.7730   80.9920  222.6640 C   0  0  0  0  0  0  0  0  0  0  0  0
  141.7740   81.9310  221.6650 C   0  0  0  0  0  0  0  0  0  0  0  0
  141.4680   81.5380  220.3860 C   0  0  0  0  0  0  0  0  0  0  0  0
  141.1620   80.2320  220.0800 C   0  0  0  0  0  0  0  0  0  0  0  0
  141.1640   79.2850  221.1090 C   0  0  0  0  0  0  0  0  0  0  0  0
  140.8700   77.9980  220.8500 N   0  0  0  0  0  0  0  0  0  0  0  0
  141.4700   75.6860  219.6380 H   0  0  0  0  0  0  0  0  0  0  0  0
  139.6054   73.4669  220.3473 H   0  0  0  0  0  0  0  0  0  0  0  0
  140.7350   73.5444  218.9226 H   0  0  0  0  0  0  0  0  0  0  0  0
  142.4921   70.5684  219.4069 H   0  0  0  0  0  0  0  0  0  0  0  0
  143.0791   71.6584  218.1603 H   0  0  0  0  0  0  0  0  0  0  0  0
  144.5951   70.1612  220.2492 H   0  0  0  0  0  0  0  0  0  0  0  0
  145.2214   70.8775  218.7605 H   0  0  0  0  0  0  0  0  0  0  0  0
  145.1272   72.0205  221.5115 H   0  0  0  0  0  0  0  0  0  0  0  0
  146.0860   72.5854  220.1494 H   0  0  0  0  0  0  0  0  0  0  0  0
  144.0154   74.1336  220.9526 H   0  0  0  0  0  0  0  0  0  0  0  0
  145.3540   74.1650  218.7119 H   0  0  0  0  0  0  0  0  0  0  0  0
  143.8506   73.4081  218.0570 H   0  0  0  0  0  0  0  0  0  0  0  0
  144.2921   76.4015  220.6766 H   0  0  0  0  0  0  0  0  0  0  0  0
  142.7670   78.3040  219.7310 H   0  0  0  0  0  0  0  0  0  0  0  0
  141.6632   77.6174  217.4984 H   0  0  0  0  0  0  0  0  0  0  0  0
  141.1629   76.6792  223.8905 H   0  0  0  0  0  0  0  0  0  0  0  0
  141.7165   79.0115  224.4708 H   0  0  0  0  0  0  0  0  0  0  0  0
  142.0169   81.2976  223.6922 H   0  0  0  0  0  0  0  0  0  0  0  0
  142.0159   82.9813  221.8847 H   0  0  0  0  0  0  0  0  0  0  0  0
  141.4674   82.2890  219.5823 H   0  0  0  0  0  0  0  0  0  0  0  0
  140.9208   79.9389  219.0476 H   0  0  0  0  0  0  0  0  0  0  0  0
  1  2  2  0
  2  3  1  0
  3  4  1  0
  4  5  1  0
  5  6  2  0
  5  7  1  0
  7  8  1  0
  8  9  1  0
  9 10  1  0
 10 11  1  0
 11 12  1  0
 12 13  1  0
 13 14  2  0
 14 15  1  0
 15 16  1  0
 16 17  2  0
  2 18  1  0
 18 19  2  0
 19 20  1  0
 20 21  2  0
 21 22  1  0
 22 23  2  0
 23 24  1  0
 24 25  2  0
 25 26  1  0
 26 27  2  0
 11  7  1  0
 17 13  1  0
 27 18  1  0
 26 21  1  0
  3 28  1  0
  4 29  1  0
  4 30  1  0
  8 31  1  0
  8 32  1  0
  9 33  1  0
  9 34  1  0
 10 35  1  0
 10 36  1  0
 11 37  1  1
 12 38  1  0
 12 39  1  0
 14 40  1  0
 15 41  1  0
 16 42  1  0
 19 43  1  0
 20 44  1  0
 22 45  1  0
 23 46  1  0
 24 47  1  0
 25 48  1  0
M  END
>  <smiles>  (49) 
O=C(NCC(=O)N1CCC[C@H]1Cc1c[nH]cn1)c1ccc2ccccc2n1

>  <score_type>  (49) 
oracle

>  <origin>  (49) 
autodockgpu

>  <m_score__min__energy>  (49) 
-8.4499999999999993

>  <m_primary>  (49) 
energy

>  <rmsd>  (49) 
8.312343248137294

>  <m_score__min__rmsd>  (49) 
8.312343248137294

>  <meeko>  (49) 
{"free_energy": -5.76, "intermolecular_energy": -7.55, "internal_energy": -3.11, "cluster_size": 10, "cluster_id": 8, "rank_in_cluster": 9}

>  <energy>  (49) 
-6.69

>  <cluster_rmsd>  (49) 
0.0

>  <cluster>  (49) 
9

$$$$

     RDKit          3D

 48 51  0  0  0  0  0  0  0  0999 V2000
  140.0880   74.9800  222.3210 O   0  0  0  0  0  0  0  0  0  0  0  0
  140.5620   75.7510  221.4520 C   0  0  0  0  0  0  0  0  0  0  0  0
  140.7990   75.2410  220.1590 N   0  0  0  0  0  0  0  0  0  0  0  0
  140.5050   73.8600  219.8280 C   0  0  0  0  0  0  0  0  0  0  0  0
  141.3700   72.9120  220.5440 C   0  0  0  0  0  0  0  0  0  0  0  0
  141.0790   72.3550  221.6300 O   0  0  0  0  0  0  0  0  0  0  0  0
  142.6330   72.5970  219.9750 N   0  0  0  0  0  0  0  0  0  0  0  0
  142.8790   71.4950  219.0750 C   0  0  0  0  0  0  0  0  0  0  0  0
  144.2380   70.9840  219.4920 C   0  0  0  0  0  0  0  0  0  0  0  0
  144.8310   72.0790  220.3690 C   0  0  0  0  0  0  0  0  0  0  0  0
  143.9150   73.2690  220.1480 C   0  0  1  0  0  0  0  0  0  0  0  0
  144.2600   73.9920  218.8610 C   0  0  0  0  0  0  0  0  0  0  0  0
  143.6240   75.3290  218.8230 C   0  0  0  0  0  0  0  0  0  0  0  0
  143.7270   76.3660  219.7440 C   0  0  0  0  0  0  0  0  0  0  0  0
  142.9670   77.3750  219.2680 N   0  0  0  0  0  0  0  0  0  0  0  0
  142.4010   77.0150  218.0990 C   0  0  0  0  0  0  0  0  0  0  0  0
  142.8140   75.7720  217.8500 N   0  0  0  0  0  0  0  0  0  0  0  0
  140.8640   77.1430  221.7660 C   0  0  0  0  0  0  0  0  0  0  0  0
  141.1200   77.5190  223.0640 C   0  0  0  0  0  0  0  0  0  0  0  0
  141.4100   78.8050  223.4300 C   0  0  0  0  0  0  0  0  0  0  0  0
  141.4400   79.7590  222.4100 C   0  0  0  0  0  0  0  0  0  0  0  0
  141.7240   81.0780  222.6970 C   0  0  0  0  0  0  0  0  0  0  0  0
  141.7580   82.0290  221.7100 C   0  0  0  0  0  0  0  0  0  0  0  0
  141.5010   81.6500  220.4170 C   0  0  0  0  0  0  0  0  0  0  0  0
  141.2130   80.3460  220.0830 C   0  0  0  0  0  0  0  0  0  0  0  0
  141.1820   79.3870  221.1000 C   0  0  0  0  0  0  0  0  0  0  0  0
  140.9040   78.1020  220.8150 N   0  0  0  0  0  0  0  0  0  0  0  0
  141.1990   75.9190  219.4520 H   0  0  0  0  0  0  0  0  0  0  0  0
  139.4578   73.6497  220.0911 H   0  0  0  0  0  0  0  0  0  0  0  0
  140.6862   73.7292  218.7510 H   0  0  0  0  0  0  0  0  0  0  0  0
  142.1136   70.7140  219.1937 H   0  0  0  0  0  0  0  0  0  0  0  0
  142.8439   71.7944  218.0171 H   0  0  0  0  0  0  0  0  0  0  0  0
  144.1391   70.0473  220.0602 H   0  0  0  0  0  0  0  0  0  0  0  0
  144.8766   70.7652  218.6235 H   0  0  0  0  0  0  0  0  0  0  0  0
  144.8289   71.7760  221.4265 H   0  0  0  0  0  0  0  0  0  0  0  0
  145.8784   72.3006  220.1164 H   0  0  0  0  0  0  0  0  0  0  0  0
  143.9623   74.0193  220.9510 H   0  0  0  0  0  0  0  0  0  0  0  0
  145.3517   74.1098  218.7948 H   0  0  0  0  0  0  0  0  0  0  0  0
  143.8871   73.3995  218.0125 H   0  0  0  0  0  0  0  0  0  0  0  0
  144.3118   76.3643  220.6756 H   0  0  0  0  0  0  0  0  0  0  0  0
  142.8280   78.2930  219.7160 H   0  0  0  0  0  0  0  0  0  0  0  0
  141.7317   77.6251  217.4747 H   0  0  0  0  0  0  0  0  0  0  0  0
  141.0901   76.7471  223.8471 H   0  0  0  0  0  0  0  0  0  0  0  0
  141.6100   79.0748  224.4775 H   0  0  0  0  0  0  0  0  0  0  0  0
  141.9270   81.3723  223.7373 H   0  0  0  0  0  0  0  0  0  0  0  0
  141.9873   83.0775  221.9508 H   0  0  0  0  0  0  0  0  0  0  0  0
  141.5258   82.4110  219.6231 H   0  0  0  0  0  0  0  0  0  0  0  0
  141.0116   80.0646  219.0388 H   0  0  0  0  0  0  0  0  0  0  0  0
  1  2  2  0
  2  3  1  0
  3  4  1  0
  4  5  1  0
  5  6  2  0
  5  7  1  0
  7  8  1  0
  8  9  1  0
  9 10  1  0
 10 11  1  0
 11 12  1  0
 12 13  1  0
 13 14  2  0
 14 15  1  0
 15 16  1  0
 16 17  2  0
  2 18  1  0
 18 19  2  0
 19 20  1  0
 20 21  2  0
 21 22  1  0
 22 23  2  0
 23 24  1  0
 24 25  2  0
 25 26  1  0
 26 27  2  0
 11  7  1  0
 17 13  1  0
 27 18  1  0
 26 21  1  0
  3 28  1  0
  4 29  1  0
  4 30  1  0
  8 31  1  0
  8 32  1  0
  9 33  1  0
  9 34  1  0
 10 35  1  0
 10 36  1  0
 11 37  1  1
 12 38  1  0
 12 39  1  0
 14 40  1  0
 15 41  1  0
 16 42  1  0
 19 43  1  0
 20 44  1  0
 22 45  1  0
 23 46  1  0
 24 47  1  0
 25 48  1  0
M  END
>  <smiles>  (50) 
O=C(NCC(=O)N1CCC[C@H]1Cc1c[nH]cn1)c1ccc2ccccc2n1

>  <score_type>  (50) 
oracle

>  <origin>  (50) 
autodockgpu

>  <m_score__min__energy>  (50) 
-8.4499999999999993

>  <m_primary>  (50) 
energy

>  <rmsd>  (50) 
8.323643755771872

>  <m_score__min__rmsd>  (50) 
8.323643755771872

>  <meeko>  (50) 
{"free_energy": -5.62, "intermolecular_energy": -7.41, "internal_energy": -3.12, "cluster_size": 10, "cluster_id": 8, "rank_in_cluster": 10}

>  <energy>  (50) 
-6.04

>  <cluster_rmsd>  (50) 
1.77

>  <cluster>  (50) 
9

$$$$
