
     RDKit          3D

 46 49  0  0  0  0  0  0  0  0999 V2000
  139.3940   70.6070  221.4790 O   0  0  0  0  0  0  0  0  0  0  0  0
  139.6030   71.2450  222.5410 C   0  0  0  0  0  0  0  0  0  0  0  0
  139.7400   72.6570  222.6000 N   0  0  0  0  0  0  0  0  0  0  0  0
  139.6380   73.4800  221.3640 C   0  0  0  0  0  0  0  0  0  0  0  0
  139.6020   74.8930  221.7090 C   0  0  0  0  0  0  0  0  0  0  0  0
  140.7370   75.4150  222.0490 O   0  0  0  0  0  0  0  0  0  0  0  0
  138.5170   75.7850  221.7320 N   0  0  0  0  0  0  0  0  0  0  0  0
  137.1390   75.2490  221.5370 C   0  0  0  0  0  0  0  0  0  0  0  0
  136.2910   76.1300  222.4040 C   0  0  0  0  0  0  0  0  0  0  0  0
  137.1630   77.2720  222.8520 C   0  0  0  0  0  0  0  0  0  0  0  0
  138.3350   77.1900  221.8700 C   0  0  1  0  0  0  0  0  0  0  0  0
  139.4580   77.9950  222.3410 C   0  0  0  0  0  0  0  0  0  0  0  0
  140.5640   78.0800  221.5430 N   0  0  0  0  0  0  0  0  0  0  0  0
  141.6390   78.8030  221.8310 C   0  0  0  0  0  0  0  0  0  0  0  0
  141.6670   79.5340  223.0180 C   0  0  0  0  0  0  0  0  0  0  0  0
  143.0400   80.5110  223.4730 Cl  0  0  0  0  0  0  0  0  0  0  0  0
  140.5580   79.4620  223.8400 C   0  0  0  0  0  0  0  0  0  0  0  0
  139.5090   78.7040  223.4730 N   0  0  0  0  0  0  0  0  0  0  0  0
  139.7150   70.4940  223.7980 C   0  0  0  0  0  0  0  0  0  0  0  0
  139.2260   69.2100  223.9230 C   0  0  0  0  0  0  0  0  0  0  0  0
  139.3210   68.4840  225.1010 C   0  0  0  0  0  0  0  0  0  0  0  0
  139.9360   69.0920  226.1840 C   0  0  0  0  0  0  0  0  0  0  0  0
  140.0350   68.3770  227.3570 C   0  0  0  0  0  0  0  0  0  0  0  0
  140.6400   68.9380  228.4700 C   0  0  0  0  0  0  0  0  0  0  0  0
  141.1290   70.2220  228.3450 C   0  0  0  0  0  0  0  0  0  0  0  0
  141.0310   70.9410  227.1650 C   0  0  0  0  0  0  0  0  0  0  0  0
  140.4200   70.3670  226.0550 C   0  0  0  0  0  0  0  0  0  0  0  0
  140.3030   71.0240  224.8980 N   0  0  0  0  0  0  0  0  0  0  0  0
  139.9120   73.1190  223.5230 H   0  0  0  0  0  0  0  0  0  0  0  0
  140.5098   73.2837  220.7226 H   0  0  0  0  0  0  0  0  0  0  0  0
  138.7141   73.2152  220.8289 H   0  0  0  0  0  0  0  0  0  0  0  0
  136.8339   75.3247  220.4829 H   0  0  0  0  0  0  0  0  0  0  0  0
  137.0542   74.1838  221.7982 H   0  0  0  0  0  0  0  0  0  0  0  0
  135.4329   76.5114  221.8312 H   0  0  0  0  0  0  0  0  0  0  0  0
  135.8980   75.5725  223.2670 H   0  0  0  0  0  0  0  0  0  0  0  0
  136.6363   78.2338  222.7648 H   0  0  0  0  0  0  0  0  0  0  0  0
  137.4664   77.2077  223.9074 H   0  0  0  0  0  0  0  0  0  0  0  0
  138.1835   77.6293  220.8730 H   0  0  0  0  0  0  0  0  0  0  0  0
  142.4965   78.8253  221.1424 H   0  0  0  0  0  0  0  0  0  0  0  0
  140.5334   80.0205  224.7874 H   0  0  0  0  0  0  0  0  0  0  0  0
  138.7411   68.7430  223.0531 H   0  0  0  0  0  0  0  0  0  0  0  0
  138.9222   67.4614  225.1731 H   0  0  0  0  0  0  0  0  0  0  0  0
  139.6316   67.3550  227.4104 H   0  0  0  0  0  0  0  0  0  0  0  0
  140.7269   68.3821  229.4152 H   0  0  0  0  0  0  0  0  0  0  0  0
  141.6141   70.6916  229.2134 H   0  0  0  0  0  0  0  0  0  0  0  0
  141.4350   71.9624  227.1060 H   0  0  0  0  0  0  0  0  0  0  0  0
  1  2  2  0
  2  3  1  0
  3  4  1  0
  4  5  1  0
  5  6  2  0
  5  7  1  0
  7  8  1  0
  8  9  1  0
  9 10  1  0
 10 11  1  0
 11 12  1  0
 12 13  2  0
 13 14  1  0
 14 15  2  0
 15 16  1  0
 15 17  1  0
 17 18  2  0
  2 19  1  0
 19 20  2  0
 20 21  1  0
 21 22  2  0
 22 23  1  0
 23 24  2  0
 24 25  1  0
 25 26  2  0
 26 27  1  0
 27 28  2  0
 11  7  1  0
 18 12  1  0
 28 19  1  0
 27 22  1  0
  3 29  1  0
  4 30  1  0
  4 31  1  0
  8 32  1  0
  8 33  1  0
  9 34  1  0
  9 35  1  0
 10 36  1  0
 10 37  1  0
 11 38  1  6
 14 39  1  0
 17 40  1  0
 20 41  1  0
 21 42  1  0
 23 43  1  0
 24 44  1  0
 25 45  1  0
 26 46  1  0
M  END
>  <smiles>  (1) 
O=C(NCC(=O)N1CCC[C@H]1c1ncc(Cl)cn1)c1ccc2ccccc2n1

>  <score_type>  (1) 
oracle

>  <origin>  (1) 
autodockgpu

>  <m_score__min__energy>  (1) 
-8.4100000000000001

>  <m_primary>  (1) 
energy

>  <rmsd>  (1) 
2.8988971931132625

>  <m_score__min__rmsd>  (1) 
2.8988971931132625

>  <meeko>  (1) 
{"free_energy": -8.35, "intermolecular_energy": -9.85, "internal_energy": -1.48, "cluster_size": 11, "cluster_id": 2, "rank_in_cluster": 4}

>  <energy>  (1) 
-8.41

>  <cluster_rmsd>  (1) 
0.0

>  <cluster>  (1) 
1

$$$$

     RDKit          3D

 46 49  0  0  0  0  0  0  0  0999 V2000
  138.7410   70.9220  221.6150 O   0  0  0  0  0  0  0  0  0  0  0  0
  139.2260   71.5200  222.6080 C   0  0  0  0  0  0  0  0  0  0  0  0
  139.5330   72.9070  222.6210 N   0  0  0  0  0  0  0  0  0  0  0  0
  139.2870   73.7480  221.4190 C   0  0  0  0  0  0  0  0  0  0  0  0
  139.3650   75.1580  221.7740 C   0  0  0  0  0  0  0  0  0  0  0  0
  140.4750   75.5360  222.3230 O   0  0  0  0  0  0  0  0  0  0  0  0
  138.4140   76.1790  221.6150 N   0  0  0  0  0  0  0  0  0  0  0  0
  137.0020   75.8070  221.3130 C   0  0  0  0  0  0  0  0  0  0  0  0
  136.2000   76.8620  222.0160 C   0  0  0  0  0  0  0  0  0  0  0  0
  137.1720   77.9180  222.4680 C   0  0  0  0  0  0  0  0  0  0  0  0
  138.4120   77.6020  221.6260 C   0  0  1  0  0  0  0  0  0  0  0  0
  139.5820   78.2960  222.1530 C   0  0  0  0  0  0  0  0  0  0  0  0
  140.6700   78.4290  221.3360 N   0  0  0  0  0  0  0  0  0  0  0  0
  141.7840   79.0660  221.6740 C   0  0  0  0  0  0  0  0  0  0  0  0
  141.8770   79.6470  222.9370 C   0  0  0  0  0  0  0  0  0  0  0  0
  143.3060   80.5030  223.4610 Cl  0  0  0  0  0  0  0  0  0  0  0  0
  140.7880   79.5250  223.7800 C   0  0  0  0  0  0  0  0  0  0  0  0
  139.6960   78.8610  223.3600 N   0  0  0  0  0  0  0  0  0  0  0  0
  139.4950   70.7480  223.8280 C   0  0  0  0  0  0  0  0  0  0  0  0
  139.2080   69.4010  223.9120 C   0  0  0  0  0  0  0  0  0  0  0  0
  139.4530   68.6540  225.0550 C   0  0  0  0  0  0  0  0  0  0  0  0
  140.0110   69.3070  226.1430 C   0  0  0  0  0  0  0  0  0  0  0  0
  140.2580   68.5720  227.2810 C   0  0  0  0  0  0  0  0  0  0  0  0
  140.8140   69.1740  228.3970 C   0  0  0  0  0  0  0  0  0  0  0  0
  141.1010   70.5210  228.3130 C   0  0  0  0  0  0  0  0  0  0  0  0
  140.8530   71.2610  227.1680 C   0  0  0  0  0  0  0  0  0  0  0  0
  140.2940   70.6440  226.0540 C   0  0  0  0  0  0  0  0  0  0  0  0
  140.0380   71.3180  224.9300 N   0  0  0  0  0  0  0  0  0  0  0  0
  139.9360   73.3350  223.4870 H   0  0  0  0  0  0  0  0  0  0  0  0
  140.0453   73.5221  220.6549 H   0  0  0  0  0  0  0  0  0  0  0  0
  138.2837   73.5297  221.0245 H   0  0  0  0  0  0  0  0  0  0  0  0
  136.8138   75.8278  220.2294 H   0  0  0  0  0  0  0  0  0  0  0  0
  136.7491   74.7883  221.6421 H   0  0  0  0  0  0  0  0  0  0  0  0
  135.4609   77.2974  221.3274 H   0  0  0  0  0  0  0  0  0  0  0  0
  135.6526   76.4376  222.8706 H   0  0  0  0  0  0  0  0  0  0  0  0
  136.7916   78.9276  222.2536 H   0  0  0  0  0  0  0  0  0  0  0  0
  137.3610   77.9079  223.5516 H   0  0  0  0  0  0  0  0  0  0  0  0
  138.4190   77.9673  220.5884 H   0  0  0  0  0  0  0  0  0  0  0  0
  142.6232   79.1345  220.9662 H   0  0  0  0  0  0  0  0  0  0  0  0
  140.8143   79.9676  224.7867 H   0  0  0  0  0  0  0  0  0  0  0  0
  138.7673   68.8995  223.0378 H   0  0  0  0  0  0  0  0  0  0  0  0
  139.2130   67.5813  225.0965 H   0  0  0  0  0  0  0  0  0  0  0  0
  140.0121   67.5001  227.3035 H   0  0  0  0  0  0  0  0  0  0  0  0
  141.0187   68.6015  229.3137 H   0  0  0  0  0  0  0  0  0  0  0  0
  141.5421   71.0251  229.1855 H   0  0  0  0  0  0  0  0  0  0  0  0
  141.0975   72.3331  227.1403 H   0  0  0  0  0  0  0  0  0  0  0  0
  1  2  2  0
  2  3  1  0
  3  4  1  0
  4  5  1  0
  5  6  2  0
  5  7  1  0
  7  8  1  0
  8  9  1  0
  9 10  1  0
 10 11  1  0
 11 12  1  0
 12 13  2  0
 13 14  1  0
 14 15  2  0
 15 16  1  0
 15 17  1  0
 17 18  2  0
  2 19  1  0
 19 20  2  0
 20 21  1  0
 21 22  2  0
 22 23  1  0
 23 24  2  0
 24 25  1  0
 25 26  2  0
 26 27  1  0
 27 28  2  0
 11  7  1  0
 18 12  1  0
 28 19  1  0
 27 22  1  0
  3 29  1  0
  4 30  1  0
  4 31  1  0
  8 32  1  0
  8 33  1  0
  9 34  1  0
  9 35  1  0
 10 36  1  0
 10 37  1  0
 11 38  1  6
 14 39  1  0
 17 40  1  0
 20 41  1  0
 21 42  1  0
 23 43  1  0
 24 44  1  0
 25 45  1  0
 26 46  1  0
M  END
>  <smiles>  (2) 
O=C(NCC(=O)N1CCC[C@H]1c1ncc(Cl)cn1)c1ccc2ccccc2n1

>  <score_type>  (2) 
oracle

>  <origin>  (2) 
autodockgpu

>  <m_score__min__energy>  (2) 
-8.4100000000000001

>  <m_primary>  (2) 
energy

>  <rmsd>  (2) 
2.8046442590127763

>  <m_score__min__rmsd>  (2) 
2.8046442590127763

>  <meeko>  (2) 
{"free_energy": -8.19, "intermolecular_energy": -9.69, "internal_energy": -1.72, "cluster_size": 11, "cluster_id": 2, "rank_in_cluster": 8}

>  <energy>  (2) 
-8.4

>  <cluster_rmsd>  (2) 
0.34

>  <cluster>  (2) 
1

$$$$

     RDKit          3D

 46 49  0  0  0  0  0  0  0  0999 V2000
  138.5690   75.4300  222.2180 O   0  0  0  0  0  0  0  0  0  0  0  0
  139.7460   75.8490  222.0850 C   0  0  0  0  0  0  0  0  0  0  0  0
  140.8160   75.0530  221.5960 N   0  0  0  0  0  0  0  0  0  0  0  0
  140.5880   73.6360  221.2040 C   0  0  0  0  0  0  0  0  0  0  0  0
  141.6410   73.1950  220.3000 C   0  0  0  0  0  0  0  0  0  0  0  0
  141.2470   72.5120  219.2730 O   0  0  0  0  0  0  0  0  0  0  0  0
  143.0290   73.3960  220.3720 N   0  0  0  0  0  0  0  0  0  0  0  0
  143.8950   72.2770  220.8430 C   0  0  0  0  0  0  0  0  0  0  0  0
  145.1560   72.4470  220.0480 C   0  0  0  0  0  0  0  0  0  0  0  0
  145.0580   73.7800  219.3550 C   0  0  0  0  0  0  0  0  0  0  0  0
  143.9330   74.4690  220.1330 C   0  0  1  0  0  0  0  0  0  0  0  0
  143.4490   75.6390  219.4080 C   0  0  0  0  0  0  0  0  0  0  0  0
  142.7000   76.5540  220.0960 N   0  0  0  0  0  0  0  0  0  0  0  0
  142.2280   77.6770  219.5710 C   0  0  0  0  0  0  0  0  0  0  0  0
  142.4980   77.9690  218.2350 C   0  0  0  0  0  0  0  0  0  0  0  0
  141.9150   79.4240  217.4670 Cl  0  0  0  0  0  0  0  0  0  0  0  0
  143.2540   77.0570  217.5210 C   0  0  0  0  0  0  0  0  0  0  0  0
  143.6940   75.9410  218.1290 N   0  0  0  0  0  0  0  0  0  0  0  0
  140.0400   77.2390  222.4550 C   0  0  0  0  0  0  0  0  0  0  0  0
  139.0360   78.1490  222.7150 C   0  0  0  0  0  0  0  0  0  0  0  0
  139.2930   79.4660  223.0640 C   0  0  0  0  0  0  0  0  0  0  0  0
  140.6180   79.8630  223.1520 C   0  0  0  0  0  0  0  0  0  0  0  0
  140.8810   81.1690  223.5000 C   0  0  0  0  0  0  0  0  0  0  0  0
  142.1870   81.6180  223.6010 C   0  0  0  0  0  0  0  0  0  0  0  0
  143.1910   80.7080  223.3410 C   0  0  0  0  0  0  0  0  0  0  0  0
  142.9280   79.3940  222.9920 C   0  0  0  0  0  0  0  0  0  0  0  0
  141.6110   78.9550  222.8930 C   0  0  0  0  0  0  0  0  0  0  0  0
  141.3100   77.6970  222.5590 N   0  0  0  0  0  0  0  0  0  0  0  0
  141.7710   75.4730  221.5120 H   0  0  0  0  0  0  0  0  0  0  0  0
  140.5918   73.0037  222.1041 H   0  0  0  0  0  0  0  0  0  0  0  0
  139.6164   73.5535  220.6950 H   0  0  0  0  0  0  0  0  0  0  0  0
  144.0959   72.3631  221.9211 H   0  0  0  0  0  0  0  0  0  0  0  0
  143.4312   71.2896  220.7022 H   0  0  0  0  0  0  0  0  0  0  0  0
  146.0297   72.4310  220.7161 H   0  0  0  0  0  0  0  0  0  0  0  0
  145.2758   71.6316  219.3194 H   0  0  0  0  0  0  0  0  0  0  0  0
  146.0004   74.3415  219.4359 H   0  0  0  0  0  0  0  0  0  0  0  0
  144.8638   73.7023  218.2751 H   0  0  0  0  0  0  0  0  0  0  0  0
  144.2000   74.9309  221.0949 H   0  0  0  0  0  0  0  0  0  0  0  0
  141.6308   78.3694  220.1825 H   0  0  0  0  0  0  0  0  0  0  0  0
  143.4936   77.2431  216.4637 H   0  0  0  0  0  0  0  0  0  0  0  0
  137.9900   77.8164  222.6425 H   0  0  0  0  0  0  0  0  0  0  0  0
  138.4733   80.1717  223.2642 H   0  0  0  0  0  0  0  0  0  0  0  0
  140.0485   81.8599  223.6990 H   0  0  0  0  0  0  0  0  0  0  0  0
  142.4148   82.6581  223.8773 H   0  0  0  0  0  0  0  0  0  0  0  0
  144.2378   81.0381  223.4135 H   0  0  0  0  0  0  0  0  0  0  0  0
  143.7575   78.6993  222.7936 H   0  0  0  0  0  0  0  0  0  0  0  0
  1  2  2  0
  2  3  1  0
  3  4  1  0
  4  5  1  0
  5  6  2  0
  5  7  1  0
  7  8  1  0
  8  9  1  0
  9 10  1  0
 10 11  1  0
 11 12  1  0
 12 13  2  0
 13 14  1  0
 14 15  2  0
 15 16  1  0
 15 17  1  0
 17 18  2  0
  2 19  1  0
 19 20  2  0
 20 21  1  0
 21 22  2  0
 22 23  1  0
 23 24  2  0
 24 25  1  0
 25 26  2  0
 26 27  1  0
 27 28  2  0
 11  7  1  0
 18 12  1  0
 28 19  1  0
 27 22  1  0
  3 29  1  0
  4 30  1  0
  4 31  1  0
  8 32  1  0
  8 33  1  0
  9 34  1  0
  9 35  1  0
 10 36  1  0
 10 37  1  0
 11 38  1  1
 14 39  1  0
 17 40  1  0
 20 41  1  0
 21 42  1  0
 23 43  1  0
 24 44  1  0
 25 45  1  0
 26 46  1  0
M  END
>  <smiles>  (3) 
O=C(NCC(=O)N1CCC[C@H]1c1ncc(Cl)cn1)c1ccc2ccccc2n1

>  <score_type>  (3) 
oracle

>  <origin>  (3) 
autodockgpu

>  <m_score__min__energy>  (3) 
-8.4100000000000001

>  <m_primary>  (3) 
energy

>  <rmsd>  (3) 
7.434959394247148

>  <m_score__min__rmsd>  (3) 
7.434959394247148

>  <meeko>  (3) 
{"free_energy": -6.92, "intermolecular_energy": -8.42, "internal_energy": -2.9, "cluster_size": 8, "cluster_id": 7, "rank_in_cluster": 3}

>  <energy>  (3) 
-8.4

>  <cluster_rmsd>  (3) 
0.06

>  <cluster>  (3) 
1

$$$$

     RDKit          3D

 46 49  0  0  0  0  0  0  0  0999 V2000
  139.1060   70.5490  221.5320 O   0  0  0  0  0  0  0  0  0  0  0  0
  139.4380   71.1800  222.5660 C   0  0  0  0  0  0  0  0  0  0  0  0
  139.6670   72.5820  222.5960 N   0  0  0  0  0  0  0  0  0  0  0  0
  139.5180   73.4000  221.3620 C   0  0  0  0  0  0  0  0  0  0  0  0
  139.5210   74.8160  221.7020 C   0  0  0  0  0  0  0  0  0  0  0  0
  140.6810   75.3240  221.9700 O   0  0  0  0  0  0  0  0  0  0  0  0
  138.4520   75.7220  221.7850 N   0  0  0  0  0  0  0  0  0  0  0  0
  137.0570   75.1940  221.7630 C   0  0  0  0  0  0  0  0  0  0  0  0
  136.3080   76.1330  222.6610 C   0  0  0  0  0  0  0  0  0  0  0  0
  137.2310   77.2860  222.9510 C   0  0  0  0  0  0  0  0  0  0  0  0
  138.2950   77.1350  221.8610 C   0  0  1  0  0  0  0  0  0  0  0  0
  139.4660   77.9490  222.1680 C   0  0  0  0  0  0  0  0  0  0  0  0
  139.4290   78.7250  223.2940 N   0  0  0  0  0  0  0  0  0  0  0  0
  140.4340   79.4850  223.7100 C   0  0  0  0  0  0  0  0  0  0  0  0
  141.6150   79.5120  222.9710 C   0  0  0  0  0  0  0  0  0  0  0  0
  142.9850   80.4840  223.4470 Cl  0  0  0  0  0  0  0  0  0  0  0  0
  141.6740   78.7350  221.8280 C   0  0  0  0  0  0  0  0  0  0  0  0
  140.6090   77.9930  221.4770 N   0  0  0  0  0  0  0  0  0  0  0  0
  139.6030   70.4320  223.8190 C   0  0  0  0  0  0  0  0  0  0  0  0
  139.1730   69.1280  223.9480 C   0  0  0  0  0  0  0  0  0  0  0  0
  139.3180   68.4050  225.1230 C   0  0  0  0  0  0  0  0  0  0  0  0
  139.9230   69.0370  226.1980 C   0  0  0  0  0  0  0  0  0  0  0  0
  140.0720   68.3260  227.3670 C   0  0  0  0  0  0  0  0  0  0  0  0
  140.6690   68.9100  228.4720 C   0  0  0  0  0  0  0  0  0  0  0  0
  141.0990   70.2140  228.3430 C   0  0  0  0  0  0  0  0  0  0  0  0
  140.9510   70.9310  227.1660 C   0  0  0  0  0  0  0  0  0  0  0  0
  140.3480   70.3330  226.0640 C   0  0  0  0  0  0  0  0  0  0  0  0
  140.1840   70.9860  224.9110 N   0  0  0  0  0  0  0  0  0  0  0  0
  139.9400   73.0380  223.4980 H   0  0  0  0  0  0  0  0  0  0  0  0
  140.3544   73.1870  220.6801 H   0  0  0  0  0  0  0  0  0  0  0  0
  138.5656   73.1472  220.8730 H   0  0  0  0  0  0  0  0  0  0  0  0
  136.6457   75.2147  220.7430 H   0  0  0  0  0  0  0  0  0  0  0  0
  136.9922   74.1464  222.0921 H   0  0  0  0  0  0  0  0  0  0  0  0
  135.3984   76.4932  222.1581 H   0  0  0  0  0  0  0  0  0  0  0  0
  136.0005   75.6301  223.5898 H   0  0  0  0  0  0  0  0  0  0  0  0
  136.7055   78.2484  222.8640 H   0  0  0  0  0  0  0  0  0  0  0  0
  137.6416   77.2754  223.9715 H   0  0  0  0  0  0  0  0  0  0  0  0
  138.0445   77.5210  220.8619 H   0  0  0  0  0  0  0  0  0  0  0  0
  140.3361   80.0858  224.6262 H   0  0  0  0  0  0  0  0  0  0  0  0
  142.5848   78.7243  221.2113 H   0  0  0  0  0  0  0  0  0  0  0  0
  138.6959   68.6416  223.0844 H   0  0  0  0  0  0  0  0  0  0  0  0
  138.9650   67.3660  225.1990 H   0  0  0  0  0  0  0  0  0  0  0  0
  139.7147   67.2872  227.4241 H   0  0  0  0  0  0  0  0  0  0  0  0
  140.7950   68.3563  229.4141 H   0  0  0  0  0  0  0  0  0  0  0  0
  141.5765   70.7026  229.2051 H   0  0  0  0  0  0  0  0  0  0  0  0
  141.3091   71.9692  227.1035 H   0  0  0  0  0  0  0  0  0  0  0  0
  1  2  2  0
  2  3  1  0
  3  4  1  0
  4  5  1  0
  5  6  2  0
  5  7  1  0
  7  8  1  0
  8  9  1  0
  9 10  1  0
 10 11  1  0
 11 12  1  0
 12 13  2  0
 13 14  1  0
 14 15  2  0
 15 16  1  0
 15 17  1  0
 17 18  2  0
  2 19  1  0
 19 20  2  0
 20 21  1  0
 21 22  2  0
 22 23  1  0
 23 24  2  0
 24 25  1  0
 25 26  2  0
 26 27  1  0
 27 28  2  0
 11  7  1  0
 18 12  1  0
 28 19  1  0
 27 22  1  0
  3 29  1  0
  4 30  1  0
  4 31  1  0
  8 32  1  0
  8 33  1  0
  9 34  1  0
  9 35  1  0
 10 36  1  0
 10 37  1  0
 11 38  1  6
 14 39  1  0
 17 40  1  0
 20 41  1  0
 21 42  1  0
 23 43  1  0
 24 44  1  0
 25 45  1  0
 26 46  1  0
M  END
>  <smiles>  (4) 
O=C(NCC(=O)N1CCC[C@H]1c1ncc(Cl)cn1)c1ccc2ccccc2n1

>  <score_type>  (4) 
oracle

>  <origin>  (4) 
autodockgpu

>  <m_score__min__energy>  (4) 
-8.4100000000000001

>  <m_primary>  (4) 
energy

>  <rmsd>  (4) 
2.8635663575433075

>  <m_score__min__rmsd>  (4) 
2.8635663575433075

>  <meeko>  (4) 
{"free_energy": -8.37, "intermolecular_energy": -9.86, "internal_energy": -1.52, "cluster_size": 11, "cluster_id": 2, "rank_in_cluster": 2}

>  <energy>  (4) 
-8.4

>  <cluster_rmsd>  (4) 
0.04

>  <cluster>  (4) 
1

$$$$

     RDKit          3D

 46 49  0  0  0  0  0  0  0  0999 V2000
  138.4410   70.6260  221.7170 O   0  0  0  0  0  0  0  0  0  0  0  0
  138.9880   71.2330  222.6710 C   0  0  0  0  0  0  0  0  0  0  0  0
  139.3180   72.6140  222.6440 N   0  0  0  0  0  0  0  0  0  0  0  0
  139.0220   73.4390  221.4410 C   0  0  0  0  0  0  0  0  0  0  0  0
  139.1590   74.8520  221.7630 C   0  0  0  0  0  0  0  0  0  0  0  0
  140.3410   75.2300  222.1310 O   0  0  0  0  0  0  0  0  0  0  0  0
  138.1990   75.8770  221.7370 N   0  0  0  0  0  0  0  0  0  0  0  0
  136.7540   75.5100  221.7200 C   0  0  0  0  0  0  0  0  0  0  0  0
  136.1010   76.6040  222.5110 C   0  0  0  0  0  0  0  0  0  0  0  0
  137.1450   77.6670  222.7270 C   0  0  0  0  0  0  0  0  0  0  0  0
  138.2050   77.3000  221.6840 C   0  0  1  0  0  0  0  0  0  0  0  0
  139.4550   78.0010  221.9530 C   0  0  0  0  0  0  0  0  0  0  0  0
  139.5420   78.7390  223.1010 N   0  0  0  0  0  0  0  0  0  0  0  0
  140.6280   79.3960  223.4850 C   0  0  0  0  0  0  0  0  0  0  0  0
  141.7690   79.3490  222.6860 C   0  0  0  0  0  0  0  0  0  0  0  0
  143.2400   80.1850  223.1170 Cl  0  0  0  0  0  0  0  0  0  0  0  0
  141.7030   78.6090  221.5200 C   0  0  0  0  0  0  0  0  0  0  0  0
  140.5610   77.9720  221.2030 N   0  0  0  0  0  0  0  0  0  0  0  0
  139.3090   70.4760  223.8890 C   0  0  0  0  0  0  0  0  0  0  0  0
  139.0400   69.1280  223.9980 C   0  0  0  0  0  0  0  0  0  0  0  0
  139.3340   68.3960  225.1390 C   0  0  0  0  0  0  0  0  0  0  0  0
  139.9220   69.0670  226.2000 C   0  0  0  0  0  0  0  0  0  0  0  0
  140.2180   68.3470  227.3360 C   0  0  0  0  0  0  0  0  0  0  0  0
  140.8060   68.9680  228.4260 C   0  0  0  0  0  0  0  0  0  0  0  0
  141.0750   70.3160  228.3170 C   0  0  0  0  0  0  0  0  0  0  0  0
  140.7780   71.0410  227.1740 C   0  0  0  0  0  0  0  0  0  0  0  0
  140.1870   70.4060  226.0860 C   0  0  0  0  0  0  0  0  0  0  0  0
  139.8840   71.0650  224.9650 N   0  0  0  0  0  0  0  0  0  0  0  0
  139.7730   73.0500  223.4800 H   0  0  0  0  0  0  0  0  0  0  0  0
  139.7265   73.1781  220.6375 H   0  0  0  0  0  0  0  0  0  0  0  0
  137.9915   73.2412  221.1109 H   0  0  0  0  0  0  0  0  0  0  0  0
  136.3674   75.4857  220.6905 H   0  0  0  0  0  0  0  0  0  0  0  0
  136.5629   74.5100  222.1364 H   0  0  0  0  0  0  0  0  0  0  0  0
  135.2487   77.0182  221.9525 H   0  0  0  0  0  0  0  0  0  0  0  0
  135.7201   76.2241  223.4704 H   0  0  0  0  0  0  0  0  0  0  0  0
  136.7354   78.6711  222.5424 H   0  0  0  0  0  0  0  0  0  0  0  0
  137.5326   77.7011  223.7559 H   0  0  0  0  0  0  0  0  0  0  0  0
  138.0202   77.6202  220.6480 H   0  0  0  0  0  0  0  0  0  0  0  0
  140.6283   79.9711  224.4227 H   0  0  0  0  0  0  0  0  0  0  0  0
  142.5777   78.5415  220.8564 H   0  0  0  0  0  0  0  0  0  0  0  0
  138.5734   68.6123  223.1457 H   0  0  0  0  0  0  0  0  0  0  0  0
  139.1085   67.3211  225.1998 H   0  0  0  0  0  0  0  0  0  0  0  0
  139.9862   67.2725  227.3782 H   0  0  0  0  0  0  0  0  0  0  0  0
  141.0485   68.4083  229.3414 H   0  0  0  0  0  0  0  0  0  0  0  0
  141.5419   70.8342  229.1675 H   0  0  0  0  0  0  0  0  0  0  0  0
  141.0088   72.1155  227.1269 H   0  0  0  0  0  0  0  0  0  0  0  0
  1  2  2  0
  2  3  1  0
  3  4  1  0
  4  5  1  0
  5  6  2  0
  5  7  1  0
  7  8  1  0
  8  9  1  0
  9 10  1  0
 10 11  1  0
 11 12  1  0
 12 13  2  0
 13 14  1  0
 14 15  2  0
 15 16  1  0
 15 17  1  0
 17 18  2  0
  2 19  1  0
 19 20  2  0
 20 21  1  0
 21 22  2  0
 22 23  1  0
 23 24  2  0
 24 25  1  0
 25 26  2  0
 26 27  1  0
 27 28  2  0
 11  7  1  0
 18 12  1  0
 28 19  1  0
 27 22  1  0
  3 29  1  0
  4 30  1  0
  4 31  1  0
  8 32  1  0
  8 33  1  0
  9 34  1  0
  9 35  1  0
 10 36  1  0
 10 37  1  0
 11 38  1  6
 14 39  1  0
 17 40  1  0
 20 41  1  0
 21 42  1  0
 23 43  1  0
 24 44  1  0
 25 45  1  0
 26 46  1  0
M  END
>  <smiles>  (5) 
O=C(NCC(=O)N1CCC[C@H]1c1ncc(Cl)cn1)c1ccc2ccccc2n1

>  <score_type>  (5) 
oracle

>  <origin>  (5) 
autodockgpu

>  <m_score__min__energy>  (5) 
-8.4100000000000001

>  <m_primary>  (5) 
energy

>  <rmsd>  (5) 
2.8348226479998635

>  <m_score__min__rmsd>  (5) 
2.8348226479998635

>  <meeko>  (5) 
{"free_energy": -8.21, "intermolecular_energy": -9.7, "internal_energy": -1.66, "cluster_size": 11, "cluster_id": 2, "rank_in_cluster": 6}

>  <energy>  (5) 
-8.39

>  <cluster_rmsd>  (5) 
0.04

>  <cluster>  (5) 
1

$$$$

     RDKit          3D

 46 49  0  0  0  0  0  0  0  0999 V2000
  139.5990   74.4250  222.3680 O   0  0  0  0  0  0  0  0  0  0  0  0
  140.0900   75.3280  221.6450 C   0  0  0  0  0  0  0  0  0  0  0  0
  140.6250   75.0980  220.3500 N   0  0  0  0  0  0  0  0  0  0  0  0
  140.6310   73.7300  219.7640 C   0  0  0  0  0  0  0  0  0  0  0  0
  141.6800   72.9310  220.3820 C   0  0  0  0  0  0  0  0  0  0  0  0
  141.2770   71.8930  221.0430 O   0  0  0  0  0  0  0  0  0  0  0  0
  143.0720   73.1140  220.3720 N   0  0  0  0  0  0  0  0  0  0  0  0
  143.9490   71.9960  220.8260 C   0  0  0  0  0  0  0  0  0  0  0  0
  145.1660   72.1260  219.9600 C   0  0  0  0  0  0  0  0  0  0  0  0
  145.0470   73.4410  219.2380 C   0  0  0  0  0  0  0  0  0  0  0  0
  143.9750   74.1670  220.0560 C   0  0  1  0  0  0  0  0  0  0  0  0
  143.4680   75.3250  219.3270 C   0  0  0  0  0  0  0  0  0  0  0  0
  143.0250   76.3950  220.0530 N   0  0  0  0  0  0  0  0  0  0  0  0
  142.5730   77.5230  219.5200 C   0  0  0  0  0  0  0  0  0  0  0  0
  142.5360   77.6500  218.1320 C   0  0  0  0  0  0  0  0  0  0  0  0
  141.9550   79.0990  217.3490 Cl  0  0  0  0  0  0  0  0  0  0  0  0
  142.9790   76.5790  217.3790 C   0  0  0  0  0  0  0  0  0  0  0  0
  143.4220   75.4710  217.9990 N   0  0  0  0  0  0  0  0  0  0  0  0
  140.1150   76.7020  222.1630 C   0  0  0  0  0  0  0  0  0  0  0  0
  138.9630   77.3510  222.5560 C   0  0  0  0  0  0  0  0  0  0  0  0
  138.9660   78.6480  223.0470 C   0  0  0  0  0  0  0  0  0  0  0  0
  140.1860   79.3000  223.1390 C   0  0  0  0  0  0  0  0  0  0  0  0
  140.1970   80.5870  223.6260 C   0  0  0  0  0  0  0  0  0  0  0  0
  141.3880   81.2840  223.7380 C   0  0  0  0  0  0  0  0  0  0  0  0
  142.5400   80.6350  223.3450 C   0  0  0  0  0  0  0  0  0  0  0  0
  142.5310   79.3390  222.8560 C   0  0  0  0  0  0  0  0  0  0  0  0
  141.3270   78.6500  222.7470 C   0  0  0  0  0  0  0  0  0  0  0  0
  141.2700   77.4000  222.2810 N   0  0  0  0  0  0  0  0  0  0  0  0
  141.0160   75.9030  219.8060 H   0  0  0  0  0  0  0  0  0  0  0  0
  139.6561   73.2526  219.9420 H   0  0  0  0  0  0  0  0  0  0  0  0
  140.8186   73.8000  218.6824 H   0  0  0  0  0  0  0  0  0  0  0  0
  144.2098   72.1085  221.8887 H   0  0  0  0  0  0  0  0  0  0  0  0
  143.4657   71.0118  220.7378 H   0  0  0  0  0  0  0  0  0  0  0  0
  146.0748   72.1151  220.5797 H   0  0  0  0  0  0  0  0  0  0  0  0
  145.2355   71.2899  219.2486 H   0  0  0  0  0  0  0  0  0  0  0  0
  145.9995   73.9910  219.2525 H   0  0  0  0  0  0  0  0  0  0  0  0
  144.7929   73.3371  218.1728 H   0  0  0  0  0  0  0  0  0  0  0  0
  144.2994   74.6507  220.9892 H   0  0  0  0  0  0  0  0  0  0  0  0
  142.2321   78.3467  220.1645 H   0  0  0  0  0  0  0  0  0  0  0  0
  142.9693   76.6326  216.2803 H   0  0  0  0  0  0  0  0  0  0  0  0
  138.0037   76.8186  222.4768 H   0  0  0  0  0  0  0  0  0  0  0  0
  138.0323   79.1425  223.3530 H   0  0  0  0  0  0  0  0  0  0  0  0
  139.2535   81.0650  223.9282 H   0  0  0  0  0  0  0  0  0  0  0  0
  141.4145   82.3135  224.1247 H   0  0  0  0  0  0  0  0  0  0  0  0
  143.5004   81.1657  223.4227 H   0  0  0  0  0  0  0  0  0  0  0  0
  143.4724   78.8562  222.5549 H   0  0  0  0  0  0  0  0  0  0  0  0
  1  2  2  0
  2  3  1  0
  3  4  1  0
  4  5  1  0
  5  6  2  0
  5  7  1  0
  7  8  1  0
  8  9  1  0
  9 10  1  0
 10 11  1  0
 11 12  1  0
 12 13  2  0
 13 14  1  0
 14 15  2  0
 15 16  1  0
 15 17  1  0
 17 18  2  0
  2 19  1  0
 19 20  2  0
 20 21  1  0
 21 22  2  0
 22 23  1  0
 23 24  2  0
 24 25  1  0
 25 26  2  0
 26 27  1  0
 27 28  2  0
 11  7  1  0
 18 12  1  0
 28 19  1  0
 27 22  1  0
  3 29  1  0
  4 30  1  0
  4 31  1  0
  8 32  1  0
  8 33  1  0
  9 34  1  0
  9 35  1  0
 10 36  1  0
 10 37  1  0
 11 38  1  1
 14 39  1  0
 17 40  1  0
 20 41  1  0
 21 42  1  0
 23 43  1  0
 24 44  1  0
 25 45  1  0
 26 46  1  0
M  END
>  <smiles>  (6) 
O=C(NCC(=O)N1CCC[C@H]1c1ncc(Cl)cn1)c1ccc2ccccc2n1

>  <score_type>  (6) 
oracle

>  <origin>  (6) 
autodockgpu

>  <m_score__min__energy>  (6) 
-8.4100000000000001

>  <m_primary>  (6) 
energy

>  <rmsd>  (6) 
7.24955057286564

>  <m_score__min__rmsd>  (6) 
7.24955057286564

>  <meeko>  (6) 
{"free_energy": -6.94, "intermolecular_energy": -8.43, "internal_energy": -2.68, "cluster_size": 8, "cluster_id": 7, "rank_in_cluster": 2}

>  <energy>  (6) 
-8.38

>  <cluster_rmsd>  (6) 
0.04

>  <cluster>  (6) 
1

$$$$

     RDKit          3D

 46 49  0  0  0  0  0  0  0  0999 V2000
  141.2800   71.5410  221.4410 O   0  0  0  0  0  0  0  0  0  0  0  0
  140.6020   72.0580  222.3630 C   0  0  0  0  0  0  0  0  0  0  0  0
  140.1100   73.3900  222.3300 N   0  0  0  0  0  0  0  0  0  0  0  0
  140.3810   74.2690  221.1610 C   0  0  0  0  0  0  0  0  0  0  0  0
  140.5590   75.6440  221.6040 C   0  0  0  0  0  0  0  0  0  0  0  0
  139.9480   75.9630  222.6990 O   0  0  0  0  0  0  0  0  0  0  0  0
  141.2950   76.6880  221.0200 N   0  0  0  0  0  0  0  0  0  0  0  0
  142.2230   76.3740  219.8950 C   0  0  0  0  0  0  0  0  0  0  0  0
  142.1490   77.5930  219.0250 C   0  0  0  0  0  0  0  0  0  0  0  0
  141.3960   78.6380  219.8020 C   0  0  0  0  0  0  0  0  0  0  0  0
  141.4530   78.0870  221.2300 C   0  0  1  0  0  0  0  0  0  0  0  0
  140.4930   78.7750  222.0860 C   0  0  0  0  0  0  0  0  0  0  0  0
  140.9770   79.6590  223.0100 N   0  0  0  0  0  0  0  0  0  0  0  0
  140.2160   80.3770  223.8260 C   0  0  0  0  0  0  0  0  0  0  0  0
  138.8310   80.2420  223.7570 C   0  0  0  0  0  0  0  0  0  0  0  0
  137.7580   81.1490  224.7930 Cl  0  0  0  0  0  0  0  0  0  0  0  0
  138.3200   79.3530  222.8290 C   0  0  0  0  0  0  0  0  0  0  0  0
  139.1620   78.6630  222.0400 N   0  0  0  0  0  0  0  0  0  0  0  0
  140.2980   71.2450  223.5480 C   0  0  0  0  0  0  0  0  0  0  0  0
  139.6130   70.0510  223.4530 C   0  0  0  0  0  0  0  0  0  0  0  0
  139.3160   69.2690  224.5590 C   0  0  0  0  0  0  0  0  0  0  0  0
  139.7330   69.7230  225.8000 C   0  0  0  0  0  0  0  0  0  0  0  0
  139.4420   68.9520  226.9030 C   0  0  0  0  0  0  0  0  0  0  0  0
  139.8360   69.3590  228.1660 C   0  0  0  0  0  0  0  0  0  0  0  0
  140.5210   70.5530  228.2620 C   0  0  0  0  0  0  0  0  0  0  0  0
  140.8150   71.3290  227.1530 C   0  0  0  0  0  0  0  0  0  0  0  0
  140.4130   70.9100  225.8890 C   0  0  0  0  0  0  0  0  0  0  0  0
  140.6740   71.6260  224.7920 N   0  0  0  0  0  0  0  0  0  0  0  0
  139.5500   73.7500  223.1380 H   0  0  0  0  0  0  0  0  0  0  0  0
  141.2954   73.9284  220.6531 H   0  0  0  0  0  0  0  0  0  0  0  0
  139.5291   74.2202  220.4668 H   0  0  0  0  0  0  0  0  0  0  0  0
  143.2474   76.2162  220.2635 H   0  0  0  0  0  0  0  0  0  0  0  0
  141.9506   75.4514  219.3615 H   0  0  0  0  0  0  0  0  0  0  0  0
  143.1618   77.9525  218.7903 H   0  0  0  0  0  0  0  0  0  0  0  0
  141.6437   77.3685  218.0741 H   0  0  0  0  0  0  0  0  0  0  0  0
  141.8899   79.6185  219.7333 H   0  0  0  0  0  0  0  0  0  0  0  0
  140.3727   78.8071  219.4356 H   0  0  0  0  0  0  0  0  0  0  0  0
  142.3797   78.2610  221.7966 H   0  0  0  0  0  0  0  0  0  0  0  0
  140.6728   81.0700  224.5478 H   0  0  0  0  0  0  0  0  0  0  0  0
  137.2330   79.2115  222.7371 H   0  0  0  0  0  0  0  0  0  0  0  0
  139.2895   69.7056  222.4600 H   0  0  0  0  0  0  0  0  0  0  0  0
  138.7682   68.3208  224.4548 H   0  0  0  0  0  0  0  0  0  0  0  0
  138.8930   68.0068  226.7798 H   0  0  0  0  0  0  0  0  0  0  0  0
  139.6120   68.7548  229.0575 H   0  0  0  0  0  0  0  0  0  0  0  0
  140.8449   70.9007  229.2540 H   0  0  0  0  0  0  0  0  0  0  0  0
  141.3650   72.2742  227.2715 H   0  0  0  0  0  0  0  0  0  0  0  0
  1  2  2  0
  2  3  1  0
  3  4  1  0
  4  5  1  0
  5  6  2  0
  5  7  1  0
  7  8  1  0
  8  9  1  0
  9 10  1  0
 10 11  1  0
 11 12  1  0
 12 13  2  0
 13 14  1  0
 14 15  2  0
 15 16  1  0
 15 17  1  0
 17 18  2  0
  2 19  1  0
 19 20  2  0
 20 21  1  0
 21 22  2  0
 22 23  1  0
 23 24  2  0
 24 25  1  0
 25 26  2  0
 26 27  1  0
 27 28  2  0
 11  7  1  0
 18 12  1  0
 28 19  1  0
 27 22  1  0
  3 29  1  0
  4 30  1  0
  4 31  1  0
  8 32  1  0
  8 33  1  0
  9 34  1  0
  9 35  1  0
 10 36  1  0
 10 37  1  0
 11 38  1  1
 14 39  1  0
 17 40  1  0
 20 41  1  0
 21 42  1  0
 23 43  1  0
 24 44  1  0
 25 45  1  0
 26 46  1  0
M  END
>  <smiles>  (7) 
O=C(NCC(=O)N1CCC[C@H]1c1ncc(Cl)cn1)c1ccc2ccccc2n1

>  <score_type>  (7) 
oracle

>  <origin>  (7) 
autodockgpu

>  <m_score__min__energy>  (7) 
-8.4100000000000001

>  <m_primary>  (7) 
energy

>  <rmsd>  (7) 
2.333574370665519

>  <m_score__min__rmsd>  (7) 
2.333574370665519

>  <meeko>  (7) 
{"free_energy": -8.31, "intermolecular_energy": -9.81, "internal_energy": -1.72, "cluster_size": 21, "cluster_id": 1, "rank_in_cluster": 17}

>  <energy>  (7) 
-8.38

>  <cluster_rmsd>  (7) 
0.05

>  <cluster>  (7) 
1

$$$$

     RDKit          3D

 46 49  0  0  0  0  0  0  0  0999 V2000
  138.7210   75.2190  222.2000 O   0  0  0  0  0  0  0  0  0  0  0  0
  139.8920   75.6740  222.1870 C   0  0  0  0  0  0  0  0  0  0  0  0
  141.0390   74.8920  221.8860 N   0  0  0  0  0  0  0  0  0  0  0  0
  140.9060   73.4470  221.5580 C   0  0  0  0  0  0  0  0  0  0  0  0
  141.7100   73.1270  220.3870 C   0  0  0  0  0  0  0  0  0  0  0  0
  141.0570   72.6730  219.3660 O   0  0  0  0  0  0  0  0  0  0  0  0
  143.0970   73.2340  220.1940 N   0  0  0  0  0  0  0  0  0  0  0  0
  143.9520   72.0350  220.4300 C   0  0  0  0  0  0  0  0  0  0  0  0
  145.0440   72.1730  219.4120 C   0  0  0  0  0  0  0  0  0  0  0  0
  144.9150   73.5500  218.8180 C   0  0  0  0  0  0  0  0  0  0  0  0
  144.0160   74.2600  219.8350 C   0  0  1  0  0  0  0  0  0  0  0  0
  143.4910   75.5020  219.2780 C   0  0  0  0  0  0  0  0  0  0  0  0
  142.7520   76.3090  220.0970 N   0  0  0  0  0  0  0  0  0  0  0  0
  142.2450   77.4800  219.7320 C   0  0  0  0  0  0  0  0  0  0  0  0
  142.4670   77.9400  218.4350 C   0  0  0  0  0  0  0  0  0  0  0  0
  141.8360   79.4690  217.8740 Cl  0  0  0  0  0  0  0  0  0  0  0  0
  143.2120   77.1400  217.5900 C   0  0  0  0  0  0  0  0  0  0  0  0
  143.6890   75.9650  218.0400 N   0  0  0  0  0  0  0  0  0  0  0  0
  140.0950   77.0940  222.5030 C   0  0  0  0  0  0  0  0  0  0  0  0
  139.0340   77.9620  222.6570 C   0  0  0  0  0  0  0  0  0  0  0  0
  139.2040   79.3050  222.9540 C   0  0  0  0  0  0  0  0  0  0  0  0
  140.5000   79.7740  223.0990 C   0  0  0  0  0  0  0  0  0  0  0  0
  140.6770   81.1070  223.3950 C   0  0  0  0  0  0  0  0  0  0  0  0
  141.9510   81.6270  223.5500 C   0  0  0  0  0  0  0  0  0  0  0  0
  143.0120   80.7590  223.3960 C   0  0  0  0  0  0  0  0  0  0  0  0
  142.8350   79.4180  223.0990 C   0  0  0  0  0  0  0  0  0  0  0  0
  141.5500   78.9080  222.9450 C   0  0  0  0  0  0  0  0  0  0  0  0
  141.3320   77.6220  222.6590 N   0  0  0  0  0  0  0  0  0  0  0  0
  141.9840   75.3430  221.8950 H   0  0  0  0  0  0  0  0  0  0  0  0
  141.2511   72.8461  222.4123 H   0  0  0  0  0  0  0  0  0  0  0  0
  139.8509   73.2203  221.3450 H   0  0  0  0  0  0  0  0  0  0  0  0
  144.3634   72.0409  221.4502 H   0  0  0  0  0  0  0  0  0  0  0  0
  143.3972   71.0899  220.3354 H   0  0  0  0  0  0  0  0  0  0  0  0
  146.0266   72.0589  219.8932 H   0  0  0  0  0  0  0  0  0  0  0  0
  144.9588   71.3990  218.6351 H   0  0  0  0  0  0  0  0  0  0  0  0
  145.8949   74.0435  218.7393 H   0  0  0  0  0  0  0  0  0  0  0  0
  144.5110   73.5528  217.7949 H   0  0  0  0  0  0  0  0  0  0  0  0
  144.4972   74.6428  220.7471 H   0  0  0  0  0  0  0  0  0  0  0  0
  141.6577   78.0793  220.4432 H   0  0  0  0  0  0  0  0  0  0  0  0
  143.4136   77.4611  216.5574 H   0  0  0  0  0  0  0  0  0  0  0  0
  138.0120   77.5726  222.5393 H   0  0  0  0  0  0  0  0  0  0  0  0
  138.3399   79.9756  223.0706 H   0  0  0  0  0  0  0  0  0  0  0  0
  139.8012   81.7627  223.5090 H   0  0  0  0  0  0  0  0  0  0  0  0
  142.1105   82.6894  223.7864 H   0  0  0  0  0  0  0  0  0  0  0  0
  144.0351   81.1458  223.5133 H   0  0  0  0  0  0  0  0  0  0  0  0
  143.7078   78.7582  222.9852 H   0  0  0  0  0  0  0  0  0  0  0  0
  1  2  2  0
  2  3  1  0
  3  4  1  0
  4  5  1  0
  5  6  2  0
  5  7  1  0
  7  8  1  0
  8  9  1  0
  9 10  1  0
 10 11  1  0
 11 12  1  0
 12 13  2  0
 13 14  1  0
 14 15  2  0
 15 16  1  0
 15 17  1  0
 17 18  2  0
  2 19  1  0
 19 20  2  0
 20 21  1  0
 21 22  2  0
 22 23  1  0
 23 24  2  0
 24 25  1  0
 25 26  2  0
 26 27  1  0
 27 28  2  0
 11  7  1  0
 18 12  1  0
 28 19  1  0
 27 22  1  0
  3 29  1  0
  4 30  1  0
  4 31  1  0
  8 32  1  0
  8 33  1  0
  9 34  1  0
  9 35  1  0
 10 36  1  0
 10 37  1  0
 11 38  1  1
 14 39  1  0
 17 40  1  0
 20 41  1  0
 21 42  1  0
 23 43  1  0
 24 44  1  0
 25 45  1  0
 26 46  1  0
M  END
>  <smiles>  (8) 
O=C(NCC(=O)N1CCC[C@H]1c1ncc(Cl)cn1)c1ccc2ccccc2n1

>  <score_type>  (8) 
oracle

>  <origin>  (8) 
autodockgpu

>  <m_score__min__energy>  (8) 
-8.4100000000000001

>  <m_primary>  (8) 
energy

>  <rmsd>  (8) 
7.3888232127299585

>  <m_score__min__rmsd>  (8) 
7.3888232127299585

>  <meeko>  (8) 
{"free_energy": -6.88, "intermolecular_energy": -8.37, "internal_energy": -2.91, "cluster_size": 8, "cluster_id": 7, "rank_in_cluster": 5}

>  <energy>  (8) 
-8.38

>  <cluster_rmsd>  (8) 
0.31

>  <cluster>  (8) 
1

$$$$

     RDKit          3D

 46 49  0  0  0  0  0  0  0  0999 V2000
  139.0670   70.5980  221.4270 O   0  0  0  0  0  0  0  0  0  0  0  0
  139.2040   71.2700  222.4800 C   0  0  0  0  0  0  0  0  0  0  0  0
  139.1130   72.6870  222.5290 N   0  0  0  0  0  0  0  0  0  0  0  0
  138.8410   73.4710  221.2930 C   0  0  0  0  0  0  0  0  0  0  0  0
  139.3050   74.8410  221.4620 C   0  0  0  0  0  0  0  0  0  0  0  0
  139.3220   75.2800  222.6800 O   0  0  0  0  0  0  0  0  0  0  0  0
  139.7380   75.7680  220.5000 N   0  0  0  0  0  0  0  0  0  0  0  0
  138.8390   76.9000  220.1350 C   0  0  0  0  0  0  0  0  0  0  0  0
  139.7870   78.0280  219.8530 C   0  0  0  0  0  0  0  0  0  0  0  0
  141.1700   77.4350  219.8200 C   0  0  0  0  0  0  0  0  0  0  0  0
  140.8810   75.9390  219.6690 C   0  0  1  0  0  0  0  0  0  0  0  0
  142.0760   75.1530  219.9570 C   0  0  0  0  0  0  0  0  0  0  0  0
  143.2910   75.7680  219.8390 N   0  0  0  0  0  0  0  0  0  0  0  0
  144.4520   75.1830  220.1030 C   0  0  0  0  0  0  0  0  0  0  0  0
  144.4620   73.8570  220.5320 C   0  0  0  0  0  0  0  0  0  0  0  0
  145.9450   73.0120  220.9010 Cl  0  0  0  0  0  0  0  0  0  0  0  0
  143.2440   73.2160  220.6590 C   0  0  0  0  0  0  0  0  0  0  0  0
  142.1120   73.8820  220.3690 N   0  0  0  0  0  0  0  0  0  0  0  0
  139.4760   70.5580  223.7350 C   0  0  0  0  0  0  0  0  0  0  0  0
  139.2040   69.2130  223.8800 C   0  0  0  0  0  0  0  0  0  0  0  0
  139.4520   68.5230  225.0570 C   0  0  0  0  0  0  0  0  0  0  0  0
  139.9950   69.2310  226.1170 C   0  0  0  0  0  0  0  0  0  0  0  0
  140.2450   68.5520  227.2890 C   0  0  0  0  0  0  0  0  0  0  0  0
  140.7870   69.2120  228.3790 C   0  0  0  0  0  0  0  0  0  0  0  0
  141.0590   70.5570  228.2340 C   0  0  0  0  0  0  0  0  0  0  0  0
  140.8090   71.2410  227.0550 C   0  0  0  0  0  0  0  0  0  0  0  0
  140.2630   70.5670  225.9680 C   0  0  0  0  0  0  0  0  0  0  0  0
  140.0050   71.1850  224.8120 N   0  0  0  0  0  0  0  0  0  0  0  0
  139.2380   73.1780  223.4450 H   0  0  0  0  0  0  0  0  0  0  0  0
  139.3683   73.0095  220.4451 H   0  0  0  0  0  0  0  0  0  0  0  0
  137.7582   73.4770  221.0993 H   0  0  0  0  0  0  0  0  0  0  0  0
  138.2428   76.6560  219.2433 H   0  0  0  0  0  0  0  0  0  0  0  0
  138.1125   77.1402  220.9253 H   0  0  0  0  0  0  0  0  0  0  0  0
  139.5493   78.4890  218.8830 H   0  0  0  0  0  0  0  0  0  0  0  0
  139.7108   78.8098  220.6230 H   0  0  0  0  0  0  0  0  0  0  0  0
  141.7470   77.8174  218.9651 H   0  0  0  0  0  0  0  0  0  0  0  0
  141.7748   77.6792  220.7057 H   0  0  0  0  0  0  0  0  0  0  0  0
  140.6457   75.5735  218.6585 H   0  0  0  0  0  0  0  0  0  0  0  0
  145.3947   75.7374  219.9848 H   0  0  0  0  0  0  0  0  0  0  0  0
  143.2008   72.1693  220.9946 H   0  0  0  0  0  0  0  0  0  0  0  0
  138.7733   68.6664  223.0281 H   0  0  0  0  0  0  0  0  0  0  0  0
  139.2254   67.4503  225.1461 H   0  0  0  0  0  0  0  0  0  0  0  0
  140.0127   67.4791  227.3595 H   0  0  0  0  0  0  0  0  0  0  0  0
  140.9925   68.6852  229.3226 H   0  0  0  0  0  0  0  0  0  0  0  0
  141.4896   71.1058  229.0845 H   0  0  0  0  0  0  0  0  0  0  0  0
  141.0417   72.3134  226.9792 H   0  0  0  0  0  0  0  0  0  0  0  0
  1  2  2  0
  2  3  1  0
  3  4  1  0
  4  5  1  0
  5  6  2  0
  5  7  1  0
  7  8  1  0
  8  9  1  0
  9 10  1  0
 10 11  1  0
 11 12  1  0
 12 13  2  0
 13 14  1  0
 14 15  2  0
 15 16  1  0
 15 17  1  0
 17 18  2  0
  2 19  1  0
 19 20  2  0
 20 21  1  0
 21 22  2  0
 22 23  1  0
 23 24  2  0
 24 25  1  0
 25 26  2  0
 26 27  1  0
 27 28  2  0
 11  7  1  0
 18 12  1  0
 28 19  1  0
 27 22  1  0
  3 29  1  0
  4 30  1  0
  4 31  1  0
  8 32  1  0
  8 33  1  0
  9 34  1  0
  9 35  1  0
 10 36  1  0
 10 37  1  0
 11 38  1  6
 14 39  1  0
 17 40  1  0
 20 41  1  0
 21 42  1  0
 23 43  1  0
 24 44  1  0
 25 45  1  0
 26 46  1  0
M  END
>  <smiles>  (9) 
O=C(NCC(=O)N1CCC[C@H]1c1ncc(Cl)cn1)c1ccc2ccccc2n1

>  <score_type>  (9) 
oracle

>  <origin>  (9) 
autodockgpu

>  <m_score__min__energy>  (9) 
-8.4100000000000001

>  <m_primary>  (9) 
energy

>  <rmsd>  (9) 
3.0429523999999035

>  <m_score__min__rmsd>  (9) 
3.0429523999999035

>  <meeko>  (9) 
{"free_energy": -7.73, "intermolecular_energy": -9.22, "internal_energy": -2.14, "cluster_size": 6, "cluster_id": 3, "rank_in_cluster": 4}

>  <energy>  (9) 
-8.37

>  <cluster_rmsd>  (9) 
0.3

>  <cluster>  (9) 
1

$$$$

     RDKit          3D

 46 49  0  0  0  0  0  0  0  0999 V2000
  139.4920   74.6230  222.6480 O   0  0  0  0  0  0  0  0  0  0  0  0
  139.9040   75.4890  221.8360 C   0  0  0  0  0  0  0  0  0  0  0  0
  140.2090   75.2140  220.4760 N   0  0  0  0  0  0  0  0  0  0  0  0
  140.0480   73.8410  219.9270 C   0  0  0  0  0  0  0  0  0  0  0  0
  141.3520   73.2840  219.5930 C   0  0  0  0  0  0  0  0  0  0  0  0
  141.3550   72.3880  218.6590 O   0  0  0  0  0  0  0  0  0  0  0  0
  142.6160   73.5690  220.1350 N   0  0  0  0  0  0  0  0  0  0  0  0
  143.3640   72.4810  220.8290 C   0  0  0  0  0  0  0  0  0  0  0  0
  144.7980   72.7800  220.5110 C   0  0  0  0  0  0  0  0  0  0  0  0
  144.8290   74.1430  219.8750 C   0  0  0  0  0  0  0  0  0  0  0  0
  143.4580   74.7100  220.2530 C   0  0  1  0  0  0  0  0  0  0  0  0
  143.1500   75.8890  219.4500 C   0  0  0  0  0  0  0  0  0  0  0  0
  142.4980   76.9260  220.0590 N   0  0  0  0  0  0  0  0  0  0  0  0
  142.1880   78.0680  219.4580 C   0  0  0  0  0  0  0  0  0  0  0  0
  142.5390   78.2490  218.1210 C   0  0  0  0  0  0  0  0  0  0  0  0
  142.1690   79.7190  217.2560 Cl  0  0  0  0  0  0  0  0  0  0  0  0
  143.1980   77.2120  217.4860 C   0  0  0  0  0  0  0  0  0  0  0  0
  143.4740   76.0860  218.1680 N   0  0  0  0  0  0  0  0  0  0  0  0
  140.0850   76.8660  222.3130 C   0  0  0  0  0  0  0  0  0  0  0  0
  139.0130   77.6630  222.6560 C   0  0  0  0  0  0  0  0  0  0  0  0
  139.1620   78.9650  223.1080 C   0  0  0  0  0  0  0  0  0  0  0  0
  140.4500   79.4670  223.2130 C   0  0  0  0  0  0  0  0  0  0  0  0
  140.6070   80.7590  223.6620 C   0  0  0  0  0  0  0  0  0  0  0  0
  141.8720   81.3090  223.7850 C   0  0  0  0  0  0  0  0  0  0  0  0
  142.9440   80.5130  223.4420 C   0  0  0  0  0  0  0  0  0  0  0  0
  142.7880   79.2120  222.9920 C   0  0  0  0  0  0  0  0  0  0  0  0
  141.5120   78.6710  222.8710 C   0  0  0  0  0  0  0  0  0  0  0  0
  141.3140   77.4230  222.4410 N   0  0  0  0  0  0  0  0  0  0  0  0
  140.5470   75.9890  219.8590 H   0  0  0  0  0  0  0  0  0  0  0  0
  139.5604   73.2026  220.6785 H   0  0  0  0  0  0  0  0  0  0  0  0
  139.4296   73.8847  219.0183 H   0  0  0  0  0  0  0  0  0  0  0  0
  143.1874   72.5136  221.9142 H   0  0  0  0  0  0  0  0  0  0  0  0
  143.0551   71.4762  220.5049 H   0  0  0  0  0  0  0  0  0  0  0  0
  145.3982   72.7789  221.4329 H   0  0  0  0  0  0  0  0  0  0  0  0
  145.2184   72.0204  219.8355 H   0  0  0  0  0  0  0  0  0  0  0  0
  145.6422   74.7574  220.2888 H   0  0  0  0  0  0  0  0  0  0  0  0
  145.0123   74.1193  218.7906 H   0  0  0  0  0  0  0  0  0  0  0  0
  143.3514   75.1287  221.2646 H   0  0  0  0  0  0  0  0  0  0  0  0
  141.6608   78.8616  220.0078 H   0  0  0  0  0  0  0  0  0  0  0  0
  143.4942   77.3074  216.4309 H   0  0  0  0  0  0  0  0  0  0  0  0
  137.9980   77.2485  222.5673 H   0  0  0  0  0  0  0  0  0  0  0  0
  138.2886   79.5785  223.3741 H   0  0  0  0  0  0  0  0  0  0  0  0
  139.7225   81.3579  223.9246 H   0  0  0  0  0  0  0  0  0  0  0  0
  142.0156   82.3395  224.1420 H   0  0  0  0  0  0  0  0  0  0  0  0
  143.9599   80.9257  223.5287 H   0  0  0  0  0  0  0  0  0  0  0  0
  143.6701   78.6088  222.7313 H   0  0  0  0  0  0  0  0  0  0  0  0
  1  2  2  0
  2  3  1  0
  3  4  1  0
  4  5  1  0
  5  6  2  0
  5  7  1  0
  7  8  1  0
  8  9  1  0
  9 10  1  0
 10 11  1  0
 11 12  1  0
 12 13  2  0
 13 14  1  0
 14 15  2  0
 15 16  1  0
 15 17  1  0
 17 18  2  0
  2 19  1  0
 19 20  2  0
 20 21  1  0
 21 22  2  0
 22 23  1  0
 23 24  2  0
 24 25  1  0
 25 26  2  0
 26 27  1  0
 27 28  2  0
 11  7  1  0
 18 12  1  0
 28 19  1  0
 27 22  1  0
  3 29  1  0
  4 30  1  0
  4 31  1  0
  8 32  1  0
  8 33  1  0
  9 34  1  0
  9 35  1  0
 10 36  1  0
 10 37  1  0
 11 38  1  1
 14 39  1  0
 17 40  1  0
 20 41  1  0
 21 42  1  0
 23 43  1  0
 24 44  1  0
 25 45  1  0
 26 46  1  0
M  END
>  <smiles>  (10) 
O=C(NCC(=O)N1CCC[C@H]1c1ncc(Cl)cn1)c1ccc2ccccc2n1

>  <score_type>  (10) 
oracle

>  <origin>  (10) 
autodockgpu

>  <m_score__min__energy>  (10) 
-8.4100000000000001

>  <m_primary>  (10) 
energy

>  <rmsd>  (10) 
7.153572552620584

>  <m_score__min__rmsd>  (10) 
7.153572552620584

>  <meeko>  (10) 
{"free_energy": -6.77, "intermolecular_energy": -8.26, "internal_energy": -2.8, "cluster_size": 8, "cluster_id": 7, "rank_in_cluster": 7}

>  <energy>  (10) 
-8.36

>  <cluster_rmsd>  (10) 
0.06

>  <cluster>  (10) 
1

$$$$

     RDKit          3D

 46 49  0  0  0  0  0  0  0  0999 V2000
  141.1100   71.4890  221.4250 O   0  0  0  0  0  0  0  0  0  0  0  0
  140.5060   72.0560  222.3700 C   0  0  0  0  0  0  0  0  0  0  0  0
  140.0670   73.4060  222.3290 N   0  0  0  0  0  0  0  0  0  0  0  0
  140.3080   74.2440  221.1240 C   0  0  0  0  0  0  0  0  0  0  0  0
  140.6330   75.6060  221.5230 C   0  0  0  0  0  0  0  0  0  0  0  0
  140.1040   76.0050  222.6350 O   0  0  0  0  0  0  0  0  0  0  0  0
  141.4370   76.5630  220.8810 N   0  0  0  0  0  0  0  0  0  0  0  0
  142.2740   76.1390  219.7210 C   0  0  0  0  0  0  0  0  0  0  0  0
  142.2750   77.3430  218.8270 C   0  0  0  0  0  0  0  0  0  0  0  0
  141.6650   78.4710  219.6150 C   0  0  0  0  0  0  0  0  0  0  0  0
  141.7380   77.9430  221.0510 C   0  0  1  0  0  0  0  0  0  0  0  0
  140.8910   78.7370  221.9350 C   0  0  0  0  0  0  0  0  0  0  0  0
  139.5420   78.7200  221.7150 N   0  0  0  0  0  0  0  0  0  0  0  0
  138.6560   79.3660  222.4620 C   0  0  0  0  0  0  0  0  0  0  0  0
  139.1020   80.1170  223.5480 C   0  0  0  0  0  0  0  0  0  0  0  0
  138.0040   80.9960  224.5810 Cl  0  0  0  0  0  0  0  0  0  0  0  0
  140.4630   80.1480  223.7880 C   0  0  0  0  0  0  0  0  0  0  0  0
  141.2940   79.4650  222.9810 N   0  0  0  0  0  0  0  0  0  0  0  0
  140.2370   71.2850  223.5910 C   0  0  0  0  0  0  0  0  0  0  0  0
  139.5710   70.0770  223.5540 C   0  0  0  0  0  0  0  0  0  0  0  0
  139.3060   69.3350  224.6950 C   0  0  0  0  0  0  0  0  0  0  0  0
  139.7370   69.8440  225.9100 C   0  0  0  0  0  0  0  0  0  0  0  0
  139.4790   69.1110  227.0470 C   0  0  0  0  0  0  0  0  0  0  0  0
  139.8880   69.5740  228.2860 C   0  0  0  0  0  0  0  0  0  0  0  0
  140.5540   70.7820  228.3230 C   0  0  0  0  0  0  0  0  0  0  0  0
  140.8150   71.5190  227.1790 C   0  0  0  0  0  0  0  0  0  0  0  0
  140.3990   71.0430  225.9400 C   0  0  0  0  0  0  0  0  0  0  0  0
  140.6280   71.7200  224.8120 N   0  0  0  0  0  0  0  0  0  0  0  0
  139.5690   73.8090  223.1570 H   0  0  0  0  0  0  0  0  0  0  0  0
  141.1458   73.8229  220.5488 H   0  0  0  0  0  0  0  0  0  0  0  0
  139.3993   74.2558  220.5041 H   0  0  0  0  0  0  0  0  0  0  0  0
  143.2953   75.8892  220.0443 H   0  0  0  0  0  0  0  0  0  0  0  0
  141.8881   75.2374  219.2228 H   0  0  0  0  0  0  0  0  0  0  0  0
  143.3048   77.5978  218.5363 H   0  0  0  0  0  0  0  0  0  0  0  0
  141.7043   77.1512  217.9064 H   0  0  0  0  0  0  0  0  0  0  0  0
  142.2475   79.3971  219.5010 H   0  0  0  0  0  0  0  0  0  0  0  0
  140.6462   78.7325  219.2932 H   0  0  0  0  0  0  0  0  0  0  0  0
  142.7035   78.0364  221.5698 H   0  0  0  0  0  0  0  0  0  0  0  0
  137.5829   79.3095  222.2271 H   0  0  0  0  0  0  0  0  0  0  0  0
  140.8634   80.7273  224.6331 H   0  0  0  0  0  0  0  0  0  0  0  0
  139.2372   69.6873  222.5810 H   0  0  0  0  0  0  0  0  0  0  0  0
  138.7719   68.3751  224.6378 H   0  0  0  0  0  0  0  0  0  0  0  0
  138.9450   68.1524  226.9703 H   0  0  0  0  0  0  0  0  0  0  0  0
  139.6900   69.0017  229.2043 H   0  0  0  0  0  0  0  0  0  0  0  0
  140.8894   71.1736  229.2947 H   0  0  0  0  0  0  0  0  0  0  0  0
  141.3496   72.4777  227.2505 H   0  0  0  0  0  0  0  0  0  0  0  0
  1  2  2  0
  2  3  1  0
  3  4  1  0
  4  5  1  0
  5  6  2  0
  5  7  1  0
  7  8  1  0
  8  9  1  0
  9 10  1  0
 10 11  1  0
 11 12  1  0
 12 13  2  0
 13 14  1  0
 14 15  2  0
 15 16  1  0
 15 17  1  0
 17 18  2  0
  2 19  1  0
 19 20  2  0
 20 21  1  0
 21 22  2  0
 22 23  1  0
 23 24  2  0
 24 25  1  0
 25 26  2  0
 26 27  1  0
 27 28  2  0
 11  7  1  0
 18 12  1  0
 28 19  1  0
 27 22  1  0
  3 29  1  0
  4 30  1  0
  4 31  1  0
  8 32  1  0
  8 33  1  0
  9 34  1  0
  9 35  1  0
 10 36  1  0
 10 37  1  0
 11 38  1  1
 14 39  1  0
 17 40  1  0
 20 41  1  0
 21 42  1  0
 23 43  1  0
 24 44  1  0
 25 45  1  0
 26 46  1  0
M  END
>  <smiles>  (11) 
O=C(NCC(=O)N1CCC[C@H]1c1ncc(Cl)cn1)c1ccc2ccccc2n1

>  <score_type>  (11) 
oracle

>  <origin>  (11) 
autodockgpu

>  <m_score__min__energy>  (11) 
-8.4100000000000001

>  <m_primary>  (11) 
energy

>  <rmsd>  (11) 
2.235574558907659

>  <m_score__min__rmsd>  (11) 
2.235574558907659

>  <meeko>  (11) 
{"free_energy": -8.36, "intermolecular_energy": -9.85, "internal_energy": -1.74, "cluster_size": 21, "cluster_id": 1, "rank_in_cluster": 10}

>  <energy>  (11) 
-8.36

>  <cluster_rmsd>  (11) 
0.05

>  <cluster>  (11) 
1

$$$$

     RDKit          3D

 46 49  0  0  0  0  0  0  0  0999 V2000
  141.1490   71.4680  221.4430 O   0  0  0  0  0  0  0  0  0  0  0  0
  140.5440   72.0380  222.3850 C   0  0  0  0  0  0  0  0  0  0  0  0
  140.0960   73.3850  222.3350 N   0  0  0  0  0  0  0  0  0  0  0  0
  140.3290   74.2150  221.1220 C   0  0  0  0  0  0  0  0  0  0  0  0
  140.6220   75.5880  221.5090 C   0  0  0  0  0  0  0  0  0  0  0  0
  140.0220   76.0090  222.5760 O   0  0  0  0  0  0  0  0  0  0  0  0
  141.4590   76.5350  220.8970 N   0  0  0  0  0  0  0  0  0  0  0  0
  142.3120   76.1080  219.7500 C   0  0  0  0  0  0  0  0  0  0  0  0
  142.3580   77.3220  218.8720 C   0  0  0  0  0  0  0  0  0  0  0  0
  141.7550   78.4530  219.6600 C   0  0  0  0  0  0  0  0  0  0  0  0
  141.7860   77.9060  221.0900 C   0  0  1  0  0  0  0  0  0  0  0  0
  140.9370   78.7080  221.9660 C   0  0  0  0  0  0  0  0  0  0  0  0
  139.5880   78.6900  221.7420 N   0  0  0  0  0  0  0  0  0  0  0  0
  138.7000   79.3420  222.4820 C   0  0  0  0  0  0  0  0  0  0  0  0
  139.1440   80.1000  223.5630 C   0  0  0  0  0  0  0  0  0  0  0  0
  138.0430   80.9880  224.5870 Cl  0  0  0  0  0  0  0  0  0  0  0  0
  140.5040   80.1320  223.8080 C   0  0  0  0  0  0  0  0  0  0  0  0
  141.3370   79.4420  223.0080 N   0  0  0  0  0  0  0  0  0  0  0  0
  140.2820   71.2750  223.6120 C   0  0  0  0  0  0  0  0  0  0  0  0
  139.6140   70.0680  223.5880 C   0  0  0  0  0  0  0  0  0  0  0  0
  139.3550   69.3330  224.7350 C   0  0  0  0  0  0  0  0  0  0  0  0
  139.7960   69.8480  225.9440 C   0  0  0  0  0  0  0  0  0  0  0  0
  139.5450   69.1240  227.0870 C   0  0  0  0  0  0  0  0  0  0  0  0
  139.9630   69.5930  228.3210 C   0  0  0  0  0  0  0  0  0  0  0  0
  140.6320   70.8000  228.3450 C   0  0  0  0  0  0  0  0  0  0  0  0
  140.8860   71.5290  227.1960 C   0  0  0  0  0  0  0  0  0  0  0  0
  140.4600   71.0470  225.9620 C   0  0  0  0  0  0  0  0  0  0  0  0
  140.6830   71.7170  224.8280 N   0  0  0  0  0  0  0  0  0  0  0  0
  139.5970   73.7910  223.1610 H   0  0  0  0  0  0  0  0  0  0  0  0
  141.1801   73.8056  220.5580 H   0  0  0  0  0  0  0  0  0  0  0  0
  139.4255   74.2008  220.4947 H   0  0  0  0  0  0  0  0  0  0  0  0
  143.3205   75.8326  220.0921 H   0  0  0  0  0  0  0  0  0  0  0  0
  141.9180   75.2212  219.2319 H   0  0  0  0  0  0  0  0  0  0  0  0
  143.3992   77.5582  218.6070 H   0  0  0  0  0  0  0  0  0  0  0  0
  141.8036   77.1535  217.9370 H   0  0  0  0  0  0  0  0  0  0  0  0
  142.3591   79.3679  219.5701 H   0  0  0  0  0  0  0  0  0  0  0  0
  140.7492   78.7404  219.3196 H   0  0  0  0  0  0  0  0  0  0  0  0
  142.7422   77.9717  221.6298 H   0  0  0  0  0  0  0  0  0  0  0  0
  137.6274   79.2846  222.2448 H   0  0  0  0  0  0  0  0  0  0  0  0
  140.9020   80.7169  224.6503 H   0  0  0  0  0  0  0  0  0  0  0  0
  139.2731   69.6727  222.6197 H   0  0  0  0  0  0  0  0  0  0  0  0
  138.8180   68.3742  224.6871 H   0  0  0  0  0  0  0  0  0  0  0  0
  139.0086   68.1660  227.0199 H   0  0  0  0  0  0  0  0  0  0  0  0
  139.7698   69.0269  229.2442 H   0  0  0  0  0  0  0  0  0  0  0  0
  140.9756   71.1968  229.3117 H   0  0  0  0  0  0  0  0  0  0  0  0
  141.4232   72.4869  227.2582 H   0  0  0  0  0  0  0  0  0  0  0  0
  1  2  2  0
  2  3  1  0
  3  4  1  0
  4  5  1  0
  5  6  2  0
  5  7  1  0
  7  8  1  0
  8  9  1  0
  9 10  1  0
 10 11  1  0
 11 12  1  0
 12 13  2  0
 13 14  1  0
 14 15  2  0
 15 16  1  0
 15 17  1  0
 17 18  2  0
  2 19  1  0
 19 20  2  0
 20 21  1  0
 21 22  2  0
 22 23  1  0
 23 24  2  0
 24 25  1  0
 25 26  2  0
 26 27  1  0
 27 28  2  0
 11  7  1  0
 18 12  1  0
 28 19  1  0
 27 22  1  0
  3 29  1  0
  4 30  1  0
  4 31  1  0
  8 32  1  0
  8 33  1  0
  9 34  1  0
  9 35  1  0
 10 36  1  0
 10 37  1  0
 11 38  1  1
 14 39  1  0
 17 40  1  0
 20 41  1  0
 21 42  1  0
 23 43  1  0
 24 44  1  0
 25 45  1  0
 26 46  1  0
M  END
>  <smiles>  (12) 
O=C(NCC(=O)N1CCC[C@H]1c1ncc(Cl)cn1)c1ccc2ccccc2n1

>  <score_type>  (12) 
oracle

>  <origin>  (12) 
autodockgpu

>  <m_score__min__energy>  (12) 
-8.4100000000000001

>  <m_primary>  (12) 
energy

>  <rmsd>  (12) 
2.252857190103276

>  <m_score__min__rmsd>  (12) 
2.252857190103276

>  <meeko>  (12) 
{"free_energy": -8.41, "intermolecular_energy": -9.9, "internal_energy": -1.71, "cluster_size": 21, "cluster_id": 1, "rank_in_cluster": 1}

>  <energy>  (12) 
-8.36

>  <cluster_rmsd>  (12) 
0.29

>  <cluster>  (12) 
1

$$$$

     RDKit          3D

 46 49  0  0  0  0  0  0  0  0999 V2000
  141.1870   71.5260  221.4490 O   0  0  0  0  0  0  0  0  0  0  0  0
  140.5590   72.0850  222.3820 C   0  0  0  0  0  0  0  0  0  0  0  0
  140.1000   73.4280  222.3310 N   0  0  0  0  0  0  0  0  0  0  0  0
  140.3490   74.2680  221.1270 C   0  0  0  0  0  0  0  0  0  0  0  0
  140.7030   75.6210  221.5310 C   0  0  0  0  0  0  0  0  0  0  0  0
  140.2450   76.0000  222.6800 O   0  0  0  0  0  0  0  0  0  0  0  0
  141.4700   76.5870  220.8590 N   0  0  0  0  0  0  0  0  0  0  0  0
  142.2880   76.1690  219.6840 C   0  0  0  0  0  0  0  0  0  0  0  0
  142.2420   77.3620  218.7780 C   0  0  0  0  0  0  0  0  0  0  0  0
  141.6250   78.4850  219.5670 C   0  0  0  0  0  0  0  0  0  0  0  0
  141.7450   77.9760  221.0060 C   0  0  1  0  0  0  0  0  0  0  0  0
  140.9020   78.7620  221.9020 C   0  0  0  0  0  0  0  0  0  0  0  0
  139.5470   78.6840  221.7380 N   0  0  0  0  0  0  0  0  0  0  0  0
  138.6660   79.3160  222.5030 C   0  0  0  0  0  0  0  0  0  0  0  0
  139.1240   80.1160  223.5480 C   0  0  0  0  0  0  0  0  0  0  0  0
  138.0330   80.9820  224.6000 Cl  0  0  0  0  0  0  0  0  0  0  0  0
  140.4920   80.2090  223.7310 C   0  0  0  0  0  0  0  0  0  0  0  0
  141.3170   79.5350  222.9100 N   0  0  0  0  0  0  0  0  0  0  0  0
  140.2800   71.3120  223.5990 C   0  0  0  0  0  0  0  0  0  0  0  0
  139.6110   70.1060  223.5560 C   0  0  0  0  0  0  0  0  0  0  0  0
  139.3370   69.3620  224.6940 C   0  0  0  0  0  0  0  0  0  0  0  0
  139.7620   69.8680  225.9120 C   0  0  0  0  0  0  0  0  0  0  0  0
  139.4950   69.1340  227.0460 C   0  0  0  0  0  0  0  0  0  0  0  0
  139.8970   69.5940  228.2890 C   0  0  0  0  0  0  0  0  0  0  0  0
  140.5650   70.8000  228.3320 C   0  0  0  0  0  0  0  0  0  0  0  0
  140.8360   71.5380  227.1920 C   0  0  0  0  0  0  0  0  0  0  0  0
  140.4260   71.0660  225.9490 C   0  0  0  0  0  0  0  0  0  0  0  0
  140.6650   71.7440  224.8240 N   0  0  0  0  0  0  0  0  0  0  0  0
  139.5810   73.8250  223.1490 H   0  0  0  0  0  0  0  0  0  0  0  0
  141.1744   73.8338  220.5438 H   0  0  0  0  0  0  0  0  0  0  0  0
  139.4367   74.3005  220.5133 H   0  0  0  0  0  0  0  0  0  0  0  0
  143.3219   75.9447  219.9854 H   0  0  0  0  0  0  0  0  0  0  0  0
  141.9097   75.2542  219.2045 H   0  0  0  0  0  0  0  0  0  0  0  0
  143.2591   77.6362  218.4613 H   0  0  0  0  0  0  0  0  0  0  0  0
  141.6550   77.1472  217.8728 H   0  0  0  0  0  0  0  0  0  0  0  0
  142.1828   79.4229  219.4282 H   0  0  0  0  0  0  0  0  0  0  0  0
  140.5930   78.7194  219.2670 H   0  0  0  0  0  0  0  0  0  0  0  0
  142.7207   78.0965  221.4995 H   0  0  0  0  0  0  0  0  0  0  0  0
  137.5875   79.2097  222.3146 H   0  0  0  0  0  0  0  0  0  0  0  0
  140.9019   80.8293  224.5417 H   0  0  0  0  0  0  0  0  0  0  0  0
  139.2818   69.7192  222.5803 H   0  0  0  0  0  0  0  0  0  0  0  0
  138.8009   68.4035  224.6318 H   0  0  0  0  0  0  0  0  0  0  0  0
  138.9593   68.1767  226.9642 H   0  0  0  0  0  0  0  0  0  0  0  0
  139.6918   69.0206  229.2051 H   0  0  0  0  0  0  0  0  0  0  0  0
  140.8942   71.1895  229.3066 H   0  0  0  0  0  0  0  0  0  0  0  0
  141.3738   72.4945  227.2689 H   0  0  0  0  0  0  0  0  0  0  0  0
  1  2  2  0
  2  3  1  0
  3  4  1  0
  4  5  1  0
  5  6  2  0
  5  7  1  0
  7  8  1  0
  8  9  1  0
  9 10  1  0
 10 11  1  0
 11 12  1  0
 12 13  2  0
 13 14  1  0
 14 15  2  0
 15 16  1  0
 15 17  1  0
 17 18  2  0
  2 19  1  0
 19 20  2  0
 20 21  1  0
 21 22  2  0
 22 23  1  0
 23 24  2  0
 24 25  1  0
 25 26  2  0
 26 27  1  0
 27 28  2  0
 11  7  1  0
 18 12  1  0
 28 19  1  0
 27 22  1  0
  3 29  1  0
  4 30  1  0
  4 31  1  0
  8 32  1  0
  8 33  1  0
  9 34  1  0
  9 35  1  0
 10 36  1  0
 10 37  1  0
 11 38  1  1
 14 39  1  0
 17 40  1  0
 20 41  1  0
 21 42  1  0
 23 43  1  0
 24 44  1  0
 25 45  1  0
 26 46  1  0
M  END
>  <smiles>  (13) 
O=C(NCC(=O)N1CCC[C@H]1c1ncc(Cl)cn1)c1ccc2ccccc2n1

>  <score_type>  (13) 
oracle

>  <origin>  (13) 
autodockgpu

>  <m_score__min__energy>  (13) 
-8.4100000000000001

>  <m_primary>  (13) 
energy

>  <rmsd>  (13) 
2.235440816448523

>  <m_score__min__rmsd>  (13) 
2.235440816448523

>  <meeko>  (13) 
{"free_energy": -8.34, "intermolecular_energy": -9.84, "internal_energy": -1.74, "cluster_size": 21, "cluster_id": 1, "rank_in_cluster": 14}

>  <energy>  (13) 
-8.35

>  <cluster_rmsd>  (13) 
0.08

>  <cluster>  (13) 
1

$$$$

     RDKit          3D

 46 49  0  0  0  0  0  0  0  0999 V2000
  141.2190   71.4940  221.4550 O   0  0  0  0  0  0  0  0  0  0  0  0
  140.5760   72.0280  222.3920 C   0  0  0  0  0  0  0  0  0  0  0  0
  140.0970   73.3650  222.3590 N   0  0  0  0  0  0  0  0  0  0  0  0
  140.3400   74.2270  221.1710 C   0  0  0  0  0  0  0  0  0  0  0  0
  140.4640   75.6180  221.5840 C   0  0  0  0  0  0  0  0  0  0  0  0
  139.7520   75.9630  222.6080 O   0  0  0  0  0  0  0  0  0  0  0  0
  141.2410   76.6520  221.0360 N   0  0  0  0  0  0  0  0  0  0  0  0
  142.1930   76.3310  219.9340 C   0  0  0  0  0  0  0  0  0  0  0  0
  142.1740   77.5630  219.0800 C   0  0  0  0  0  0  0  0  0  0  0  0
  141.4240   78.6160  219.8510 C   0  0  0  0  0  0  0  0  0  0  0  0
  141.4260   78.0430  221.2710 C   0  0  1  0  0  0  0  0  0  0  0  0
  140.4580   78.7430  222.1090 C   0  0  0  0  0  0  0  0  0  0  0  0
  140.9350   79.6270  223.0370 N   0  0  0  0  0  0  0  0  0  0  0  0
  140.1670   80.3540  223.8380 C   0  0  0  0  0  0  0  0  0  0  0  0
  138.7820   80.2300  223.7480 C   0  0  0  0  0  0  0  0  0  0  0  0
  137.7000   81.1490  224.7630 Cl  0  0  0  0  0  0  0  0  0  0  0  0
  138.2780   79.3410  222.8150 C   0  0  0  0  0  0  0  0  0  0  0  0
  139.1270   78.6410  222.0420 N   0  0  0  0  0  0  0  0  0  0  0  0
  140.3020   71.2320  223.5960 C   0  0  0  0  0  0  0  0  0  0  0  0
  139.6390   70.0240  223.5310 C   0  0  0  0  0  0  0  0  0  0  0  0
  139.3700   69.2580  224.6550 C   0  0  0  0  0  0  0  0  0  0  0  0
  139.7920   69.7440  225.8820 C   0  0  0  0  0  0  0  0  0  0  0  0
  139.5290   68.9880  227.0030 C   0  0  0  0  0  0  0  0  0  0  0  0
  139.9290   69.4270  228.2540 C   0  0  0  0  0  0  0  0  0  0  0  0
  140.5910   70.6360  228.3180 C   0  0  0  0  0  0  0  0  0  0  0  0
  140.8580   71.3960  227.1920 C   0  0  0  0  0  0  0  0  0  0  0  0
  140.4500   70.9440  225.9410 C   0  0  0  0  0  0  0  0  0  0  0  0
  140.6850   71.6440  224.8280 N   0  0  0  0  0  0  0  0  0  0  0  0
  139.5660   73.7400  223.1800 H   0  0  0  0  0  0  0  0  0  0  0  0
  141.2689   73.9099  220.6744 H   0  0  0  0  0  0  0  0  0  0  0  0
  139.4939   74.1304  220.4747 H   0  0  0  0  0  0  0  0  0  0  0  0
  143.2021   76.1430  220.3294 H   0  0  0  0  0  0  0  0  0  0  0  0
  141.9138   75.4229  219.3796 H   0  0  0  0  0  0  0  0  0  0  0  0
  143.2016   77.9005  218.8795 H   0  0  0  0  0  0  0  0  0  0  0  0
  141.6912   77.3643  218.1118 H   0  0  0  0  0  0  0  0  0  0  0  0
  141.9436   79.5847  219.8114 H   0  0  0  0  0  0  0  0  0  0  0  0
  140.4163   78.8162  219.4579 H   0  0  0  0  0  0  0  0  0  0  0  0
  142.3397   78.1853  221.8668 H   0  0  0  0  0  0  0  0  0  0  0  0
  140.6180   81.0462  224.5643 H   0  0  0  0  0  0  0  0  0  0  0  0
  137.1915   79.2080  222.7065 H   0  0  0  0  0  0  0  0  0  0  0  0
  139.3108   69.6538  222.5486 H   0  0  0  0  0  0  0  0  0  0  0  0
  138.8398   68.2975  224.5753 H   0  0  0  0  0  0  0  0  0  0  0  0
  138.9980   68.0297  226.9039 H   0  0  0  0  0  0  0  0  0  0  0  0
  139.7273   68.8361  229.1596 H   0  0  0  0  0  0  0  0  0  0  0  0
  140.9185   71.0096  229.2994 H   0  0  0  0  0  0  0  0  0  0  0  0
  141.3908   72.3538  227.2861 H   0  0  0  0  0  0  0  0  0  0  0  0
  1  2  2  0
  2  3  1  0
  3  4  1  0
  4  5  1  0
  5  6  2  0
  5  7  1  0
  7  8  1  0
  8  9  1  0
  9 10  1  0
 10 11  1  0
 11 12  1  0
 12 13  2  0
 13 14  1  0
 14 15  2  0
 15 16  1  0
 15 17  1  0
 17 18  2  0
  2 19  1  0
 19 20  2  0
 20 21  1  0
 21 22  2  0
 22 23  1  0
 23 24  2  0
 24 25  1  0
 25 26  2  0
 26 27  1  0
 27 28  2  0
 11  7  1  0
 18 12  1  0
 28 19  1  0
 27 22  1  0
  3 29  1  0
  4 30  1  0
  4 31  1  0
  8 32  1  0
  8 33  1  0
  9 34  1  0
  9 35  1  0
 10 36  1  0
 10 37  1  0
 11 38  1  1
 14 39  1  0
 17 40  1  0
 20 41  1  0
 21 42  1  0
 23 43  1  0
 24 44  1  0
 25 45  1  0
 26 46  1  0
M  END
>  <smiles>  (14) 
O=C(NCC(=O)N1CCC[C@H]1c1ncc(Cl)cn1)c1ccc2ccccc2n1

>  <score_type>  (14) 
oracle

>  <origin>  (14) 
autodockgpu

>  <m_score__min__energy>  (14) 
-8.4100000000000001

>  <m_primary>  (14) 
energy

>  <rmsd>  (14) 
2.3316230658068497

>  <m_score__min__rmsd>  (14) 
2.3316230658068497

>  <meeko>  (14) 
{"free_energy": -8.36, "intermolecular_energy": -9.85, "internal_energy": -1.7, "cluster_size": 21, "cluster_id": 1, "rank_in_cluster": 12}

>  <energy>  (14) 
-8.34

>  <cluster_rmsd>  (14) 
0.09

>  <cluster>  (14) 
1

$$$$

     RDKit          3D

 46 49  0  0  0  0  0  0  0  0999 V2000
  141.1370   71.4460  221.4380 O   0  0  0  0  0  0  0  0  0  0  0  0
  140.5420   72.0210  222.3830 C   0  0  0  0  0  0  0  0  0  0  0  0
  140.1030   73.3710  222.3350 N   0  0  0  0  0  0  0  0  0  0  0  0
  140.3350   74.1990  221.1210 C   0  0  0  0  0  0  0  0  0  0  0  0
  140.6470   75.5680  221.5050 C   0  0  0  0  0  0  0  0  0  0  0  0
  140.1010   75.9790  222.6040 O   0  0  0  0  0  0  0  0  0  0  0  0
  141.4540   76.5210  220.8620 N   0  0  0  0  0  0  0  0  0  0  0  0
  142.2810   76.0950  219.6960 C   0  0  0  0  0  0  0  0  0  0  0  0
  142.2860   77.3020  218.8060 C   0  0  0  0  0  0  0  0  0  0  0  0
  141.6880   78.4320  219.6000 C   0  0  0  0  0  0  0  0  0  0  0  0
  141.7660   77.8990  221.0340 C   0  0  1  0  0  0  0  0  0  0  0  0
  140.9310   78.6960  221.9250 C   0  0  0  0  0  0  0  0  0  0  0  0
  139.5810   78.6990  221.7060 N   0  0  0  0  0  0  0  0  0  0  0  0
  138.7040   79.3510  222.4590 C   0  0  0  0  0  0  0  0  0  0  0  0
  139.1620   80.0860  223.5510 C   0  0  0  0  0  0  0  0  0  0  0  0
  138.0760   80.9710  224.5930 Cl  0  0  0  0  0  0  0  0  0  0  0  0
  140.5230   80.0960  223.7920 C   0  0  0  0  0  0  0  0  0  0  0  0
  141.3440   79.4090  222.9780 N   0  0  0  0  0  0  0  0  0  0  0  0
  140.2810   71.2600  223.6120 C   0  0  0  0  0  0  0  0  0  0  0  0
  139.6050   70.0580  223.5920 C   0  0  0  0  0  0  0  0  0  0  0  0
  139.3480   69.3250  224.7410 C   0  0  0  0  0  0  0  0  0  0  0  0
  139.7980   69.8390  225.9470 C   0  0  0  0  0  0  0  0  0  0  0  0
  139.5480   69.1160  227.0920 C   0  0  0  0  0  0  0  0  0  0  0  0
  139.9760   69.5840  228.3240 C   0  0  0  0  0  0  0  0  0  0  0  0
  140.6510   70.7870  228.3440 C   0  0  0  0  0  0  0  0  0  0  0  0
  140.9050   71.5140  227.1920 C   0  0  0  0  0  0  0  0  0  0  0  0
  140.4690   71.0330  225.9610 C   0  0  0  0  0  0  0  0  0  0  0  0
  140.6910   71.7010  224.8260 N   0  0  0  0  0  0  0  0  0  0  0  0
  139.6120   73.7810  223.1630 H   0  0  0  0  0  0  0  0  0  0  0  0
  141.1764   73.7801  220.5495 H   0  0  0  0  0  0  0  0  0  0  0  0
  139.4256   74.1956  220.5021 H   0  0  0  0  0  0  0  0  0  0  0  0
  143.3023   75.8365  220.0126 H   0  0  0  0  0  0  0  0  0  0  0  0
  141.8854   75.1981  219.1969 H   0  0  0  0  0  0  0  0  0  0  0  0
  143.3162   77.5504  218.5110 H   0  0  0  0  0  0  0  0  0  0  0  0
  141.7091   77.1170  217.8878 H   0  0  0  0  0  0  0  0  0  0  0  0
  142.2759   79.3546  219.4852 H   0  0  0  0  0  0  0  0  0  0  0  0
  140.6692   78.7016  219.2847 H   0  0  0  0  0  0  0  0  0  0  0  0
  142.7354   77.9837  221.5469 H   0  0  0  0  0  0  0  0  0  0  0  0
  137.6300   79.3118  222.2244 H   0  0  0  0  0  0  0  0  0  0  0  0
  140.9313   80.6613  224.6427 H   0  0  0  0  0  0  0  0  0  0  0  0
  139.2556   69.6649  222.6259 H   0  0  0  0  0  0  0  0  0  0  0  0
  138.8059   68.3689  224.6967 H   0  0  0  0  0  0  0  0  0  0  0  0
  139.0053   68.1613  227.0282 H   0  0  0  0  0  0  0  0  0  0  0  0
  139.7853   69.0193  229.2485 H   0  0  0  0  0  0  0  0  0  0  0  0
  141.0001   71.1833  229.3089 H   0  0  0  0  0  0  0  0  0  0  0  0
  141.4494   72.4681  227.2503 H   0  0  0  0  0  0  0  0  0  0  0  0
  1  2  2  0
  2  3  1  0
  3  4  1  0
  4  5  1  0
  5  6  2  0
  5  7  1  0
  7  8  1  0
  8  9  1  0
  9 10  1  0
 10 11  1  0
 11 12  1  0
 12 13  2  0
 13 14  1  0
 14 15  2  0
 15 16  1  0
 15 17  1  0
 17 18  2  0
  2 19  1  0
 19 20  2  0
 20 21  1  0
 21 22  2  0
 22 23  1  0
 23 24  2  0
 24 25  1  0
 25 26  2  0
 26 27  1  0
 27 28  2  0
 11  7  1  0
 18 12  1  0
 28 19  1  0
 27 22  1  0
  3 29  1  0
  4 30  1  0
  4 31  1  0
  8 32  1  0
  8 33  1  0
  9 34  1  0
  9 35  1  0
 10 36  1  0
 10 37  1  0
 11 38  1  1
 14 39  1  0
 17 40  1  0
 20 41  1  0
 21 42  1  0
 23 43  1  0
 24 44  1  0
 25 45  1  0
 26 46  1  0
M  END
>  <smiles>  (15) 
O=C(NCC(=O)N1CCC[C@H]1c1ncc(Cl)cn1)c1ccc2ccccc2n1

>  <score_type>  (15) 
oracle

>  <origin>  (15) 
autodockgpu

>  <m_score__min__energy>  (15) 
-8.4100000000000001

>  <m_primary>  (15) 
energy

>  <rmsd>  (15) 
2.227785296740236

>  <m_score__min__rmsd>  (15) 
2.227785296740236

>  <meeko>  (15) 
{"free_energy": -8.38, "intermolecular_energy": -9.87, "internal_energy": -1.74, "cluster_size": 21, "cluster_id": 1, "rank_in_cluster": 6}

>  <energy>  (15) 
-8.32

>  <cluster_rmsd>  (15) 
0.1

>  <cluster>  (15) 
1

$$$$

     RDKit          3D

 46 49  0  0  0  0  0  0  0  0999 V2000
  139.5360   71.2660  221.2670 O   0  0  0  0  0  0  0  0  0  0  0  0
  139.5890   71.9390  222.3260 C   0  0  0  0  0  0  0  0  0  0  0  0
  139.5190   73.3580  222.3640 N   0  0  0  0  0  0  0  0  0  0  0  0
  139.3750   74.1420  221.1080 C   0  0  0  0  0  0  0  0  0  0  0  0
  140.5260   75.0160  220.9330 C   0  0  0  0  0  0  0  0  0  0  0  0
  141.3020   75.1320  221.9620 O   0  0  0  0  0  0  0  0  0  0  0  0
  140.9270   75.7610  219.8120 N   0  0  0  0  0  0  0  0  0  0  0  0
  140.7460   75.1730  218.4540 C   0  0  0  0  0  0  0  0  0  0  0  0
  140.4360   76.3600  217.5920 C   0  0  0  0  0  0  0  0  0  0  0  0
  140.6980   77.5840  218.4260 C   0  0  0  0  0  0  0  0  0  0  0  0
  141.5420   77.0220  219.5730 C   0  0  1  0  0  0  0  0  0  0  0  0
  141.6190   77.9790  220.6720 C   0  0  0  0  0  0  0  0  0  0  0  0
  141.9070   79.2810  220.3690 N   0  0  0  0  0  0  0  0  0  0  0  0
  141.9730   80.2590  221.2630 C   0  0  0  0  0  0  0  0  0  0  0  0
  141.7360   79.9670  222.6060 C   0  0  0  0  0  0  0  0  0  0  0  0
  141.8020   81.1940  223.8460 Cl  0  0  0  0  0  0  0  0  0  0  0  0
  141.4430   78.6570  222.9350 C   0  0  0  0  0  0  0  0  0  0  0  0
  141.3970   77.7250  221.9660 N   0  0  0  0  0  0  0  0  0  0  0  0
  139.7310   71.2270  223.6020 C   0  0  0  0  0  0  0  0  0  0  0  0
  139.3350   69.9130  223.7490 C   0  0  0  0  0  0  0  0  0  0  0  0
  139.4600   69.2230  224.9450 C   0  0  0  0  0  0  0  0  0  0  0  0
  140.0090   69.8980  226.0240 C   0  0  0  0  0  0  0  0  0  0  0  0
  140.1380   69.2190  227.2150 C   0  0  0  0  0  0  0  0  0  0  0  0
  140.6800   69.8470  228.3240 C   0  0  0  0  0  0  0  0  0  0  0  0
  141.0770   71.1600  228.1770 C   0  0  0  0  0  0  0  0  0  0  0  0
  140.9490   71.8440  226.9800 C   0  0  0  0  0  0  0  0  0  0  0  0
  140.4020   71.2030  225.8730 C   0  0  0  0  0  0  0  0  0  0  0  0
  140.2590   71.8220  224.6980 N   0  0  0  0  0  0  0  0  0  0  0  0
  139.5690   73.8490  223.2870 H   0  0  0  0  0  0  0  0  0  0  0  0
  139.3078   73.4524  220.2536 H   0  0  0  0  0  0  0  0  0  0  0  0
  138.4624   74.7534  221.1661 H   0  0  0  0  0  0  0  0  0  0  0  0
  141.6660   74.6730  218.1171 H   0  0  0  0  0  0  0  0  0  0  0  0
  139.9583   74.4058  218.4228 H   0  0  0  0  0  0  0  0  0  0  0  0
  141.0839   76.3618  216.7031 H   0  0  0  0  0  0  0  0  0  0  0  0
  139.3921   76.3344  217.2462 H   0  0  0  0  0  0  0  0  0  0  0  0
  141.2546   78.3427  217.8563 H   0  0  0  0  0  0  0  0  0  0  0  0
  139.7823   78.0932  218.7611 H   0  0  0  0  0  0  0  0  0  0  0  0
  142.6126   76.8646  219.3753 H   0  0  0  0  0  0  0  0  0  0  0  0
  142.2114   81.2860  220.9493 H   0  0  0  0  0  0  0  0  0  0  0  0
  141.2489   78.3786  223.9813 H   0  0  0  0  0  0  0  0  0  0  0  0
  138.9027   69.3921  222.8820 H   0  0  0  0  0  0  0  0  0  0  0  0
  139.1347   68.1760  225.0346 H   0  0  0  0  0  0  0  0  0  0  0  0
  139.8087   68.1719  227.2860 H   0  0  0  0  0  0  0  0  0  0  0  0
  140.7895   69.3201  229.2834 H   0  0  0  0  0  0  0  0  0  0  0  0
  141.5110   71.6825  229.0422 H   0  0  0  0  0  0  0  0  0  0  0  0
  141.2787   72.8907  226.9045 H   0  0  0  0  0  0  0  0  0  0  0  0
  1  2  2  0
  2  3  1  0
  3  4  1  0
  4  5  1  0
  5  6  2  0
  5  7  1  0
  7  8  1  0
  8  9  1  0
  9 10  1  0
 10 11  1  0
 11 12  1  0
 12 13  2  0
 13 14  1  0
 14 15  2  0
 15 16  1  0
 15 17  1  0
 17 18  2  0
  2 19  1  0
 19 20  2  0
 20 21  1  0
 21 22  2  0
 22 23  1  0
 23 24  2  0
 24 25  1  0
 25 26  2  0
 26 27  1  0
 27 28  2  0
 11  7  1  0
 18 12  1  0
 28 19  1  0
 27 22  1  0
  3 29  1  0
  4 30  1  0
  4 31  1  0
  8 32  1  0
  8 33  1  0
  9 34  1  0
  9 35  1  0
 10 36  1  0
 10 37  1  0
 11 38  1  6
 14 39  1  0
 17 40  1  0
 20 41  1  0
 21 42  1  0
 23 43  1  0
 24 44  1  0
 25 45  1  0
 26 46  1  0
M  END
>  <smiles>  (16) 
O=C(NCC(=O)N1CCC[C@H]1c1ncc(Cl)cn1)c1ccc2ccccc2n1

>  <score_type>  (16) 
oracle

>  <origin>  (16) 
autodockgpu

>  <m_score__min__energy>  (16) 
-8.4100000000000001

>  <m_primary>  (16) 
energy

>  <rmsd>  (16) 
1.551380372156326

>  <m_score__min__rmsd>  (16) 
1.551380372156326

>  <meeko>  (16) 
{"free_energy": -8.02, "intermolecular_energy": -9.51, "internal_energy": -1.58, "cluster_size": 21, "cluster_id": 1, "rank_in_cluster": 20}

>  <energy>  (16) 
-8.32

>  <cluster_rmsd>  (16) 
0.29

>  <cluster>  (16) 
1

$$$$

     RDKit          3D

 46 49  0  0  0  0  0  0  0  0999 V2000
  138.2370   70.6840  221.8150 O   0  0  0  0  0  0  0  0  0  0  0  0
  138.8510   71.2820  222.7340 C   0  0  0  0  0  0  0  0  0  0  0  0
  139.1870   72.6610  222.6920 N   0  0  0  0  0  0  0  0  0  0  0  0
  138.8140   73.4950  221.5170 C   0  0  0  0  0  0  0  0  0  0  0  0
  138.8200   74.9040  221.8850 C   0  0  0  0  0  0  0  0  0  0  0  0
  139.7540   75.2640  222.7060 O   0  0  0  0  0  0  0  0  0  0  0  0
  137.9600   75.9400  221.4870 N   0  0  0  0  0  0  0  0  0  0  0  0
  136.5610   75.6050  221.0940 C   0  0  0  0  0  0  0  0  0  0  0  0
  135.7690   76.7910  221.5560 C   0  0  0  0  0  0  0  0  0  0  0  0
  136.7620   77.8480  221.9560 C   0  0  0  0  0  0  0  0  0  0  0  0
  138.0530   77.3480  221.3010 C   0  0  1  0  0  0  0  0  0  0  0  0
  139.2110   78.0480  221.8470 C   0  0  0  0  0  0  0  0  0  0  0  0
  139.0070   78.9070  222.8910 N   0  0  0  0  0  0  0  0  0  0  0  0
  139.9730   79.5800  223.5030 C   0  0  0  0  0  0  0  0  0  0  0  0
  141.2900   79.4170  223.0750 C   0  0  0  0  0  0  0  0  0  0  0  0
  142.6200   80.2630  223.8260 Cl  0  0  0  0  0  0  0  0  0  0  0  0
  141.5190   78.5530  222.0210 C   0  0  0  0  0  0  0  0  0  0  0  0
  140.4820   77.9100  221.4550 N   0  0  0  0  0  0  0  0  0  0  0  0
  139.2490   70.5170  223.9230 C   0  0  0  0  0  0  0  0  0  0  0  0
  139.1000   69.1470  223.9880 C   0  0  0  0  0  0  0  0  0  0  0  0
  139.4680   68.4070  225.1010 C   0  0  0  0  0  0  0  0  0  0  0  0
  140.0060   69.0900  226.1800 C   0  0  0  0  0  0  0  0  0  0  0  0
  140.3760   68.3620  227.2890 C   0  0  0  0  0  0  0  0  0  0  0  0
  140.9180   68.9950  228.3950 C   0  0  0  0  0  0  0  0  0  0  0  0
  141.0680   70.3650  228.3290 C   0  0  0  0  0  0  0  0  0  0  0  0
  140.6980   71.0990  227.2140 C   0  0  0  0  0  0  0  0  0  0  0  0
  140.1530   70.4510  226.1100 C   0  0  0  0  0  0  0  0  0  0  0  0
  139.7810   71.1170  225.0140 N   0  0  0  0  0  0  0  0  0  0  0  0
  139.6990   73.0900  223.4980 H   0  0  0  0  0  0  0  0  0  0  0  0
  139.5383   73.3270  220.7063 H   0  0  0  0  0  0  0  0  0  0  0  0
  137.8053   73.2139  221.1799 H   0  0  0  0  0  0  0  0  0  0  0  0
  136.4791   75.4789  220.0043 H   0  0  0  0  0  0  0  0  0  0  0  0
  136.2093   74.6599  221.5333 H   0  0  0  0  0  0  0  0  0  0  0  0
  135.1303   77.1608  220.7404 H   0  0  0  0  0  0  0  0  0  0  0  0
  135.1151   76.5245  222.3994 H   0  0  0  0  0  0  0  0  0  0  0  0
  136.4730   78.8345  221.5646 H   0  0  0  0  0  0  0  0  0  0  0  0
  136.8448   77.9851  223.0443 H   0  0  0  0  0  0  0  0  0  0  0  0
  138.1847   77.5584  220.2294 H   0  0  0  0  0  0  0  0  0  0  0  0
  139.7380   80.2576  224.3370 H   0  0  0  0  0  0  0  0  0  0  0  0
  142.5412   78.3924  221.6479 H   0  0  0  0  0  0  0  0  0  0  0  0
  138.6721   68.6208  223.1220 H   0  0  0  0  0  0  0  0  0  0  0  0
  139.3374   67.3151  225.1267 H   0  0  0  0  0  0  0  0  0  0  0  0
  140.2401   67.2705  227.2963 H   0  0  0  0  0  0  0  0  0  0  0  0
  141.2167   68.4288  229.2895 H   0  0  0  0  0  0  0  0  0  0  0  0
  141.4969   70.8935  229.1931 H   0  0  0  0  0  0  0  0  0  0  0  0
  140.8346   72.1904  227.2015 H   0  0  0  0  0  0  0  0  0  0  0  0
  1  2  2  0
  2  3  1  0
  3  4  1  0
  4  5  1  0
  5  6  2  0
  5  7  1  0
  7  8  1  0
  8  9  1  0
  9 10  1  0
 10 11  1  0
 11 12  1  0
 12 13  2  0
 13 14  1  0
 14 15  2  0
 15 16  1  0
 15 17  1  0
 17 18  2  0
  2 19  1  0
 19 20  2  0
 20 21  1  0
 21 22  2  0
 22 23  1  0
 23 24  2  0
 24 25  1  0
 25 26  2  0
 26 27  1  0
 27 28  2  0
 11  7  1  0
 18 12  1  0
 28 19  1  0
 27 22  1  0
  3 29  1  0
  4 30  1  0
  4 31  1  0
  8 32  1  0
  8 33  1  0
  9 34  1  0
  9 35  1  0
 10 36  1  0
 10 37  1  0
 11 38  1  6
 14 39  1  0
 17 40  1  0
 20 41  1  0
 21 42  1  0
 23 43  1  0
 24 44  1  0
 25 45  1  0
 26 46  1  0
M  END
>  <smiles>  (17) 
O=C(NCC(=O)N1CCC[C@H]1c1ncc(Cl)cn1)c1ccc2ccccc2n1

>  <score_type>  (17) 
oracle

>  <origin>  (17) 
autodockgpu

>  <m_score__min__energy>  (17) 
-8.4100000000000001

>  <m_primary>  (17) 
energy

>  <rmsd>  (17) 
2.724180563231374

>  <m_score__min__rmsd>  (17) 
2.724180563231374

>  <meeko>  (17) 
{"free_energy": -7.73, "intermolecular_energy": -9.22, "internal_energy": -1.97, "cluster_size": 11, "cluster_id": 2, "rank_in_cluster": 11}

>  <energy>  (17) 
-8.31

>  <cluster_rmsd>  (17) 
0.3

>  <cluster>  (17) 
1

$$$$

     RDKit          3D

 46 49  0  0  0  0  0  0  0  0999 V2000
  139.9730   70.8940  221.3240 O   0  0  0  0  0  0  0  0  0  0  0  0
  139.9500   71.5060  222.4210 C   0  0  0  0  0  0  0  0  0  0  0  0
  139.9460   72.9210  222.5360 N   0  0  0  0  0  0  0  0  0  0  0  0
  139.9690   73.7790  221.3200 C   0  0  0  0  0  0  0  0  0  0  0  0
  140.2280   75.1620  221.6930 C   0  0  0  0  0  0  0  0  0  0  0  0
  139.5180   75.6200  222.6740 O   0  0  0  0  0  0  0  0  0  0  0  0
  141.1360   76.0850  221.1470 N   0  0  0  0  0  0  0  0  0  0  0  0
  142.0860   75.6240  220.0940 C   0  0  0  0  0  0  0  0  0  0  0  0
  142.2350   76.8220  219.2040 C   0  0  0  0  0  0  0  0  0  0  0  0
  141.5790   77.9760  219.9130 C   0  0  0  0  0  0  0  0  0  0  0  0
  141.4660   77.4550  221.3480 C   0  0  1  0  0  0  0  0  0  0  0  0
  140.5520   78.2850  222.1260 C   0  0  0  0  0  0  0  0  0  0  0  0
  141.0880   79.1220  223.0640 N   0  0  0  0  0  0  0  0  0  0  0  0
  140.3780   79.9540  223.8150 C   0  0  0  0  0  0  0  0  0  0  0  0
  138.9940   79.9990  223.6560 C   0  0  0  0  0  0  0  0  0  0  0  0
  137.9850   81.0640  224.6020 Cl  0  0  0  0  0  0  0  0  0  0  0  0
  138.4300   79.1600  222.7120 C   0  0  0  0  0  0  0  0  0  0  0  0
  139.2230   78.3460  221.9920 N   0  0  0  0  0  0  0  0  0  0  0  0
  139.9270   70.7180  223.6610 C   0  0  0  0  0  0  0  0  0  0  0  0
  139.4130   69.4390  223.6990 C   0  0  0  0  0  0  0  0  0  0  0  0
  139.3810   68.6800  224.8580 C   0  0  0  0  0  0  0  0  0  0  0  0
  139.8910   69.2480  226.0150 C   0  0  0  0  0  0  0  0  0  0  0  0
  139.8640   68.5000  227.1710 C   0  0  0  0  0  0  0  0  0  0  0  0
  140.3610   69.0210  228.3540 C   0  0  0  0  0  0  0  0  0  0  0  0
  140.8750   70.3000  228.3160 C   0  0  0  0  0  0  0  0  0  0  0  0
  140.9040   71.0530  227.1540 C   0  0  0  0  0  0  0  0  0  0  0  0
  140.4010   70.5200  225.9720 C   0  0  0  0  0  0  0  0  0  0  0  0
  140.4080   71.2090  224.8280 N   0  0  0  0  0  0  0  0  0  0  0  0
  139.9240   73.3590  223.4860 H   0  0  0  0  0  0  0  0  0  0  0  0
  140.7619   73.4296  220.6423 H   0  0  0  0  0  0  0  0  0  0  0  0
  138.9936   73.7171  220.8152 H   0  0  0  0  0  0  0  0  0  0  0  0
  143.0529   75.3395  220.5347 H   0  0  0  0  0  0  0  0  0  0  0  0
  141.7283   74.7338  219.5559 H   0  0  0  0  0  0  0  0  0  0  0  0
  143.3003   77.0378  219.0350 H   0  0  0  0  0  0  0  0  0  0  0  0
  141.7687   76.6452  218.2235 H   0  0  0  0  0  0  0  0  0  0  0  0
  142.2038   78.8800  219.8654 H   0  0  0  0  0  0  0  0  0  0  0  0
  140.6146   78.2718  219.4744 H   0  0  0  0  0  0  0  0  0  0  0  0
  142.3677   77.5163  221.9751 H   0  0  0  0  0  0  0  0  0  0  0  0
  140.8752   80.6000  224.5536 H   0  0  0  0  0  0  0  0  0  0  0  0
  137.3418   79.1584  222.5513 H   0  0  0  0  0  0  0  0  0  0  0  0
  139.0121   69.0036  222.7718 H   0  0  0  0  0  0  0  0  0  0  0  0
  138.9651   67.6617  224.8598 H   0  0  0  0  0  0  0  0  0  0  0  0
  139.4453   67.4829  227.1546 H   0  0  0  0  0  0  0  0  0  0  0  0
  140.3463   68.4379  229.2866 H   0  0  0  0  0  0  0  0  0  0  0  0
  141.2764   70.7379  229.2418 H   0  0  0  0  0  0  0  0  0  0  0  0
  141.3237   72.0697  227.1659 H   0  0  0  0  0  0  0  0  0  0  0  0
  1  2  2  0
  2  3  1  0
  3  4  1  0
  4  5  1  0
  5  6  2  0
  5  7  1  0
  7  8  1  0
  8  9  1  0
  9 10  1  0
 10 11  1  0
 11 12  1  0
 12 13  2  0
 13 14  1  0
 14 15  2  0
 15 16  1  0
 15 17  1  0
 17 18  2  0
  2 19  1  0
 19 20  2  0
 20 21  1  0
 21 22  2  0
 22 23  1  0
 23 24  2  0
 24 25  1  0
 25 26  2  0
 26 27  1  0
 27 28  2  0
 11  7  1  0
 18 12  1  0
 28 19  1  0
 27 22  1  0
  3 29  1  0
  4 30  1  0
  4 31  1  0
  8 32  1  0
  8 33  1  0
  9 34  1  0
  9 35  1  0
 10 36  1  0
 10 37  1  0
 11 38  1  1
 14 39  1  0
 17 40  1  0
 20 41  1  0
 21 42  1  0
 23 43  1  0
 24 44  1  0
 25 45  1  0
 26 46  1  0
M  END
>  <smiles>  (18) 
O=C(NCC(=O)N1CCC[C@H]1c1ncc(Cl)cn1)c1ccc2ccccc2n1

>  <score_type>  (18) 
oracle

>  <origin>  (18) 
autodockgpu

>  <m_score__min__energy>  (18) 
-8.4100000000000001

>  <m_primary>  (18) 
energy

>  <rmsd>  (18) 
2.0983660141503404

>  <m_score__min__rmsd>  (18) 
2.0983660141503404

>  <meeko>  (18) 
{"free_energy": -8.17, "intermolecular_energy": -9.66, "internal_energy": -1.68, "cluster_size": 21, "cluster_id": 1, "rank_in_cluster": 19}

>  <energy>  (18) 
-8.2

>  <cluster_rmsd>  (18) 
0.59

>  <cluster>  (18) 
1

$$$$

     RDKit          3D

 46 49  0  0  0  0  0  0  0  0999 V2000
  139.9650   71.3250  221.2280 O   0  0  0  0  0  0  0  0  0  0  0  0
  139.8510   71.9940  222.2850 C   0  0  0  0  0  0  0  0  0  0  0  0
  139.6590   73.4010  222.3120 N   0  0  0  0  0  0  0  0  0  0  0  0
  139.5790   74.1790  221.0460 C   0  0  0  0  0  0  0  0  0  0  0  0
  140.3540   75.4060  221.1670 C   0  0  0  0  0  0  0  0  0  0  0  0
  140.6190   75.7830  222.3760 O   0  0  0  0  0  0  0  0  0  0  0  0
  140.8600   76.2510  220.1660 N   0  0  0  0  0  0  0  0  0  0  0  0
  140.3240   77.6380  220.0550 C   0  0  0  0  0  0  0  0  0  0  0  0
  141.5080   78.4410  219.6060 C   0  0  0  0  0  0  0  0  0  0  0  0
  142.5870   77.4570  219.2390 C   0  0  0  0  0  0  0  0  0  0  0  0
  141.8030   76.1490  219.1040 C   0  0  1  0  0  0  0  0  0  0  0  0
  142.7100   75.0060  219.0850 C   0  0  0  0  0  0  0  0  0  0  0  0
  143.6530   74.9200  220.0720 N   0  0  0  0  0  0  0  0  0  0  0  0
  144.5150   73.9190  220.1940 C   0  0  0  0  0  0  0  0  0  0  0  0
  144.4780   72.8740  219.2730 C   0  0  0  0  0  0  0  0  0  0  0  0
  145.5760   71.5200  219.3620 Cl  0  0  0  0  0  0  0  0  0  0  0  0
  143.5310   72.9410  218.2670 C   0  0  0  0  0  0  0  0  0  0  0  0
  142.6940   73.9920  218.2140 N   0  0  0  0  0  0  0  0  0  0  0  0
  139.9210   71.2880  223.5720 C   0  0  0  0  0  0  0  0  0  0  0  0
  139.4930   69.9840  223.7080 C   0  0  0  0  0  0  0  0  0  0  0  0
  139.5490   69.3010  224.9130 C   0  0  0  0  0  0  0  0  0  0  0  0
  140.0620   69.9730  226.0110 C   0  0  0  0  0  0  0  0  0  0  0  0
  140.1230   69.3000  227.2110 C   0  0  0  0  0  0  0  0  0  0  0  0
  140.6260   69.9250  228.3400 C   0  0  0  0  0  0  0  0  0  0  0  0
  141.0550   71.2290  228.2040 C   0  0  0  0  0  0  0  0  0  0  0  0
  140.9960   71.9060  226.9970 C   0  0  0  0  0  0  0  0  0  0  0  0
  140.4870   71.2680  225.8700 C   0  0  0  0  0  0  0  0  0  0  0  0
  140.4100   71.8820  224.6870 N   0  0  0  0  0  0  0  0  0  0  0  0
  139.5720   73.8900  223.2340 H   0  0  0  0  0  0  0  0  0  0  0  0
  139.9812   73.5738  220.2202 H   0  0  0  0  0  0  0  0  0  0  0  0
  138.5281   74.4335  220.8438 H   0  0  0  0  0  0  0  0  0  0  0  0
  139.5128   77.6870  219.3137 H   0  0  0  0  0  0  0  0  0  0  0  0
  139.8923   78.0052  220.9978 H   0  0  0  0  0  0  0  0  0  0  0  0
  141.2408   79.0535  218.7322 H   0  0  0  0  0  0  0  0  0  0  0  0
  141.8479   79.1213  220.4008 H   0  0  0  0  0  0  0  0  0  0  0  0
  143.0705   77.7315  218.2898 H   0  0  0  0  0  0  0  0  0  0  0  0
  143.4053   77.4065  219.9724 H   0  0  0  0  0  0  0  0  0  0  0  0
  141.2614   75.9850  218.1607 H   0  0  0  0  0  0  0  0  0  0  0  0
  145.2501   73.9140  221.0123 H   0  0  0  0  0  0  0  0  0  0  0  0
  143.4631   72.1403  217.5158 H   0  0  0  0  0  0  0  0  0  0  0  0
  139.0912   69.4653  222.8251 H   0  0  0  0  0  0  0  0  0  0  0  0
  139.1984   68.2616  224.9948 H   0  0  0  0  0  0  0  0  0  0  0  0
  139.7702   68.2600  227.2732 H   0  0  0  0  0  0  0  0  0  0  0  0
  140.6812   69.4025  229.3064 H   0  0  0  0  0  0  0  0  0  0  0  0
  141.4581   71.7496  229.0852 H   0  0  0  0  0  0  0  0  0  0  0  0
  141.3506   72.9451  226.9296 H   0  0  0  0  0  0  0  0  0  0  0  0
  1  2  2  0
  2  3  1  0
  3  4  1  0
  4  5  1  0
  5  6  2  0
  5  7  1  0
  7  8  1  0
  8  9  1  0
  9 10  1  0
 10 11  1  0
 11 12  1  0
 12 13  2  0
 13 14  1  0
 14 15  2  0
 15 16  1  0
 15 17  1  0
 17 18  2  0
  2 19  1  0
 19 20  2  0
 20 21  1  0
 21 22  2  0
 22 23  1  0
 23 24  2  0
 24 25  1  0
 25 26  2  0
 26 27  1  0
 27 28  2  0
 11  7  1  0
 18 12  1  0
 28 19  1  0
 27 22  1  0
  3 29  1  0
  4 30  1  0
  4 31  1  0
  8 32  1  0
  8 33  1  0
  9 34  1  0
  9 35  1  0
 10 36  1  0
 10 37  1  0
 11 38  1  6
 14 39  1  0
 17 40  1  0
 20 41  1  0
 21 42  1  0
 23 43  1  0
 24 44  1  0
 25 45  1  0
 26 46  1  0
M  END
>  <smiles>  (19) 
O=C(NCC(=O)N1CCC[C@H]1c1ncc(Cl)cn1)c1ccc2ccccc2n1

>  <score_type>  (19) 
oracle

>  <origin>  (19) 
autodockgpu

>  <m_score__min__energy>  (19) 
-8.4100000000000001

>  <m_primary>  (19) 
energy

>  <rmsd>  (19) 
3.4749464988242913

>  <m_score__min__rmsd>  (19) 
3.4749464988242913

>  <meeko>  (19) 
{"free_energy": -7.66, "intermolecular_energy": -9.15, "internal_energy": -2.0, "cluster_size": 6, "cluster_id": 3, "rank_in_cluster": 6}

>  <energy>  (19) 
-8.17

>  <cluster_rmsd>  (19) 
0.61

>  <cluster>  (19) 
1

$$$$

     RDKit          3D

 46 49  0  0  0  0  0  0  0  0999 V2000
  139.4780   74.4700  222.0350 O   0  0  0  0  0  0  0  0  0  0  0  0
  140.6480   74.8520  221.7830 C   0  0  0  0  0  0  0  0  0  0  0  0
  141.1120   76.1750  222.0080 N   0  0  0  0  0  0  0  0  0  0  0  0
  140.2040   77.2100  222.5740 C   0  0  0  0  0  0  0  0  0  0  0  0
  140.9240   78.4630  222.7440 C   0  0  0  0  0  0  0  0  0  0  0  0
  141.7730   78.4940  223.7200 O   0  0  0  0  0  0  0  0  0  0  0  0
  140.8380   79.6560  222.0070 N   0  0  0  0  0  0  0  0  0  0  0  0
  140.4200   80.9060  222.7050 C   0  0  0  0  0  0  0  0  0  0  0  0
  141.2010   81.9790  222.0080 C   0  0  0  0  0  0  0  0  0  0  0  0
  141.8260   81.3440  220.7950 C   0  0  0  0  0  0  0  0  0  0  0  0
  141.0190   80.0510  220.6520 C   0  0  1  0  0  0  0  0  0  0  0  0
  141.6860   79.1270  219.7410 C   0  0  0  0  0  0  0  0  0  0  0  0
  142.1760   77.9590  220.2580 N   0  0  0  0  0  0  0  0  0  0  0  0
  142.7720   77.0170  219.5380 C   0  0  0  0  0  0  0  0  0  0  0  0
  142.9200   77.2030  218.1650 C   0  0  0  0  0  0  0  0  0  0  0  0
  143.6910   76.0130  217.1460 Cl  0  0  0  0  0  0  0  0  0  0  0  0
  142.4320   78.3760  217.6210 C   0  0  0  0  0  0  0  0  0  0  0  0
  141.8410   79.2820  218.4220 N   0  0  0  0  0  0  0  0  0  0  0  0
  141.5950   73.8800  221.2210 C   0  0  0  0  0  0  0  0  0  0  0  0
  141.2290   72.5760  220.9610 C   0  0  0  0  0  0  0  0  0  0  0  0
  142.1090   71.6440  220.4320 C   0  0  0  0  0  0  0  0  0  0  0  0
  143.4020   72.0600  220.1600 C   0  0  0  0  0  0  0  0  0  0  0  0
  144.2820   71.1410  219.6330 C   0  0  0  0  0  0  0  0  0  0  0  0
  145.5860   71.5040  219.3430 C   0  0  0  0  0  0  0  0  0  0  0  0
  145.9520   72.8090  219.6030 C   0  0  0  0  0  0  0  0  0  0  0  0
  145.0680   73.7350  220.1320 C   0  0  0  0  0  0  0  0  0  0  0  0
  143.7610   73.3570  220.4200 C   0  0  0  0  0  0  0  0  0  0  0  0
  142.8750   74.2160  220.9300 N   0  0  0  0  0  0  0  0  0  0  0  0
  142.1020   76.4190  221.7730 H   0  0  0  0  0  0  0  0  0  0  0  0
  139.3575   77.3661  221.8891 H   0  0  0  0  0  0  0  0  0  0  0  0
  139.8338   76.8701  223.5525 H   0  0  0  0  0  0  0  0  0  0  0  0
  139.3384   81.0738  222.5954 H   0  0  0  0  0  0  0  0  0  0  0  0
  140.6108   80.8743  223.7879 H   0  0  0  0  0  0  0  0  0  0  0  0
  140.5320   82.7978  221.7045 H   0  0  0  0  0  0  0  0  0  0  0  0
  141.9692   82.4023  222.6718 H   0  0  0  0  0  0  0  0  0  0  0  0
  141.7135   81.9841  219.9075 H   0  0  0  0  0  0  0  0  0  0  0  0
  142.9091   81.1789  220.8927 H   0  0  0  0  0  0  0  0  0  0  0  0
  140.0341   80.1272  220.1680 H   0  0  0  0  0  0  0  0  0  0  0  0
  143.1446   76.1006  220.0191 H   0  0  0  0  0  0  0  0  0  0  0  0
  142.5258   78.5677  216.5419 H   0  0  0  0  0  0  0  0  0  0  0  0
  140.1980   72.2628  221.1821 H   0  0  0  0  0  0  0  0  0  0  0  0
  141.7911   70.6095  220.2351 H   0  0  0  0  0  0  0  0  0  0  0  0
  143.9463   70.1112  219.4411 H   0  0  0  0  0  0  0  0  0  0  0  0
  146.3013   70.7818  218.9225 H   0  0  0  0  0  0  0  0  0  0  0  0
  146.9822   73.1250  219.3823 H   0  0  0  0  0  0  0  0  0  0  0  0
  145.3988   74.7664  220.3238 H   0  0  0  0  0  0  0  0  0  0  0  0
  1  2  2  0
  2  3  1  0
  3  4  1  0
  4  5  1  0
  5  6  2  0
  5  7  1  0
  7  8  1  0
  8  9  1  0
  9 10  1  0
 10 11  1  0
 11 12  1  0
 12 13  2  0
 13 14  1  0
 14 15  2  0
 15 16  1  0
 15 17  1  0
 17 18  2  0
  2 19  1  0
 19 20  2  0
 20 21  1  0
 21 22  2  0
 22 23  1  0
 23 24  2  0
 24 25  1  0
 25 26  2  0
 26 27  1  0
 27 28  2  0
 11  7  1  0
 18 12  1  0
 28 19  1  0
 27 22  1  0
  3 29  1  0
  4 30  1  0
  4 31  1  0
  8 32  1  0
  8 33  1  0
  9 34  1  0
  9 35  1  0
 10 36  1  0
 10 37  1  0
 11 38  1  6
 14 39  1  0
 17 40  1  0
 20 41  1  0
 21 42  1  0
 23 43  1  0
 24 44  1  0
 25 45  1  0
 26 46  1  0
M  END
>  <smiles>  (20) 
O=C(NCC(=O)N1CCC[C@H]1c1ncc(Cl)cn1)c1ccc2ccccc2n1

>  <score_type>  (20) 
oracle

>  <origin>  (20) 
autodockgpu

>  <m_score__min__energy>  (20) 
-8.4100000000000001

>  <m_primary>  (20) 
energy

>  <rmsd>  (20) 
6.14884374805414

>  <m_score__min__rmsd>  (20) 
6.14884374805414

>  <meeko>  (20) 
{"free_energy": -6.73, "intermolecular_energy": -8.22, "internal_energy": -2.75, "cluster_size": 1, "cluster_id": 8, "rank_in_cluster": 1}

>  <energy>  (20) 
-8.02

>  <cluster_rmsd>  (20) 
1.49

>  <cluster>  (20) 
1

$$$$

     RDKit          3D

 46 49  0  0  0  0  0  0  0  0999 V2000
  138.7340   75.2010  222.2030 O   0  0  0  0  0  0  0  0  0  0  0  0
  139.9060   75.6530  222.1900 C   0  0  0  0  0  0  0  0  0  0  0  0
  141.0510   74.8680  221.8880 N   0  0  0  0  0  0  0  0  0  0  0  0
  140.9140   73.4230  221.5610 C   0  0  0  0  0  0  0  0  0  0  0  0
  141.7440   73.0920  220.4120 C   0  0  0  0  0  0  0  0  0  0  0  0
  141.1170   72.6050  219.3900 O   0  0  0  0  0  0  0  0  0  0  0  0
  143.1320   73.2190  220.2400 N   0  0  0  0  0  0  0  0  0  0  0  0
  144.0030   72.0390  220.5090 C   0  0  0  0  0  0  0  0  0  0  0  0
  145.1100   72.1790  219.5080 C   0  0  0  0  0  0  0  0  0  0  0  0
  144.9680   73.5450  218.8910 C   0  0  0  0  0  0  0  0  0  0  0  0
  144.0400   74.2550  219.8810 C   0  0  1  0  0  0  0  0  0  0  0  0
  143.5040   75.4790  219.2960 C   0  0  0  0  0  0  0  0  0  0  0  0
  142.7460   76.2920  220.0930 N   0  0  0  0  0  0  0  0  0  0  0  0
  142.2280   77.4480  219.7010 C   0  0  0  0  0  0  0  0  0  0  0  0
  142.4560   77.8880  218.3980 C   0  0  0  0  0  0  0  0  0  0  0  0
  141.8110   79.3970  217.8020 Cl  0  0  0  0  0  0  0  0  0  0  0  0
  143.2200   77.0820  217.5750 C   0  0  0  0  0  0  0  0  0  0  0  0
  143.7080   75.9220  218.0510 N   0  0  0  0  0  0  0  0  0  0  0  0
  140.1120   77.0730  222.5040 C   0  0  0  0  0  0  0  0  0  0  0  0
  139.0530   77.9420  222.6660 C   0  0  0  0  0  0  0  0  0  0  0  0
  139.2270   79.2850  222.9610 C   0  0  0  0  0  0  0  0  0  0  0  0
  140.5250   79.7530  223.0960 C   0  0  0  0  0  0  0  0  0  0  0  0
  140.7050   81.0860  223.3910 C   0  0  0  0  0  0  0  0  0  0  0  0
  141.9810   81.6050  223.5360 C   0  0  0  0  0  0  0  0  0  0  0  0
  143.0400   80.7360  223.3740 C   0  0  0  0  0  0  0  0  0  0  0  0
  142.8600   79.3940  223.0790 C   0  0  0  0  0  0  0  0  0  0  0  0
  141.5730   78.8850  222.9350 C   0  0  0  0  0  0  0  0  0  0  0  0
  141.3520   77.5990  222.6500 N   0  0  0  0  0  0  0  0  0  0  0  0
  141.9970   75.3170  221.8960 H   0  0  0  0  0  0  0  0  0  0  0  0
  141.2323   72.8220  222.4256 H   0  0  0  0  0  0  0  0  0  0  0  0
  139.8627   73.2049  221.3220 H   0  0  0  0  0  0  0  0  0  0  0  0
  144.3966   72.0679  221.5358 H   0  0  0  0  0  0  0  0  0  0  0  0
  143.4657   71.0833  220.4196 H   0  0  0  0  0  0  0  0  0  0  0  0
  146.0859   72.0886  220.0074 H   0  0  0  0  0  0  0  0  0  0  0  0
  145.0515   71.3918  218.7419 H   0  0  0  0  0  0  0  0  0  0  0  0
  145.9407   74.0539  218.8215 H   0  0  0  0  0  0  0  0  0  0  0  0
  144.5816   73.5254  217.8613 H   0  0  0  0  0  0  0  0  0  0  0  0
  144.4989   74.6598  220.7951 H   0  0  0  0  0  0  0  0  0  0  0  0
  141.6258   78.0523  220.3954 H   0  0  0  0  0  0  0  0  0  0  0  0
  143.4275   77.3867  216.5386 H   0  0  0  0  0  0  0  0  0  0  0  0
  138.0297   77.5536  222.5567 H   0  0  0  0  0  0  0  0  0  0  0  0
  138.3646   79.9567  223.0838 H   0  0  0  0  0  0  0  0  0  0  0  0
  139.8306   81.7423  223.5122 H   0  0  0  0  0  0  0  0  0  0  0  0
  142.1433   82.6673  223.7709 H   0  0  0  0  0  0  0  0  0  0  0  0
  144.0642   81.1222  223.4829 H   0  0  0  0  0  0  0  0  0  0  0  0
  143.7314   78.7335  222.9591 H   0  0  0  0  0  0  0  0  0  0  0  0
  1  2  2  0
  2  3  1  0
  3  4  1  0
  4  5  1  0
  5  6  2  0
  5  7  1  0
  7  8  1  0
  8  9  1  0
  9 10  1  0
 10 11  1  0
 11 12  1  0
 12 13  2  0
 13 14  1  0
 14 15  2  0
 15 16  1  0
 15 17  1  0
 17 18  2  0
  2 19  1  0
 19 20  2  0
 20 21  1  0
 21 22  2  0
 22 23  1  0
 23 24  2  0
 24 25  1  0
 25 26  2  0
 26 27  1  0
 27 28  2  0
 11  7  1  0
 18 12  1  0
 28 19  1  0
 27 22  1  0
  3 29  1  0
  4 30  1  0
  4 31  1  0
  8 32  1  0
  8 33  1  0
  9 34  1  0
  9 35  1  0
 10 36  1  0
 10 37  1  0
 11 38  1  1
 14 39  1  0
 17 40  1  0
 20 41  1  0
 21 42  1  0
 23 43  1  0
 24 44  1  0
 25 45  1  0
 26 46  1  0
M  END
>  <smiles>  (21) 
O=C(NCC(=O)N1CCC[C@H]1c1ncc(Cl)cn1)c1ccc2ccccc2n1

>  <score_type>  (21) 
oracle

>  <origin>  (21) 
autodockgpu

>  <m_score__min__energy>  (21) 
-8.4100000000000001

>  <m_primary>  (21) 
energy

>  <rmsd>  (21) 
7.396984974957741

>  <m_score__min__rmsd>  (21) 
7.396984974957741

>  <meeko>  (21) 
{"free_energy": -6.89, "intermolecular_energy": -8.38, "internal_energy": -2.91, "cluster_size": 8, "cluster_id": 7, "rank_in_cluster": 4}

>  <energy>  (21) 
-7.68

>  <cluster_rmsd>  (21) 
1.95

>  <cluster>  (21) 
1

$$$$

     RDKit          3D

 46 49  0  0  0  0  0  0  0  0999 V2000
  138.9970   70.6090  221.5440 O   0  0  0  0  0  0  0  0  0  0  0  0
  139.3670   71.1980  222.5900 C   0  0  0  0  0  0  0  0  0  0  0  0
  139.6210   72.5930  222.6640 N   0  0  0  0  0  0  0  0  0  0  0  0
  139.4570   73.4570  221.4630 C   0  0  0  0  0  0  0  0  0  0  0  0
  139.4550   74.8590  221.8550 C   0  0  0  0  0  0  0  0  0  0  0  0
  140.6000   75.3390  222.2210 O   0  0  0  0  0  0  0  0  0  0  0  0
  138.3940   75.7770  221.9020 N   0  0  0  0  0  0  0  0  0  0  0  0
  136.9940   75.2640  221.8570 C   0  0  0  0  0  0  0  0  0  0  0  0
  136.2370   76.2260  222.7240 C   0  0  0  0  0  0  0  0  0  0  0  0
  137.1660   77.3730  223.0160 C   0  0  0  0  0  0  0  0  0  0  0  0
  138.2510   77.1930  221.9510 C   0  0  1  0  0  0  0  0  0  0  0  0
  139.4240   78.0000  222.2700 C   0  0  0  0  0  0  0  0  0  0  0  0
  139.3700   78.7980  223.3800 N   0  0  0  0  0  0  0  0  0  0  0  0
  140.3740   79.5540  223.8040 C   0  0  0  0  0  0  0  0  0  0  0  0
  141.5730   79.5530  223.0930 C   0  0  0  0  0  0  0  0  0  0  0  0
  142.9420   80.5190  223.5830 Cl  0  0  0  0  0  0  0  0  0  0  0  0
  141.6490   78.7540  221.9680 C   0  0  0  0  0  0  0  0  0  0  0  0
  140.5840   78.0170  221.6050 N   0  0  0  0  0  0  0  0  0  0  0  0
  139.5490   70.4040  223.8130 C   0  0  0  0  0  0  0  0  0  0  0  0
  139.1400   69.0890  223.8920 C   0  0  0  0  0  0  0  0  0  0  0  0
  139.3020   68.3230  225.0360 C   0  0  0  0  0  0  0  0  0  0  0  0
  139.9030   68.9210  226.1320 C   0  0  0  0  0  0  0  0  0  0  0  0
  140.0690   68.1660  227.2720 C   0  0  0  0  0  0  0  0  0  0  0  0
  140.6630   68.7160  228.3960 C   0  0  0  0  0  0  0  0  0  0  0  0
  141.0720   70.0310  228.3170 C   0  0  0  0  0  0  0  0  0  0  0  0
  140.9070   70.7900  227.1700 C   0  0  0  0  0  0  0  0  0  0  0  0
  140.3080   70.2280  226.0480 C   0  0  0  0  0  0  0  0  0  0  0  0
  140.1280   70.9220  224.9220 N   0  0  0  0  0  0  0  0  0  0  0  0
  139.9260   73.0120  223.5730 H   0  0  0  0  0  0  0  0  0  0  0  0
  140.2888   73.2746  220.7667 H   0  0  0  0  0  0  0  0  0  0  0  0
  138.5015   73.2175  220.9735 H   0  0  0  0  0  0  0  0  0  0  0  0
  136.6053   75.2733  220.8280 H   0  0  0  0  0  0  0  0  0  0  0  0
  136.9096   74.2223  222.2001 H   0  0  0  0  0  0  0  0  0  0  0  0
  135.3426   76.5883  222.1960 H   0  0  0  0  0  0  0  0  0  0  0  0
  135.9045   75.7413  223.6538 H   0  0  0  0  0  0  0  0  0  0  0  0
  136.6533   78.3396  222.9030 H   0  0  0  0  0  0  0  0  0  0  0  0
  137.5546   77.3742  224.0451 H   0  0  0  0  0  0  0  0  0  0  0  0
  138.0263   77.5648  220.9404 H   0  0  0  0  0  0  0  0  0  0  0  0
  140.2618   80.1741  224.7056 H   0  0  0  0  0  0  0  0  0  0  0  0
  142.5740   78.7210  221.3736 H   0  0  0  0  0  0  0  0  0  0  0  0
  138.6663   68.6297  223.0119 H   0  0  0  0  0  0  0  0  0  0  0  0
  138.9651   67.2765  225.0724 H   0  0  0  0  0  0  0  0  0  0  0  0
  139.7279   67.1204  227.2899 H   0  0  0  0  0  0  0  0  0  0  0  0
  140.8029   68.1277  229.3148 H   0  0  0  0  0  0  0  0  0  0  0  0
  141.5458   70.4931  229.1956 H   0  0  0  0  0  0  0  0  0  0  0  0
  141.2491   71.8352  227.1468 H   0  0  0  0  0  0  0  0  0  0  0  0
  1  2  2  0
  2  3  1  0
  3  4  1  0
  4  5  1  0
  5  6  2  0
  5  7  1  0
  7  8  1  0
  8  9  1  0
  9 10  1  0
 10 11  1  0
 11 12  1  0
 12 13  2  0
 13 14  1  0
 14 15  2  0
 15 16  1  0
 15 17  1  0
 17 18  2  0
  2 19  1  0
 19 20  2  0
 20 21  1  0
 21 22  2  0
 22 23  1  0
 23 24  2  0
 24 25  1  0
 25 26  2  0
 26 27  1  0
 27 28  2  0
 11  7  1  0
 18 12  1  0
 28 19  1  0
 27 22  1  0
  3 29  1  0
  4 30  1  0
  4 31  1  0
  8 32  1  0
  8 33  1  0
  9 34  1  0
  9 35  1  0
 10 36  1  0
 10 37  1  0
 11 38  1  6
 14 39  1  0
 17 40  1  0
 20 41  1  0
 21 42  1  0
 23 43  1  0
 24 44  1  0
 25 45  1  0
 26 46  1  0
M  END
>  <smiles>  (22) 
O=C(NCC(=O)N1CCC[C@H]1c1ncc(Cl)cn1)c1ccc2ccccc2n1

>  <score_type>  (22) 
oracle

>  <origin>  (22) 
autodockgpu

>  <m_score__min__energy>  (22) 
-8.4100000000000001

>  <m_primary>  (22) 
energy

>  <rmsd>  (22) 
2.913400112097199

>  <m_score__min__rmsd>  (22) 
2.913400112097199

>  <meeko>  (22) 
{"free_energy": -8.37, "intermolecular_energy": -9.86, "internal_energy": -1.55, "cluster_size": 11, "cluster_id": 2, "rank_in_cluster": 3}

>  <energy>  (22) 
-8.39

>  <cluster_rmsd>  (22) 
0.0

>  <cluster>  (22) 
2

$$$$

     RDKit          3D

 46 49  0  0  0  0  0  0  0  0999 V2000
  141.1320   71.4180  221.4210 O   0  0  0  0  0  0  0  0  0  0  0  0
  140.5540   72.0070  222.3680 C   0  0  0  0  0  0  0  0  0  0  0  0
  140.1360   73.3640  222.3170 N   0  0  0  0  0  0  0  0  0  0  0  0
  140.3700   74.1820  221.0960 C   0  0  0  0  0  0  0  0  0  0  0  0
  140.6310   75.5650  221.4680 C   0  0  0  0  0  0  0  0  0  0  0  0
  140.0100   75.9880  222.5210 O   0  0  0  0  0  0  0  0  0  0  0  0
  141.4570   76.5200  220.8530 N   0  0  0  0  0  0  0  0  0  0  0  0
  142.2990   76.1050  219.6940 C   0  0  0  0  0  0  0  0  0  0  0  0
  142.3310   77.3260  218.8240 C   0  0  0  0  0  0  0  0  0  0  0  0
  141.7310   78.4490  219.6280 C   0  0  0  0  0  0  0  0  0  0  0  0
  141.7800   77.8920  221.0530 C   0  0  1  0  0  0  0  0  0  0  0  0
  140.9380   78.6830  221.9440 C   0  0  0  0  0  0  0  0  0  0  0  0
  139.5940   78.7170  221.6930 N   0  0  0  0  0  0  0  0  0  0  0  0
  138.7120   79.3660  222.4410 C   0  0  0  0  0  0  0  0  0  0  0  0
  139.1550   80.0650  223.5620 C   0  0  0  0  0  0  0  0  0  0  0  0
  138.0610   80.9440  224.5990 Cl  0  0  0  0  0  0  0  0  0  0  0  0
  140.5100   80.0430  223.8350 C   0  0  0  0  0  0  0  0  0  0  0  0
  141.3390   79.3610  223.0240 N   0  0  0  0  0  0  0  0  0  0  0  0
  140.2930   71.2570  223.6040 C   0  0  0  0  0  0  0  0  0  0  0  0
  139.6410   70.0410  223.5900 C   0  0  0  0  0  0  0  0  0  0  0  0
  139.3830   69.3180  224.7450 C   0  0  0  0  0  0  0  0  0  0  0  0
  139.8080   69.8550  225.9500 C   0  0  0  0  0  0  0  0  0  0  0  0
  139.5570   69.1420  227.1010 C   0  0  0  0  0  0  0  0  0  0  0  0
  139.9600   69.6340  228.3310 C   0  0  0  0  0  0  0  0  0  0  0  0
  140.6110   70.8500  228.3450 C   0  0  0  0  0  0  0  0  0  0  0  0
  140.8650   71.5670  227.1870 C   0  0  0  0  0  0  0  0  0  0  0  0
  140.4550   71.0630  225.9570 C   0  0  0  0  0  0  0  0  0  0  0  0
  140.6780   71.7210  224.8160 N   0  0  0  0  0  0  0  0  0  0  0  0
  139.6580   73.7850  223.1470 H   0  0  0  0  0  0  0  0  0  0  0  0
  141.2366   73.7817  220.5494 H   0  0  0  0  0  0  0  0  0  0  0  0
  139.4758   74.1418  220.4566 H   0  0  0  0  0  0  0  0  0  0  0  0
  143.3122   75.8310  220.0232 H   0  0  0  0  0  0  0  0  0  0  0  0
  141.9027   75.2206  219.1737 H   0  0  0  0  0  0  0  0  0  0  0  0
  143.3683   77.5686  218.5500 H   0  0  0  0  0  0  0  0  0  0  0  0
  141.7680   77.1623  217.8933 H   0  0  0  0  0  0  0  0  0  0  0  0
  142.3299   79.3673  219.5384 H   0  0  0  0  0  0  0  0  0  0  0  0
  140.7202   78.7339  219.3009 H   0  0  0  0  0  0  0  0  0  0  0  0
  142.7417   77.9584  221.5829 H   0  0  0  0  0  0  0  0  0  0  0  0
  137.6436   79.3527  222.1796 H   0  0  0  0  0  0  0  0  0  0  0  0
  140.9076   80.5793  224.7092 H   0  0  0  0  0  0  0  0  0  0  0  0
  139.3129   69.6287  222.6244 H   0  0  0  0  0  0  0  0  0  0  0  0
  138.8591   68.3516  224.7061 H   0  0  0  0  0  0  0  0  0  0  0  0
  139.0335   68.1763  227.0430 H   0  0  0  0  0  0  0  0  0  0  0  0
  139.7686   69.0772  229.2601 H   0  0  0  0  0  0  0  0  0  0  0  0
  140.9399   71.2649  229.3092 H   0  0  0  0  0  0  0  0  0  0  0  0
  141.3896   72.5324  227.2401 H   0  0  0  0  0  0  0  0  0  0  0  0
  1  2  2  0
  2  3  1  0
  3  4  1  0
  4  5  1  0
  5  6  2  0
  5  7  1  0
  7  8  1  0
  8  9  1  0
  9 10  1  0
 10 11  1  0
 11 12  1  0
 12 13  2  0
 13 14  1  0
 14 15  2  0
 15 16  1  0
 15 17  1  0
 17 18  2  0
  2 19  1  0
 19 20  2  0
 20 21  1  0
 21 22  2  0
 22 23  1  0
 23 24  2  0
 24 25  1  0
 25 26  2  0
 26 27  1  0
 27 28  2  0
 11  7  1  0
 18 12  1  0
 28 19  1  0
 27 22  1  0
  3 29  1  0
  4 30  1  0
  4 31  1  0
  8 32  1  0
  8 33  1  0
  9 34  1  0
  9 35  1  0
 10 36  1  0
 10 37  1  0
 11 38  1  1
 14 39  1  0
 17 40  1  0
 20 41  1  0
 21 42  1  0
 23 43  1  0
 24 44  1  0
 25 45  1  0
 26 46  1  0
M  END
>  <smiles>  (23) 
O=C(NCC(=O)N1CCC[C@H]1c1ncc(Cl)cn1)c1ccc2ccccc2n1

>  <score_type>  (23) 
oracle

>  <origin>  (23) 
autodockgpu

>  <m_score__min__energy>  (23) 
-8.4100000000000001

>  <m_primary>  (23) 
energy

>  <rmsd>  (23) 
2.249142982447972

>  <m_score__min__rmsd>  (23) 
2.249142982447972

>  <meeko>  (23) 
{"free_energy": -8.38, "intermolecular_energy": -9.87, "internal_energy": -1.74, "cluster_size": 21, "cluster_id": 1, "rank_in_cluster": 7}

>  <energy>  (23) 
-8.37

>  <cluster_rmsd>  (23) 
0.21

>  <cluster>  (23) 
2

$$$$

     RDKit          3D

 46 49  0  0  0  0  0  0  0  0999 V2000
  141.0880   71.4640  221.4370 O   0  0  0  0  0  0  0  0  0  0  0  0
  140.4910   72.0330  222.3840 C   0  0  0  0  0  0  0  0  0  0  0  0
  140.0570   73.3850  222.3450 N   0  0  0  0  0  0  0  0  0  0  0  0
  140.2960   74.2220  221.1390 C   0  0  0  0  0  0  0  0  0  0  0  0
  140.6540   75.5760  221.5370 C   0  0  0  0  0  0  0  0  0  0  0  0
  140.1930   75.9630  222.6830 O   0  0  0  0  0  0  0  0  0  0  0  0
  141.4270   76.5360  220.8640 N   0  0  0  0  0  0  0  0  0  0  0  0
  142.2320   76.1130  219.6810 C   0  0  0  0  0  0  0  0  0  0  0  0
  142.1920   77.3100  218.7790 C   0  0  0  0  0  0  0  0  0  0  0  0
  141.5940   78.4370  219.5770 C   0  0  0  0  0  0  0  0  0  0  0  0
  141.7180   77.9210  221.0130 C   0  0  1  0  0  0  0  0  0  0  0  0
  140.8900   78.7130  221.9170 C   0  0  0  0  0  0  0  0  0  0  0  0
  139.5510   78.7920  221.6550 N   0  0  0  0  0  0  0  0  0  0  0  0
  138.6800   79.4470  222.4130 C   0  0  0  0  0  0  0  0  0  0  0  0
  139.1330   80.1040  223.5550 C   0  0  0  0  0  0  0  0  0  0  0  0
  138.0540   80.9870  224.6060 Cl  0  0  0  0  0  0  0  0  0  0  0  0
  140.4840   80.0360  223.8390 C   0  0  0  0  0  0  0  0  0  0  0  0
  141.3000   79.3520  223.0180 N   0  0  0  0  0  0  0  0  0  0  0  0
  140.2230   71.2630  223.6060 C   0  0  0  0  0  0  0  0  0  0  0  0
  139.5610   70.0530  223.5710 C   0  0  0  0  0  0  0  0  0  0  0  0
  139.2980   69.3110  224.7120 C   0  0  0  0  0  0  0  0  0  0  0  0
  139.7250   69.8240  225.9270 C   0  0  0  0  0  0  0  0  0  0  0  0
  139.4690   69.0920  227.0650 C   0  0  0  0  0  0  0  0  0  0  0  0
  139.8740   69.5590  228.3040 C   0  0  0  0  0  0  0  0  0  0  0  0
  140.5350   70.7690  228.3390 C   0  0  0  0  0  0  0  0  0  0  0  0
  140.7960   71.5050  227.1950 C   0  0  0  0  0  0  0  0  0  0  0  0
  140.3820   71.0260  225.9560 C   0  0  0  0  0  0  0  0  0  0  0  0
  140.6110   71.7020  224.8270 N   0  0  0  0  0  0  0  0  0  0  0  0
  139.5630   73.7890  223.1750 H   0  0  0  0  0  0  0  0  0  0  0  0
  141.1163   73.7864  220.5497 H   0  0  0  0  0  0  0  0  0  0  0  0
  139.3783   74.2538  220.5333 H   0  0  0  0  0  0  0  0  0  0  0  0
  143.2656   75.8766  219.9739 H   0  0  0  0  0  0  0  0  0  0  0  0
  141.8403   75.2039  219.2013 H   0  0  0  0  0  0  0  0  0  0  0  0
  143.2095   77.5739  218.4549 H   0  0  0  0  0  0  0  0  0  0  0  0
  141.5954   77.1050  217.8779 H   0  0  0  0  0  0  0  0  0  0  0  0
  142.1619   79.3688  219.4380 H   0  0  0  0  0  0  0  0  0  0  0  0
  140.5627   78.6847  219.2853 H   0  0  0  0  0  0  0  0  0  0  0  0
  142.6986   78.0286  221.4997 H   0  0  0  0  0  0  0  0  0  0  0  0
  137.6140   79.4707  222.1428 H   0  0  0  0  0  0  0  0  0  0  0  0
  140.8886   80.5379  224.7303 H   0  0  0  0  0  0  0  0  0  0  0  0
  139.2285   69.6613  222.5984 H   0  0  0  0  0  0  0  0  0  0  0  0
  138.7687   68.3484  224.6553 H   0  0  0  0  0  0  0  0  0  0  0  0
  138.9397   68.1307  226.9893 H   0  0  0  0  0  0  0  0  0  0  0  0
  139.6765   68.9880  229.2232 H   0  0  0  0  0  0  0  0  0  0  0  0
  140.8669   71.1638  229.3106 H   0  0  0  0  0  0  0  0  0  0  0  0
  141.3287   72.4648  227.2658 H   0  0  0  0  0  0  0  0  0  0  0  0
  1  2  2  0
  2  3  1  0
  3  4  1  0
  4  5  1  0
  5  6  2  0
  5  7  1  0
  7  8  1  0
  8  9  1  0
  9 10  1  0
 10 11  1  0
 11 12  1  0
 12 13  2  0
 13 14  1  0
 14 15  2  0
 15 16  1  0
 15 17  1  0
 17 18  2  0
  2 19  1  0
 19 20  2  0
 20 21  1  0
 21 22  2  0
 22 23  1  0
 23 24  2  0
 24 25  1  0
 25 26  2  0
 26 27  1  0
 27 28  2  0
 11  7  1  0
 18 12  1  0
 28 19  1  0
 27 22  1  0
  3 29  1  0
  4 30  1  0
  4 31  1  0
  8 32  1  0
  8 33  1  0
  9 34  1  0
  9 35  1  0
 10 36  1  0
 10 37  1  0
 11 38  1  1
 14 39  1  0
 17 40  1  0
 20 41  1  0
 21 42  1  0
 23 43  1  0
 24 44  1  0
 25 45  1  0
 26 46  1  0
M  END
>  <smiles>  (24) 
O=C(NCC(=O)N1CCC[C@H]1c1ncc(Cl)cn1)c1ccc2ccccc2n1

>  <score_type>  (24) 
oracle

>  <origin>  (24) 
autodockgpu

>  <m_score__min__energy>  (24) 
-8.4100000000000001

>  <m_primary>  (24) 
energy

>  <rmsd>  (24) 
2.2151345711940444

>  <m_score__min__rmsd>  (24) 
2.2151345711940444

>  <meeko>  (24) 
{"free_energy": -8.32, "intermolecular_energy": -9.81, "internal_energy": -1.76, "cluster_size": 21, "cluster_id": 1, "rank_in_cluster": 15}

>  <energy>  (24) 
-8.37

>  <cluster_rmsd>  (24) 
0.17

>  <cluster>  (24) 
2

$$$$

     RDKit          3D

 46 49  0  0  0  0  0  0  0  0999 V2000
  138.5700   70.8480  221.7020 O   0  0  0  0  0  0  0  0  0  0  0  0
  139.1190   71.4360  222.6680 C   0  0  0  0  0  0  0  0  0  0  0  0
  139.4530   72.8160  222.6640 N   0  0  0  0  0  0  0  0  0  0  0  0
  139.1590   73.6630  221.4770 C   0  0  0  0  0  0  0  0  0  0  0  0
  139.2150   75.0710  221.8450 C   0  0  0  0  0  0  0  0  0  0  0  0
  140.3260   75.4670  222.3780 O   0  0  0  0  0  0  0  0  0  0  0  0
  138.2400   76.0740  221.7110 N   0  0  0  0  0  0  0  0  0  0  0  0
  136.8150   75.6740  221.5320 C   0  0  0  0  0  0  0  0  0  0  0  0
  136.0530   76.7500  222.2460 C   0  0  0  0  0  0  0  0  0  0  0  0
  137.0400   77.8360  222.5780 C   0  0  0  0  0  0  0  0  0  0  0  0
  138.2190   77.4960  221.6610 C   0  0  1  0  0  0  0  0  0  0  0  0
  139.4150   78.2260  222.0690 C   0  0  0  0  0  0  0  0  0  0  0  0
  139.3250   79.0440  223.1610 N   0  0  0  0  0  0  0  0  0  0  0  0
  140.3400   79.7360  223.6600 C   0  0  0  0  0  0  0  0  0  0  0  0
  141.5910   79.6410  223.0520 C   0  0  0  0  0  0  0  0  0  0  0  0
  142.9790   80.5170  223.6450 Cl  0  0  0  0  0  0  0  0  0  0  0  0
  141.7040   78.8190  221.9460 C   0  0  0  0  0  0  0  0  0  0  0  0
  140.6240   78.1520  221.5030 N   0  0  0  0  0  0  0  0  0  0  0  0
  139.4360   70.6570  223.8720 C   0  0  0  0  0  0  0  0  0  0  0  0
  139.1990   69.3000  223.9430 C   0  0  0  0  0  0  0  0  0  0  0  0
  139.4910   68.5480  225.0700 C   0  0  0  0  0  0  0  0  0  0  0  0
  140.0440   69.2050  226.1580 C   0  0  0  0  0  0  0  0  0  0  0  0
  140.3380   68.4640  227.2810 C   0  0  0  0  0  0  0  0  0  0  0  0
  140.8910   69.0720  228.3960 C   0  0  0  0  0  0  0  0  0  0  0  0
  141.1280   70.4290  228.3250 C   0  0  0  0  0  0  0  0  0  0  0  0
  140.8350   71.1750  227.1950 C   0  0  0  0  0  0  0  0  0  0  0  0
  140.2780   70.5530  226.0820 C   0  0  0  0  0  0  0  0  0  0  0  0
  139.9780   71.2320  224.9720 N   0  0  0  0  0  0  0  0  0  0  0  0
  139.9080   73.2360  223.5080 H   0  0  0  0  0  0  0  0  0  0  0  0
  139.9030   73.4615  220.6922 H   0  0  0  0  0  0  0  0  0  0  0  0
  138.1513   73.4264  221.1046 H   0  0  0  0  0  0  0  0  0  0  0  0
  136.5466   75.6445  220.4657 H   0  0  0  0  0  0  0  0  0  0  0  0
  136.6015   74.6683  221.9232 H   0  0  0  0  0  0  0  0  0  0  0  0
  135.2587   77.1461  221.5962 H   0  0  0  0  0  0  0  0  0  0  0  0
  135.5771   76.3579  223.1569 H   0  0  0  0  0  0  0  0  0  0  0  0
  136.6303   78.8307  222.3482 H   0  0  0  0  0  0  0  0  0  0  0  0
  137.3083   77.8770  223.6440 H   0  0  0  0  0  0  0  0  0  0  0  0
  138.1447   77.8146  220.6108 H   0  0  0  0  0  0  0  0  0  0  0  0
  140.1968   80.3769  224.5425 H   0  0  0  0  0  0  0  0  0  0  0  0
  142.6707   78.7115  221.4322 H   0  0  0  0  0  0  0  0  0  0  0  0
  138.7606   68.7943  223.0700 H   0  0  0  0  0  0  0  0  0  0  0  0
  139.2907   67.4668  225.1000 H   0  0  0  0  0  0  0  0  0  0  0  0
  140.1325   67.3834  227.2926 H   0  0  0  0  0  0  0  0  0  0  0  0
  141.1315   68.4958  229.3016 H   0  0  0  0  0  0  0  0  0  0  0  0
  141.5654   70.9371  229.1970 H   0  0  0  0  0  0  0  0  0  0  0  0
  141.0420   72.2552  227.1778 H   0  0  0  0  0  0  0  0  0  0  0  0
  1  2  2  0
  2  3  1  0
  3  4  1  0
  4  5  1  0
  5  6  2  0
  5  7  1  0
  7  8  1  0
  8  9  1  0
  9 10  1  0
 10 11  1  0
 11 12  1  0
 12 13  2  0
 13 14  1  0
 14 15  2  0
 15 16  1  0
 15 17  1  0
 17 18  2  0
  2 19  1  0
 19 20  2  0
 20 21  1  0
 21 22  2  0
 22 23  1  0
 23 24  2  0
 24 25  1  0
 25 26  2  0
 26 27  1  0
 27 28  2  0
 11  7  1  0
 18 12  1  0
 28 19  1  0
 27 22  1  0
  3 29  1  0
  4 30  1  0
  4 31  1  0
  8 32  1  0
  8 33  1  0
  9 34  1  0
  9 35  1  0
 10 36  1  0
 10 37  1  0
 11 38  1  6
 14 39  1  0
 17 40  1  0
 20 41  1  0
 21 42  1  0
 23 43  1  0
 24 44  1  0
 25 45  1  0
 26 46  1  0
M  END
>  <smiles>  (25) 
O=C(NCC(=O)N1CCC[C@H]1c1ncc(Cl)cn1)c1ccc2ccccc2n1

>  <score_type>  (25) 
oracle

>  <origin>  (25) 
autodockgpu

>  <m_score__min__energy>  (25) 
-8.4100000000000001

>  <m_primary>  (25) 
energy

>  <rmsd>  (25) 
2.816885527925458

>  <m_score__min__rmsd>  (25) 
2.816885527925458

>  <meeko>  (25) 
{"free_energy": -8.2, "intermolecular_energy": -9.69, "internal_energy": -1.72, "cluster_size": 11, "cluster_id": 2, "rank_in_cluster": 7}

>  <energy>  (25) 
-8.35

>  <cluster_rmsd>  (25) 
0.22

>  <cluster>  (25) 
2

$$$$

     RDKit          3D

 46 49  0  0  0  0  0  0  0  0999 V2000
  137.8800   70.2540  222.0010 O   0  0  0  0  0  0  0  0  0  0  0  0
  138.5460   70.8800  222.8640 C   0  0  0  0  0  0  0  0  0  0  0  0
  138.8990   72.2510  222.7470 N   0  0  0  0  0  0  0  0  0  0  0  0
  138.4840   73.0400  221.5560 C   0  0  0  0  0  0  0  0  0  0  0  0
  139.5030   74.0290  221.2350 C   0  0  0  0  0  0  0  0  0  0  0  0
  140.3320   74.3080  222.1900 O   0  0  0  0  0  0  0  0  0  0  0  0
  139.7260   74.7350  220.0420 N   0  0  0  0  0  0  0  0  0  0  0  0
  138.5770   75.4240  219.3870 C   0  0  0  0  0  0  0  0  0  0  0  0
  139.1970   76.6470  218.7790 C   0  0  0  0  0  0  0  0  0  0  0  0
  140.6880   76.4800  218.8900 C   0  0  0  0  0  0  0  0  0  0  0  0
  140.8280   74.9820  219.1760 C   0  0  1  0  0  0  0  0  0  0  0  0
  142.1720   74.6720  219.6530 C   0  0  0  0  0  0  0  0  0  0  0  0
  142.4220   73.3970  220.0790 N   0  0  0  0  0  0  0  0  0  0  0  0
  143.6050   72.9710  220.5040 C   0  0  0  0  0  0  0  0  0  0  0  0
  144.6780   73.8600  220.5260 C   0  0  0  0  0  0  0  0  0  0  0  0
  146.2670   73.3810  221.0690 Cl  0  0  0  0  0  0  0  0  0  0  0  0
  144.4470   75.1540  220.0990 C   0  0  0  0  0  0  0  0  0  0  0  0
  143.2170   75.5050  219.6840 N   0  0  0  0  0  0  0  0  0  0  0  0
  138.9890   70.1590  224.0640 C   0  0  0  0  0  0  0  0  0  0  0  0
  138.7880   68.8020  224.2120 C   0  0  0  0  0  0  0  0  0  0  0  0
  139.1970   68.1030  225.3370 C   0  0  0  0  0  0  0  0  0  0  0  0
  139.8330   68.8160  226.3420 C   0  0  0  0  0  0  0  0  0  0  0  0
  140.2440   68.1290  227.4630 C   0  0  0  0  0  0  0  0  0  0  0  0
  140.8830   68.7930  228.4960 C   0  0  0  0  0  0  0  0  0  0  0  0
  141.0840   70.1490  228.3490 C   0  0  0  0  0  0  0  0  0  0  0  0
  140.6730   70.8410  227.2210 C   0  0  0  0  0  0  0  0  0  0  0  0
  140.0300   70.1630  226.1900 C   0  0  0  0  0  0  0  0  0  0  0  0
  139.6160   70.7900  225.0860 N   0  0  0  0  0  0  0  0  0  0  0  0
  139.4560   72.7040  223.5080 H   0  0  0  0  0  0  0  0  0  0  0  0
  138.3502   72.3633  220.6991 H   0  0  0  0  0  0  0  0  0  0  0  0
  137.5371   73.5549  221.7757 H   0  0  0  0  0  0  0  0  0  0  0  0
  138.1266   74.7859  218.6124 H   0  0  0  0  0  0  0  0  0  0  0  0
  137.7650   75.6617  220.0899 H   0  0  0  0  0  0  0  0  0  0  0  0
  138.9035   76.7349  217.7225 H   0  0  0  0  0  0  0  0  0  0  0  0
  138.8624   77.5579  219.2970 H   0  0  0  0  0  0  0  0  0  0  0  0
  141.1907   76.7550  217.9510 H   0  0  0  0  0  0  0  0  0  0  0  0
  141.1470   77.1199  219.6580 H   0  0  0  0  0  0  0  0  0  0  0  0
  140.7646   74.3007  218.3147 H   0  0  0  0  0  0  0  0  0  0  0  0
  143.7367   71.9301  220.8345 H   0  0  0  0  0  0  0  0  0  0  0  0
  145.2633   75.8913  220.0986 H   0  0  0  0  0  0  0  0  0  0  0  0
  138.2825   68.2524  223.4043 H   0  0  0  0  0  0  0  0  0  0  0  0
  139.0232   67.0207  225.4293 H   0  0  0  0  0  0  0  0  0  0  0  0
  140.0634   67.0465  227.5377 H   0  0  0  0  0  0  0  0  0  0  0  0
  141.2171   68.2599  229.3983 H   0  0  0  0  0  0  0  0  0  0  0  0
  141.5885   70.7011  229.1557 H   0  0  0  0  0  0  0  0  0  0  0  0
  140.8545   71.9230  227.1409 H   0  0  0  0  0  0  0  0  0  0  0  0
  1  2  2  0
  2  3  1  0
  3  4  1  0
  4  5  1  0
  5  6  2  0
  5  7  1  0
  7  8  1  0
  8  9  1  0
  9 10  1  0
 10 11  1  0
 11 12  1  0
 12 13  2  0
 13 14  1  0
 14 15  2  0
 15 16  1  0
 15 17  1  0
 17 18  2  0
  2 19  1  0
 19 20  2  0
 20 21  1  0
 21 22  2  0
 22 23  1  0
 23 24  2  0
 24 25  1  0
 25 26  2  0
 26 27  1  0
 27 28  2  0
 11  7  1  0
 18 12  1  0
 28 19  1  0
 27 22  1  0
  3 29  1  0
  4 30  1  0
  4 31  1  0
  8 32  1  0
  8 33  1  0
  9 34  1  0
  9 35  1  0
 10 36  1  0
 10 37  1  0
 11 38  1  6
 14 39  1  0
 17 40  1  0
 20 41  1  0
 21 42  1  0
 23 43  1  0
 24 44  1  0
 25 45  1  0
 26 46  1  0
M  END
>  <smiles>  (26) 
O=C(NCC(=O)N1CCC[C@H]1c1ncc(Cl)cn1)c1ccc2ccccc2n1

>  <score_type>  (26) 
oracle

>  <origin>  (26) 
autodockgpu

>  <m_score__min__energy>  (26) 
-8.4100000000000001

>  <m_primary>  (26) 
energy

>  <rmsd>  (26) 
2.941954472341384

>  <m_score__min__rmsd>  (26) 
2.941954472341384

>  <meeko>  (26) 
{"free_energy": -7.66, "intermolecular_energy": -9.16, "internal_energy": -2.08, "cluster_size": 1, "cluster_id": 4, "rank_in_cluster": 1}

>  <energy>  (26) 
-8.35

>  <cluster_rmsd>  (26) 
0.11

>  <cluster>  (26) 
2

$$$$

     RDKit          3D

 46 49  0  0  0  0  0  0  0  0999 V2000
  139.8750   74.4190  222.3310 O   0  0  0  0  0  0  0  0  0  0  0  0
  140.2510   75.3610  221.5900 C   0  0  0  0  0  0  0  0  0  0  0  0
  140.6680   75.1870  220.2430 N   0  0  0  0  0  0  0  0  0  0  0  0
  140.6800   73.8350  219.6230 C   0  0  0  0  0  0  0  0  0  0  0  0
  141.7440   73.0300  220.2060 C   0  0  0  0  0  0  0  0  0  0  0  0
  141.3790   71.8870  220.6900 O   0  0  0  0  0  0  0  0  0  0  0  0
  143.1150   73.3070  220.3290 N   0  0  0  0  0  0  0  0  0  0  0  0
  144.0180   72.2510  220.8730 C   0  0  0  0  0  0  0  0  0  0  0  0
  145.3010   72.4620  220.1250 C   0  0  0  0  0  0  0  0  0  0  0  0
  145.1640   73.7660  219.3850 C   0  0  0  0  0  0  0  0  0  0  0  0
  143.9730   74.4180  220.0920 C   0  0  1  0  0  0  0  0  0  0  0  0
  143.4610   75.5380  219.3090 C   0  0  0  0  0  0  0  0  0  0  0  0
  143.0160   76.6410  219.9840 N   0  0  0  0  0  0  0  0  0  0  0  0
  142.5600   77.7410  219.3980 C   0  0  0  0  0  0  0  0  0  0  0  0
  142.5210   77.8020  218.0060 C   0  0  0  0  0  0  0  0  0  0  0  0
  141.9350   79.2100  217.1560 Cl  0  0  0  0  0  0  0  0  0  0  0  0
  142.9650   76.6970  217.3040 C   0  0  0  0  0  0  0  0  0  0  0  0
  143.4130   75.6210  217.9760 N   0  0  0  0  0  0  0  0  0  0  0  0
  140.2630   76.7220  222.1400 C   0  0  0  0  0  0  0  0  0  0  0  0
  139.1070   77.3450  222.5630 C   0  0  0  0  0  0  0  0  0  0  0  0
  139.0970   78.6300  223.0850 C   0  0  0  0  0  0  0  0  0  0  0  0
  140.3080   79.2970  223.1770 C   0  0  0  0  0  0  0  0  0  0  0  0
  140.3070   80.5720  223.6960 C   0  0  0  0  0  0  0  0  0  0  0  0
  141.4900   81.2830  223.8100 C   0  0  0  0  0  0  0  0  0  0  0  0
  142.6460   80.6610  223.3880 C   0  0  0  0  0  0  0  0  0  0  0  0
  142.6490   79.3770  222.8680 C   0  0  0  0  0  0  0  0  0  0  0  0
  141.4540   78.6730  222.7570 C   0  0  0  0  0  0  0  0  0  0  0  0
  141.4090   77.4340  222.2610 N   0  0  0  0  0  0  0  0  0  0  0  0
  140.9670   76.0220  219.6870 H   0  0  0  0  0  0  0  0  0  0  0  0
  139.7120   73.3438  219.8012 H   0  0  0  0  0  0  0  0  0  0  0  0
  140.8537   73.9349  218.5414 H   0  0  0  0  0  0  0  0  0  0  0  0
  144.1683   72.3822  221.9548 H   0  0  0  0  0  0  0  0  0  0  0  0
  143.6125   71.2363  220.7470 H   0  0  0  0  0  0  0  0  0  0  0  0
  146.1453   72.5126  220.8282 H   0  0  0  0  0  0  0  0  0  0  0  0
  145.4933   71.6319  219.4294 H   0  0  0  0  0  0  0  0  0  0  0  0
  146.0718   74.3789  219.4863 H   0  0  0  0  0  0  0  0  0  0  0  0
  145.0207   73.6447  218.3011 H   0  0  0  0  0  0  0  0  0  0  0  0
  144.1748   74.9225  221.0484 H   0  0  0  0  0  0  0  0  0  0  0  0
  142.2173   78.5934  220.0029 H   0  0  0  0  0  0  0  0  0  0  0  0
  142.9521   76.6975  216.2041 H   0  0  0  0  0  0  0  0  0  0  0  0
  138.1546   76.8005  222.4830 H   0  0  0  0  0  0  0  0  0  0  0  0
  138.1602   79.1031  223.4145 H   0  0  0  0  0  0  0  0  0  0  0  0
  139.3610   81.0288  224.0221 H   0  0  0  0  0  0  0  0  0  0  0  0
  141.5068   82.3033  224.2208 H   0  0  0  0  0  0  0  0  0  0  0  0
  143.5996   81.2036  223.4671 H   0  0  0  0  0  0  0  0  0  0  0  0
  143.5933   78.9154  222.5438 H   0  0  0  0  0  0  0  0  0  0  0  0
  1  2  2  0
  2  3  1  0
  3  4  1  0
  4  5  1  0
  5  6  2  0
  5  7  1  0
  7  8  1  0
  8  9  1  0
  9 10  1  0
 10 11  1  0
 11 12  1  0
 12 13  2  0
 13 14  1  0
 14 15  2  0
 15 16  1  0
 15 17  1  0
 17 18  2  0
  2 19  1  0
 19 20  2  0
 20 21  1  0
 21 22  2  0
 22 23  1  0
 23 24  2  0
 24 25  1  0
 25 26  2  0
 26 27  1  0
 27 28  2  0
 11  7  1  0
 18 12  1  0
 28 19  1  0
 27 22  1  0
  3 29  1  0
  4 30  1  0
  4 31  1  0
  8 32  1  0
  8 33  1  0
  9 34  1  0
  9 35  1  0
 10 36  1  0
 10 37  1  0
 11 38  1  1
 14 39  1  0
 17 40  1  0
 20 41  1  0
 21 42  1  0
 23 43  1  0
 24 44  1  0
 25 45  1  0
 26 46  1  0
M  END
>  <smiles>  (27) 
O=C(NCC(=O)N1CCC[C@H]1c1ncc(Cl)cn1)c1ccc2ccccc2n1

>  <score_type>  (27) 
oracle

>  <origin>  (27) 
autodockgpu

>  <m_score__min__energy>  (27) 
-8.4100000000000001

>  <m_primary>  (27) 
energy

>  <rmsd>  (27) 
7.244413813445076

>  <m_score__min__rmsd>  (27) 
7.244413813445076

>  <meeko>  (27) 
{"free_energy": -6.96, "intermolecular_energy": -8.46, "internal_energy": -2.73, "cluster_size": 8, "cluster_id": 7, "rank_in_cluster": 1}

>  <energy>  (27) 
-8.21

>  <cluster_rmsd>  (27) 
0.34

>  <cluster>  (27) 
2

$$$$

     RDKit          3D

 46 49  0  0  0  0  0  0  0  0999 V2000
  138.6770   70.9450  221.6160 O   0  0  0  0  0  0  0  0  0  0  0  0
  139.1760   71.5440  222.6010 C   0  0  0  0  0  0  0  0  0  0  0  0
  139.4660   72.9350  222.6160 N   0  0  0  0  0  0  0  0  0  0  0  0
  139.1840   73.7790  221.4230 C   0  0  0  0  0  0  0  0  0  0  0  0
  139.1470   75.1830  221.8060 C   0  0  0  0  0  0  0  0  0  0  0  0
  140.0110   75.5420  222.7010 O   0  0  0  0  0  0  0  0  0  0  0  0
  138.3110   76.2170  221.3540 N   0  0  0  0  0  0  0  0  0  0  0  0
  136.9290   75.8810  220.9030 C   0  0  0  0  0  0  0  0  0  0  0  0
  136.1230   77.0780  221.3110 C   0  0  0  0  0  0  0  0  0  0  0  0
  137.1030   78.1380  221.7380 C   0  0  0  0  0  0  0  0  0  0  0  0
  138.4190   77.6210  221.1490 C   0  0  1  0  0  0  0  0  0  0  0  0
  139.5550   78.3250  221.7350 C   0  0  0  0  0  0  0  0  0  0  0  0
  139.3480   79.0270  222.8900 N   0  0  0  0  0  0  0  0  0  0  0  0
  140.2980   79.6810  223.5460 C   0  0  0  0  0  0  0  0  0  0  0  0
  141.5990   79.6680  223.0480 C   0  0  0  0  0  0  0  0  0  0  0  0
  142.9070   80.5020  223.8490 Cl  0  0  0  0  0  0  0  0  0  0  0  0
  141.8310   78.9640  221.8810 C   0  0  0  0  0  0  0  0  0  0  0  0
  140.8110   78.3280  221.2770 N   0  0  0  0  0  0  0  0  0  0  0  0
  139.4800   70.7690  223.8110 C   0  0  0  0  0  0  0  0  0  0  0  0
  139.2500   69.4110  223.8800 C   0  0  0  0  0  0  0  0  0  0  0  0
  139.5280   68.6610  225.0130 C   0  0  0  0  0  0  0  0  0  0  0  0
  140.0600   69.3230  226.1080 C   0  0  0  0  0  0  0  0  0  0  0  0
  140.3410   68.5860  227.2370 C   0  0  0  0  0  0  0  0  0  0  0  0
  140.8730   69.1980  228.3590 C   0  0  0  0  0  0  0  0  0  0  0  0
  141.1030   70.5560  228.2910 C   0  0  0  0  0  0  0  0  0  0  0  0
  140.8230   71.2990  227.1560 C   0  0  0  0  0  0  0  0  0  0  0  0
  140.2870   70.6730  226.0350 C   0  0  0  0  0  0  0  0  0  0  0  0
  140.0000   71.3490  224.9190 N   0  0  0  0  0  0  0  0  0  0  0  0
  139.8810   73.3640  223.4760 H   0  0  0  0  0  0  0  0  0  0  0  0
  139.9743   73.6263  220.6733 H   0  0  0  0  0  0  0  0  0  0  0  0
  138.2095   73.4935  221.0000 H   0  0  0  0  0  0  0  0  0  0  0  0
  136.8956   75.7383  219.8128 H   0  0  0  0  0  0  0  0  0  0  0  0
  136.5532   74.9441  221.3399 H   0  0  0  0  0  0  0  0  0  0  0  0
  135.5226   77.4373  220.4622 H   0  0  0  0  0  0  0  0  0  0  0  0
  135.4314   76.8277  222.1290 H   0  0  0  0  0  0  0  0  0  0  0  0
  136.8368   79.1192  221.3181 H   0  0  0  0  0  0  0  0  0  0  0  0
  137.1381   78.2931  222.8265 H   0  0  0  0  0  0  0  0  0  0  0  0
  138.5989   77.8124  220.0808 H   0  0  0  0  0  0  0  0  0  0  0  0
  140.0613   80.2266  224.4714 H   0  0  0  0  0  0  0  0  0  0  0  0
  142.8421   78.9242  221.4496 H   0  0  0  0  0  0  0  0  0  0  0  0
  138.8289   68.9019  223.0005 H   0  0  0  0  0  0  0  0  0  0  0  0
  139.3331   67.5788  225.0414 H   0  0  0  0  0  0  0  0  0  0  0  0
  140.1415   67.5043  227.2473 H   0  0  0  0  0  0  0  0  0  0  0  0
  141.1031   68.6239  229.2686 H   0  0  0  0  0  0  0  0  0  0  0  0
  141.5238   71.0674  229.1693 H   0  0  0  0  0  0  0  0  0  0  0  0
  141.0237   72.3804  227.1410 H   0  0  0  0  0  0  0  0  0  0  0  0
  1  2  2  0
  2  3  1  0
  3  4  1  0
  4  5  1  0
  5  6  2  0
  5  7  1  0
  7  8  1  0
  8  9  1  0
  9 10  1  0
 10 11  1  0
 11 12  1  0
 12 13  2  0
 13 14  1  0
 14 15  2  0
 15 16  1  0
 15 17  1  0
 17 18  2  0
  2 19  1  0
 19 20  2  0
 20 21  1  0
 21 22  2  0
 22 23  1  0
 23 24  2  0
 24 25  1  0
 25 26  2  0
 26 27  1  0
 27 28  2  0
 11  7  1  0
 18 12  1  0
 28 19  1  0
 27 22  1  0
  3 29  1  0
  4 30  1  0
  4 31  1  0
  8 32  1  0
  8 33  1  0
  9 34  1  0
  9 35  1  0
 10 36  1  0
 10 37  1  0
 11 38  1  6
 14 39  1  0
 17 40  1  0
 20 41  1  0
 21 42  1  0
 23 43  1  0
 24 44  1  0
 25 45  1  0
 26 46  1  0
M  END
>  <smiles>  (28) 
O=C(NCC(=O)N1CCC[C@H]1c1ncc(Cl)cn1)c1ccc2ccccc2n1

>  <score_type>  (28) 
oracle

>  <origin>  (28) 
autodockgpu

>  <m_score__min__energy>  (28) 
-8.4100000000000001

>  <m_primary>  (28) 
energy

>  <rmsd>  (28) 
2.5444615175114453

>  <m_score__min__rmsd>  (28) 
2.5444615175114453

>  <meeko>  (28) 
{"free_energy": -7.8, "intermolecular_energy": -9.3, "internal_energy": -1.98, "cluster_size": 11, "cluster_id": 2, "rank_in_cluster": 10}

>  <energy>  (28) 
-8.2

>  <cluster_rmsd>  (28) 
0.25

>  <cluster>  (28) 
2

$$$$

     RDKit          3D

 46 49  0  0  0  0  0  0  0  0999 V2000
  138.7690   75.1870  222.2060 O   0  0  0  0  0  0  0  0  0  0  0  0
  139.9350   75.6550  222.1980 C   0  0  0  0  0  0  0  0  0  0  0  0
  141.0910   74.8870  221.8980 N   0  0  0  0  0  0  0  0  0  0  0  0
  140.9740   73.4400  221.5670 C   0  0  0  0  0  0  0  0  0  0  0  0
  141.6580   73.1610  220.3130 C   0  0  0  0  0  0  0  0  0  0  0  0
  140.8990   72.7940  219.3310 O   0  0  0  0  0  0  0  0  0  0  0  0
  143.0260   73.2260  220.0020 N   0  0  0  0  0  0  0  0  0  0  0  0
  143.8280   71.9680  220.0120 C   0  0  0  0  0  0  0  0  0  0  0  0
  144.8310   72.1790  218.9180 C   0  0  0  0  0  0  0  0  0  0  0  0
  144.7290   73.6230  218.5060 C   0  0  0  0  0  0  0  0  0  0  0  0
  143.9680   74.2440  219.6800 C   0  0  1  0  0  0  0  0  0  0  0  0
  143.4670   75.5680  219.3270 C   0  0  0  0  0  0  0  0  0  0  0  0
  143.7080   76.0270  218.0610 N   0  0  0  0  0  0  0  0  0  0  0  0
  143.2810   77.1940  217.5970 C   0  0  0  0  0  0  0  0  0  0  0  0
  142.5360   78.0250  218.4320 C   0  0  0  0  0  0  0  0  0  0  0  0
  141.9360   79.5760  217.9000 Cl  0  0  0  0  0  0  0  0  0  0  0  0
  142.2810   77.5810  219.7160 C   0  0  0  0  0  0  0  0  0  0  0  0
  142.7520   76.3830  220.1080 N   0  0  0  0  0  0  0  0  0  0  0  0
  140.1210   77.0770  222.5160 C   0  0  0  0  0  0  0  0  0  0  0  0
  139.0500   77.9300  222.6810 C   0  0  0  0  0  0  0  0  0  0  0  0
  139.2040   79.2750  222.9800 C   0  0  0  0  0  0  0  0  0  0  0  0
  140.4950   79.7610  223.1160 C   0  0  0  0  0  0  0  0  0  0  0  0
  140.6570   81.0950  223.4150 C   0  0  0  0  0  0  0  0  0  0  0  0
  141.9250   81.6320  223.5610 C   0  0  0  0  0  0  0  0  0  0  0  0
  142.9970   80.7780  223.3960 C   0  0  0  0  0  0  0  0  0  0  0  0
  142.8350   79.4350  223.0970 C   0  0  0  0  0  0  0  0  0  0  0  0
  141.5560   78.9080  222.9520 C   0  0  0  0  0  0  0  0  0  0  0  0
  141.3530   77.6210  222.6630 N   0  0  0  0  0  0  0  0  0  0  0  0
  142.0310   75.3470  221.9100 H   0  0  0  0  0  0  0  0  0  0  0  0
  141.4298   72.8440  222.3714 H   0  0  0  0  0  0  0  0  0  0  0  0
  139.9108   73.1769  221.4655 H   0  0  0  0  0  0  0  0  0  0  0  0
  144.3283   71.8292  220.9817 H   0  0  0  0  0  0  0  0  0  0  0  0
  143.2132   71.0686  219.8598 H   0  0  0  0  0  0  0  0  0  0  0  0
  145.8443   71.9611  219.2863 H   0  0  0  0  0  0  0  0  0  0  0  0
  144.6325   71.5111  218.0668 H   0  0  0  0  0  0  0  0  0  0  0  0
  145.7249   74.0762  218.3924 H   0  0  0  0  0  0  0  0  0  0  0  0
  144.2355   73.7700  217.5340 H   0  0  0  0  0  0  0  0  0  0  0  0
  144.5516   74.4890  220.5796 H   0  0  0  0  0  0  0  0  0  0  0  0
  143.5119   77.5020  216.5665 H   0  0  0  0  0  0  0  0  0  0  0  0
  141.6977   78.2020  220.4118 H   0  0  0  0  0  0  0  0  0  0  0  0
  138.0324   77.5269  222.5709 H   0  0  0  0  0  0  0  0  0  0  0  0
  138.3319   79.9336  223.1050 H   0  0  0  0  0  0  0  0  0  0  0  0
  139.7735   81.7385  223.5387 H   0  0  0  0  0  0  0  0  0  0  0  0
  142.0721   82.6959  223.7988 H   0  0  0  0  0  0  0  0  0  0  0  0
  144.0158   81.1780  223.5058 H   0  0  0  0  0  0  0  0  0  0  0  0
  143.7155   78.7872  222.9746 H   0  0  0  0  0  0  0  0  0  0  0  0
  1  2  2  0
  2  3  1  0
  3  4  1  0
  4  5  1  0
  5  6  2  0
  5  7  1  0
  7  8  1  0
  8  9  1  0
  9 10  1  0
 10 11  1  0
 11 12  1  0
 12 13  2  0
 13 14  1  0
 14 15  2  0
 15 16  1  0
 15 17  1  0
 17 18  2  0
  2 19  1  0
 19 20  2  0
 20 21  1  0
 21 22  2  0
 22 23  1  0
 23 24  2  0
 24 25  1  0
 25 26  2  0
 26 27  1  0
 27 28  2  0
 11  7  1  0
 18 12  1  0
 28 19  1  0
 27 22  1  0
  3 29  1  0
  4 30  1  0
  4 31  1  0
  8 32  1  0
  8 33  1  0
  9 34  1  0
  9 35  1  0
 10 36  1  0
 10 37  1  0
 11 38  1  1
 14 39  1  0
 17 40  1  0
 20 41  1  0
 21 42  1  0
 23 43  1  0
 24 44  1  0
 25 45  1  0
 26 46  1  0
M  END
>  <smiles>  (29) 
O=C(NCC(=O)N1CCC[C@H]1c1ncc(Cl)cn1)c1ccc2ccccc2n1

>  <score_type>  (29) 
oracle

>  <origin>  (29) 
autodockgpu

>  <m_score__min__energy>  (29) 
-8.4100000000000001

>  <m_primary>  (29) 
energy

>  <rmsd>  (29) 
7.4181987106897616

>  <m_score__min__rmsd>  (29) 
7.4181987106897616

>  <meeko>  (29) 
{"free_energy": -6.69, "intermolecular_energy": -8.18, "internal_energy": -2.91, "cluster_size": 8, "cluster_id": 7, "rank_in_cluster": 8}

>  <energy>  (29) 
-8.19

>  <cluster_rmsd>  (29) 
0.33

>  <cluster>  (29) 
2

$$$$

     RDKit          3D

 46 49  0  0  0  0  0  0  0  0999 V2000
  138.9740   70.7060  221.5490 O   0  0  0  0  0  0  0  0  0  0  0  0
  139.3490   71.2990  222.5910 C   0  0  0  0  0  0  0  0  0  0  0  0
  139.6030   72.6950  222.6570 N   0  0  0  0  0  0  0  0  0  0  0  0
  139.4310   73.5540  221.4540 C   0  0  0  0  0  0  0  0  0  0  0  0
  139.4410   74.9570  221.8390 C   0  0  0  0  0  0  0  0  0  0  0  0
  140.5560   75.3960  222.3270 O   0  0  0  0  0  0  0  0  0  0  0  0
  138.4170   75.9170  221.7650 N   0  0  0  0  0  0  0  0  0  0  0  0
  137.0090   75.4560  221.5980 C   0  0  0  0  0  0  0  0  0  0  0  0
  136.2120   76.4660  222.3690 C   0  0  0  0  0  0  0  0  0  0  0  0
  137.1540   77.5840  222.7250 C   0  0  0  0  0  0  0  0  0  0  0  0
  138.3280   77.3370  221.7720 C   0  0  1  0  0  0  0  0  0  0  0  0
  139.4970   78.1070  222.1860 C   0  0  0  0  0  0  0  0  0  0  0  0
  139.3850   78.8920  223.3000 N   0  0  0  0  0  0  0  0  0  0  0  0
  140.3770   79.6140  223.8060 C   0  0  0  0  0  0  0  0  0  0  0  0
  141.6230   79.5880  223.1820 C   0  0  0  0  0  0  0  0  0  0  0  0
  142.9800   80.5080  223.7820 Cl  0  0  0  0  0  0  0  0  0  0  0  0
  141.7570   78.8000  222.0530 C   0  0  0  0  0  0  0  0  0  0  0  0
  140.7010   78.0990  221.6050 N   0  0  0  0  0  0  0  0  0  0  0  0
  139.5390   70.5100  223.8150 C   0  0  0  0  0  0  0  0  0  0  0  0
  139.1470   69.1900  223.8960 C   0  0  0  0  0  0  0  0  0  0  0  0
  139.3170   68.4290  225.0430 C   0  0  0  0  0  0  0  0  0  0  0  0
  139.9070   69.0380  226.1390 C   0  0  0  0  0  0  0  0  0  0  0  0
  140.0810   68.2880  227.2810 C   0  0  0  0  0  0  0  0  0  0  0  0
  140.6650   68.8470  228.4050 C   0  0  0  0  0  0  0  0  0  0  0  0
  141.0570   70.1670  228.3230 C   0  0  0  0  0  0  0  0  0  0  0  0
  140.8850   70.9220  227.1750 C   0  0  0  0  0  0  0  0  0  0  0  0
  140.2960   70.3490  226.0530 C   0  0  0  0  0  0  0  0  0  0  0  0
  140.1090   71.0390  224.9250 N   0  0  0  0  0  0  0  0  0  0  0  0
  139.9120   73.1180  223.5630 H   0  0  0  0  0  0  0  0  0  0  0  0
  140.2542   73.3636  220.7497 H   0  0  0  0  0  0  0  0  0  0  0  0
  138.4689   73.3175  220.9759 H   0  0  0  0  0  0  0  0  0  0  0  0
  136.7196   75.4548  220.5368 H   0  0  0  0  0  0  0  0  0  0  0  0
  136.8518   74.4269  221.9532 H   0  0  0  0  0  0  0  0  0  0  0  0
  135.3866   76.8488  221.7508 H   0  0  0  0  0  0  0  0  0  0  0  0
  135.7740   76.0165  223.2724 H   0  0  0  0  0  0  0  0  0  0  0  0
  136.6933   78.5662  222.5435 H   0  0  0  0  0  0  0  0  0  0  0  0
  137.4429   77.5957  223.7863 H   0  0  0  0  0  0  0  0  0  0  0  0
  138.2164   77.6924  220.7370 H   0  0  0  0  0  0  0  0  0  0  0  0
  140.2178   80.2253  224.7066 H   0  0  0  0  0  0  0  0  0  0  0  0
  142.7208   78.7474  221.5255 H   0  0  0  0  0  0  0  0  0  0  0  0
  138.6811   68.7224  223.0161 H   0  0  0  0  0  0  0  0  0  0  0  0
  138.9945   67.3780  225.0814 H   0  0  0  0  0  0  0  0  0  0  0  0
  139.7538   67.2380  227.3002 H   0  0  0  0  0  0  0  0  0  0  0  0
  140.8104   68.2626  229.3255 H   0  0  0  0  0  0  0  0  0  0  0  0
  141.5232   70.6370  229.2015 H   0  0  0  0  0  0  0  0  0  0  0  0
  141.2132   71.9716  227.1506 H   0  0  0  0  0  0  0  0  0  0  0  0
  1  2  2  0
  2  3  1  0
  3  4  1  0
  4  5  1  0
  5  6  2  0
  5  7  1  0
  7  8  1  0
  8  9  1  0
  9 10  1  0
 10 11  1  0
 11 12  1  0
 12 13  2  0
 13 14  1  0
 14 15  2  0
 15 16  1  0
 15 17  1  0
 17 18  2  0
  2 19  1  0
 19 20  2  0
 20 21  1  0
 21 22  2  0
 22 23  1  0
 23 24  2  0
 24 25  1  0
 25 26  2  0
 26 27  1  0
 27 28  2  0
 11  7  1  0
 18 12  1  0
 28 19  1  0
 27 22  1  0
  3 29  1  0
  4 30  1  0
  4 31  1  0
  8 32  1  0
  8 33  1  0
  9 34  1  0
  9 35  1  0
 10 36  1  0
 10 37  1  0
 11 38  1  6
 14 39  1  0
 17 40  1  0
 20 41  1  0
 21 42  1  0
 23 43  1  0
 24 44  1  0
 25 45  1  0
 26 46  1  0
M  END
>  <smiles>  (30) 
O=C(NCC(=O)N1CCC[C@H]1c1ncc(Cl)cn1)c1ccc2ccccc2n1

>  <score_type>  (30) 
oracle

>  <origin>  (30) 
autodockgpu

>  <m_score__min__energy>  (30) 
-8.4100000000000001

>  <m_primary>  (30) 
energy

>  <rmsd>  (30) 
2.814702501818834

>  <m_score__min__rmsd>  (30) 
2.814702501818834

>  <meeko>  (30) 
{"free_energy": -8.39, "intermolecular_energy": -9.88, "internal_energy": -1.61, "cluster_size": 11, "cluster_id": 2, "rank_in_cluster": 1}

>  <energy>  (30) 
-8.17

>  <cluster_rmsd>  (30) 
0.3

>  <cluster>  (30) 
2

$$$$

     RDKit          3D

 46 49  0  0  0  0  0  0  0  0999 V2000
  138.4400   75.5240  221.9360 O   0  0  0  0  0  0  0  0  0  0  0  0
  139.6480   75.8700  221.9520 C   0  0  0  0  0  0  0  0  0  0  0  0
  140.7150   75.0290  221.5390 N   0  0  0  0  0  0  0  0  0  0  0  0
  140.4470   73.6500  221.0500 C   0  0  0  0  0  0  0  0  0  0  0  0
  141.5530   73.1920  220.2210 C   0  0  0  0  0  0  0  0  0  0  0  0
  141.2230   72.4880  219.1870 O   0  0  0  0  0  0  0  0  0  0  0  0
  142.9340   73.3970  220.3740 N   0  0  0  0  0  0  0  0  0  0  0  0
  143.7760   72.2780  220.8880 C   0  0  0  0  0  0  0  0  0  0  0  0
  145.0790   72.4560  220.1680 C   0  0  0  0  0  0  0  0  0  0  0  0
  145.0170   73.7920  219.4780 C   0  0  0  0  0  0  0  0  0  0  0  0
  143.8470   74.4740  220.1930 C   0  0  1  0  0  0  0  0  0  0  0  0
  143.4020   75.6460  219.4480 C   0  0  0  0  0  0  0  0  0  0  0  0
  142.6480   76.5770  220.1080 N   0  0  0  0  0  0  0  0  0  0  0  0
  142.2070   77.7030  219.5630 C   0  0  0  0  0  0  0  0  0  0  0  0
  142.5200   77.9820  218.2340 C   0  0  0  0  0  0  0  0  0  0  0  0
  141.9810   79.4410  217.4410 Cl  0  0  0  0  0  0  0  0  0  0  0  0
  143.2820   77.0550  217.5470 C   0  0  0  0  0  0  0  0  0  0  0  0
  143.6880   75.9360  218.1740 N   0  0  0  0  0  0  0  0  0  0  0  0
  139.9820   77.2200  222.4240 C   0  0  0  0  0  0  0  0  0  0  0  0
  139.0080   78.1170  222.8090 C   0  0  0  0  0  0  0  0  0  0  0  0
  139.3030   79.3960  223.2560 C   0  0  0  0  0  0  0  0  0  0  0  0
  140.6370   79.7670  223.3120 C   0  0  0  0  0  0  0  0  0  0  0  0
  140.9390   81.0350  223.7560 C   0  0  0  0  0  0  0  0  0  0  0  0
  142.2560   81.4570  223.8310 C   0  0  0  0  0  0  0  0  0  0  0  0
  143.2300   80.5600  223.4450 C   0  0  0  0  0  0  0  0  0  0  0  0
  142.9280   79.2840  223.0000 C   0  0  0  0  0  0  0  0  0  0  0  0
  141.6010   78.8720  222.9280 C   0  0  0  0  0  0  0  0  0  0  0  0
  141.2640   77.6520  222.5040 N   0  0  0  0  0  0  0  0  0  0  0  0
  141.6970   75.3890  221.5800 H   0  0  0  0  0  0  0  0  0  0  0  0
  140.3324   72.9742  221.9104 H   0  0  0  0  0  0  0  0  0  0  0  0
  139.5239   73.6520  220.4517 H   0  0  0  0  0  0  0  0  0  0  0  0
  143.9146   72.3589  221.9762 H   0  0  0  0  0  0  0  0  0  0  0  0
  143.3245   71.2899  220.7155 H   0  0  0  0  0  0  0  0  0  0  0  0
  145.9130   72.4387  220.8850 H   0  0  0  0  0  0  0  0  0  0  0  0
  145.2427   71.6451  219.4430 H   0  0  0  0  0  0  0  0  0  0  0  0
  145.9515   74.3556  219.6162 H   0  0  0  0  0  0  0  0  0  0  0  0
  144.8856   73.7195  218.3883 H   0  0  0  0  0  0  0  0  0  0  0  0
  144.0569   74.9319  221.1709 H   0  0  0  0  0  0  0  0  0  0  0  0
  141.6020   78.4076  220.1525 H   0  0  0  0  0  0  0  0  0  0  0  0
  143.5542   77.2311  216.4958 H   0  0  0  0  0  0  0  0  0  0  0  0
  137.9543   77.8053  222.7595 H   0  0  0  0  0  0  0  0  0  0  0  0
  138.5057   80.0920  223.5558 H   0  0  0  0  0  0  0  0  0  0  0  0
  140.1289   81.7173  224.0531 H   0  0  0  0  0  0  0  0  0  0  0  0
  142.5146   82.4662  224.1839 H   0  0  0  0  0  0  0  0  0  0  0  0
  144.2845   80.8693  223.4924 H   0  0  0  0  0  0  0  0  0  0  0  0
  143.7352   78.5978  222.7042 H   0  0  0  0  0  0  0  0  0  0  0  0
  1  2  2  0
  2  3  1  0
  3  4  1  0
  4  5  1  0
  5  6  2  0
  5  7  1  0
  7  8  1  0
  8  9  1  0
  9 10  1  0
 10 11  1  0
 11 12  1  0
 12 13  2  0
 13 14  1  0
 14 15  2  0
 15 16  1  0
 15 17  1  0
 17 18  2  0
  2 19  1  0
 19 20  2  0
 20 21  1  0
 21 22  2  0
 22 23  1  0
 23 24  2  0
 24 25  1  0
 25 26  2  0
 26 27  1  0
 27 28  2  0
 11  7  1  0
 18 12  1  0
 28 19  1  0
 27 22  1  0
  3 29  1  0
  4 30  1  0
  4 31  1  0
  8 32  1  0
  8 33  1  0
  9 34  1  0
  9 35  1  0
 10 36  1  0
 10 37  1  0
 11 38  1  1
 14 39  1  0
 17 40  1  0
 20 41  1  0
 21 42  1  0
 23 43  1  0
 24 44  1  0
 25 45  1  0
 26 46  1  0
M  END
>  <smiles>  (31) 
O=C(NCC(=O)N1CCC[C@H]1c1ncc(Cl)cn1)c1ccc2ccccc2n1

>  <score_type>  (31) 
oracle

>  <origin>  (31) 
autodockgpu

>  <m_score__min__energy>  (31) 
-8.4100000000000001

>  <m_primary>  (31) 
energy

>  <rmsd>  (31) 
7.35965686232627

>  <m_score__min__rmsd>  (31) 
7.35965686232627

>  <meeko>  (31) 
{"free_energy": -6.85, "intermolecular_energy": -8.34, "internal_energy": -2.92, "cluster_size": 8, "cluster_id": 7, "rank_in_cluster": 6}

>  <energy>  (31) 
-7.8

>  <cluster_rmsd>  (31) 
0.5

>  <cluster>  (31) 
2

$$$$

     RDKit          3D

 46 49  0  0  0  0  0  0  0  0999 V2000
  139.9720   71.1950  221.2850 O   0  0  0  0  0  0  0  0  0  0  0  0
  139.8660   71.8360  222.3600 C   0  0  0  0  0  0  0  0  0  0  0  0
  139.6750   73.2420  222.4240 N   0  0  0  0  0  0  0  0  0  0  0  0
  139.5890   74.0530  221.1790 C   0  0  0  0  0  0  0  0  0  0  0  0
  139.2710   75.4350  221.5060 C   0  0  0  0  0  0  0  0  0  0  0  0
  139.5360   75.7980  222.7200 O   0  0  0  0  0  0  0  0  0  0  0  0
  138.7140   76.4440  220.7030 N   0  0  0  0  0  0  0  0  0  0  0  0
  137.4820   76.1420  219.9190 C   0  0  0  0  0  0  0  0  0  0  0  0
  136.7350   77.4420  219.9200 C   0  0  0  0  0  0  0  0  0  0  0  0
  137.6710   78.4820  220.4740 C   0  0  0  0  0  0  0  0  0  0  0  0
  139.0320   77.7880  220.3620 C   0  0  1  0  0  0  0  0  0  0  0  0
  140.0340   78.4900  221.1560 C   0  0  0  0  0  0  0  0  0  0  0  0
  139.7090   78.8340  222.4390 N   0  0  0  0  0  0  0  0  0  0  0  0
  140.5350   79.4410  223.2810 C   0  0  0  0  0  0  0  0  0  0  0  0
  141.8230   79.7610  222.8560 C   0  0  0  0  0  0  0  0  0  0  0  0
  142.9720   80.5600  223.9000 Cl  0  0  0  0  0  0  0  0  0  0  0  0
  142.1730   79.4230  221.5620 C   0  0  0  0  0  0  0  0  0  0  0  0
  141.2750   78.8080  220.7720 N   0  0  0  0  0  0  0  0  0  0  0  0
  139.9420   71.0970  223.6260 C   0  0  0  0  0  0  0  0  0  0  0  0
  139.5270   69.7860  223.7280 C   0  0  0  0  0  0  0  0  0  0  0  0
  139.5890   69.0710  224.9140 C   0  0  0  0  0  0  0  0  0  0  0  0
  140.0950   69.7190  226.0310 C   0  0  0  0  0  0  0  0  0  0  0  0
  140.1620   69.0150  227.2120 C   0  0  0  0  0  0  0  0  0  0  0  0
  140.6580   69.6150  228.3580 C   0  0  0  0  0  0  0  0  0  0  0  0
  141.0740   70.9260  228.2560 C   0  0  0  0  0  0  0  0  0  0  0  0
  141.0080   71.6350  227.0680 C   0  0  0  0  0  0  0  0  0  0  0  0
  140.5070   71.0210  225.9240 C   0  0  0  0  0  0  0  0  0  0  0  0
  140.4240   71.6660  224.7570 N   0  0  0  0  0  0  0  0  0  0  0  0
  139.5930   73.7070  223.3580 H   0  0  0  0  0  0  0  0  0  0  0  0
  140.5543   74.0161  220.6528 H   0  0  0  0  0  0  0  0  0  0  0  0
  138.7970   73.6430  220.5350 H   0  0  0  0  0  0  0  0  0  0  0  0
  137.7347   75.8352  218.8933 H   0  0  0  0  0  0  0  0  0  0  0  0
  136.8973   75.3131  220.3447 H   0  0  0  0  0  0  0  0  0  0  0  0
  136.4373   77.7082  218.8951 H   0  0  0  0  0  0  0  0  0  0  0  0
  135.8206   77.3709  220.5273 H   0  0  0  0  0  0  0  0  0  0  0  0
  137.6430   79.4035  219.8739 H   0  0  0  0  0  0  0  0  0  0  0  0
  137.4211   78.7997  221.4970 H   0  0  0  0  0  0  0  0  0  0  0  0
  139.5206   77.8000  219.3765 H   0  0  0  0  0  0  0  0  0  0  0  0
  140.2075   79.6886  224.3015 H   0  0  0  0  0  0  0  0  0  0  0  0
  143.1785   79.6553  221.1813 H   0  0  0  0  0  0  0  0  0  0  0  0
  139.1304   69.2870  222.8315 H   0  0  0  0  0  0  0  0  0  0  0  0
  139.2488   68.0263  224.9673 H   0  0  0  0  0  0  0  0  0  0  0  0
  139.8198   67.9701  227.2460 H   0  0  0  0  0  0  0  0  0  0  0  0
  140.7176   69.0680  229.3105 H   0  0  0  0  0  0  0  0  0  0  0  0
  141.4727   71.4267  229.1506 H   0  0  0  0  0  0  0  0  0  0  0  0
  141.3503   72.6796  227.0289 H   0  0  0  0  0  0  0  0  0  0  0  0
  1  2  2  0
  2  3  1  0
  3  4  1  0
  4  5  1  0
  5  6  2  0
  5  7  1  0
  7  8  1  0
  8  9  1  0
  9 10  1  0
 10 11  1  0
 11 12  1  0
 12 13  2  0
 13 14  1  0
 14 15  2  0
 15 16  1  0
 15 17  1  0
 17 18  2  0
  2 19  1  0
 19 20  2  0
 20 21  1  0
 21 22  2  0
 22 23  1  0
 23 24  2  0
 24 25  1  0
 25 26  2  0
 26 27  1  0
 27 28  2  0
 11  7  1  0
 18 12  1  0
 28 19  1  0
 27 22  1  0
  3 29  1  0
  4 30  1  0
  4 31  1  0
  8 32  1  0
  8 33  1  0
  9 34  1  0
  9 35  1  0
 10 36  1  0
 10 37  1  0
 11 38  1  6
 14 39  1  0
 17 40  1  0
 20 41  1  0
 21 42  1  0
 23 43  1  0
 24 44  1  0
 25 45  1  0
 26 46  1  0
M  END
>  <smiles>  (32) 
O=C(NCC(=O)N1CCC[C@H]1c1ncc(Cl)cn1)c1ccc2ccccc2n1

>  <score_type>  (32) 
oracle

>  <origin>  (32) 
autodockgpu

>  <m_score__min__energy>  (32) 
-8.4100000000000001

>  <m_primary>  (32) 
energy

>  <rmsd>  (32) 
2.0999420149228256

>  <m_score__min__rmsd>  (32) 
2.0999420149228256

>  <meeko>  (32) 
{"free_energy": -7.68, "intermolecular_energy": -9.18, "internal_energy": -2.01, "cluster_size": 21, "cluster_id": 1, "rank_in_cluster": 21}

>  <energy>  (32) 
-7.73

>  <cluster_rmsd>  (32) 
0.51

>  <cluster>  (32) 
2

$$$$

     RDKit          3D

 46 49  0  0  0  0  0  0  0  0999 V2000
  139.4740   70.6560  221.3870 O   0  0  0  0  0  0  0  0  0  0  0  0
  139.4530   71.3210  222.4520 C   0  0  0  0  0  0  0  0  0  0  0  0
  139.2870   72.7310  222.4990 N   0  0  0  0  0  0  0  0  0  0  0  0
  139.1240   73.5160  221.2450 C   0  0  0  0  0  0  0  0  0  0  0  0
  139.3420   74.9310  221.5130 C   0  0  0  0  0  0  0  0  0  0  0  0
  139.0920   75.3160  222.7230 O   0  0  0  0  0  0  0  0  0  0  0  0
  139.7810   75.9500  220.6540 N   0  0  0  0  0  0  0  0  0  0  0  0
  138.9120   77.1450  220.4480 C   0  0  0  0  0  0  0  0  0  0  0  0
  139.8900   78.2680  220.2730 C   0  0  0  0  0  0  0  0  0  0  0  0
  141.2510   77.6430  220.1320 C   0  0  0  0  0  0  0  0  0  0  0  0
  140.9090   76.1840  219.8160 C   0  0  1  0  0  0  0  0  0  0  0  0
  142.0840   75.3340  219.9770 C   0  0  0  0  0  0  0  0  0  0  0  0
  143.3150   75.9270  219.9320 N   0  0  0  0  0  0  0  0  0  0  0  0
  144.4610   75.2800  220.0980 C   0  0  0  0  0  0  0  0  0  0  0  0
  144.4380   73.9070  220.3360 C   0  0  0  0  0  0  0  0  0  0  0  0
  145.8990   72.9810  220.5650 Cl  0  0  0  0  0  0  0  0  0  0  0  0
  143.2030   73.2870  220.3850 C   0  0  0  0  0  0  0  0  0  0  0  0
  142.0880   74.0170  220.2060 N   0  0  0  0  0  0  0  0  0  0  0  0
  139.6080   70.6080  223.7260 C   0  0  0  0  0  0  0  0  0  0  0  0
  139.2140   69.2950  223.8760 C   0  0  0  0  0  0  0  0  0  0  0  0
  139.3510   68.6040  225.0700 C   0  0  0  0  0  0  0  0  0  0  0  0
  139.9110   69.2780  226.1440 C   0  0  0  0  0  0  0  0  0  0  0  0
  140.0520   68.5980  227.3330 C   0  0  0  0  0  0  0  0  0  0  0  0
  140.6050   69.2250  228.4370 C   0  0  0  0  0  0  0  0  0  0  0  0
  141.0000   70.5380  228.2880 C   0  0  0  0  0  0  0  0  0  0  0  0
  140.8600   71.2230  227.0920 C   0  0  0  0  0  0  0  0  0  0  0  0
  140.3020   70.5820  225.9900 C   0  0  0  0  0  0  0  0  0  0  0  0
  140.1470   71.2030  224.8180 N   0  0  0  0  0  0  0  0  0  0  0  0
  139.2780   73.2160  223.4260 H   0  0  0  0  0  0  0  0  0  0  0  0
  139.8553   73.1691  220.5001 H   0  0  0  0  0  0  0  0  0  0  0  0
  138.1037   73.3739  220.8593 H   0  0  0  0  0  0  0  0  0  0  0  0
  138.2868   77.0257  219.5509 H   0  0  0  0  0  0  0  0  0  0  0  0
  138.2133   77.3133  221.2808 H   0  0  0  0  0  0  0  0  0  0  0  0
  139.6441   78.8468  219.3705 H   0  0  0  0  0  0  0  0  0  0  0  0
  139.8589   78.9551  221.1315 H   0  0  0  0  0  0  0  0  0  0  0  0
  141.8188   78.1058  219.3114 H   0  0  0  0  0  0  0  0  0  0  0  0
  141.8855   77.7638  221.0224 H   0  0  0  0  0  0  0  0  0  0  0  0
  140.6371   75.9476  218.7767 H   0  0  0  0  0  0  0  0  0  0  0  0
  145.4178   75.8205  220.0484 H   0  0  0  0  0  0  0  0  0  0  0  0
  143.1332   72.2048  220.5690 H   0  0  0  0  0  0  0  0  0  0  0  0
  138.7730   68.7747  223.0130 H   0  0  0  0  0  0  0  0  0  0  0  0
  139.0265   67.5570  225.1619 H   0  0  0  0  0  0  0  0  0  0  0  0
  139.7235   67.5508  227.4063 H   0  0  0  0  0  0  0  0  0  0  0  0
  140.7244   68.6969  229.3945 H   0  0  0  0  0  0  0  0  0  0  0  0
  141.4420   71.0599  229.1495 H   0  0  0  0  0  0  0  0  0  0  0  0
  141.1887   72.2698  227.0137 H   0  0  0  0  0  0  0  0  0  0  0  0
  1  2  2  0
  2  3  1  0
  3  4  1  0
  4  5  1  0
  5  6  2  0
  5  7  1  0
  7  8  1  0
  8  9  1  0
  9 10  1  0
 10 11  1  0
 11 12  1  0
 12 13  2  0
 13 14  1  0
 14 15  2  0
 15 16  1  0
 15 17  1  0
 17 18  2  0
  2 19  1  0
 19 20  2  0
 20 21  1  0
 21 22  2  0
 22 23  1  0
 23 24  2  0
 24 25  1  0
 25 26  2  0
 26 27  1  0
 27 28  2  0
 11  7  1  0
 18 12  1  0
 28 19  1  0
 27 22  1  0
  3 29  1  0
  4 30  1  0
  4 31  1  0
  8 32  1  0
  8 33  1  0
  9 34  1  0
  9 35  1  0
 10 36  1  0
 10 37  1  0
 11 38  1  6
 14 39  1  0
 17 40  1  0
 20 41  1  0
 21 42  1  0
 23 43  1  0
 24 44  1  0
 25 45  1  0
 26 46  1  0
M  END
>  <smiles>  (33) 
O=C(NCC(=O)N1CCC[C@H]1c1ncc(Cl)cn1)c1ccc2ccccc2n1

>  <score_type>  (33) 
oracle

>  <origin>  (33) 
autodockgpu

>  <m_score__min__energy>  (33) 
-8.4100000000000001

>  <m_primary>  (33) 
energy

>  <rmsd>  (33) 
3.100924163443854

>  <m_score__min__rmsd>  (33) 
3.100924163443854

>  <meeko>  (33) 
{"free_energy": -7.7, "intermolecular_energy": -9.19, "internal_energy": -2.1, "cluster_size": 6, "cluster_id": 3, "rank_in_cluster": 5}

>  <energy>  (33) 
-7.87

>  <cluster_rmsd>  (33) 
0.0

>  <cluster>  (33) 
3

$$$$

     RDKit          3D

 46 49  0  0  0  0  0  0  0  0999 V2000
  141.2610   71.5260  221.4810 O   0  0  0  0  0  0  0  0  0  0  0  0
  140.5940   72.0510  222.4070 C   0  0  0  0  0  0  0  0  0  0  0  0
  140.0980   73.3810  222.3670 N   0  0  0  0  0  0  0  0  0  0  0  0
  140.3540   74.2490  221.1860 C   0  0  0  0  0  0  0  0  0  0  0  0
  140.4790   75.6370  221.6070 C   0  0  0  0  0  0  0  0  0  0  0  0
  139.7670   75.9780  222.6320 O   0  0  0  0  0  0  0  0  0  0  0  0
  141.2590   76.6730  221.0670 N   0  0  0  0  0  0  0  0  0  0  0  0
  142.2100   76.3580  219.9610 C   0  0  0  0  0  0  0  0  0  0  0  0
  142.1930   77.5970  219.1170 C   0  0  0  0  0  0  0  0  0  0  0  0
  141.4460   78.6450  219.8960 C   0  0  0  0  0  0  0  0  0  0  0  0
  141.4480   78.0620  221.3120 C   0  0  1  0  0  0  0  0  0  0  0  0
  140.4820   78.7580  222.1560 C   0  0  0  0  0  0  0  0  0  0  0  0
  140.9560   79.6940  223.0330 N   0  0  0  0  0  0  0  0  0  0  0  0
  140.1880   80.4230  223.8320 C   0  0  0  0  0  0  0  0  0  0  0  0
  138.8060   80.2450  223.7940 C   0  0  0  0  0  0  0  0  0  0  0  0
  137.7250   81.1640  224.8110 Cl  0  0  0  0  0  0  0  0  0  0  0  0
  138.3060   79.3040  222.9140 C   0  0  0  0  0  0  0  0  0  0  0  0
  139.1550   78.6050  222.1390 N   0  0  0  0  0  0  0  0  0  0  0  0
  140.3070   71.2480  223.6030 C   0  0  0  0  0  0  0  0  0  0  0  0
  139.6490   70.0380  223.5250 C   0  0  0  0  0  0  0  0  0  0  0  0
  139.3670   69.2670  224.6420 C   0  0  0  0  0  0  0  0  0  0  0  0
  139.7730   69.7480  225.8770 C   0  0  0  0  0  0  0  0  0  0  0  0
  139.4980   68.9870  226.9910 C   0  0  0  0  0  0  0  0  0  0  0  0
  139.8810   69.4220  228.2490 C   0  0  0  0  0  0  0  0  0  0  0  0
  140.5390   70.6320  228.3270 C   0  0  0  0  0  0  0  0  0  0  0  0
  140.8170   71.3980  227.2070 C   0  0  0  0  0  0  0  0  0  0  0  0
  140.4260   70.9510  225.9490 C   0  0  0  0  0  0  0  0  0  0  0  0
  140.6730   71.6560  224.8420 N   0  0  0  0  0  0  0  0  0  0  0  0
  139.5480   73.7480  223.1790 H   0  0  0  0  0  0  0  0  0  0  0  0
  141.2861   73.9316  220.6956 H   0  0  0  0  0  0  0  0  0  0  0  0
  139.5133   74.1590  220.4823 H   0  0  0  0  0  0  0  0  0  0  0  0
  143.2190   76.1644  220.3540 H   0  0  0  0  0  0  0  0  0  0  0  0
  141.9284   75.4549  219.3997 H   0  0  0  0  0  0  0  0  0  0  0  0
  143.2212   77.9340  218.9187 H   0  0  0  0  0  0  0  0  0  0  0  0
  141.7091   77.4069  218.1476 H   0  0  0  0  0  0  0  0  0  0  0  0
  141.9673   79.6130  219.8630 H   0  0  0  0  0  0  0  0  0  0  0  0
  140.4383   78.8496  219.5052 H   0  0  0  0  0  0  0  0  0  0  0  0
  142.3626   78.1981  221.9078 H   0  0  0  0  0  0  0  0  0  0  0  0
  140.6361   81.1588  224.5160 H   0  0  0  0  0  0  0  0  0  0  0  0
  137.2222   79.1279  222.8477 H   0  0  0  0  0  0  0  0  0  0  0  0
  139.3355   69.6702  222.5368 H   0  0  0  0  0  0  0  0  0  0  0  0
  138.8391   68.3062  224.5514 H   0  0  0  0  0  0  0  0  0  0  0  0
  138.9709   68.0277  226.8813 H   0  0  0  0  0  0  0  0  0  0  0  0
  139.6691   68.8267  229.1494 H   0  0  0  0  0  0  0  0  0  0  0  0
  140.8541   71.0017  229.3139 H   0  0  0  0  0  0  0  0  0  0  0  0
  141.3454   72.3570  227.3119 H   0  0  0  0  0  0  0  0  0  0  0  0
  1  2  2  0
  2  3  1  0
  3  4  1  0
  4  5  1  0
  5  6  2  0
  5  7  1  0
  7  8  1  0
  8  9  1  0
  9 10  1  0
 10 11  1  0
 11 12  1  0
 12 13  2  0
 13 14  1  0
 14 15  2  0
 15 16  1  0
 15 17  1  0
 17 18  2  0
  2 19  1  0
 19 20  2  0
 20 21  1  0
 21 22  2  0
 22 23  1  0
 23 24  2  0
 24 25  1  0
 25 26  2  0
 26 27  1  0
 27 28  2  0
 11  7  1  0
 18 12  1  0
 28 19  1  0
 27 22  1  0
  3 29  1  0
  4 30  1  0
  4 31  1  0
  8 32  1  0
  8 33  1  0
  9 34  1  0
  9 35  1  0
 10 36  1  0
 10 37  1  0
 11 38  1  1
 14 39  1  0
 17 40  1  0
 20 41  1  0
 21 42  1  0
 23 43  1  0
 24 44  1  0
 25 45  1  0
 26 46  1  0
M  END
>  <smiles>  (34) 
O=C(NCC(=O)N1CCC[C@H]1c1ncc(Cl)cn1)c1ccc2ccccc2n1

>  <score_type>  (34) 
oracle

>  <origin>  (34) 
autodockgpu

>  <m_score__min__energy>  (34) 
-8.4100000000000001

>  <m_primary>  (34) 
energy

>  <rmsd>  (34) 
2.3620087823165905

>  <m_score__min__rmsd>  (34) 
2.3620087823165905

>  <meeko>  (34) 
{"free_energy": -8.38, "intermolecular_energy": -9.87, "internal_energy": -1.66, "cluster_size": 21, "cluster_id": 1, "rank_in_cluster": 8}

>  <energy>  (34) 
-7.81

>  <cluster_rmsd>  (34) 
1.76

>  <cluster>  (34) 
3

$$$$

     RDKit          3D

 46 49  0  0  0  0  0  0  0  0999 V2000
  139.1670   70.0890  221.3850 O   0  0  0  0  0  0  0  0  0  0  0  0
  139.1980   71.0140  222.2350 C   0  0  0  0  0  0  0  0  0  0  0  0
  138.9340   72.3760  221.9290 N   0  0  0  0  0  0  0  0  0  0  0  0
  138.5960   72.7880  220.5400 C   0  0  0  0  0  0  0  0  0  0  0  0
  139.8000   72.8150  219.7220 C   0  0  0  0  0  0  0  0  0  0  0  0
  139.6340   72.5300  218.4710 O   0  0  0  0  0  0  0  0  0  0  0  0
  141.1260   73.1030  220.0850 N   0  0  0  0  0  0  0  0  0  0  0  0
  142.2290   72.2990  219.4830 C   0  0  0  0  0  0  0  0  0  0  0  0
  143.3530   73.2830  219.3520 C   0  0  0  0  0  0  0  0  0  0  0  0
  142.9410   74.5190  220.1060 C   0  0  0  0  0  0  0  0  0  0  0  0
  141.7850   74.0040  220.9690 C   0  0  1  0  0  0  0  0  0  0  0  0
  141.0230   75.1170  221.5250 C   0  0  0  0  0  0  0  0  0  0  0  0
  141.4540   76.3860  221.2540 N   0  0  0  0  0  0  0  0  0  0  0  0
  140.8370   77.4860  221.6660 C   0  0  0  0  0  0  0  0  0  0  0  0
  139.6720   77.3690  222.4230 C   0  0  0  0  0  0  0  0  0  0  0  0
  138.8000   78.7650  223.0040 Cl  0  0  0  0  0  0  0  0  0  0  0  0
  139.2190   76.0950  222.7070 C   0  0  0  0  0  0  0  0  0  0  0  0
  139.9050   75.0310  222.2520 N   0  0  0  0  0  0  0  0  0  0  0  0
  139.5270   70.6760  223.6260 C   0  0  0  0  0  0  0  0  0  0  0  0
  139.2230   69.4430  224.1640 C   0  0  0  0  0  0  0  0  0  0  0  0
  139.5240   69.1040  225.4740 C   0  0  0  0  0  0  0  0  0  0  0  0
  140.1560   70.0580  226.2580 C   0  0  0  0  0  0  0  0  0  0  0  0
  140.4590   69.7290  227.5600 C   0  0  0  0  0  0  0  0  0  0  0  0
  141.0890   70.6440  228.3850 C   0  0  0  0  0  0  0  0  0  0  0  0
  141.3930   71.8780  227.8470 C   0  0  0  0  0  0  0  0  0  0  0  0
  141.0900   72.2090  226.5370 C   0  0  0  0  0  0  0  0  0  0  0  0
  140.4550   71.2810  225.7180 C   0  0  0  0  0  0  0  0  0  0  0  0
  140.1430   71.5570  224.4490 N   0  0  0  0  0  0  0  0  0  0  0  0
  138.9790   73.0910  222.6920 H   0  0  0  0  0  0  0  0  0  0  0  0
  137.8803   72.0711  220.1113 H   0  0  0  0  0  0  0  0  0  0  0  0
  138.1502   73.7934  220.5598 H   0  0  0  0  0  0  0  0  0  0  0  0
  142.5120   71.4652  220.1423 H   0  0  0  0  0  0  0  0  0  0  0  0
  141.9486   71.8407  218.5231 H   0  0  0  0  0  0  0  0  0  0  0  0
  144.2740   72.8652  219.7846 H   0  0  0  0  0  0  0  0  0  0  0  0
  143.5531   73.5143  218.2954 H   0  0  0  0  0  0  0  0  0  0  0  0
  143.7644   74.8990  220.7285 H   0  0  0  0  0  0  0  0  0  0  0  0
  142.6635   75.3607  219.4544 H   0  0  0  0  0  0  0  0  0  0  0  0
  142.0499   73.4679  221.8923 H   0  0  0  0  0  0  0  0  0  0  0  0
  141.2396   78.4780  221.4135 H   0  0  0  0  0  0  0  0  0  0  0  0
  138.3042   75.9518  223.3008 H   0  0  0  0  0  0  0  0  0  0  0  0
  138.7215   68.6987  223.5280 H   0  0  0  0  0  0  0  0  0  0  0  0
  139.2704   68.1127  225.8779 H   0  0  0  0  0  0  0  0  0  0  0  0
  140.1987   68.7327  227.9468 H   0  0  0  0  0  0  0  0  0  0  0  0
  141.3376   70.3977  229.4278 H   0  0  0  0  0  0  0  0  0  0  0  0
  141.8935   72.6247  228.4810 H   0  0  0  0  0  0  0  0  0  0  0  0
  141.3507   73.2032  226.1450 H   0  0  0  0  0  0  0  0  0  0  0  0
  1  2  2  0
  2  3  1  0
  3  4  1  0
  4  5  1  0
  5  6  2  0
  5  7  1  0
  7  8  1  0
  8  9  1  0
  9 10  1  0
 10 11  1  0
 11 12  1  0
 12 13  2  0
 13 14  1  0
 14 15  2  0
 15 16  1  0
 15 17  1  0
 17 18  2  0
  2 19  1  0
 19 20  2  0
 20 21  1  0
 21 22  2  0
 22 23  1  0
 23 24  2  0
 24 25  1  0
 25 26  2  0
 26 27  1  0
 27 28  2  0
 11  7  1  0
 18 12  1  0
 28 19  1  0
 27 22  1  0
  3 29  1  0
  4 30  1  0
  4 31  1  0
  8 32  1  0
  8 33  1  0
  9 34  1  0
  9 35  1  0
 10 36  1  0
 10 37  1  0
 11 38  1  1
 14 39  1  0
 17 40  1  0
 20 41  1  0
 21 42  1  0
 23 43  1  0
 24 44  1  0
 25 45  1  0
 26 46  1  0
M  END
>  <smiles>  (35) 
O=C(NCC(=O)N1CCC[C@H]1c1ncc(Cl)cn1)c1ccc2ccccc2n1

>  <score_type>  (35) 
oracle

>  <origin>  (35) 
autodockgpu

>  <m_score__min__energy>  (35) 
-8.4100000000000001

>  <m_primary>  (35) 
energy

>  <rmsd>  (35) 
2.9217389117720045

>  <m_score__min__rmsd>  (35) 
2.9217389117720045

>  <meeko>  (35) 
{"free_energy": -7.16, "intermolecular_energy": -8.65, "internal_energy": -2.5, "cluster_size": 1, "cluster_id": 5, "rank_in_cluster": 1}

>  <energy>  (35) 
-7.75

>  <cluster_rmsd>  (35) 
1.66

>  <cluster>  (35) 
3

$$$$

     RDKit          3D

 46 49  0  0  0  0  0  0  0  0999 V2000
  141.1240   71.4330  221.4220 O   0  0  0  0  0  0  0  0  0  0  0  0
  140.5330   72.0060  222.3700 C   0  0  0  0  0  0  0  0  0  0  0  0
  140.0950   73.3570  222.3260 N   0  0  0  0  0  0  0  0  0  0  0  0
  140.3240   74.1870  221.1120 C   0  0  0  0  0  0  0  0  0  0  0  0
  140.6000   75.5640  221.4970 C   0  0  0  0  0  0  0  0  0  0  0  0
  139.9850   75.9830  222.5560 O   0  0  0  0  0  0  0  0  0  0  0  0
  141.4360   76.5160  220.8910 N   0  0  0  0  0  0  0  0  0  0  0  0
  142.2880   76.0980  219.7400 C   0  0  0  0  0  0  0  0  0  0  0  0
  142.3320   77.3190  218.8700 C   0  0  0  0  0  0  0  0  0  0  0  0
  141.7280   78.4440  219.6680 C   0  0  0  0  0  0  0  0  0  0  0  0
  141.7620   77.8870  221.0940 C   0  0  1  0  0  0  0  0  0  0  0  0
  140.9140   78.6810  221.9760 C   0  0  0  0  0  0  0  0  0  0  0  0
  139.5660   78.6780  221.7430 N   0  0  0  0  0  0  0  0  0  0  0  0
  138.6790   79.3250  222.4870 C   0  0  0  0  0  0  0  0  0  0  0  0
  139.1220   80.0620  223.5840 C   0  0  0  0  0  0  0  0  0  0  0  0
  138.0210   80.9430  224.6150 Cl  0  0  0  0  0  0  0  0  0  0  0  0
  140.4800   80.0790  223.8390 C   0  0  0  0  0  0  0  0  0  0  0  0
  141.3130   79.3950  223.0330 N   0  0  0  0  0  0  0  0  0  0  0  0
  140.2760   71.2430  223.5980 C   0  0  0  0  0  0  0  0  0  0  0  0
  139.6240   70.0280  223.5750 C   0  0  0  0  0  0  0  0  0  0  0  0
  139.3710   69.2930  224.7230 C   0  0  0  0  0  0  0  0  0  0  0  0
  139.8000   69.8180  225.9320 C   0  0  0  0  0  0  0  0  0  0  0  0
  139.5540   69.0930  227.0770 C   0  0  0  0  0  0  0  0  0  0  0  0
  139.9610   69.5720  228.3110 C   0  0  0  0  0  0  0  0  0  0  0  0
  140.6140   70.7870  228.3340 C   0  0  0  0  0  0  0  0  0  0  0  0
  140.8630   71.5170  227.1830 C   0  0  0  0  0  0  0  0  0  0  0  0
  140.4480   71.0250  225.9490 C   0  0  0  0  0  0  0  0  0  0  0  0
  140.6660   71.6940  224.8140 N   0  0  0  0  0  0  0  0  0  0  0  0
  139.6070   73.7660  223.1570 H   0  0  0  0  0  0  0  0  0  0  0  0
  141.1820   73.7859  220.5526 H   0  0  0  0  0  0  0  0  0  0  0  0
  139.4234   74.1613  220.4810 H   0  0  0  0  0  0  0  0  0  0  0  0
  143.2972   75.8210  220.0789 H   0  0  0  0  0  0  0  0  0  0  0  0
  141.8941   75.2146  219.2161 H   0  0  0  0  0  0  0  0  0  0  0  0
  143.3726   77.5583  218.6057 H   0  0  0  0  0  0  0  0  0  0  0  0
  141.7773   77.1569  217.9341 H   0  0  0  0  0  0  0  0  0  0  0  0
  142.3305   79.3605  219.5838 H   0  0  0  0  0  0  0  0  0  0  0  0
  140.7212   78.7320  219.3313 H   0  0  0  0  0  0  0  0  0  0  0  0
  142.7188   77.9500  221.6331 H   0  0  0  0  0  0  0  0  0  0  0  0
  137.6077   79.2806  222.2416 H   0  0  0  0  0  0  0  0  0  0  0  0
  140.8768   80.6468  224.6935 H   0  0  0  0  0  0  0  0  0  0  0  0
  139.2912   69.6258  222.6067 H   0  0  0  0  0  0  0  0  0  0  0  0
  138.8479   68.3265  224.6760 H   0  0  0  0  0  0  0  0  0  0  0  0
  139.0310   68.1275  227.0108 H   0  0  0  0  0  0  0  0  0  0  0  0
  139.7713   69.0066  229.2353 H   0  0  0  0  0  0  0  0  0  0  0  0
  140.9490   71.1907  229.3008 H   0  0  0  0  0  0  0  0  0  0  0  0
  141.3870   72.4822  227.2443 H   0  0  0  0  0  0  0  0  0  0  0  0
  1  2  2  0
  2  3  1  0
  3  4  1  0
  4  5  1  0
  5  6  2  0
  5  7  1  0
  7  8  1  0
  8  9  1  0
  9 10  1  0
 10 11  1  0
 11 12  1  0
 12 13  2  0
 13 14  1  0
 14 15  2  0
 15 16  1  0
 15 17  1  0
 17 18  2  0
  2 19  1  0
 19 20  2  0
 20 21  1  0
 21 22  2  0
 22 23  1  0
 23 24  2  0
 24 25  1  0
 25 26  2  0
 26 27  1  0
 27 28  2  0
 11  7  1  0
 18 12  1  0
 28 19  1  0
 27 22  1  0
  3 29  1  0
  4 30  1  0
  4 31  1  0
  8 32  1  0
  8 33  1  0
  9 34  1  0
  9 35  1  0
 10 36  1  0
 10 37  1  0
 11 38  1  1
 14 39  1  0
 17 40  1  0
 20 41  1  0
 21 42  1  0
 23 43  1  0
 24 44  1  0
 25 45  1  0
 26 46  1  0
M  END
>  <smiles>  (36) 
O=C(NCC(=O)N1CCC[C@H]1c1ncc(Cl)cn1)c1ccc2ccccc2n1

>  <score_type>  (36) 
oracle

>  <origin>  (36) 
autodockgpu

>  <m_score__min__energy>  (36) 
-8.4100000000000001

>  <m_primary>  (36) 
energy

>  <rmsd>  (36) 
2.2449025755077026

>  <m_score__min__rmsd>  (36) 
2.2449025755077026

>  <meeko>  (36) 
{"free_energy": -8.4, "intermolecular_energy": -9.89, "internal_energy": -1.72, "cluster_size": 21, "cluster_id": 1, "rank_in_cluster": 4}

>  <energy>  (36) 
-7.73

>  <cluster_rmsd>  (36) 
1.96

>  <cluster>  (36) 
3

$$$$

     RDKit          3D

 46 49  0  0  0  0  0  0  0  0999 V2000
  141.1750   71.5060  221.4010 O   0  0  0  0  0  0  0  0  0  0  0  0
  140.5540   72.0340  222.3570 C   0  0  0  0  0  0  0  0  0  0  0  0
  140.0900   73.3760  222.3510 N   0  0  0  0  0  0  0  0  0  0  0  0
  140.3230   74.2530  221.1720 C   0  0  0  0  0  0  0  0  0  0  0  0
  140.5050   75.6310  221.6050 C   0  0  0  0  0  0  0  0  0  0  0  0
  139.8750   75.9660  222.6850 O   0  0  0  0  0  0  0  0  0  0  0  0
  141.2630   76.6620  221.0260 N   0  0  0  0  0  0  0  0  0  0  0  0
  142.1970   76.3310  219.9120 C   0  0  0  0  0  0  0  0  0  0  0  0
  142.1510   77.5490  219.0380 C   0  0  0  0  0  0  0  0  0  0  0  0
  141.4050   78.6070  219.8050 C   0  0  0  0  0  0  0  0  0  0  0  0
  141.4390   78.0590  221.2340 C   0  0  1  0  0  0  0  0  0  0  0  0
  140.4800   78.7640  222.0780 C   0  0  0  0  0  0  0  0  0  0  0  0
  140.9680   79.6430  223.0050 N   0  0  0  0  0  0  0  0  0  0  0  0
  140.2090   80.3750  223.8110 C   0  0  0  0  0  0  0  0  0  0  0  0
  138.8230   80.2600  223.7280 C   0  0  0  0  0  0  0  0  0  0  0  0
  137.7520   81.1850  224.7510 Cl  0  0  0  0  0  0  0  0  0  0  0  0
  138.3080   79.3760  222.7970 C   0  0  0  0  0  0  0  0  0  0  0  0
  139.1480   78.6710  222.0190 N   0  0  0  0  0  0  0  0  0  0  0  0
  140.2910   71.2240  223.5530 C   0  0  0  0  0  0  0  0  0  0  0  0
  139.6410   70.0090  223.4790 C   0  0  0  0  0  0  0  0  0  0  0  0
  139.3820   69.2300  224.5960 C   0  0  0  0  0  0  0  0  0  0  0  0
  139.8030   69.7080  225.8270 C   0  0  0  0  0  0  0  0  0  0  0  0
  139.5500   68.9390  226.9410 C   0  0  0  0  0  0  0  0  0  0  0  0
  139.9490   69.3710  228.1950 C   0  0  0  0  0  0  0  0  0  0  0  0
  140.5990   70.5850  228.2700 C   0  0  0  0  0  0  0  0  0  0  0  0
  140.8550   71.3590  227.1500 C   0  0  0  0  0  0  0  0  0  0  0  0
  140.4490   70.9150  225.8950 C   0  0  0  0  0  0  0  0  0  0  0  0
  140.6730   71.6280  224.7890 N   0  0  0  0  0  0  0  0  0  0  0  0
  139.5780   73.7460  223.1860 H   0  0  0  0  0  0  0  0  0  0  0  0
  141.2249   73.9162  220.6399 H   0  0  0  0  0  0  0  0  0  0  0  0
  139.4521   74.1968  220.5023 H   0  0  0  0  0  0  0  0  0  0  0  0
  143.2150   76.1583  220.2914 H   0  0  0  0  0  0  0  0  0  0  0  0
  141.9157   75.4114  219.3780 H   0  0  0  0  0  0  0  0  0  0  0  0
  143.1715   77.8928  218.8136 H   0  0  0  0  0  0  0  0  0  0  0  0
  141.6531   77.3300  218.0819 H   0  0  0  0  0  0  0  0  0  0  0  0
  141.9139   79.5800  219.7393 H   0  0  0  0  0  0  0  0  0  0  0  0
  140.3881   78.7901  219.4275 H   0  0  0  0  0  0  0  0  0  0  0  0
  142.3621   78.2203  221.8100 H   0  0  0  0  0  0  0  0  0  0  0  0
  140.6684   81.0637  224.5353 H   0  0  0  0  0  0  0  0  0  0  0  0
  137.2200   79.2508  222.6940 H   0  0  0  0  0  0  0  0  0  0  0  0
  139.3152   69.6439  222.4938 H   0  0  0  0  0  0  0  0  0  0  0  0
  138.8603   68.2656  224.5084 H   0  0  0  0  0  0  0  0  0  0  0  0
  139.0282   67.9765  226.8343 H   0  0  0  0  0  0  0  0  0  0  0  0
  139.7551   68.7696  229.0954 H   0  0  0  0  0  0  0  0  0  0  0  0
  140.9258   70.9518  229.2542 H   0  0  0  0  0  0  0  0  0  0  0  0
  141.3775   72.3215  227.2522 H   0  0  0  0  0  0  0  0  0  0  0  0
  1  2  2  0
  2  3  1  0
  3  4  1  0
  4  5  1  0
  5  6  2  0
  5  7  1  0
  7  8  1  0
  8  9  1  0
  9 10  1  0
 10 11  1  0
 11 12  1  0
 12 13  2  0
 13 14  1  0
 14 15  2  0
 15 16  1  0
 15 17  1  0
 17 18  2  0
  2 19  1  0
 19 20  2  0
 20 21  1  0
 21 22  2  0
 22 23  1  0
 23 24  2  0
 24 25  1  0
 25 26  2  0
 26 27  1  0
 27 28  2  0
 11  7  1  0
 18 12  1  0
 28 19  1  0
 27 22  1  0
  3 29  1  0
  4 30  1  0
  4 31  1  0
  8 32  1  0
  8 33  1  0
  9 34  1  0
  9 35  1  0
 10 36  1  0
 10 37  1  0
 11 38  1  1
 14 39  1  0
 17 40  1  0
 20 41  1  0
 21 42  1  0
 23 43  1  0
 24 44  1  0
 25 45  1  0
 26 46  1  0
M  END
>  <smiles>  (37) 
O=C(NCC(=O)N1CCC[C@H]1c1ncc(Cl)cn1)c1ccc2ccccc2n1

>  <score_type>  (37) 
oracle

>  <origin>  (37) 
autodockgpu

>  <m_score__min__energy>  (37) 
-8.4100000000000001

>  <m_primary>  (37) 
energy

>  <rmsd>  (37) 
2.308377126926707

>  <m_score__min__rmsd>  (37) 
2.308377126926707

>  <meeko>  (37) 
{"free_energy": -8.32, "intermolecular_energy": -9.81, "internal_energy": -1.74, "cluster_size": 21, "cluster_id": 1, "rank_in_cluster": 16}

>  <energy>  (37) 
-7.7

>  <cluster_rmsd>  (37) 
1.82

>  <cluster>  (37) 
3

$$$$

     RDKit          3D

 46 49  0  0  0  0  0  0  0  0999 V2000
  141.0940   71.4540  221.4300 O   0  0  0  0  0  0  0  0  0  0  0  0
  140.5060   72.0290  222.3800 C   0  0  0  0  0  0  0  0  0  0  0  0
  140.0650   73.3780  222.3340 N   0  0  0  0  0  0  0  0  0  0  0  0
  140.2860   74.2060  221.1170 C   0  0  0  0  0  0  0  0  0  0  0  0
  140.5570   75.5850  221.4970 C   0  0  0  0  0  0  0  0  0  0  0  0
  139.9470   76.0030  222.5600 O   0  0  0  0  0  0  0  0  0  0  0  0
  141.3830   76.5400  220.8830 N   0  0  0  0  0  0  0  0  0  0  0  0
  142.2300   76.1250  219.7280 C   0  0  0  0  0  0  0  0  0  0  0  0
  142.2610   77.3430  218.8550 C   0  0  0  0  0  0  0  0  0  0  0  0
  141.6550   78.4660  219.6520 C   0  0  0  0  0  0  0  0  0  0  0  0
  141.7000   77.9140  221.0800 C   0  0  1  0  0  0  0  0  0  0  0  0
  140.8520   78.7050  221.9650 C   0  0  0  0  0  0  0  0  0  0  0  0
  139.5050   78.7070  221.7280 N   0  0  0  0  0  0  0  0  0  0  0  0
  138.6180   79.3530  222.4740 C   0  0  0  0  0  0  0  0  0  0  0  0
  139.0600   80.0820  223.5760 C   0  0  0  0  0  0  0  0  0  0  0  0
  137.9590   80.9590  224.6090 Cl  0  0  0  0  0  0  0  0  0  0  0  0
  140.4180   80.0930  223.8340 C   0  0  0  0  0  0  0  0  0  0  0  0
  141.2510   79.4120  223.0270 N   0  0  0  0  0  0  0  0  0  0  0  0
  140.2560   71.2680  223.6110 C   0  0  0  0  0  0  0  0  0  0  0  0
  139.6030   70.0530  223.5950 C   0  0  0  0  0  0  0  0  0  0  0  0
  139.3570   69.3210  224.7460 C   0  0  0  0  0  0  0  0  0  0  0  0
  139.7940   69.8480  225.9510 C   0  0  0  0  0  0  0  0  0  0  0  0
  139.5550   69.1250  227.0980 C   0  0  0  0  0  0  0  0  0  0  0  0
  139.9710   69.6060  228.3290 C   0  0  0  0  0  0  0  0  0  0  0  0
  140.6240   70.8210  228.3450 C   0  0  0  0  0  0  0  0  0  0  0  0
  140.8670   71.5480  227.1920 C   0  0  0  0  0  0  0  0  0  0  0  0
  140.4430   71.0550  225.9620 C   0  0  0  0  0  0  0  0  0  0  0  0
  140.6550   71.7210  224.8240 N   0  0  0  0  0  0  0  0  0  0  0  0
  139.5800   73.7880  223.1660 H   0  0  0  0  0  0  0  0  0  0  0  0
  141.1439   73.8073  220.5557 H   0  0  0  0  0  0  0  0  0  0  0  0
  139.3832   74.1746  220.4894 H   0  0  0  0  0  0  0  0  0  0  0  0
  143.2430   75.8553  220.0613 H   0  0  0  0  0  0  0  0  0  0  0  0
  141.8381   75.2380  219.2087 H   0  0  0  0  0  0  0  0  0  0  0  0
  143.2985   77.5881  218.5840 H   0  0  0  0  0  0  0  0  0  0  0  0
  141.7016   77.1744  217.9230 H   0  0  0  0  0  0  0  0  0  0  0  0
  142.2514   79.3858  219.5615 H   0  0  0  0  0  0  0  0  0  0  0  0
  140.6446   78.7466  219.3198 H   0  0  0  0  0  0  0  0  0  0  0  0
  142.6590   77.9858  221.6140 H   0  0  0  0  0  0  0  0  0  0  0  0
  137.5472   79.3135  222.2255 H   0  0  0  0  0  0  0  0  0  0  0  0
  140.8144   80.6545  224.6929 H   0  0  0  0  0  0  0  0  0  0  0  0
  139.2638   69.6488  222.6298 H   0  0  0  0  0  0  0  0  0  0  0  0
  138.8328   68.3548  224.7045 H   0  0  0  0  0  0  0  0  0  0  0  0
  139.0307   68.1599  227.0368 H   0  0  0  0  0  0  0  0  0  0  0  0
  139.7880   69.0421  229.2556 H   0  0  0  0  0  0  0  0  0  0  0  0
  140.9641   71.2271  229.3091 H   0  0  0  0  0  0  0  0  0  0  0  0
  141.3936   72.5121  227.2482 H   0  0  0  0  0  0  0  0  0  0  0  0
  1  2  2  0
  2  3  1  0
  3  4  1  0
  4  5  1  0
  5  6  2  0
  5  7  1  0
  7  8  1  0
  8  9  1  0
  9 10  1  0
 10 11  1  0
 11 12  1  0
 12 13  2  0
 13 14  1  0
 14 15  2  0
 15 16  1  0
 15 17  1  0
 17 18  2  0
  2 19  1  0
 19 20  2  0
 20 21  1  0
 21 22  2  0
 22 23  1  0
 23 24  2  0
 24 25  1  0
 25 26  2  0
 26 27  1  0
 27 28  2  0
 11  7  1  0
 18 12  1  0
 28 19  1  0
 27 22  1  0
  3 29  1  0
  4 30  1  0
  4 31  1  0
  8 32  1  0
  8 33  1  0
  9 34  1  0
  9 35  1  0
 10 36  1  0
 10 37  1  0
 11 38  1  1
 14 39  1  0
 17 40  1  0
 20 41  1  0
 21 42  1  0
 23 43  1  0
 24 44  1  0
 25 45  1  0
 26 46  1  0
M  END
>  <smiles>  (38) 
O=C(NCC(=O)N1CCC[C@H]1c1ncc(Cl)cn1)c1ccc2ccccc2n1

>  <score_type>  (38) 
oracle

>  <origin>  (38) 
autodockgpu

>  <m_score__min__energy>  (38) 
-8.4100000000000001

>  <m_primary>  (38) 
energy

>  <rmsd>  (38) 
2.237782309000906

>  <m_score__min__rmsd>  (38) 
2.237782309000906

>  <meeko>  (38) 
{"free_energy": -8.4, "intermolecular_energy": -9.89, "internal_energy": -1.72, "cluster_size": 21, "cluster_id": 1, "rank_in_cluster": 3}

>  <energy>  (38) 
-7.66

>  <cluster_rmsd>  (38) 
1.97

>  <cluster>  (38) 
3

$$$$

     RDKit          3D

 46 49  0  0  0  0  0  0  0  0999 V2000
  141.1090   71.4580  221.4340 O   0  0  0  0  0  0  0  0  0  0  0  0
  140.5160   72.0350  222.3800 C   0  0  0  0  0  0  0  0  0  0  0  0
  140.0860   73.3880  222.3340 N   0  0  0  0  0  0  0  0  0  0  0  0
  140.3240   74.2170  221.1220 C   0  0  0  0  0  0  0  0  0  0  0  0
  140.6240   75.5880  221.5080 C   0  0  0  0  0  0  0  0  0  0  0  0
  140.0500   76.0020  222.5920 O   0  0  0  0  0  0  0  0  0  0  0  0
  141.4440   76.5400  220.8810 N   0  0  0  0  0  0  0  0  0  0  0  0
  142.2780   76.1180  219.7190 C   0  0  0  0  0  0  0  0  0  0  0  0
  142.3020   77.3320  218.8400 C   0  0  0  0  0  0  0  0  0  0  0  0
  141.7060   78.4600  219.6390 C   0  0  0  0  0  0  0  0  0  0  0  0
  141.7660   77.9140  221.0690 C   0  0  1  0  0  0  0  0  0  0  0  0
  140.9290   78.7100  221.9590 C   0  0  0  0  0  0  0  0  0  0  0  0
  139.5820   78.7290  221.7240 N   0  0  0  0  0  0  0  0  0  0  0  0
  138.7030   79.3810  222.4750 C   0  0  0  0  0  0  0  0  0  0  0  0
  139.1550   80.0990  223.5810 C   0  0  0  0  0  0  0  0  0  0  0  0
  138.0670   80.9840  224.6200 Cl  0  0  0  0  0  0  0  0  0  0  0  0
  140.5140   80.0930  223.8370 C   0  0  0  0  0  0  0  0  0  0  0  0
  141.3380   79.4060  223.0250 N   0  0  0  0  0  0  0  0  0  0  0  0
  140.2500   71.2730  223.6080 C   0  0  0  0  0  0  0  0  0  0  0  0
  139.5860   70.0640  223.5820 C   0  0  0  0  0  0  0  0  0  0  0  0
  139.3240   69.3310  224.7290 C   0  0  0  0  0  0  0  0  0  0  0  0
  139.7560   69.8510  225.9390 C   0  0  0  0  0  0  0  0  0  0  0  0
  139.5010   69.1270  227.0830 C   0  0  0  0  0  0  0  0  0  0  0  0
  139.9110   69.6010  228.3180 C   0  0  0  0  0  0  0  0  0  0  0  0
  140.5750   70.8100  228.3430 C   0  0  0  0  0  0  0  0  0  0  0  0
  140.8340   71.5380  227.1930 C   0  0  0  0  0  0  0  0  0  0  0  0
  140.4160   71.0520  225.9590 C   0  0  0  0  0  0  0  0  0  0  0  0
  140.6430   71.7200  224.8250 N   0  0  0  0  0  0  0  0  0  0  0  0
  139.5970   73.7990  223.1630 H   0  0  0  0  0  0  0  0  0  0  0  0
  141.1732   73.8031  220.5585 H   0  0  0  0  0  0  0  0  0  0  0  0
  139.4203   74.2078  220.4949 H   0  0  0  0  0  0  0  0  0  0  0  0
  143.2940   75.8479  220.0428 H   0  0  0  0  0  0  0  0  0  0  0  0
  141.8790   75.2293  219.2080 H   0  0  0  0  0  0  0  0  0  0  0  0
  143.3370   77.5741  218.5570 H   0  0  0  0  0  0  0  0  0  0  0  0
  141.7327   77.1603  217.9146 H   0  0  0  0  0  0  0  0  0  0  0  0
  142.3027   79.3786  219.5379 H   0  0  0  0  0  0  0  0  0  0  0  0
  140.6924   78.7407  219.3167 H   0  0  0  0  0  0  0  0  0  0  0  0
  142.7309   77.9862  221.5923 H   0  0  0  0  0  0  0  0  0  0  0  0
  137.6315   79.3551  222.2278 H   0  0  0  0  0  0  0  0  0  0  0  0
  140.9182   80.6457  224.6979 H   0  0  0  0  0  0  0  0  0  0  0  0
  139.2512   69.6659  222.6127 H   0  0  0  0  0  0  0  0  0  0  0  0
  138.7916   68.3697  224.6806 H   0  0  0  0  0  0  0  0  0  0  0  0
  138.9686   68.1668  227.0151 H   0  0  0  0  0  0  0  0  0  0  0  0
  139.7151   69.0364  229.2415 H   0  0  0  0  0  0  0  0  0  0  0  0
  140.9109   71.2104  229.3109 H   0  0  0  0  0  0  0  0  0  0  0  0
  141.3686   72.4973  227.2559 H   0  0  0  0  0  0  0  0  0  0  0  0
  1  2  2  0
  2  3  1  0
  3  4  1  0
  4  5  1  0
  5  6  2  0
  5  7  1  0
  7  8  1  0
  8  9  1  0
  9 10  1  0
 10 11  1  0
 11 12  1  0
 12 13  2  0
 13 14  1  0
 14 15  2  0
 15 16  1  0
 15 17  1  0
 17 18  2  0
  2 19  1  0
 19 20  2  0
 20 21  1  0
 21 22  2  0
 22 23  1  0
 23 24  2  0
 24 25  1  0
 25 26  2  0
 26 27  1  0
 27 28  2  0
 11  7  1  0
 18 12  1  0
 28 19  1  0
 27 22  1  0
  3 29  1  0
  4 30  1  0
  4 31  1  0
  8 32  1  0
  8 33  1  0
  9 34  1  0
  9 35  1  0
 10 36  1  0
 10 37  1  0
 11 38  1  1
 14 39  1  0
 17 40  1  0
 20 41  1  0
 21 42  1  0
 23 43  1  0
 24 44  1  0
 25 45  1  0
 26 46  1  0
M  END
>  <smiles>  (39) 
O=C(NCC(=O)N1CCC[C@H]1c1ncc(Cl)cn1)c1ccc2ccccc2n1

>  <score_type>  (39) 
oracle

>  <origin>  (39) 
autodockgpu

>  <m_score__min__energy>  (39) 
-8.4100000000000001

>  <m_primary>  (39) 
energy

>  <rmsd>  (39) 
2.242263529034374

>  <m_score__min__rmsd>  (39) 
2.242263529034374

>  <meeko>  (39) 
{"free_energy": -8.39, "intermolecular_energy": -9.88, "internal_energy": -1.74, "cluster_size": 21, "cluster_id": 1, "rank_in_cluster": 5}

>  <energy>  (39) 
-7.66

>  <cluster_rmsd>  (39) 
0.0

>  <cluster>  (39) 
4

$$$$

     RDKit          3D

 46 49  0  0  0  0  0  0  0  0999 V2000
  137.0360   71.6730  221.3470 O   0  0  0  0  0  0  0  0  0  0  0  0
  137.8400   72.0790  222.2230 C   0  0  0  0  0  0  0  0  0  0  0  0
  138.2720   73.4270  222.3350 N   0  0  0  0  0  0  0  0  0  0  0  0
  137.7760   74.4620  221.3870 C   0  0  0  0  0  0  0  0  0  0  0  0
  137.9100   75.7840  221.9810 C   0  0  0  0  0  0  0  0  0  0  0  0
  136.8950   76.1920  222.6730 O   0  0  0  0  0  0  0  0  0  0  0  0
  138.9780   76.6940  221.9170 N   0  0  0  0  0  0  0  0  0  0  0  0
  138.7430   78.1100  222.3210 C   0  0  0  0  0  0  0  0  0  0  0  0
  140.0460   78.5230  222.9390 C   0  0  0  0  0  0  0  0  0  0  0  0
  141.0360   77.4300  222.6380 C   0  0  0  0  0  0  0  0  0  0  0  0
  140.3410   76.6630  221.5090 C   0  0  1  0  0  0  0  0  0  0  0  0
  140.9760   75.3660  221.3020 C   0  0  0  0  0  0  0  0  0  0  0  0
  141.9650   75.2800  220.3610 N   0  0  0  0  0  0  0  0  0  0  0  0
  142.6480   74.1740  220.0960 C   0  0  0  0  0  0  0  0  0  0  0  0
  142.3610   73.0110  220.8090 C   0  0  0  0  0  0  0  0  0  0  0  0
  143.2130   71.5140  220.5230 Cl  0  0  0  0  0  0  0  0  0  0  0  0
  141.3650   73.0760  221.7660 C   0  0  0  0  0  0  0  0  0  0  0  0
  140.7190   74.2370  221.9720 N   0  0  0  0  0  0  0  0  0  0  0  0
  138.3680   71.1080  223.1900 C   0  0  0  0  0  0  0  0  0  0  0  0
  138.0420   69.7690  223.1280 C   0  0  0  0  0  0  0  0  0  0  0  0
  138.5290   68.8370  224.0320 C   0  0  0  0  0  0  0  0  0  0  0  0
  139.3780   69.2900  225.0290 C   0  0  0  0  0  0  0  0  0  0  0  0
  139.8670   68.3710  225.9300 C   0  0  0  0  0  0  0  0  0  0  0  0
  140.7180   68.7700  226.9470 C   0  0  0  0  0  0  0  0  0  0  0  0
  141.0450   70.1090  227.0090 C   0  0  0  0  0  0  0  0  0  0  0  0
  140.5550   71.0350  226.1030 C   0  0  0  0  0  0  0  0  0  0  0  0
  139.6990   70.6210  225.0870 C   0  0  0  0  0  0  0  0  0  0  0  0
  139.2020   71.4780  224.1920 N   0  0  0  0  0  0  0  0  0  0  0  0
  138.9430   73.6890  223.0940 H   0  0  0  0  0  0  0  0  0  0  0  0
  138.3645   74.4181  220.4587 H   0  0  0  0  0  0  0  0  0  0  0  0
  136.7157   74.2709  221.1650 H   0  0  0  0  0  0  0  0  0  0  0  0
  138.5083   78.7340  221.4460 H   0  0  0  0  0  0  0  0  0  0  0  0
  137.8906   78.2222  223.0072 H   0  0  0  0  0  0  0  0  0  0  0  0
  140.3873   79.4736  222.5032 H   0  0  0  0  0  0  0  0  0  0  0  0
  139.9390   78.6708  224.0238 H   0  0  0  0  0  0  0  0  0  0  0  0
  141.9985   77.8450  222.3042 H   0  0  0  0  0  0  0  0  0  0  0  0
  141.2812   76.8052  223.5095 H   0  0  0  0  0  0  0  0  0  0  0  0
  140.4200   77.0840  220.4958 H   0  0  0  0  0  0  0  0  0  0  0  0
  143.4309   74.1746  219.3233 H   0  0  0  0  0  0  0  0  0  0  0  0
  141.1031   72.1843  222.3545 H   0  0  0  0  0  0  0  0  0  0  0  0
  137.3682   69.4266  222.3288 H   0  0  0  0  0  0  0  0  0  0  0  0
  138.2510   67.7751  223.9601 H   0  0  0  0  0  0  0  0  0  0  0  0
  139.5798   67.3128  225.8414 H   0  0  0  0  0  0  0  0  0  0  0  0
  141.1170   68.0489  227.6756 H   0  0  0  0  0  0  0  0  0  0  0  0
  141.7193   70.4536  227.8069 H   0  0  0  0  0  0  0  0  0  0  0  0
  140.8414   72.0938  226.1863 H   0  0  0  0  0  0  0  0  0  0  0  0
  1  2  2  0
  2  3  1  0
  3  4  1  0
  4  5  1  0
  5  6  2  0
  5  7  1  0
  7  8  1  0
  8  9  1  0
  9 10  1  0
 10 11  1  0
 11 12  1  0
 12 13  2  0
 13 14  1  0
 14 15  2  0
 15 16  1  0
 15 17  1  0
 17 18  2  0
  2 19  1  0
 19 20  2  0
 20 21  1  0
 21 22  2  0
 22 23  1  0
 23 24  2  0
 24 25  1  0
 25 26  2  0
 26 27  1  0
 27 28  2  0
 11  7  1  0
 18 12  1  0
 28 19  1  0
 27 22  1  0
  3 29  1  0
  4 30  1  0
  4 31  1  0
  8 32  1  0
  8 33  1  0
  9 34  1  0
  9 35  1  0
 10 36  1  0
 10 37  1  0
 11 38  1  6
 14 39  1  0
 17 40  1  0
 20 41  1  0
 21 42  1  0
 23 43  1  0
 24 44  1  0
 25 45  1  0
 26 46  1  0
M  END
>  <smiles>  (40) 
O=C(NCC(=O)N1CCC[C@H]1c1ncc(Cl)cn1)c1ccc2ccccc2n1

>  <score_type>  (40) 
oracle

>  <origin>  (40) 
autodockgpu

>  <m_score__min__energy>  (40) 
-8.4100000000000001

>  <m_primary>  (40) 
energy

>  <rmsd>  (40) 
3.777099182705441

>  <m_score__min__rmsd>  (40) 
3.777099182705441

>  <meeko>  (40) 
{"free_energy": -7.12, "intermolecular_energy": -8.61, "internal_energy": -2.47, "cluster_size": 1, "cluster_id": 6, "rank_in_cluster": 1}

>  <energy>  (40) 
-7.16

>  <cluster_rmsd>  (40) 
0.0

>  <cluster>  (40) 
5

$$$$

     RDKit          3D

 46 49  0  0  0  0  0  0  0  0999 V2000
  141.5490   72.7120  221.4880 O   0  0  0  0  0  0  0  0  0  0  0  0
  140.6030   72.8860  222.2960 C   0  0  0  0  0  0  0  0  0  0  0  0
  139.8150   74.0670  222.3460 N   0  0  0  0  0  0  0  0  0  0  0  0
  140.0790   75.1930  221.4100 C   0  0  0  0  0  0  0  0  0  0  0  0
  139.6820   76.4530  222.0240 C   0  0  0  0  0  0  0  0  0  0  0  0
  138.5940   76.4150  222.7250 O   0  0  0  0  0  0  0  0  0  0  0  0
  140.3010   77.7120  221.9720 N   0  0  0  0  0  0  0  0  0  0  0  0
  140.0290   78.6950  223.0600 C   0  0  0  0  0  0  0  0  0  0  0  0
  141.3260   79.4340  223.2020 C   0  0  0  0  0  0  0  0  0  0  0  0
  142.1890   79.0270  222.0380 C   0  0  0  0  0  0  0  0  0  0  0  0
  141.1710   78.4020  221.0800 C   0  0  1  0  0  0  0  0  0  0  0  0
  141.8470   77.6380  220.0370 C   0  0  0  0  0  0  0  0  0  0  0  0
  141.9110   78.1820  218.7840 N   0  0  0  0  0  0  0  0  0  0  0  0
  142.5250   77.6130  217.7540 C   0  0  0  0  0  0  0  0  0  0  0  0
  143.1540   76.3820  217.9340 C   0  0  0  0  0  0  0  0  0  0  0  0
  143.9830   75.5660  216.6320 Cl  0  0  0  0  0  0  0  0  0  0  0  0
  143.1010   75.8140  219.1930 C   0  0  0  0  0  0  0  0  0  0  0  0
  142.4570   76.4570  220.1840 N   0  0  0  0  0  0  0  0  0  0  0  0
  140.2900   71.8130  223.2490 C   0  0  0  0  0  0  0  0  0  0  0  0
  139.5850   70.6890  222.8700 C   0  0  0  0  0  0  0  0  0  0  0  0
  139.2780   69.6660  223.7530 C   0  0  0  0  0  0  0  0  0  0  0  0
  139.7070   69.7970  225.0650 C   0  0  0  0  0  0  0  0  0  0  0  0
  139.4070   68.7840  225.9480 C   0  0  0  0  0  0  0  0  0  0  0  0
  139.8120   68.8640  227.2700 C   0  0  0  0  0  0  0  0  0  0  0  0
  140.5170   69.9880  227.6490 C   0  0  0  0  0  0  0  0  0  0  0  0
  140.8200   71.0070  226.7610 C   0  0  0  0  0  0  0  0  0  0  0  0
  140.4070   70.9150  225.4360 C   0  0  0  0  0  0  0  0  0  0  0  0
  140.6760   71.8730  224.5450 N   0  0  0  0  0  0  0  0  0  0  0  0
  139.0420   74.1390  223.0480 H   0  0  0  0  0  0  0  0  0  0  0  0
  141.1526   75.2255  221.1725 H   0  0  0  0  0  0  0  0  0  0  0  0
  139.4981   75.0410  220.4883 H   0  0  0  0  0  0  0  0  0  0  0  0
  139.2162   79.3797  222.7762 H   0  0  0  0  0  0  0  0  0  0  0  0
  139.7056   78.2167  223.9963 H   0  0  0  0  0  0  0  0  0  0  0  0
  141.1477   80.5192  223.1798 H   0  0  0  0  0  0  0  0  0  0  0  0
  141.8142   79.1936  224.1580 H   0  0  0  0  0  0  0  0  0  0  0  0
  142.6811   79.8991  221.5828 H   0  0  0  0  0  0  0  0  0  0  0  0
  143.0090   78.3477  222.3139 H   0  0  0  0  0  0  0  0  0  0  0  0
  140.5764   79.0916  220.4628 H   0  0  0  0  0  0  0  0  0  0  0  0
  142.5374   78.1064  216.7710 H   0  0  0  0  0  0  0  0  0  0  0  0
  143.5819   74.8432  219.3834 H   0  0  0  0  0  0  0  0  0  0  0  0
  139.2533   70.6015  221.8249 H   0  0  0  0  0  0  0  0  0  0  0  0
  138.7136   68.7808  223.4245 H   0  0  0  0  0  0  0  0  0  0  0  0
  138.8423   67.9060  225.6014 H   0  0  0  0  0  0  0  0  0  0  0  0
  139.5810   68.0639  227.9887 H   0  0  0  0  0  0  0  0  0  0  0  0
  140.8502   70.0780  228.6934 H   0  0  0  0  0  0  0  0  0  0  0  0
  141.3856   71.8864  227.1027 H   0  0  0  0  0  0  0  0  0  0  0  0
  1  2  2  0
  2  3  1  0
  3  4  1  0
  4  5  1  0
  5  6  2  0
  5  7  1  0
  7  8  1  0
  8  9  1  0
  9 10  1  0
 10 11  1  0
 11 12  1  0
 12 13  2  0
 13 14  1  0
 14 15  2  0
 15 16  1  0
 15 17  1  0
 17 18  2  0
  2 19  1  0
 19 20  2  0
 20 21  1  0
 21 22  2  0
 22 23  1  0
 23 24  2  0
 24 25  1  0
 25 26  2  0
 26 27  1  0
 27 28  2  0
 11  7  1  0
 18 12  1  0
 28 19  1  0
 27 22  1  0
  3 29  1  0
  4 30  1  0
  4 31  1  0
  8 32  1  0
  8 33  1  0
  9 34  1  0
  9 35  1  0
 10 36  1  0
 10 37  1  0
 11 38  1  6
 14 39  1  0
 17 40  1  0
 20 41  1  0
 21 42  1  0
 23 43  1  0
 24 44  1  0
 25 45  1  0
 26 46  1  0
M  END
>  <smiles>  (41) 
O=C(NCC(=O)N1CCC[C@H]1c1ncc(Cl)cn1)c1ccc2ccccc2n1

>  <score_type>  (41) 
oracle

>  <origin>  (41) 
autodockgpu

>  <m_score__min__energy>  (41) 
-8.4100000000000001

>  <m_primary>  (41) 
energy

>  <rmsd>  (41) 
3.7583834154804987

>  <m_score__min__rmsd>  (41) 
3.7583834154804987

>  <meeko>  (41) 
{"free_energy": -7.87, "intermolecular_energy": -9.37, "internal_energy": -1.69, "cluster_size": 6, "cluster_id": 3, "rank_in_cluster": 1}

>  <energy>  (41) 
-7.12

>  <cluster_rmsd>  (41) 
0.0

>  <cluster>  (41) 
6

$$$$

     RDKit          3D

 46 49  0  0  0  0  0  0  0  0999 V2000
  141.3710   71.6460  221.5430 O   0  0  0  0  0  0  0  0  0  0  0  0
  140.6190   72.1110  222.4350 C   0  0  0  0  0  0  0  0  0  0  0  0
  140.0170   73.3960  222.3710 N   0  0  0  0  0  0  0  0  0  0  0  0
  140.2570   74.2860  221.2030 C   0  0  0  0  0  0  0  0  0  0  0  0
  140.4420   75.6580  221.6530 C   0  0  0  0  0  0  0  0  0  0  0  0
  139.7820   75.9920  222.7160 O   0  0  0  0  0  0  0  0  0  0  0  0
  141.2300   76.6840  221.1080 N   0  0  0  0  0  0  0  0  0  0  0  0
  142.1790   76.3560  220.0050 C   0  0  0  0  0  0  0  0  0  0  0  0
  142.1730   77.5900  219.1530 C   0  0  0  0  0  0  0  0  0  0  0  0
  141.4330   78.6480  219.9260 C   0  0  0  0  0  0  0  0  0  0  0  0
  141.4290   78.0740  221.3450 C   0  0  1  0  0  0  0  0  0  0  0  0
  140.4680   78.7820  222.1840 C   0  0  0  0  0  0  0  0  0  0  0  0
  140.9460   79.7320  223.0440 N   0  0  0  0  0  0  0  0  0  0  0  0
  140.1820   80.4730  223.8360 C   0  0  0  0  0  0  0  0  0  0  0  0
  138.8000   80.2930  223.8090 C   0  0  0  0  0  0  0  0  0  0  0  0
  137.7240   81.2260  224.8190 Cl  0  0  0  0  0  0  0  0  0  0  0  0
  138.2960   79.3380  222.9470 C   0  0  0  0  0  0  0  0  0  0  0  0
  139.1400   78.6280  222.1770 N   0  0  0  0  0  0  0  0  0  0  0  0
  140.3410   71.2830  223.6160 C   0  0  0  0  0  0  0  0  0  0  0  0
  139.6760   70.0780  223.5180 C   0  0  0  0  0  0  0  0  0  0  0  0
  139.4030   69.2830  224.6210 C   0  0  0  0  0  0  0  0  0  0  0  0
  139.8240   69.7350  225.8620 C   0  0  0  0  0  0  0  0  0  0  0  0
  139.5580   68.9500  226.9610 C   0  0  0  0  0  0  0  0  0  0  0  0
  139.9570   69.3550  228.2240 C   0  0  0  0  0  0  0  0  0  0  0  0
  140.6210   70.5600  228.3220 C   0  0  0  0  0  0  0  0  0  0  0  0
  140.8910   71.3500  227.2170 C   0  0  0  0  0  0  0  0  0  0  0  0
  140.4840   70.9320  225.9530 C   0  0  0  0  0  0  0  0  0  0  0  0
  140.7220   71.6610  224.8600 N   0  0  0  0  0  0  0  0  0  0  0  0
  139.4000   73.7130  223.1540 H   0  0  0  0  0  0  0  0  0  0  0  0
  141.1597   73.9524  220.6701 H   0  0  0  0  0  0  0  0  0  0  0  0
  139.3884   74.2406  220.5296 H   0  0  0  0  0  0  0  0  0  0  0  0
  143.1861   76.1569  220.4001 H   0  0  0  0  0  0  0  0  0  0  0  0
  141.8903   75.4521  219.4486 H   0  0  0  0  0  0  0  0  0  0  0  0
  143.2040   77.9178  218.9539 H   0  0  0  0  0  0  0  0  0  0  0  0
  141.6894   77.3983  218.1838 H   0  0  0  0  0  0  0  0  0  0  0  0
  141.9616   79.6119  219.8879 H   0  0  0  0  0  0  0  0  0  0  0  0
  140.4271   78.8573  219.5332 H   0  0  0  0  0  0  0  0  0  0  0  0
  142.3439   78.2072  221.9410 H   0  0  0  0  0  0  0  0  0  0  0  0
  140.6334   81.2200  224.5055 H   0  0  0  0  0  0  0  0  0  0  0  0
  137.2120   79.1595  222.8908 H   0  0  0  0  0  0  0  0  0  0  0  0
  139.3494   69.7343  222.5255 H   0  0  0  0  0  0  0  0  0  0  0  0
  138.8705   68.3263  224.5148 H   0  0  0  0  0  0  0  0  0  0  0  0
  139.0256   67.9957  226.8355 H   0  0  0  0  0  0  0  0  0  0  0  0
  139.7526   68.7404  229.1131 H   0  0  0  0  0  0  0  0  0  0  0  0
  140.9479   70.9060  229.3137 H   0  0  0  0  0  0  0  0  0  0  0  0
  141.4250   72.3041  227.3376 H   0  0  0  0  0  0  0  0  0  0  0  0
  1  2  2  0
  2  3  1  0
  3  4  1  0
  4  5  1  0
  5  6  2  0
  5  7  1  0
  7  8  1  0
  8  9  1  0
  9 10  1  0
 10 11  1  0
 11 12  1  0
 12 13  2  0
 13 14  1  0
 14 15  2  0
 15 16  1  0
 15 17  1  0
 17 18  2  0
  2 19  1  0
 19 20  2  0
 20 21  1  0
 21 22  2  0
 22 23  1  0
 23 24  2  0
 24 25  1  0
 25 26  2  0
 26 27  1  0
 27 28  2  0
 11  7  1  0
 18 12  1  0
 28 19  1  0
 27 22  1  0
  3 29  1  0
  4 30  1  0
  4 31  1  0
  8 32  1  0
  8 33  1  0
  9 34  1  0
  9 35  1  0
 10 36  1  0
 10 37  1  0
 11 38  1  1
 14 39  1  0
 17 40  1  0
 20 41  1  0
 21 42  1  0
 23 43  1  0
 24 44  1  0
 25 45  1  0
 26 46  1  0
M  END
>  <smiles>  (42) 
O=C(NCC(=O)N1CCC[C@H]1c1ncc(Cl)cn1)c1ccc2ccccc2n1

>  <score_type>  (42) 
oracle

>  <origin>  (42) 
autodockgpu

>  <m_score__min__energy>  (42) 
-8.4100000000000001

>  <m_primary>  (42) 
energy

>  <rmsd>  (42) 
2.3637515152158888

>  <m_score__min__rmsd>  (42) 
2.3637515152158888

>  <meeko>  (42) 
{"free_energy": -8.4, "intermolecular_energy": -9.9, "internal_energy": -1.61, "cluster_size": 21, "cluster_id": 1, "rank_in_cluster": 2}

>  <energy>  (42) 
-6.96

>  <cluster_rmsd>  (42) 
0.0

>  <cluster>  (42) 
7

$$$$

     RDKit          3D

 46 49  0  0  0  0  0  0  0  0999 V2000
  140.2820   71.0450  221.3240 O   0  0  0  0  0  0  0  0  0  0  0  0
  139.9980   71.6640  222.3800 C   0  0  0  0  0  0  0  0  0  0  0  0
  139.6680   73.0450  222.4210 N   0  0  0  0  0  0  0  0  0  0  0  0
  139.6410   73.8540  221.1720 C   0  0  0  0  0  0  0  0  0  0  0  0
  139.9150   75.2510  221.4790 C   0  0  0  0  0  0  0  0  0  0  0  0
  139.5900   75.6360  222.6720 O   0  0  0  0  0  0  0  0  0  0  0  0
  140.4790   76.2530  220.6740 N   0  0  0  0  0  0  0  0  0  0  0  0
  139.8110   77.5850  220.6070 C   0  0  0  0  0  0  0  0  0  0  0  0
  140.9530   78.5470  220.4610 C   0  0  0  0  0  0  0  0  0  0  0  0
  142.1850   77.7240  220.1980 C   0  0  0  0  0  0  0  0  0  0  0  0
  141.5920   76.3700  219.7950 C   0  0  1  0  0  0  0  0  0  0  0  0
  142.6160   75.3310  219.8250 C   0  0  0  0  0  0  0  0  0  0  0  0
  142.2460   74.0580  219.4910 N   0  0  0  0  0  0  0  0  0  0  0  0
  143.0810   73.0270  219.4430 C   0  0  0  0  0  0  0  0  0  0  0  0
  144.4260   73.2280  219.7470 C   0  0  0  0  0  0  0  0  0  0  0  0
  145.5900   71.9270  219.7080 Cl  0  0  0  0  0  0  0  0  0  0  0  0
  144.8210   74.5080  220.0870 C   0  0  0  0  0  0  0  0  0  0  0  0
  143.9110   75.4980  220.1130 N   0  0  0  0  0  0  0  0  0  0  0  0
  140.0070   70.9250  223.6490 C   0  0  0  0  0  0  0  0  0  0  0  0
  139.5060   69.6430  223.7460 C   0  0  0  0  0  0  0  0  0  0  0  0
  139.5040   68.9290  224.9340 C   0  0  0  0  0  0  0  0  0  0  0  0
  140.0330   69.5450  226.0570 C   0  0  0  0  0  0  0  0  0  0  0  0
  140.0360   68.8410  227.2410 C   0  0  0  0  0  0  0  0  0  0  0  0
  140.5530   69.4100  228.3930 C   0  0  0  0  0  0  0  0  0  0  0  0
  141.0540   70.6910  228.2960 C   0  0  0  0  0  0  0  0  0  0  0  0
  141.0530   71.4000  227.1060 C   0  0  0  0  0  0  0  0  0  0  0  0
  140.5310   70.8180  225.9550 C   0  0  0  0  0  0  0  0  0  0  0  0
  140.5080   71.4630  224.7860 N   0  0  0  0  0  0  0  0  0  0  0  0
  139.4420   73.4920  223.3400 H   0  0  0  0  0  0  0  0  0  0  0  0
  140.4055   73.4768  220.4768 H   0  0  0  0  0  0  0  0  0  0  0  0
  138.6458   73.7736  220.7104 H   0  0  0  0  0  0  0  0  0  0  0  0
  139.1361   77.6425  219.7403 H   0  0  0  0  0  0  0  0  0  0  0  0
  139.1866   77.7942  221.4881 H   0  0  0  0  0  0  0  0  0  0  0  0
  140.7672   79.2301  219.6190 H   0  0  0  0  0  0  0  0  0  0  0  0
  141.0728   79.1574  221.3682 H   0  0  0  0  0  0  0  0  0  0  0  0
  142.7854   78.1546  219.3831 H   0  0  0  0  0  0  0  0  0  0  0  0
  142.8691   77.6674  221.0575 H   0  0  0  0  0  0  0  0  0  0  0  0
  141.2391   76.2671  218.7582 H   0  0  0  0  0  0  0  0  0  0  0  0
  142.7158   72.0268  219.1668 H   0  0  0  0  0  0  0  0  0  0  0  0
  145.8724   74.7157  220.3347 H   0  0  0  0  0  0  0  0  0  0  0  0
  139.0915   69.1686  222.8443 H   0  0  0  0  0  0  0  0  0  0  0  0
  139.0965   67.9085  224.9837 H   0  0  0  0  0  0  0  0  0  0  0  0
  139.6254   67.8210  227.2717 H   0  0  0  0  0  0  0  0  0  0  0  0
  140.5635   68.8622  229.3468 H   0  0  0  0  0  0  0  0  0  0  0  0
  141.4696   71.1672  229.1963 H   0  0  0  0  0  0  0  0  0  0  0  0
  141.4636   72.4199  227.0711 H   0  0  0  0  0  0  0  0  0  0  0  0
  1  2  2  0
  2  3  1  0
  3  4  1  0
  4  5  1  0
  5  6  2  0
  5  7  1  0
  7  8  1  0
  8  9  1  0
  9 10  1  0
 10 11  1  0
 11 12  1  0
 12 13  2  0
 13 14  1  0
 14 15  2  0
 15 16  1  0
 15 17  1  0
 17 18  2  0
  2 19  1  0
 19 20  2  0
 20 21  1  0
 21 22  2  0
 22 23  1  0
 23 24  2  0
 24 25  1  0
 25 26  2  0
 26 27  1  0
 27 28  2  0
 11  7  1  0
 18 12  1  0
 28 19  1  0
 27 22  1  0
  3 29  1  0
  4 30  1  0
  4 31  1  0
  8 32  1  0
  8 33  1  0
  9 34  1  0
  9 35  1  0
 10 36  1  0
 10 37  1  0
 11 38  1  6
 14 39  1  0
 17 40  1  0
 20 41  1  0
 21 42  1  0
 23 43  1  0
 24 44  1  0
 25 45  1  0
 26 46  1  0
M  END
>  <smiles>  (43) 
O=C(NCC(=O)N1CCC[C@H]1c1ncc(Cl)cn1)c1ccc2ccccc2n1

>  <score_type>  (43) 
oracle

>  <origin>  (43) 
autodockgpu

>  <m_score__min__energy>  (43) 
-8.4100000000000001

>  <m_primary>  (43) 
energy

>  <rmsd>  (43) 
3.379847182795199

>  <m_score__min__rmsd>  (43) 
3.379847182795199

>  <meeko>  (43) 
{"free_energy": -7.81, "intermolecular_energy": -9.31, "internal_energy": -2.07, "cluster_size": 6, "cluster_id": 3, "rank_in_cluster": 2}

>  <energy>  (43) 
-6.94

>  <cluster_rmsd>  (43) 
0.21

>  <cluster>  (43) 
7

$$$$

     RDKit          3D

 46 49  0  0  0  0  0  0  0  0999 V2000
  139.0420   70.6850  221.5440 O   0  0  0  0  0  0  0  0  0  0  0  0
  139.3960   71.2810  222.5910 C   0  0  0  0  0  0  0  0  0  0  0  0
  139.6390   72.6790  222.6610 N   0  0  0  0  0  0  0  0  0  0  0  0
  139.4810   73.5350  221.4540 C   0  0  0  0  0  0  0  0  0  0  0  0
  139.4560   74.9390  221.8410 C   0  0  0  0  0  0  0  0  0  0  0  0
  140.5600   75.4040  222.3300 O   0  0  0  0  0  0  0  0  0  0  0  0
  138.4100   75.8730  221.7670 N   0  0  0  0  0  0  0  0  0  0  0  0
  137.0220   75.3830  221.5250 C   0  0  0  0  0  0  0  0  0  0  0  0
  136.1690   76.3370  222.3060 C   0  0  0  0  0  0  0  0  0  0  0  0
  137.0650   77.4640  222.7440 C   0  0  0  0  0  0  0  0  0  0  0  0
  138.2800   77.2890  221.8290 C   0  0  1  0  0  0  0  0  0  0  0  0
  139.4100   78.0710  222.3200 C   0  0  0  0  0  0  0  0  0  0  0  0
  140.5500   78.0930  221.5640 N   0  0  0  0  0  0  0  0  0  0  0  0
  141.6370   78.7880  221.8740 C   0  0  0  0  0  0  0  0  0  0  0  0
  141.6430   79.5560  223.0370 C   0  0  0  0  0  0  0  0  0  0  0  0
  143.0310   80.5010  223.5170 Cl  0  0  0  0  0  0  0  0  0  0  0  0
  140.5010   79.5480  223.8160 C   0  0  0  0  0  0  0  0  0  0  0  0
  139.4420   78.8140  223.4310 N   0  0  0  0  0  0  0  0  0  0  0  0
  139.5700   70.4940  223.8190 C   0  0  0  0  0  0  0  0  0  0  0  0
  139.1630   69.1790  223.9030 C   0  0  0  0  0  0  0  0  0  0  0  0
  139.3180   68.4190  225.0520 C   0  0  0  0  0  0  0  0  0  0  0  0
  139.9100   69.0250  226.1500 C   0  0  0  0  0  0  0  0  0  0  0  0
  140.0690   68.2770  227.2950 C   0  0  0  0  0  0  0  0  0  0  0  0
  140.6540   68.8330  228.4200 C   0  0  0  0  0  0  0  0  0  0  0  0
  141.0610   70.1490  228.3360 C   0  0  0  0  0  0  0  0  0  0  0  0
  140.9030   70.9020  227.1850 C   0  0  0  0  0  0  0  0  0  0  0  0
  140.3130   70.3320  226.0610 C   0  0  0  0  0  0  0  0  0  0  0  0
  140.1400   71.0200  224.9300 N   0  0  0  0  0  0  0  0  0  0  0  0
  139.9300   73.1040  223.5720 H   0  0  0  0  0  0  0  0  0  0  0  0
  140.3247   73.3603  220.7701 H   0  0  0  0  0  0  0  0  0  0  0  0
  138.5359   73.2812  220.9516 H   0  0  0  0  0  0  0  0  0  0  0  0
  136.7735   75.4207  220.4541 H   0  0  0  0  0  0  0  0  0  0  0  0
  136.8798   74.3356  221.8294 H   0  0  0  0  0  0  0  0  0  0  0  0
  135.3565   76.7234  221.6732 H   0  0  0  0  0  0  0  0  0  0  0  0
  135.7109   75.8378  223.1726 H   0  0  0  0  0  0  0  0  0  0  0  0
  136.5838   78.4403  222.5850 H   0  0  0  0  0  0  0  0  0  0  0  0
  137.3130   77.4387  223.8154 H   0  0  0  0  0  0  0  0  0  0  0  0
  138.1972   77.6849  220.8061 H   0  0  0  0  0  0  0  0  0  0  0  0
  142.5220   78.7584  221.2214 H   0  0  0  0  0  0  0  0  0  0  0  0
  140.4589   80.1375  224.7437 H   0  0  0  0  0  0  0  0  0  0  0  0
  138.6962   68.7141  223.0221 H   0  0  0  0  0  0  0  0  0  0  0  0
  138.9831   67.3719  225.0914 H   0  0  0  0  0  0  0  0  0  0  0  0
  139.7291   67.2310  227.3161 H   0  0  0  0  0  0  0  0  0  0  0  0
  140.7888   68.2497  229.3428 H   0  0  0  0  0  0  0  0  0  0  0  0
  141.5279   70.6166  229.2154 H   0  0  0  0  0  0  0  0  0  0  0  0
  141.2429   71.9479  227.1591 H   0  0  0  0  0  0  0  0  0  0  0  0
  1  2  2  0
  2  3  1  0
  3  4  1  0
  4  5  1  0
  5  6  2  0
  5  7  1  0
  7  8  1  0
  8  9  1  0
  9 10  1  0
 10 11  1  0
 11 12  1  0
 12 13  2  0
 13 14  1  0
 14 15  2  0
 15 16  1  0
 15 17  1  0
 17 18  2  0
  2 19  1  0
 19 20  2  0
 20 21  1  0
 21 22  2  0
 22 23  1  0
 23 24  2  0
 24 25  1  0
 25 26  2  0
 26 27  1  0
 27 28  2  0
 11  7  1  0
 18 12  1  0
 28 19  1  0
 27 22  1  0
  3 29  1  0
  4 30  1  0
  4 31  1  0
  8 32  1  0
  8 33  1  0
  9 34  1  0
  9 35  1  0
 10 36  1  0
 10 37  1  0
 11 38  1  6
 14 39  1  0
 17 40  1  0
 20 41  1  0
 21 42  1  0
 23 43  1  0
 24 44  1  0
 25 45  1  0
 26 46  1  0
M  END
>  <smiles>  (44) 
O=C(NCC(=O)N1CCC[C@H]1c1ncc(Cl)cn1)c1ccc2ccccc2n1

>  <score_type>  (44) 
oracle

>  <origin>  (44) 
autodockgpu

>  <m_score__min__energy>  (44) 
-8.4100000000000001

>  <m_primary>  (44) 
energy

>  <rmsd>  (44) 
2.8879792590847693

>  <m_score__min__rmsd>  (44) 
2.8879792590847693

>  <meeko>  (44) 
{"free_energy": -8.35, "intermolecular_energy": -9.84, "internal_energy": -1.59, "cluster_size": 11, "cluster_id": 2, "rank_in_cluster": 5}

>  <energy>  (44) 
-6.92

>  <cluster_rmsd>  (44) 
0.82

>  <cluster>  (44) 
7

$$$$

     RDKit          3D

 46 49  0  0  0  0  0  0  0  0999 V2000
  138.2800   70.6890  221.8780 O   0  0  0  0  0  0  0  0  0  0  0  0
  138.9430   71.2670  222.7740 C   0  0  0  0  0  0  0  0  0  0  0  0
  139.3730   72.6180  222.6910 N   0  0  0  0  0  0  0  0  0  0  0  0
  139.0480   73.4440  221.4960 C   0  0  0  0  0  0  0  0  0  0  0  0
  139.1440   74.8580  221.8290 C   0  0  0  0  0  0  0  0  0  0  0  0
  140.3130   75.2660  222.2080 O   0  0  0  0  0  0  0  0  0  0  0  0
  138.1570   75.8560  221.8030 N   0  0  0  0  0  0  0  0  0  0  0  0
  136.7230   75.4500  221.7330 C   0  0  0  0  0  0  0  0  0  0  0  0
  136.0180   76.5020  222.5360 C   0  0  0  0  0  0  0  0  0  0  0  0
  137.0240   77.5870  222.8110 C   0  0  0  0  0  0  0  0  0  0  0  0
  138.1230   77.2790  221.7910 C   0  0  1  0  0  0  0  0  0  0  0  0
  139.3450   78.0070  222.1160 C   0  0  0  0  0  0  0  0  0  0  0  0
  139.3440   78.7920  223.2360 N   0  0  0  0  0  0  0  0  0  0  0  0
  140.3950   79.4790  223.6660 C   0  0  0  0  0  0  0  0  0  0  0  0
  141.5890   79.4130  222.9500 C   0  0  0  0  0  0  0  0  0  0  0  0
  143.0170   80.2850  223.4470 Cl  0  0  0  0  0  0  0  0  0  0  0  0
  141.6110   78.6250  221.8140 C   0  0  0  0  0  0  0  0  0  0  0  0
  140.5010   77.9610  221.4460 N   0  0  0  0  0  0  0  0  0  0  0  0
  139.2980   70.5090  223.9810 C   0  0  0  0  0  0  0  0  0  0  0  0
  139.0530   69.1560  224.0870 C   0  0  0  0  0  0  0  0  0  0  0  0
  139.3790   68.4220  225.2170 C   0  0  0  0  0  0  0  0  0  0  0  0
  139.9770   69.0950  226.2710 C   0  0  0  0  0  0  0  0  0  0  0  0
  140.3050   68.3730  227.3970 C   0  0  0  0  0  0  0  0  0  0  0  0
  140.9040   68.9970  228.4790 C   0  0  0  0  0  0  0  0  0  0  0  0
  141.1500   70.3500  228.3740 C   0  0  0  0  0  0  0  0  0  0  0  0
  140.8210   71.0770  227.2410 C   0  0  0  0  0  0  0  0  0  0  0  0
  140.2190   70.4390  226.1610 C   0  0  0  0  0  0  0  0  0  0  0  0
  139.8840   71.1000  225.0500 N   0  0  0  0  0  0  0  0  0  0  0  0
  139.9220   73.0320  223.4810 H   0  0  0  0  0  0  0  0  0  0  0  0
  139.7569   73.2108  220.6879 H   0  0  0  0  0  0  0  0  0  0  0  0
  138.0225   73.2183  221.1682 H   0  0  0  0  0  0  0  0  0  0  0  0
  136.3665   75.4459  220.6924 H   0  0  0  0  0  0  0  0  0  0  0  0
  136.5480   74.4331  222.1142 H   0  0  0  0  0  0  0  0  0  0  0  0
  135.1695   76.9082  221.9659 H   0  0  0  0  0  0  0  0  0  0  0  0
  135.6228   76.0838  223.4735 H   0  0  0  0  0  0  0  0  0  0  0  0
  136.5911   78.5839  222.6414 H   0  0  0  0  0  0  0  0  0  0  0  0
  137.3808   77.6035  223.8514 H   0  0  0  0  0  0  0  0  0  0  0  0
  137.9581   77.6233  220.7594 H   0  0  0  0  0  0  0  0  0  0  0  0
  140.3246   80.0928  224.5761 H   0  0  0  0  0  0  0  0  0  0  0  0
  142.5301   78.5418  221.2154 H   0  0  0  0  0  0  0  0  0  0  0  0
  138.5794   68.6379  223.2401 H   0  0  0  0  0  0  0  0  0  0  0  0
  139.1705   67.3435  225.2751 H   0  0  0  0  0  0  0  0  0  0  0  0
  140.0901   67.2949  227.4374 H   0  0  0  0  0  0  0  0  0  0  0  0
  141.1728   68.4356  229.3860 H   0  0  0  0  0  0  0  0  0  0  0  0
  141.6240   70.8703  229.2193 H   0  0  0  0  0  0  0  0  0  0  0  0
  141.0351   72.1550  227.1957 H   0  0  0  0  0  0  0  0  0  0  0  0
  1  2  2  0
  2  3  1  0
  3  4  1  0
  4  5  1  0
  5  6  2  0
  5  7  1  0
  7  8  1  0
  8  9  1  0
  9 10  1  0
 10 11  1  0
 11 12  1  0
 12 13  2  0
 13 14  1  0
 14 15  2  0
 15 16  1  0
 15 17  1  0
 17 18  2  0
  2 19  1  0
 19 20  2  0
 20 21  1  0
 21 22  2  0
 22 23  1  0
 23 24  2  0
 24 25  1  0
 25 26  2  0
 26 27  1  0
 27 28  2  0
 11  7  1  0
 18 12  1  0
 28 19  1  0
 27 22  1  0
  3 29  1  0
  4 30  1  0
  4 31  1  0
  8 32  1  0
  8 33  1  0
  9 34  1  0
  9 35  1  0
 10 36  1  0
 10 37  1  0
 11 38  1  6
 14 39  1  0
 17 40  1  0
 20 41  1  0
 21 42  1  0
 23 43  1  0
 24 44  1  0
 25 45  1  0
 26 46  1  0
M  END
>  <smiles>  (45) 
O=C(NCC(=O)N1CCC[C@H]1c1ncc(Cl)cn1)c1ccc2ccccc2n1

>  <score_type>  (45) 
oracle

>  <origin>  (45) 
autodockgpu

>  <m_score__min__energy>  (45) 
-8.4100000000000001

>  <m_primary>  (45) 
energy

>  <rmsd>  (45) 
2.903915253263007

>  <m_score__min__rmsd>  (45) 
2.903915253263007

>  <meeko>  (45) 
{"free_energy": -8.17, "intermolecular_energy": -9.66, "internal_energy": -1.66, "cluster_size": 11, "cluster_id": 2, "rank_in_cluster": 9}

>  <energy>  (45) 
-6.89

>  <cluster_rmsd>  (45) 
0.88

>  <cluster>  (45) 
7

$$$$

     RDKit          3D

 46 49  0  0  0  0  0  0  0  0999 V2000
  141.1880   71.5180  221.4670 O   0  0  0  0  0  0  0  0  0  0  0  0
  140.5510   72.0510  222.4090 C   0  0  0  0  0  0  0  0  0  0  0  0
  140.0740   73.3890  222.3820 N   0  0  0  0  0  0  0  0  0  0  0  0
  140.3140   74.2540  221.1950 C   0  0  0  0  0  0  0  0  0  0  0  0
  140.4550   75.6420  221.6130 C   0  0  0  0  0  0  0  0  0  0  0  0
  139.7440   75.9930  222.6360 O   0  0  0  0  0  0  0  0  0  0  0  0
  141.2460   76.6670  221.0710 N   0  0  0  0  0  0  0  0  0  0  0  0
  142.1990   76.3380  219.9710 C   0  0  0  0  0  0  0  0  0  0  0  0
  142.1980   77.5720  219.1200 C   0  0  0  0  0  0  0  0  0  0  0  0
  141.4570   78.6320  219.8900 C   0  0  0  0  0  0  0  0  0  0  0  0
  141.4470   78.0560  221.3090 C   0  0  1  0  0  0  0  0  0  0  0  0
  140.4840   78.7650  222.1450 C   0  0  0  0  0  0  0  0  0  0  0  0
  140.9620   79.7020  223.0190 N   0  0  0  0  0  0  0  0  0  0  0  0
  140.1970   80.4430  223.8100 C   0  0  0  0  0  0  0  0  0  0  0  0
  138.8140   80.2770  223.7670 C   0  0  0  0  0  0  0  0  0  0  0  0
  137.7360   81.2110  224.7740 Cl  0  0  0  0  0  0  0  0  0  0  0  0
  138.3090   79.3350  222.8900 C   0  0  0  0  0  0  0  0  0  0  0  0
  139.1550   78.6240  222.1230 N   0  0  0  0  0  0  0  0  0  0  0  0
  140.2800   71.2520  223.6110 C   0  0  0  0  0  0  0  0  0  0  0  0
  139.6140   70.0460  223.5460 C   0  0  0  0  0  0  0  0  0  0  0  0
  139.3470   69.2770  224.6690 C   0  0  0  0  0  0  0  0  0  0  0  0
  139.7770   69.7580  225.8960 C   0  0  0  0  0  0  0  0  0  0  0  0
  139.5170   69.0000  227.0160 C   0  0  0  0  0  0  0  0  0  0  0  0
  139.9240   69.4340  228.2660 C   0  0  0  0  0  0  0  0  0  0  0  0
  140.5900   70.6410  228.3310 C   0  0  0  0  0  0  0  0  0  0  0  0
  140.8530   71.4040  227.2050 C   0  0  0  0  0  0  0  0  0  0  0  0
  140.4380   70.9570  225.9550 C   0  0  0  0  0  0  0  0  0  0  0  0
  140.6690   71.6590  224.8430 N   0  0  0  0  0  0  0  0  0  0  0  0
  139.5490   73.7630  223.2060 H   0  0  0  0  0  0  0  0  0  0  0  0
  141.2351   73.9304  220.6882 H   0  0  0  0  0  0  0  0  0  0  0  0
  139.4606   74.1683  220.5062 H   0  0  0  0  0  0  0  0  0  0  0  0
  143.2043   76.1372  220.3698 H   0  0  0  0  0  0  0  0  0  0  0  0
  141.9110   75.4348  219.4130 H   0  0  0  0  0  0  0  0  0  0  0  0
  143.2303   77.8980  218.9248 H   0  0  0  0  0  0  0  0  0  0  0  0
  141.7170   77.3811  218.1493 H   0  0  0  0  0  0  0  0  0  0  0  0
  141.9878   79.5948  219.8544 H   0  0  0  0  0  0  0  0  0  0  0  0
  140.4533   78.8446  219.4933 H   0  0  0  0  0  0  0  0  0  0  0  0
  142.3605   78.1867  221.9077 H   0  0  0  0  0  0  0  0  0  0  0  0
  140.6487   81.1792  224.4912 H   0  0  0  0  0  0  0  0  0  0  0  0
  137.2240   79.1682  222.8200 H   0  0  0  0  0  0  0  0  0  0  0  0
  139.2811   69.6792  222.5638 H   0  0  0  0  0  0  0  0  0  0  0  0
  138.8127   68.3188  224.5888 H   0  0  0  0  0  0  0  0  0  0  0  0
  138.9826   68.0437  226.9168 H   0  0  0  0  0  0  0  0  0  0  0  0
  139.7246   68.8409  229.1707 H   0  0  0  0  0  0  0  0  0  0  0  0
  140.9239   71.0104  229.3118 H   0  0  0  0  0  0  0  0  0  0  0  0
  141.3883   72.3603  227.2992 H   0  0  0  0  0  0  0  0  0  0  0  0
  1  2  2  0
  2  3  1  0
  3  4  1  0
  4  5  1  0
  5  6  2  0
  5  7  1  0
  7  8  1  0
  8  9  1  0
  9 10  1  0
 10 11  1  0
 11 12  1  0
 12 13  2  0
 13 14  1  0
 14 15  2  0
 15 16  1  0
 15 17  1  0
 17 18  2  0
  2 19  1  0
 19 20  2  0
 20 21  1  0
 21 22  2  0
 22 23  1  0
 23 24  2  0
 24 25  1  0
 25 26  2  0
 26 27  1  0
 27 28  2  0
 11  7  1  0
 18 12  1  0
 28 19  1  0
 27 22  1  0
  3 29  1  0
  4 30  1  0
  4 31  1  0
  8 32  1  0
  8 33  1  0
  9 34  1  0
  9 35  1  0
 10 36  1  0
 10 37  1  0
 11 38  1  1
 14 39  1  0
 17 40  1  0
 20 41  1  0
 21 42  1  0
 23 43  1  0
 24 44  1  0
 25 45  1  0
 26 46  1  0
M  END
>  <smiles>  (46) 
O=C(NCC(=O)N1CCC[C@H]1c1ncc(Cl)cn1)c1ccc2ccccc2n1

>  <score_type>  (46) 
oracle

>  <origin>  (46) 
autodockgpu

>  <m_score__min__energy>  (46) 
-8.4100000000000001

>  <m_primary>  (46) 
energy

>  <rmsd>  (46) 
2.348165117243576

>  <m_score__min__rmsd>  (46) 
2.348165117243576

>  <meeko>  (46) 
{"free_energy": -8.37, "intermolecular_energy": -9.86, "internal_energy": -1.67, "cluster_size": 21, "cluster_id": 1, "rank_in_cluster": 9}

>  <energy>  (46) 
-6.88

>  <cluster_rmsd>  (46) 
0.9

>  <cluster>  (46) 
7

$$$$

     RDKit          3D

 46 49  0  0  0  0  0  0  0  0999 V2000
  140.1070   71.0700  221.2830 O   0  0  0  0  0  0  0  0  0  0  0  0
  139.9220   71.7000  222.3540 C   0  0  0  0  0  0  0  0  0  0  0  0
  139.6990   73.1010  222.4170 N   0  0  0  0  0  0  0  0  0  0  0  0
  139.6730   73.9200  221.1750 C   0  0  0  0  0  0  0  0  0  0  0  0
  139.8780   75.3240  221.5020 C   0  0  0  0  0  0  0  0  0  0  0  0
  139.5800   75.6660  222.7140 O   0  0  0  0  0  0  0  0  0  0  0  0
  140.3520   76.3730  220.6970 N   0  0  0  0  0  0  0  0  0  0  0  0
  139.6420   77.6840  220.7310 C   0  0  0  0  0  0  0  0  0  0  0  0
  140.7400   78.6870  220.5390 C   0  0  0  0  0  0  0  0  0  0  0  0
  141.9730   77.9140  220.1550 C   0  0  0  0  0  0  0  0  0  0  0  0
  141.3930   76.5580  219.7440 C   0  0  1  0  0  0  0  0  0  0  0  0
  142.4460   75.5520  219.6590 C   0  0  0  0  0  0  0  0  0  0  0  0
  142.7360   74.8320  220.7850 N   0  0  0  0  0  0  0  0  0  0  0  0
  143.6440   73.8650  220.8380 C   0  0  0  0  0  0  0  0  0  0  0  0
  144.3600   73.5420  219.6880 C   0  0  0  0  0  0  0  0  0  0  0  0
  145.5710   72.2840  219.6720 Cl  0  0  0  0  0  0  0  0  0  0  0  0
  144.0820   74.2570  218.5380 C   0  0  0  0  0  0  0  0  0  0  0  0
  143.1470   75.2230  218.5690 N   0  0  0  0  0  0  0  0  0  0  0  0
  139.9350   70.9510  223.6180 C   0  0  0  0  0  0  0  0  0  0  0  0
  139.5100   69.6410  223.6900 C   0  0  0  0  0  0  0  0  0  0  0  0
  139.5140   68.9170  224.8730 C   0  0  0  0  0  0  0  0  0  0  0  0
  139.9690   69.5550  226.0170 C   0  0  0  0  0  0  0  0  0  0  0  0
  139.9770   68.8430  227.1950 C   0  0  0  0  0  0  0  0  0  0  0  0
  140.4220   69.4320  228.3670 C   0  0  0  0  0  0  0  0  0  0  0  0
  140.8470   70.7420  228.2950 C   0  0  0  0  0  0  0  0  0  0  0  0
  140.8400   71.4590  227.1100 C   0  0  0  0  0  0  0  0  0  0  0  0
  140.3910   70.8560  225.9390 C   0  0  0  0  0  0  0  0  0  0  0  0
  140.3660   71.5090  224.7750 N   0  0  0  0  0  0  0  0  0  0  0  0
  139.5510   73.5560  223.3490 H   0  0  0  0  0  0  0  0  0  0  0  0
  140.4725   73.5826  220.4990 H   0  0  0  0  0  0  0  0  0  0  0  0
  138.6958   73.8018  220.6840 H   0  0  0  0  0  0  0  0  0  0  0  0
  138.9028   77.7511  219.9191 H   0  0  0  0  0  0  0  0  0  0  0  0
  139.0795   77.8405  221.6632 H   0  0  0  0  0  0  0  0  0  0  0  0
  140.4719   79.3936  219.7398 H   0  0  0  0  0  0  0  0  0  0  0  0
  140.9087   79.2682  221.4576 H   0  0  0  0  0  0  0  0  0  0  0  0
  142.4985   78.3934  219.3159 H   0  0  0  0  0  0  0  0  0  0  0  0
  142.7200   77.8480  220.9598 H   0  0  0  0  0  0  0  0  0  0  0  0
  140.9682   76.4820  218.7322 H   0  0  0  0  0  0  0  0  0  0  0  0
  143.8286   73.3255  221.7787 H   0  0  0  0  0  0  0  0  0  0  0  0
  144.6214   74.0375  217.6048 H   0  0  0  0  0  0  0  0  0  0  0  0
  139.1534   69.1505  222.7722 H   0  0  0  0  0  0  0  0  0  0  0  0
  139.1683   67.8731  224.9027 H   0  0  0  0  0  0  0  0  0  0  0  0
  139.6279   67.7999  227.2057 H   0  0  0  0  0  0  0  0  0  0  0  0
  140.4358   68.8773  229.3168 H   0  0  0  0  0  0  0  0  0  0  0  0
  141.2042   71.2349  229.2112 H   0  0  0  0  0  0  0  0  0  0  0  0
  141.1884   72.5023  227.0946 H   0  0  0  0  0  0  0  0  0  0  0  0
  1  2  2  0
  2  3  1  0
  3  4  1  0
  4  5  1  0
  5  6  2  0
  5  7  1  0
  7  8  1  0
  8  9  1  0
  9 10  1  0
 10 11  1  0
 11 12  1  0
 12 13  2  0
 13 14  1  0
 14 15  2  0
 15 16  1  0
 15 17  1  0
 17 18  2  0
  2 19  1  0
 19 20  2  0
 20 21  1  0
 21 22  2  0
 22 23  1  0
 23 24  2  0
 24 25  1  0
 25 26  2  0
 26 27  1  0
 27 28  2  0
 11  7  1  0
 18 12  1  0
 28 19  1  0
 27 22  1  0
  3 29  1  0
  4 30  1  0
  4 31  1  0
  8 32  1  0
  8 33  1  0
  9 34  1  0
  9 35  1  0
 10 36  1  0
 10 37  1  0
 11 38  1  6
 14 39  1  0
 17 40  1  0
 20 41  1  0
 21 42  1  0
 23 43  1  0
 24 44  1  0
 25 45  1  0
 26 46  1  0
M  END
>  <smiles>  (47) 
O=C(NCC(=O)N1CCC[C@H]1c1ncc(Cl)cn1)c1ccc2ccccc2n1

>  <score_type>  (47) 
oracle

>  <origin>  (47) 
autodockgpu

>  <m_score__min__energy>  (47) 
-8.4100000000000001

>  <m_primary>  (47) 
energy

>  <rmsd>  (47) 
3.2312572377145603

>  <m_score__min__rmsd>  (47) 
3.2312572377145603

>  <meeko>  (47) 
{"free_energy": -7.75, "intermolecular_energy": -9.24, "internal_energy": -2.14, "cluster_size": 6, "cluster_id": 3, "rank_in_cluster": 3}

>  <energy>  (47) 
-6.85

>  <cluster_rmsd>  (47) 
0.83

>  <cluster>  (47) 
7

$$$$

     RDKit          3D

 46 49  0  0  0  0  0  0  0  0999 V2000
  141.0420   71.4330  221.4270 O   0  0  0  0  0  0  0  0  0  0  0  0
  140.4650   72.0120  222.3820 C   0  0  0  0  0  0  0  0  0  0  0  0
  140.0510   73.3700  222.3470 N   0  0  0  0  0  0  0  0  0  0  0  0
  140.2870   74.2030  221.1360 C   0  0  0  0  0  0  0  0  0  0  0  0
  140.6140   75.5670  221.5280 C   0  0  0  0  0  0  0  0  0  0  0  0
  140.0790   75.9750  222.6330 O   0  0  0  0  0  0  0  0  0  0  0  0
  141.4250   76.5160  220.8850 N   0  0  0  0  0  0  0  0  0  0  0  0
  142.2580   76.0850  219.7250 C   0  0  0  0  0  0  0  0  0  0  0  0
  142.2690   77.2880  218.8300 C   0  0  0  0  0  0  0  0  0  0  0  0
  141.6670   78.4210  219.6170 C   0  0  0  0  0  0  0  0  0  0  0  0
  141.7370   77.8940  221.0530 C   0  0  1  0  0  0  0  0  0  0  0  0
  140.8970   78.6960  221.9360 C   0  0  0  0  0  0  0  0  0  0  0  0
  139.5490   78.7030  221.7060 N   0  0  0  0  0  0  0  0  0  0  0  0
  138.6680   79.3580  222.4510 C   0  0  0  0  0  0  0  0  0  0  0  0
  139.1190   80.0940  223.5460 C   0  0  0  0  0  0  0  0  0  0  0  0
  138.0280   80.9840  224.5770 Cl  0  0  0  0  0  0  0  0  0  0  0  0
  140.4790   80.1000  223.7970 C   0  0  0  0  0  0  0  0  0  0  0  0
  141.3040   79.4090  222.9910 N   0  0  0  0  0  0  0  0  0  0  0  0
  140.2020   71.2470  223.6070 C   0  0  0  0  0  0  0  0  0  0  0  0
  139.5510   70.0310  223.5780 C   0  0  0  0  0  0  0  0  0  0  0  0
  139.2920   69.2940  224.7240 C   0  0  0  0  0  0  0  0  0  0  0  0
  139.7130   69.8180  225.9360 C   0  0  0  0  0  0  0  0  0  0  0  0
  139.4600   69.0910  227.0780 C   0  0  0  0  0  0  0  0  0  0  0  0
  139.8590   69.5690  228.3150 C   0  0  0  0  0  0  0  0  0  0  0  0
  140.5100   70.7850  228.3440 C   0  0  0  0  0  0  0  0  0  0  0  0
  140.7660   71.5160  227.1960 C   0  0  0  0  0  0  0  0  0  0  0  0
  140.3590   71.0260  225.9590 C   0  0  0  0  0  0  0  0  0  0  0  0
  140.5840   71.6970  224.8270 N   0  0  0  0  0  0  0  0  0  0  0  0
  139.5740   73.7830  223.1820 H   0  0  0  0  0  0  0  0  0  0  0  0
  141.1222   73.7793  220.5591 H   0  0  0  0  0  0  0  0  0  0  0  0
  139.3759   74.2121  220.5198 H   0  0  0  0  0  0  0  0  0  0  0  0
  143.2773   75.8270  220.0482 H   0  0  0  0  0  0  0  0  0  0  0  0
  141.8641   75.1866  219.2273 H   0  0  0  0  0  0  0  0  0  0  0  0
  143.3010   77.5347  218.5399 H   0  0  0  0  0  0  0  0  0  0  0  0
  141.6978   77.1000  217.9089 H   0  0  0  0  0  0  0  0  0  0  0  0
  142.2557   79.3430  219.5019 H   0  0  0  0  0  0  0  0  0  0  0  0
  140.6499   78.6893  219.2953 H   0  0  0  0  0  0  0  0  0  0  0  0
  142.7036   77.9798  221.5711 H   0  0  0  0  0  0  0  0  0  0  0  0
  137.5958   79.3209  222.2080 H   0  0  0  0  0  0  0  0  0  0  0  0
  140.8827   80.6658  224.6496 H   0  0  0  0  0  0  0  0  0  0  0  0
  139.2243   69.6300  222.6072 H   0  0  0  0  0  0  0  0  0  0  0  0
  138.7704   68.3269  224.6727 H   0  0  0  0  0  0  0  0  0  0  0  0
  138.9381   68.1253  227.0072 H   0  0  0  0  0  0  0  0  0  0  0  0
  139.6647   69.0019  229.2373 H   0  0  0  0  0  0  0  0  0  0  0  0
  140.8374   71.1883  229.3136 H   0  0  0  0  0  0  0  0  0  0  0  0
  141.2896   72.4812  227.2619 H   0  0  0  0  0  0  0  0  0  0  0  0
  1  2  2  0
  2  3  1  0
  3  4  1  0
  4  5  1  0
  5  6  2  0
  5  7  1  0
  7  8  1  0
  8  9  1  0
  9 10  1  0
 10 11  1  0
 11 12  1  0
 12 13  2  0
 13 14  1  0
 14 15  2  0
 15 16  1  0
 15 17  1  0
 17 18  2  0
  2 19  1  0
 19 20  2  0
 20 21  1  0
 21 22  2  0
 22 23  1  0
 23 24  2  0
 24 25  1  0
 25 26  2  0
 26 27  1  0
 27 28  2  0
 11  7  1  0
 18 12  1  0
 28 19  1  0
 27 22  1  0
  3 29  1  0
  4 30  1  0
  4 31  1  0
  8 32  1  0
  8 33  1  0
  9 34  1  0
  9 35  1  0
 10 36  1  0
 10 37  1  0
 11 38  1  1
 14 39  1  0
 17 40  1  0
 20 41  1  0
 21 42  1  0
 23 43  1  0
 24 44  1  0
 25 45  1  0
 26 46  1  0
M  END
>  <smiles>  (48) 
O=C(NCC(=O)N1CCC[C@H]1c1ncc(Cl)cn1)c1ccc2ccccc2n1

>  <score_type>  (48) 
oracle

>  <origin>  (48) 
autodockgpu

>  <m_score__min__energy>  (48) 
-8.4100000000000001

>  <m_primary>  (48) 
energy

>  <rmsd>  (48) 
2.2170785594108606

>  <m_score__min__rmsd>  (48) 
2.2170785594108606

>  <meeko>  (48) 
{"free_energy": -8.35, "intermolecular_energy": -9.85, "internal_energy": -1.75, "cluster_size": 21, "cluster_id": 1, "rank_in_cluster": 13}

>  <energy>  (48) 
-6.77

>  <cluster_rmsd>  (48) 
0.63

>  <cluster>  (48) 
7

$$$$

     RDKit          3D

 46 49  0  0  0  0  0  0  0  0999 V2000
  140.1380   70.9050  221.3370 O   0  0  0  0  0  0  0  0  0  0  0  0
  140.0260   71.5170  222.4280 C   0  0  0  0  0  0  0  0  0  0  0  0
  139.9780   72.9330  222.5370 N   0  0  0  0  0  0  0  0  0  0  0  0
  140.0590   73.7890  221.3230 C   0  0  0  0  0  0  0  0  0  0  0  0
  140.2830   75.1750  221.7060 C   0  0  0  0  0  0  0  0  0  0  0  0
  139.5880   75.5970  222.7140 O   0  0  0  0  0  0  0  0  0  0  0  0
  141.1420   76.1350  221.1470 N   0  0  0  0  0  0  0  0  0  0  0  0
  142.0930   75.7140  220.0770 C   0  0  0  0  0  0  0  0  0  0  0  0
  142.1790   76.9170  219.1860 C   0  0  0  0  0  0  0  0  0  0  0  0
  141.4870   78.0430  219.9070 C   0  0  0  0  0  0  0  0  0  0  0  0
  141.4190   77.5170  221.3430 C   0  0  1  0  0  0  0  0  0  0  0  0
  140.4840   78.3080  222.1370 C   0  0  0  0  0  0  0  0  0  0  0  0
  141.0000   79.1660  223.0680 N   0  0  0  0  0  0  0  0  0  0  0  0
  140.2680   79.9680  223.8310 C   0  0  0  0  0  0  0  0  0  0  0  0
  138.8810   79.9560  223.6930 C   0  0  0  0  0  0  0  0  0  0  0  0
  137.8450   80.9790  224.6570 Cl  0  0  0  0  0  0  0  0  0  0  0  0
  138.3380   79.0960  222.7570 C   0  0  0  0  0  0  0  0  0  0  0  0
  139.1520   78.3150  222.0240 N   0  0  0  0  0  0  0  0  0  0  0  0
  139.9420   70.7320  223.6660 C   0  0  0  0  0  0  0  0  0  0  0  0
  139.3700   69.4770  223.6920 C   0  0  0  0  0  0  0  0  0  0  0  0
  139.2790   68.7200  224.8500 C   0  0  0  0  0  0  0  0  0  0  0  0
  139.7910   69.2650  226.0180 C   0  0  0  0  0  0  0  0  0  0  0  0
  139.7060   68.5190  227.1720 C   0  0  0  0  0  0  0  0  0  0  0  0
  140.2010   69.0160  228.3660 C   0  0  0  0  0  0  0  0  0  0  0  0
  140.7730   70.2710  228.3400 C   0  0  0  0  0  0  0  0  0  0  0  0
  140.8600   71.0220  227.1790 C   0  0  0  0  0  0  0  0  0  0  0  0
  140.3580   70.5120  225.9860 C   0  0  0  0  0  0  0  0  0  0  0  0
  140.4200   71.2000  224.8440 N   0  0  0  0  0  0  0  0  0  0  0  0
  139.8830   73.3720  223.4830 H   0  0  0  0  0  0  0  0  0  0  0  0
  140.8914   73.4466  220.6906 H   0  0  0  0  0  0  0  0  0  0  0  0
  139.1133   73.7164  220.7659 H   0  0  0  0  0  0  0  0  0  0  0  0
  143.0778   75.4688  220.5014 H   0  0  0  0  0  0  0  0  0  0  0  0
  141.7624   74.8106  219.5435 H   0  0  0  0  0  0  0  0  0  0  0  0
  143.2318   77.1764  219.0007 H   0  0  0  0  0  0  0  0  0  0  0  0
  141.7054   76.7217  218.2126 H   0  0  0  0  0  0  0  0  0  0  0  0
  142.0730   78.9722  219.8503 H   0  0  0  0  0  0  0  0  0  0  0  0
  140.5042   78.2989  219.4844 H   0  0  0  0  0  0  0  0  0  0  0  0
  142.3282   77.6154  221.9544 H   0  0  0  0  0  0  0  0  0  0  0  0
  140.7495   80.6335  224.5627 H   0  0  0  0  0  0  0  0  0  0  0  0
  137.2485   79.0505  222.6126 H   0  0  0  0  0  0  0  0  0  0  0  0
  138.9698   69.0599  222.7561 H   0  0  0  0  0  0  0  0  0  0  0  0
  138.8168   67.7218  224.8426 H   0  0  0  0  0  0  0  0  0  0  0  0
  139.2420   67.5220  227.1454 H   0  0  0  0  0  0  0  0  0  0  0  0
  140.1406   68.4337  229.2973 H   0  0  0  0  0  0  0  0  0  0  0  0
  141.1743   70.6904  229.2743 H   0  0  0  0  0  0  0  0  0  0  0  0
  141.3247   72.0188  227.2005 H   0  0  0  0  0  0  0  0  0  0  0  0
  1  2  2  0
  2  3  1  0
  3  4  1  0
  4  5  1  0
  5  6  2  0
  5  7  1  0
  7  8  1  0
  8  9  1  0
  9 10  1  0
 10 11  1  0
 11 12  1  0
 12 13  2  0
 13 14  1  0
 14 15  2  0
 15 16  1  0
 15 17  1  0
 17 18  2  0
  2 19  1  0
 19 20  2  0
 20 21  1  0
 21 22  2  0
 22 23  1  0
 23 24  2  0
 24 25  1  0
 25 26  2  0
 26 27  1  0
 27 28  2  0
 11  7  1  0
 18 12  1  0
 28 19  1  0
 27 22  1  0
  3 29  1  0
  4 30  1  0
  4 31  1  0
  8 32  1  0
  8 33  1  0
  9 34  1  0
  9 35  1  0
 10 36  1  0
 10 37  1  0
 11 38  1  1
 14 39  1  0
 17 40  1  0
 20 41  1  0
 21 42  1  0
 23 43  1  0
 24 44  1  0
 25 45  1  0
 26 46  1  0
M  END
>  <smiles>  (49) 
O=C(NCC(=O)N1CCC[C@H]1c1ncc(Cl)cn1)c1ccc2ccccc2n1

>  <score_type>  (49) 
oracle

>  <origin>  (49) 
autodockgpu

>  <m_score__min__energy>  (49) 
-8.4100000000000001

>  <m_primary>  (49) 
energy

>  <rmsd>  (49) 
2.1336452870273312

>  <m_score__min__rmsd>  (49) 
2.1336452870273312

>  <meeko>  (49) 
{"free_energy": -8.2, "intermolecular_energy": -9.7, "internal_energy": -1.73, "cluster_size": 21, "cluster_id": 1, "rank_in_cluster": 18}

>  <energy>  (49) 
-6.69

>  <cluster_rmsd>  (49) 
0.95

>  <cluster>  (49) 
7

$$$$

     RDKit          3D

 46 49  0  0  0  0  0  0  0  0999 V2000
  141.1080   71.4350  221.4290 O   0  0  0  0  0  0  0  0  0  0  0  0
  140.5270   72.0160  222.3790 C   0  0  0  0  0  0  0  0  0  0  0  0
  140.1090   73.3730  222.3370 N   0  0  0  0  0  0  0  0  0  0  0  0
  140.3470   74.2010  221.1240 C   0  0  0  0  0  0  0  0  0  0  0  0
  140.6420   75.5740  221.5100 C   0  0  0  0  0  0  0  0  0  0  0  0
  140.0740   75.9830  222.6000 O   0  0  0  0  0  0  0  0  0  0  0  0
  141.4500   76.5320  220.8770 N   0  0  0  0  0  0  0  0  0  0  0  0
  142.2850   76.1140  219.7130 C   0  0  0  0  0  0  0  0  0  0  0  0
  142.2930   77.3260  218.8310 C   0  0  0  0  0  0  0  0  0  0  0  0
  141.6890   78.4500  219.6290 C   0  0  0  0  0  0  0  0  0  0  0  0
  141.7600   77.9090  221.0590 C   0  0  1  0  0  0  0  0  0  0  0  0
  140.9180   78.7000  221.9510 C   0  0  0  0  0  0  0  0  0  0  0  0
  139.5730   78.7310  221.7010 N   0  0  0  0  0  0  0  0  0  0  0  0
  138.6910   79.3800  222.4500 C   0  0  0  0  0  0  0  0  0  0  0  0
  139.1350   80.0810  223.5700 C   0  0  0  0  0  0  0  0  0  0  0  0
  138.0410   80.9600  224.6080 Cl  0  0  0  0  0  0  0  0  0  0  0  0
  140.4910   80.0620  223.8400 C   0  0  0  0  0  0  0  0  0  0  0  0
  141.3190   79.3810  223.0290 N   0  0  0  0  0  0  0  0  0  0  0  0
  140.2610   71.2550  223.6070 C   0  0  0  0  0  0  0  0  0  0  0  0
  139.6060   70.0410  223.5810 C   0  0  0  0  0  0  0  0  0  0  0  0
  139.3440   69.3080  224.7280 C   0  0  0  0  0  0  0  0  0  0  0  0
  139.7670   69.8340  225.9390 C   0  0  0  0  0  0  0  0  0  0  0  0
  139.5120   69.1110  227.0830 C   0  0  0  0  0  0  0  0  0  0  0  0
  139.9130   69.5910  228.3190 C   0  0  0  0  0  0  0  0  0  0  0  0
  140.5680   70.8050  228.3450 C   0  0  0  0  0  0  0  0  0  0  0  0
  140.8260   71.5320  227.1940 C   0  0  0  0  0  0  0  0  0  0  0  0
  140.4170   71.0400  225.9590 C   0  0  0  0  0  0  0  0  0  0  0  0
  140.6440   71.7070  224.8250 N   0  0  0  0  0  0  0  0  0  0  0  0
  139.6280   73.7880  223.1690 H   0  0  0  0  0  0  0  0  0  0  0  0
  141.1987   73.7891  220.5628 H   0  0  0  0  0  0  0  0  0  0  0  0
  139.4450   74.1880  220.4945 H   0  0  0  0  0  0  0  0  0  0  0  0
  143.3048   75.8553  220.0341 H   0  0  0  0  0  0  0  0  0  0  0  0
  141.8942   75.2194  219.2062 H   0  0  0  0  0  0  0  0  0  0  0  0
  143.3244   77.5778  218.5432 H   0  0  0  0  0  0  0  0  0  0  0  0
  141.7215   77.1460  217.9085 H   0  0  0  0  0  0  0  0  0  0  0  0
  142.2761   79.3742  219.5230 H   0  0  0  0  0  0  0  0  0  0  0  0
  140.6714   78.7197  219.3099 H   0  0  0  0  0  0  0  0  0  0  0  0
  142.7266   77.9919  221.5774 H   0  0  0  0  0  0  0  0  0  0  0  0
  137.6222   79.3651  222.1903 H   0  0  0  0  0  0  0  0  0  0  0  0
  140.8895   80.6005  224.7125 H   0  0  0  0  0  0  0  0  0  0  0  0
  139.2785   69.6386  222.6110 H   0  0  0  0  0  0  0  0  0  0  0  0
  138.8188   68.3427  224.6791 H   0  0  0  0  0  0  0  0  0  0  0  0
  138.9869   68.1468  227.0149 H   0  0  0  0  0  0  0  0  0  0  0  0
  139.7170   69.0268  229.2428 H   0  0  0  0  0  0  0  0  0  0  0  0
  140.8969   71.2100  229.3134 H   0  0  0  0  0  0  0  0  0  0  0  0
  141.3528   72.4956  227.2568 H   0  0  0  0  0  0  0  0  0  0  0  0
  1  2  2  0
  2  3  1  0
  3  4  1  0
  4  5  1  0
  5  6  2  0
  5  7  1  0
  7  8  1  0
  8  9  1  0
  9 10  1  0
 10 11  1  0
 11 12  1  0
 12 13  2  0
 13 14  1  0
 14 15  2  0
 15 16  1  0
 15 17  1  0
 17 18  2  0
  2 19  1  0
 19 20  2  0
 20 21  1  0
 21 22  2  0
 22 23  1  0
 23 24  2  0
 24 25  1  0
 25 26  2  0
 26 27  1  0
 27 28  2  0
 11  7  1  0
 18 12  1  0
 28 19  1  0
 27 22  1  0
  3 29  1  0
  4 30  1  0
  4 31  1  0
  8 32  1  0
  8 33  1  0
  9 34  1  0
  9 35  1  0
 10 36  1  0
 10 37  1  0
 11 38  1  1
 14 39  1  0
 17 40  1  0
 20 41  1  0
 21 42  1  0
 23 43  1  0
 24 44  1  0
 25 45  1  0
 26 46  1  0
M  END
>  <smiles>  (50) 
O=C(NCC(=O)N1CCC[C@H]1c1ncc(Cl)cn1)c1ccc2ccccc2n1

>  <score_type>  (50) 
oracle

>  <origin>  (50) 
autodockgpu

>  <m_score__min__energy>  (50) 
-8.4100000000000001

>  <m_primary>  (50) 
energy

>  <rmsd>  (50) 
2.2433497683074126

>  <m_score__min__rmsd>  (50) 
2.2433497683074126

>  <meeko>  (50) 
{"free_energy": -8.36, "intermolecular_energy": -9.85, "internal_energy": -1.76, "cluster_size": 21, "cluster_id": 1, "rank_in_cluster": 11}

>  <energy>  (50) 
-6.73

>  <cluster_rmsd>  (50) 
0.0

>  <cluster>  (50) 
8

$$$$
