
     RDKit          3D

 45 46  0  0  0  0  0  0  0  0999 V2000
  141.3910   72.1840  226.8000 C   0  0  0  0  0  0  0  0  0  0  0  0
  140.9950   71.3000  228.3430 S   0  0  0  0  0  0  0  0  0  0  0  0
  140.8590   69.5450  227.9610 C   0  0  0  0  0  0  0  0  0  0  0  0
  139.4310   69.1080  227.7340 C   0  0  0  0  0  0  0  0  0  0  0  0
  139.2260   68.3580  226.4560 C   0  0  2  0  0  0  0  0  0  0  0  0
  140.1750   67.2570  226.3440 N   0  0  0  0  0  0  0  0  0  0  0  0
  139.5110   69.2940  225.3400 C   0  0  0  0  0  0  0  0  0  0  0  0
  140.7430   69.5610  225.1370 O   0  0  0  0  0  0  0  0  0  0  0  0
  138.5180   69.8800  224.5240 N   0  0  0  0  0  0  0  0  0  0  0  0
  138.8970   70.7750  223.4670 C   0  0  0  0  0  0  0  0  0  0  0  0
  140.1330   70.9920  223.3260 O   0  0  0  0  0  0  0  0  0  0  0  0
  137.8650   71.4060  222.5930 C   0  0  0  0  0  0  0  0  0  0  0  0
  136.9780   72.1810  223.4060 N   0  0  0  0  0  0  0  0  0  0  0  0
  135.8870   71.4840  224.0380 C   0  0  0  0  0  0  0  0  0  0  0  0
  135.7200   70.2490  223.8840 O   0  0  0  0  0  0  0  0  0  0  0  0
  134.9770   72.2920  224.8740 C   0  0  0  0  0  0  0  0  0  0  0  0
  134.0020   71.6100  225.5980 C   0  0  0  0  0  0  0  0  0  0  0  0
  133.1570   72.3710  226.3760 C   0  0  0  0  0  0  0  0  0  0  0  0
  133.2380   73.7440  226.4620 C   0  0  0  0  0  0  0  0  0  0  0  0
  132.4140   74.5220  227.2250 C   0  0  0  0  0  0  0  0  0  0  0  0
  132.5180   75.9020  227.2930 C   0  0  0  0  0  0  0  0  0  0  0  0
  131.4280   76.8250  228.2910 Cl  0  0  0  0  0  0  0  0  0  0  0  0
  133.5190   76.5220  226.5410 C   0  0  0  0  0  0  0  0  0  0  0  0
  134.3390   75.7270  225.7790 C   0  0  0  0  0  0  0  0  0  0  0  0
  134.2320   74.3530  225.7140 C   0  0  0  0  0  0  0  0  0  0  0  0
  135.0730   73.6310  224.9450 N   0  0  0  0  0  0  0  0  0  0  0  0
  141.8298   73.1635  227.0409 H   0  0  0  0  0  0  0  0  0  0  0  0
  142.1108   71.5939  226.2138 H   0  0  0  0  0  0  0  0  0  0  0  0
  140.4715   72.3283  226.2138 H   0  0  0  0  0  0  0  0  0  0  0  0
  141.4400   69.3368  227.0504 H   0  0  0  0  0  0  0  0  0  0  0  0
  141.2448   68.9853  228.8258 H   0  0  0  0  0  0  0  0  0  0  0  0
  139.1298   68.4589  228.5694 H   0  0  0  0  0  0  0  0  0  0  0  0
  138.8220   70.0219  227.6708 H   0  0  0  0  0  0  0  0  0  0  0  0
  138.1996   67.9634  226.4292 H   0  0  0  0  0  0  0  0  0  0  0  0
  141.0770   67.6020  225.9640 H   0  0  0  0  0  0  0  0  0  0  0  0
  140.3110   66.8870  227.3170 H   0  0  0  0  0  0  0  0  0  0  0  0
  137.5110   69.6470  224.7090 H   0  0  0  0  0  0  0  0  0  0  0  0
  138.3550   72.0589  221.8557 H   0  0  0  0  0  0  0  0  0  0  0  0
  137.2984   70.6259  222.0635 H   0  0  0  0  0  0  0  0  0  0  0  0
  137.0770   73.2180  223.5650 H   0  0  0  0  0  0  0  0  0  0  0  0
  133.9108   70.5148  225.5509 H   0  0  0  0  0  0  0  0  0  0  0  0
  132.3782   71.8565  226.9580 H   0  0  0  0  0  0  0  0  0  0  0  0
  131.6282   74.0279  227.8152 H   0  0  0  0  0  0  0  0  0  0  0  0
  133.6463   77.6145  226.5589 H   0  0  0  0  0  0  0  0  0  0  0  0
  135.1271   76.2138  225.1858 H   0  0  0  0  0  0  0  0  0  0  0  0
  1  2  1  0
  2  3  1  0
  3  4  1  0
  4  5  1  0
  5  6  1  0
  5  7  1  0
  7  8  2  0
  7  9  1  0
  9 10  1  0
 10 11  2  0
 10 12  1  0
 12 13  1  0
 13 14  1  0
 14 15  2  0
 14 16  1  0
 16 17  2  0
 17 18  1  0
 18 19  2  0
 19 20  1  0
 20 21  2  0
 21 22  1  0
 21 23  1  0
 23 24  2  0
 24 25  1  0
 25 26  2  0
 26 16  1  0
 25 19  1  0
  1 27  1  0
  1 28  1  0
  1 29  1  0
  3 30  1  0
  3 31  1  0
  4 32  1  0
  4 33  1  0
  5 34  1  6
  6 35  1  0
  6 36  1  0
  9 37  1  0
 12 38  1  0
 12 39  1  0
 13 40  1  0
 17 41  1  0
 18 42  1  0
 20 43  1  0
 23 44  1  0
 24 45  1  0
M  END
>  <smiles>  (1) 
CSCC[C@H](N)C(=O)NC(=O)CNC(=O)c1ccc2cc(Cl)ccc2n1

>  <score_type>  (1) 
oracle

>  <origin>  (1) 
autodockgpu

>  <m_score__min__energy>  (1) 
-7.8499999999999996

>  <m_primary>  (1) 
energy

>  <rmsd>  (1) 
8.209187598287631

>  <m_score__min__rmsd>  (1) 
8.209187598287631

>  <meeko>  (1) 
{"free_energy": -6.66, "intermolecular_energy": -9.04, "internal_energy": -2.77, "cluster_size": 5, "cluster_id": 2, "rank_in_cluster": 4}

>  <energy>  (1) 
-7.85

>  <cluster_rmsd>  (1) 
0.0

>  <cluster>  (1) 
1

$$$$

     RDKit          3D

 45 46  0  0  0  0  0  0  0  0999 V2000
  132.8540   79.4760  228.5190 C   0  0  0  0  0  0  0  0  0  0  0  0
  133.0130   78.2160  227.2120 S   0  0  0  0  0  0  0  0  0  0  0  0
  131.5880   77.1190  227.3190 C   0  0  0  0  0  0  0  0  0  0  0  0
  131.9340   75.7720  227.9070 C   0  0  0  0  0  0  0  0  0  0  0  0
  131.7970   74.6390  226.9390 C   0  0  2  0  0  0  0  0  0  0  0  0
  131.5240   73.3900  227.6390 N   0  0  0  0  0  0  0  0  0  0  0  0
  133.1040   74.4790  226.2540 C   0  0  0  0  0  0  0  0  0  0  0  0
  133.7290   73.3910  226.4940 O   0  0  0  0  0  0  0  0  0  0  0  0
  133.6660   75.4380  225.3840 N   0  0  0  0  0  0  0  0  0  0  0  0
  134.9400   75.1880  224.7690 C   0  0  0  0  0  0  0  0  0  0  0  0
  135.4980   74.0920  225.0530 O   0  0  0  0  0  0  0  0  0  0  0  0
  135.5520   76.1880  223.8460 C   0  0  0  0  0  0  0  0  0  0  0  0
  136.7910   75.6670  223.3530 N   0  0  0  0  0  0  0  0  0  0  0  0
  137.7050   76.6030  222.7510 C   0  0  0  0  0  0  0  0  0  0  0  0
  137.4300   77.8250  222.6620 O   0  0  0  0  0  0  0  0  0  0  0  0
  138.9800   76.0560  222.2450 C   0  0  0  0  0  0  0  0  0  0  0  0
  139.9140   76.9650  221.7570 C   0  0  0  0  0  0  0  0  0  0  0  0
  141.1010   76.4460  221.2860 C   0  0  0  0  0  0  0  0  0  0  0  0
  141.3900   75.0990  221.2810 C   0  0  0  0  0  0  0  0  0  0  0  0
  142.5580   74.5590  220.8210 C   0  0  0  0  0  0  0  0  0  0  0  0
  142.8220   73.1980  220.8280 C   0  0  0  0  0  0  0  0  0  0  0  0
  144.3370   72.5870  220.2230 Cl  0  0  0  0  0  0  0  0  0  0  0  0
  141.8390   72.3430  221.3320 C   0  0  0  0  0  0  0  0  0  0  0  0
  140.6720   72.9010  221.7910 C   0  0  0  0  0  0  0  0  0  0  0  0
  140.4120   74.2550  221.7820 C   0  0  0  0  0  0  0  0  0  0  0  0
  139.2420   74.7380  222.2490 N   0  0  0  0  0  0  0  0  0  0  0  0
  132.9151   78.9916  229.5047 H   0  0  0  0  0  0  0  0  0  0  0  0
  133.6665   80.2109  228.4206 H   0  0  0  0  0  0  0  0  0  0  0  0
  131.8844   79.9860  228.4206 H   0  0  0  0  0  0  0  0  0  0  0  0
  130.8246   77.5942  227.9525 H   0  0  0  0  0  0  0  0  0  0  0  0
  131.2198   76.9510  226.2962 H   0  0  0  0  0  0  0  0  0  0  0  0
  132.9758   75.8040  228.2587 H   0  0  0  0  0  0  0  0  0  0  0  0
  131.2206   75.5851  228.7231 H   0  0  0  0  0  0  0  0  0  0  0  0
  130.9746   74.8565  226.2416 H   0  0  0  0  0  0  0  0  0  0  0  0
  131.7510   72.5830  227.0280 H   0  0  0  0  0  0  0  0  0  0  0  0
  132.1420   73.3870  228.4860 H   0  0  0  0  0  0  0  0  0  0  0  0
  133.1350   76.3260  225.2020 H   0  0  0  0  0  0  0  0  0  0  0  0
  134.8705   76.3787  223.0039 H   0  0  0  0  0  0  0  0  0  0  0  0
  135.7319   77.1305  224.3840 H   0  0  0  0  0  0  0  0  0  0  0  0
  137.0660   74.6510  223.4050 H   0  0  0  0  0  0  0  0  0  0  0  0
  139.7144   78.0467  221.7476 H   0  0  0  0  0  0  0  0  0  0  0  0
  141.8562   77.1431  220.8940 H   0  0  0  0  0  0  0  0  0  0  0  0
  143.3274   75.2383  220.4253 H   0  0  0  0  0  0  0  0  0  0  0  0
  141.9956   71.2546  221.3602 H   0  0  0  0  0  0  0  0  0  0  0  0
  139.8984   72.2282  222.1896 H   0  0  0  0  0  0  0  0  0  0  0  0
  1  2  1  0
  2  3  1  0
  3  4  1  0
  4  5  1  0
  5  6  1  0
  5  7  1  0
  7  8  2  0
  7  9  1  0
  9 10  1  0
 10 11  2  0
 10 12  1  0
 12 13  1  0
 13 14  1  0
 14 15  2  0
 14 16  1  0
 16 17  2  0
 17 18  1  0
 18 19  2  0
 19 20  1  0
 20 21  2  0
 21 22  1  0
 21 23  1  0
 23 24  2  0
 24 25  1  0
 25 26  2  0
 26 16  1  0
 25 19  1  0
  1 27  1  0
  1 28  1  0
  1 29  1  0
  3 30  1  0
  3 31  1  0
  4 32  1  0
  4 33  1  0
  5 34  1  6
  6 35  1  0
  6 36  1  0
  9 37  1  0
 12 38  1  0
 12 39  1  0
 13 40  1  0
 17 41  1  0
 18 42  1  0
 20 43  1  0
 23 44  1  0
 24 45  1  0
M  END
>  <smiles>  (2) 
CSCC[C@H](N)C(=O)NC(=O)CNC(=O)c1ccc2cc(Cl)ccc2n1

>  <score_type>  (2) 
oracle

>  <origin>  (2) 
autodockgpu

>  <m_score__min__energy>  (2) 
-7.8499999999999996

>  <m_primary>  (2) 
energy

>  <rmsd>  (2) 
8.690495782711825

>  <m_score__min__rmsd>  (2) 
8.690495782711825

>  <meeko>  (2) 
{"free_energy": -5.85, "intermolecular_energy": -8.23, "internal_energy": -2.67, "cluster_size": 1, "cluster_id": 9, "rank_in_cluster": 1}

>  <energy>  (2) 
-7.63

>  <cluster_rmsd>  (2) 
0.66

>  <cluster>  (2) 
1

$$$$

     RDKit          3D

 45 46  0  0  0  0  0  0  0  0999 V2000
  141.8160   80.1730  219.7930 C   0  0  0  0  0  0  0  0  0  0  0  0
  140.1940   80.7720  220.3660 S   0  0  0  0  0  0  0  0  0  0  0  0
  140.3860   81.3720  222.0540 C   0  0  0  0  0  0  0  0  0  0  0  0
  141.8230   81.3540  222.5180 C   0  0  0  0  0  0  0  0  0  0  0  0
  142.1810   80.1460  223.3250 C   0  0  2  0  0  0  0  0  0  0  0  0
  143.3620   79.4900  222.7790 N   0  0  0  0  0  0  0  0  0  0  0  0
  141.0550   79.1850  223.2110 C   0  0  0  0  0  0  0  0  0  0  0  0
  140.0590   79.4000  223.9810 O   0  0  0  0  0  0  0  0  0  0  0  0
  141.0380   78.0870  222.3230 N   0  0  0  0  0  0  0  0  0  0  0  0
  139.8990   77.2130  222.2890 C   0  0  0  0  0  0  0  0  0  0  0  0
  138.9520   77.4880  223.0780 O   0  0  0  0  0  0  0  0  0  0  0  0
  139.8580   76.0470  221.3600 C   0  0  0  0  0  0  0  0  0  0  0  0
  139.6230   74.8560  222.1190 N   0  0  0  0  0  0  0  0  0  0  0  0
  140.3030   73.6590  221.6930 C   0  0  0  0  0  0  0  0  0  0  0  0
  141.0700   73.6590  220.6990 O   0  0  0  0  0  0  0  0  0  0  0  0
  140.0540   72.4370  222.4820 C   0  0  0  0  0  0  0  0  0  0  0  0
  139.2730   71.4460  221.8930 C   0  0  0  0  0  0  0  0  0  0  0  0
  139.0460   70.3080  222.6360 C   0  0  0  0  0  0  0  0  0  0  0  0
  139.5480   70.1190  223.9060 C   0  0  0  0  0  0  0  0  0  0  0  0
  139.3380   69.0020  224.6630 C   0  0  0  0  0  0  0  0  0  0  0  0
  139.8560   68.8380  225.9390 C   0  0  0  0  0  0  0  0  0  0  0  0
  139.5430   67.3820  226.8420 Cl  0  0  0  0  0  0  0  0  0  0  0  0
  140.6310   69.8730  226.4680 C   0  0  0  0  0  0  0  0  0  0  0  0
  140.8330   70.9890  225.6950 C   0  0  0  0  0  0  0  0  0  0  0  0
  140.3160   71.1480  224.4260 C   0  0  0  0  0  0  0  0  0  0  0  0
  140.5540   72.2720  223.7190 N   0  0  0  0  0  0  0  0  0  0  0  0
  142.4485   79.9394  220.6621 H   0  0  0  0  0  0  0  0  0  0  0  0
  141.6783   79.2664  219.1854 H   0  0  0  0  0  0  0  0  0  0  0  0
  142.3006   80.9515  219.1854 H   0  0  0  0  0  0  0  0  0  0  0  0
  140.0125   82.4054  222.1050 H   0  0  0  0  0  0  0  0  0  0  0  0
  139.8153   80.7007  222.7126 H   0  0  0  0  0  0  0  0  0  0  0  0
  142.4741   81.3848  221.6320 H   0  0  0  0  0  0  0  0  0  0  0  0
  141.9601   82.2283  223.1713 H   0  0  0  0  0  0  0  0  0  0  0  0
  142.3772   80.4501  224.3637 H   0  0  0  0  0  0  0  0  0  0  0  0
  143.1330   78.5160  222.5030 H   0  0  0  0  0  0  0  0  0  0  0  0
  143.6440   80.0460  221.9350 H   0  0  0  0  0  0  0  0  0  0  0  0
  141.8680   77.9290  221.7000 H   0  0  0  0  0  0  0  0  0  0  0  0
  139.0470   76.1853  220.6298 H   0  0  0  0  0  0  0  0  0  0  0  0
  140.8151   75.9641  220.8242 H   0  0  0  0  0  0  0  0  0  0  0  0
  138.9890   74.8070  222.9590 H   0  0  0  0  0  0  0  0  0  0  0  0
  138.8567   71.5660  220.8819 H   0  0  0  0  0  0  0  0  0  0  0  0
  138.4328   69.5094  222.1931 H   0  0  0  0  0  0  0  0  0  0  0  0
  138.7271   68.1913  224.2393 H   0  0  0  0  0  0  0  0  0  0  0  0
  141.0668   69.7958  227.4750 H   0  0  0  0  0  0  0  0  0  0  0  0
  141.4427   71.8042  226.1117 H   0  0  0  0  0  0  0  0  0  0  0  0
  1  2  1  0
  2  3  1  0
  3  4  1  0
  4  5  1  0
  5  6  1  0
  5  7  1  0
  7  8  2  0
  7  9  1  0
  9 10  1  0
 10 11  2  0
 10 12  1  0
 12 13  1  0
 13 14  1  0
 14 15  2  0
 14 16  1  0
 16 17  2  0
 17 18  1  0
 18 19  2  0
 19 20  1  0
 20 21  2  0
 21 22  1  0
 21 23  1  0
 23 24  2  0
 24 25  1  0
 25 26  2  0
 26 16  1  0
 25 19  1  0
  1 27  1  0
  1 28  1  0
  1 29  1  0
  3 30  1  0
  3 31  1  0
  4 32  1  0
  4 33  1  0
  5 34  1  1
  6 35  1  0
  6 36  1  0
  9 37  1  0
 12 38  1  0
 12 39  1  0
 13 40  1  0
 17 41  1  0
 18 42  1  0
 20 43  1  0
 23 44  1  0
 24 45  1  0
M  END
>  <smiles>  (3) 
CSCC[C@H](N)C(=O)NC(=O)CNC(=O)c1ccc2cc(Cl)ccc2n1

>  <score_type>  (3) 
oracle

>  <origin>  (3) 
autodockgpu

>  <m_score__min__energy>  (3) 
-7.8499999999999996

>  <m_primary>  (3) 
energy

>  <rmsd>  (3) 
4.005136276764307

>  <m_score__min__rmsd>  (3) 
4.005136276764307

>  <meeko>  (3) 
{"free_energy": -7.54, "intermolecular_energy": -9.92, "internal_energy": -1.61, "cluster_size": 22, "cluster_id": 1, "rank_in_cluster": 3}

>  <energy>  (3) 
-7.54

>  <cluster_rmsd>  (3) 
1.01

>  <cluster>  (3) 
1

$$$$

     RDKit          3D

 45 46  0  0  0  0  0  0  0  0999 V2000
  141.4120   69.4170  219.6790 C   0  0  0  0  0  0  0  0  0  0  0  0
  142.7380   70.5750  219.2090 S   0  0  0  0  0  0  0  0  0  0  0  0
  143.5050   71.1880  220.7190 C   0  0  0  0  0  0  0  0  0  0  0  0
  144.6410   72.1450  220.4470 C   0  0  0  0  0  0  0  0  0  0  0  0
  144.4360   72.9950  219.2330 C   0  0  2  0  0  0  0  0  0  0  0  0
  145.6920   73.5990  218.8050 N   0  0  0  0  0  0  0  0  0  0  0  0
  143.5260   74.1040  219.6150 C   0  0  0  0  0  0  0  0  0  0  0  0
  144.0220   75.2790  219.5480 O   0  0  0  0  0  0  0  0  0  0  0  0
  142.1890   73.9240  220.0310 N   0  0  0  0  0  0  0  0  0  0  0  0
  141.3890   75.0650  220.3800 C   0  0  0  0  0  0  0  0  0  0  0  0
  141.9460   76.1940  220.2900 O   0  0  0  0  0  0  0  0  0  0  0  0
  139.9730   74.8990  220.8230 C   0  0  0  0  0  0  0  0  0  0  0  0
  139.9410   74.0220  221.9540 N   0  0  0  0  0  0  0  0  0  0  0  0
  140.0800   72.6110  221.6970 C   0  0  0  0  0  0  0  0  0  0  0  0
  140.2260   72.1680  220.5320 O   0  0  0  0  0  0  0  0  0  0  0  0
  140.0450   71.7150  222.8690 C   0  0  0  0  0  0  0  0  0  0  0  0
  139.4810   70.4540  222.6920 C   0  0  0  0  0  0  0  0  0  0  0  0
  139.4520   69.6240  223.7910 C   0  0  0  0  0  0  0  0  0  0  0  0
  139.9470   69.9850  225.0270 C   0  0  0  0  0  0  0  0  0  0  0  0
  139.9300   69.1820  226.1310 C   0  0  0  0  0  0  0  0  0  0  0  0
  140.4360   69.5700  227.3620 C   0  0  0  0  0  0  0  0  0  0  0  0
  140.3780   68.4870  228.7250 Cl  0  0  0  0  0  0  0  0  0  0  0  0
  140.9880   70.8490  227.4700 C   0  0  0  0  0  0  0  0  0  0  0  0
  140.9970   71.6440  226.3500 C   0  0  0  0  0  0  0  0  0  0  0  0
  140.4930   71.2540  225.1270 C   0  0  0  0  0  0  0  0  0  0  0  0
  140.5340   72.0860  224.0660 N   0  0  0  0  0  0  0  0  0  0  0  0
  141.3467   69.3599  220.7756 H   0  0  0  0  0  0  0  0  0  0  0  0
  140.4536   69.7725  219.2726 H   0  0  0  0  0  0  0  0  0  0  0  0
  141.6352   68.4195  219.2726 H   0  0  0  0  0  0  0  0  0  0  0  0
  142.7414   71.7084  221.3157 H   0  0  0  0  0  0  0  0  0  0  0  0
  143.9202   70.3227  221.2564 H   0  0  0  0  0  0  0  0  0  0  0  0
  144.7537   72.8064  221.3187 H   0  0  0  0  0  0  0  0  0  0  0  0
  145.5375   71.5346  220.2635 H   0  0  0  0  0  0  0  0  0  0  0  0
  144.0319   72.3733  218.4205 H   0  0  0  0  0  0  0  0  0  0  0  0
  145.5400   74.1690  217.9520 H   0  0  0  0  0  0  0  0  0  0  0  0
  146.0080   74.2110  219.5970 H   0  0  0  0  0  0  0  0  0  0  0  0
  141.8020   72.9490  220.0790 H   0  0  0  0  0  0  0  0  0  0  0  0
  139.5564   75.8779  221.1028 H   0  0  0  0  0  0  0  0  0  0  0  0
  139.3737   74.4738  220.0044 H   0  0  0  0  0  0  0  0  0  0  0  0
  139.8210   74.3470  222.9490 H   0  0  0  0  0  0  0  0  0  0  0  0
  139.0774   70.1355  221.7196 H   0  0  0  0  0  0  0  0  0  0  0  0
  139.0117   68.6224  223.6772 H   0  0  0  0  0  0  0  0  0  0  0  0
  139.4929   68.1768  226.0392 H   0  0  0  0  0  0  0  0  0  0  0  0
  141.4029   71.2084  228.4233 H   0  0  0  0  0  0  0  0  0  0  0  0
  141.4318   72.6510  226.4334 H   0  0  0  0  0  0  0  0  0  0  0  0
  1  2  1  0
  2  3  1  0
  3  4  1  0
  4  5  1  0
  5  6  1  0
  5  7  1  0
  7  8  2  0
  7  9  1  0
  9 10  1  0
 10 11  2  0
 10 12  1  0
 12 13  1  0
 13 14  1  0
 14 15  2  0
 14 16  1  0
 16 17  2  0
 17 18  1  0
 18 19  2  0
 19 20  1  0
 20 21  2  0
 21 22  1  0
 21 23  1  0
 23 24  2  0
 24 25  1  0
 25 26  2  0
 26 16  1  0
 25 19  1  0
  1 27  1  0
  1 28  1  0
  1 29  1  0
  3 30  1  0
  3 31  1  0
  4 32  1  0
  4 33  1  0
  5 34  1  6
  6 35  1  0
  6 36  1  0
  9 37  1  0
 12 38  1  0
 12 39  1  0
 13 40  1  0
 17 41  1  0
 18 42  1  0
 20 43  1  0
 23 44  1  0
 24 45  1  0
M  END
>  <smiles>  (4) 
CSCC[C@H](N)C(=O)NC(=O)CNC(=O)c1ccc2cc(Cl)ccc2n1

>  <score_type>  (4) 
oracle

>  <origin>  (4) 
autodockgpu

>  <m_score__min__energy>  (4) 
-7.8499999999999996

>  <m_primary>  (4) 
energy

>  <rmsd>  (4) 
3.3097244767111187

>  <m_score__min__rmsd>  (4) 
3.3097244767111187

>  <meeko>  (4) 
{"free_energy": -6.19, "intermolecular_energy": -8.58, "internal_energy": -3.39, "cluster_size": 13, "cluster_id": 3, "rank_in_cluster": 10}

>  <energy>  (4) 
-7.37

>  <cluster_rmsd>  (4) 
0.78

>  <cluster>  (4) 
1

$$$$

     RDKit          3D

 45 46  0  0  0  0  0  0  0  0999 V2000
  146.4780   73.3870  222.0080 C   0  0  0  0  0  0  0  0  0  0  0  0
  146.0700   72.9370  220.2910 S   0  0  0  0  0  0  0  0  0  0  0  0
  144.3160   72.5310  220.2230 C   0  0  0  0  0  0  0  0  0  0  0  0
  143.8110   72.3670  218.8090 C   0  0  0  0  0  0  0  0  0  0  0  0
  143.5560   73.6630  218.1060 C   0  0  2  0  0  0  0  0  0  0  0  0
  144.8110   74.3120  217.7460 N   0  0  0  0  0  0  0  0  0  0  0  0
  142.8600   74.5590  219.0620 C   0  0  0  0  0  0  0  0  0  0  0  0
  143.5140   75.5910  219.4370 O   0  0  0  0  0  0  0  0  0  0  0  0
  141.5570   74.3310  219.5570 N   0  0  0  0  0  0  0  0  0  0  0  0
  140.9700   75.2600  220.4820 C   0  0  0  0  0  0  0  0  0  0  0  0
  141.6750   76.2560  220.8060 O   0  0  0  0  0  0  0  0  0  0  0  0
  139.5950   75.0390  221.0180 C   0  0  0  0  0  0  0  0  0  0  0  0
  139.6670   74.1290  222.1200 N   0  0  0  0  0  0  0  0  0  0  0  0
  139.8830   72.7380  221.8120 C   0  0  0  0  0  0  0  0  0  0  0  0
  140.0050   72.3390  220.6280 O   0  0  0  0  0  0  0  0  0  0  0  0
  139.9560   71.8070  222.9550 C   0  0  0  0  0  0  0  0  0  0  0  0
  139.5190   70.5020  222.7440 C   0  0  0  0  0  0  0  0  0  0  0  0
  139.5900   69.6400  223.8170 C   0  0  0  0  0  0  0  0  0  0  0  0
  140.0650   70.0100  225.0570 C   0  0  0  0  0  0  0  0  0  0  0  0
  140.1460   69.1760  226.1350 C   0  0  0  0  0  0  0  0  0  0  0  0
  140.6290   69.5750  227.3720 C   0  0  0  0  0  0  0  0  0  0  0  0
  140.7010   68.4500  228.7000 Cl  0  0  0  0  0  0  0  0  0  0  0  0
  141.0510   70.8990  227.5130 C   0  0  0  0  0  0  0  0  0  0  0  0
  140.9630   71.7250  226.4200 C   0  0  0  0  0  0  0  0  0  0  0  0
  140.4820   71.3240  225.1910 C   0  0  0  0  0  0  0  0  0  0  0  0
  140.4230   72.1880  224.1570 N   0  0  0  0  0  0  0  0  0  0  0  0
  145.9034   72.7533  222.6995 H   0  0  0  0  0  0  0  0  0  0  0  0
  147.5539   73.2365  222.1807 H   0  0  0  0  0  0  0  0  0  0  0  0
  146.2231   74.4430  222.1807 H   0  0  0  0  0  0  0  0  0  0  0  0
  144.1512   71.5893  220.7672 H   0  0  0  0  0  0  0  0  0  0  0  0
  143.7634   73.3658  220.6789 H   0  0  0  0  0  0  0  0  0  0  0  0
  144.5615   71.8030  218.2357 H   0  0  0  0  0  0  0  0  0  0  0  0
  142.8471   71.8407  218.8715 H   0  0  0  0  0  0  0  0  0  0  0  0
  142.9669   73.4713  217.1970 H   0  0  0  0  0  0  0  0  0  0  0  0
  144.6520   75.3220  217.5710 H   0  0  0  0  0  0  0  0  0  0  0  0
  145.4530   74.1850  218.5670 H   0  0  0  0  0  0  0  0  0  0  0  0
  141.0390   73.4760  219.2370 H   0  0  0  0  0  0  0  0  0  0  0  0
  139.1727   75.9965  221.3570 H   0  0  0  0  0  0  0  0  0  0  0  0
  138.9513   74.6200  220.2306 H   0  0  0  0  0  0  0  0  0  0  0  0
  139.5720   74.4160  223.1300 H   0  0  0  0  0  0  0  0  0  0  0  0
  139.1351   70.1743  221.7667 H   0  0  0  0  0  0  0  0  0  0  0  0
  139.2501   68.6033  223.6767 H   0  0  0  0  0  0  0  0  0  0  0  0
  139.8112   68.1350  226.0162 H   0  0  0  0  0  0  0  0  0  0  0  0
  141.4425   71.2691  228.4720 H   0  0  0  0  0  0  0  0  0  0  0  0
  141.2955   72.7677  226.5308 H   0  0  0  0  0  0  0  0  0  0  0  0
  1  2  1  0
  2  3  1  0
  3  4  1  0
  4  5  1  0
  5  6  1  0
  5  7  1  0
  7  8  2  0
  7  9  1  0
  9 10  1  0
 10 11  2  0
 10 12  1  0
 12 13  1  0
 13 14  1  0
 14 15  2  0
 14 16  1  0
 16 17  2  0
 17 18  1  0
 18 19  2  0
 19 20  1  0
 20 21  2  0
 21 22  1  0
 21 23  1  0
 23 24  2  0
 24 25  1  0
 25 26  2  0
 26 16  1  0
 25 19  1  0
  1 27  1  0
  1 28  1  0
  1 29  1  0
  3 30  1  0
  3 31  1  0
  4 32  1  0
  4 33  1  0
  5 34  1  6
  6 35  1  0
  6 36  1  0
  9 37  1  0
 12 38  1  0
 12 39  1  0
 13 40  1  0
 17 41  1  0
 18 42  1  0
 20 43  1  0
 23 44  1  0
 24 45  1  0
M  END
>  <smiles>  (5) 
CSCC[C@H](N)C(=O)NC(=O)CNC(=O)c1ccc2cc(Cl)ccc2n1

>  <score_type>  (5) 
oracle

>  <origin>  (5) 
autodockgpu

>  <m_score__min__energy>  (5) 
-7.8499999999999996

>  <m_primary>  (5) 
energy

>  <rmsd>  (5) 
2.9106511629351006

>  <m_score__min__rmsd>  (5) 
2.9106511629351006

>  <meeko>  (5) 
{"free_energy": -6.86, "intermolecular_energy": -9.25, "internal_energy": -3.09, "cluster_size": 13, "cluster_id": 3, "rank_in_cluster": 5}

>  <energy>  (5) 
-7.3

>  <cluster_rmsd>  (5) 
1.11

>  <cluster>  (5) 
1

$$$$

     RDKit          3D

 45 46  0  0  0  0  0  0  0  0999 V2000
  141.0170   71.8920  226.8860 C   0  0  0  0  0  0  0  0  0  0  0  0
  141.0190   70.7780  228.3280 S   0  0  0  0  0  0  0  0  0  0  0  0
  139.6130   69.6630  228.1730 C   0  0  0  0  0  0  0  0  0  0  0  0
  140.0180   68.2700  227.7510 C   0  0  0  0  0  0  0  0  0  0  0  0
  140.4000   68.1650  226.3080 C   0  0  2  0  0  0  0  0  0  0  0  0
  141.7450   68.6810  226.0890 N   0  0  0  0  0  0  0  0  0  0  0  0
  139.4700   69.0290  225.5380 C   0  0  0  0  0  0  0  0  0  0  0  0
  140.0130   69.9680  224.8630 O   0  0  0  0  0  0  0  0  0  0  0  0
  138.0680   68.8640  225.5180 N   0  0  0  0  0  0  0  0  0  0  0  0
  137.2540   69.7540  224.7390 C   0  0  0  0  0  0  0  0  0  0  0  0
  137.8590   70.6590  224.0990 O   0  0  0  0  0  0  0  0  0  0  0  0
  135.7700   69.5990  224.7030 C   0  0  0  0  0  0  0  0  0  0  0  0
  135.1650   70.8250  225.1260 N   0  0  0  0  0  0  0  0  0  0  0  0
  134.0640   70.7300  226.0500 C   0  0  0  0  0  0  0  0  0  0  0  0
  133.6520   69.6210  226.4690 O   0  0  0  0  0  0  0  0  0  0  0  0
  133.4460   72.0000  226.4810 C   0  0  0  0  0  0  0  0  0  0  0  0
  132.2490   71.9190  227.1870 C   0  0  0  0  0  0  0  0  0  0  0  0
  131.6780   73.1090  227.5850 C   0  0  0  0  0  0  0  0  0  0  0  0
  132.2330   74.3420  227.3170 C   0  0  0  0  0  0  0  0  0  0  0  0
  131.6880   75.5350  227.6990 C   0  0  0  0  0  0  0  0  0  0  0  0
  132.2680   76.7620  227.4160 C   0  0  0  0  0  0  0  0  0  0  0  0
  131.5120   78.2410  227.9400 Cl  0  0  0  0  0  0  0  0  0  0  0  0
  133.4700   76.7690  226.7040 C   0  0  0  0  0  0  0  0  0  0  0  0
  134.0040   75.5620  226.3270 C   0  0  0  0  0  0  0  0  0  0  0  0
  133.4240   74.3430  226.6100 C   0  0  0  0  0  0  0  0  0  0  0  0
  134.0030   73.1930  226.2100 N   0  0  0  0  0  0  0  0  0  0  0  0
  141.0151   72.9369  227.2299 H   0  0  0  0  0  0  0  0  0  0  0  0
  141.9155   71.7074  226.2788 H   0  0  0  0  0  0  0  0  0  0  0  0
  140.1192   71.7042  226.2788 H   0  0  0  0  0  0  0  0  0  0  0  0
  139.1033   69.6019  229.1459 H   0  0  0  0  0  0  0  0  0  0  0  0
  138.9520   70.0679  227.3925 H   0  0  0  0  0  0  0  0  0  0  0  0
  140.8785   67.9588  228.3614 H   0  0  0  0  0  0  0  0  0  0  0  0
  139.1416   67.6220  227.8992 H   0  0  0  0  0  0  0  0  0  0  0  0
  140.3566   67.1104  225.9984 H   0  0  0  0  0  0  0  0  0  0  0  0
  141.8890   68.8830  225.0820 H   0  0  0  0  0  0  0  0  0  0  0  0
  141.8150   69.5660  226.6480 H   0  0  0  0  0  0  0  0  0  0  0  0
  137.6440   68.0850  226.0790 H   0  0  0  0  0  0  0  0  0  0  0  0
  135.4482   69.3630  223.6779 H   0  0  0  0  0  0  0  0  0  0  0  0
  135.4645   68.7821  225.3734 H   0  0  0  0  0  0  0  0  0  0  0  0
  135.4750   71.7790  224.8020 H   0  0  0  0  0  0  0  0  0  0  0  0
  131.7805   70.9506  227.4166 H   0  0  0  0  0  0  0  0  0  0  0  0
  130.7317   73.0728  228.1447 H   0  0  0  0  0  0  0  0  0  0  0  0
  130.7415   75.5214  228.2593 H   0  0  0  0  0  0  0  0  0  0  0  0
  133.9737   77.7141  226.4529 H   0  0  0  0  0  0  0  0  0  0  0  0
  134.9503   75.5672  225.7661 H   0  0  0  0  0  0  0  0  0  0  0  0
  1  2  1  0
  2  3  1  0
  3  4  1  0
  4  5  1  0
  5  6  1  0
  5  7  1  0
  7  8  2  0
  7  9  1  0
  9 10  1  0
 10 11  2  0
 10 12  1  0
 12 13  1  0
 13 14  1  0
 14 15  2  0
 14 16  1  0
 16 17  2  0
 17 18  1  0
 18 19  2  0
 19 20  1  0
 20 21  2  0
 21 22  1  0
 21 23  1  0
 23 24  2  0
 24 25  1  0
 25 26  2  0
 26 16  1  0
 25 19  1  0
  1 27  1  0
  1 28  1  0
  1 29  1  0
  3 30  1  0
  3 31  1  0
  4 32  1  0
  4 33  1  0
  5 34  1  6
  6 35  1  0
  6 36  1  0
  9 37  1  0
 12 38  1  0
 12 39  1  0
 13 40  1  0
 17 41  1  0
 18 42  1  0
 20 43  1  0
 23 44  1  0
 24 45  1  0
M  END
>  <smiles>  (6) 
CSCC[C@H](N)C(=O)NC(=O)CNC(=O)c1ccc2cc(Cl)ccc2n1

>  <score_type>  (6) 
oracle

>  <origin>  (6) 
autodockgpu

>  <m_score__min__energy>  (6) 
-7.8499999999999996

>  <m_primary>  (6) 
energy

>  <rmsd>  (6) 
9.355644168103312

>  <m_score__min__rmsd>  (6) 
9.355644168103312

>  <meeko>  (6) 
{"free_energy": -6.52, "intermolecular_energy": -8.91, "internal_energy": -2.47, "cluster_size": 5, "cluster_id": 2, "rank_in_cluster": 5}

>  <energy>  (6) 
-7.25

>  <cluster_rmsd>  (6) 
1.27

>  <cluster>  (6) 
1

$$$$

     RDKit          3D

 45 46  0  0  0  0  0  0  0  0999 V2000
  141.7640   79.0180  224.0070 C   0  0  0  0  0  0  0  0  0  0  0  0
  141.9910   80.2930  222.7250 S   0  0  0  0  0  0  0  0  0  0  0  0
  141.8250   79.5010  221.1160 C   0  0  0  0  0  0  0  0  0  0  0  0
  140.9110   80.2620  220.1840 C   0  0  0  0  0  0  0  0  0  0  0  0
  139.4700   80.2140  220.5820 C   0  0  2  0  0  0  0  0  0  0  0  0
  139.1500   81.3030  221.4980 N   0  0  0  0  0  0  0  0  0  0  0  0
  139.2540   78.9450  221.3200 C   0  0  0  0  0  0  0  0  0  0  0  0
  138.7820   79.0610  222.5020 O   0  0  0  0  0  0  0  0  0  0  0  0
  139.5350   77.6650  220.7950 N   0  0  0  0  0  0  0  0  0  0  0  0
  139.2900   76.4950  221.5910 C   0  0  0  0  0  0  0  0  0  0  0  0
  138.8230   76.6870  222.7490 O   0  0  0  0  0  0  0  0  0  0  0  0
  139.5800   75.1330  221.0560 C   0  0  0  0  0  0  0  0  0  0  0  0
  139.5630   74.1960  222.1380 N   0  0  0  0  0  0  0  0  0  0  0  0
  140.1580   72.9050  221.9010 C   0  0  0  0  0  0  0  0  0  0  0  0
  140.6720   72.6130  220.7940 O   0  0  0  0  0  0  0  0  0  0  0  0
  140.1350   71.9460  223.0230 C   0  0  0  0  0  0  0  0  0  0  0  0
  139.5930   70.6870  222.7740 C   0  0  0  0  0  0  0  0  0  0  0  0
  139.5750   69.7980  223.8270 C   0  0  0  0  0  0  0  0  0  0  0  0
  140.0600   70.0990  225.0820 C   0  0  0  0  0  0  0  0  0  0  0  0
  140.0540   69.2370  226.1410 C   0  0  0  0  0  0  0  0  0  0  0  0
  140.5480   69.5660  227.3930 C   0  0  0  0  0  0  0  0  0  0  0  0
  140.5060   68.4090  228.6950 Cl  0  0  0  0  0  0  0  0  0  0  0  0
  141.0770   70.8470  227.5730 C   0  0  0  0  0  0  0  0  0  0  0  0
  141.0760   71.7010  226.4990 C   0  0  0  0  0  0  0  0  0  0  0  0
  140.5830   71.3700  225.2540 C   0  0  0  0  0  0  0  0  0  0  0  0
  140.6130   72.2590  224.2400 N   0  0  0  0  0  0  0  0  0  0  0  0
  141.8462   79.4798  225.0020 H   0  0  0  0  0  0  0  0  0  0  0  0
  140.7702   78.5597  223.8964 H   0  0  0  0  0  0  0  0  0  0  0  0
  142.5386   78.2449  223.8964 H   0  0  0  0  0  0  0  0  0  0  0  0
  142.8206   79.4313  220.6535 H   0  0  0  0  0  0  0  0  0  0  0  0
  141.3820   78.5074  221.2785 H   0  0  0  0  0  0  0  0  0  0  0  0
  141.2313   81.3142  220.1662 H   0  0  0  0  0  0  0  0  0  0  0  0
  140.9876   79.7827  219.1969 H   0  0  0  0  0  0  0  0  0  0  0  0
  138.8430   80.2942  219.6817 H   0  0  0  0  0  0  0  0  0  0  0  0
  138.2240   81.1390  221.9350 H   0  0  0  0  0  0  0  0  0  0  0  0
  139.9000   81.3000  222.2310 H   0  0  0  0  0  0  0  0  0  0  0  0
  139.9230   77.5940  219.8220 H   0  0  0  0  0  0  0  0  0  0  0  0
  138.8146   74.8564  220.3160 H   0  0  0  0  0  0  0  0  0  0  0  0
  140.5679   75.1254  220.5722 H   0  0  0  0  0  0  0  0  0  0  0  0
  139.1440   74.3950  223.0850 H   0  0  0  0  0  0  0  0  0  0  0  0
  139.1981   70.4153  221.7839 H   0  0  0  0  0  0  0  0  0  0  0  0
  139.1519   68.7969  223.6574 H   0  0  0  0  0  0  0  0  0  0  0  0
  139.6358   68.2305  225.9926 H   0  0  0  0  0  0  0  0  0  0  0  0
  141.4819   71.1612  228.5463 H   0  0  0  0  0  0  0  0  0  0  0  0
  141.4930   72.7092  226.6391 H   0  0  0  0  0  0  0  0  0  0  0  0
  1  2  1  0
  2  3  1  0
  3  4  1  0
  4  5  1  0
  5  6  1  0
  5  7  1  0
  7  8  2  0
  7  9  1  0
  9 10  1  0
 10 11  2  0
 10 12  1  0
 12 13  1  0
 13 14  1  0
 14 15  2  0
 14 16  1  0
 16 17  2  0
 17 18  1  0
 18 19  2  0
 19 20  1  0
 20 21  2  0
 21 22  1  0
 21 23  1  0
 23 24  2  0
 24 25  1  0
 25 26  2  0
 26 16  1  0
 25 19  1  0
  1 27  1  0
  1 28  1  0
  1 29  1  0
  3 30  1  0
  3 31  1  0
  4 32  1  0
  4 33  1  0
  5 34  1  6
  6 35  1  0
  6 36  1  0
  9 37  1  0
 12 38  1  0
 12 39  1  0
 13 40  1  0
 17 41  1  0
 18 42  1  0
 20 43  1  0
 23 44  1  0
 24 45  1  0
M  END
>  <smiles>  (7) 
CSCC[C@H](N)C(=O)NC(=O)CNC(=O)c1ccc2cc(Cl)ccc2n1

>  <score_type>  (7) 
oracle

>  <origin>  (7) 
autodockgpu

>  <m_score__min__energy>  (7) 
-7.8499999999999996

>  <m_primary>  (7) 
energy

>  <rmsd>  (7) 
2.5136237583068466

>  <m_score__min__rmsd>  (7) 
2.5136237583068466

>  <meeko>  (7) 
{"free_energy": -6.12, "intermolecular_energy": -8.51, "internal_energy": -2.56, "cluster_size": 22, "cluster_id": 1, "rank_in_cluster": 21}

>  <energy>  (7) 
-7.25

>  <cluster_rmsd>  (7) 
1.28

>  <cluster>  (7) 
1

$$$$

     RDKit          3D

 45 46  0  0  0  0  0  0  0  0999 V2000
  144.8900   71.4800  219.4290 C   0  0  0  0  0  0  0  0  0  0  0  0
  146.0250   72.8710  219.7380 S   0  0  0  0  0  0  0  0  0  0  0  0
  145.1540   74.0910  220.7360 C   0  0  0  0  0  0  0  0  0  0  0  0
  143.6620   74.0740  220.5050 C   0  0  0  0  0  0  0  0  0  0  0  0
  143.1700   75.2040  219.6570 C   0  0  2  0  0  0  0  0  0  0  0  0
  144.0700   76.3470  219.7460 N   0  0  0  0  0  0  0  0  0  0  0  0
  141.8600   75.6360  220.2060 C   0  0  0  0  0  0  0  0  0  0  0  0
  141.7820   76.8590  220.5640 O   0  0  0  0  0  0  0  0  0  0  0  0
  140.7410   74.7870  220.3440 N   0  0  0  0  0  0  0  0  0  0  0  0
  139.5150   75.3020  220.8870 C   0  0  0  0  0  0  0  0  0  0  0  0
  139.5120   76.5200  221.2200 O   0  0  0  0  0  0  0  0  0  0  0  0
  138.3190   74.4230  221.0420 C   0  0  0  0  0  0  0  0  0  0  0  0
  138.5370   73.5310  222.1390 N   0  0  0  0  0  0  0  0  0  0  0  0
  139.4140   72.4110  221.9130 C   0  0  0  0  0  0  0  0  0  0  0  0
  139.9660   72.2250  220.8000 O   0  0  0  0  0  0  0  0  0  0  0  0
  139.6330   71.4960  223.0500 C   0  0  0  0  0  0  0  0  0  0  0  0
  139.2670   70.1640  222.8770 C   0  0  0  0  0  0  0  0  0  0  0  0
  139.4750   69.3170  223.9440 C   0  0  0  0  0  0  0  0  0  0  0  0
  140.0160   69.7270  225.1430 C   0  0  0  0  0  0  0  0  0  0  0  0
  140.2320   68.9090  226.2150 C   0  0  0  0  0  0  0  0  0  0  0  0
  140.7790   69.3480  227.4100 C   0  0  0  0  0  0  0  0  0  0  0  0
  141.0240   68.2420  228.7330 Cl  0  0  0  0  0  0  0  0  0  0  0  0
  141.1240   70.6980  227.5160 C   0  0  0  0  0  0  0  0  0  0  0  0
  140.9010   71.5080  226.4290 C   0  0  0  0  0  0  0  0  0  0  0  0
  140.3560   71.0670  225.2420 C   0  0  0  0  0  0  0  0  0  0  0  0
  140.1640   71.9160  224.2120 N   0  0  0  0  0  0  0  0  0  0  0  0
  144.5503   71.0637  220.3889 H   0  0  0  0  0  0  0  0  0  0  0  0
  144.0213   71.8360  218.8558 H   0  0  0  0  0  0  0  0  0  0  0  0
  145.4130   70.7004  218.8558 H   0  0  0  0  0  0  0  0  0  0  0  0
  145.3482   73.8805  221.7980 H   0  0  0  0  0  0  0  0  0  0  0  0
  145.5243   75.0849  220.4443 H   0  0  0  0  0  0  0  0  0  0  0  0
  143.3984   73.1280  220.0094 H   0  0  0  0  0  0  0  0  0  0  0  0
  143.1838   74.1804  221.4899 H   0  0  0  0  0  0  0  0  0  0  0  0
  143.1029   74.8688  218.6115 H   0  0  0  0  0  0  0  0  0  0  0  0
  144.4340   76.5880  218.8050 H   0  0  0  0  0  0  0  0  0  0  0  0
  143.5000   77.1410  220.1270 H   0  0  0  0  0  0  0  0  0  0  0  0
  140.8270   73.7850  220.0430 H   0  0  0  0  0  0  0  0  0  0  0  0
  137.4303   75.0405  221.2395 H   0  0  0  0  0  0  0  0  0  0  0  0
  138.1592   73.8459  220.1193 H   0  0  0  0  0  0  0  0  0  0  0  0
  138.0970   73.6460  223.0900 H   0  0  0  0  0  0  0  0  0  0  0  0
  138.8321   69.8044  221.9328 H   0  0  0  0  0  0  0  0  0  0  0  0
  139.1947   68.2592  223.8327 H   0  0  0  0  0  0  0  0  0  0  0  0
  139.9577   67.8475  226.1252 H   0  0  0  0  0  0  0  0  0  0  0  0
  141.5610   71.1000  228.4420 H   0  0  0  0  0  0  0  0  0  0  0  0
  141.1733   72.5707  226.5106 H   0  0  0  0  0  0  0  0  0  0  0  0
  1  2  1  0
  2  3  1  0
  3  4  1  0
  4  5  1  0
  5  6  1  0
  5  7  1  0
  7  8  2  0
  7  9  1  0
  9 10  1  0
 10 11  2  0
 10 12  1  0
 12 13  1  0
 13 14  1  0
 14 15  2  0
 14 16  1  0
 16 17  2  0
 17 18  1  0
 18 19  2  0
 19 20  1  0
 20 21  2  0
 21 22  1  0
 21 23  1  0
 23 24  2  0
 24 25  1  0
 25 26  2  0
 26 16  1  0
 25 19  1  0
  1 27  1  0
  1 28  1  0
  1 29  1  0
  3 30  1  0
  3 31  1  0
  4 32  1  0
  4 33  1  0
  5 34  1  6
  6 35  1  0
  6 36  1  0
  9 37  1  0
 12 38  1  0
 12 39  1  0
 13 40  1  0
 17 41  1  0
 18 42  1  0
 20 43  1  0
 23 44  1  0
 24 45  1  0
M  END
>  <smiles>  (8) 
CSCC[C@H](N)C(=O)NC(=O)CNC(=O)c1ccc2cc(Cl)ccc2n1

>  <score_type>  (8) 
oracle

>  <origin>  (8) 
autodockgpu

>  <m_score__min__energy>  (8) 
-7.8499999999999996

>  <m_primary>  (8) 
energy

>  <rmsd>  (8) 
2.425206306081642

>  <m_score__min__rmsd>  (8) 
2.425206306081642

>  <meeko>  (8) 
{"free_energy": -6.95, "intermolecular_energy": -9.34, "internal_energy": -2.5, "cluster_size": 13, "cluster_id": 3, "rank_in_cluster": 4}

>  <energy>  (8) 
-7.23

>  <cluster_rmsd>  (8) 
1.26

>  <cluster>  (8) 
1

$$$$

     RDKit          3D

 45 46  0  0  0  0  0  0  0  0999 V2000
  137.4230   81.2470  225.2240 C   0  0  0  0  0  0  0  0  0  0  0  0
  138.1600   80.8910  223.5960 S   0  0  0  0  0  0  0  0  0  0  0  0
  139.4600   79.6670  223.8290 C   0  0  0  0  0  0  0  0  0  0  0  0
  140.6520   79.9060  222.9320 C   0  0  0  0  0  0  0  0  0  0  0  0
  141.6820   78.8230  222.9970 C   0  0  2  0  0  0  0  0  0  0  0  0
  143.0110   79.3540  222.7230 N   0  0  0  0  0  0  0  0  0  0  0  0
  141.3710   77.8480  221.9220 C   0  0  0  0  0  0  0  0  0  0  0  0
  142.1250   77.8950  220.8920 O   0  0  0  0  0  0  0  0  0  0  0  0
  140.3200   76.9070  221.9860 N   0  0  0  0  0  0  0  0  0  0  0  0
  140.1000   76.0050  220.8900 C   0  0  0  0  0  0  0  0  0  0  0  0
  140.8850   76.1100  219.9060 O   0  0  0  0  0  0  0  0  0  0  0  0
  138.9960   75.0030  220.9350 C   0  0  0  0  0  0  0  0  0  0  0  0
  139.2180   74.1140  222.0350 N   0  0  0  0  0  0  0  0  0  0  0  0
  139.3960   72.7180  221.7280 C   0  0  0  0  0  0  0  0  0  0  0  0
  139.3580   72.2960  220.5460 O   0  0  0  0  0  0  0  0  0  0  0  0
  139.6250   71.8100  222.8680 C   0  0  0  0  0  0  0  0  0  0  0  0
  139.2650   70.4750  222.7030 C   0  0  0  0  0  0  0  0  0  0  0  0
  139.4830   69.6340  223.7730 C   0  0  0  0  0  0  0  0  0  0  0  0
  140.0270   70.0530  224.9680 C   0  0  0  0  0  0  0  0  0  0  0  0
  140.2530   69.2410  226.0430 C   0  0  0  0  0  0  0  0  0  0  0  0
  140.8030   69.6890  227.2330 C   0  0  0  0  0  0  0  0  0  0  0  0
  141.0600   68.5900  228.5600 Cl  0  0  0  0  0  0  0  0  0  0  0  0
  141.1410   71.0410  227.3310 C   0  0  0  0  0  0  0  0  0  0  0  0
  140.9080   71.8440  226.2420 C   0  0  0  0  0  0  0  0  0  0  0  0
  140.3600   71.3950  225.0590 C   0  0  0  0  0  0  0  0  0  0  0  0
  140.1580   72.2380  224.0260 N   0  0  0  0  0  0  0  0  0  0  0  0
  138.1090   80.9156  226.0174 H   0  0  0  0  0  0  0  0  0  0  0  0
  137.2482   82.3289  225.3187 H   0  0  0  0  0  0  0  0  0  0  0  0
  136.4669   80.7114  225.3187 H   0  0  0  0  0  0  0  0  0  0  0  0
  139.7945   79.7036  224.8763 H   0  0  0  0  0  0  0  0  0  0  0  0
  139.0410   78.6833  223.5705 H   0  0  0  0  0  0  0  0  0  0  0  0
  140.2953   79.9839  221.8943 H   0  0  0  0  0  0  0  0  0  0  0  0
  141.1358   80.8303  223.2808 H   0  0  0  0  0  0  0  0  0  0  0  0
  141.6673   78.3705  223.9995 H   0  0  0  0  0  0  0  0  0  0  0  0
  143.7200   78.6020  222.8100 H   0  0  0  0  0  0  0  0  0  0  0  0
  142.9860   79.7140  221.7370 H   0  0  0  0  0  0  0  0  0  0  0  0
  139.7120   76.8860  222.8420 H   0  0  0  0  0  0  0  0  0  0  0  0
  138.0340   75.5199  221.0669 H   0  0  0  0  0  0  0  0  0  0  0  0
  138.9734   74.4325  219.9948 H   0  0  0  0  0  0  0  0  0  0  0  0
  139.2590   74.4210  223.0420 H   0  0  0  0  0  0  0  0  0  0  0  0
  138.8271   70.1087  221.7627 H   0  0  0  0  0  0  0  0  0  0  0  0
  139.2087   68.5740  223.6678 H   0  0  0  0  0  0  0  0  0  0  0  0
  139.9847   68.1775  225.9595 H   0  0  0  0  0  0  0  0  0  0  0  0
  141.5805   71.4498  228.2528 H   0  0  0  0  0  0  0  0  0  0  0  0
  141.1743   72.9086  226.3177 H   0  0  0  0  0  0  0  0  0  0  0  0
  1  2  1  0
  2  3  1  0
  3  4  1  0
  4  5  1  0
  5  6  1  0
  5  7  1  0
  7  8  2  0
  7  9  1  0
  9 10  1  0
 10 11  2  0
 10 12  1  0
 12 13  1  0
 13 14  1  0
 14 15  2  0
 14 16  1  0
 16 17  2  0
 17 18  1  0
 18 19  2  0
 19 20  1  0
 20 21  2  0
 21 22  1  0
 21 23  1  0
 23 24  2  0
 24 25  1  0
 25 26  2  0
 26 16  1  0
 25 19  1  0
  1 27  1  0
  1 28  1  0
  1 29  1  0
  3 30  1  0
  3 31  1  0
  4 32  1  0
  4 33  1  0
  5 34  1  1
  6 35  1  0
  6 36  1  0
  9 37  1  0
 12 38  1  0
 12 39  1  0
 13 40  1  0
 17 41  1  0
 18 42  1  0
 20 43  1  0
 23 44  1  0
 24 45  1  0
M  END
>  <smiles>  (9) 
CSCC[C@H](N)C(=O)NC(=O)CNC(=O)c1ccc2cc(Cl)ccc2n1

>  <score_type>  (9) 
oracle

>  <origin>  (9) 
autodockgpu

>  <m_score__min__energy>  (9) 
-7.8499999999999996

>  <m_primary>  (9) 
energy

>  <rmsd>  (9) 
3.172993710903798

>  <m_score__min__rmsd>  (9) 
3.172993710903798

>  <meeko>  (9) 
{"free_energy": -7.21, "intermolecular_energy": -9.59, "internal_energy": -1.95, "cluster_size": 22, "cluster_id": 1, "rank_in_cluster": 10}

>  <energy>  (9) 
-7.23

>  <cluster_rmsd>  (9) 
1.22

>  <cluster>  (9) 
1

$$$$

     RDKit          3D

 45 46  0  0  0  0  0  0  0  0999 V2000
  143.1820   71.8730  220.9910 C   0  0  0  0  0  0  0  0  0  0  0  0
  144.7460   72.8070  220.9470 S   0  0  0  0  0  0  0  0  0  0  0  0
  145.1440   73.1470  219.2240 C   0  0  0  0  0  0  0  0  0  0  0  0
  143.9640   72.9430  218.3030 C   0  0  0  0  0  0  0  0  0  0  0  0
  143.4020   74.2160  217.7530 C   0  0  2  0  0  0  0  0  0  0  0  0
  144.4610   75.0560  217.2080 N   0  0  0  0  0  0  0  0  0  0  0  0
  142.7940   74.9600  218.8850 C   0  0  0  0  0  0  0  0  0  0  0  0
  143.5290   75.8550  219.4230 O   0  0  0  0  0  0  0  0  0  0  0  0
  141.4890   74.7310  219.3730 N   0  0  0  0  0  0  0  0  0  0  0  0
  140.9920   75.5060  220.4750 C   0  0  0  0  0  0  0  0  0  0  0  0
  141.7750   76.3720  220.9560 O   0  0  0  0  0  0  0  0  0  0  0  0
  139.6160   75.2810  221.0080 C   0  0  0  0  0  0  0  0  0  0  0  0
  139.6760   74.3060  222.0540 N   0  0  0  0  0  0  0  0  0  0  0  0
  139.9390   72.9430  221.6690 C   0  0  0  0  0  0  0  0  0  0  0  0
  140.1090   72.6220  220.4670 O   0  0  0  0  0  0  0  0  0  0  0  0
  139.9990   71.9450  222.7540 C   0  0  0  0  0  0  0  0  0  0  0  0
  139.5510   70.6590  222.4640 C   0  0  0  0  0  0  0  0  0  0  0  0
  139.6100   69.7330  223.4830 C   0  0  0  0  0  0  0  0  0  0  0  0
  140.0840   70.0250  224.7450 C   0  0  0  0  0  0  0  0  0  0  0  0
  140.1540   69.1260  225.7710 C   0  0  0  0  0  0  0  0  0  0  0  0
  140.6350   69.4460  227.0310 C   0  0  0  0  0  0  0  0  0  0  0  0
  140.6930   68.2440  228.2900 Cl  0  0  0  0  0  0  0  0  0  0  0  0
  141.0690   70.7560  227.2530 C   0  0  0  0  0  0  0  0  0  0  0  0
  140.9930   71.6460  226.2110 C   0  0  0  0  0  0  0  0  0  0  0  0
  140.5130   71.3240  224.9590 C   0  0  0  0  0  0  0  0  0  0  0  0
  140.4650   72.2490  223.9780 N   0  0  0  0  0  0  0  0  0  0  0  0
  142.8888   71.6979  222.0366 H   0  0  0  0  0  0  0  0  0  0  0  0
  142.3960   72.4497  220.4815 H   0  0  0  0  0  0  0  0  0  0  0  0
  143.3170   70.9075  220.4815 H   0  0  0  0  0  0  0  0  0  0  0  0
  145.4802   74.1910  219.1396 H   0  0  0  0  0  0  0  0  0  0  0  0
  145.9304   72.4411  218.9186 H   0  0  0  0  0  0  0  0  0  0  0  0
  144.2860   72.3132  217.4606 H   0  0  0  0  0  0  0  0  0  0  0  0
  143.1687   72.4723  218.8996 H   0  0  0  0  0  0  0  0  0  0  0  0
  142.6764   73.9786  216.9611 H   0  0  0  0  0  0  0  0  0  0  0  0
  144.4290   75.9970  217.6430 H   0  0  0  0  0  0  0  0  0  0  0  0
  145.3650   74.5800  217.4440 H   0  0  0  0  0  0  0  0  0  0  0  0
  140.9020   73.9910  218.9160 H   0  0  0  0  0  0  0  0  0  0  0  0
  139.2156   76.2250  221.4061 H   0  0  0  0  0  0  0  0  0  0  0  0
  138.9590   74.9220  220.2021 H   0  0  0  0  0  0  0  0  0  0  0  0
  139.5410   74.5270  223.0760 H   0  0  0  0  0  0  0  0  0  0  0  0
  139.1676   70.3943  221.4675 H   0  0  0  0  0  0  0  0  0  0  0  0
  139.2616   68.7096  223.2797 H   0  0  0  0  0  0  0  0  0  0  0  0
  139.8116   68.0967  225.5882 H   0  0  0  0  0  0  0  0  0  0  0  0
  141.4599   71.0645  228.2338 H   0  0  0  0  0  0  0  0  0  0  0  0
  141.3351   72.6769  226.3848 H   0  0  0  0  0  0  0  0  0  0  0  0
  1  2  1  0
  2  3  1  0
  3  4  1  0
  4  5  1  0
  5  6  1  0
  5  7  1  0
  7  8  2  0
  7  9  1  0
  9 10  1  0
 10 11  2  0
 10 12  1  0
 12 13  1  0
 13 14  1  0
 14 15  2  0
 14 16  1  0
 16 17  2  0
 17 18  1  0
 18 19  2  0
 19 20  1  0
 20 21  2  0
 21 22  1  0
 21 23  1  0
 23 24  2  0
 24 25  1  0
 25 26  2  0
 26 16  1  0
 25 19  1  0
  1 27  1  0
  1 28  1  0
  1 29  1  0
  3 30  1  0
  3 31  1  0
  4 32  1  0
  4 33  1  0
  5 34  1  6
  6 35  1  0
  6 36  1  0
  9 37  1  0
 12 38  1  0
 12 39  1  0
 13 40  1  0
 17 41  1  0
 18 42  1  0
 20 43  1  0
 23 44  1  0
 24 45  1  0
M  END
>  <smiles>  (10) 
CSCC[C@H](N)C(=O)NC(=O)CNC(=O)c1ccc2cc(Cl)ccc2n1

>  <score_type>  (10) 
oracle

>  <origin>  (10) 
autodockgpu

>  <m_score__min__energy>  (10) 
-7.8499999999999996

>  <m_primary>  (10) 
energy

>  <rmsd>  (10) 
2.8028477255358637

>  <m_score__min__rmsd>  (10) 
2.8028477255358637

>  <meeko>  (10) 
{"free_energy": -6.16, "intermolecular_energy": -8.55, "internal_energy": -3.01, "cluster_size": 13, "cluster_id": 3, "rank_in_cluster": 11}

>  <energy>  (10) 
-7.21

>  <cluster_rmsd>  (10) 
1.68

>  <cluster>  (10) 
1

$$$$

     RDKit          3D

 45 46  0  0  0  0  0  0  0  0999 V2000
  141.8230   79.3790  219.3980 C   0  0  0  0  0  0  0  0  0  0  0  0
  140.8570   80.6630  220.2570 S   0  0  0  0  0  0  0  0  0  0  0  0
  141.8720   81.3270  221.5880 C   0  0  0  0  0  0  0  0  0  0  0  0
  141.4280   80.8510  222.9520 C   0  0  0  0  0  0  0  0  0  0  0  0
  141.7980   79.4310  223.2430 C   0  0  2  0  0  0  0  0  0  0  0  0
  142.9480   79.0210  222.4470 N   0  0  0  0  0  0  0  0  0  0  0  0
  140.6550   78.5790  222.8300 C   0  0  0  0  0  0  0  0  0  0  0  0
  139.4930   79.0770  223.0150 O   0  0  0  0  0  0  0  0  0  0  0  0
  140.7900   77.2930  222.2630 N   0  0  0  0  0  0  0  0  0  0  0  0
  139.6190   76.5470  221.8960 C   0  0  0  0  0  0  0  0  0  0  0  0
  138.5050   77.1020  222.1080 O   0  0  0  0  0  0  0  0  0  0  0  0
  139.7370   75.1860  221.2960 C   0  0  0  0  0  0  0  0  0  0  0  0
  139.7540   74.2140  222.3470 N   0  0  0  0  0  0  0  0  0  0  0  0
  140.0720   72.8570  221.9840 C   0  0  0  0  0  0  0  0  0  0  0  0
  140.3260   72.5380  220.7970 O   0  0  0  0  0  0  0  0  0  0  0  0
  140.0870   71.8620  223.0750 C   0  0  0  0  0  0  0  0  0  0  0  0
  139.5930   70.5930  222.7870 C   0  0  0  0  0  0  0  0  0  0  0  0
  139.6100   69.6710  223.8100 C   0  0  0  0  0  0  0  0  0  0  0  0
  140.0840   69.9500  225.0740 C   0  0  0  0  0  0  0  0  0  0  0  0
  140.1120   69.0550  226.1060 C   0  0  0  0  0  0  0  0  0  0  0  0
  140.5950   69.3630  227.3680 C   0  0  0  0  0  0  0  0  0  0  0  0
  140.5980   68.1650  228.6330 Cl  0  0  0  0  0  0  0  0  0  0  0  0
  141.0760   70.6560  227.5880 C   0  0  0  0  0  0  0  0  0  0  0  0
  141.0410   71.5440  226.5410 C   0  0  0  0  0  0  0  0  0  0  0  0
  140.5590   71.2340  225.2860 C   0  0  0  0  0  0  0  0  0  0  0  0
  140.5540   72.1550  224.3010 N   0  0  0  0  0  0  0  0  0  0  0  0
  142.3114   78.7299  220.1397 H   0  0  0  0  0  0  0  0  0  0  0  0
  141.1527   78.7760  218.7678 H   0  0  0  0  0  0  0  0  0  0  0  0
  142.5881   79.8559  218.7678 H   0  0  0  0  0  0  0  0  0  0  0  0
  142.9136   81.0122  221.4271 H   0  0  0  0  0  0  0  0  0  0  0  0
  141.7709   82.4222  221.5687 H   0  0  0  0  0  0  0  0  0  0  0  0
  141.8939   81.4943  223.7130 H   0  0  0  0  0  0  0  0  0  0  0  0
  140.3296   80.9073  222.9704 H   0  0  0  0  0  0  0  0  0  0  0  0
  142.0376   79.3325  224.3121 H   0  0  0  0  0  0  0  0  0  0  0  0
  143.6890   78.6370  223.0640 H   0  0  0  0  0  0  0  0  0  0  0  0
  142.6020   78.2780  221.7920 H   0  0  0  0  0  0  0  0  0  0  0  0
  141.7540   76.9030  222.1210 H   0  0  0  0  0  0  0  0  0  0  0  0
  138.8785   74.9988  220.6342 H   0  0  0  0  0  0  0  0  0  0  0  0
  140.6656   75.1169  220.7104 H   0  0  0  0  0  0  0  0  0  0  0  0
  139.5480   74.4340  223.3570 H   0  0  0  0  0  0  0  0  0  0  0  0
  139.2070   70.3384  221.7889 H   0  0  0  0  0  0  0  0  0  0  0  0
  139.2257   68.6603  223.6081 H   0  0  0  0  0  0  0  0  0  0  0  0
  139.7319   68.0385  225.9261 H   0  0  0  0  0  0  0  0  0  0  0  0
  141.4710   70.9539  228.5705 H   0  0  0  0  0  0  0  0  0  0  0  0
  141.4195   72.5624  226.7131 H   0  0  0  0  0  0  0  0  0  0  0  0
  1  2  1  0
  2  3  1  0
  3  4  1  0
  4  5  1  0
  5  6  1  0
  5  7  1  0
  7  8  2  0
  7  9  1  0
  9 10  1  0
 10 11  2  0
 10 12  1  0
 12 13  1  0
 13 14  1  0
 14 15  2  0
 14 16  1  0
 16 17  2  0
 17 18  1  0
 18 19  2  0
 19 20  1  0
 20 21  2  0
 21 22  1  0
 21 23  1  0
 23 24  2  0
 24 25  1  0
 25 26  2  0
 26 16  1  0
 25 19  1  0
  1 27  1  0
  1 28  1  0
  1 29  1  0
  3 30  1  0
  3 31  1  0
  4 32  1  0
  4 33  1  0
  5 34  1  1
  6 35  1  0
  6 36  1  0
  9 37  1  0
 12 38  1  0
 12 39  1  0
 13 40  1  0
 17 41  1  0
 18 42  1  0
 20 43  1  0
 23 44  1  0
 24 45  1  0
M  END
>  <smiles>  (11) 
CSCC[C@H](N)C(=O)NC(=O)CNC(=O)c1ccc2cc(Cl)ccc2n1

>  <score_type>  (11) 
oracle

>  <origin>  (11) 
autodockgpu

>  <m_score__min__energy>  (11) 
-7.8499999999999996

>  <m_primary>  (11) 
energy

>  <rmsd>  (11) 
3.480752258688423

>  <m_score__min__rmsd>  (11) 
3.480752258688423

>  <meeko>  (11) 
{"free_energy": -7.85, "intermolecular_energy": -10.24, "internal_energy": -1.58, "cluster_size": 22, "cluster_id": 1, "rank_in_cluster": 1}

>  <energy>  (11) 
-7.13

>  <cluster_rmsd>  (11) 
1.39

>  <cluster>  (11) 
1

$$$$

     RDKit          3D

 45 46  0  0  0  0  0  0  0  0999 V2000
  141.3440   80.8500  220.1070 C   0  0  0  0  0  0  0  0  0  0  0  0
  141.4610   82.0320  221.4880 S   0  0  0  0  0  0  0  0  0  0  0  0
  140.9960   81.1700  223.0000 C   0  0  0  0  0  0  0  0  0  0  0  0
  140.4890   79.7710  222.7400 C   0  0  0  0  0  0  0  0  0  0  0  0
  141.5380   78.7140  222.8870 C   0  0  2  0  0  0  0  0  0  0  0  0
  142.8590   79.2490  222.5840 N   0  0  0  0  0  0  0  0  0  0  0  0
  141.2520   77.6600  221.8820 C   0  0  0  0  0  0  0  0  0  0  0  0
  142.0970   77.5550  220.9300 O   0  0  0  0  0  0  0  0  0  0  0  0
  140.1310   76.8030  221.9290 N   0  0  0  0  0  0  0  0  0  0  0  0
  139.9430   75.8140  220.9050 C   0  0  0  0  0  0  0  0  0  0  0  0
  140.8190   75.7680  219.9960 O   0  0  0  0  0  0  0  0  0  0  0  0
  138.7660   74.8970  220.9350 C   0  0  0  0  0  0  0  0  0  0  0  0
  138.9130   73.9870  222.0290 N   0  0  0  0  0  0  0  0  0  0  0  0
  139.6910   72.7970  221.7960 C   0  0  0  0  0  0  0  0  0  0  0  0
  140.2200   72.5670  220.6800 O   0  0  0  0  0  0  0  0  0  0  0  0
  139.8380   71.8640  222.9300 C   0  0  0  0  0  0  0  0  0  0  0  0
  139.4380   70.5460  222.7280 C   0  0  0  0  0  0  0  0  0  0  0  0
  139.5780   69.6820  223.7920 C   0  0  0  0  0  0  0  0  0  0  0  0
  140.0850   70.0630  225.0160 C   0  0  0  0  0  0  0  0  0  0  0  0
  140.2340   69.2270  226.0860 C   0  0  0  0  0  0  0  0  0  0  0  0
  140.7480   69.6380  227.3060 C   0  0  0  0  0  0  0  0  0  0  0  0
  140.9080   68.5100  228.6250 Cl  0  0  0  0  0  0  0  0  0  0  0  0
  141.1310   70.9750  227.4400 C   0  0  0  0  0  0  0  0  0  0  0  0
  140.9740   71.8020  226.3550 C   0  0  0  0  0  0  0  0  0  0  0  0
  140.4620   71.3900  225.1430 C   0  0  0  0  0  0  0  0  0  0  0  0
  140.3360   72.2560  224.1160 N   0  0  0  0  0  0  0  0  0  0  0  0
  141.2430   79.8296  220.5053 H   0  0  0  0  0  0  0  0  0  0  0  0
  140.4654   81.0918  219.4909 H   0  0  0  0  0  0  0  0  0  0  0  0
  142.2529   80.9148  219.4909 H   0  0  0  0  0  0  0  0  0  0  0  0
  141.8771   81.1090  223.6557 H   0  0  0  0  0  0  0  0  0  0  0  0
  140.1791   81.7381  223.4690 H   0  0  0  0  0  0  0  0  0  0  0  0
  139.6785   79.5574  223.4524 H   0  0  0  0  0  0  0  0  0  0  0  0
  140.1476   79.7419  221.6947 H   0  0  0  0  0  0  0  0  0  0  0  0
  141.5245   78.3327  223.9187 H   0  0  0  0  0  0  0  0  0  0  0  0
  143.5810   78.5200  222.7320 H   0  0  0  0  0  0  0  0  0  0  0  0
  142.8360   79.5340  221.5740 H   0  0  0  0  0  0  0  0  0  0  0  0
  139.4490   76.9080  222.7200 H   0  0  0  0  0  0  0  0  0  0  0  0
  137.8445   75.4836  221.0644 H   0  0  0  0  0  0  0  0  0  0  0  0
  138.7072   74.3365  219.9904 H   0  0  0  0  0  0  0  0  0  0  0  0
  138.4900   74.1360  222.9830 H   0  0  0  0  0  0  0  0  0  0  0  0
  139.0292   70.2100  221.7637 H   0  0  0  0  0  0  0  0  0  0  0  0
  139.2695   68.6347  223.6580 H   0  0  0  0  0  0  0  0  0  0  0  0
  139.9311   68.1755  225.9739 H   0  0  0  0  0  0  0  0  0  0  0  0
  141.5457   71.3536  228.3859 H   0  0  0  0  0  0  0  0  0  0  0  0
  141.2744   72.8551  226.4590 H   0  0  0  0  0  0  0  0  0  0  0  0
  1  2  1  0
  2  3  1  0
  3  4  1  0
  4  5  1  0
  5  6  1  0
  5  7  1  0
  7  8  2  0
  7  9  1  0
  9 10  1  0
 10 11  2  0
 10 12  1  0
 12 13  1  0
 13 14  1  0
 14 15  2  0
 14 16  1  0
 16 17  2  0
 17 18  1  0
 18 19  2  0
 19 20  1  0
 20 21  2  0
 21 22  1  0
 21 23  1  0
 23 24  2  0
 24 25  1  0
 25 26  2  0
 26 16  1  0
 25 19  1  0
  1 27  1  0
  1 28  1  0
  1 29  1  0
  3 30  1  0
  3 31  1  0
  4 32  1  0
  4 33  1  0
  5 34  1  1
  6 35  1  0
  6 36  1  0
  9 37  1  0
 12 38  1  0
 12 39  1  0
 13 40  1  0
 17 41  1  0
 18 42  1  0
 20 43  1  0
 23 44  1  0
 24 45  1  0
M  END
>  <smiles>  (12) 
CSCC[C@H](N)C(=O)NC(=O)CNC(=O)c1ccc2cc(Cl)ccc2n1

>  <score_type>  (12) 
oracle

>  <origin>  (12) 
autodockgpu

>  <m_score__min__energy>  (12) 
-7.8499999999999996

>  <m_primary>  (12) 
energy

>  <rmsd>  (12) 
3.1008565250609585

>  <m_score__min__rmsd>  (12) 
3.1008565250609585

>  <meeko>  (12) 
{"free_energy": -7.25, "intermolecular_energy": -9.63, "internal_energy": -2.05, "cluster_size": 22, "cluster_id": 1, "rank_in_cluster": 7}

>  <energy>  (12) 
-7.12

>  <cluster_rmsd>  (12) 
1.9

>  <cluster>  (12) 
1

$$$$

     RDKit          3D

 45 46  0  0  0  0  0  0  0  0999 V2000
  145.8680   67.8830  219.3620 C   0  0  0  0  0  0  0  0  0  0  0  0
  145.9760   69.6630  218.9870 S   0  0  0  0  0  0  0  0  0  0  0  0
  144.4360   70.4370  219.5080 C   0  0  0  0  0  0  0  0  0  0  0  0
  144.6370   71.8390  220.0330 C   0  0  0  0  0  0  0  0  0  0  0  0
  144.5020   72.8990  218.9860 C   0  0  2  0  0  0  0  0  0  0  0  0
  145.7920   73.5160  218.7030 N   0  0  0  0  0  0  0  0  0  0  0  0
  143.6220   73.9600  219.5370 C   0  0  0  0  0  0  0  0  0  0  0  0
  144.1580   75.1110  219.6770 O   0  0  0  0  0  0  0  0  0  0  0  0
  142.2720   73.7610  219.8980 N   0  0  0  0  0  0  0  0  0  0  0  0
  141.5030   74.8540  220.4240 C   0  0  0  0  0  0  0  0  0  0  0  0
  142.0990   75.9620  220.5340 O   0  0  0  0  0  0  0  0  0  0  0  0
  140.0750   74.6670  220.8130 C   0  0  0  0  0  0  0  0  0  0  0  0
  140.0140   73.8080  221.9570 N   0  0  0  0  0  0  0  0  0  0  0  0
  140.2430   72.4030  221.7380 C   0  0  0  0  0  0  0  0  0  0  0  0
  140.4870   71.9480  220.5930 O   0  0  0  0  0  0  0  0  0  0  0  0
  140.1780   71.5260  222.9230 C   0  0  0  0  0  0  0  0  0  0  0  0
  139.5890   70.2740  222.7590 C   0  0  0  0  0  0  0  0  0  0  0  0
  139.5330   69.4620  223.8710 C   0  0  0  0  0  0  0  0  0  0  0  0
  140.0220   69.8310  225.1050 C   0  0  0  0  0  0  0  0  0  0  0  0
  139.9790   69.0460  226.2220 C   0  0  0  0  0  0  0  0  0  0  0  0
  140.4800   69.4430  227.4520 C   0  0  0  0  0  0  0  0  0  0  0  0
  140.3870   68.3820  228.8310 Cl  0  0  0  0  0  0  0  0  0  0  0  0
  141.0570   70.7120  227.5450 C   0  0  0  0  0  0  0  0  0  0  0  0
  141.0930   71.4890  226.4140 C   0  0  0  0  0  0  0  0  0  0  0  0
  140.5940   71.0910  225.1920 C   0  0  0  0  0  0  0  0  0  0  0  0
  140.6620   71.9050  224.1190 N   0  0  0  0  0  0  0  0  0  0  0  0
  145.8592   67.7379  220.4523 H   0  0  0  0  0  0  0  0  0  0  0  0
  144.9433   67.4727  218.9300 H   0  0  0  0  0  0  0  0  0  0  0  0
  146.7363   67.3639  218.9300 H   0  0  0  0  0  0  0  0  0  0  0  0
  143.7537   70.4783  218.6462 H   0  0  0  0  0  0  0  0  0  0  0  0
  144.0203   69.8318  220.3271 H   0  0  0  0  0  0  0  0  0  0  0  0
  143.8878   72.0272  220.8161 H   0  0  0  0  0  0  0  0  0  0  0  0
  145.6670   71.8943  220.4151 H   0  0  0  0  0  0  0  0  0  0  0  0
  144.1009   72.4485  218.0661 H   0  0  0  0  0  0  0  0  0  0  0  0
  145.7100   74.1570  217.8910 H   0  0  0  0  0  0  0  0  0  0  0  0
  146.0540   74.0560  219.5640 H   0  0  0  0  0  0  0  0  0  0  0  0
  141.8520   72.8060  219.7750 H   0  0  0  0  0  0  0  0  0  0  0  0
  139.6288   75.6418  221.0591 H   0  0  0  0  0  0  0  0  0  0  0  0
  139.5177   74.2162  219.9786 H   0  0  0  0  0  0  0  0  0  0  0  0
  139.8130   74.1430  222.9360 H   0  0  0  0  0  0  0  0  0  0  0  0
  139.1877   69.9491  221.7877 H   0  0  0  0  0  0  0  0  0  0  0  0
  139.0741   68.4676  223.7680 H   0  0  0  0  0  0  0  0  0  0  0  0
  139.5236   68.0479  226.1414 H   0  0  0  0  0  0  0  0  0  0  0  0
  141.4703   71.0777  228.4966 H   0  0  0  0  0  0  0  0  0  0  0  0
  141.5469   72.4883  226.4870 H   0  0  0  0  0  0  0  0  0  0  0  0
  1  2  1  0
  2  3  1  0
  3  4  1  0
  4  5  1  0
  5  6  1  0
  5  7  1  0
  7  8  2  0
  7  9  1  0
  9 10  1  0
 10 11  2  0
 10 12  1  0
 12 13  1  0
 13 14  1  0
 14 15  2  0
 14 16  1  0
 16 17  2  0
 17 18  1  0
 18 19  2  0
 19 20  1  0
 20 21  2  0
 21 22  1  0
 21 23  1  0
 23 24  2  0
 24 25  1  0
 25 26  2  0
 26 16  1  0
 25 19  1  0
  1 27  1  0
  1 28  1  0
  1 29  1  0
  3 30  1  0
  3 31  1  0
  4 32  1  0
  4 33  1  0
  5 34  1  6
  6 35  1  0
  6 36  1  0
  9 37  1  0
 12 38  1  0
 12 39  1  0
 13 40  1  0
 17 41  1  0
 18 42  1  0
 20 43  1  0
 23 44  1  0
 24 45  1  0
M  END
>  <smiles>  (13) 
CSCC[C@H](N)C(=O)NC(=O)CNC(=O)c1ccc2cc(Cl)ccc2n1

>  <score_type>  (13) 
oracle

>  <origin>  (13) 
autodockgpu

>  <m_score__min__energy>  (13) 
-7.8499999999999996

>  <m_primary>  (13) 
energy

>  <rmsd>  (13) 
3.4131633728639295

>  <m_score__min__rmsd>  (13) 
3.4131633728639295

>  <meeko>  (13) 
{"free_energy": -6.97, "intermolecular_energy": -9.36, "internal_energy": -2.75, "cluster_size": 2, "cluster_id": 4, "rank_in_cluster": 1}

>  <energy>  (13) 
-7.11

>  <cluster_rmsd>  (13) 
1.75

>  <cluster>  (13) 
1

$$$$

     RDKit          3D

 45 46  0  0  0  0  0  0  0  0999 V2000
  142.0130   81.5180  223.8940 C   0  0  0  0  0  0  0  0  0  0  0  0
  141.4840   81.8530  222.1830 S   0  0  0  0  0  0  0  0  0  0  0  0
  140.4390   80.4880  221.6460 C   0  0  0  0  0  0  0  0  0  0  0  0
  140.2740   79.4270  222.7090 C   0  0  0  0  0  0  0  0  0  0  0  0
  141.4040   78.4490  222.7630 C   0  0  2  0  0  0  0  0  0  0  0  0
  142.6520   79.0750  222.3430 N   0  0  0  0  0  0  0  0  0  0  0  0
  141.1080   77.3700  221.7880 C   0  0  0  0  0  0  0  0  0  0  0  0
  141.8610   77.3280  220.7580 O   0  0  0  0  0  0  0  0  0  0  0  0
  140.0700   76.4260  221.9440 N   0  0  0  0  0  0  0  0  0  0  0  0
  139.8640   75.4180  220.9410 C   0  0  0  0  0  0  0  0  0  0  0  0
  140.6470   75.4380  219.9500 O   0  0  0  0  0  0  0  0  0  0  0  0
  138.7730   74.4100  221.0840 C   0  0  0  0  0  0  0  0  0  0  0  0
  139.0840   73.5410  222.1780 N   0  0  0  0  0  0  0  0  0  0  0  0
  138.8940   72.1280  221.9710 C   0  0  0  0  0  0  0  0  0  0  0  0
  138.4760   71.6760  220.8770 O   0  0  0  0  0  0  0  0  0  0  0  0
  139.2170   71.2400  223.1050 C   0  0  0  0  0  0  0  0  0  0  0  0
  138.8880   69.8940  222.9750 C   0  0  0  0  0  0  0  0  0  0  0  0
  139.1930   69.0720  224.0390 C   0  0  0  0  0  0  0  0  0  0  0  0
  139.7940   69.5210  225.1950 C   0  0  0  0  0  0  0  0  0  0  0  0
  140.1070   68.7280  226.2620 C   0  0  0  0  0  0  0  0  0  0  0  0
  140.7130   69.2060  227.4140 C   0  0  0  0  0  0  0  0  0  0  0  0
  141.0810   68.1310  228.7340 Cl  0  0  0  0  0  0  0  0  0  0  0  0
  141.0160   70.5690  227.4770 C   0  0  0  0  0  0  0  0  0  0  0  0
  140.6960   71.3520  226.3960 C   0  0  0  0  0  0  0  0  0  0  0  0
  140.0920   70.8730  225.2520 C   0  0  0  0  0  0  0  0  0  0  0  0
  139.8050   71.6980  224.2240 N   0  0  0  0  0  0  0  0  0  0  0  0
  141.2966   81.9716  224.5947 H   0  0  0  0  0  0  0  0  0  0  0  0
  142.0504   80.4313  224.0601 H   0  0  0  0  0  0  0  0  0  0  0  0
  143.0114   81.9488  224.0601 H   0  0  0  0  0  0  0  0  0  0  0  0
  139.4462   80.8852  221.3881 H   0  0  0  0  0  0  0  0  0  0  0  0
  140.9264   80.0173  220.7795 H   0  0  0  0  0  0  0  0  0  0  0  0
  140.1982   79.9244  223.6872 H   0  0  0  0  0  0  0  0  0  0  0  0
  139.3676   78.8572  222.4564 H   0  0  0  0  0  0  0  0  0  0  0  0
  141.5080   78.0752  223.7923 H   0  0  0  0  0  0  0  0  0  0  0  0
  143.4380   78.4060  222.4460 H   0  0  0  0  0  0  0  0  0  0  0  0
  142.5260   79.3330  221.3340 H   0  0  0  0  0  0  0  0  0  0  0  0
  139.4620   76.4790  222.7980 H   0  0  0  0  0  0  0  0  0  0  0  0
  137.8198   74.9230  221.2796 H   0  0  0  0  0  0  0  0  0  0  0  0
  138.6833   73.8244  220.1572 H   0  0  0  0  0  0  0  0  0  0  0  0
  139.4370   73.8740  223.1140 H   0  0  0  0  0  0  0  0  0  0  0  0
  138.4071   69.5042  222.0658 H   0  0  0  0  0  0  0  0  0  0  0  0
  138.9439   68.0034  223.9612 H   0  0  0  0  0  0  0  0  0  0  0  0
  139.8662   67.6562  226.2046 H   0  0  0  0  0  0  0  0  0  0  0  0
  141.4968   71.0015  228.3668 H   0  0  0  0  0  0  0  0  0  0  0  0
  140.9353   72.4246  226.4448 H   0  0  0  0  0  0  0  0  0  0  0  0
  1  2  1  0
  2  3  1  0
  3  4  1  0
  4  5  1  0
  5  6  1  0
  5  7  1  0
  7  8  2  0
  7  9  1  0
  9 10  1  0
 10 11  2  0
 10 12  1  0
 12 13  1  0
 13 14  1  0
 14 15  2  0
 14 16  1  0
 16 17  2  0
 17 18  1  0
 18 19  2  0
 19 20  1  0
 20 21  2  0
 21 22  1  0
 21 23  1  0
 23 24  2  0
 24 25  1  0
 25 26  2  0
 26 16  1  0
 25 19  1  0
  1 27  1  0
  1 28  1  0
  1 29  1  0
  3 30  1  0
  3 31  1  0
  4 32  1  0
  4 33  1  0
  5 34  1  1
  6 35  1  0
  6 36  1  0
  9 37  1  0
 12 38  1  0
 12 39  1  0
 13 40  1  0
 17 41  1  0
 18 42  1  0
 20 43  1  0
 23 44  1  0
 24 45  1  0
M  END
>  <smiles>  (14) 
CSCC[C@H](N)C(=O)NC(=O)CNC(=O)c1ccc2cc(Cl)ccc2n1

>  <score_type>  (14) 
oracle

>  <origin>  (14) 
autodockgpu

>  <m_score__min__energy>  (14) 
-7.8499999999999996

>  <m_primary>  (14) 
energy

>  <rmsd>  (14) 
2.8662462464457548

>  <m_score__min__rmsd>  (14) 
2.8662462464457548

>  <meeko>  (14) 
{"free_energy": -7.13, "intermolecular_energy": -9.52, "internal_energy": -2.06, "cluster_size": 22, "cluster_id": 1, "rank_in_cluster": 11}

>  <energy>  (14) 
-7.01

>  <cluster_rmsd>  (14) 
1.37

>  <cluster>  (14) 
1

$$$$

     RDKit          3D

 45 46  0  0  0  0  0  0  0  0999 V2000
  140.6000   71.2290  224.0700 C   0  0  0  0  0  0  0  0  0  0  0  0
  140.7050   71.8750  225.7710 S   0  0  0  0  0  0  0  0  0  0  0  0
  141.3230   70.5560  226.8310 C   0  0  0  0  0  0  0  0  0  0  0  0
  140.4310   70.3020  228.0230 C   0  0  0  0  0  0  0  0  0  0  0  0
  139.9860   68.8790  228.1500 C   0  0  2  0  0  0  0  0  0  0  0  0
  141.0570   68.0470  228.6840 N   0  0  0  0  0  0  0  0  0  0  0  0
  139.6870   68.3830  226.7830 C   0  0  0  0  0  0  0  0  0  0  0  0
  140.1830   67.2440  226.4840 O   0  0  0  0  0  0  0  0  0  0  0  0
  138.9100   69.0860  225.8370 N   0  0  0  0  0  0  0  0  0  0  0  0
  138.6780   68.5180  224.5390 C   0  0  0  0  0  0  0  0  0  0  0  0
  139.1990   67.3900  224.3140 O   0  0  0  0  0  0  0  0  0  0  0  0
  137.8600   69.2430  223.5230 C   0  0  0  0  0  0  0  0  0  0  0  0
  137.0500   70.2170  224.1880 N   0  0  0  0  0  0  0  0  0  0  0  0
  135.7550   69.7890  224.6530 C   0  0  0  0  0  0  0  0  0  0  0  0
  135.3530   68.6120  224.4840 O   0  0  0  0  0  0  0  0  0  0  0  0
  134.9260   70.8010  225.3390 C   0  0  0  0  0  0  0  0  0  0  0  0
  134.0290   70.3440  226.3010 C   0  0  0  0  0  0  0  0  0  0  0  0
  133.2590   71.2950  226.9350 C   0  0  0  0  0  0  0  0  0  0  0  0
  133.3410   72.6430  226.6600 C   0  0  0  0  0  0  0  0  0  0  0  0
  132.5900   73.6050  227.2750 C   0  0  0  0  0  0  0  0  0  0  0  0
  132.6940   74.9550  226.9790 C   0  0  0  0  0  0  0  0  0  0  0  0
  131.7000   76.1230  227.8070 Cl  0  0  0  0  0  0  0  0  0  0  0  0
  133.6150   75.3430  226.0030 C   0  0  0  0  0  0  0  0  0  0  0  0
  134.3620   74.3650  225.3950 C   0  0  0  0  0  0  0  0  0  0  0  0
  134.2560   73.0220  225.6920 C   0  0  0  0  0  0  0  0  0  0  0  0
  135.0220   72.1110  225.0570 N   0  0  0  0  0  0  0  0  0  0  0  0
  140.4236   70.1437  224.1002 H   0  0  0  0  0  0  0  0  0  0  0  0
  139.7700   71.7208  223.5416 H   0  0  0  0  0  0  0  0  0  0  0  0
  141.5430   71.4326  223.5416 H   0  0  0  0  0  0  0  0  0  0  0  0
  141.3916   69.6314  226.2390 H   0  0  0  0  0  0  0  0  0  0  0  0
  142.3066   70.8682  227.2118 H   0  0  0  0  0  0  0  0  0  0  0  0
  140.9830   70.5757  228.9342 H   0  0  0  0  0  0  0  0  0  0  0  0
  139.5254   70.9102  227.8817 H   0  0  0  0  0  0  0  0  0  0  0  0
  139.1150   68.8307  228.8202 H   0  0  0  0  0  0  0  0  0  0  0  0
  140.8120   67.0440  228.5840 H   0  0  0  0  0  0  0  0  0  0  0  0
  141.9120   68.2680  228.1160 H   0  0  0  0  0  0  0  0  0  0  0  0
  138.5130   70.0200  226.1050 H   0  0  0  0  0  0  0  0  0  0  0  0
  138.5244   69.7444  222.8038 H   0  0  0  0  0  0  0  0  0  0  0  0
  137.2182   68.5303  222.9843 H   0  0  0  0  0  0  0  0  0  0  0  0
  137.3430   71.2160  224.3540 H   0  0  0  0  0  0  0  0  0  0  0  0
  133.9393   69.2748  226.5434 H   0  0  0  0  0  0  0  0  0  0  0  0
  132.5422   70.9611  227.6997 H   0  0  0  0  0  0  0  0  0  0  0  0
  131.8672   73.2924  228.0430 H   0  0  0  0  0  0  0  0  0  0  0  0
  133.7380   76.4014  225.7297 H   0  0  0  0  0  0  0  0  0  0  0  0
  135.0873   74.6699  224.6263 H   0  0  0  0  0  0  0  0  0  0  0  0
  1  2  1  0
  2  3  1  0
  3  4  1  0
  4  5  1  0
  5  6  1  0
  5  7  1  0
  7  8  2  0
  7  9  1  0
  9 10  1  0
 10 11  2  0
 10 12  1  0
 12 13  1  0
 13 14  1  0
 14 15  2  0
 14 16  1  0
 16 17  2  0
 17 18  1  0
 18 19  2  0
 19 20  1  0
 20 21  2  0
 21 22  1  0
 21 23  1  0
 23 24  2  0
 24 25  1  0
 25 26  2  0
 26 16  1  0
 25 19  1  0
  1 27  1  0
  1 28  1  0
  1 29  1  0
  3 30  1  0
  3 31  1  0
  4 32  1  0
  4 33  1  0
  5 34  1  1
  6 35  1  0
  6 36  1  0
  9 37  1  0
 12 38  1  0
 12 39  1  0
 13 40  1  0
 17 41  1  0
 18 42  1  0
 20 43  1  0
 23 44  1  0
 24 45  1  0
M  END
>  <smiles>  (15) 
CSCC[C@H](N)C(=O)NC(=O)CNC(=O)c1ccc2cc(Cl)ccc2n1

>  <score_type>  (15) 
oracle

>  <origin>  (15) 
autodockgpu

>  <m_score__min__energy>  (15) 
-7.8499999999999996

>  <m_primary>  (15) 
energy

>  <rmsd>  (15) 
8.329771089224188

>  <m_score__min__rmsd>  (15) 
8.329771089224188

>  <meeko>  (15) 
{"free_energy": -6.95, "intermolecular_energy": -9.34, "internal_energy": -2.5, "cluster_size": 5, "cluster_id": 2, "rank_in_cluster": 3}

>  <energy>  (15) 
-7.01

>  <cluster_rmsd>  (15) 
1.72

>  <cluster>  (15) 
1

$$$$

     RDKit          3D

 45 46  0  0  0  0  0  0  0  0999 V2000
  141.4540   81.7510  220.4100 C   0  0  0  0  0  0  0  0  0  0  0  0
  141.1300   81.6990  222.2020 S   0  0  0  0  0  0  0  0  0  0  0  0
  140.1180   80.2480  222.5440 C   0  0  0  0  0  0  0  0  0  0  0  0
  140.6860   79.3900  223.6500 C   0  0  0  0  0  0  0  0  0  0  0  0
  141.8000   78.4960  223.2070 C   0  0  2  0  0  0  0  0  0  0  0  0
  142.9490   79.2780  222.7690 N   0  0  0  0  0  0  0  0  0  0  0  0
  141.3170   77.7320  222.0290 C   0  0  0  0  0  0  0  0  0  0  0  0
  141.8950   77.9930  220.9210 O   0  0  0  0  0  0  0  0  0  0  0  0
  140.2860   76.7680  222.0790 N   0  0  0  0  0  0  0  0  0  0  0  0
  139.8910   76.0830  220.8800 C   0  0  0  0  0  0  0  0  0  0  0  0
  140.5060   76.3920  219.8220 O   0  0  0  0  0  0  0  0  0  0  0  0
  138.8040   75.0600  220.9080 C   0  0  0  0  0  0  0  0  0  0  0  0
  139.0450   74.1560  221.9920 N   0  0  0  0  0  0  0  0  0  0  0  0
  139.3160   72.7820  221.6550 C   0  0  0  0  0  0  0  0  0  0  0  0
  139.3420   72.3920  220.4620 O   0  0  0  0  0  0  0  0  0  0  0  0
  139.5630   71.8580  222.7790 C   0  0  0  0  0  0  0  0  0  0  0  0
  139.2070   70.5240  222.5980 C   0  0  0  0  0  0  0  0  0  0  0  0
  139.4400   69.6680  223.6520 C   0  0  0  0  0  0  0  0  0  0  0  0
  139.9980   70.0710  224.8470 C   0  0  0  0  0  0  0  0  0  0  0  0
  140.2400   69.2440  225.9060 C   0  0  0  0  0  0  0  0  0  0  0  0
  140.8030   69.6770  227.0970 C   0  0  0  0  0  0  0  0  0  0  0  0
  141.0810   68.5590  228.4040 Cl  0  0  0  0  0  0  0  0  0  0  0  0
  141.1360   71.0290  227.2100 C   0  0  0  0  0  0  0  0  0  0  0  0
  140.8870   71.8470  226.1370 C   0  0  0  0  0  0  0  0  0  0  0  0
  140.3270   71.4130  224.9540 C   0  0  0  0  0  0  0  0  0  0  0  0
  140.1090   72.2710  223.9360 N   0  0  0  0  0  0  0  0  0  0  0  0
  142.5264   81.9231  220.2361 H   0  0  0  0  0  0  0  0  0  0  0  0
  141.1579   80.7938  219.9559 H   0  0  0  0  0  0  0  0  0  0  0  0
  140.8732   82.5674  219.9559 H   0  0  0  0  0  0  0  0  0  0  0  0
  139.1121   80.5817  222.8386 H   0  0  0  0  0  0  0  0  0  0  0  0
  140.0918   79.6375  221.6294 H   0  0  0  0  0  0  0  0  0  0  0  0
  141.0662   80.0518  224.4422 H   0  0  0  0  0  0  0  0  0  0  0  0
  139.8721   78.7387  224.0011 H   0  0  0  0  0  0  0  0  0  0  0  0
  142.0955   77.8459  224.0437 H   0  0  0  0  0  0  0  0  0  0  0  0
  143.7440   78.6490  222.5480 H   0  0  0  0  0  0  0  0  0  0  0  0
  142.6440   79.7900  221.9060 H   0  0  0  0  0  0  0  0  0  0  0  0
  139.8250   76.5700  223.0000 H   0  0  0  0  0  0  0  0  0  0  0  0
  137.8330   75.5569  221.0506 H   0  0  0  0  0  0  0  0  0  0  0  0
  138.7890   74.5063  219.9576 H   0  0  0  0  0  0  0  0  0  0  0  0
  139.0340   74.4360  223.0080 H   0  0  0  0  0  0  0  0  0  0  0  0
  138.7604   70.1701  221.6571 H   0  0  0  0  0  0  0  0  0  0  0  0
  139.1670   68.6089  223.5344 H   0  0  0  0  0  0  0  0  0  0  0  0
  139.9751   68.1807  225.8096 H   0  0  0  0  0  0  0  0  0  0  0  0
  141.5848   71.4262  228.1324 H   0  0  0  0  0  0  0  0  0  0  0  0
  141.1495   72.9115  226.2256 H   0  0  0  0  0  0  0  0  0  0  0  0
  1  2  1  0
  2  3  1  0
  3  4  1  0
  4  5  1  0
  5  6  1  0
  5  7  1  0
  7  8  2  0
  7  9  1  0
  9 10  1  0
 10 11  2  0
 10 12  1  0
 12 13  1  0
 13 14  1  0
 14 15  2  0
 14 16  1  0
 16 17  2  0
 17 18  1  0
 18 19  2  0
 19 20  1  0
 20 21  2  0
 21 22  1  0
 21 23  1  0
 23 24  2  0
 24 25  1  0
 25 26  2  0
 26 16  1  0
 25 19  1  0
  1 27  1  0
  1 28  1  0
  1 29  1  0
  3 30  1  0
  3 31  1  0
  4 32  1  0
  4 33  1  0
  5 34  1  1
  6 35  1  0
  6 36  1  0
  9 37  1  0
 12 38  1  0
 12 39  1  0
 13 40  1  0
 17 41  1  0
 18 42  1  0
 20 43  1  0
 23 44  1  0
 24 45  1  0
M  END
>  <smiles>  (16) 
CSCC[C@H](N)C(=O)NC(=O)CNC(=O)c1ccc2cc(Cl)ccc2n1

>  <score_type>  (16) 
oracle

>  <origin>  (16) 
autodockgpu

>  <m_score__min__energy>  (16) 
-7.8499999999999996

>  <m_primary>  (16) 
energy

>  <rmsd>  (16) 
3.2896799984419687

>  <m_score__min__rmsd>  (16) 
3.2896799984419687

>  <meeko>  (16) 
{"free_energy": -6.85, "intermolecular_energy": -9.24, "internal_energy": -2.23, "cluster_size": 22, "cluster_id": 1, "rank_in_cluster": 20}

>  <energy>  (16) 
-6.98

>  <cluster_rmsd>  (16) 
1.9

>  <cluster>  (16) 
1

$$$$

     RDKit          3D

 45 46  0  0  0  0  0  0  0  0999 V2000
  132.3250   77.8240  223.6230 C   0  0  0  0  0  0  0  0  0  0  0  0
  133.6420   77.8250  224.8830 S   0  0  0  0  0  0  0  0  0  0  0  0
  132.8950   77.4170  226.4700 C   0  0  0  0  0  0  0  0  0  0  0  0
  133.4640   76.1550  227.0740 C   0  0  0  0  0  0  0  0  0  0  0  0
  132.6930   74.9210  226.7280 C   0  0  2  0  0  0  0  0  0  0  0  0
  132.2650   74.2230  227.9350 N   0  0  0  0  0  0  0  0  0  0  0  0
  133.6110   74.0100  226.0000 C   0  0  0  0  0  0  0  0  0  0  0  0
  133.9490   72.9460  226.6200 O   0  0  0  0  0  0  0  0  0  0  0  0
  134.1090   74.2590  224.7020 N   0  0  0  0  0  0  0  0  0  0  0  0
  134.9940   73.3140  224.0820 C   0  0  0  0  0  0  0  0  0  0  0  0
  135.2840   72.2860  224.7550 O   0  0  0  0  0  0  0  0  0  0  0  0
  135.5320   73.5560  222.7110 C   0  0  0  0  0  0  0  0  0  0  0  0
  136.5360   74.5740  222.7790 N   0  0  0  0  0  0  0  0  0  0  0  0
  136.0900   75.9430  222.7410 C   0  0  0  0  0  0  0  0  0  0  0  0
  134.8710   76.2330  222.6540 O   0  0  0  0  0  0  0  0  0  0  0  0
  137.1320   76.9850  222.8120 C   0  0  0  0  0  0  0  0  0  0  0  0
  136.7120   78.2940  223.0350 C   0  0  0  0  0  0  0  0  0  0  0  0
  137.6920   79.2610  223.0990 C   0  0  0  0  0  0  0  0  0  0  0  0
  139.0350   78.9890  222.9550 C   0  0  0  0  0  0  0  0  0  0  0  0
  140.0250   79.9280  223.0150 C   0  0  0  0  0  0  0  0  0  0  0  0
  141.3700   79.6260  222.8670 C   0  0  0  0  0  0  0  0  0  0  0  0
  142.5750   80.8810  222.9560 Cl  0  0  0  0  0  0  0  0  0  0  0  0
  141.7220   78.2920  222.6460 C   0  0  0  0  0  0  0  0  0  0  0  0
  140.7150   77.3600  222.5890 C   0  0  0  0  0  0  0  0  0  0  0  0
  139.3780   77.6640  222.7360 C   0  0  0  0  0  0  0  0  0  0  0  0
  138.4380   76.6990  222.6700 N   0  0  0  0  0  0  0  0  0  0  0  0
  131.3431   77.8233  224.1189 H   0  0  0  0  0  0  0  0  0  0  0  0
  132.4178   78.7222  222.9948 H   0  0  0  0  0  0  0  0  0  0  0  0
  132.4192   76.9259  222.9948 H   0  0  0  0  0  0  0  0  0  0  0  0
  133.0701   78.2505  227.1662 H   0  0  0  0  0  0  0  0  0  0  0  0
  131.8214   77.2491  226.2989 H   0  0  0  0  0  0  0  0  0  0  0  0
  134.4958   76.0321  226.7132 H   0  0  0  0  0  0  0  0  0  0  0  0
  133.4118   76.2703  228.1667 H   0  0  0  0  0  0  0  0  0  0  0  0
  131.8118   75.2012  226.1322 H   0  0  0  0  0  0  0  0  0  0  0  0
  131.7000   73.3900  227.6820 H   0  0  0  0  0  0  0  0  0  0  0  0
  133.1420   73.9270  228.4290 H   0  0  0  0  0  0  0  0  0  0  0  0
  133.8180   75.1400  224.2110 H   0  0  0  0  0  0  0  0  0  0  0  0
  135.9733   72.6280  222.3186 H   0  0  0  0  0  0  0  0  0  0  0  0
  134.7192   73.8786  222.0437 H   0  0  0  0  0  0  0  0  0  0  0  0
  137.5700   74.3790  222.8540 H   0  0  0  0  0  0  0  0  0  0  0  0
  135.6476   78.5445  223.1545 H   0  0  0  0  0  0  0  0  0  0  0  0
  137.3863   80.3031  223.2740 H   0  0  0  0  0  0  0  0  0  0  0  0
  139.7410   80.9763  223.1895 H   0  0  0  0  0  0  0  0  0  0  0  0
  142.7744   77.9971  222.5214 H   0  0  0  0  0  0  0  0  0  0  0  0
  140.9911   76.3094  222.4160 H   0  0  0  0  0  0  0  0  0  0  0  0
  1  2  1  0
  2  3  1  0
  3  4  1  0
  4  5  1  0
  5  6  1  0
  5  7  1  0
  7  8  2  0
  7  9  1  0
  9 10  1  0
 10 11  2  0
 10 12  1  0
 12 13  1  0
 13 14  1  0
 14 15  2  0
 14 16  1  0
 16 17  2  0
 17 18  1  0
 18 19  2  0
 19 20  1  0
 20 21  2  0
 21 22  1  0
 21 23  1  0
 23 24  2  0
 24 25  1  0
 25 26  2  0
 26 16  1  0
 25 19  1  0
  1 27  1  0
  1 28  1  0
  1 29  1  0
  3 30  1  0
  3 31  1  0
  4 32  1  0
  4 33  1  0
  5 34  1  6
  6 35  1  0
  6 36  1  0
  9 37  1  0
 12 38  1  0
 12 39  1  0
 13 40  1  0
 17 41  1  0
 18 42  1  0
 20 43  1  0
 23 44  1  0
 24 45  1  0
M  END
>  <smiles>  (17) 
CSCC[C@H](N)C(=O)NC(=O)CNC(=O)c1ccc2cc(Cl)ccc2n1

>  <score_type>  (17) 
oracle

>  <origin>  (17) 
autodockgpu

>  <m_score__min__energy>  (17) 
-7.8499999999999996

>  <m_primary>  (17) 
energy

>  <rmsd>  (17) 
9.09785359602667

>  <m_score__min__rmsd>  (17) 
9.09785359602667

>  <meeko>  (17) 
{"free_energy": -5.43, "intermolecular_energy": -7.82, "internal_energy": -3.39, "cluster_size": 1, "cluster_id": 11, "rank_in_cluster": 1}

>  <energy>  (17) 
-6.93

>  <cluster_rmsd>  (17) 
1.27

>  <cluster>  (17) 
1

$$$$

     RDKit          3D

 45 46  0  0  0  0  0  0  0  0999 V2000
  146.3850   73.3880  221.6560 C   0  0  0  0  0  0  0  0  0  0  0  0
  144.9670   72.6980  220.7420 S   0  0  0  0  0  0  0  0  0  0  0  0
  143.6430   73.9190  220.7630 C   0  0  0  0  0  0  0  0  0  0  0  0
  143.1710   74.2900  219.3770 C   0  0  0  0  0  0  0  0  0  0  0  0
  142.7570   75.7210  219.2450 C   0  0  2  0  0  0  0  0  0  0  0  0
  143.7930   76.6090  219.7580 N   0  0  0  0  0  0  0  0  0  0  0  0
  141.5540   75.9170  220.0930 C   0  0  0  0  0  0  0  0  0  0  0  0
  141.5380   76.9810  220.8000 O   0  0  0  0  0  0  0  0  0  0  0  0
  140.4700   75.0150  220.1490 N   0  0  0  0  0  0  0  0  0  0  0  0
  139.3500   75.2960  221.0030 C   0  0  0  0  0  0  0  0  0  0  0  0
  139.4040   76.3650  221.6730 O   0  0  0  0  0  0  0  0  0  0  0  0
  138.1920   74.3570  221.0790 C   0  0  0  0  0  0  0  0  0  0  0  0
  138.4100   73.4370  222.1530 N   0  0  0  0  0  0  0  0  0  0  0  0
  139.4850   72.4900  222.0000 C   0  0  0  0  0  0  0  0  0  0  0  0
  140.2020   72.4720  220.9700 O   0  0  0  0  0  0  0  0  0  0  0  0
  139.7030   71.5440  223.1130 C   0  0  0  0  0  0  0  0  0  0  0  0
  139.3760   70.2100  222.8890 C   0  0  0  0  0  0  0  0  0  0  0  0
  139.5820   69.3340  223.9340 C   0  0  0  0  0  0  0  0  0  0  0  0
  140.0850   69.7200  225.1580 C   0  0  0  0  0  0  0  0  0  0  0  0
  140.2990   68.8730  226.2080 C   0  0  0  0  0  0  0  0  0  0  0  0
  140.8070   69.2880  227.4290 C   0  0  0  0  0  0  0  0  0  0  0  0
  141.0510   68.1460  228.7220 Cl  0  0  0  0  0  0  0  0  0  0  0  0
  141.1130   70.6420  227.5850 C   0  0  0  0  0  0  0  0  0  0  0  0
  140.8930   71.4800  226.5200 C   0  0  0  0  0  0  0  0  0  0  0  0
  140.3870   71.0640  225.3060 C   0  0  0  0  0  0  0  0  0  0  0  0
  140.1950   71.9410  224.3000 N   0  0  0  0  0  0  0  0  0  0  0  0
  146.2026   73.2993  222.7371 H   0  0  0  0  0  0  0  0  0  0  0  0
  147.2970   72.8330  221.3912 H   0  0  0  0  0  0  0  0  0  0  0  0
  146.5111   74.4482  221.3912 H   0  0  0  0  0  0  0  0  0  0  0  0
  142.7926   73.5065  221.3258 H   0  0  0  0  0  0  0  0  0  0  0  0
  144.0388   74.8306  221.2346 H   0  0  0  0  0  0  0  0  0  0  0  0
  143.9905   74.0990  218.6685 H   0  0  0  0  0  0  0  0  0  0  0  0
  142.2819   73.6777  219.1660 H   0  0  0  0  0  0  0  0  0  0  0  0
  142.5711   75.9472  218.1847 H   0  0  0  0  0  0  0  0  0  0  0  0
  143.6670   77.5640  219.3710 H   0  0  0  0  0  0  0  0  0  0  0  0
  143.6760   76.6250  220.8010 H   0  0  0  0  0  0  0  0  0  0  0  0
  140.5040   74.1470  219.5600 H   0  0  0  0  0  0  0  0  0  0  0  0
  137.2677   74.9248  221.2613 H   0  0  0  0  0  0  0  0  0  0  0  0
  138.0958   73.8069  220.1313 H   0  0  0  0  0  0  0  0  0  0  0  0
  137.8360   73.4130  223.0370 H   0  0  0  0  0  0  0  0  0  0  0  0
  138.9722   69.8703  221.9238 H   0  0  0  0  0  0  0  0  0  0  0  0
  139.3322   68.2734  223.7831 H   0  0  0  0  0  0  0  0  0  0  0  0
  140.0560   67.8081  226.0780 H   0  0  0  0  0  0  0  0  0  0  0  0
  141.5182   71.0254  228.5330 H   0  0  0  0  0  0  0  0  0  0  0  0
  141.1345   72.5462  226.6420 H   0  0  0  0  0  0  0  0  0  0  0  0
  1  2  1  0
  2  3  1  0
  3  4  1  0
  4  5  1  0
  5  6  1  0
  5  7  1  0
  7  8  2  0
  7  9  1  0
  9 10  1  0
 10 11  2  0
 10 12  1  0
 12 13  1  0
 13 14  1  0
 14 15  2  0
 14 16  1  0
 16 17  2  0
 17 18  1  0
 18 19  2  0
 19 20  1  0
 20 21  2  0
 21 22  1  0
 21 23  1  0
 23 24  2  0
 24 25  1  0
 25 26  2  0
 26 16  1  0
 25 19  1  0
  1 27  1  0
  1 28  1  0
  1 29  1  0
  3 30  1  0
  3 31  1  0
  4 32  1  0
  4 33  1  0
  5 34  1  6
  6 35  1  0
  6 36  1  0
  9 37  1  0
 12 38  1  0
 12 39  1  0
 13 40  1  0
 17 41  1  0
 18 42  1  0
 20 43  1  0
 23 44  1  0
 24 45  1  0
M  END
>  <smiles>  (18) 
CSCC[C@H](N)C(=O)NC(=O)CNC(=O)c1ccc2cc(Cl)ccc2n1

>  <score_type>  (18) 
oracle

>  <origin>  (18) 
autodockgpu

>  <m_score__min__energy>  (18) 
-7.8499999999999996

>  <m_primary>  (18) 
energy

>  <rmsd>  (18) 
2.055373820834843

>  <m_score__min__rmsd>  (18) 
2.055373820834843

>  <meeko>  (18) 
{"free_energy": -7.02, "intermolecular_energy": -9.4, "internal_energy": -2.67, "cluster_size": 13, "cluster_id": 3, "rank_in_cluster": 1}

>  <energy>  (18) 
-6.92

>  <cluster_rmsd>  (18) 
1.3

>  <cluster>  (18) 
1

$$$$

     RDKit          3D

 45 46  0  0  0  0  0  0  0  0999 V2000
  141.8110   79.9360  219.5160 C   0  0  0  0  0  0  0  0  0  0  0  0
  140.7650   80.9670  220.5940 S   0  0  0  0  0  0  0  0  0  0  0  0
  141.8210   81.7140  221.8480 C   0  0  0  0  0  0  0  0  0  0  0  0
  141.5410   81.1860  223.2350 C   0  0  0  0  0  0  0  0  0  0  0  0
  142.1040   79.8230  223.4860 C   0  0  2  0  0  0  0  0  0  0  0  0
  143.3290   79.6200  222.7220 N   0  0  0  0  0  0  0  0  0  0  0  0
  141.1130   78.8340  222.9940 C   0  0  0  0  0  0  0  0  0  0  0  0
  139.9070   79.0190  223.3700 O   0  0  0  0  0  0  0  0  0  0  0  0
  141.4330   77.7400  222.1610 N   0  0  0  0  0  0  0  0  0  0  0  0
  140.3990   76.8370  221.7380 C   0  0  0  0  0  0  0  0  0  0  0  0
  139.2310   77.0830  222.1490 O   0  0  0  0  0  0  0  0  0  0  0  0
  140.7140   75.6740  220.8570 C   0  0  0  0  0  0  0  0  0  0  0  0
  140.7070   74.4790  221.6450 N   0  0  0  0  0  0  0  0  0  0  0  0
  139.4800   73.7260  221.6890 C   0  0  0  0  0  0  0  0  0  0  0  0
  138.4580   74.1000  221.0610 O   0  0  0  0  0  0  0  0  0  0  0  0
  139.4820   72.4960  222.5040 C   0  0  0  0  0  0  0  0  0  0  0  0
  138.5700   71.5020  222.1610 C   0  0  0  0  0  0  0  0  0  0  0  0
  138.5780   70.3560  222.9280 C   0  0  0  0  0  0  0  0  0  0  0  0
  139.4330   70.1640  223.9920 C   0  0  0  0  0  0  0  0  0  0  0  0
  139.4620   69.0390  224.7670 C   0  0  0  0  0  0  0  0  0  0  0  0
  140.3330   68.8710  225.8320 C   0  0  0  0  0  0  0  0  0  0  0  0
  140.3090   67.4060  226.7740 Cl  0  0  0  0  0  0  0  0  0  0  0  0
  141.2220   69.9100  226.1210 C   0  0  0  0  0  0  0  0  0  0  0  0
  141.1800   71.0330  225.3330 C   0  0  0  0  0  0  0  0  0  0  0  0
  140.3120   71.1960  224.2740 C   0  0  0  0  0  0  0  0  0  0  0  0
  140.3240   72.3270  223.5380 N   0  0  0  0  0  0  0  0  0  0  0  0
  142.4586   79.2977  220.1351 H   0  0  0  0  0  0  0  0  0  0  0  0
  141.1725   79.3042  218.8810 H   0  0  0  0  0  0  0  0  0  0  0  0
  142.4335   80.5835  218.8810 H   0  0  0  0  0  0  0  0  0  0  0  0
  142.8706   81.5022  221.5960 H   0  0  0  0  0  0  0  0  0  0  0  0
  141.6148   82.7945  221.8557 H   0  0  0  0  0  0  0  0  0  0  0  0
  141.9781   81.8820  223.9661 H   0  0  0  0  0  0  0  0  0  0  0  0
  140.4484   81.1049  223.3329 H   0  0  0  0  0  0  0  0  0  0  0  0
  142.3179   79.7124  224.5593 H   0  0  0  0  0  0  0  0  0  0  0  0
  143.6830   78.6560  222.8660 H   0  0  0  0  0  0  0  0  0  0  0  0
  143.0730   79.7640  221.7140 H   0  0  0  0  0  0  0  0  0  0  0  0
  142.4310   77.6060  221.8640 H   0  0  0  0  0  0  0  0  0  0  0  0
  139.9568   75.5969  220.0628 H   0  0  0  0  0  0  0  0  0  0  0  0
  141.7043   75.8118  220.3984 H   0  0  0  0  0  0  0  0  0  0  0  0
  141.5380   74.1250  222.1890 H   0  0  0  0  0  0  0  0  0  0  0  0
  137.8751   71.6249  221.3172 H   0  0  0  0  0  0  0  0  0  0  0  0
  137.8665   69.5551  222.6782 H   0  0  0  0  0  0  0  0  0  0  0  0
  138.7588   68.2259  224.5340 H   0  0  0  0  0  0  0  0  0  0  0  0
  141.9343   69.8301  226.9554 H   0  0  0  0  0  0  0  0  0  0  0  0
  141.8798   71.8509  225.5595 H   0  0  0  0  0  0  0  0  0  0  0  0
  1  2  1  0
  2  3  1  0
  3  4  1  0
  4  5  1  0
  5  6  1  0
  5  7  1  0
  7  8  2  0
  7  9  1  0
  9 10  1  0
 10 11  2  0
 10 12  1  0
 12 13  1  0
 13 14  1  0
 14 15  2  0
 14 16  1  0
 16 17  2  0
 17 18  1  0
 18 19  2  0
 19 20  1  0
 20 21  2  0
 21 22  1  0
 21 23  1  0
 23 24  2  0
 24 25  1  0
 25 26  2  0
 26 16  1  0
 25 19  1  0
  1 27  1  0
  1 28  1  0
  1 29  1  0
  3 30  1  0
  3 31  1  0
  4 32  1  0
  4 33  1  0
  5 34  1  1
  6 35  1  0
  6 36  1  0
  9 37  1  0
 12 38  1  0
 12 39  1  0
 13 40  1  0
 17 41  1  0
 18 42  1  0
 20 43  1  0
 23 44  1  0
 24 45  1  0
M  END
>  <smiles>  (19) 
CSCC[C@H](N)C(=O)NC(=O)CNC(=O)c1ccc2cc(Cl)ccc2n1

>  <score_type>  (19) 
oracle

>  <origin>  (19) 
autodockgpu

>  <m_score__min__energy>  (19) 
-7.8499999999999996

>  <m_primary>  (19) 
energy

>  <rmsd>  (19) 
4.03590618172987

>  <m_score__min__rmsd>  (19) 
4.03590618172987

>  <meeko>  (19) 
{"free_energy": -7.3, "intermolecular_energy": -9.68, "internal_energy": -1.86, "cluster_size": 22, "cluster_id": 1, "rank_in_cluster": 5}

>  <energy>  (19) 
-6.89

>  <cluster_rmsd>  (19) 
1.77

>  <cluster>  (19) 
1

$$$$

     RDKit          3D

 45 46  0  0  0  0  0  0  0  0999 V2000
  141.8490   70.4130  225.2940 C   0  0  0  0  0  0  0  0  0  0  0  0
  141.0170   71.8860  225.9710 S   0  0  0  0  0  0  0  0  0  0  0  0
  140.5980   71.5500  227.6900 C   0  0  0  0  0  0  0  0  0  0  0  0
  141.0700   70.1900  228.1480 C   0  0  0  0  0  0  0  0  0  0  0  0
  139.9690   69.1880  228.2960 C   0  0  2  0  0  0  0  0  0  0  0  0
  140.3500   68.1330  229.2270 N   0  0  0  0  0  0  0  0  0  0  0  0
  139.7660   68.5500  226.9720 C   0  0  0  0  0  0  0  0  0  0  0  0
  140.3700   67.4390  226.7910 O   0  0  0  0  0  0  0  0  0  0  0  0
  138.9670   69.0950  225.9440 N   0  0  0  0  0  0  0  0  0  0  0  0
  138.8350   68.3980  224.6950 C   0  0  0  0  0  0  0  0  0  0  0  0
  139.4600   67.3070  224.5880 O   0  0  0  0  0  0  0  0  0  0  0  0
  137.9950   68.9550  223.5940 C   0  0  0  0  0  0  0  0  0  0  0  0
  138.7920   69.8460  222.8070 N   0  0  0  0  0  0  0  0  0  0  0  0
  139.0590   71.1510  223.3560 C   0  0  0  0  0  0  0  0  0  0  0  0
  138.6120   71.4940  224.4780 O   0  0  0  0  0  0  0  0  0  0  0  0
  139.8820   72.0620  222.5370 C   0  0  0  0  0  0  0  0  0  0  0  0
  140.9340   71.4990  221.8180 C   0  0  0  0  0  0  0  0  0  0  0  0
  141.6980   72.3570  221.0570 C   0  0  0  0  0  0  0  0  0  0  0  0
  141.4660   73.7140  220.9820 C   0  0  0  0  0  0  0  0  0  0  0  0
  142.2070   74.5850  220.2350 C   0  0  0  0  0  0  0  0  0  0  0  0
  141.9520   75.9460  220.1770 C   0  0  0  0  0  0  0  0  0  0  0  0
  142.9430   76.9930  219.2000 Cl  0  0  0  0  0  0  0  0  0  0  0  0
  140.8800   76.4440  220.9230 C   0  0  0  0  0  0  0  0  0  0  0  0
  140.1450   75.5550  221.6680 C   0  0  0  0  0  0  0  0  0  0  0  0
  140.4020   74.2010  221.7230 C   0  0  0  0  0  0  0  0  0  0  0  0
  139.6390   73.3830  222.4760 N   0  0  0  0  0  0  0  0  0  0  0  0
  142.2059   69.7811  226.1206 H   0  0  0  0  0  0  0  0  0  0  0  0
  141.1397   69.8426  224.6763 H   0  0  0  0  0  0  0  0  0  0  0  0
  142.7037   70.7261  224.6763 H   0  0  0  0  0  0  0  0  0  0  0  0
  141.0670   72.3174  228.3234 H   0  0  0  0  0  0  0  0  0  0  0  0
  139.5015   71.5682  227.7753 H   0  0  0  0  0  0  0  0  0  0  0  0
  141.7912   69.8067  227.4111 H   0  0  0  0  0  0  0  0  0  0  0  0
  141.5175   70.3244  229.1439 H   0  0  0  0  0  0  0  0  0  0  0  0
  139.0661   69.6958  228.6660 H   0  0  0  0  0  0  0  0  0  0  0  0
  139.9620   67.2240  228.9130 H   0  0  0  0  0  0  0  0  0  0  0  0
  141.3990   68.0990  229.2190 H   0  0  0  0  0  0  0  0  0  0  0  0
  138.4800   70.0090  226.1150 H   0  0  0  0  0  0  0  0  0  0  0  0
  137.6244   68.1349  222.9614 H   0  0  0  0  0  0  0  0  0  0  0  0
  137.1378   69.4984  224.0181 H   0  0  0  0  0  0  0  0  0  0  0  0
  139.1890   69.6030  221.8610 H   0  0  0  0  0  0  0  0  0  0  0  0
  141.1450   70.4201  221.8559 H   0  0  0  0  0  0  0  0  0  0  0  0
  142.5355   71.9379  220.4801 H   0  0  0  0  0  0  0  0  0  0  0  0
  143.0487   74.1860  219.6499 H   0  0  0  0  0  0  0  0  0  0  0  0
  140.6326   77.5158  220.9136 H   0  0  0  0  0  0  0  0  0  0  0  0
  139.3013   75.9458  222.2557 H   0  0  0  0  0  0  0  0  0  0  0  0
  1  2  1  0
  2  3  1  0
  3  4  1  0
  4  5  1  0
  5  6  1  0
  5  7  1  0
  7  8  2  0
  7  9  1  0
  9 10  1  0
 10 11  2  0
 10 12  1  0
 12 13  1  0
 13 14  1  0
 14 15  2  0
 14 16  1  0
 16 17  2  0
 17 18  1  0
 18 19  2  0
 19 20  1  0
 20 21  2  0
 21 22  1  0
 21 23  1  0
 23 24  2  0
 24 25  1  0
 25 26  2  0
 26 16  1  0
 25 19  1  0
  1 27  1  0
  1 28  1  0
  1 29  1  0
  3 30  1  0
  3 31  1  0
  4 32  1  0
  4 33  1  0
  5 34  1  1
  6 35  1  0
  6 36  1  0
  9 37  1  0
 12 38  1  0
 12 39  1  0
 13 40  1  0
 17 41  1  0
 18 42  1  0
 20 43  1  0
 23 44  1  0
 24 45  1  0
M  END
>  <smiles>  (20) 
CSCC[C@H](N)C(=O)NC(=O)CNC(=O)c1ccc2cc(Cl)ccc2n1

>  <score_type>  (20) 
oracle

>  <origin>  (20) 
autodockgpu

>  <m_score__min__energy>  (20) 
-7.8499999999999996

>  <m_primary>  (20) 
energy

>  <rmsd>  (20) 
8.077523564088796

>  <m_score__min__rmsd>  (20) 
8.077523564088796

>  <meeko>  (20) 
{"free_energy": -6.18, "intermolecular_energy": -8.57, "internal_energy": -3.04, "cluster_size": 1, "cluster_id": 7, "rank_in_cluster": 1}

>  <energy>  (20) 
-6.85

>  <cluster_rmsd>  (20) 
1.28

>  <cluster>  (20) 
1

$$$$

     RDKit          3D

 45 46  0  0  0  0  0  0  0  0999 V2000
  142.5940   80.1840  218.2750 C   0  0  0  0  0  0  0  0  0  0  0  0
  141.7940   79.2510  219.6200 S   0  0  0  0  0  0  0  0  0  0  0  0
  140.7680   80.3960  220.5590 C   0  0  0  0  0  0  0  0  0  0  0  0
  141.4240   80.8460  221.8440 C   0  0  0  0  0  0  0  0  0  0  0  0
  141.6310   79.7420  222.8320 C   0  0  2  0  0  0  0  0  0  0  0  0
  142.8670   79.0220  222.5530 N   0  0  0  0  0  0  0  0  0  0  0  0
  140.5160   78.7770  222.6630 C   0  0  0  0  0  0  0  0  0  0  0  0
  139.3770   79.1590  223.0970 O   0  0  0  0  0  0  0  0  0  0  0  0
  140.6530   77.5050  222.0650 N   0  0  0  0  0  0  0  0  0  0  0  0
  139.5100   76.6430  221.9480 C   0  0  0  0  0  0  0  0  0  0  0  0
  138.4180   77.0880  222.4000 O   0  0  0  0  0  0  0  0  0  0  0  0
  139.6310   75.2950  221.3200 C   0  0  0  0  0  0  0  0  0  0  0  0
  139.6870   74.3050  222.3520 N   0  0  0  0  0  0  0  0  0  0  0  0
  139.9270   72.9440  221.9470 C   0  0  0  0  0  0  0  0  0  0  0  0
  140.0820   72.6360  220.7400 O   0  0  0  0  0  0  0  0  0  0  0  0
  139.9820   71.9300  223.0190 C   0  0  0  0  0  0  0  0  0  0  0  0
  139.5200   70.6530  222.7130 C   0  0  0  0  0  0  0  0  0  0  0  0
  139.5750   69.7130  223.7190 C   0  0  0  0  0  0  0  0  0  0  0  0
  140.0570   69.9820  224.9820 C   0  0  0  0  0  0  0  0  0  0  0  0
  140.1230   69.0690  225.9960 C   0  0  0  0  0  0  0  0  0  0  0  0
  140.6140   69.3680  227.2580 C   0  0  0  0  0  0  0  0  0  0  0  0
  140.6650   68.1470  228.5000 Cl  0  0  0  0  0  0  0  0  0  0  0  0
  141.0620   70.6700  227.4960 C   0  0  0  0  0  0  0  0  0  0  0  0
  140.9890   71.5750  226.4660 C   0  0  0  0  0  0  0  0  0  0  0  0
  140.5000   71.2750  225.2120 C   0  0  0  0  0  0  0  0  0  0  0  0
  140.4570   72.2130  224.2440 N   0  0  0  0  0  0  0  0  0  0  0  0
  143.2533   80.9530  218.7039 H   0  0  0  0  0  0  0  0  0  0  0  0
  143.1876   79.4965  217.6545 H   0  0  0  0  0  0  0  0  0  0  0  0
  141.8240   80.6658  217.6545 H   0  0  0  0  0  0  0  0  0  0  0  0
  140.5681   81.2810  219.9370 H   0  0  0  0  0  0  0  0  0  0  0  0
  139.8401   79.8691  220.8259 H   0  0  0  0  0  0  0  0  0  0  0  0
  142.4040   81.2816  221.5996 H   0  0  0  0  0  0  0  0  0  0  0  0
  140.7462   81.5744  222.3131 H   0  0  0  0  0  0  0  0  0  0  0  0
  141.6745   80.1681  223.8452 H   0  0  0  0  0  0  0  0  0  0  0  0
  142.6530   78.0760  222.1860 H   0  0  0  0  0  0  0  0  0  0  0  0
  143.3760   79.5830  221.8280 H   0  0  0  0  0  0  0  0  0  0  0  0
  141.5980   77.2120  221.7150 H   0  0  0  0  0  0  0  0  0  0  0  0
  138.7588   75.1081  220.6763 H   0  0  0  0  0  0  0  0  0  0  0  0
  140.5454   75.2492  220.7102 H   0  0  0  0  0  0  0  0  0  0  0  0
  139.5630   74.5140  223.3780 H   0  0  0  0  0  0  0  0  0  0  0  0
  139.1293   70.4059  221.7148 H   0  0  0  0  0  0  0  0  0  0  0  0
  139.2159   68.6959  223.5031 H   0  0  0  0  0  0  0  0  0  0  0  0
  139.7691   68.0458  225.8018 H   0  0  0  0  0  0  0  0  0  0  0  0
  141.4611   70.9611  228.4788 H   0  0  0  0  0  0  0  0  0  0  0  0
  141.3415   72.6002  226.6522 H   0  0  0  0  0  0  0  0  0  0  0  0
  1  2  1  0
  2  3  1  0
  3  4  1  0
  4  5  1  0
  5  6  1  0
  5  7  1  0
  7  8  2  0
  7  9  1  0
  9 10  1  0
 10 11  2  0
 10 12  1  0
 12 13  1  0
 13 14  1  0
 14 15  2  0
 14 16  1  0
 16 17  2  0
 17 18  1  0
 18 19  2  0
 19 20  1  0
 20 21  2  0
 21 22  1  0
 21 23  1  0
 23 24  2  0
 24 25  1  0
 25 26  2  0
 26 16  1  0
 25 19  1  0
  1 27  1  0
  1 28  1  0
  1 29  1  0
  3 30  1  0
  3 31  1  0
  4 32  1  0
  4 33  1  0
  5 34  1  1
  6 35  1  0
  6 36  1  0
  9 37  1  0
 12 38  1  0
 12 39  1  0
 13 40  1  0
 17 41  1  0
 18 42  1  0
 20 43  1  0
 23 44  1  0
 24 45  1  0
M  END
>  <smiles>  (21) 
CSCC[C@H](N)C(=O)NC(=O)CNC(=O)c1ccc2cc(Cl)ccc2n1

>  <score_type>  (21) 
oracle

>  <origin>  (21) 
autodockgpu

>  <m_score__min__energy>  (21) 
-7.8499999999999996

>  <m_primary>  (21) 
energy

>  <rmsd>  (21) 
3.293330495359871

>  <m_score__min__rmsd>  (21) 
3.293330495359871

>  <meeko>  (21) 
{"free_energy": -7.63, "intermolecular_energy": -10.02, "internal_energy": -1.9, "cluster_size": 22, "cluster_id": 1, "rank_in_cluster": 2}

>  <energy>  (21) 
-6.12

>  <cluster_rmsd>  (21) 
1.88

>  <cluster>  (21) 
1

$$$$

     RDKit          3D

 45 46  0  0  0  0  0  0  0  0999 V2000
  141.8210   78.9210  219.1830 C   0  0  0  0  0  0  0  0  0  0  0  0
  141.8340   80.6350  219.8020 S   0  0  0  0  0  0  0  0  0  0  0  0
  140.5350   80.7910  221.0400 C   0  0  0  0  0  0  0  0  0  0  0  0
  141.0800   80.9210  222.4430 C   0  0  0  0  0  0  0  0  0  0  0  0
  141.5650   79.6300  223.0230 C   0  0  2  0  0  0  0  0  0  0  0  0
  142.9000   79.3100  222.5320 N   0  0  0  0  0  0  0  0  0  0  0  0
  140.6560   78.5580  222.5450 C   0  0  0  0  0  0  0  0  0  0  0  0
  139.4060   78.7840  222.6840 O   0  0  0  0  0  0  0  0  0  0  0  0
  141.0950   77.3470  221.9660 N   0  0  0  0  0  0  0  0  0  0  0  0
  140.1340   76.3710  221.5350 C   0  0  0  0  0  0  0  0  0  0  0  0
  138.9170   76.6630  221.7040 O   0  0  0  0  0  0  0  0  0  0  0  0
  140.5740   75.0840  220.9200 C   0  0  0  0  0  0  0  0  0  0  0  0
  140.6590   74.0870  221.9430 N   0  0  0  0  0  0  0  0  0  0  0  0
  139.7100   73.0040  221.8870 C   0  0  0  0  0  0  0  0  0  0  0  0
  138.8450   72.9360  220.9800 O   0  0  0  0  0  0  0  0  0  0  0  0
  139.8060   71.9800  222.9460 C   0  0  0  0  0  0  0  0  0  0  0  0
  139.3230   70.7080  222.6480 C   0  0  0  0  0  0  0  0  0  0  0  0
  139.4160   69.7580  223.6420 C   0  0  0  0  0  0  0  0  0  0  0  0
  139.9530   70.0130  224.8860 C   0  0  0  0  0  0  0  0  0  0  0  0
  140.0570   69.0900  225.8880 C   0  0  0  0  0  0  0  0  0  0  0  0
  140.6030   69.3730  227.1300 C   0  0  0  0  0  0  0  0  0  0  0  0
  140.7010   68.1410  228.3570 Cl  0  0  0  0  0  0  0  0  0  0  0  0
  141.0690   70.6700  227.3600 C   0  0  0  0  0  0  0  0  0  0  0  0
  140.9570   71.5860  226.3440 C   0  0  0  0  0  0  0  0  0  0  0  0
  140.4130   71.3010  225.1090 C   0  0  0  0  0  0  0  0  0  0  0  0
  140.3340   72.2480  224.1520 N   0  0  0  0  0  0  0  0  0  0  0  0
  141.8157   78.2239  220.0339 H   0  0  0  0  0  0  0  0  0  0  0  0
  140.9216   78.7591  218.5707 H   0  0  0  0  0  0  0  0  0  0  0  0
  142.7178   78.7455  218.5707 H   0  0  0  0  0  0  0  0  0  0  0  0
  139.9359   81.6846  220.8109 H   0  0  0  0  0  0  0  0  0  0  0  0
  139.9283   79.8742  221.0026 H   0  0  0  0  0  0  0  0  0  0  0  0
  141.9203   81.6306  222.4245 H   0  0  0  0  0  0  0  0  0  0  0  0
  140.2515   81.2671  223.0784 H   0  0  0  0  0  0  0  0  0  0  0  0
  141.5868   79.7124  224.1197 H   0  0  0  0  0  0  0  0  0  0  0  0
  143.0210   78.2820  222.4740 H   0  0  0  0  0  0  0  0  0  0  0  0
  142.9710   79.7370  221.5760 H   0  0  0  0  0  0  0  0  0  0  0  0
  142.1260   77.1820  221.8620 H   0  0  0  0  0  0  0  0  0  0  0  0
  139.8450   74.7704  220.1583 H   0  0  0  0  0  0  0  0  0  0  0  0
  141.5572   75.2150  220.4444 H   0  0  0  0  0  0  0  0  0  0  0  0
  141.3670   74.1000  222.7240 H   0  0  0  0  0  0  0  0  0  0  0  0
  138.8878   70.4728  221.6655 H   0  0  0  0  0  0  0  0  0  0  0  0
  139.0428   68.7447  223.4322 H   0  0  0  0  0  0  0  0  0  0  0  0
  139.6888   68.0708  225.6994 H   0  0  0  0  0  0  0  0  0  0  0  0
  141.5127   70.9488  228.3271 H   0  0  0  0  0  0  0  0  0  0  0  0
  141.3226   72.6075  226.5253 H   0  0  0  0  0  0  0  0  0  0  0  0
  1  2  1  0
  2  3  1  0
  3  4  1  0
  4  5  1  0
  5  6  1  0
  5  7  1  0
  7  8  2  0
  7  9  1  0
  9 10  1  0
 10 11  2  0
 10 12  1  0
 12 13  1  0
 13 14  1  0
 14 15  2  0
 14 16  1  0
 16 17  2  0
 17 18  1  0
 18 19  2  0
 19 20  1  0
 20 21  2  0
 21 22  1  0
 21 23  1  0
 23 24  2  0
 24 25  1  0
 25 26  2  0
 26 16  1  0
 25 19  1  0
  1 27  1  0
  1 28  1  0
  1 29  1  0
  3 30  1  0
  3 31  1  0
  4 32  1  0
  4 33  1  0
  5 34  1  1
  6 35  1  0
  6 36  1  0
  9 37  1  0
 12 38  1  0
 12 39  1  0
 13 40  1  0
 17 41  1  0
 18 42  1  0
 20 43  1  0
 23 44  1  0
 24 45  1  0
M  END
>  <smiles>  (22) 
CSCC[C@H](N)C(=O)NC(=O)CNC(=O)c1ccc2cc(Cl)ccc2n1

>  <score_type>  (22) 
oracle

>  <origin>  (22) 
autodockgpu

>  <m_score__min__energy>  (22) 
-7.8499999999999996

>  <m_primary>  (22) 
energy

>  <rmsd>  (22) 
3.481030094587577

>  <m_score__min__rmsd>  (22) 
3.481030094587577

>  <meeko>  (22) 
{"free_energy": -7.37, "intermolecular_energy": -9.75, "internal_energy": -1.86, "cluster_size": 22, "cluster_id": 1, "rank_in_cluster": 4}

>  <energy>  (22) 
-6.04

>  <cluster_rmsd>  (22) 
1.94

>  <cluster>  (22) 
1

$$$$

     RDKit          3D

 45 46  0  0  0  0  0  0  0  0999 V2000
  136.5260   80.3250  223.8020 C   0  0  0  0  0  0  0  0  0  0  0  0
  138.2680   80.7150  224.1670 S   0  0  0  0  0  0  0  0  0  0  0  0
  139.2890   79.3990  223.4820 C   0  0  0  0  0  0  0  0  0  0  0  0
  140.6540   79.8840  223.0530 C   0  0  0  0  0  0  0  0  0  0  0  0
  141.6930   78.8080  223.0190 C   0  0  2  0  0  0  0  0  0  0  0  0
  143.0050   79.3640  222.7150 N   0  0  0  0  0  0  0  0  0  0  0  0
  141.3420   77.8860  221.9090 C   0  0  0  0  0  0  0  0  0  0  0  0
  142.0420   78.0000  220.8470 O   0  0  0  0  0  0  0  0  0  0  0  0
  140.3090   76.9250  221.9750 N   0  0  0  0  0  0  0  0  0  0  0  0
  140.0480   76.0790  220.8440 C   0  0  0  0  0  0  0  0  0  0  0  0
  140.7790   76.2490  219.8290 O   0  0  0  0  0  0  0  0  0  0  0  0
  138.9610   75.0560  220.8900 C   0  0  0  0  0  0  0  0  0  0  0  0
  139.2130   74.1600  221.9770 N   0  0  0  0  0  0  0  0  0  0  0  0
  139.2690   72.7530  221.6700 C   0  0  0  0  0  0  0  0  0  0  0  0
  139.1060   72.3300  220.4990 O   0  0  0  0  0  0  0  0  0  0  0  0
  139.5290   71.8360  222.7970 C   0  0  0  0  0  0  0  0  0  0  0  0
  139.2100   70.4930  222.6130 C   0  0  0  0  0  0  0  0  0  0  0  0
  139.4560   69.6440  223.6710 C   0  0  0  0  0  0  0  0  0  0  0  0
  139.9900   70.0630  224.8700 C   0  0  0  0  0  0  0  0  0  0  0  0
  140.2440   69.2420  225.9320 C   0  0  0  0  0  0  0  0  0  0  0  0
  140.7830   69.6900  227.1280 C   0  0  0  0  0  0  0  0  0  0  0  0
  141.0780   68.5800  228.4390 Cl  0  0  0  0  0  0  0  0  0  0  0  0
  141.0800   71.0500  227.2440 C   0  0  0  0  0  0  0  0  0  0  0  0
  140.8200   71.8610  226.1680 C   0  0  0  0  0  0  0  0  0  0  0  0
  140.2830   71.4120  224.9790 C   0  0  0  0  0  0  0  0  0  0  0  0
  140.0520   72.2640  223.9590 N   0  0  0  0  0  0  0  0  0  0  0  0
  135.9727   80.2011  224.7446 H   0  0  0  0  0  0  0  0  0  0  0  0
  136.0806   81.1457  223.2205 H   0  0  0  0  0  0  0  0  0  0  0  0
  136.4730   79.3928  223.2205 H   0  0  0  0  0  0  0  0  0  0  0  0
  139.4170   78.6186  224.2466 H   0  0  0  0  0  0  0  0  0  0  0  0
  138.7775   79.0125  222.5882 H   0  0  0  0  0  0  0  0  0  0  0  0
  140.5679   80.3152  222.0447 H   0  0  0  0  0  0  0  0  0  0  0  0
  140.9813   80.6225  223.7997 H   0  0  0  0  0  0  0  0  0  0  0  0
  141.7248   78.3052  223.9968 H   0  0  0  0  0  0  0  0  0  0  0  0
  143.7230   78.6160  222.7390 H   0  0  0  0  0  0  0  0  0  0  0  0
  142.9370   79.7670  221.7480 H   0  0  0  0  0  0  0  0  0  0  0  0
  139.7460   76.8490  222.8570 H   0  0  0  0  0  0  0  0  0  0  0  0
  137.9915   75.5539  221.0391 H   0  0  0  0  0  0  0  0  0  0  0  0
  138.9362   74.4959  219.9436 H   0  0  0  0  0  0  0  0  0  0  0  0
  139.3570   74.4670  222.9750 H   0  0  0  0  0  0  0  0  0  0  0  0
  138.7820   70.1269  221.6682 H   0  0  0  0  0  0  0  0  0  0  0  0
  139.2136   68.5777  223.5518 H   0  0  0  0  0  0  0  0  0  0  0  0
  140.0091   68.1719  225.8331 H   0  0  0  0  0  0  0  0  0  0  0  0
  141.5096   71.4588  228.1705 H   0  0  0  0  0  0  0  0  0  0  0  0
  141.0535   72.9321  226.2587 H   0  0  0  0  0  0  0  0  0  0  0  0
  1  2  1  0
  2  3  1  0
  3  4  1  0
  4  5  1  0
  5  6  1  0
  5  7  1  0
  7  8  2  0
  7  9  1  0
  9 10  1  0
 10 11  2  0
 10 12  1  0
 12 13  1  0
 13 14  1  0
 14 15  2  0
 14 16  1  0
 16 17  2  0
 17 18  1  0
 18 19  2  0
 19 20  1  0
 20 21  2  0
 21 22  1  0
 21 23  1  0
 23 24  2  0
 24 25  1  0
 25 26  2  0
 26 16  1  0
 25 19  1  0
  1 27  1  0
  1 28  1  0
  1 29  1  0
  3 30  1  0
  3 31  1  0
  4 32  1  0
  4 33  1  0
  5 34  1  1
  6 35  1  0
  6 36  1  0
  9 37  1  0
 12 38  1  0
 12 39  1  0
 13 40  1  0
 17 41  1  0
 18 42  1  0
 20 43  1  0
 23 44  1  0
 24 45  1  0
M  END
>  <smiles>  (23) 
CSCC[C@H](N)C(=O)NC(=O)CNC(=O)c1ccc2cc(Cl)ccc2n1

>  <score_type>  (23) 
oracle

>  <origin>  (23) 
autodockgpu

>  <m_score__min__energy>  (23) 
-7.8499999999999996

>  <m_primary>  (23) 
energy

>  <rmsd>  (23) 
3.1600342494812352

>  <m_score__min__rmsd>  (23) 
3.1600342494812352

>  <meeko>  (23) 
{"free_energy": -7.01, "intermolecular_energy": -9.39, "internal_energy": -1.98, "cluster_size": 22, "cluster_id": 1, "rank_in_cluster": 15}

>  <energy>  (23) 
-7.21

>  <cluster_rmsd>  (23) 
0.0

>  <cluster>  (23) 
2

$$$$

     RDKit          3D

 45 46  0  0  0  0  0  0  0  0999 V2000
  140.7720   71.4290  225.1740 C   0  0  0  0  0  0  0  0  0  0  0  0
  141.1930   72.0030  226.8520 S   0  0  0  0  0  0  0  0  0  0  0  0
  141.0540   70.6000  227.9720 C   0  0  0  0  0  0  0  0  0  0  0  0
  139.6820   69.9680  227.9450 C   0  0  0  0  0  0  0  0  0  0  0  0
  139.7070   68.4830  227.7610 C   0  0  2  0  0  0  0  0  0  0  0  0
  141.0440   67.9540  227.9990 N   0  0  0  0  0  0  0  0  0  0  0  0
  139.3730   68.2050  226.3410 C   0  0  0  0  0  0  0  0  0  0  0  0
  139.5930   67.0120  225.9410 O   0  0  0  0  0  0  0  0  0  0  0  0
  138.8450   69.1640  225.4500 N   0  0  0  0  0  0  0  0  0  0  0  0
  138.5550   68.7950  224.0920 C   0  0  0  0  0  0  0  0  0  0  0  0
  138.7980   67.5990  223.7680 O   0  0  0  0  0  0  0  0  0  0  0  0
  137.9960   69.7910  223.1320 C   0  0  0  0  0  0  0  0  0  0  0  0
  137.1310   70.6840  223.8410 N   0  0  0  0  0  0  0  0  0  0  0  0
  135.9350   70.1250  224.4150 C   0  0  0  0  0  0  0  0  0  0  0  0
  135.6610   68.9040  224.3020 O   0  0  0  0  0  0  0  0  0  0  0  0
  135.0490   71.0540  225.1440 C   0  0  0  0  0  0  0  0  0  0  0  0
  134.0890   70.4940  225.9830 C   0  0  0  0  0  0  0  0  0  0  0  0
  133.2660   71.3680  226.6590 C   0  0  0  0  0  0  0  0  0  0  0  0
  133.3550   72.7380  226.5400 C   0  0  0  0  0  0  0  0  0  0  0  0
  132.5520   73.6260  227.1980 C   0  0  0  0  0  0  0  0  0  0  0  0
  132.6640   75.0010  227.0600 C   0  0  0  0  0  0  0  0  0  0  0  0
  131.6020   76.0690  227.9350 Cl  0  0  0  0  0  0  0  0  0  0  0  0
  133.6500   75.4950  226.2020 C   0  0  0  0  0  0  0  0  0  0  0  0
  134.4480   74.5900  225.5480 C   0  0  0  0  0  0  0  0  0  0  0  0
  134.3340   73.2220  225.6870 C   0  0  0  0  0  0  0  0  0  0  0  0
  135.1520   72.3880  225.0150 N   0  0  0  0  0  0  0  0  0  0  0  0
  140.1227   70.5437  225.2415 H   0  0  0  0  0  0  0  0  0  0  0  0
  140.2454   72.2296  224.6339 H   0  0  0  0  0  0  0  0  0  0  0  0
  141.6939   71.1673  224.6339 H   0  0  0  0  0  0  0  0  0  0  0  0
  141.7966   69.8423  227.6812 H   0  0  0  0  0  0  0  0  0  0  0  0
  141.2300   70.9702  228.9928 H   0  0  0  0  0  0  0  0  0  0  0  0
  139.1780   70.1915  228.8968 H   0  0  0  0  0  0  0  0  0  0  0  0
  139.1507   70.3902  227.0793 H   0  0  0  0  0  0  0  0  0  0  0  0
  138.9986   68.0195  228.4634 H   0  0  0  0  0  0  0  0  0  0  0  0
  141.0090   67.2120  228.7220 H   0  0  0  0  0  0  0  0  0  0  0  0
  141.3680   67.5520  227.0850 H   0  0  0  0  0  0  0  0  0  0  0  0
  138.6730   70.1380  225.8000 H   0  0  0  0  0  0  0  0  0  0  0  0
  138.8166   70.3603  222.6710 H   0  0  0  0  0  0  0  0  0  0  0  0
  137.4307   69.2721  222.3439 H   0  0  0  0  0  0  0  0  0  0  0  0
  137.3180   71.7140  223.9630 H   0  0  0  0  0  0  0  0  0  0  0  0
  133.9923   69.4046  226.1006 H   0  0  0  0  0  0  0  0  0  0  0  0
  132.4987   70.9509  227.3278 H   0  0  0  0  0  0  0  0  0  0  0  0
  131.7775   73.2301  227.8713 H   0  0  0  0  0  0  0  0  0  0  0  0
  133.7827   76.5770  226.0551 H   0  0  0  0  0  0  0  0  0  0  0  0
  135.2247   74.9784  224.8728 H   0  0  0  0  0  0  0  0  0  0  0  0
  1  2  1  0
  2  3  1  0
  3  4  1  0
  4  5  1  0
  5  6  1  0
  5  7  1  0
  7  8  2  0
  7  9  1  0
  9 10  1  0
 10 11  2  0
 10 12  1  0
 12 13  1  0
 13 14  1  0
 14 15  2  0
 14 16  1  0
 16 17  2  0
 17 18  1  0
 18 19  2  0
 19 20  1  0
 20 21  2  0
 21 22  1  0
 21 23  1  0
 23 24  2  0
 24 25  1  0
 25 26  2  0
 26 16  1  0
 25 19  1  0
  1 27  1  0
  1 28  1  0
  1 29  1  0
  3 30  1  0
  3 31  1  0
  4 32  1  0
  4 33  1  0
  5 34  1  1
  6 35  1  0
  6 36  1  0
  9 37  1  0
 12 38  1  0
 12 39  1  0
 13 40  1  0
 17 41  1  0
 18 42  1  0
 20 43  1  0
 23 44  1  0
 24 45  1  0
M  END
>  <smiles>  (24) 
CSCC[C@H](N)C(=O)NC(=O)CNC(=O)c1ccc2cc(Cl)ccc2n1

>  <score_type>  (24) 
oracle

>  <origin>  (24) 
autodockgpu

>  <m_score__min__energy>  (24) 
-7.8499999999999996

>  <m_primary>  (24) 
energy

>  <rmsd>  (24) 
8.281108147797614

>  <m_score__min__rmsd>  (24) 
8.281108147797614

>  <meeko>  (24) 
{"free_energy": -7.21, "intermolecular_energy": -9.6, "internal_energy": -2.29, "cluster_size": 5, "cluster_id": 2, "rank_in_cluster": 1}

>  <energy>  (24) 
-7.19

>  <cluster_rmsd>  (24) 
1.06

>  <cluster>  (24) 
2

$$$$

     RDKit          3D

 45 46  0  0  0  0  0  0  0  0999 V2000
  142.3010   73.1180  217.6330 C   0  0  0  0  0  0  0  0  0  0  0  0
  142.9840   71.7610  218.6380 S   0  0  0  0  0  0  0  0  0  0  0  0
  144.7760   71.9470  218.6810 C   0  0  0  0  0  0  0  0  0  0  0  0
  145.2070   73.3430  219.0610 C   0  0  0  0  0  0  0  0  0  0  0  0
  144.8550   73.7210  220.4650 C   0  0  2  0  0  0  0  0  0  0  0  0
  144.4080   72.5560  221.2180 N   0  0  0  0  0  0  0  0  0  0  0  0
  143.7110   74.6650  220.3990 C   0  0  0  0  0  0  0  0  0  0  0  0
  143.9980   75.8670  220.0780 O   0  0  0  0  0  0  0  0  0  0  0  0
  142.3720   74.3050  220.6650 N   0  0  0  0  0  0  0  0  0  0  0  0
  141.3340   75.2940  220.5740 C   0  0  0  0  0  0  0  0  0  0  0  0
  141.6930   76.4610  220.2520 O   0  0  0  0  0  0  0  0  0  0  0  0
  139.9120   74.9370  220.8510 C   0  0  0  0  0  0  0  0  0  0  0  0
  139.8650   74.0500  221.9720 N   0  0  0  0  0  0  0  0  0  0  0  0
  140.1680   72.6630  221.7270 C   0  0  0  0  0  0  0  0  0  0  0  0
  140.4610   72.2480  220.5790 O   0  0  0  0  0  0  0  0  0  0  0  0
  140.1170   71.7550  222.8900 C   0  0  0  0  0  0  0  0  0  0  0  0
  139.5540   70.4970  222.6930 C   0  0  0  0  0  0  0  0  0  0  0  0
  139.5100   69.6560  223.7840 C   0  0  0  0  0  0  0  0  0  0  0  0
  139.9900   70.0040  225.0290 C   0  0  0  0  0  0  0  0  0  0  0  0
  139.9590   69.1900  226.1250 C   0  0  0  0  0  0  0  0  0  0  0  0
  140.4490   69.5660  227.3660 C   0  0  0  0  0  0  0  0  0  0  0  0
  140.3740   68.4700  228.7180 Cl  0  0  0  0  0  0  0  0  0  0  0  0
  141.0010   70.8430  227.4930 C   0  0  0  0  0  0  0  0  0  0  0  0
  141.0250   71.6490  226.3820 C   0  0  0  0  0  0  0  0  0  0  0  0
  140.5360   71.2720  225.1490 C   0  0  0  0  0  0  0  0  0  0  0  0
  140.5910   72.1130  224.0960 N   0  0  0  0  0  0  0  0  0  0  0  0
  141.9063   73.9023  218.2956 H   0  0  0  0  0  0  0  0  0  0  0  0
  143.0944   73.5394  216.9982 H   0  0  0  0  0  0  0  0  0  0  0  0
  141.4899   72.7318  216.9982 H   0  0  0  0  0  0  0  0  0  0  0  0
  145.1859   71.2394  219.4168 H   0  0  0  0  0  0  0  0  0  0  0  0
  145.1557   71.7457  217.6684 H   0  0  0  0  0  0  0  0  0  0  0  0
  146.2988   73.4125  218.9462 H   0  0  0  0  0  0  0  0  0  0  0  0
  144.6696   74.0366  218.3975 H   0  0  0  0  0  0  0  0  0  0  0  0
  145.7382   74.1576  220.9541 H   0  0  0  0  0  0  0  0  0  0  0  0
  143.5790   72.1330  220.7590 H   0  0  0  0  0  0  0  0  0  0  0  0
  145.2080   71.8780  221.2130 H   0  0  0  0  0  0  0  0  0  0  0  0
  142.1590   73.3110  220.9270 H   0  0  0  0  0  0  0  0  0  0  0  0
  139.3402   75.8489  221.0779 H   0  0  0  0  0  0  0  0  0  0  0  0
  139.4734   74.4461  219.9697 H   0  0  0  0  0  0  0  0  0  0  0  0
  139.6250   74.3510  222.9540 H   0  0  0  0  0  0  0  0  0  0  0  0
  139.1626   70.1887  221.7123 H   0  0  0  0  0  0  0  0  0  0  0  0
  139.0696   68.6563  223.6551 H   0  0  0  0  0  0  0  0  0  0  0  0
  139.5234   68.1857  226.0177 H   0  0  0  0  0  0  0  0  0  0  0  0
  141.4045   71.1924  228.4548 H   0  0  0  0  0  0  0  0  0  0  0  0
  141.4598   72.6545  226.4812 H   0  0  0  0  0  0  0  0  0  0  0  0
  1  2  1  0
  2  3  1  0
  3  4  1  0
  4  5  1  0
  5  6  1  0
  5  7  1  0
  7  8  2  0
  7  9  1  0
  9 10  1  0
 10 11  2  0
 10 12  1  0
 12 13  1  0
 13 14  1  0
 14 15  2  0
 14 16  1  0
 16 17  2  0
 17 18  1  0
 18 19  2  0
 19 20  1  0
 20 21  2  0
 21 22  1  0
 21 23  1  0
 23 24  2  0
 24 25  1  0
 25 26  2  0
 26 16  1  0
 25 19  1  0
  1 27  1  0
  1 28  1  0
  1 29  1  0
  3 30  1  0
  3 31  1  0
  4 32  1  0
  4 33  1  0
  5 34  1  1
  6 35  1  0
  6 36  1  0
  9 37  1  0
 12 38  1  0
 12 39  1  0
 13 40  1  0
 17 41  1  0
 18 42  1  0
 20 43  1  0
 23 44  1  0
 24 45  1  0
M  END
>  <smiles>  (25) 
CSCC[C@H](N)C(=O)NC(=O)CNC(=O)c1ccc2cc(Cl)ccc2n1

>  <score_type>  (25) 
oracle

>  <origin>  (25) 
autodockgpu

>  <m_score__min__energy>  (25) 
-7.8499999999999996

>  <m_primary>  (25) 
energy

>  <rmsd>  (25) 
3.3463445369068805

>  <m_score__min__rmsd>  (25) 
3.3463445369068805

>  <meeko>  (25) 
{"free_energy": -5.95, "intermolecular_energy": -8.34, "internal_energy": -2.85, "cluster_size": 13, "cluster_id": 3, "rank_in_cluster": 12}

>  <energy>  (25) 
-6.95

>  <cluster_rmsd>  (25) 
0.63

>  <cluster>  (25) 
2

$$$$

     RDKit          3D

 45 46  0  0  0  0  0  0  0  0999 V2000
  145.5540   70.7740  218.9940 C   0  0  0  0  0  0  0  0  0  0  0  0
  145.6130   72.4380  219.7330 S   0  0  0  0  0  0  0  0  0  0  0  0
  143.9610   73.1490  219.6370 C   0  0  0  0  0  0  0  0  0  0  0  0
  143.8290   74.4240  220.4380 C   0  0  0  0  0  0  0  0  0  0  0  0
  143.2020   75.5500  219.6780 C   0  0  2  0  0  0  0  0  0  0  0  0
  144.0170   76.7540  219.7700 N   0  0  0  0  0  0  0  0  0  0  0  0
  141.9000   75.8530  220.3240 C   0  0  0  0  0  0  0  0  0  0  0  0
  141.8040   77.0030  220.8700 O   0  0  0  0  0  0  0  0  0  0  0  0
  140.8060   74.9610  220.3590 N   0  0  0  0  0  0  0  0  0  0  0  0
  139.5870   75.3500  221.0110 C   0  0  0  0  0  0  0  0  0  0  0  0
  139.5660   76.5010  221.5290 O   0  0  0  0  0  0  0  0  0  0  0  0
  138.4180   74.4230  221.0610 C   0  0  0  0  0  0  0  0  0  0  0  0
  138.5960   73.5100  222.1480 N   0  0  0  0  0  0  0  0  0  0  0  0
  139.5520   72.4480  221.9660 C   0  0  0  0  0  0  0  0  0  0  0  0
  140.2050   72.3280  220.9000 O   0  0  0  0  0  0  0  0  0  0  0  0
  139.7290   71.5110  223.0930 C   0  0  0  0  0  0  0  0  0  0  0  0
  139.3560   70.1860  222.8850 C   0  0  0  0  0  0  0  0  0  0  0  0
  139.5230   69.3180  223.9420 C   0  0  0  0  0  0  0  0  0  0  0  0
  140.0320   69.7020  225.1640 C   0  0  0  0  0  0  0  0  0  0  0  0
  140.2080   68.8620  226.2270 C   0  0  0  0  0  0  0  0  0  0  0  0
  140.7220   69.2750  227.4460 C   0  0  0  0  0  0  0  0  0  0  0  0
  140.9170   68.1430  228.7560 Cl  0  0  0  0  0  0  0  0  0  0  0  0
  141.0760   70.6200  227.5860 C   0  0  0  0  0  0  0  0  0  0  0  0
  140.8930   71.4500  226.5090 C   0  0  0  0  0  0  0  0  0  0  0  0
  140.3810   71.0360  225.2970 C   0  0  0  0  0  0  0  0  0  0  0  0
  140.2270   71.9050  224.2780 N   0  0  0  0  0  0  0  0  0  0  0  0
  145.5272   70.0186  219.7932 H   0  0  0  0  0  0  0  0  0  0  0  0
  144.6520   70.6811  218.3713 H   0  0  0  0  0  0  0  0  0  0  0  0
  146.4472   70.6175  218.3713 H   0  0  0  0  0  0  0  0  0  0  0  0
  143.7331   73.3696  218.5837 H   0  0  0  0  0  0  0  0  0  0  0  0
  143.2580   72.4160  220.0595 H   0  0  0  0  0  0  0  0  0  0  0  0
  143.2101   74.2155  221.3231 H   0  0  0  0  0  0  0  0  0  0  0  0
  144.8475   74.7435  220.7036 H   0  0  0  0  0  0  0  0  0  0  0  0
  143.0955   75.2585  218.6227 H   0  0  0  0  0  0  0  0  0  0  0  0
  143.6030   77.5100  219.1930 H   0  0  0  0  0  0  0  0  0  0  0  0
  144.0170   77.0320  220.7820 H   0  0  0  0  0  0  0  0  0  0  0  0
  140.9080   74.0210  219.9040 H   0  0  0  0  0  0  0  0  0  0  0  0
  137.4945   75.0013  221.2121 H   0  0  0  0  0  0  0  0  0  0  0  0
  138.3435   73.8661  220.1153 H   0  0  0  0  0  0  0  0  0  0  0  0
  138.0720   73.5700  223.0610 H   0  0  0  0  0  0  0  0  0  0  0  0
  138.9470   69.8477  221.9215 H   0  0  0  0  0  0  0  0  0  0  0  0
  139.2355   68.2653  223.8036 H   0  0  0  0  0  0  0  0  0  0  0  0
  139.9277   67.8048  226.1095 H   0  0  0  0  0  0  0  0  0  0  0  0
  141.4890   71.0016  228.5314 H   0  0  0  0  0  0  0  0  0  0  0  0
  141.1712   72.5086  226.6186 H   0  0  0  0  0  0  0  0  0  0  0  0
  1  2  1  0
  2  3  1  0
  3  4  1  0
  4  5  1  0
  5  6  1  0
  5  7  1  0
  7  8  2  0
  7  9  1  0
  9 10  1  0
 10 11  2  0
 10 12  1  0
 12 13  1  0
 13 14  1  0
 14 15  2  0
 14 16  1  0
 16 17  2  0
 17 18  1  0
 18 19  2  0
 19 20  1  0
 20 21  2  0
 21 22  1  0
 21 23  1  0
 23 24  2  0
 24 25  1  0
 25 26  2  0
 26 16  1  0
 25 19  1  0
  1 27  1  0
  1 28  1  0
  1 29  1  0
  3 30  1  0
  3 31  1  0
  4 32  1  0
  4 33  1  0
  5 34  1  6
  6 35  1  0
  6 36  1  0
  9 37  1  0
 12 38  1  0
 12 39  1  0
 13 40  1  0
 17 41  1  0
 18 42  1  0
 20 43  1  0
 23 44  1  0
 24 45  1  0
M  END
>  <smiles>  (26) 
CSCC[C@H](N)C(=O)NC(=O)CNC(=O)c1ccc2cc(Cl)ccc2n1

>  <score_type>  (26) 
oracle

>  <origin>  (26) 
autodockgpu

>  <m_score__min__energy>  (26) 
-7.8499999999999996

>  <m_primary>  (26) 
energy

>  <rmsd>  (26) 
2.3220151550915693

>  <m_score__min__rmsd>  (26) 
2.3220151550915693

>  <meeko>  (26) 
{"free_energy": -6.85, "intermolecular_energy": -9.24, "internal_energy": -2.65, "cluster_size": 13, "cluster_id": 3, "rank_in_cluster": 6}

>  <energy>  (26) 
-6.66

>  <cluster_rmsd>  (26) 
1.49

>  <cluster>  (26) 
2

$$$$

     RDKit          3D

 45 46  0  0  0  0  0  0  0  0999 V2000
  142.9510   80.4730  222.9970 C   0  0  0  0  0  0  0  0  0  0  0  0
  141.3600   80.2490  223.8570 S   0  0  0  0  0  0  0  0  0  0  0  0
  140.1420   79.7130  222.6430 C   0  0  0  0  0  0  0  0  0  0  0  0
  139.6610   78.3020  222.8850 C   0  0  0  0  0  0  0  0  0  0  0  0
  140.6620   77.2530  222.5160 C   0  0  2  0  0  0  0  0  0  0  0  0
  141.8140   77.8480  221.8510 N   0  0  0  0  0  0  0  0  0  0  0  0
  140.0140   76.3440  221.5370 C   0  0  0  0  0  0  0  0  0  0  0  0
  140.2950   76.5570  220.3090 O   0  0  0  0  0  0  0  0  0  0  0  0
  139.1360   75.2960  221.8890 N   0  0  0  0  0  0  0  0  0  0  0  0
  138.5600   74.4710  220.8650 C   0  0  0  0  0  0  0  0  0  0  0  0
  138.8820   74.7400  219.6740 O   0  0  0  0  0  0  0  0  0  0  0  0
  137.6290   73.3580  221.2140 C   0  0  0  0  0  0  0  0  0  0  0  0
  138.1620   72.6400  222.3310 N   0  0  0  0  0  0  0  0  0  0  0  0
  138.0060   71.2080  222.3280 C   0  0  0  0  0  0  0  0  0  0  0  0
  137.4290   70.6130  221.3850 O   0  0  0  0  0  0  0  0  0  0  0  0
  138.5590   70.4760  223.4840 C   0  0  0  0  0  0  0  0  0  0  0  0
  138.3490   69.1000  223.5280 C   0  0  0  0  0  0  0  0  0  0  0  0
  138.8680   68.4240  224.6110 C   0  0  0  0  0  0  0  0  0  0  0  0
  139.5680   69.0420  225.6250 C   0  0  0  0  0  0  0  0  0  0  0  0
  140.0930   68.3960  226.7080 C   0  0  0  0  0  0  0  0  0  0  0  0
  140.7940   69.0430  227.7140 C   0  0  0  0  0  0  0  0  0  0  0  0
  141.4330   68.1490  229.0650 Cl  0  0  0  0  0  0  0  0  0  0  0  0
  140.9680   70.4250  227.6070 C   0  0  0  0  0  0  0  0  0  0  0  0
  140.4340   71.0600  226.5120 C   0  0  0  0  0  0  0  0  0  0  0  0
  139.7380   70.4130  225.5130 C   0  0  0  0  0  0  0  0  0  0  0  0
  139.2400   71.0970  224.4630 N   0  0  0  0  0  0  0  0  0  0  0  0
  143.7557   80.5863  223.7383 H   0  0  0  0  0  0  0  0  0  0  0  0
  143.1540   79.5946  222.3668 H   0  0  0  0  0  0  0  0  0  0  0  0
  142.9036   81.3733  222.3668 H   0  0  0  0  0  0  0  0  0  0  0  0
  139.2778   80.3921  222.6878 H   0  0  0  0  0  0  0  0  0  0  0  0
  140.6252   79.7348  221.6551 H   0  0  0  0  0  0  0  0  0  0  0  0
  139.4236   78.1947  223.9537 H   0  0  0  0  0  0  0  0  0  0  0  0
  138.7821   78.1476  222.2418 H   0  0  0  0  0  0  0  0  0  0  0  0
  140.9920   76.7319  223.4268 H   0  0  0  0  0  0  0  0  0  0  0  0
  142.5240   78.1300  222.5530 H   0  0  0  0  0  0  0  0  0  0  0  0
  142.2050   77.1070  221.2200 H   0  0  0  0  0  0  0  0  0  0  0  0
  138.9190   75.1400  222.9040 H   0  0  0  0  0  0  0  0  0  0  0  0
  136.6433   73.7698  221.4763 H   0  0  0  0  0  0  0  0  0  0  0  0
  137.5192   72.6809  220.3541 H   0  0  0  0  0  0  0  0  0  0  0  0
  138.6540   73.0940  223.1450 H   0  0  0  0  0  0  0  0  0  0  0  0
  137.7945   68.5769  222.7350 H   0  0  0  0  0  0  0  0  0  0  0  0
  138.7160   67.3361  224.6692 H   0  0  0  0  0  0  0  0  0  0  0  0
  139.9525   67.3078  226.7858 H   0  0  0  0  0  0  0  0  0  0  0  0
  141.5163   70.9880  228.3766 H   0  0  0  0  0  0  0  0  0  0  0  0
  140.5697   72.1483  226.4273 H   0  0  0  0  0  0  0  0  0  0  0  0
  1  2  1  0
  2  3  1  0
  3  4  1  0
  4  5  1  0
  5  6  1  0
  5  7  1  0
  7  8  2  0
  7  9  1  0
  9 10  1  0
 10 11  2  0
 10 12  1  0
 12 13  1  0
 13 14  1  0
 14 15  2  0
 14 16  1  0
 16 17  2  0
 17 18  1  0
 18 19  2  0
 19 20  1  0
 20 21  2  0
 21 22  1  0
 21 23  1  0
 23 24  2  0
 24 25  1  0
 25 26  2  0
 26 16  1  0
 25 19  1  0
  1 27  1  0
  1 28  1  0
  1 29  1  0
  3 30  1  0
  3 31  1  0
  4 32  1  0
  4 33  1  0
  5 34  1  1
  6 35  1  0
  6 36  1  0
  9 37  1  0
 12 38  1  0
 12 39  1  0
 13 40  1  0
 17 41  1  0
 18 42  1  0
 20 43  1  0
 23 44  1  0
 24 45  1  0
M  END
>  <smiles>  (27) 
CSCC[C@H](N)C(=O)NC(=O)CNC(=O)c1ccc2cc(Cl)ccc2n1

>  <score_type>  (27) 
oracle

>  <origin>  (27) 
autodockgpu

>  <m_score__min__energy>  (27) 
-7.8499999999999996

>  <m_primary>  (27) 
energy

>  <rmsd>  (27) 
2.726030453701773

>  <m_score__min__rmsd>  (27) 
2.726030453701773

>  <meeko>  (27) 
{"free_energy": -7.11, "intermolecular_energy": -9.5, "internal_energy": -1.88, "cluster_size": 22, "cluster_id": 1, "rank_in_cluster": 13}

>  <energy>  (27) 
-6.52

>  <cluster_rmsd>  (27) 
1.78

>  <cluster>  (27) 
2

$$$$

     RDKit          3D

 45 46  0  0  0  0  0  0  0  0999 V2000
  140.5640   71.8260  228.2420 C   0  0  0  0  0  0  0  0  0  0  0  0
  141.3770   71.8430  226.6110 S   0  0  0  0  0  0  0  0  0  0  0  0
  140.9870   70.2940  225.7780 C   0  0  0  0  0  0  0  0  0  0  0  0
  139.5660   70.2490  225.2680 C   0  0  0  0  0  0  0  0  0  0  0  0
  139.4220   70.6970  223.8480 C   0  0  2  0  0  0  0  0  0  0  0  0
  140.1940   71.9100  223.6060 N   0  0  0  0  0  0  0  0  0  0  0  0
  137.9940   71.0380  223.6310 C   0  0  0  0  0  0  0  0  0  0  0  0
  137.1520   70.1240  223.9250 O   0  0  0  0  0  0  0  0  0  0  0  0
  137.5420   72.2810  223.1340 N   0  0  0  0  0  0  0  0  0  0  0  0
  136.1360   72.5130  222.9610 C   0  0  0  0  0  0  0  0  0  0  0  0
  135.3640   71.5640  223.2720 O   0  0  0  0  0  0  0  0  0  0  0  0
  135.6360   73.8180  222.4370 C   0  0  0  0  0  0  0  0  0  0  0  0
  136.6060   74.8320  222.7150 N   0  0  0  0  0  0  0  0  0  0  0  0
  137.7950   74.8460  221.9020 C   0  0  0  0  0  0  0  0  0  0  0  0
  137.9750   74.0060  220.9870 O   0  0  0  0  0  0  0  0  0  0  0  0
  138.7910   75.8960  222.1960 C   0  0  0  0  0  0  0  0  0  0  0  0
  140.1250   75.6030  221.9290 C   0  0  0  0  0  0  0  0  0  0  0  0
  141.0470   76.5890  222.2070 C   0  0  0  0  0  0  0  0  0  0  0  0
  140.7080   77.8200  222.7260 C   0  0  0  0  0  0  0  0  0  0  0  0
  141.6010   78.8130  223.0100 C   0  0  0  0  0  0  0  0  0  0  0  0
  141.2320   80.0430  223.5310 C   0  0  0  0  0  0  0  0  0  0  0  0
  142.4320   81.2610  223.8670 Cl  0  0  0  0  0  0  0  0  0  0  0  0
  139.8750   80.2700  223.7750 C   0  0  0  0  0  0  0  0  0  0  0  0
  138.9890   79.2620  223.4840 C   0  0  0  0  0  0  0  0  0  0  0  0
  139.3610   78.0390  222.9660 C   0  0  0  0  0  0  0  0  0  0  0  0
  138.4390   77.0910  222.7020 N   0  0  0  0  0  0  0  0  0  0  0  0
  141.3284   71.8420  229.0329 H   0  0  0  0  0  0  0  0  0  0  0  0
  139.9177   72.7108  228.3388 H   0  0  0  0  0  0  0  0  0  0  0  0
  139.9552   70.9149  228.3388 H   0  0  0  0  0  0  0  0  0  0  0  0
  141.6711   70.1708  224.9254 H   0  0  0  0  0  0  0  0  0  0  0  0
  141.1026   69.4832  226.5123 H   0  0  0  0  0  0  0  0  0  0  0  0
  139.2024   69.2136  225.3440 H   0  0  0  0  0  0  0  0  0  0  0  0
  138.9806   70.9459  225.8858 H   0  0  0  0  0  0  0  0  0  0  0  0
  139.7749   69.8976  223.1799 H   0  0  0  0  0  0  0  0  0  0  0  0
  139.5560   72.7190  223.4820 H   0  0  0  0  0  0  0  0  0  0  0  0
  140.7930   72.0500  224.4560 H   0  0  0  0  0  0  0  0  0  0  0  0
  138.2520   73.0170  222.8990 H   0  0  0  0  0  0  0  0  0  0  0  0
  135.4801   73.7442  221.3506 H   0  0  0  0  0  0  0  0  0  0  0  0
  134.6817   74.0727  222.9213 H   0  0  0  0  0  0  0  0  0  0  0  0
  136.5010   75.5590  223.4710 H   0  0  0  0  0  0  0  0  0  0  0  0
  140.4293   74.6301  221.5155 H   0  0  0  0  0  0  0  0  0  0  0  0
  142.1083   76.3828  222.0042 H   0  0  0  0  0  0  0  0  0  0  0  0
  142.6676   78.6273  222.8153 H   0  0  0  0  0  0  0  0  0  0  0  0
  139.5266   81.2281  224.1881 H   0  0  0  0  0  0  0  0  0  0  0  0
  137.9205   79.4403  223.6751 H   0  0  0  0  0  0  0  0  0  0  0  0
  1  2  1  0
  2  3  1  0
  3  4  1  0
  4  5  1  0
  5  6  1  0
  5  7  1  0
  7  8  2  0
  7  9  1  0
  9 10  1  0
 10 11  2  0
 10 12  1  0
 12 13  1  0
 13 14  1  0
 14 15  2  0
 14 16  1  0
 16 17  2  0
 17 18  1  0
 18 19  2  0
 19 20  1  0
 20 21  2  0
 21 22  1  0
 21 23  1  0
 23 24  2  0
 24 25  1  0
 25 26  2  0
 26 16  1  0
 25 19  1  0
  1 27  1  0
  1 28  1  0
  1 29  1  0
  3 30  1  0
  3 31  1  0
  4 32  1  0
  4 33  1  0
  5 34  1  6
  6 35  1  0
  6 36  1  0
  9 37  1  0
 12 38  1  0
 12 39  1  0
 13 40  1  0
 17 41  1  0
 18 42  1  0
 20 43  1  0
 23 44  1  0
 24 45  1  0
M  END
>  <smiles>  (28) 
CSCC[C@H](N)C(=O)NC(=O)CNC(=O)c1ccc2cc(Cl)ccc2n1

>  <score_type>  (28) 
oracle

>  <origin>  (28) 
autodockgpu

>  <m_score__min__energy>  (28) 
-7.8499999999999996

>  <m_primary>  (28) 
energy

>  <rmsd>  (28) 
7.914299488733565

>  <m_score__min__rmsd>  (28) 
7.914299488733565

>  <meeko>  (28) 
{"free_energy": -6.41, "intermolecular_energy": -8.8, "internal_energy": -2.37, "cluster_size": 2, "cluster_id": 5, "rank_in_cluster": 1}

>  <energy>  (28) 
-7.02

>  <cluster_rmsd>  (28) 
0.0

>  <cluster>  (28) 
3

$$$$

     RDKit          3D

 45 46  0  0  0  0  0  0  0  0999 V2000
  141.3370   80.7560  220.0390 C   0  0  0  0  0  0  0  0  0  0  0  0
  141.4490   82.0240  221.3430 S   0  0  0  0  0  0  0  0  0  0  0  0
  141.0800   81.2360  222.9200 C   0  0  0  0  0  0  0  0  0  0  0  0
  140.5540   79.8290  222.7590 C   0  0  0  0  0  0  0  0  0  0  0  0
  141.6020   78.7730  222.9120 C   0  0  2  0  0  0  0  0  0  0  0  0
  142.9230   79.3060  222.6060 N   0  0  0  0  0  0  0  0  0  0  0  0
  141.3160   77.7130  221.9120 C   0  0  0  0  0  0  0  0  0  0  0  0
  142.1720   77.5900  220.9720 O   0  0  0  0  0  0  0  0  0  0  0  0
  140.1850   76.8690  221.9540 N   0  0  0  0  0  0  0  0  0  0  0  0
  139.9990   75.8720  220.9370 C   0  0  0  0  0  0  0  0  0  0  0  0
  140.8850   75.8090  220.0390 O   0  0  0  0  0  0  0  0  0  0  0  0
  138.8120   74.9690  220.9600 C   0  0  0  0  0  0  0  0  0  0  0  0
  138.9510   74.0470  222.0450 N   0  0  0  0  0  0  0  0  0  0  0  0
  139.6700   72.8260  221.7830 C   0  0  0  0  0  0  0  0  0  0  0  0
  140.1570   72.5810  220.6520 O   0  0  0  0  0  0  0  0  0  0  0  0
  139.8090   71.8810  222.9090 C   0  0  0  0  0  0  0  0  0  0  0  0
  139.4130   70.5650  222.6880 C   0  0  0  0  0  0  0  0  0  0  0  0
  139.5460   69.6890  223.7440 C   0  0  0  0  0  0  0  0  0  0  0  0
  140.0420   70.0570  224.9760 C   0  0  0  0  0  0  0  0  0  0  0  0
  140.1840   69.2100  226.0380 C   0  0  0  0  0  0  0  0  0  0  0  0
  140.6870   69.6070  227.2670 C   0  0  0  0  0  0  0  0  0  0  0  0
  140.8380   68.4650  228.5740 Cl  0  0  0  0  0  0  0  0  0  0  0  0
  141.0660   70.9430  227.4190 C   0  0  0  0  0  0  0  0  0  0  0  0
  140.9170   71.7820  226.3420 C   0  0  0  0  0  0  0  0  0  0  0  0
  140.4160   71.3830  225.1210 C   0  0  0  0  0  0  0  0  0  0  0  0
  140.2970   72.2600  224.1030 N   0  0  0  0  0  0  0  0  0  0  0  0
  141.2492   79.7616  220.5011 H   0  0  0  0  0  0  0  0  0  0  0  0
  140.4525   80.9495  219.4144 H   0  0  0  0  0  0  0  0  0  0  0  0
  142.2418   80.7915  219.4144 H   0  0  0  0  0  0  0  0  0  0  0  0
  142.0012   81.2009  223.5201 H   0  0  0  0  0  0  0  0  0  0  0  0
  140.2961   81.8297  223.4130 H   0  0  0  0  0  0  0  0  0  0  0  0
  139.7772   79.6598  223.5192 H   0  0  0  0  0  0  0  0  0  0  0  0
  140.1636   79.7476  221.7338 H   0  0  0  0  0  0  0  0  0  0  0  0
  141.5880   78.3974  223.9458 H   0  0  0  0  0  0  0  0  0  0  0  0
  143.6440   78.5740  222.7470 H   0  0  0  0  0  0  0  0  0  0  0  0
  142.8970   79.5970  221.5980 H   0  0  0  0  0  0  0  0  0  0  0  0
  139.4950   76.9880  222.7360 H   0  0  0  0  0  0  0  0  0  0  0  0
  137.8976   75.5649  221.0969 H   0  0  0  0  0  0  0  0  0  0  0  0
  138.7445   74.4186  220.0100 H   0  0  0  0  0  0  0  0  0  0  0  0
  138.5620   74.2080  223.0110 H   0  0  0  0  0  0  0  0  0  0  0  0
  139.0128   70.2394  221.7165 H   0  0  0  0  0  0  0  0  0  0  0  0
  139.2406   68.6427  223.5957 H   0  0  0  0  0  0  0  0  0  0  0  0
  139.8839   68.1593  225.9115 H   0  0  0  0  0  0  0  0  0  0  0  0
  141.4716   71.3119  228.3727 H   0  0  0  0  0  0  0  0  0  0  0  0
  141.2149   72.8342  226.4604 H   0  0  0  0  0  0  0  0  0  0  0  0
  1  2  1  0
  2  3  1  0
  3  4  1  0
  4  5  1  0
  5  6  1  0
  5  7  1  0
  7  8  2  0
  7  9  1  0
  9 10  1  0
 10 11  2  0
 10 12  1  0
 12 13  1  0
 13 14  1  0
 14 15  2  0
 14 16  1  0
 16 17  2  0
 17 18  1  0
 18 19  2  0
 19 20  1  0
 20 21  2  0
 21 22  1  0
 21 23  1  0
 23 24  2  0
 24 25  1  0
 25 26  2  0
 26 16  1  0
 25 19  1  0
  1 27  1  0
  1 28  1  0
  1 29  1  0
  3 30  1  0
  3 31  1  0
  4 32  1  0
  4 33  1  0
  5 34  1  1
  6 35  1  0
  6 36  1  0
  9 37  1  0
 12 38  1  0
 12 39  1  0
 13 40  1  0
 17 41  1  0
 18 42  1  0
 20 43  1  0
 23 44  1  0
 24 45  1  0
M  END
>  <smiles>  (29) 
CSCC[C@H](N)C(=O)NC(=O)CNC(=O)c1ccc2cc(Cl)ccc2n1

>  <score_type>  (29) 
oracle

>  <origin>  (29) 
autodockgpu

>  <m_score__min__energy>  (29) 
-7.8499999999999996

>  <m_primary>  (29) 
energy

>  <rmsd>  (29) 
3.1294380081724666

>  <m_score__min__rmsd>  (29) 
3.1294380081724666

>  <meeko>  (29) 
{"free_energy": -7.25, "intermolecular_energy": -9.64, "internal_energy": -2.08, "cluster_size": 22, "cluster_id": 1, "rank_in_cluster": 6}

>  <energy>  (29) 
-6.96

>  <cluster_rmsd>  (29) 
1.46

>  <cluster>  (29) 
3

$$$$

     RDKit          3D

 45 46  0  0  0  0  0  0  0  0999 V2000
  141.9590   80.4730  219.1080 C   0  0  0  0  0  0  0  0  0  0  0  0
  141.4140   81.2840  220.6450 S   0  0  0  0  0  0  0  0  0  0  0  0
  140.2190   80.2040  221.4520 C   0  0  0  0  0  0  0  0  0  0  0  0
  140.6020   79.8740  222.8760 C   0  0  0  0  0  0  0  0  0  0  0  0
  141.6670   78.8290  222.9860 C   0  0  2  0  0  0  0  0  0  0  0  0
  142.9780   79.3920  222.6890 N   0  0  0  0  0  0  0  0  0  0  0  0
  141.3900   77.7990  221.9540 C   0  0  0  0  0  0  0  0  0  0  0  0
  142.1700   77.8000  220.9420 O   0  0  0  0  0  0  0  0  0  0  0  0
  140.3430   76.8560  222.0370 N   0  0  0  0  0  0  0  0  0  0  0  0
  140.1570   75.8980  220.9830 C   0  0  0  0  0  0  0  0  0  0  0  0
  140.9660   75.9590  220.0150 O   0  0  0  0  0  0  0  0  0  0  0  0
  139.0580   74.8920  221.0490 C   0  0  0  0  0  0  0  0  0  0  0  0
  139.3050   74.0060  222.1450 N   0  0  0  0  0  0  0  0  0  0  0  0
  139.2930   72.5930  221.8650 C   0  0  0  0  0  0  0  0  0  0  0  0
  139.0770   72.1550  220.7080 O   0  0  0  0  0  0  0  0  0  0  0  0
  139.5490   71.6860  223.0020 C   0  0  0  0  0  0  0  0  0  0  0  0
  139.2290   70.3420  222.8300 C   0  0  0  0  0  0  0  0  0  0  0  0
  139.4700   69.5030  223.8970 C   0  0  0  0  0  0  0  0  0  0  0  0
  140.0030   69.9330  225.0930 C   0  0  0  0  0  0  0  0  0  0  0  0
  140.2520   69.1230  226.1640 C   0  0  0  0  0  0  0  0  0  0  0  0
  140.7890   69.5820  227.3570 C   0  0  0  0  0  0  0  0  0  0  0  0
  141.0790   68.4850  228.6790 Cl  0  0  0  0  0  0  0  0  0  0  0  0
  141.0870   70.9430  227.4600 C   0  0  0  0  0  0  0  0  0  0  0  0
  140.8310   71.7430  226.3750 C   0  0  0  0  0  0  0  0  0  0  0  0
  140.2960   71.2830  225.1900 C   0  0  0  0  0  0  0  0  0  0  0  0
  140.0700   72.1250  224.1610 N   0  0  0  0  0  0  0  0  0  0  0  0
  142.5569   79.5833  219.3550 H   0  0  0  0  0  0  0  0  0  0  0  0
  141.0792   80.1720  218.5204 H   0  0  0  0  0  0  0  0  0  0  0  0
  142.5701   81.1739  218.5204 H   0  0  0  0  0  0  0  0  0  0  0  0
  139.2395   80.7046  221.4577 H   0  0  0  0  0  0  0  0  0  0  0  0
  140.1893   79.2601  220.8880 H   0  0  0  0  0  0  0  0  0  0  0  0
  140.9657   80.7927  223.3595 H   0  0  0  0  0  0  0  0  0  0  0  0
  139.7034   79.4697  223.3649 H   0  0  0  0  0  0  0  0  0  0  0  0
  141.6659   78.4189  224.0067 H   0  0  0  0  0  0  0  0  0  0  0  0
  143.7110   78.6670  222.8040 H   0  0  0  0  0  0  0  0  0  0  0  0
  142.9410   79.7120  221.6900 H   0  0  0  0  0  0  0  0  0  0  0  0
  139.7140   76.8730  222.8770 H   0  0  0  0  0  0  0  0  0  0  0  0
  138.0965   75.4050  221.1985 H   0  0  0  0  0  0  0  0  0  0  0  0
  139.0192   74.3207  220.1098 H   0  0  0  0  0  0  0  0  0  0  0  0
  139.4910   74.3250  223.1330 H   0  0  0  0  0  0  0  0  0  0  0  0
  138.8039   69.9672  221.8872 H   0  0  0  0  0  0  0  0  0  0  0  0
  139.2244   68.4363  223.7883 H   0  0  0  0  0  0  0  0  0  0  0  0
  140.0146   68.0526  226.0757 H   0  0  0  0  0  0  0  0  0  0  0  0
  141.5142   71.3609  228.3835 H   0  0  0  0  0  0  0  0  0  0  0  0
  141.0664   72.8145  226.4551 H   0  0  0  0  0  0  0  0  0  0  0  0
  1  2  1  0
  2  3  1  0
  3  4  1  0
  4  5  1  0
  5  6  1  0
  5  7  1  0
  7  8  2  0
  7  9  1  0
  9 10  1  0
 10 11  2  0
 10 12  1  0
 12 13  1  0
 13 14  1  0
 14 15  2  0
 14 16  1  0
 16 17  2  0
 17 18  1  0
 18 19  2  0
 19 20  1  0
 20 21  2  0
 21 22  1  0
 21 23  1  0
 23 24  2  0
 24 25  1  0
 25 26  2  0
 26 16  1  0
 25 19  1  0
  1 27  1  0
  1 28  1  0
  1 29  1  0
  3 30  1  0
  3 31  1  0
  4 32  1  0
  4 33  1  0
  5 34  1  1
  6 35  1  0
  6 36  1  0
  9 37  1  0
 12 38  1  0
 12 39  1  0
 13 40  1  0
 17 41  1  0
 18 42  1  0
 20 43  1  0
 23 44  1  0
 24 45  1  0
M  END
>  <smiles>  (30) 
CSCC[C@H](N)C(=O)NC(=O)CNC(=O)c1ccc2cc(Cl)ccc2n1

>  <score_type>  (30) 
oracle

>  <origin>  (30) 
autodockgpu

>  <m_score__min__energy>  (30) 
-7.8499999999999996

>  <m_primary>  (30) 
energy

>  <rmsd>  (30) 
3.103385713607319

>  <m_score__min__rmsd>  (30) 
3.103385713607319

>  <meeko>  (30) 
{"free_energy": -6.93, "intermolecular_energy": -9.32, "internal_energy": -2.3, "cluster_size": 22, "cluster_id": 1, "rank_in_cluster": 17}

>  <energy>  (30) 
-6.96

>  <cluster_rmsd>  (30) 
0.68

>  <cluster>  (30) 
3

$$$$

     RDKit          3D

 45 46  0  0  0  0  0  0  0  0999 V2000
  141.5680   75.2420  217.1810 C   0  0  0  0  0  0  0  0  0  0  0  0
  142.5530   75.3580  218.7100 S   0  0  0  0  0  0  0  0  0  0  0  0
  142.9490   77.0930  218.9870 C   0  0  0  0  0  0  0  0  0  0  0  0
  141.9050   78.0260  218.4200 C   0  0  0  0  0  0  0  0  0  0  0  0
  141.1020   78.7370  219.4630 C   0  0  2  0  0  0  0  0  0  0  0  0
  141.8950   79.7780  220.1060 N   0  0  0  0  0  0  0  0  0  0  0  0
  140.7530   77.7450  220.5100 C   0  0  0  0  0  0  0  0  0  0  0  0
  141.0420   78.0750  221.7090 O   0  0  0  0  0  0  0  0  0  0  0  0
  140.1390   76.5000  220.2480 N   0  0  0  0  0  0  0  0  0  0  0  0
  139.8410   75.6080  221.3330 C   0  0  0  0  0  0  0  0  0  0  0  0
  140.1550   76.0010  222.4910 O   0  0  0  0  0  0  0  0  0  0  0  0
  139.1930   74.2880  221.0800 C   0  0  0  0  0  0  0  0  0  0  0  0
  139.4120   73.4380  222.2110 N   0  0  0  0  0  0  0  0  0  0  0  0
  139.2870   72.0190  222.0020 C   0  0  0  0  0  0  0  0  0  0  0  0
  139.0000   71.5440  220.8760 O   0  0  0  0  0  0  0  0  0  0  0  0
  139.5160   71.1510  223.1740 C   0  0  0  0  0  0  0  0  0  0  0  0
  139.1570   69.8110  223.0550 C   0  0  0  0  0  0  0  0  0  0  0  0
  139.3730   69.0070  224.1540 C   0  0  0  0  0  0  0  0  0  0  0  0
  139.9150   69.4680  225.3340 C   0  0  0  0  0  0  0  0  0  0  0  0
  140.1400   68.6940  226.4370 C   0  0  0  0  0  0  0  0  0  0  0  0
  140.6880   69.1840  227.6120 C   0  0  0  0  0  0  0  0  0  0  0  0
  140.9440   68.1320  228.9770 Cl  0  0  0  0  0  0  0  0  0  0  0  0
  141.0250   70.5390  227.6620 C   0  0  0  0  0  0  0  0  0  0  0  0
  140.7930   71.3030  226.5460 C   0  0  0  0  0  0  0  0  0  0  0  0
  140.2480   70.8130  225.3780 C   0  0  0  0  0  0  0  0  0  0  0  0
  140.0470   71.6190  224.3160 N   0  0  0  0  0  0  0  0  0  0  0  0
  140.5057   75.1169  217.4378 H   0  0  0  0  0  0  0  0  0  0  0  0
  141.6968   76.1615  216.5912 H   0  0  0  0  0  0  0  0  0  0  0  0
  141.9069   74.3776  216.5912 H   0  0  0  0  0  0  0  0  0  0  0  0
  143.0264   77.2679  220.0702 H   0  0  0  0  0  0  0  0  0  0  0  0
  143.8982   77.3038  218.4725 H   0  0  0  0  0  0  0  0  0  0  0  0
  142.4129   78.7792  217.7997 H   0  0  0  0  0  0  0  0  0  0  0  0
  141.2032   77.4082  217.8406 H   0  0  0  0  0  0  0  0  0  0  0  0
  140.2159   79.1875  218.9920 H   0  0  0  0  0  0  0  0  0  0  0  0
  141.2840   80.3840  220.6840 H   0  0  0  0  0  0  0  0  0  0  0  0
  142.5910   79.2820  220.7150 H   0  0  0  0  0  0  0  0  0  0  0  0
  139.9110   76.2500  219.2550 H   0  0  0  0  0  0  0  0  0  0  0  0
  138.1127   74.4302  220.9290 H   0  0  0  0  0  0  0  0  0  0  0  0
  139.6254   73.8277  220.1794 H   0  0  0  0  0  0  0  0  0  0  0  0
  139.6560   73.7890  223.1750 H   0  0  0  0  0  0  0  0  0  0  0  0
  138.7212   69.4123  222.1271 H   0  0  0  0  0  0  0  0  0  0  0  0
  139.0988   67.9439  224.0854 H   0  0  0  0  0  0  0  0  0  0  0  0
  139.8727   67.6280  226.3902 H   0  0  0  0  0  0  0  0  0  0  0  0
  141.4634   70.9803  228.5692 H   0  0  0  0  0  0  0  0  0  0  0  0
  141.0576   72.3700  226.5855 H   0  0  0  0  0  0  0  0  0  0  0  0
  1  2  1  0
  2  3  1  0
  3  4  1  0
  4  5  1  0
  5  6  1  0
  5  7  1  0
  7  8  2  0
  7  9  1  0
  9 10  1  0
 10 11  2  0
 10 12  1  0
 12 13  1  0
 13 14  1  0
 14 15  2  0
 14 16  1  0
 16 17  2  0
 17 18  1  0
 18 19  2  0
 19 20  1  0
 20 21  2  0
 21 22  1  0
 21 23  1  0
 23 24  2  0
 24 25  1  0
 25 26  2  0
 26 16  1  0
 25 19  1  0
  1 27  1  0
  1 28  1  0
  1 29  1  0
  3 30  1  0
  3 31  1  0
  4 32  1  0
  4 33  1  0
  5 34  1  6
  6 35  1  0
  6 36  1  0
  9 37  1  0
 12 38  1  0
 12 39  1  0
 13 40  1  0
 17 41  1  0
 18 42  1  0
 20 43  1  0
 23 44  1  0
 24 45  1  0
M  END
>  <smiles>  (31) 
CSCC[C@H](N)C(=O)NC(=O)CNC(=O)c1ccc2cc(Cl)ccc2n1

>  <score_type>  (31) 
oracle

>  <origin>  (31) 
autodockgpu

>  <m_score__min__energy>  (31) 
-7.8499999999999996

>  <m_primary>  (31) 
energy

>  <rmsd>  (31) 
1.5363470387237945

>  <m_score__min__rmsd>  (31) 
1.5363470387237945

>  <meeko>  (31) 
{"free_energy": -5.77, "intermolecular_energy": -8.16, "internal_energy": -2.75, "cluster_size": 13, "cluster_id": 3, "rank_in_cluster": 13}

>  <energy>  (31) 
-6.95

>  <cluster_rmsd>  (31) 
0.79

>  <cluster>  (31) 
3

$$$$

     RDKit          3D

 45 46  0  0  0  0  0  0  0  0999 V2000
  140.3790   69.4340  228.2720 C   0  0  0  0  0  0  0  0  0  0  0  0
  140.7340   71.1790  227.8840 S   0  0  0  0  0  0  0  0  0  0  0  0
  140.7100   71.3680  226.0930 C   0  0  0  0  0  0  0  0  0  0  0  0
  139.7240   70.4400  225.4230 C   0  0  0  0  0  0  0  0  0  0  0  0
  139.5360   70.7120  223.9640 C   0  0  2  0  0  0  0  0  0  0  0  0
  140.2960   71.8870  223.5550 N   0  0  0  0  0  0  0  0  0  0  0  0
  138.1010   71.0240  223.7500 C   0  0  0  0  0  0  0  0  0  0  0  0
  137.2750   70.1150  224.1010 O   0  0  0  0  0  0  0  0  0  0  0  0
  137.6270   72.2340  223.1980 N   0  0  0  0  0  0  0  0  0  0  0  0
  136.2150   72.4390  223.0320 C   0  0  0  0  0  0  0  0  0  0  0  0
  135.4600   71.4970  223.4000 O   0  0  0  0  0  0  0  0  0  0  0  0
  135.6920   73.7100  222.4500 C   0  0  0  0  0  0  0  0  0  0  0  0
  136.6240   74.7620  222.7180 N   0  0  0  0  0  0  0  0  0  0  0  0
  137.8200   74.8020  221.9160 C   0  0  0  0  0  0  0  0  0  0  0  0
  138.0370   73.9510  221.0190 O   0  0  0  0  0  0  0  0  0  0  0  0
  138.7750   75.8910  222.2000 C   0  0  0  0  0  0  0  0  0  0  0  0
  140.1190   75.6460  221.9310 C   0  0  0  0  0  0  0  0  0  0  0  0
  141.0050   76.6680  222.1990 C   0  0  0  0  0  0  0  0  0  0  0  0
  140.6200   77.8890  222.7090 C   0  0  0  0  0  0  0  0  0  0  0  0
  141.4760   78.9180  222.9830 C   0  0  0  0  0  0  0  0  0  0  0  0
  141.0620   80.1370  223.4960 C   0  0  0  0  0  0  0  0  0  0  0  0
  142.2160   81.4010  223.8190 Cl  0  0  0  0  0  0  0  0  0  0  0  0
  139.6980   80.3140  223.7420 C   0  0  0  0  0  0  0  0  0  0  0  0
  138.8510   79.2710  223.4610 C   0  0  0  0  0  0  0  0  0  0  0  0
  139.2670   78.0590  222.9510 C   0  0  0  0  0  0  0  0  0  0  0  0
  138.3800   77.0750  222.6970 N   0  0  0  0  0  0  0  0  0  0  0  0
  140.3516   69.2993  229.3634 H   0  0  0  0  0  0  0  0  0  0  0  0
  139.4055   69.1538  227.8434 H   0  0  0  0  0  0  0  0  0  0  0  0
  141.1657   68.7957  227.8434 H   0  0  0  0  0  0  0  0  0  0  0  0
  140.4364   72.4058  225.8521 H   0  0  0  0  0  0  0  0  0  0  0  0
  141.7127   71.1148  225.7183 H   0  0  0  0  0  0  0  0  0  0  0  0
  140.0847   69.4074  225.5398 H   0  0  0  0  0  0  0  0  0  0  0  0
  138.7500   70.6025  225.9078 H   0  0  0  0  0  0  0  0  0  0  0  0
  139.8714   69.8376  223.3870 H   0  0  0  0  0  0  0  0  0  0  0  0
  140.4750   71.8560  222.5330 H   0  0  0  0  0  0  0  0  0  0  0  0
  139.7020   72.7180  223.7920 H   0  0  0  0  0  0  0  0  0  0  0  0
  138.3240   72.9670  222.9170 H   0  0  0  0  0  0  0  0  0  0  0  0
  135.5682   73.5947  221.3631 H   0  0  0  0  0  0  0  0  0  0  0  0
  134.7179   73.9522  222.9000 H   0  0  0  0  0  0  0  0  0  0  0  0
  136.4860   75.4990  223.4590 H   0  0  0  0  0  0  0  0  0  0  0  0
  140.4582   74.6821  221.5237 H   0  0  0  0  0  0  0  0  0  0  0  0
  142.0729   76.5002  221.9955 H   0  0  0  0  0  0  0  0  0  0  0  0
  142.5483   78.7714  222.7864 H   0  0  0  0  0  0  0  0  0  0  0  0
  139.3143   81.2612  224.1489 H   0  0  0  0  0  0  0  0  0  0  0  0
  137.7770   79.4101  223.6540 H   0  0  0  0  0  0  0  0  0  0  0  0
  1  2  1  0
  2  3  1  0
  3  4  1  0
  4  5  1  0
  5  6  1  0
  5  7  1  0
  7  8  2  0
  7  9  1  0
  9 10  1  0
 10 11  2  0
 10 12  1  0
 12 13  1  0
 13 14  1  0
 14 15  2  0
 14 16  1  0
 16 17  2  0
 17 18  1  0
 18 19  2  0
 19 20  1  0
 20 21  2  0
 21 22  1  0
 21 23  1  0
 23 24  2  0
 24 25  1  0
 25 26  2  0
 26 16  1  0
 25 19  1  0
  1 27  1  0
  1 28  1  0
  1 29  1  0
  3 30  1  0
  3 31  1  0
  4 32  1  0
  4 33  1  0
  5 34  1  6
  6 35  1  0
  6 36  1  0
  9 37  1  0
 12 38  1  0
 12 39  1  0
 13 40  1  0
 17 41  1  0
 18 42  1  0
 20 43  1  0
 23 44  1  0
 24 45  1  0
M  END
>  <smiles>  (32) 
CSCC[C@H](N)C(=O)NC(=O)CNC(=O)c1ccc2cc(Cl)ccc2n1

>  <score_type>  (32) 
oracle

>  <origin>  (32) 
autodockgpu

>  <m_score__min__energy>  (32) 
-7.8499999999999996

>  <m_primary>  (32) 
energy

>  <rmsd>  (32) 
7.926829253157065

>  <m_score__min__rmsd>  (32) 
7.926829253157065

>  <meeko>  (32) 
{"free_energy": -6.36, "intermolecular_energy": -8.75, "internal_energy": -2.35, "cluster_size": 2, "cluster_id": 5, "rank_in_cluster": 2}

>  <energy>  (32) 
-6.86

>  <cluster_rmsd>  (32) 
1.47

>  <cluster>  (32) 
3

$$$$

     RDKit          3D

 45 46  0  0  0  0  0  0  0  0999 V2000
  146.5640   73.3750  221.9630 C   0  0  0  0  0  0  0  0  0  0  0  0
  145.2100   72.7770  220.9000 S   0  0  0  0  0  0  0  0  0  0  0  0
  144.5240   74.1930  220.0230 C   0  0  0  0  0  0  0  0  0  0  0  0
  143.0790   74.4520  220.3780 C   0  0  0  0  0  0  0  0  0  0  0  0
  142.5130   75.6820  219.7400 C   0  0  2  0  0  0  0  0  0  0  0  0
  143.3200   76.8510  220.0660 N   0  0  0  0  0  0  0  0  0  0  0  0
  141.1650   75.9050  220.3200 C   0  0  0  0  0  0  0  0  0  0  0  0
  140.9360   77.0830  220.7580 O   0  0  0  0  0  0  0  0  0  0  0  0
  140.1650   74.9120  220.4060 N   0  0  0  0  0  0  0  0  0  0  0  0
  138.8910   75.2290  220.9860 C   0  0  0  0  0  0  0  0  0  0  0  0
  138.7360   76.4130  221.3980 O   0  0  0  0  0  0  0  0  0  0  0  0
  137.8190   74.1960  221.0880 C   0  0  0  0  0  0  0  0  0  0  0  0
  138.1130   73.3280  222.1870 N   0  0  0  0  0  0  0  0  0  0  0  0
  139.0660   72.2730  221.9560 C   0  0  0  0  0  0  0  0  0  0  0  0
  139.6180   72.1200  220.8380 O   0  0  0  0  0  0  0  0  0  0  0  0
  139.3630   71.3830  223.0950 C   0  0  0  0  0  0  0  0  0  0  0  0
  139.0300   70.0380  222.9580 C   0  0  0  0  0  0  0  0  0  0  0  0
  139.3100   69.2140  224.0260 C   0  0  0  0  0  0  0  0  0  0  0  0
  139.8910   69.6590  225.1940 C   0  0  0  0  0  0  0  0  0  0  0  0
  140.1800   68.8640  226.2670 C   0  0  0  0  0  0  0  0  0  0  0  0
  140.7650   69.3380  227.4300 C   0  0  0  0  0  0  0  0  0  0  0  0
  141.1020   68.2600  228.7570 Cl  0  0  0  0  0  0  0  0  0  0  0  0
  141.0740   70.7000  227.5010 C   0  0  0  0  0  0  0  0  0  0  0  0
  140.7780   71.4850  226.4140 C   0  0  0  0  0  0  0  0  0  0  0  0
  140.1950   71.0090  225.2580 C   0  0  0  0  0  0  0  0  0  0  0  0
  139.9310   71.8360  224.2260 N   0  0  0  0  0  0  0  0  0  0  0  0
  146.2830   73.2509  223.0192 H   0  0  0  0  0  0  0  0  0  0  0  0
  147.4760   72.7959  221.7557 H   0  0  0  0  0  0  0  0  0  0  0  0
  146.7503   74.4391  221.7557 H   0  0  0  0  0  0  0  0  0  0  0  0
  145.1147   75.0852  220.2779 H   0  0  0  0  0  0  0  0  0  0  0  0
  144.5679   73.9712  218.9465 H   0  0  0  0  0  0  0  0  0  0  0  0
  142.4816   73.5869  220.0544 H   0  0  0  0  0  0  0  0  0  0  0  0
  143.0385   74.6071  221.4663 H   0  0  0  0  0  0  0  0  0  0  0  0
  142.4881   75.5451  218.6488 H   0  0  0  0  0  0  0  0  0  0  0  0
  143.0920   77.6310  219.4200 H   0  0  0  0  0  0  0  0  0  0  0  0
  143.0710   77.1150  221.0500 H   0  0  0  0  0  0  0  0  0  0  0  0
  140.3760   73.9510  220.0400 H   0  0  0  0  0  0  0  0  0  0  0  0
  136.8486   74.6865  221.2545 H   0  0  0  0  0  0  0  0  0  0  0  0
  137.7734   73.6138  220.1558 H   0  0  0  0  0  0  0  0  0  0  0  0
  137.6760   73.4160  223.1420 H   0  0  0  0  0  0  0  0  0  0  0  0
  138.5648   69.6512  222.0393 H   0  0  0  0  0  0  0  0  0  0  0  0
  139.0570   68.1468  223.9424 H   0  0  0  0  0  0  0  0  0  0  0  0
  139.9358   67.7933  226.2043 H   0  0  0  0  0  0  0  0  0  0  0  0
  141.5400   71.1294  228.4002 H   0  0  0  0  0  0  0  0  0  0  0  0
  141.0200   72.5567  226.4682 H   0  0  0  0  0  0  0  0  0  0  0  0
  1  2  1  0
  2  3  1  0
  3  4  1  0
  4  5  1  0
  5  6  1  0
  5  7  1  0
  7  8  2  0
  7  9  1  0
  9 10  1  0
 10 11  2  0
 10 12  1  0
 12 13  1  0
 13 14  1  0
 14 15  2  0
 14 16  1  0
 16 17  2  0
 17 18  1  0
 18 19  2  0
 19 20  1  0
 20 21  2  0
 21 22  1  0
 21 23  1  0
 23 24  2  0
 24 25  1  0
 25 26  2  0
 26 16  1  0
 25 19  1  0
  1 27  1  0
  1 28  1  0
  1 29  1  0
  3 30  1  0
  3 31  1  0
  4 32  1  0
  4 33  1  0
  5 34  1  6
  6 35  1  0
  6 36  1  0
  9 37  1  0
 12 38  1  0
 12 39  1  0
 13 40  1  0
 17 41  1  0
 18 42  1  0
 20 43  1  0
 23 44  1  0
 24 45  1  0
M  END
>  <smiles>  (33) 
CSCC[C@H](N)C(=O)NC(=O)CNC(=O)c1ccc2cc(Cl)ccc2n1

>  <score_type>  (33) 
oracle

>  <origin>  (33) 
autodockgpu

>  <m_score__min__energy>  (33) 
-7.8499999999999996

>  <m_primary>  (33) 
energy

>  <rmsd>  (33) 
2.1178915962929

>  <m_score__min__rmsd>  (33) 
2.1178915962929

>  <meeko>  (33) 
{"free_energy": -6.76, "intermolecular_energy": -9.14, "internal_energy": -2.59, "cluster_size": 13, "cluster_id": 3, "rank_in_cluster": 7}

>  <energy>  (33) 
-6.85

>  <cluster_rmsd>  (33) 
0.82

>  <cluster>  (33) 
3

$$$$

     RDKit          3D

 45 46  0  0  0  0  0  0  0  0999 V2000
  144.4290   71.5850  219.7180 C   0  0  0  0  0  0  0  0  0  0  0  0
  145.8440   72.6810  220.0540 S   0  0  0  0  0  0  0  0  0  0  0  0
  145.2000   74.3000  220.5100 C   0  0  0  0  0  0  0  0  0  0  0  0
  143.6920   74.3640  220.4500 C   0  0  0  0  0  0  0  0  0  0  0  0
  143.1690   75.5140  219.6470 C   0  0  2  0  0  0  0  0  0  0  0  0
  144.0180   76.6880  219.8120 N   0  0  0  0  0  0  0  0  0  0  0  0
  141.8310   75.8630  220.1880 C   0  0  0  0  0  0  0  0  0  0  0  0
  141.6870   77.0690  220.5820 O   0  0  0  0  0  0  0  0  0  0  0  0
  140.7540   74.9550  220.2810 N   0  0  0  0  0  0  0  0  0  0  0  0
  139.4960   75.3920  220.8200 C   0  0  0  0  0  0  0  0  0  0  0  0
  139.4280   76.5970  221.1900 O   0  0  0  0  0  0  0  0  0  0  0  0
  138.3430   74.4510  220.9290 C   0  0  0  0  0  0  0  0  0  0  0  0
  138.5610   73.5750  222.0390 N   0  0  0  0  0  0  0  0  0  0  0  0
  139.4040   72.4280  221.8170 C   0  0  0  0  0  0  0  0  0  0  0  0
  139.9270   72.2040  220.6980 O   0  0  0  0  0  0  0  0  0  0  0  0
  139.6230   71.5300  222.9690 C   0  0  0  0  0  0  0  0  0  0  0  0
  139.2740   70.1920  222.8100 C   0  0  0  0  0  0  0  0  0  0  0  0
  139.4810   69.3610  223.8900 C   0  0  0  0  0  0  0  0  0  0  0  0
  140.0070   69.7940  225.0880 C   0  0  0  0  0  0  0  0  0  0  0  0
  140.2230   68.9920  226.1730 C   0  0  0  0  0  0  0  0  0  0  0  0
  140.7540   69.4540  227.3670 C   0  0  0  0  0  0  0  0  0  0  0  0
  141.0000   68.3670  228.7070 Cl  0  0  0  0  0  0  0  0  0  0  0  0
  141.0830   70.8090  227.4580 C   0  0  0  0  0  0  0  0  0  0  0  0
  140.8600   71.6010  226.3590 C   0  0  0  0  0  0  0  0  0  0  0  0
  140.3310   71.1380  225.1720 C   0  0  0  0  0  0  0  0  0  0  0  0
  140.1380   71.9720  224.1300 N   0  0  0  0  0  0  0  0  0  0  0  0
  143.9928   71.2472  220.6696 H   0  0  0  0  0  0  0  0  0  0  0  0
  143.6698   72.1330  219.1407 H   0  0  0  0  0  0  0  0  0  0  0  0
  144.7697   70.7129  219.1407 H   0  0  0  0  0  0  0  0  0  0  0  0
  145.5217   74.5307  221.5363 H   0  0  0  0  0  0  0  0  0  0  0  0
  145.5932   75.0302  219.7874 H   0  0  0  0  0  0  0  0  0  0  0  0
  143.3226   73.4304  220.0006 H   0  0  0  0  0  0  0  0  0  0  0  0
  143.3354   74.5039  221.4811 H   0  0  0  0  0  0  0  0  0  0  0  0
  143.1371   75.2292  218.5850 H   0  0  0  0  0  0  0  0  0  0  0  0
  143.7240   77.4340  219.1530 H   0  0  0  0  0  0  0  0  0  0  0  0
  143.8870   77.0080  220.8020 H   0  0  0  0  0  0  0  0  0  0  0  0
  140.8950   73.9690  219.9510 H   0  0  0  0  0  0  0  0  0  0  0  0
  137.4152   75.0209  221.0854 H   0  0  0  0  0  0  0  0  0  0  0  0
  138.2536   73.8634  220.0034 H   0  0  0  0  0  0  0  0  0  0  0  0
  138.1450   73.7210  222.9970 H   0  0  0  0  0  0  0  0  0  0  0  0
  138.8526   69.8153  221.8663 H   0  0  0  0  0  0  0  0  0  0  0  0
  139.2129   68.2988  223.7907 H   0  0  0  0  0  0  0  0  0  0  0  0
  139.9624   67.9262  226.0949 H   0  0  0  0  0  0  0  0  0  0  0  0
  141.5077   71.2283  228.3820 H   0  0  0  0  0  0  0  0  0  0  0  0
  141.1184   72.6679  226.4290 H   0  0  0  0  0  0  0  0  0  0  0  0
  1  2  1  0
  2  3  1  0
  3  4  1  0
  4  5  1  0
  5  6  1  0
  5  7  1  0
  7  8  2  0
  7  9  1  0
  9 10  1  0
 10 11  2  0
 10 12  1  0
 12 13  1  0
 13 14  1  0
 14 15  2  0
 14 16  1  0
 16 17  2  0
 17 18  1  0
 18 19  2  0
 19 20  1  0
 20 21  2  0
 21 22  1  0
 21 23  1  0
 23 24  2  0
 24 25  1  0
 25 26  2  0
 26 16  1  0
 25 19  1  0
  1 27  1  0
  1 28  1  0
  1 29  1  0
  3 30  1  0
  3 31  1  0
  4 32  1  0
  4 33  1  0
  5 34  1  6
  6 35  1  0
  6 36  1  0
  9 37  1  0
 12 38  1  0
 12 39  1  0
 13 40  1  0
 17 41  1  0
 18 42  1  0
 20 43  1  0
 23 44  1  0
 24 45  1  0
M  END
>  <smiles>  (34) 
CSCC[C@H](N)C(=O)NC(=O)CNC(=O)c1ccc2cc(Cl)ccc2n1

>  <score_type>  (34) 
oracle

>  <origin>  (34) 
autodockgpu

>  <m_score__min__energy>  (34) 
-7.8499999999999996

>  <m_primary>  (34) 
energy

>  <rmsd>  (34) 
2.3712898435650707

>  <m_score__min__rmsd>  (34) 
2.3712898435650707

>  <meeko>  (34) 
{"free_energy": -6.96, "intermolecular_energy": -9.34, "internal_energy": -2.7, "cluster_size": 13, "cluster_id": 3, "rank_in_cluster": 3}

>  <energy>  (34) 
-6.76

>  <cluster_rmsd>  (34) 
0.5

>  <cluster>  (34) 
3

$$$$

     RDKit          3D

 45 46  0  0  0  0  0  0  0  0999 V2000
  146.7060   73.3820  222.3430 C   0  0  0  0  0  0  0  0  0  0  0  0
  145.8280   73.8230  220.8090 S   0  0  0  0  0  0  0  0  0  0  0  0
  144.3080   72.8590  220.7400 C   0  0  0  0  0  0  0  0  0  0  0  0
  143.9880   72.3740  219.3460 C   0  0  0  0  0  0  0  0  0  0  0  0
  143.5870   73.4660  218.4050 C   0  0  2  0  0  0  0  0  0  0  0  0
  144.7600   74.1510  217.8760 N   0  0  0  0  0  0  0  0  0  0  0  0
  142.8140   74.4640  219.1860 C   0  0  0  0  0  0  0  0  0  0  0  0
  143.3910   75.5870  219.3800 O   0  0  0  0  0  0  0  0  0  0  0  0
  141.5200   74.2360  219.7020 N   0  0  0  0  0  0  0  0  0  0  0  0
  140.8550   75.2690  220.4460 C   0  0  0  0  0  0  0  0  0  0  0  0
  141.4860   76.3520  220.5980 O   0  0  0  0  0  0  0  0  0  0  0  0
  139.4870   75.0500  221.0010 C   0  0  0  0  0  0  0  0  0  0  0  0
  139.5740   74.1480  222.1080 N   0  0  0  0  0  0  0  0  0  0  0  0
  139.7660   72.7520  221.8060 C   0  0  0  0  0  0  0  0  0  0  0  0
  139.8560   72.3430  220.6220 O   0  0  0  0  0  0  0  0  0  0  0  0
  139.8550   71.8290  222.9540 C   0  0  0  0  0  0  0  0  0  0  0  0
  139.4270   70.5190  222.7540 C   0  0  0  0  0  0  0  0  0  0  0  0
  139.5130   69.6640  223.8310 C   0  0  0  0  0  0  0  0  0  0  0  0
  139.9930   70.0460  225.0660 C   0  0  0  0  0  0  0  0  0  0  0  0
  140.0880   69.2180  226.1480 C   0  0  0  0  0  0  0  0  0  0  0  0
  140.5760   69.6290  227.3790 C   0  0  0  0  0  0  0  0  0  0  0  0
  140.6670   68.5130  228.7140 Cl  0  0  0  0  0  0  0  0  0  0  0  0
  140.9880   70.9580  227.5100 C   0  0  0  0  0  0  0  0  0  0  0  0
  140.8860   71.7760  226.4130 C   0  0  0  0  0  0  0  0  0  0  0  0
  140.4000   71.3640  225.1900 C   0  0  0  0  0  0  0  0  0  0  0  0
  140.3270   72.2210  224.1510 N   0  0  0  0  0  0  0  0  0  0  0  0
  146.1023   73.6852  223.2111 H   0  0  0  0  0  0  0  0  0  0  0  0
  146.8698   72.2947  222.3721 H   0  0  0  0  0  0  0  0  0  0  0  0
  147.6760   73.8998  222.3721 H   0  0  0  0  0  0  0  0  0  0  0  0
  144.4148   71.9859  221.4005 H   0  0  0  0  0  0  0  0  0  0  0  0
  143.4845   73.5138  221.0611 H   0  0  0  0  0  0  0  0  0  0  0  0
  144.8799   71.8752  218.9389 H   0  0  0  0  0  0  0  0  0  0  0  0
  143.1283   71.6933  219.4326 H   0  0  0  0  0  0  0  0  0  0  0  0
  143.0087   73.0339  217.5750 H   0  0  0  0  0  0  0  0  0  0  0  0
  144.5190   75.1280  217.6250 H   0  0  0  0  0  0  0  0  0  0  0  0
  145.4760   74.1420  218.6430 H   0  0  0  0  0  0  0  0  0  0  0  0
  141.0650   73.3060  219.5300 H   0  0  0  0  0  0  0  0  0  0  0  0
  139.0678   76.0093  221.3386 H   0  0  0  0  0  0  0  0  0  0  0  0
  138.8340   74.6247  220.2247 H   0  0  0  0  0  0  0  0  0  0  0  0
  139.5050   74.4430  223.1180 H   0  0  0  0  0  0  0  0  0  0  0  0
  139.0384   70.1825  221.7815 H   0  0  0  0  0  0  0  0  0  0  0  0
  139.1818   68.6234  223.6989 H   0  0  0  0  0  0  0  0  0  0  0  0
  139.7612   68.1735  226.0374 H   0  0  0  0  0  0  0  0  0  0  0  0
  141.3824   71.3371  228.4643 H   0  0  0  0  0  0  0  0  0  0  0  0
  141.2110   72.8219  226.5152 H   0  0  0  0  0  0  0  0  0  0  0  0
  1  2  1  0
  2  3  1  0
  3  4  1  0
  4  5  1  0
  5  6  1  0
  5  7  1  0
  7  8  2  0
  7  9  1  0
  9 10  1  0
 10 11  2  0
 10 12  1  0
 12 13  1  0
 13 14  1  0
 14 15  2  0
 14 16  1  0
 16 17  2  0
 17 18  1  0
 18 19  2  0
 19 20  1  0
 20 21  2  0
 21 22  1  0
 21 23  1  0
 23 24  2  0
 24 25  1  0
 25 26  2  0
 26 16  1  0
 25 19  1  0
  1 27  1  0
  1 28  1  0
  1 29  1  0
  3 30  1  0
  3 31  1  0
  4 32  1  0
  4 33  1  0
  5 34  1  6
  6 35  1  0
  6 36  1  0
  9 37  1  0
 12 38  1  0
 12 39  1  0
 13 40  1  0
 17 41  1  0
 18 42  1  0
 20 43  1  0
 23 44  1  0
 24 45  1  0
M  END
>  <smiles>  (35) 
CSCC[C@H](N)C(=O)NC(=O)CNC(=O)c1ccc2cc(Cl)ccc2n1

>  <score_type>  (35) 
oracle

>  <origin>  (35) 
autodockgpu

>  <m_score__min__energy>  (35) 
-7.8499999999999996

>  <m_primary>  (35) 
energy

>  <rmsd>  (35) 
2.9537009227036655

>  <m_score__min__rmsd>  (35) 
2.9537009227036655

>  <meeko>  (35) 
{"free_energy": -6.96, "intermolecular_energy": -9.35, "internal_energy": -3.06, "cluster_size": 13, "cluster_id": 3, "rank_in_cluster": 2}

>  <energy>  (35) 
-6.5

>  <cluster_rmsd>  (35) 
0.97

>  <cluster>  (35) 
3

$$$$

     RDKit          3D

 45 46  0  0  0  0  0  0  0  0999 V2000
  142.6550   80.9280  223.8380 C   0  0  0  0  0  0  0  0  0  0  0  0
  141.4610   80.2170  222.6590 S   0  0  0  0  0  0  0  0  0  0  0  0
  140.3070   79.1910  223.5860 C   0  0  0  0  0  0  0  0  0  0  0  0
  139.6190   78.1620  222.7210 C   0  0  0  0  0  0  0  0  0  0  0  0
  140.4990   77.0160  222.3330 C   0  0  2  0  0  0  0  0  0  0  0  0
  141.6040   77.4720  221.4970 N   0  0  0  0  0  0  0  0  0  0  0  0
  139.6850   76.0870  221.5110 C   0  0  0  0  0  0  0  0  0  0  0  0
  139.9460   76.0730  220.2600 O   0  0  0  0  0  0  0  0  0  0  0  0
  138.6730   75.2490  222.0290 N   0  0  0  0  0  0  0  0  0  0  0  0
  137.9400   74.3840  221.1490 C   0  0  0  0  0  0  0  0  0  0  0  0
  138.2530   74.4250  219.9260 O   0  0  0  0  0  0  0  0  0  0  0  0
  136.8660   73.4900  221.6750 C   0  0  0  0  0  0  0  0  0  0  0  0
  137.3920   72.7240  222.7630 N   0  0  0  0  0  0  0  0  0  0  0  0
  138.1380   71.5370  222.4320 C   0  0  0  0  0  0  0  0  0  0  0  0
  138.3230   71.1890  221.2400 O   0  0  0  0  0  0  0  0  0  0  0  0
  138.6760   70.7530  223.5610 C   0  0  0  0  0  0  0  0  0  0  0  0
  138.4780   69.3750  223.5330 C   0  0  0  0  0  0  0  0  0  0  0  0
  138.9830   68.6510  224.5910 C   0  0  0  0  0  0  0  0  0  0  0  0
  139.6590   69.2240  225.6470 C   0  0  0  0  0  0  0  0  0  0  0  0
  140.1690   68.5290  226.7070 C   0  0  0  0  0  0  0  0  0  0  0  0
  140.8450   69.1310  227.7570 C   0  0  0  0  0  0  0  0  0  0  0  0
  141.4670   68.1760  229.0740 Cl  0  0  0  0  0  0  0  0  0  0  0  0
  141.0080   70.5180  227.7220 C   0  0  0  0  0  0  0  0  0  0  0  0
  140.4900   71.2020  226.6500 C   0  0  0  0  0  0  0  0  0  0  0  0
  139.8170   70.5990  225.6070 C   0  0  0  0  0  0  0  0  0  0  0  0
  139.3330   71.3310  224.5820 N   0  0  0  0  0  0  0  0  0  0  0  0
  142.3188   80.7278  224.8660 H   0  0  0  0  0  0  0  0  0  0  0  0
  143.6430   80.4710  223.6798 H   0  0  0  0  0  0  0  0  0  0  0  0
  142.7239   82.0144  223.6798 H   0  0  0  0  0  0  0  0  0  0  0  0
  140.8599   78.6695  224.3812 H   0  0  0  0  0  0  0  0  0  0  0  0
  139.5304   79.8524  223.9977 H   0  0  0  0  0  0  0  0  0  0  0  0
  138.7555   77.7646  223.2745 H   0  0  0  0  0  0  0  0  0  0  0  0
  139.3243   78.6698  221.7908 H   0  0  0  0  0  0  0  0  0  0  0  0
  140.8965   76.5418  223.2424 H   0  0  0  0  0  0  0  0  0  0  0  0
  142.2380   76.6790  221.2830 H   0  0  0  0  0  0  0  0  0  0  0  0
  141.1720   77.8380  220.6140 H   0  0  0  0  0  0  0  0  0  0  0  0
  138.4750   75.2770  223.0600 H   0  0  0  0  0  0  0  0  0  0  0  0
  136.0191   74.0976  222.0266 H   0  0  0  0  0  0  0  0  0  0  0  0
  136.5189   72.8158  220.8781 H   0  0  0  0  0  0  0  0  0  0  0  0
  137.2640   72.9760  223.7790 H   0  0  0  0  0  0  0  0  0  0  0  0
  137.9433   68.8871  222.7048 H   0  0  0  0  0  0  0  0  0  0  0  0
  138.8395   67.5604  224.5931 H   0  0  0  0  0  0  0  0  0  0  0  0
  140.0366   67.4372  226.7283 H   0  0  0  0  0  0  0  0  0  0  0  0
  141.5358   71.0466  228.5295 H   0  0  0  0  0  0  0  0  0  0  0  0
  140.6190   72.2940  226.6209 H   0  0  0  0  0  0  0  0  0  0  0  0
  1  2  1  0
  2  3  1  0
  3  4  1  0
  4  5  1  0
  5  6  1  0
  5  7  1  0
  7  8  2  0
  7  9  1  0
  9 10  1  0
 10 11  2  0
 10 12  1  0
 12 13  1  0
 13 14  1  0
 14 15  2  0
 14 16  1  0
 16 17  2  0
 17 18  1  0
 18 19  2  0
 19 20  1  0
 20 21  2  0
 21 22  1  0
 21 23  1  0
 23 24  2  0
 24 25  1  0
 25 26  2  0
 26 16  1  0
 25 19  1  0
  1 27  1  0
  1 28  1  0
  1 29  1  0
  3 30  1  0
  3 31  1  0
  4 32  1  0
  4 33  1  0
  5 34  1  1
  6 35  1  0
  6 36  1  0
  9 37  1  0
 12 38  1  0
 12 39  1  0
 13 40  1  0
 17 41  1  0
 18 42  1  0
 20 43  1  0
 23 44  1  0
 24 45  1  0
M  END
>  <smiles>  (36) 
CSCC[C@H](N)C(=O)NC(=O)CNC(=O)c1ccc2cc(Cl)ccc2n1

>  <score_type>  (36) 
oracle

>  <origin>  (36) 
autodockgpu

>  <m_score__min__energy>  (36) 
-7.8499999999999996

>  <m_primary>  (36) 
energy

>  <rmsd>  (36) 
2.668121140339387

>  <m_score__min__rmsd>  (36) 
2.668121140339387

>  <meeko>  (36) 
{"free_energy": -6.89, "intermolecular_energy": -9.27, "internal_energy": -1.9, "cluster_size": 22, "cluster_id": 1, "rank_in_cluster": 19}

>  <energy>  (36) 
-6.28

>  <cluster_rmsd>  (36) 
1.83

>  <cluster>  (36) 
3

$$$$

     RDKit          3D

 45 46  0  0  0  0  0  0  0  0999 V2000
  142.9540   80.5140  223.5100 C   0  0  0  0  0  0  0  0  0  0  0  0
  141.8370   79.1090  223.8230 S   0  0  0  0  0  0  0  0  0  0  0  0
  140.4000   79.2900  222.7530 C   0  0  0  0  0  0  0  0  0  0  0  0
  139.4880   78.0860  222.7940 C   0  0  0  0  0  0  0  0  0  0  0  0
  140.1400   76.8210  222.3350 C   0  0  2  0  0  0  0  0  0  0  0  0
  141.2880   77.1090  221.4840 N   0  0  0  0  0  0  0  0  0  0  0  0
  139.1530   76.0870  221.5040 C   0  0  0  0  0  0  0  0  0  0  0  0
  138.9390   76.5680  220.3400 O   0  0  0  0  0  0  0  0  0  0  0  0
  138.4680   74.9270  221.9260 N   0  0  0  0  0  0  0  0  0  0  0  0
  137.5300   74.2900  221.0450 C   0  0  0  0  0  0  0  0  0  0  0  0
  137.3690   74.8210  219.9110 O   0  0  0  0  0  0  0  0  0  0  0  0
  136.7940   73.0640  221.4700 C   0  0  0  0  0  0  0  0  0  0  0  0
  137.4240   72.5250  222.6370 N   0  0  0  0  0  0  0  0  0  0  0  0
  138.6690   71.8260  222.4490 C   0  0  0  0  0  0  0  0  0  0  0  0
  139.1830   71.6960  221.3100 O   0  0  0  0  0  0  0  0  0  0  0  0
  139.3120   71.2740  223.6580 C   0  0  0  0  0  0  0  0  0  0  0  0
  140.4370   71.9360  224.1410 C   0  0  0  0  0  0  0  0  0  0  0  0
  141.0310   71.4140  225.2690 C   0  0  0  0  0  0  0  0  0  0  0  0
  140.5660   70.2910  225.9200 C   0  0  0  0  0  0  0  0  0  0  0  0
  141.1350   69.7530  227.0390 C   0  0  0  0  0  0  0  0  0  0  0  0
  140.6450   68.6220  227.6730 C   0  0  0  0  0  0  0  0  0  0  0  0
  141.4280   67.9970  229.0990 Cl  0  0  0  0  0  0  0  0  0  0  0  0
  139.5120   68.0080  227.1350 C   0  0  0  0  0  0  0  0  0  0  0  0
  138.9520   68.5600  226.0100 C   0  0  0  0  0  0  0  0  0  0  0  0
  139.4420   69.6860  225.3810 C   0  0  0  0  0  0  0  0  0  0  0  0
  138.8420   70.1780  224.2780 N   0  0  0  0  0  0  0  0  0  0  0  0
  143.2897   80.9362  224.4687 H   0  0  0  0  0  0  0  0  0  0  0  0
  143.8264   80.1681  222.9362 H   0  0  0  0  0  0  0  0  0  0  0  0
  142.4203   81.2859  222.9362 H   0  0  0  0  0  0  0  0  0  0  0  0
  139.8304   80.1742  223.0751 H   0  0  0  0  0  0  0  0  0  0  0  0
  140.7652   79.3956  221.7208 H   0  0  0  0  0  0  0  0  0  0  0  0
  139.1465   77.9444  223.8300 H   0  0  0  0  0  0  0  0  0  0  0  0
  138.6575   78.2886  222.1018 H   0  0  0  0  0  0  0  0  0  0  0  0
  140.4688   76.2451  223.2126 H   0  0  0  0  0  0  0  0  0  0  0  0
  142.1510   76.7160  221.9050 H   0  0  0  0  0  0  0  0  0  0  0  0
  141.0940   76.6470  220.5620 H   0  0  0  0  0  0  0  0  0  0  0  0
  138.6590   74.5500  222.8870 H   0  0  0  0  0  0  0  0  0  0  0  0
  135.7496   73.3216  221.7001 H   0  0  0  0  0  0  0  0  0  0  0  0
  136.8115   72.3198  220.6602 H   0  0  0  0  0  0  0  0  0  0  0  0
  137.0320   72.6090  223.6120 H   0  0  0  0  0  0  0  0  0  0  0  0
  140.8334   72.8343  223.6451 H   0  0  0  0  0  0  0  0  0  0  0  0
  141.9218   71.9189  225.6709 H   0  0  0  0  0  0  0  0  0  0  0  0
  142.0269   70.2418  227.4581 H   0  0  0  0  0  0  0  0  0  0  0  0
  139.0811   67.1086  227.5991 H   0  0  0  0  0  0  0  0  0  0  0  0
  138.0602   68.0763  225.5849 H   0  0  0  0  0  0  0  0  0  0  0  0
  1  2  1  0
  2  3  1  0
  3  4  1  0
  4  5  1  0
  5  6  1  0
  5  7  1  0
  7  8  2  0
  7  9  1  0
  9 10  1  0
 10 11  2  0
 10 12  1  0
 12 13  1  0
 13 14  1  0
 14 15  2  0
 14 16  1  0
 16 17  2  0
 17 18  1  0
 18 19  2  0
 19 20  1  0
 20 21  2  0
 21 22  1  0
 21 23  1  0
 23 24  2  0
 24 25  1  0
 25 26  2  0
 26 16  1  0
 25 19  1  0
  1 27  1  0
  1 28  1  0
  1 29  1  0
  3 30  1  0
  3 31  1  0
  4 32  1  0
  4 33  1  0
  5 34  1  1
  6 35  1  0
  6 36  1  0
  9 37  1  0
 12 38  1  0
 12 39  1  0
 13 40  1  0
 17 41  1  0
 18 42  1  0
 20 43  1  0
 23 44  1  0
 24 45  1  0
M  END
>  <smiles>  (37) 
CSCC[C@H](N)C(=O)NC(=O)CNC(=O)c1ccc2cc(Cl)ccc2n1

>  <score_type>  (37) 
oracle

>  <origin>  (37) 
autodockgpu

>  <m_score__min__energy>  (37) 
-7.8499999999999996

>  <m_primary>  (37) 
energy

>  <rmsd>  (37) 
3.5369351411375938

>  <m_score__min__rmsd>  (37) 
3.5369351411375938

>  <meeko>  (37) 
{"free_energy": -6.98, "intermolecular_energy": -9.37, "internal_energy": -1.78, "cluster_size": 22, "cluster_id": 1, "rank_in_cluster": 16}

>  <energy>  (37) 
-6.19

>  <cluster_rmsd>  (37) 
2.0

>  <cluster>  (37) 
3

$$$$

     RDKit          3D

 45 46  0  0  0  0  0  0  0  0999 V2000
  143.1000   74.2610  220.1450 C   0  0  0  0  0  0  0  0  0  0  0  0
  142.7340   75.3430  218.7260 S   0  0  0  0  0  0  0  0  0  0  0  0
  143.0410   77.0450  219.2280 C   0  0  0  0  0  0  0  0  0  0  0  0
  142.1000   78.0250  218.5690 C   0  0  0  0  0  0  0  0  0  0  0  0
  141.1940   78.7300  219.5290 C   0  0  2  0  0  0  0  0  0  0  0  0
  141.9080   79.7890  220.2310 N   0  0  0  0  0  0  0  0  0  0  0  0
  140.7690   77.7390  220.5490 C   0  0  0  0  0  0  0  0  0  0  0  0
  140.8960   78.1040  221.7670 O   0  0  0  0  0  0  0  0  0  0  0  0
  140.2520   76.4610  220.2450 N   0  0  0  0  0  0  0  0  0  0  0  0
  139.8690   75.5730  221.3070 C   0  0  0  0  0  0  0  0  0  0  0  0
  140.0230   76.0020  222.4850 O   0  0  0  0  0  0  0  0  0  0  0  0
  139.3200   74.2180  221.0100 C   0  0  0  0  0  0  0  0  0  0  0  0
  139.5010   73.3810  222.1560 N   0  0  0  0  0  0  0  0  0  0  0  0
  139.4130   71.9580  221.9530 C   0  0  0  0  0  0  0  0  0  0  0  0
  139.1890   71.4690  220.8190 O   0  0  0  0  0  0  0  0  0  0  0  0
  139.6020   71.1030  223.1420 C   0  0  0  0  0  0  0  0  0  0  0  0
  139.2000   69.7740  223.0420 C   0  0  0  0  0  0  0  0  0  0  0  0
  139.3790   68.9830  224.1560 C   0  0  0  0  0  0  0  0  0  0  0  0
  139.9260   69.4460  225.3340 C   0  0  0  0  0  0  0  0  0  0  0  0
  140.1140   68.6830  226.4520 C   0  0  0  0  0  0  0  0  0  0  0  0
  140.6680   69.1750  227.6230 C   0  0  0  0  0  0  0  0  0  0  0  0
  140.8760   68.1380  229.0080 Cl  0  0  0  0  0  0  0  0  0  0  0  0
  141.0490   70.5190  227.6540 C   0  0  0  0  0  0  0  0  0  0  0  0
  140.8530   71.2710  226.5230 C   0  0  0  0  0  0  0  0  0  0  0  0
  140.3020   70.7790  225.3590 C   0  0  0  0  0  0  0  0  0  0  0  0
  140.1380   71.5730  224.2810 N   0  0  0  0  0  0  0  0  0  0  0  0
  142.9148   74.8085  221.0809 H   0  0  0  0  0  0  0  0  0  0  0  0
  142.4523   73.3728  220.1055 H   0  0  0  0  0  0  0  0  0  0  0  0
  144.1539   73.9484  220.1055 H   0  0  0  0  0  0  0  0  0  0  0  0
  142.9181   77.1180  220.3187 H   0  0  0  0  0  0  0  0  0  0  0  0
  144.0634   77.3045  218.9159 H   0  0  0  0  0  0  0  0  0  0  0  0
  142.7001   78.7800  218.0400 H   0  0  0  0  0  0  0  0  0  0  0  0
  141.4583   77.4457  217.8889 H   0  0  0  0  0  0  0  0  0  0  0  0
  140.3465   79.1618  218.9765 H   0  0  0  0  0  0  0  0  0  0  0  0
  141.2440   80.3500  220.7980 H   0  0  0  0  0  0  0  0  0  0  0  0
  142.6020   79.3120  220.8560 H   0  0  0  0  0  0  0  0  0  0  0  0
  140.1570   76.1820  219.2380 H   0  0  0  0  0  0  0  0  0  0  0  0
  138.2479   74.2974  220.7768 H   0  0  0  0  0  0  0  0  0  0  0  0
  139.8460   73.7848  220.1465 H   0  0  0  0  0  0  0  0  0  0  0  0
  139.6920   73.7440  223.1280 H   0  0  0  0  0  0  0  0  0  0  0  0
  138.7599   69.3739  222.1167 H   0  0  0  0  0  0  0  0  0  0  0  0
  139.0698   67.9287  224.1028 H   0  0  0  0  0  0  0  0  0  0  0  0
  139.8106   67.6261  226.4208 H   0  0  0  0  0  0  0  0  0  0  0  0
  141.4929   70.9611  228.5582 H   0  0  0  0  0  0  0  0  0  0  0  0
  141.1533   72.3290  226.5465 H   0  0  0  0  0  0  0  0  0  0  0  0
  1  2  1  0
  2  3  1  0
  3  4  1  0
  4  5  1  0
  5  6  1  0
  5  7  1  0
  7  8  2  0
  7  9  1  0
  9 10  1  0
 10 11  2  0
 10 12  1  0
 12 13  1  0
 13 14  1  0
 14 15  2  0
 14 16  1  0
 16 17  2  0
 17 18  1  0
 18 19  2  0
 19 20  1  0
 20 21  2  0
 21 22  1  0
 21 23  1  0
 23 24  2  0
 24 25  1  0
 25 26  2  0
 26 16  1  0
 25 19  1  0
  1 27  1  0
  1 28  1  0
  1 29  1  0
  3 30  1  0
  3 31  1  0
  4 32  1  0
  4 33  1  0
  5 34  1  6
  6 35  1  0
  6 36  1  0
  9 37  1  0
 12 38  1  0
 12 39  1  0
 13 40  1  0
 17 41  1  0
 18 42  1  0
 20 43  1  0
 23 44  1  0
 24 45  1  0
M  END
>  <smiles>  (38) 
CSCC[C@H](N)C(=O)NC(=O)CNC(=O)c1ccc2cc(Cl)ccc2n1

>  <score_type>  (38) 
oracle

>  <origin>  (38) 
autodockgpu

>  <m_score__min__energy>  (38) 
-7.8499999999999996

>  <m_primary>  (38) 
energy

>  <rmsd>  (38) 
1.555601832051434

>  <m_score__min__rmsd>  (38) 
1.555601832051434

>  <meeko>  (38) 
{"free_energy": -6.04, "intermolecular_energy": -8.43, "internal_energy": -2.8, "cluster_size": 22, "cluster_id": 1, "rank_in_cluster": 22}

>  <energy>  (38) 
-6.16

>  <cluster_rmsd>  (38) 
1.51

>  <cluster>  (38) 
3

$$$$

     RDKit          3D

 45 46  0  0  0  0  0  0  0  0999 V2000
  141.7390   81.2300  218.5650 C   0  0  0  0  0  0  0  0  0  0  0  0
  141.8060   80.2360  220.0900 S   0  0  0  0  0  0  0  0  0  0  0  0
  140.8800   81.1080  221.3660 C   0  0  0  0  0  0  0  0  0  0  0  0
  141.7040   81.3750  222.6030 C   0  0  0  0  0  0  0  0  0  0  0  0
  142.1860   80.1340  223.2850 C   0  0  2  0  0  0  0  0  0  0  0  0
  143.4510   79.6870  222.7150 N   0  0  0  0  0  0  0  0  0  0  0  0
  141.1890   79.0660  223.0250 C   0  0  0  0  0  0  0  0  0  0  0  0
  140.0750   79.1830  223.6390 O   0  0  0  0  0  0  0  0  0  0  0  0
  141.4090   77.9700  222.1620 N   0  0  0  0  0  0  0  0  0  0  0  0
  140.3770   76.9880  221.9770 C   0  0  0  0  0  0  0  0  0  0  0  0
  139.3030   77.1690  222.6160 O   0  0  0  0  0  0  0  0  0  0  0  0
  140.5870   75.8220  221.0700 C   0  0  0  0  0  0  0  0  0  0  0  0
  140.5780   74.6210  221.8490 N   0  0  0  0  0  0  0  0  0  0  0  0
  139.4510   73.7380  221.6830 C   0  0  0  0  0  0  0  0  0  0  0  0
  138.5170   74.0080  220.8890 O   0  0  0  0  0  0  0  0  0  0  0  0
  139.4500   72.5020  222.4900 C   0  0  0  0  0  0  0  0  0  0  0  0
  138.5700   71.4930  222.1100 C   0  0  0  0  0  0  0  0  0  0  0  0
  138.5750   70.3420  222.8690 C   0  0  0  0  0  0  0  0  0  0  0  0
  139.3970   70.1590  223.9600 C   0  0  0  0  0  0  0  0  0  0  0  0
  139.4220   69.0290  224.7280 C   0  0  0  0  0  0  0  0  0  0  0  0
  140.2590   68.8710  225.8210 C   0  0  0  0  0  0  0  0  0  0  0  0
  140.2330   67.3990  226.7520 Cl  0  0  0  0  0  0  0  0  0  0  0  0
  141.1180   69.9240  226.1470 C   0  0  0  0  0  0  0  0  0  0  0  0
  141.0810   71.0520  225.3650 C   0  0  0  0  0  0  0  0  0  0  0  0
  140.2460   71.2060  224.2780 C   0  0  0  0  0  0  0  0  0  0  0  0
  140.2600   72.3420  223.5510 N   0  0  0  0  0  0  0  0  0  0  0  0
  141.6671   82.2964  218.8252 H   0  0  0  0  0  0  0  0  0  0  0  0
  142.6508   81.0574  217.9744 H   0  0  0  0  0  0  0  0  0  0  0  0
  140.8586   80.9366  217.9744 H   0  0  0  0  0  0  0  0  0  0  0  0
  140.5371   82.0698  220.9570 H   0  0  0  0  0  0  0  0  0  0  0  0
  140.0356   80.4676  221.6606 H   0  0  0  0  0  0  0  0  0  0  0  0
  142.5797   81.9747  222.3140 H   0  0  0  0  0  0  0  0  0  0  0  0
  141.0517   81.9004  223.3160 H   0  0  0  0  0  0  0  0  0  0  0  0
  142.3185   80.3403  224.3573 H   0  0  0  0  0  0  0  0  0  0  0  0
  143.3630   78.7120  222.3720 H   0  0  0  0  0  0  0  0  0  0  0  0
  143.6570   80.3340  221.9140 H   0  0  0  0  0  0  0  0  0  0  0  0
  142.3320   77.8940  221.6680 H   0  0  0  0  0  0  0  0  0  0  0  0
  139.7795   75.7843  220.3240 H   0  0  0  0  0  0  0  0  0  0  0  0
  141.5517   75.9224  220.5512 H   0  0  0  0  0  0  0  0  0  0  0  0
  141.3380   74.3510  222.5270 H   0  0  0  0  0  0  0  0  0  0  0  0
  137.9014   71.6084  221.2442 H   0  0  0  0  0  0  0  0  0  0  0  0
  137.8886   69.5291  222.5898 H   0  0  0  0  0  0  0  0  0  0  0  0
  138.7439   68.2036  224.4655 H   0  0  0  0  0  0  0  0  0  0  0  0
  141.8033   69.8513  227.0044 H   0  0  0  0  0  0  0  0  0  0  0  0
  141.7569   71.8815  225.6204 H   0  0  0  0  0  0  0  0  0  0  0  0
  1  2  1  0
  2  3  1  0
  3  4  1  0
  4  5  1  0
  5  6  1  0
  5  7  1  0
  7  8  2  0
  7  9  1  0
  9 10  1  0
 10 11  2  0
 10 12  1  0
 12 13  1  0
 13 14  1  0
 14 15  2  0
 14 16  1  0
 16 17  2  0
 17 18  1  0
 18 19  2  0
 19 20  1  0
 20 21  2  0
 21 22  1  0
 21 23  1  0
 23 24  2  0
 24 25  1  0
 25 26  2  0
 26 16  1  0
 25 19  1  0
  1 27  1  0
  1 28  1  0
  1 29  1  0
  3 30  1  0
  3 31  1  0
  4 32  1  0
  4 33  1  0
  5 34  1  1
  6 35  1  0
  6 36  1  0
  9 37  1  0
 12 38  1  0
 12 39  1  0
 13 40  1  0
 17 41  1  0
 18 42  1  0
 20 43  1  0
 23 44  1  0
 24 45  1  0
M  END
>  <smiles>  (39) 
CSCC[C@H](N)C(=O)NC(=O)CNC(=O)c1ccc2cc(Cl)ccc2n1

>  <score_type>  (39) 
oracle

>  <origin>  (39) 
autodockgpu

>  <m_score__min__energy>  (39) 
-7.8499999999999996

>  <m_primary>  (39) 
energy

>  <rmsd>  (39) 
4.000479563536792

>  <m_score__min__rmsd>  (39) 
4.000479563536792

>  <meeko>  (39) 
{"free_energy": -7.23, "intermolecular_energy": -9.61, "internal_energy": -1.96, "cluster_size": 22, "cluster_id": 1, "rank_in_cluster": 9}

>  <energy>  (39) 
-5.95

>  <cluster_rmsd>  (39) 
1.98

>  <cluster>  (39) 
3

$$$$

     RDKit          3D

 45 46  0  0  0  0  0  0  0  0999 V2000
  137.1210   80.9010  224.9030 C   0  0  0  0  0  0  0  0  0  0  0  0
  135.4690   81.5840  225.2550 S   0  0  0  0  0  0  0  0  0  0  0  0
  135.5490   82.4530  226.8300 C   0  0  0  0  0  0  0  0  0  0  0  0
  135.9330   81.5480  227.9760 C   0  0  0  0  0  0  0  0  0  0  0  0
  135.3600   81.9660  229.2930 C   0  0  2  0  0  0  0  0  0  0  0  0
  136.1990   81.5060  230.3930 N   0  0  0  0  0  0  0  0  0  0  0  0
  134.0440   81.2970  229.4390 C   0  0  0  0  0  0  0  0  0  0  0  0
  133.6000   81.1940  230.6330 O   0  0  0  0  0  0  0  0  0  0  0  0
  133.2890   80.7880  228.3590 N   0  0  0  0  0  0  0  0  0  0  0  0
  132.0240   80.1560  228.6060 C   0  0  0  0  0  0  0  0  0  0  0  0
  131.6500   80.0910  229.8100 O   0  0  0  0  0  0  0  0  0  0  0  0
  131.2100   79.6110  227.4800 C   0  0  0  0  0  0  0  0  0  0  0  0
  131.5650   78.2410  227.2710 N   0  0  0  0  0  0  0  0  0  0  0  0
  132.8640   77.9770  226.7070 C   0  0  0  0  0  0  0  0  0  0  0  0
  133.6530   78.9080  226.4130 O   0  0  0  0  0  0  0  0  0  0  0  0
  133.2220   76.5600  226.4950 C   0  0  0  0  0  0  0  0  0  0  0  0
  134.3370   76.2960  225.7050 C   0  0  0  0  0  0  0  0  0  0  0  0
  134.6640   74.9710  225.5120 C   0  0  0  0  0  0  0  0  0  0  0  0
  133.9470   73.9270  226.0550 C   0  0  0  0  0  0  0  0  0  0  0  0
  134.2490   72.6060  225.8790 C   0  0  0  0  0  0  0  0  0  0  0  0
  133.5100   71.5750  226.4390 C   0  0  0  0  0  0  0  0  0  0  0  0
  133.9600   69.9140  226.1680 Cl  0  0  0  0  0  0  0  0  0  0  0  0
  132.4020   71.9120  227.2210 C   0  0  0  0  0  0  0  0  0  0  0  0
  132.1120   73.2440  227.3880 C   0  0  0  0  0  0  0  0  0  0  0  0
  132.8490   74.2670  226.8290 C   0  0  0  0  0  0  0  0  0  0  0  0
  132.5090   75.5560  227.0340 N   0  0  0  0  0  0  0  0  0  0  0  0
  137.6386   80.6870  225.8497 H   0  0  0  0  0  0  0  0  0  0  0  0
  137.0177   79.9718  224.3234 H   0  0  0  0  0  0  0  0  0  0  0  0
  137.7040   81.6318  224.3234 H   0  0  0  0  0  0  0  0  0  0  0  0
  136.2958   83.2568  226.7509 H   0  0  0  0  0  0  0  0  0  0  0  0
  134.5452   82.8498  227.0419 H   0  0  0  0  0  0  0  0  0  0  0  0
  135.5774   80.5319  227.7498 H   0  0  0  0  0  0  0  0  0  0  0  0
  137.0276   81.5991  228.0719 H   0  0  0  0  0  0  0  0  0  0  0  0
  135.2851   83.0631  229.3219 H   0  0  0  0  0  0  0  0  0  0  0  0
  136.5500   82.3180  230.9360 H   0  0  0  0  0  0  0  0  0  0  0  0
  135.5880   80.9050  230.9970 H   0  0  0  0  0  0  0  0  0  0  0  0
  133.6730   80.8830  227.3870 H   0  0  0  0  0  0  0  0  0  0  0  0
  130.1410   79.6813  227.7296 H   0  0  0  0  0  0  0  0  0  0  0  0
  131.4053   80.1899  226.5652 H   0  0  0  0  0  0  0  0  0  0  0  0
  130.9370   77.4260  227.5020 H   0  0  0  0  0  0  0  0  0  0  0  0
  134.9295   77.1067  225.2558 H   0  0  0  0  0  0  0  0  0  0  0  0
  135.5421   74.7349  224.8929 H   0  0  0  0  0  0  0  0  0  0  0  0
  135.1222   72.3475  225.2621 H   0  0  0  0  0  0  0  0  0  0  0  0
  131.7808   71.1339  227.6887 H   0  0  0  0  0  0  0  0  0  0  0  0
  131.2405   73.5107  228.0039 H   0  0  0  0  0  0  0  0  0  0  0  0
  1  2  1  0
  2  3  1  0
  3  4  1  0
  4  5  1  0
  5  6  1  0
  5  7  1  0
  7  8  2  0
  7  9  1  0
  9 10  1  0
 10 11  2  0
 10 12  1  0
 12 13  1  0
 13 14  1  0
 14 15  2  0
 14 16  1  0
 16 17  2  0
 17 18  1  0
 18 19  2  0
 19 20  1  0
 20 21  2  0
 21 22  1  0
 21 23  1  0
 23 24  2  0
 24 25  1  0
 25 26  2  0
 26 16  1  0
 25 19  1  0
  1 27  1  0
  1 28  1  0
  1 29  1  0
  3 30  1  0
  3 31  1  0
  4 32  1  0
  4 33  1  0
  5 34  1  6
  6 35  1  0
  6 36  1  0
  9 37  1  0
 12 38  1  0
 12 39  1  0
 13 40  1  0
 17 41  1  0
 18 42  1  0
 20 43  1  0
 23 44  1  0
 24 45  1  0
M  END
>  <smiles>  (40) 
CSCC[C@H](N)C(=O)NC(=O)CNC(=O)c1ccc2cc(Cl)ccc2n1

>  <score_type>  (40) 
oracle

>  <origin>  (40) 
autodockgpu

>  <m_score__min__energy>  (40) 
-7.8499999999999996

>  <m_primary>  (40) 
energy

>  <rmsd>  (40) 
10.436119683297191

>  <m_score__min__rmsd>  (40) 
10.436119683297191

>  <meeko>  (40) 
{"free_energy": -5.89, "intermolecular_energy": -8.28, "internal_energy": -2.94, "cluster_size": 1, "cluster_id": 8, "rank_in_cluster": 1}

>  <energy>  (40) 
-5.77

>  <cluster_rmsd>  (40) 
1.83

>  <cluster>  (40) 
3

$$$$

     RDKit          3D

 45 46  0  0  0  0  0  0  0  0999 V2000
  145.5640   67.6160  219.6540 C   0  0  0  0  0  0  0  0  0  0  0  0
  144.3830   69.0020  219.7070 S   0  0  0  0  0  0  0  0  0  0  0  0
  145.2850   70.5170  219.3420 C   0  0  0  0  0  0  0  0  0  0  0  0
  144.5710   71.7530  219.8370 C   0  0  0  0  0  0  0  0  0  0  0  0
  144.5560   72.8760  218.8490 C   0  0  2  0  0  0  0  0  0  0  0  0
  145.8810   73.4680  218.7170 N   0  0  0  0  0  0  0  0  0  0  0  0
  143.6580   73.9290  219.3850 C   0  0  0  0  0  0  0  0  0  0  0  0
  144.1730   75.0920  219.5050 O   0  0  0  0  0  0  0  0  0  0  0  0
  142.3130   73.7110  219.7550 N   0  0  0  0  0  0  0  0  0  0  0  0
  141.5260   74.7980  220.2650 C   0  0  0  0  0  0  0  0  0  0  0  0
  142.1010   75.9190  220.3550 O   0  0  0  0  0  0  0  0  0  0  0  0
  140.1020   74.5910  220.6620 C   0  0  0  0  0  0  0  0  0  0  0  0
  140.0610   73.7570  221.8240 N   0  0  0  0  0  0  0  0  0  0  0  0
  140.1750   72.3350  221.6180 C   0  0  0  0  0  0  0  0  0  0  0  0
  140.3070   71.8470  220.4680 O   0  0  0  0  0  0  0  0  0  0  0  0
  140.1310   71.4830  222.8220 C   0  0  0  0  0  0  0  0  0  0  0  0
  139.5650   70.2180  222.6880 C   0  0  0  0  0  0  0  0  0  0  0  0
  139.5280   69.4290  223.8170 C   0  0  0  0  0  0  0  0  0  0  0  0
  140.0170   69.8330  225.0410 C   0  0  0  0  0  0  0  0  0  0  0  0
  139.9920   69.0710  226.1740 C   0  0  0  0  0  0  0  0  0  0  0  0
  140.4920   69.5030  227.3920 C   0  0  0  0  0  0  0  0  0  0  0  0
  140.4250   68.4710  228.7940 Cl  0  0  0  0  0  0  0  0  0  0  0  0
  141.0470   70.7840  227.4560 C   0  0  0  0  0  0  0  0  0  0  0  0
  141.0640   71.5370  226.3080 C   0  0  0  0  0  0  0  0  0  0  0  0
  140.5660   71.1040  225.0970 C   0  0  0  0  0  0  0  0  0  0  0  0
  140.6140   71.8960  224.0070 N   0  0  0  0  0  0  0  0  0  0  0  0
  145.8213   67.3141  220.6800 H   0  0  0  0  0  0  0  0  0  0  0  0
  145.1083   66.7660  219.1250 H   0  0  0  0  0  0  0  0  0  0  0  0
  146.4755   67.9310  219.1250 H   0  0  0  0  0  0  0  0  0  0  0  0
  146.2723   70.4638  219.8241 H   0  0  0  0  0  0  0  0  0  0  0  0
  145.3708   70.5979  218.2483 H   0  0  0  0  0  0  0  0  0  0  0  0
  143.5307   71.4826  220.0710 H   0  0  0  0  0  0  0  0  0  0  0  0
  145.1213   72.1097  220.7202 H   0  0  0  0  0  0  0  0  0  0  0  0
  144.2263   72.4930  217.8720 H   0  0  0  0  0  0  0  0  0  0  0  0
  145.9020   74.1180  217.9090 H   0  0  0  0  0  0  0  0  0  0  0  0
  146.0580   73.9950  219.6080 H   0  0  0  0  0  0  0  0  0  0  0  0
  141.9110   72.7470  219.6490 H   0  0  0  0  0  0  0  0  0  0  0  0
  139.6368   75.5619  220.8878 H   0  0  0  0  0  0  0  0  0  0  0  0
  139.5519   74.1109  219.8393 H   0  0  0  0  0  0  0  0  0  0  0  0
  139.9530   74.1190  222.8080 H   0  0  0  0  0  0  0  0  0  0  0  0
  139.1660   69.8649  221.7257 H   0  0  0  0  0  0  0  0  0  0  0  0
  139.0855   68.4251  223.7376 H   0  0  0  0  0  0  0  0  0  0  0  0
  139.5530   68.0640  226.1169 H   0  0  0  0  0  0  0  0  0  0  0  0
  141.4578   71.1771  228.3976 H   0  0  0  0  0  0  0  0  0  0  0  0
  141.5007   72.5454  226.3571 H   0  0  0  0  0  0  0  0  0  0  0  0
  1  2  1  0
  2  3  1  0
  3  4  1  0
  4  5  1  0
  5  6  1  0
  5  7  1  0
  7  8  2  0
  7  9  1  0
  9 10  1  0
 10 11  2  0
 10 12  1  0
 12 13  1  0
 13 14  1  0
 14 15  2  0
 14 16  1  0
 16 17  2  0
 17 18  1  0
 18 19  2  0
 19 20  1  0
 20 21  2  0
 21 22  1  0
 21 23  1  0
 23 24  2  0
 24 25  1  0
 25 26  2  0
 26 16  1  0
 25 19  1  0
  1 27  1  0
  1 28  1  0
  1 29  1  0
  3 30  1  0
  3 31  1  0
  4 32  1  0
  4 33  1  0
  5 34  1  6
  6 35  1  0
  6 36  1  0
  9 37  1  0
 12 38  1  0
 12 39  1  0
 13 40  1  0
 17 41  1  0
 18 42  1  0
 20 43  1  0
 23 44  1  0
 24 45  1  0
M  END
>  <smiles>  (41) 
CSCC[C@H](N)C(=O)NC(=O)CNC(=O)c1ccc2cc(Cl)ccc2n1

>  <score_type>  (41) 
oracle

>  <origin>  (41) 
autodockgpu

>  <m_score__min__energy>  (41) 
-7.8499999999999996

>  <m_primary>  (41) 
energy

>  <rmsd>  (41) 
3.4888199461296017

>  <m_score__min__rmsd>  (41) 
3.4888199461296017

>  <meeko>  (41) 
{"free_energy": -6.7, "intermolecular_energy": -9.08, "internal_energy": -2.8, "cluster_size": 2, "cluster_id": 4, "rank_in_cluster": 2}

>  <energy>  (41) 
-6.97

>  <cluster_rmsd>  (41) 
0.0

>  <cluster>  (41) 
4

$$$$

     RDKit          3D

 45 46  0  0  0  0  0  0  0  0999 V2000
  145.5880   73.8080  220.6460 C   0  0  0  0  0  0  0  0  0  0  0  0
  143.7750   73.7620  220.4720 S   0  0  0  0  0  0  0  0  0  0  0  0
  143.3550   74.3780  218.8330 C   0  0  0  0  0  0  0  0  0  0  0  0
  143.6970   75.8390  218.6560 C   0  0  0  0  0  0  0  0  0  0  0  0
  142.5010   76.7380  218.6220 C   0  0  2  0  0  0  0  0  0  0  0  0
  142.9020   78.1360  218.7090 N   0  0  0  0  0  0  0  0  0  0  0  0
  141.6870   76.4410  219.8270 C   0  0  0  0  0  0  0  0  0  0  0  0
  141.9190   77.1720  220.8500 O   0  0  0  0  0  0  0  0  0  0  0  0
  140.7060   75.4270  219.8910 N   0  0  0  0  0  0  0  0  0  0  0  0
  139.9710   75.2200  221.1070 C   0  0  0  0  0  0  0  0  0  0  0  0
  140.2540   75.9790  222.0760 O   0  0  0  0  0  0  0  0  0  0  0  0
  138.9300   74.1540  221.1980 C   0  0  0  0  0  0  0  0  0  0  0  0
  139.2110   73.3260  222.3300 N   0  0  0  0  0  0  0  0  0  0  0  0
  139.1180   71.9000  222.1420 C   0  0  0  0  0  0  0  0  0  0  0  0
  138.8050   71.4040  221.0320 O   0  0  0  0  0  0  0  0  0  0  0  0
  139.4100   71.0540  223.3160 C   0  0  0  0  0  0  0  0  0  0  0  0
  139.0610   69.7080  223.2340 C   0  0  0  0  0  0  0  0  0  0  0  0
  139.3360   68.9250  224.3340 C   0  0  0  0  0  0  0  0  0  0  0  0
  139.9270   69.4110  225.4810 C   0  0  0  0  0  0  0  0  0  0  0  0
  140.2110   68.6570  226.5840 C   0  0  0  0  0  0  0  0  0  0  0  0
  140.8070   69.1710  227.7250 C   0  0  0  0  0  0  0  0  0  0  0  0
  141.1370   68.1440  229.0930 Cl  0  0  0  0  0  0  0  0  0  0  0  0
  141.1310   70.5310  227.7390 C   0  0  0  0  0  0  0  0  0  0  0  0
  140.8390   71.2740  226.6230 C   0  0  0  0  0  0  0  0  0  0  0  0
  140.2460   70.7590  225.4890 C   0  0  0  0  0  0  0  0  0  0  0  0
  139.9880   71.5470  224.4250 N   0  0  0  0  0  0  0  0  0  0  0  0
  145.8539   73.8147  221.7134 H   0  0  0  0  0  0  0  0  0  0  0  0
  146.0252   72.9207  220.1648 H   0  0  0  0  0  0  0  0  0  0  0  0
  145.9796   74.7164  220.1648 H   0  0  0  0  0  0  0  0  0  0  0  0
  143.9093   73.7932  218.0842 H   0  0  0  0  0  0  0  0  0  0  0  0
  142.2674   74.2727  218.7062 H   0  0  0  0  0  0  0  0  0  0  0  0
  144.3403   76.1487  219.4928 H   0  0  0  0  0  0  0  0  0  0  0  0
  144.1990   75.9355  217.6820 H   0  0  0  0  0  0  0  0  0  0  0  0
  141.9498   76.5717  217.6847 H   0  0  0  0  0  0  0  0  0  0  0  0
  143.2710   78.3430  219.6560 H   0  0  0  0  0  0  0  0  0  0  0  0
  143.6550   78.2710  217.9910 H   0  0  0  0  0  0  0  0  0  0  0  0
  140.5330   74.8390  219.0390 H   0  0  0  0  0  0  0  0  0  0  0  0
  137.9384   74.6155  221.3154 H   0  0  0  0  0  0  0  0  0  0  0  0
  138.9383   73.5463  220.2811 H   0  0  0  0  0  0  0  0  0  0  0  0
  139.4770   73.6950  223.2810 H   0  0  0  0  0  0  0  0  0  0  0  0
  138.5880   69.2897  222.3333 H   0  0  0  0  0  0  0  0  0  0  0  0
  139.0706   67.8582  224.2951 H   0  0  0  0  0  0  0  0  0  0  0  0
  139.9537   67.5877  226.5658 H   0  0  0  0  0  0  0  0  0  0  0  0
  141.6056   70.9914  228.6181 H   0  0  0  0  0  0  0  0  0  0  0  0
  141.0930   72.3442  226.6332 H   0  0  0  0  0  0  0  0  0  0  0  0
  1  2  1  0
  2  3  1  0
  3  4  1  0
  4  5  1  0
  5  6  1  0
  5  7  1  0
  7  8  2  0
  7  9  1  0
  9 10  1  0
 10 11  2  0
 10 12  1  0
 12 13  1  0
 13 14  1  0
 14 15  2  0
 14 16  1  0
 16 17  2  0
 17 18  1  0
 18 19  2  0
 19 20  1  0
 20 21  2  0
 21 22  1  0
 21 23  1  0
 23 24  2  0
 24 25  1  0
 25 26  2  0
 26 16  1  0
 25 19  1  0
  1 27  1  0
  1 28  1  0
  1 29  1  0
  3 30  1  0
  3 31  1  0
  4 32  1  0
  4 33  1  0
  5 34  1  6
  6 35  1  0
  6 36  1  0
  9 37  1  0
 12 38  1  0
 12 39  1  0
 13 40  1  0
 17 41  1  0
 18 42  1  0
 20 43  1  0
 23 44  1  0
 24 45  1  0
M  END
>  <smiles>  (42) 
CSCC[C@H](N)C(=O)NC(=O)CNC(=O)c1ccc2cc(Cl)ccc2n1

>  <score_type>  (42) 
oracle

>  <origin>  (42) 
autodockgpu

>  <m_score__min__energy>  (42) 
-7.8499999999999996

>  <m_primary>  (42) 
energy

>  <rmsd>  (42) 
1.77513922949594

>  <m_score__min__rmsd>  (42) 
1.77513922949594

>  <meeko>  (42) 
{"free_energy": -6.5, "intermolecular_energy": -8.89, "internal_energy": -2.13, "cluster_size": 13, "cluster_id": 3, "rank_in_cluster": 8}

>  <energy>  (42) 
-6.7

>  <cluster_rmsd>  (42) 
0.41

>  <cluster>  (42) 
4

$$$$

     RDKit          3D

 45 46  0  0  0  0  0  0  0  0999 V2000
  141.1120   80.9390  220.4690 C   0  0  0  0  0  0  0  0  0  0  0  0
  141.4250   82.0900  221.8470 S   0  0  0  0  0  0  0  0  0  0  0  0
  141.2250   81.1810  223.3890 C   0  0  0  0  0  0  0  0  0  0  0  0
  140.7060   79.7790  223.1750 C   0  0  0  0  0  0  0  0  0  0  0  0
  141.7840   78.7460  223.0780 C   0  0  2  0  0  0  0  0  0  0  0  0
  143.0580   79.3590  222.7210 N   0  0  0  0  0  0  0  0  0  0  0  0
  141.4190   77.8230  221.9750 C   0  0  0  0  0  0  0  0  0  0  0  0
  142.1330   77.9080  220.9190 O   0  0  0  0  0  0  0  0  0  0  0  0
  140.3600   76.8920  222.0390 N   0  0  0  0  0  0  0  0  0  0  0  0
  140.0870   76.0410  220.9150 C   0  0  0  0  0  0  0  0  0  0  0  0
  140.8330   76.1810  219.9050 O   0  0  0  0  0  0  0  0  0  0  0  0
  138.9720   75.0490  220.9590 C   0  0  0  0  0  0  0  0  0  0  0  0
  139.1950   74.1490  222.0490 N   0  0  0  0  0  0  0  0  0  0  0  0
  139.3970   72.7600  221.7250 C   0  0  0  0  0  0  0  0  0  0  0  0
  139.3800   72.3540  220.5370 O   0  0  0  0  0  0  0  0  0  0  0  0
  139.6260   71.8390  222.8550 C   0  0  0  0  0  0  0  0  0  0  0  0
  139.2970   70.5000  222.6640 C   0  0  0  0  0  0  0  0  0  0  0  0
  139.5140   69.6470  223.7240 C   0  0  0  0  0  0  0  0  0  0  0  0
  140.0300   70.0580  224.9340 C   0  0  0  0  0  0  0  0  0  0  0  0
  140.2550   69.2340  226.0000 C   0  0  0  0  0  0  0  0  0  0  0  0
  140.7760   69.6750  227.2070 C   0  0  0  0  0  0  0  0  0  0  0  0
  141.0340   68.5610  228.5210 Cl  0  0  0  0  0  0  0  0  0  0  0  0
  141.0840   71.0330  227.3300 C   0  0  0  0  0  0  0  0  0  0  0  0
  140.8520   71.8470  226.2500 C   0  0  0  0  0  0  0  0  0  0  0  0
  140.3340   71.4050  225.0510 C   0  0  0  0  0  0  0  0  0  0  0  0
  140.1310   72.2600  224.0280 N   0  0  0  0  0  0  0  0  0  0  0  0
  140.8433   79.9508  220.8705 H   0  0  0  0  0  0  0  0  0  0  0  0
  140.2852   81.3215  219.8524 H   0  0  0  0  0  0  0  0  0  0  0  0
  142.0186   80.8501  219.8524 H   0  0  0  0  0  0  0  0  0  0  0  0
  142.2014   81.1220  223.8921 H   0  0  0  0  0  0  0  0  0  0  0  0
  140.4854   81.7200  223.9993 H   0  0  0  0  0  0  0  0  0  0  0  0
  140.0508   79.5187  224.0194 H   0  0  0  0  0  0  0  0  0  0  0  0
  140.1723   79.7775  222.2131 H   0  0  0  0  0  0  0  0  0  0  0  0
  141.8813   78.2334  224.0464 H   0  0  0  0  0  0  0  0  0  0  0  0
  143.8080   78.6430  222.7170 H   0  0  0  0  0  0  0  0  0  0  0  0
  142.9330   79.7560  221.7580 H   0  0  0  0  0  0  0  0  0  0  0  0
  139.7870   76.8390  222.9170 H   0  0  0  0  0  0  0  0  0  0  0  0
  138.0162   75.5740  221.1033 H   0  0  0  0  0  0  0  0  0  0  0  0
  138.9351   74.4876  220.0137 H   0  0  0  0  0  0  0  0  0  0  0  0
  139.2190   74.4420  223.0620 H   0  0  0  0  0  0  0  0  0  0  0  0
  138.8829   70.1395  221.7108 H   0  0  0  0  0  0  0  0  0  0  0  0
  139.2626   68.5836  223.5980 H   0  0  0  0  0  0  0  0  0  0  0  0
  140.0105   68.1666  225.8956 H   0  0  0  0  0  0  0  0  0  0  0  0
  141.5000   71.4370  228.2647 H   0  0  0  0  0  0  0  0  0  0  0  0
  141.0937   72.9158  226.3465 H   0  0  0  0  0  0  0  0  0  0  0  0
  1  2  1  0
  2  3  1  0
  3  4  1  0
  4  5  1  0
  5  6  1  0
  5  7  1  0
  7  8  2  0
  7  9  1  0
  9 10  1  0
 10 11  2  0
 10 12  1  0
 12 13  1  0
 13 14  1  0
 14 15  2  0
 14 16  1  0
 16 17  2  0
 17 18  1  0
 18 19  2  0
 19 20  1  0
 20 21  2  0
 21 22  1  0
 21 23  1  0
 23 24  2  0
 24 25  1  0
 25 26  2  0
 26 16  1  0
 25 19  1  0
  1 27  1  0
  1 28  1  0
  1 29  1  0
  3 30  1  0
  3 31  1  0
  4 32  1  0
  4 33  1  0
  5 34  1  1
  6 35  1  0
  6 36  1  0
  9 37  1  0
 12 38  1  0
 12 39  1  0
 13 40  1  0
 17 41  1  0
 18 42  1  0
 20 43  1  0
 23 44  1  0
 24 45  1  0
M  END
>  <smiles>  (43) 
CSCC[C@H](N)C(=O)NC(=O)CNC(=O)c1ccc2cc(Cl)ccc2n1

>  <score_type>  (43) 
oracle

>  <origin>  (43) 
autodockgpu

>  <m_score__min__energy>  (43) 
-7.8499999999999996

>  <m_primary>  (43) 
energy

>  <rmsd>  (43) 
3.247067814015468

>  <m_score__min__rmsd>  (43) 
3.247067814015468

>  <meeko>  (43) 
{"free_energy": -7.23, "intermolecular_energy": -9.62, "internal_energy": -2.19, "cluster_size": 22, "cluster_id": 1, "rank_in_cluster": 8}

>  <energy>  (43) 
-6.41

>  <cluster_rmsd>  (43) 
0.0

>  <cluster>  (43) 
5

$$$$

     RDKit          3D

 45 46  0  0  0  0  0  0  0  0999 V2000
  133.8670   76.0140  226.8350 C   0  0  0  0  0  0  0  0  0  0  0  0
  133.3410   74.5160  225.9410 S   0  0  0  0  0  0  0  0  0  0  0  0
  134.6250   74.0980  224.7500 C   0  0  0  0  0  0  0  0  0  0  0  0
  135.7990   75.0470  224.8020 C   0  0  0  0  0  0  0  0  0  0  0  0
  135.8200   76.0420  223.6850 C   0  0  2  0  0  0  0  0  0  0  0  0
  134.5720   76.7940  223.6390 N   0  0  0  0  0  0  0  0  0  0  0  0
  135.9190   75.2820  222.4140 C   0  0  0  0  0  0  0  0  0  0  0  0
  134.9250   75.3930  221.6190 O   0  0  0  0  0  0  0  0  0  0  0  0
  137.0210   74.4740  222.0580 N   0  0  0  0  0  0  0  0  0  0  0  0
  137.0210   73.7780  220.8020 C   0  0  0  0  0  0  0  0  0  0  0  0
  136.0050   73.9340  220.0690 O   0  0  0  0  0  0  0  0  0  0  0  0
  138.1740   72.9180  220.4050 C   0  0  0  0  0  0  0  0  0  0  0  0
  138.4530   71.9970  221.4640 N   0  0  0  0  0  0  0  0  0  0  0  0
  139.3380   72.4440  222.5100 C   0  0  0  0  0  0  0  0  0  0  0  0
  139.8420   73.5940  222.4950 O   0  0  0  0  0  0  0  0  0  0  0  0
  139.6200   71.4880  223.5980 C   0  0  0  0  0  0  0  0  0  0  0  0
  139.3220   70.1480  223.3620 C   0  0  0  0  0  0  0  0  0  0  0  0
  139.5880   69.2620  224.3840 C   0  0  0  0  0  0  0  0  0  0  0  0
  140.1220   69.6410  225.5970 C   0  0  0  0  0  0  0  0  0  0  0  0
  140.3950   68.7840  226.6240 C   0  0  0  0  0  0  0  0  0  0  0  0
  140.9330   69.1930  227.8340 C   0  0  0  0  0  0  0  0  0  0  0  0
  141.2540   68.0370  229.0980 Cl  0  0  0  0  0  0  0  0  0  0  0  0
  141.2080   70.5530  228.0030 C   0  0  0  0  0  0  0  0  0  0  0  0
  140.9280   71.4010  226.9610 C   0  0  0  0  0  0  0  0  0  0  0  0
  140.3920   70.9910  225.7580 C   0  0  0  0  0  0  0  0  0  0  0  0
  140.1420   71.8780  224.7740 N   0  0  0  0  0  0  0  0  0  0  0  0
  133.8043   75.8353  227.9186 H   0  0  0  0  0  0  0  0  0  0  0  0
  134.9046   76.2580  226.5631 H   0  0  0  0  0  0  0  0  0  0  0  0
  133.2097   76.8531  226.5631 H   0  0  0  0  0  0  0  0  0  0  0  0
  134.9850   73.0807  224.9631 H   0  0  0  0  0  0  0  0  0  0  0  0
  134.1830   74.1707  223.7454 H   0  0  0  0  0  0  0  0  0  0  0  0
  135.7598   75.5956  225.7546 H   0  0  0  0  0  0  0  0  0  0  0  0
  136.7091   74.4369  224.7052 H   0  0  0  0  0  0  0  0  0  0  0  0
  136.6616   76.7347  223.8330 H   0  0  0  0  0  0  0  0  0  0  0  0
  134.6060   77.4930  222.8730 H   0  0  0  0  0  0  0  0  0  0  0  0
  133.8130   76.0930  223.4530 H   0  0  0  0  0  0  0  0  0  0  0  0
  137.8270   74.3970  222.7260 H   0  0  0  0  0  0  0  0  0  0  0  0
  137.9221   72.3625  219.4896 H   0  0  0  0  0  0  0  0  0  0  0  0
  139.0576   73.5448  220.2145 H   0  0  0  0  0  0  0  0  0  0  0  0
  138.0540   71.0230  221.5210 H   0  0  0  0  0  0  0  0  0  0  0  0
  138.8947   69.8127  222.4055 H   0  0  0  0  0  0  0  0  0  0  0  0
  139.3624   68.1974  224.2232 H   0  0  0  0  0  0  0  0  0  0  0  0
  140.1770   67.7149  226.4841 H   0  0  0  0  0  0  0  0  0  0  0  0
  141.6359   70.9321  228.9428 H   0  0  0  0  0  0  0  0  0  0  0  0
  141.1439   72.4715  227.0930 H   0  0  0  0  0  0  0  0  0  0  0  0
  1  2  1  0
  2  3  1  0
  3  4  1  0
  4  5  1  0
  5  6  1  0
  5  7  1  0
  7  8  2  0
  7  9  1  0
  9 10  1  0
 10 11  2  0
 10 12  1  0
 12 13  1  0
 13 14  1  0
 14 15  2  0
 14 16  1  0
 16 17  2  0
 17 18  1  0
 18 19  2  0
 19 20  1  0
 20 21  2  0
 21 22  1  0
 21 23  1  0
 23 24  2  0
 24 25  1  0
 25 26  2  0
 26 16  1  0
 25 19  1  0
  1 27  1  0
  1 28  1  0
  1 29  1  0
  3 30  1  0
  3 31  1  0
  4 32  1  0
  4 33  1  0
  5 34  1  1
  6 35  1  0
  6 36  1  0
  9 37  1  0
 12 38  1  0
 12 39  1  0
 13 40  1  0
 17 41  1  0
 18 42  1  0
 20 43  1  0
 23 44  1  0
 24 45  1  0
M  END
>  <smiles>  (44) 
CSCC[C@H](N)C(=O)NC(=O)CNC(=O)c1ccc2cc(Cl)ccc2n1

>  <score_type>  (44) 
oracle

>  <origin>  (44) 
autodockgpu

>  <m_score__min__energy>  (44) 
-7.8499999999999996

>  <m_primary>  (44) 
energy

>  <rmsd>  (44) 
4.2513026423383025

>  <m_score__min__rmsd>  (44) 
4.2513026423383025

>  <meeko>  (44) 
{"free_energy": -5.72, "intermolecular_energy": -8.11, "internal_energy": -2.72, "cluster_size": 1, "cluster_id": 10, "rank_in_cluster": 1}

>  <energy>  (44) 
-6.36

>  <cluster_rmsd>  (44) 
0.65

>  <cluster>  (44) 
5

$$$$

     RDKit          3D

 45 46  0  0  0  0  0  0  0  0999 V2000
  140.2100   71.8690  228.4360 C   0  0  0  0  0  0  0  0  0  0  0  0
  141.4140   72.2530  227.1240 S   0  0  0  0  0  0  0  0  0  0  0  0
  141.4280   70.8800  225.9590 C   0  0  0  0  0  0  0  0  0  0  0  0
  141.4490   69.5340  226.6460 C   0  0  0  0  0  0  0  0  0  0  0  0
  140.0910   69.0250  227.0140 C   0  0  2  0  0  0  0  0  0  0  0  0
  140.1810   67.7040  227.6230 N   0  0  0  0  0  0  0  0  0  0  0  0
  139.3150   68.8750  225.7580 C   0  0  0  0  0  0  0  0  0  0  0  0
  139.0550   67.6760  225.4030 O   0  0  0  0  0  0  0  0  0  0  0  0
  138.8700   69.9570  224.9680 N   0  0  0  0  0  0  0  0  0  0  0  0
  138.1250   69.7070  223.7660 C   0  0  0  0  0  0  0  0  0  0  0  0
  137.9060   68.4970  223.4790 O   0  0  0  0  0  0  0  0  0  0  0  0
  137.6440   70.8350  222.9150 C   0  0  0  0  0  0  0  0  0  0  0  0
  136.8270   71.7000  223.7100 N   0  0  0  0  0  0  0  0  0  0  0  0
  135.6140   71.1440  224.2540 C   0  0  0  0  0  0  0  0  0  0  0  0
  135.2870   69.9500  224.0420 O   0  0  0  0  0  0  0  0  0  0  0  0
  134.7780   72.0440  225.0720 C   0  0  0  0  0  0  0  0  0  0  0  0
  133.7840   71.4580  225.8510 C   0  0  0  0  0  0  0  0  0  0  0  0
  133.0080   72.3050  226.6120 C   0  0  0  0  0  0  0  0  0  0  0  0
  133.1730   73.6740  226.6290 C   0  0  0  0  0  0  0  0  0  0  0  0
  132.4180   74.5350  227.3730 C   0  0  0  0  0  0  0  0  0  0  0  0
  132.6060   75.9080  227.3720 C   0  0  0  0  0  0  0  0  0  0  0  0
  131.6010   76.9420  228.3490 Cl  0  0  0  0  0  0  0  0  0  0  0  0
  133.6220   76.4290  226.5660 C   0  0  0  0  0  0  0  0  0  0  0  0
  134.3720   75.5500  225.8250 C   0  0  0  0  0  0  0  0  0  0  0  0
  134.1820   74.1840  225.8280 C   0  0  0  0  0  0  0  0  0  0  0  0
  134.9560   73.3760  225.0750 N   0  0  0  0  0  0  0  0  0  0  0  0
  140.6793   72.0187  229.4196 H   0  0  0  0  0  0  0  0  0  0  0  0
  139.3389   72.5339  228.3404 H   0  0  0  0  0  0  0  0  0  0  0  0
  139.8848   70.8226  228.3404 H   0  0  0  0  0  0  0  0  0  0  0  0
  140.5264   70.9412  225.3318 H   0  0  0  0  0  0  0  0  0  0  0  0
  142.3464   70.9619  225.3592 H   0  0  0  0  0  0  0  0  0  0  0  0
  141.9210   68.8062  225.9696 H   0  0  0  0  0  0  0  0  0  0  0  0
  142.0098   69.6606  227.5838 H   0  0  0  0  0  0  0  0  0  0  0  0
  139.6227   69.7250  227.7215 H   0  0  0  0  0  0  0  0  0  0  0  0
  139.2440   67.3940  227.9430 H   0  0  0  0  0  0  0  0  0  0  0  0
  140.5370   67.0600  226.8750 H   0  0  0  0  0  0  0  0  0  0  0  0
  139.0960   70.9350  225.2780 H   0  0  0  0  0  0  0  0  0  0  0  0
  138.5056   71.3966  222.5248 H   0  0  0  0  0  0  0  0  0  0  0  0
  137.0587   70.4416  222.0708 H   0  0  0  0  0  0  0  0  0  0  0  0
  137.0590   72.7070  223.9160 H   0  0  0  0  0  0  0  0  0  0  0  0
  133.6255   70.3695  225.8586 H   0  0  0  0  0  0  0  0  0  0  0  0
  132.2166   71.8668  227.2378 H   0  0  0  0  0  0  0  0  0  0  0  0
  131.6203   74.1176  228.0050 H   0  0  0  0  0  0  0  0  0  0  0  0
  133.8149   77.5112  226.5266 H   0  0  0  0  0  0  0  0  0  0  0  0
  135.1722   75.9595  225.1910 H   0  0  0  0  0  0  0  0  0  0  0  0
  1  2  1  0
  2  3  1  0
  3  4  1  0
  4  5  1  0
  5  6  1  0
  5  7  1  0
  7  8  2  0
  7  9  1  0
  9 10  1  0
 10 11  2  0
 10 12  1  0
 12 13  1  0
 13 14  1  0
 14 15  2  0
 14 16  1  0
 16 17  2  0
 17 18  1  0
 18 19  2  0
 19 20  1  0
 20 21  2  0
 21 22  1  0
 21 23  1  0
 23 24  2  0
 24 25  1  0
 25 26  2  0
 26 16  1  0
 25 19  1  0
  1 27  1  0
  1 28  1  0
  1 29  1  0
  3 30  1  0
  3 31  1  0
  4 32  1  0
  4 33  1  0
  5 34  1  1
  6 35  1  0
  6 36  1  0
  9 37  1  0
 12 38  1  0
 12 39  1  0
 13 40  1  0
 17 41  1  0
 18 42  1  0
 20 43  1  0
 23 44  1  0
 24 45  1  0
M  END
>  <smiles>  (45) 
CSCC[C@H](N)C(=O)NC(=O)CNC(=O)c1ccc2cc(Cl)ccc2n1

>  <score_type>  (45) 
oracle

>  <origin>  (45) 
autodockgpu

>  <m_score__min__energy>  (45) 
-7.8499999999999996

>  <m_primary>  (45) 
energy

>  <rmsd>  (45) 
8.052141147368934

>  <m_score__min__rmsd>  (45) 
8.052141147368934

>  <meeko>  (45) 
{"free_energy": -7.19, "intermolecular_energy": -9.58, "internal_energy": -2.2, "cluster_size": 5, "cluster_id": 2, "rank_in_cluster": 2}

>  <energy>  (45) 
-6.29

>  <cluster_rmsd>  (45) 
0.0

>  <cluster>  (45) 
6

$$$$

     RDKit          3D

 45 46  0  0  0  0  0  0  0  0999 V2000
  142.1540   80.3000  218.7460 C   0  0  0  0  0  0  0  0  0  0  0  0
  141.4560   81.1080  220.2230 S   0  0  0  0  0  0  0  0  0  0  0  0
  140.2100   80.0110  220.9230 C   0  0  0  0  0  0  0  0  0  0  0  0
  140.4000   79.7850  222.4040 C   0  0  0  0  0  0  0  0  0  0  0  0
  141.3830   78.7050  222.7280 C   0  0  2  0  0  0  0  0  0  0  0  0
  142.7480   79.1630  222.5010 N   0  0  0  0  0  0  0  0  0  0  0  0
  141.1380   77.5830  221.7870 C   0  0  0  0  0  0  0  0  0  0  0  0
  142.0380   77.3910  220.9020 O   0  0  0  0  0  0  0  0  0  0  0  0
  139.9980   76.7500  221.8280 N   0  0  0  0  0  0  0  0  0  0  0  0
  139.8540   75.6890  220.8710 C   0  0  0  0  0  0  0  0  0  0  0  0
  140.7830   75.5600  220.0250 O   0  0  0  0  0  0  0  0  0  0  0  0
  138.6580   74.7970  220.8940 C   0  0  0  0  0  0  0  0  0  0  0  0
  138.7800   73.8860  221.9910 N   0  0  0  0  0  0  0  0  0  0  0  0
  139.7380   72.8190  221.8570 C   0  0  0  0  0  0  0  0  0  0  0  0
  140.4400   72.6920  220.8230 O   0  0  0  0  0  0  0  0  0  0  0  0
  139.8570   71.8840  222.9930 C   0  0  0  0  0  0  0  0  0  0  0  0
  139.4230   70.5760  222.7920 C   0  0  0  0  0  0  0  0  0  0  0  0
  139.5360   69.7110  223.8580 C   0  0  0  0  0  0  0  0  0  0  0  0
  140.0500   70.0800  225.0820 C   0  0  0  0  0  0  0  0  0  0  0  0
  140.1740   69.2420  226.1540 C   0  0  0  0  0  0  0  0  0  0  0  0
  140.6950   69.6400  227.3750 C   0  0  0  0  0  0  0  0  0  0  0  0
  140.8210   68.5110  228.6960 Cl  0  0  0  0  0  0  0  0  0  0  0  0
  141.1120   70.9670  227.5080 C   0  0  0  0  0  0  0  0  0  0  0  0
  140.9810   71.7960  226.4220 C   0  0  0  0  0  0  0  0  0  0  0  0
  140.4620   71.3970  225.2080 C   0  0  0  0  0  0  0  0  0  0  0  0
  140.3610   72.2640  224.1800 N   0  0  0  0  0  0  0  0  0  0  0  0
  142.8439   79.5014  219.0564 H   0  0  0  0  0  0  0  0  0  0  0  0
  141.3401   79.8683  218.1451 H   0  0  0  0  0  0  0  0  0  0  0  0
  142.6994   81.0426  218.1451 H   0  0  0  0  0  0  0  0  0  0  0  0
  139.2173   80.4556  220.7591 H   0  0  0  0  0  0  0  0  0  0  0  0
  140.3060   79.0361  220.4226 H   0  0  0  0  0  0  0  0  0  0  0  0
  140.7542   80.7234  222.8555 H   0  0  0  0  0  0  0  0  0  0  0  0
  139.4277   79.4651  222.8069 H   0  0  0  0  0  0  0  0  0  0  0  0
  141.2633   78.4113  223.7813 H   0  0  0  0  0  0  0  0  0  0  0  0
  143.4170   78.3880  222.6700 H   0  0  0  0  0  0  0  0  0  0  0  0
  142.7940   79.4670  221.4980 H   0  0  0  0  0  0  0  0  0  0  0  0
  139.2710   76.9260  222.5640 H   0  0  0  0  0  0  0  0  0  0  0  0
  137.7480   75.4027  221.0165 H   0  0  0  0  0  0  0  0  0  0  0  0
  138.5929   74.2366  219.9497 H   0  0  0  0  0  0  0  0  0  0  0  0
  138.2150   73.9510  222.8780 H   0  0  0  0  0  0  0  0  0  0  0  0
  139.0092   70.2488  221.8267 H   0  0  0  0  0  0  0  0  0  0  0  0
  139.1986   68.6725  223.7253 H   0  0  0  0  0  0  0  0  0  0  0  0
  139.8436   68.1988  226.0423 H   0  0  0  0  0  0  0  0  0  0  0  0
  141.5327   71.3363  228.4549 H   0  0  0  0  0  0  0  0  0  0  0  0
  141.3094   72.8407  226.5260 H   0  0  0  0  0  0  0  0  0  0  0  0
  1  2  1  0
  2  3  1  0
  3  4  1  0
  4  5  1  0
  5  6  1  0
  5  7  1  0
  7  8  2  0
  7  9  1  0
  9 10  1  0
 10 11  2  0
 10 12  1  0
 12 13  1  0
 13 14  1  0
 14 15  2  0
 14 16  1  0
 16 17  2  0
 17 18  1  0
 18 19  2  0
 19 20  1  0
 20 21  2  0
 21 22  1  0
 21 23  1  0
 23 24  2  0
 24 25  1  0
 25 26  2  0
 26 16  1  0
 25 19  1  0
  1 27  1  0
  1 28  1  0
  1 29  1  0
  3 30  1  0
  3 31  1  0
  4 32  1  0
  4 33  1  0
  5 34  1  1
  6 35  1  0
  6 36  1  0
  9 37  1  0
 12 38  1  0
 12 39  1  0
 13 40  1  0
 17 41  1  0
 18 42  1  0
 20 43  1  0
 23 44  1  0
 24 45  1  0
M  END
>  <smiles>  (46) 
CSCC[C@H](N)C(=O)NC(=O)CNC(=O)c1ccc2cc(Cl)ccc2n1

>  <score_type>  (46) 
oracle

>  <origin>  (46) 
autodockgpu

>  <m_score__min__energy>  (46) 
-7.8499999999999996

>  <m_primary>  (46) 
energy

>  <rmsd>  (46) 
2.955621000323092

>  <m_score__min__rmsd>  (46) 
2.955621000323092

>  <meeko>  (46) 
{"free_energy": -6.92, "intermolecular_energy": -9.31, "internal_energy": -2.11, "cluster_size": 22, "cluster_id": 1, "rank_in_cluster": 18}

>  <energy>  (46) 
-6.18

>  <cluster_rmsd>  (46) 
0.0

>  <cluster>  (46) 
7

$$$$

     RDKit          3D

 45 46  0  0  0  0  0  0  0  0999 V2000
  142.8930   80.5000  223.2890 C   0  0  0  0  0  0  0  0  0  0  0  0
  141.7900   79.1230  223.7450 S   0  0  0  0  0  0  0  0  0  0  0  0
  140.3260   79.2130  222.7000 C   0  0  0  0  0  0  0  0  0  0  0  0
  139.5800   77.9010  222.6300 C   0  0  0  0  0  0  0  0  0  0  0  0
  140.3780   76.7860  222.0310 C   0  0  2  0  0  0  0  0  0  0  0  0
  141.4020   77.3060  221.1330 N   0  0  0  0  0  0  0  0  0  0  0  0
  139.4520   75.9670  221.2090 C   0  0  0  0  0  0  0  0  0  0  0  0
  139.3680   76.2900  219.9760 O   0  0  0  0  0  0  0  0  0  0  0  0
  138.6890   74.8900  221.7100 N   0  0  0  0  0  0  0  0  0  0  0  0
  137.8200   74.1590  220.8320 C   0  0  0  0  0  0  0  0  0  0  0  0
  137.7890   74.5340  219.6260 O   0  0  0  0  0  0  0  0  0  0  0  0
  137.0050   73.0170  221.3400 C   0  0  0  0  0  0  0  0  0  0  0  0
  137.6100   72.5090  222.5330 N   0  0  0  0  0  0  0  0  0  0  0  0
  138.7140   71.5970  222.3750 C   0  0  0  0  0  0  0  0  0  0  0  0
  139.1310   71.2620  221.2390 O   0  0  0  0  0  0  0  0  0  0  0  0
  139.3310   71.0790  223.6110 C   0  0  0  0  0  0  0  0  0  0  0  0
  140.3090   71.8660  224.2150 C   0  0  0  0  0  0  0  0  0  0  0  0
  140.8800   71.3740  225.3680 C   0  0  0  0  0  0  0  0  0  0  0  0
  140.5310   70.1650  225.9310 C   0  0  0  0  0  0  0  0  0  0  0  0
  141.0810   69.6560  227.0730 C   0  0  0  0  0  0  0  0  0  0  0  0
  140.7100   68.4360  227.6180 C   0  0  0  0  0  0  0  0  0  0  0  0
  141.4590   67.8540  229.0790 Cl  0  0  0  0  0  0  0  0  0  0  0  0
  139.7220   67.6980  226.9610 C   0  0  0  0  0  0  0  0  0  0  0  0
  139.1790   68.2240  225.8150 C   0  0  0  0  0  0  0  0  0  0  0  0
  139.5510   69.4380  225.2750 C   0  0  0  0  0  0  0  0  0  0  0  0
  138.9760   69.8970  224.1450 N   0  0  0  0  0  0  0  0  0  0  0  0
  143.2772   80.9796  224.2013 H   0  0  0  0  0  0  0  0  0  0  0  0
  143.7348   80.1143  222.6952 H   0  0  0  0  0  0  0  0  0  0  0  0
  142.3328   81.2373  222.6952 H   0  0  0  0  0  0  0  0  0  0  0  0
  139.6507   79.9810  223.1052 H   0  0  0  0  0  0  0  0  0  0  0  0
  140.6588   79.4616  221.6814 H   0  0  0  0  0  0  0  0  0  0  0  0
  139.2906   77.6113  223.6509 H   0  0  0  0  0  0  0  0  0  0  0  0
  138.7099   78.0607  221.9762 H   0  0  0  0  0  0  0  0  0  0  0  0
  140.8546   76.2093  222.8374 H   0  0  0  0  0  0  0  0  0  0  0  0
  142.3100   77.3720  221.6290 H   0  0  0  0  0  0  0  0  0  0  0  0
  141.4720   76.6230  220.3400 H   0  0  0  0  0  0  0  0  0  0  0  0
  138.7730   74.6430  222.7270 H   0  0  0  0  0  0  0  0  0  0  0  0
  135.9843   73.3619  221.5618 H   0  0  0  0  0  0  0  0  0  0  0  0
  136.9600   72.2242  220.5788 H   0  0  0  0  0  0  0  0  0  0  0  0
  137.2960   72.7610  223.5070 H   0  0  0  0  0  0  0  0  0  0  0  0
  140.6112   72.8350  223.7910 H   0  0  0  0  0  0  0  0  0  0  0  0
  141.6543   71.9768  225.8651 H   0  0  0  0  0  0  0  0  0  0  0  0
  141.8569   70.2432  227.5860 H   0  0  0  0  0  0  0  0  0  0  0  0
  139.3892   66.7246  227.3504 H   0  0  0  0  0  0  0  0  0  0  0  0
  138.4016   67.6434  225.2968 H   0  0  0  0  0  0  0  0  0  0  0  0
  1  2  1  0
  2  3  1  0
  3  4  1  0
  4  5  1  0
  5  6  1  0
  5  7  1  0
  7  8  2  0
  7  9  1  0
  9 10  1  0
 10 11  2  0
 10 12  1  0
 12 13  1  0
 13 14  1  0
 14 15  2  0
 14 16  1  0
 16 17  2  0
 17 18  1  0
 18 19  2  0
 19 20  1  0
 20 21  2  0
 21 22  1  0
 21 23  1  0
 23 24  2  0
 24 25  1  0
 25 26  2  0
 26 16  1  0
 25 19  1  0
  1 27  1  0
  1 28  1  0
  1 29  1  0
  3 30  1  0
  3 31  1  0
  4 32  1  0
  4 33  1  0
  5 34  1  1
  6 35  1  0
  6 36  1  0
  9 37  1  0
 12 38  1  0
 12 39  1  0
 13 40  1  0
 17 41  1  0
 18 42  1  0
 20 43  1  0
 23 44  1  0
 24 45  1  0
M  END
>  <smiles>  (47) 
CSCC[C@H](N)C(=O)NC(=O)CNC(=O)c1ccc2cc(Cl)ccc2n1

>  <score_type>  (47) 
oracle

>  <origin>  (47) 
autodockgpu

>  <m_score__min__energy>  (47) 
-7.8499999999999996

>  <m_primary>  (47) 
energy

>  <rmsd>  (47) 
3.4585057762846603

>  <m_score__min__rmsd>  (47) 
3.4585057762846603

>  <meeko>  (47) 
{"free_energy": -7.12, "intermolecular_energy": -9.51, "internal_energy": -1.79, "cluster_size": 22, "cluster_id": 1, "rank_in_cluster": 12}

>  <energy>  (47) 
-5.89

>  <cluster_rmsd>  (47) 
0.0

>  <cluster>  (47) 
8

$$$$

     RDKit          3D

 45 46  0  0  0  0  0  0  0  0999 V2000
  138.0770   80.7660  224.2210 C   0  0  0  0  0  0  0  0  0  0  0  0
  138.8180   81.4670  222.7120 S   0  0  0  0  0  0  0  0  0  0  0  0
  140.6020   81.2450  222.8120 C   0  0  0  0  0  0  0  0  0  0  0  0
  141.0640   79.9530  222.1790 C   0  0  0  0  0  0  0  0  0  0  0  0
  140.8920   78.7560  223.0600 C   0  0  2  0  0  0  0  0  0  0  0  0
  142.1840   78.2590  223.5160 N   0  0  0  0  0  0  0  0  0  0  0  0
  140.2760   77.6840  222.2390 C   0  0  0  0  0  0  0  0  0  0  0  0
  139.0560   77.8670  221.9080 O   0  0  0  0  0  0  0  0  0  0  0  0
  140.9530   76.5170  221.8240 N   0  0  0  0  0  0  0  0  0  0  0  0
  140.2670   75.5360  221.0300 C   0  0  0  0  0  0  0  0  0  0  0  0
  139.0630   75.7850  220.7410 O   0  0  0  0  0  0  0  0  0  0  0  0
  140.9620   74.2950  220.5800 C   0  0  0  0  0  0  0  0  0  0  0  0
  141.0150   73.3710  221.6710 N   0  0  0  0  0  0  0  0  0  0  0  0
  139.8370   72.5790  221.9200 C   0  0  0  0  0  0  0  0  0  0  0  0
  138.8070   72.6930  221.2110 O   0  0  0  0  0  0  0  0  0  0  0  0
  139.9000   71.6280  223.0480 C   0  0  0  0  0  0  0  0  0  0  0  0
  139.4050   70.3460  222.8290 C   0  0  0  0  0  0  0  0  0  0  0  0
  139.4670   69.4650  223.8870 C   0  0  0  0  0  0  0  0  0  0  0  0
  139.9880   69.7960  225.1190 C   0  0  0  0  0  0  0  0  0  0  0  0
  140.0620   68.9430  226.1830 C   0  0  0  0  0  0  0  0  0  0  0  0
  140.5910   69.3030  227.4130 C   0  0  0  0  0  0  0  0  0  0  0  0
  140.6510   68.1560  228.7220 Cl  0  0  0  0  0  0  0  0  0  0  0  0
  141.0710   70.6070  227.5630 C   0  0  0  0  0  0  0  0  0  0  0  0
  140.9890   71.4520  226.4840 C   0  0  0  0  0  0  0  0  0  0  0  0
  140.4620   71.0900  225.2620 C   0  0  0  0  0  0  0  0  0  0  0  0
  140.4120   71.9710  224.2420 N   0  0  0  0  0  0  0  0  0  0  0  0
  138.5520   81.2154  225.1056 H   0  0  0  0  0  0  0  0  0  0  0  0
  136.9985   80.9821  224.2344 H   0  0  0  0  0  0  0  0  0  0  0  0
  138.2330   79.6772  224.2344 H   0  0  0  0  0  0  0  0  0  0  0  0
  141.0908   82.0845  222.2959 H   0  0  0  0  0  0  0  0  0  0  0  0
  140.8738   81.2095  223.8773 H   0  0  0  0  0  0  0  0  0  0  0  0
  140.4857   79.7917  221.2573 H   0  0  0  0  0  0  0  0  0  0  0  0
  142.1418   80.0574  221.9856 H   0  0  0  0  0  0  0  0  0  0  0  0
  140.2772   79.0320  223.9294 H   0  0  0  0  0  0  0  0  0  0  0  0
  142.1590   77.2250  223.5960 H   0  0  0  0  0  0  0  0  0  0  0  0
  142.8830   78.5470  222.7890 H   0  0  0  0  0  0  0  0  0  0  0  0
  141.9560   76.3870  222.1080 H   0  0  0  0  0  0  0  0  0  0  0  0
  140.4090   73.8454  219.7421 H   0  0  0  0  0  0  0  0  0  0  0  0
  141.9822   74.5389  220.2487 H   0  0  0  0  0  0  0  0  0  0  0  0
  141.8550   73.2390  222.2930 H   0  0  0  0  0  0  0  0  0  0  0  0
  138.9839   70.0497  221.8569 H   0  0  0  0  0  0  0  0  0  0  0  0
  139.0808   68.4455  223.7405 H   0  0  0  0  0  0  0  0  0  0  0  0
  139.6826   67.9181  226.0578 H   0  0  0  0  0  0  0  0  0  0  0  0
  141.5015   70.9461  228.5168 H   0  0  0  0  0  0  0  0  0  0  0  0
  141.3660   72.4787  226.6011 H   0  0  0  0  0  0  0  0  0  0  0  0
  1  2  1  0
  2  3  1  0
  3  4  1  0
  4  5  1  0
  5  6  1  0
  5  7  1  0
  7  8  2  0
  7  9  1  0
  9 10  1  0
 10 11  2  0
 10 12  1  0
 12 13  1  0
 13 14  1  0
 14 15  2  0
 14 16  1  0
 16 17  2  0
 17 18  1  0
 18 19  2  0
 19 20  1  0
 20 21  2  0
 21 22  1  0
 21 23  1  0
 23 24  2  0
 24 25  1  0
 25 26  2  0
 26 16  1  0
 25 19  1  0
  1 27  1  0
  1 28  1  0
  1 29  1  0
  3 30  1  0
  3 31  1  0
  4 32  1  0
  4 33  1  0
  5 34  1  1
  6 35  1  0
  6 36  1  0
  9 37  1  0
 12 38  1  0
 12 39  1  0
 13 40  1  0
 17 41  1  0
 18 42  1  0
 20 43  1  0
 23 44  1  0
 24 45  1  0
M  END
>  <smiles>  (48) 
CSCC[C@H](N)C(=O)NC(=O)CNC(=O)c1ccc2cc(Cl)ccc2n1

>  <score_type>  (48) 
oracle

>  <origin>  (48) 
autodockgpu

>  <m_score__min__energy>  (48) 
-7.8499999999999996

>  <m_primary>  (48) 
energy

>  <rmsd>  (48) 
3.1610572573846736

>  <m_score__min__rmsd>  (48) 
3.1610572573846736

>  <meeko>  (48) 
{"free_energy": -7.01, "intermolecular_energy": -9.39, "internal_energy": -1.56, "cluster_size": 22, "cluster_id": 1, "rank_in_cluster": 14}

>  <energy>  (48) 
-5.85

>  <cluster_rmsd>  (48) 
0.0

>  <cluster>  (48) 
9

$$$$

     RDKit          3D

 45 46  0  0  0  0  0  0  0  0999 V2000
  134.7200   69.9870  224.6540 C   0  0  0  0  0  0  0  0  0  0  0  0
  133.6320   69.6810  226.0830 S   0  0  0  0  0  0  0  0  0  0  0  0
  131.9290   69.9360  225.5530 C   0  0  0  0  0  0  0  0  0  0  0  0
  131.3640   71.2550  226.0250 C   0  0  0  0  0  0  0  0  0  0  0  0
  132.0760   71.8250  227.2110 C   0  0  2  0  0  0  0  0  0  0  0  0
  131.1280   72.4070  228.1530 N   0  0  0  0  0  0  0  0  0  0  0  0
  132.9410   72.9280  226.7240 C   0  0  0  0  0  0  0  0  0  0  0  0
  133.1710   73.8670  227.5600 O   0  0  0  0  0  0  0  0  0  0  0  0
  133.4990   72.9840  225.4280 N   0  0  0  0  0  0  0  0  0  0  0  0
  134.3250   74.0970  225.0520 C   0  0  0  0  0  0  0  0  0  0  0  0
  134.5080   74.9870  225.9300 O   0  0  0  0  0  0  0  0  0  0  0  0
  134.9250   74.1770  223.6890 C   0  0  0  0  0  0  0  0  0  0  0  0
  136.1310   74.9440  223.7560 N   0  0  0  0  0  0  0  0  0  0  0  0
  136.7330   75.3360  222.5080 C   0  0  0  0  0  0  0  0  0  0  0  0
  136.2220   75.0200  221.4050 O   0  0  0  0  0  0  0  0  0  0  0  0
  137.9770   76.1270  222.5870 C   0  0  0  0  0  0  0  0  0  0  0  0
  139.1590   75.4970  222.2080 C   0  0  0  0  0  0  0  0  0  0  0  0
  140.3150   76.2420  222.2860 C   0  0  0  0  0  0  0  0  0  0  0  0
  140.3450   77.5520  222.7140 C   0  0  0  0  0  0  0  0  0  0  0  0
  141.4770   78.3120  222.8000 C   0  0  0  0  0  0  0  0  0  0  0  0
  141.4780   79.6290  223.2350 C   0  0  0  0  0  0  0  0  0  0  0  0
  142.9640   80.5340  223.3170 Cl  0  0  0  0  0  0  0  0  0  0  0  0
  140.2560   80.1990  223.6000 C   0  0  0  0  0  0  0  0  0  0  0  0
  139.1280   79.4220  223.5080 C   0  0  0  0  0  0  0  0  0  0  0  0
  139.1310   78.1120  223.0750 C   0  0  0  0  0  0  0  0  0  0  0  0
  137.9850   77.4040  223.0070 N   0  0  0  0  0  0  0  0  0  0  0  0
  135.7220   70.2688  225.0098 H   0  0  0  0  0  0  0  0  0  0  0  0
  134.7906   69.0739  224.0447 H   0  0  0  0  0  0  0  0  0  0  0  0
  134.3043   70.8031  224.0447 H   0  0  0  0  0  0  0  0  0  0  0  0
  131.8949   69.9115  224.4538 H   0  0  0  0  0  0  0  0  0  0  0  0
  131.3191   69.1351  225.9963 H   0  0  0  0  0  0  0  0  0  0  0  0
  131.4326   71.9777  225.1985 H   0  0  0  0  0  0  0  0  0  0  0  0
  130.3250   71.0673  226.3337 H   0  0  0  0  0  0  0  0  0  0  0  0
  132.6457   71.0264  227.7087 H   0  0  0  0  0  0  0  0  0  0  0  0
  131.6290   73.0040  228.8390 H   0  0  0  0  0  0  0  0  0  0  0  0
  130.4670   72.9900  227.5830 H   0  0  0  0  0  0  0  0  0  0  0  0
  133.2960   72.2020  224.7580 H   0  0  0  0  0  0  0  0  0  0  0  0
  135.1519   73.1638  223.3257 H   0  0  0  0  0  0  0  0  0  0  0  0
  134.2165   74.6575  222.9983 H   0  0  0  0  0  0  0  0  0  0  0  0
  136.5970   75.2340  224.6560 H   0  0  0  0  0  0  0  0  0  0  0  0
  139.1694   74.4528  221.8623 H   0  0  0  0  0  0  0  0  0  0  0  0
  141.2627   75.7673  221.9917 H   0  0  0  0  0  0  0  0  0  0  0  0
  142.4354   77.8567  222.5098 H   0  0  0  0  0  0  0  0  0  0  0  0
  140.1992   81.2400  223.9509 H   0  0  0  0  0  0  0  0  0  0  0  0
  138.1656   79.8700  223.7963 H   0  0  0  0  0  0  0  0  0  0  0  0
  1  2  1  0
  2  3  1  0
  3  4  1  0
  4  5  1  0
  5  6  1  0
  5  7  1  0
  7  8  2  0
  7  9  1  0
  9 10  1  0
 10 11  2  0
 10 12  1  0
 12 13  1  0
 13 14  1  0
 14 15  2  0
 14 16  1  0
 16 17  2  0
 17 18  1  0
 18 19  2  0
 19 20  1  0
 20 21  2  0
 21 22  1  0
 21 23  1  0
 23 24  2  0
 24 25  1  0
 25 26  2  0
 26 16  1  0
 25 19  1  0
  1 27  1  0
  1 28  1  0
  1 29  1  0
  3 30  1  0
  3 31  1  0
  4 32  1  0
  4 33  1  0
  5 34  1  1
  6 35  1  0
  6 36  1  0
  9 37  1  0
 12 38  1  0
 12 39  1  0
 13 40  1  0
 17 41  1  0
 18 42  1  0
 20 43  1  0
 23 44  1  0
 24 45  1  0
M  END
>  <smiles>  (49) 
CSCC[C@H](N)C(=O)NC(=O)CNC(=O)c1ccc2cc(Cl)ccc2n1

>  <score_type>  (49) 
oracle

>  <origin>  (49) 
autodockgpu

>  <m_score__min__energy>  (49) 
-7.8499999999999996

>  <m_primary>  (49) 
energy

>  <rmsd>  (49) 
9.32580486260177

>  <m_score__min__rmsd>  (49) 
9.32580486260177

>  <meeko>  (49) 
{"free_energy": -6.29, "intermolecular_energy": -8.67, "internal_energy": -2.16, "cluster_size": 1, "cluster_id": 6, "rank_in_cluster": 1}

>  <energy>  (49) 
-5.72

>  <cluster_rmsd>  (49) 
0.0

>  <cluster>  (49) 
10

$$$$

     RDKit          3D

 45 46  0  0  0  0  0  0  0  0999 V2000
  141.9400   68.9810  219.3440 C   0  0  0  0  0  0  0  0  0  0  0  0
  142.1640   70.7770  219.5540 S   0  0  0  0  0  0  0  0  0  0  0  0
  143.8390   71.0630  220.1520 C   0  0  0  0  0  0  0  0  0  0  0  0
  143.9930   72.4020  220.8340 C   0  0  0  0  0  0  0  0  0  0  0  0
  144.2710   73.5300  219.8900 C   0  0  2  0  0  0  0  0  0  0  0  0
  145.5050   74.2150  220.2520 N   0  0  0  0  0  0  0  0  0  0  0  0
  143.1680   74.5130  220.0340 C   0  0  0  0  0  0  0  0  0  0  0  0
  143.4440   75.7140  219.6990 O   0  0  0  0  0  0  0  0  0  0  0  0
  141.8760   74.1910  220.5060 N   0  0  0  0  0  0  0  0  0  0  0  0
  140.8760   75.2170  220.6090 C   0  0  0  0  0  0  0  0  0  0  0  0
  141.2220   76.3800  220.2600 O   0  0  0  0  0  0  0  0  0  0  0  0
  139.5050   74.9000  221.1050 C   0  0  0  0  0  0  0  0  0  0  0  0
  139.6070   73.9800  222.1970 N   0  0  0  0  0  0  0  0  0  0  0  0
  139.7650   72.5860  221.8710 C   0  0  0  0  0  0  0  0  0  0  0  0
  139.8130   72.1920  220.6790 O   0  0  0  0  0  0  0  0  0  0  0  0
  139.8700   71.6450  223.0030 C   0  0  0  0  0  0  0  0  0  0  0  0
  139.4500   70.3360  222.7860 C   0  0  0  0  0  0  0  0  0  0  0  0
  139.5510   69.4640  223.8480 C   0  0  0  0  0  0  0  0  0  0  0  0
  140.0380   69.8300  225.0850 C   0  0  0  0  0  0  0  0  0  0  0  0
  140.1490   68.9860  226.1530 C   0  0  0  0  0  0  0  0  0  0  0  0
  140.6430   69.3810  227.3870 C   0  0  0  0  0  0  0  0  0  0  0  0
  140.7530   68.2450  228.7020 Cl  0  0  0  0  0  0  0  0  0  0  0  0
  141.0470   70.7100  227.5360 C   0  0  0  0  0  0  0  0  0  0  0  0
  140.9300   71.5450  226.4520 C   0  0  0  0  0  0  0  0  0  0  0  0
  140.4370   71.1490  225.2260 C   0  0  0  0  0  0  0  0  0  0  0  0
  140.3490   72.0220  224.2020 N   0  0  0  0  0  0  0  0  0  0  0  0
  141.8801   68.5010  220.3319 H   0  0  0  0  0  0  0  0  0  0  0  0
  141.0111   68.7900  218.7866 H   0  0  0  0  0  0  0  0  0  0  0  0
  142.7936   68.5677  218.7866 H   0  0  0  0  0  0  0  0  0  0  0  0
  144.0966   70.2705  220.8700 H   0  0  0  0  0  0  0  0  0  0  0  0
  144.5094   71.0549  219.2799 H   0  0  0  0  0  0  0  0  0  0  0  0
  143.0622   72.6245  221.3764 H   0  0  0  0  0  0  0  0  0  0  0  0
  144.8612   72.3230  221.5048 H   0  0  0  0  0  0  0  0  0  0  0  0
  144.3567   73.1333  218.8676 H   0  0  0  0  0  0  0  0  0  0  0  0
  146.1900   74.1480  219.4760 H   0  0  0  0  0  0  0  0  0  0  0  0
  145.2470   75.2180  220.4180 H   0  0  0  0  0  0  0  0  0  0  0  0
  141.6710   73.1980  220.7760 H   0  0  0  0  0  0  0  0  0  0  0  0
  139.0129   75.8232  221.4449 H   0  0  0  0  0  0  0  0  0  0  0  0
  138.9105   74.4520  220.2951 H   0  0  0  0  0  0  0  0  0  0  0  0
  139.5730   74.2630  223.2120 H   0  0  0  0  0  0  0  0  0  0  0  0
  139.0556   70.0124  221.8115 H   0  0  0  0  0  0  0  0  0  0  0  0
  139.2267   68.4231  223.7016 H   0  0  0  0  0  0  0  0  0  0  0  0
  139.8306   67.9405  226.0280 H   0  0  0  0  0  0  0  0  0  0  0  0
  141.4468   71.0766  228.4929 H   0  0  0  0  0  0  0  0  0  0  0  0
  141.2482   72.5915  226.5682 H   0  0  0  0  0  0  0  0  0  0  0  0
  1  2  1  0
  2  3  1  0
  3  4  1  0
  4  5  1  0
  5  6  1  0
  5  7  1  0
  7  8  2  0
  7  9  1  0
  9 10  1  0
 10 11  2  0
 10 12  1  0
 12 13  1  0
 13 14  1  0
 14 15  2  0
 14 16  1  0
 16 17  2  0
 17 18  1  0
 18 19  2  0
 19 20  1  0
 20 21  2  0
 21 22  1  0
 21 23  1  0
 23 24  2  0
 24 25  1  0
 25 26  2  0
 26 16  1  0
 25 19  1  0
  1 27  1  0
  1 28  1  0
  1 29  1  0
  3 30  1  0
  3 31  1  0
  4 32  1  0
  4 33  1  0
  5 34  1  6
  6 35  1  0
  6 36  1  0
  9 37  1  0
 12 38  1  0
 12 39  1  0
 13 40  1  0
 17 41  1  0
 18 42  1  0
 20 43  1  0
 23 44  1  0
 24 45  1  0
M  END
>  <smiles>  (50) 
CSCC[C@H](N)C(=O)NC(=O)CNC(=O)c1ccc2cc(Cl)ccc2n1

>  <score_type>  (50) 
oracle

>  <origin>  (50) 
autodockgpu

>  <m_score__min__energy>  (50) 
-7.8499999999999996

>  <m_primary>  (50) 
energy

>  <rmsd>  (50) 
3.208405640081154

>  <m_score__min__rmsd>  (50) 
3.208405640081154

>  <meeko>  (50) 
{"free_energy": -6.28, "intermolecular_energy": -8.67, "internal_energy": -3.11, "cluster_size": 13, "cluster_id": 3, "rank_in_cluster": 9}

>  <energy>  (50) 
-5.43

>  <cluster_rmsd>  (50) 
0.0

>  <cluster>  (50) 
11

$$$$
