
     RDKit          3D

 49 52  0  0  0  0  0  0  0  0999 V2000
  139.8920   73.5200  222.6960 O   0  0  0  0  0  0  0  0  0  0  0  0
  140.2630   72.3190  222.6410 C   0  0  0  0  0  0  0  0  0  0  0  0
  140.7290   71.8600  221.3720 N   0  0  0  0  0  0  0  0  0  0  0  0
  140.7300   72.8040  220.2860 C   0  0  0  0  0  0  0  0  0  0  0  0
  141.9230   72.5890  219.4120 C   0  0  0  0  0  0  0  0  0  0  0  0
  141.7710   71.8190  218.4070 O   0  0  0  0  0  0  0  0  0  0  0  0
  143.1620   73.2130  219.6930 N   0  0  0  0  0  0  0  0  0  0  0  0
  143.3020   74.4660  220.4480 C   0  0  0  0  0  0  0  0  0  0  0  0
  144.7850   74.7620  220.4470 C   0  0  0  0  0  0  0  0  0  0  0  0
  145.3460   73.3340  220.3860 C   0  0  2  0  0  0  0  0  0  0  0  0
  146.6930   73.3230  220.0440 O   0  0  0  0  0  0  0  0  0  0  0  0
  144.4580   72.7530  219.3060 C   0  0  1  0  0  0  0  0  0  0  0  0
  144.5630   71.2780  219.2330 C   0  0  0  0  0  0  0  0  0  0  0  0
  143.9270   70.4230  220.1090 C   0  0  0  0  0  0  0  0  0  0  0  0
  144.0890   69.0620  219.9540 C   0  0  0  0  0  0  0  0  0  0  0  0
  144.8710   68.5110  218.9460 C   0  0  0  0  0  0  0  0  0  0  0  0
  145.0420   66.7720  218.7960 Cl  0  0  0  0  0  0  0  0  0  0  0  0
  145.5040   69.3770  218.0750 C   0  0  0  0  0  0  0  0  0  0  0  0
  145.3460   70.7380  218.2240 C   0  0  0  0  0  0  0  0  0  0  0  0
  140.2300   71.4230  223.7930 C   0  0  0  0  0  0  0  0  0  0  0  0
  139.6980   70.1660  223.5980 C   0  0  0  0  0  0  0  0  0  0  0  0
  139.6140   69.2260  224.6230 C   0  0  0  0  0  0  0  0  0  0  0  0
  140.0930   69.6100  225.8600 C   0  0  0  0  0  0  0  0  0  0  0  0
  140.0170   68.6880  226.8900 C   0  0  0  0  0  0  0  0  0  0  0  0
  140.4890   69.0430  228.1440 C   0  0  0  0  0  0  0  0  0  0  0  0
  141.0250   70.3110  228.3410 C   0  0  0  0  0  0  0  0  0  0  0  0
  141.0800   71.1980  227.2820 C   0  0  0  0  0  0  0  0  0  0  0  0
  140.6130   70.8680  226.0130 C   0  0  0  0  0  0  0  0  0  0  0  0
  140.6890   71.7720  225.0080 N   0  0  0  0  0  0  0  0  0  0  0  0
  141.0510   70.8680  221.2670 H   0  0  0  0  0  0  0  0  0  0  0  0
  139.8150   72.6720  219.6898 H   0  0  0  0  0  0  0  0  0  0  0  0
  140.7678   73.8231  220.6982 H   0  0  0  0  0  0  0  0  0  0  0  0
  142.7457   75.2776  219.9562 H   0  0  0  0  0  0  0  0  0  0  0  0
  142.8992   74.3802  221.4680 H   0  0  0  0  0  0  0  0  0  0  0  0
  145.0818   75.3544  219.5689 H   0  0  0  0  0  0  0  0  0  0  0  0
  145.1370   75.3604  221.3002 H   0  0  0  0  0  0  0  0  0  0  0  0
  145.3281   72.7783  221.3352 H   0  0  0  0  0  0  0  0  0  0  0  0
  146.8570   74.1680  219.5190 H   0  0  0  0  0  0  0  0  0  0  0  0
  144.7299   73.0693  218.2882 H   0  0  0  0  0  0  0  0  0  0  0  0
  143.2993   70.8211  220.9199 H   0  0  0  0  0  0  0  0  0  0  0  0
  143.5790   68.3860  220.6561 H   0  0  0  0  0  0  0  0  0  0  0  0
  146.1329   68.9808  217.2641 H   0  0  0  0  0  0  0  0  0  0  0  0
  145.8555   71.4151  217.5226 H   0  0  0  0  0  0  0  0  0  0  0  0
  139.3269   69.8959  222.5983 H   0  0  0  0  0  0  0  0  0  0  0  0
  139.1868   68.2264  224.4550 H   0  0  0  0  0  0  0  0  0  0  0  0
  139.5889   67.6898  226.7160 H   0  0  0  0  0  0  0  0  0  0  0  0
  140.4399   68.3268  228.9774 H   0  0  0  0  0  0  0  0  0  0  0  0
  141.4021   70.6058  229.3314 H   0  0  0  0  0  0  0  0  0  0  0  0
  141.5071   72.1980  227.4478 H   0  0  0  0  0  0  0  0  0  0  0  0
  1  2  2  0
  2  3  1  0
  3  4  1  0
  4  5  1  0
  5  6  2  0
  5  7  1  0
  7  8  1  0
  8  9  1  0
  9 10  1  0
 10 11  1  0
 10 12  1  0
 12 13  1  0
 13 14  2  0
 14 15  1  0
 15 16  2  0
 16 17  1  0
 16 18  1  0
 18 19  2  0
  2 20  1  0
 20 21  2  0
 21 22  1  0
 22 23  2  0
 23 24  1  0
 24 25  2  0
 25 26  1  0
 26 27  2  0
 27 28  1  0
 28 29  2  0
 12  7  1  0
 19 13  1  0
 29 20  1  0
 28 23  1  0
  3 30  1  0
  4 31  1  0
  4 32  1  0
  8 33  1  0
  8 34  1  0
  9 35  1  0
  9 36  1  0
 10 37  1  1
 11 38  1  0
 12 39  1  6
 14 40  1  0
 15 41  1  0
 18 42  1  0
 19 43  1  0
 21 44  1  0
 22 45  1  0
 24 46  1  0
 25 47  1  0
 26 48  1  0
 27 49  1  0
M  END
>  <smiles>  (1) 
O=C(NCC(=O)N1CC[C@H](O)[C@H]1c1ccc(Cl)cc1)c1ccc2ccccc2n1

>  <score_type>  (1) 
oracle

>  <origin>  (1) 
autodockgpu

>  <m_score__min__energy>  (1) 
-8.9399999999999995

>  <m_primary>  (1) 
energy

>  <rmsd>  (1) 
3.668132157882653

>  <m_score__min__rmsd>  (1) 
3.668132157882653

>  <meeko>  (1) 
{"free_energy": -8.66, "intermolecular_energy": -10.45, "internal_energy": -1.36, "cluster_size": 5, "cluster_id": 1, "rank_in_cluster": 4}

>  <energy>  (1) 
-8.94

>  <cluster_rmsd>  (1) 
0.0

>  <cluster>  (1) 
1

$$$$

     RDKit          3D

 49 52  0  0  0  0  0  0  0  0999 V2000
  139.0130   74.9660  221.8350 O   0  0  0  0  0  0  0  0  0  0  0  0
  140.1250   75.5290  221.9950 C   0  0  0  0  0  0  0  0  0  0  0  0
  141.2800   74.7000  221.8500 N   0  0  0  0  0  0  0  0  0  0  0  0
  141.0630   73.3120  221.5380 C   0  0  0  0  0  0  0  0  0  0  0  0
  141.5980   72.9960  220.1790 C   0  0  0  0  0  0  0  0  0  0  0  0
  140.7720   73.0310  219.2100 O   0  0  0  0  0  0  0  0  0  0  0  0
  142.9630   72.6710  219.9840 N   0  0  0  0  0  0  0  0  0  0  0  0
  143.4760   71.2980  219.8710 C   0  0  0  0  0  0  0  0  0  0  0  0
  144.9730   71.4500  219.7250 C   0  0  0  0  0  0  0  0  0  0  0  0
  145.0410   72.8120  219.0220 C   0  0  2  0  0  0  0  0  0  0  0  0
  146.3220   73.3500  219.0580 O   0  0  0  0  0  0  0  0  0  0  0  0
  144.0510   73.5880  219.8650 C   0  0  1  0  0  0  0  0  0  0  0  0
  143.6730   74.8750  219.2370 C   0  0  0  0  0  0  0  0  0  0  0  0
  143.7000   75.0970  217.8760 C   0  0  0  0  0  0  0  0  0  0  0  0
  143.3260   76.3320  217.3910 C   0  0  0  0  0  0  0  0  0  0  0  0
  142.9210   77.3710  218.2190 C   0  0  0  0  0  0  0  0  0  0  0  0
  142.4560   78.9230  217.5470 Cl  0  0  0  0  0  0  0  0  0  0  0  0
  142.8980   77.1380  219.5820 C   0  0  0  0  0  0  0  0  0  0  0  0
  143.2700   75.9050  220.0730 C   0  0  0  0  0  0  0  0  0  0  0  0
  140.2610   76.9480  222.3120 C   0  0  0  0  0  0  0  0  0  0  0  0
  139.1040   77.6980  222.3490 C   0  0  0  0  0  0  0  0  0  0  0  0
  139.1090   79.0610  222.6390 C   0  0  0  0  0  0  0  0  0  0  0  0
  140.3390   79.6370  222.8940 C   0  0  0  0  0  0  0  0  0  0  0  0
  140.3620   80.9900  223.1840 C   0  0  0  0  0  0  0  0  0  0  0  0
  141.5800   81.6000  223.4440 C   0  0  0  0  0  0  0  0  0  0  0  0
  142.7470   80.8420  223.4080 C   0  0  0  0  0  0  0  0  0  0  0  0
  142.6730   79.4940  223.1120 C   0  0  0  0  0  0  0  0  0  0  0  0
  141.4640   78.8570  222.8480 C   0  0  0  0  0  0  0  0  0  0  0  0
  141.4440   77.5340  222.5630 N   0  0  0  0  0  0  0  0  0  0  0  0
  142.2330   75.1160  221.9730 H   0  0  0  0  0  0  0  0  0  0  0  0
  141.5764   72.6878  222.2842 H   0  0  0  0  0  0  0  0  0  0  0  0
  139.9825   73.1064  221.5538 H   0  0  0  0  0  0  0  0  0  0  0  0
  143.2325   70.7188  220.7739 H   0  0  0  0  0  0  0  0  0  0  0  0
  143.0308   70.7593  219.0215 H   0  0  0  0  0  0  0  0  0  0  0  0
  145.4776   71.4704  220.7023 H   0  0  0  0  0  0  0  0  0  0  0  0
  145.4698   70.6285  219.1880 H   0  0  0  0  0  0  0  0  0  0  0  0
  144.8100   72.7998  217.9466 H   0  0  0  0  0  0  0  0  0  0  0  0
  146.2160   74.3100  219.3480 H   0  0  0  0  0  0  0  0  0  0  0  0
  144.4470   73.8994  220.8429 H   0  0  0  0  0  0  0  0  0  0  0  0
  144.0156   74.2996  217.1871 H   0  0  0  0  0  0  0  0  0  0  0  0
  143.3493   76.5014  216.3044 H   0  0  0  0  0  0  0  0  0  0  0  0
  142.5836   77.9346  220.2724 H   0  0  0  0  0  0  0  0  0  0  0  0
  143.2465   75.7333  221.1593 H   0  0  0  0  0  0  0  0  0  0  0  0
  138.1437   77.2029  222.1423 H   0  0  0  0  0  0  0  0  0  0  0  0
  138.1799   79.6493  222.6637 H   0  0  0  0  0  0  0  0  0  0  0  0
  139.4291   81.5723  223.2079 H   0  0  0  0  0  0  0  0  0  0  0  0
  141.6236   82.6742  223.6768 H   0  0  0  0  0  0  0  0  0  0  0  0
  143.7201   81.3120  223.6135 H   0  0  0  0  0  0  0  0  0  0  0  0
  143.6013   78.9045  223.0841 H   0  0  0  0  0  0  0  0  0  0  0  0
  1  2  2  0
  2  3  1  0
  3  4  1  0
  4  5  1  0
  5  6  2  0
  5  7  1  0
  7  8  1  0
  8  9  1  0
  9 10  1  0
 10 11  1  0
 10 12  1  0
 12 13  1  0
 13 14  2  0
 14 15  1  0
 15 16  2  0
 16 17  1  0
 16 18  1  0
 18 19  2  0
  2 20  1  0
 20 21  2  0
 21 22  1  0
 22 23  2  0
 23 24  1  0
 24 25  2  0
 25 26  1  0
 26 27  2  0
 27 28  1  0
 28 29  2  0
 12  7  1  0
 19 13  1  0
 29 20  1  0
 28 23  1  0
  3 30  1  0
  4 31  1  0
  4 32  1  0
  8 33  1  0
  8 34  1  0
  9 35  1  0
  9 36  1  0
 10 37  1  6
 11 38  1  0
 12 39  1  1
 14 40  1  0
 15 41  1  0
 18 42  1  0
 19 43  1  0
 21 44  1  0
 22 45  1  0
 24 46  1  0
 25 47  1  0
 26 48  1  0
 27 49  1  0
M  END
>  <smiles>  (2) 
O=C(NCC(=O)N1CC[C@H](O)[C@H]1c1ccc(Cl)cc1)c1ccc2ccccc2n1

>  <score_type>  (2) 
oracle

>  <origin>  (2) 
autodockgpu

>  <m_score__min__energy>  (2) 
-8.9399999999999995

>  <m_primary>  (2) 
energy

>  <rmsd>  (2) 
7.75102694913683

>  <m_score__min__rmsd>  (2) 
7.75102694913683

>  <meeko>  (2) 
{"free_energy": -7.97, "intermolecular_energy": -9.76, "internal_energy": -2.21, "cluster_size": 16, "cluster_id": 7, "rank_in_cluster": 5}

>  <energy>  (2) 
-8.83

>  <cluster_rmsd>  (2) 
0.39

>  <cluster>  (2) 
1

$$$$

     RDKit          3D

 49 52  0  0  0  0  0  0  0  0999 V2000
  141.0560   71.9050  221.2230 O   0  0  0  0  0  0  0  0  0  0  0  0
  140.5050   72.3480  222.2630 C   0  0  0  0  0  0  0  0  0  0  0  0
  140.1010   73.7180  222.2300 N   0  0  0  0  0  0  0  0  0  0  0  0
  140.3590   74.4550  221.0210 C   0  0  0  0  0  0  0  0  0  0  0  0
  140.7200   75.8690  221.3420 C   0  0  0  0  0  0  0  0  0  0  0  0
  140.6440   76.2210  222.5650 O   0  0  0  0  0  0  0  0  0  0  0  0
  141.1270   76.7720  220.3310 N   0  0  0  0  0  0  0  0  0  0  0  0
  140.8470   78.2150  220.3510 C   0  0  0  0  0  0  0  0  0  0  0  0
  141.4230   78.7450  219.0580 C   0  0  0  0  0  0  0  0  0  0  0  0
  142.5770   77.7550  218.8490 C   0  0  2  0  0  0  0  0  0  0  0  0
  143.0800   77.8130  217.5550 O   0  0  0  0  0  0  0  0  0  0  0  0
  141.8600   76.4550  219.1460 C   0  0  1  0  0  0  0  0  0  0  0  0
  142.8030   75.3260  219.3200 C   0  0  0  0  0  0  0  0  0  0  0  0
  143.9410   75.3950  220.0970 C   0  0  0  0  0  0  0  0  0  0  0  0
  144.7530   74.2850  220.1950 C   0  0  0  0  0  0  0  0  0  0  0  0
  144.4740   73.0920  219.5390 C   0  0  0  0  0  0  0  0  0  0  0  0
  145.5440   71.7120  219.6990 Cl  0  0  0  0  0  0  0  0  0  0  0  0
  143.3320   73.0350  218.7630 C   0  0  0  0  0  0  0  0  0  0  0  0
  142.5150   74.1410  218.6620 C   0  0  0  0  0  0  0  0  0  0  0  0
  140.2790   71.5320  223.4530 C   0  0  0  0  0  0  0  0  0  0  0  0
  139.6050   70.3410  223.2800 C   0  0  0  0  0  0  0  0  0  0  0  0
  139.3310   69.4800  224.3410 C   0  0  0  0  0  0  0  0  0  0  0  0
  139.7700   69.8750  225.5910 C   0  0  0  0  0  0  0  0  0  0  0  0
  139.5060   69.0310  226.6560 C   0  0  0  0  0  0  0  0  0  0  0  0
  139.9320   69.3980  227.9240 C   0  0  0  0  0  0  0  0  0  0  0  0
  140.6110   70.6000  228.0970 C   0  0  0  0  0  0  0  0  0  0  0  0
  140.8510   71.4090  227.0030 C   0  0  0  0  0  0  0  0  0  0  0  0
  140.4350   71.0650  225.7200 C   0  0  0  0  0  0  0  0  0  0  0  0
  140.6940   71.8920  224.6790 N   0  0  0  0  0  0  0  0  0  0  0  0
  139.6370   74.1400  223.0690 H   0  0  0  0  0  0  0  0  0  0  0  0
  141.1911   73.9823  220.4786 H   0  0  0  0  0  0  0  0  0  0  0  0
  139.4519   74.4500  220.3987 H   0  0  0  0  0  0  0  0  0  0  0  0
  139.7631   78.3976  220.3946 H   0  0  0  0  0  0  0  0  0  0  0  0
  141.2859   78.7082  221.2308 H   0  0  0  0  0  0  0  0  0  0  0  0
  140.6923   78.6982  218.2371 H   0  0  0  0  0  0  0  0  0  0  0  0
  141.7221   79.8032  219.0855 H   0  0  0  0  0  0  0  0  0  0  0  0
  143.4690   77.9325  219.4677 H   0  0  0  0  0  0  0  0  0  0  0  0
  143.6420   78.6490  217.5090 H   0  0  0  0  0  0  0  0  0  0  0  0
  141.2100   76.1086  218.3290 H   0  0  0  0  0  0  0  0  0  0  0  0
  144.1968   76.3222  220.6306 H   0  0  0  0  0  0  0  0  0  0  0  0
  145.6579   74.3462  220.8174 H   0  0  0  0  0  0  0  0  0  0  0  0
  143.0754   72.1093  218.2271 H   0  0  0  0  0  0  0  0  0  0  0  0
  141.6088   74.0810  218.0414 H   0  0  0  0  0  0  0  0  0  0  0  0
  139.2723   70.0611  222.2696 H   0  0  0  0  0  0  0  0  0  0  0  0
  138.7920   68.5329  224.1913 H   0  0  0  0  0  0  0  0  0  0  0  0
  138.9672   68.0849  226.4993 H   0  0  0  0  0  0  0  0  0  0  0  0
  139.7346   68.7438  228.7860 H   0  0  0  0  0  0  0  0  0  0  0  0
  140.9541   70.9039  229.0970 H   0  0  0  0  0  0  0  0  0  0  0  0
  141.3890   72.3570  227.1509 H   0  0  0  0  0  0  0  0  0  0  0  0
  1  2  2  0
  2  3  1  0
  3  4  1  0
  4  5  1  0
  5  6  2  0
  5  7  1  0
  7  8  1  0
  8  9  1  0
  9 10  1  0
 10 11  1  0
 10 12  1  0
 12 13  1  0
 13 14  2  0
 14 15  1  0
 15 16  2  0
 16 17  1  0
 16 18  1  0
 18 19  2  0
  2 20  1  0
 20 21  2  0
 21 22  1  0
 22 23  2  0
 23 24  1  0
 24 25  2  0
 25 26  1  0
 26 27  2  0
 27 28  1  0
 28 29  2  0
 12  7  1  0
 19 13  1  0
 29 20  1  0
 28 23  1  0
  3 30  1  0
  4 31  1  0
  4 32  1  0
  8 33  1  0
  8 34  1  0
  9 35  1  0
  9 36  1  0
 10 37  1  1
 11 38  1  0
 12 39  1  6
 14 40  1  0
 15 41  1  0
 18 42  1  0
 19 43  1  0
 21 44  1  0
 22 45  1  0
 24 46  1  0
 25 47  1  0
 26 48  1  0
 27 49  1  0
M  END
>  <smiles>  (3) 
O=C(NCC(=O)N1CC[C@H](O)[C@H]1c1ccc(Cl)cc1)c1ccc2ccccc2n1

>  <score_type>  (3) 
oracle

>  <origin>  (3) 
autodockgpu

>  <m_score__min__energy>  (3) 
-8.9399999999999995

>  <m_primary>  (3) 
energy

>  <rmsd>  (3) 
2.373876411394957

>  <m_score__min__rmsd>  (3) 
2.373876411394957

>  <meeko>  (3) 
{"free_energy": -8.17, "intermolecular_energy": -9.96, "internal_energy": -1.96, "cluster_size": 7, "cluster_id": 6, "rank_in_cluster": 6}

>  <energy>  (3) 
-8.69

>  <cluster_rmsd>  (3) 
0.3

>  <cluster>  (3) 
1

$$$$

     RDKit          3D

 49 52  0  0  0  0  0  0  0  0999 V2000
  138.9860   75.0270  221.8290 O   0  0  0  0  0  0  0  0  0  0  0  0
  140.1040   75.5790  221.9930 C   0  0  0  0  0  0  0  0  0  0  0  0
  141.2500   74.7410  221.8430 N   0  0  0  0  0  0  0  0  0  0  0  0
  141.0210   73.3570  221.5200 C   0  0  0  0  0  0  0  0  0  0  0  0
  141.5150   73.0570  220.1420 C   0  0  0  0  0  0  0  0  0  0  0  0
  140.6710   73.1550  219.1920 O   0  0  0  0  0  0  0  0  0  0  0  0
  142.8590   72.6810  219.9080 N   0  0  0  0  0  0  0  0  0  0  0  0
  143.3120   71.2900  219.7570 C   0  0  0  0  0  0  0  0  0  0  0  0
  144.8110   71.3830  219.5780 C   0  0  0  0  0  0  0  0  0  0  0  0
  144.9190   72.7550  218.9000 C   0  0  2  0  0  0  0  0  0  0  0  0
  146.2220   73.2390  218.9160 O   0  0  0  0  0  0  0  0  0  0  0  0
  143.9820   73.5540  219.7810 C   0  0  1  0  0  0  0  0  0  0  0  0
  143.6430   74.8680  219.1870 C   0  0  0  0  0  0  0  0  0  0  0  0
  143.6820   75.1250  217.8320 C   0  0  0  0  0  0  0  0  0  0  0  0
  143.3450   76.3840  217.3790 C   0  0  0  0  0  0  0  0  0  0  0  0
  142.9670   77.4110  218.2340 C   0  0  0  0  0  0  0  0  0  0  0  0
  142.5500   78.9930  217.6030 Cl  0  0  0  0  0  0  0  0  0  0  0  0
  142.9320   77.1420  219.5900 C   0  0  0  0  0  0  0  0  0  0  0  0
  143.2670   75.8860  220.0490 C   0  0  0  0  0  0  0  0  0  0  0  0
  140.2520   76.9940  222.3210 C   0  0  0  0  0  0  0  0  0  0  0  0
  139.0980   77.7460  222.4000 C   0  0  0  0  0  0  0  0  0  0  0  0
  139.1160   79.1060  222.7050 C   0  0  0  0  0  0  0  0  0  0  0  0
  140.3540   79.6770  222.9280 C   0  0  0  0  0  0  0  0  0  0  0  0
  140.3890   81.0270  223.2320 C   0  0  0  0  0  0  0  0  0  0  0  0
  141.6150   81.6320  223.4620 C   0  0  0  0  0  0  0  0  0  0  0  0
  142.7790   80.8720  223.3820 C   0  0  0  0  0  0  0  0  0  0  0  0
  142.6930   79.5270  223.0750 C   0  0  0  0  0  0  0  0  0  0  0  0
  141.4750   78.8960  222.8400 C   0  0  0  0  0  0  0  0  0  0  0  0
  141.4430   77.5750  222.5430 N   0  0  0  0  0  0  0  0  0  0  0  0
  142.2080   75.1470  221.9690 H   0  0  0  0  0  0  0  0  0  0  0  0
  141.5548   72.7226  222.2429 H   0  0  0  0  0  0  0  0  0  0  0  0
  139.9410   73.1532  221.5650 H   0  0  0  0  0  0  0  0  0  0  0  0
  143.0656   70.7037  220.6545 H   0  0  0  0  0  0  0  0  0  0  0  0
  142.8252   70.7870  218.9084 H   0  0  0  0  0  0  0  0  0  0  0  0
  145.3385   71.3628  220.5430 H   0  0  0  0  0  0  0  0  0  0  0  0
  145.2606   70.5528  219.0136 H   0  0  0  0  0  0  0  0  0  0  0  0
  144.6627   72.7740  217.8304 H   0  0  0  0  0  0  0  0  0  0  0  0
  146.1490   74.2400  219.0150 H   0  0  0  0  0  0  0  0  0  0  0  0
  144.4138   73.8285  220.7548 H   0  0  0  0  0  0  0  0  0  0  0  0
  143.9775   74.3376  217.1231 H   0  0  0  0  0  0  0  0  0  0  0  0
  143.3770   76.5821  216.2975 H   0  0  0  0  0  0  0  0  0  0  0  0
  142.6376   77.9283  220.3006 H   0  0  0  0  0  0  0  0  0  0  0  0
  143.2350   75.6861  221.1302 H   0  0  0  0  0  0  0  0  0  0  0  0
  138.1307   77.2556  222.2160 H   0  0  0  0  0  0  0  0  0  0  0  0
  138.1895   79.6959  222.7652 H   0  0  0  0  0  0  0  0  0  0  0  0
  139.4585   81.6107  223.2902 H   0  0  0  0  0  0  0  0  0  0  0  0
  141.6678   82.7034  223.7056 H   0  0  0  0  0  0  0  0  0  0  0  0
  143.7590   81.3382  223.5617 H   0  0  0  0  0  0  0  0  0  0  0  0
  143.6184   78.9355  223.0144 H   0  0  0  0  0  0  0  0  0  0  0  0
  1  2  2  0
  2  3  1  0
  3  4  1  0
  4  5  1  0
  5  6  2  0
  5  7  1  0
  7  8  1  0
  8  9  1  0
  9 10  1  0
 10 11  1  0
 10 12  1  0
 12 13  1  0
 13 14  2  0
 14 15  1  0
 15 16  2  0
 16 17  1  0
 16 18  1  0
 18 19  2  0
  2 20  1  0
 20 21  2  0
 21 22  1  0
 22 23  2  0
 23 24  1  0
 24 25  2  0
 25 26  1  0
 26 27  2  0
 27 28  1  0
 28 29  2  0
 12  7  1  0
 19 13  1  0
 29 20  1  0
 28 23  1  0
  3 30  1  0
  4 31  1  0
  4 32  1  0
  8 33  1  0
  8 34  1  0
  9 35  1  0
  9 36  1  0
 10 37  1  6
 11 38  1  0
 12 39  1  1
 14 40  1  0
 15 41  1  0
 18 42  1  0
 19 43  1  0
 21 44  1  0
 22 45  1  0
 24 46  1  0
 25 47  1  0
 26 48  1  0
 27 49  1  0
M  END
>  <smiles>  (4) 
O=C(NCC(=O)N1CC[C@H](O)[C@H]1c1ccc(Cl)cc1)c1ccc2ccccc2n1

>  <score_type>  (4) 
oracle

>  <origin>  (4) 
autodockgpu

>  <m_score__min__energy>  (4) 
-8.9399999999999995

>  <m_primary>  (4) 
energy

>  <rmsd>  (4) 
7.743187944233751

>  <m_score__min__rmsd>  (4) 
7.743187944233751

>  <meeko>  (4) 
{"free_energy": -7.96, "intermolecular_energy": -9.75, "internal_energy": -2.19, "cluster_size": 16, "cluster_id": 7, "rank_in_cluster": 7}

>  <energy>  (4) 
-8.66

>  <cluster_rmsd>  (4) 
0.42

>  <cluster>  (4) 
1

$$$$

     RDKit          3D

 49 52  0  0  0  0  0  0  0  0999 V2000
  141.2540   71.8090  221.6480 O   0  0  0  0  0  0  0  0  0  0  0  0
  140.3990   72.0670  222.5330 C   0  0  0  0  0  0  0  0  0  0  0  0
  139.5860   73.2210  222.3100 N   0  0  0  0  0  0  0  0  0  0  0  0
  139.8200   73.9710  221.1050 C   0  0  0  0  0  0  0  0  0  0  0  0
  140.4470   75.2890  221.4270 C   0  0  0  0  0  0  0  0  0  0  0  0
  140.3080   75.7180  222.6190 O   0  0  0  0  0  0  0  0  0  0  0  0
  141.1610   76.0220  220.4490 N   0  0  0  0  0  0  0  0  0  0  0  0
  141.4260   75.5390  219.0860 C   0  0  0  0  0  0  0  0  0  0  0  0
  142.2520   76.6270  218.4380 C   0  0  0  0  0  0  0  0  0  0  0  0
  141.7180   77.8560  219.1870 C   0  0  2  0  0  0  0  0  0  0  0  0
  142.5420   78.9630  219.0170 O   0  0  0  0  0  0  0  0  0  0  0  0
  141.7340   77.3210  220.6040 C   0  0  1  0  0  0  0  0  0  0  0  0
  140.9800   78.1910  221.5350 C   0  0  0  0  0  0  0  0  0  0  0  0
  141.4850   78.6420  222.7380 C   0  0  0  0  0  0  0  0  0  0  0  0
  140.7010   79.4510  223.5330 C   0  0  0  0  0  0  0  0  0  0  0  0
  139.4150   79.8340  223.1740 C   0  0  0  0  0  0  0  0  0  0  0  0
  138.4620   80.8650  224.2250 Cl  0  0  0  0  0  0  0  0  0  0  0  0
  138.9190   79.3770  221.9670 C   0  0  0  0  0  0  0  0  0  0  0  0
  139.6980   78.5680  221.1670 C   0  0  0  0  0  0  0  0  0  0  0  0
  140.2230   71.2520  223.7320 C   0  0  0  0  0  0  0  0  0  0  0  0
  139.5150   70.0760  223.5960 C   0  0  0  0  0  0  0  0  0  0  0  0
  139.2840   69.2180  224.6690 C   0  0  0  0  0  0  0  0  0  0  0  0
  139.8020   69.6000  225.8920 C   0  0  0  0  0  0  0  0  0  0  0  0
  139.5810   68.7580  226.9690 C   0  0  0  0  0  0  0  0  0  0  0  0
  140.0870   69.1110  228.2110 C   0  0  0  0  0  0  0  0  0  0  0  0
  140.8010   70.2970  228.3480 C   0  0  0  0  0  0  0  0  0  0  0  0
  140.9960   71.1050  227.2430 C   0  0  0  0  0  0  0  0  0  0  0  0
  140.4990   70.7740  225.9850 C   0  0  0  0  0  0  0  0  0  0  0  0
  140.7160   71.5990  224.9340 N   0  0  0  0  0  0  0  0  0  0  0  0
  138.8570   73.4830  223.0140 H   0  0  0  0  0  0  0  0  0  0  0  0
  140.4924   73.4004  220.4474 H   0  0  0  0  0  0  0  0  0  0  0  0
  138.8583   74.1463  220.6006 H   0  0  0  0  0  0  0  0  0  0  0  0
  141.9864   74.5928  219.1134 H   0  0  0  0  0  0  0  0  0  0  0  0
  140.4975   75.3396  218.5309 H   0  0  0  0  0  0  0  0  0  0  0  0
  143.3281   76.4797  218.6119 H   0  0  0  0  0  0  0  0  0  0  0  0
  142.1662   76.6809  217.3427 H   0  0  0  0  0  0  0  0  0  0  0  0
  140.7374   78.2248  218.8516 H   0  0  0  0  0  0  0  0  0  0  0  0
  143.4840   78.6070  218.9680 H   0  0  0  0  0  0  0  0  0  0  0  0
  142.7363   77.2870  221.0559 H   0  0  0  0  0  0  0  0  0  0  0  0
  142.4989   78.3599  223.0580 H   0  0  0  0  0  0  0  0  0  0  0  0
  141.1103   79.8073  224.4898 H   0  0  0  0  0  0  0  0  0  0  0  0
  137.9053   79.6582  221.6457 H   0  0  0  0  0  0  0  0  0  0  0  0
  139.2904   78.2117  220.2095 H   0  0  0  0  0  0  0  0  0  0  0  0
  139.1190   69.8063  222.6058 H   0  0  0  0  0  0  0  0  0  0  0  0
  138.7174   68.2829  224.5488 H   0  0  0  0  0  0  0  0  0  0  0  0
  139.0134   67.8245  226.8414 H   0  0  0  0  0  0  0  0  0  0  0  0
  139.9250   68.4581  229.0813 H   0  0  0  0  0  0  0  0  0  0  0  0
  141.2072   70.5897  229.3275 H   0  0  0  0  0  0  0  0  0  0  0  0
  141.5626   72.0404  227.3616 H   0  0  0  0  0  0  0  0  0  0  0  0
  1  2  2  0
  2  3  1  0
  3  4  1  0
  4  5  1  0
  5  6  2  0
  5  7  1  0
  7  8  1  0
  8  9  1  0
  9 10  1  0
 10 11  1  0
 10 12  1  0
 12 13  1  0
 13 14  2  0
 14 15  1  0
 15 16  2  0
 16 17  1  0
 16 18  1  0
 18 19  2  0
  2 20  1  0
 20 21  2  0
 21 22  1  0
 22 23  2  0
 23 24  1  0
 24 25  2  0
 25 26  1  0
 26 27  2  0
 27 28  1  0
 28 29  2  0
 12  7  1  0
 19 13  1  0
 29 20  1  0
 28 23  1  0
  3 30  1  0
  4 31  1  0
  4 32  1  0
  8 33  1  0
  8 34  1  0
  9 35  1  0
  9 36  1  0
 10 37  1  6
 11 38  1  0
 12 39  1  1
 14 40  1  0
 15 41  1  0
 18 42  1  0
 19 43  1  0
 21 44  1  0
 22 45  1  0
 24 46  1  0
 25 47  1  0
 26 48  1  0
 27 49  1  0
M  END
>  <smiles>  (5) 
O=C(NCC(=O)N1CC[C@H](O)[C@H]1c1ccc(Cl)cc1)c1ccc2ccccc2n1

>  <score_type>  (5) 
oracle

>  <origin>  (5) 
autodockgpu

>  <m_score__min__energy>  (5) 
-8.9399999999999995

>  <m_primary>  (5) 
energy

>  <rmsd>  (5) 
1.987301939095466

>  <m_score__min__rmsd>  (5) 
1.987301939095466

>  <meeko>  (5) 
{"free_energy": -8.67, "intermolecular_energy": -10.46, "internal_energy": -1.39, "cluster_size": 14, "cluster_id": 2, "rank_in_cluster": 1}

>  <energy>  (5) 
-8.47

>  <cluster_rmsd>  (5) 
0.37

>  <cluster>  (5) 
1

$$$$

     RDKit          3D

 49 52  0  0  0  0  0  0  0  0999 V2000
  140.8910   71.5190  221.4260 O   0  0  0  0  0  0  0  0  0  0  0  0
  140.3870   71.9680  222.4870 C   0  0  0  0  0  0  0  0  0  0  0  0
  139.9760   73.3360  222.4610 N   0  0  0  0  0  0  0  0  0  0  0  0
  140.1750   74.0640  221.2360 C   0  0  0  0  0  0  0  0  0  0  0  0
  140.4110   75.5110  221.5240 C   0  0  0  0  0  0  0  0  0  0  0  0
  139.9800   75.9560  222.6380 O   0  0  0  0  0  0  0  0  0  0  0  0
  141.0830   76.3450  220.5980 N   0  0  0  0  0  0  0  0  0  0  0  0
  141.4010   75.9560  219.2170 C   0  0  0  0  0  0  0  0  0  0  0  0
  142.1540   77.1340  218.6400 C   0  0  0  0  0  0  0  0  0  0  0  0
  141.5220   78.2790  219.4430 C   0  0  2  0  0  0  0  0  0  0  0  0
  142.2640   79.4500  219.3450 O   0  0  0  0  0  0  0  0  0  0  0  0
  141.5570   77.6730  220.8300 C   0  0  1  0  0  0  0  0  0  0  0  0
  140.7290   78.4350  221.7920 C   0  0  0  0  0  0  0  0  0  0  0  0
  141.1840   78.8590  223.0240 C   0  0  0  0  0  0  0  0  0  0  0  0
  140.3310   79.5660  223.8460 C   0  0  0  0  0  0  0  0  0  0  0  0
  139.0250   79.8710  223.4860 C   0  0  0  0  0  0  0  0  0  0  0  0
  137.9840   80.7720  224.5720 Cl  0  0  0  0  0  0  0  0  0  0  0  0
  138.5790   79.4410  222.2500 C   0  0  0  0  0  0  0  0  0  0  0  0
  139.4270   78.7340  221.4230 C   0  0  0  0  0  0  0  0  0  0  0  0
  140.2190   71.1610  223.6920 C   0  0  0  0  0  0  0  0  0  0  0  0
  139.5360   69.9700  223.5610 C   0  0  0  0  0  0  0  0  0  0  0  0
  139.3140   69.1180  224.6410 C   0  0  0  0  0  0  0  0  0  0  0  0
  139.8140   69.5210  225.8640 C   0  0  0  0  0  0  0  0  0  0  0  0
  139.6020   68.6850  226.9480 C   0  0  0  0  0  0  0  0  0  0  0  0
  140.0910   69.0600  228.1900 C   0  0  0  0  0  0  0  0  0  0  0  0
  140.7800   70.2620  228.3200 C   0  0  0  0  0  0  0  0  0  0  0  0
  140.9670   71.0630  227.2100 C   0  0  0  0  0  0  0  0  0  0  0  0
  140.4870   70.7100  225.9510 C   0  0  0  0  0  0  0  0  0  0  0  0
  140.6950   71.5300  224.8940 N   0  0  0  0  0  0  0  0  0  0  0  0
  139.5490   73.7640  223.3170 H   0  0  0  0  0  0  0  0  0  0  0  0
  141.0474   73.6525  220.7072 H   0  0  0  0  0  0  0  0  0  0  0  0
  139.2746   73.9661  220.6118 H   0  0  0  0  0  0  0  0  0  0  0  0
  142.0288   75.0528  219.2049 H   0  0  0  0  0  0  0  0  0  0  0  0
  140.4970   75.7200  218.6364 H   0  0  0  0  0  0  0  0  0  0  0  0
  143.2357   77.0559  218.8239 H   0  0  0  0  0  0  0  0  0  0  0  0
  142.0789   77.2398  217.5477 H   0  0  0  0  0  0  0  0  0  0  0  0
  140.5216   78.5926  219.1101 H   0  0  0  0  0  0  0  0  0  0  0  0
  142.9410   79.4170  220.0920 H   0  0  0  0  0  0  0  0  0  0  0  0
  142.5528   77.6886  221.2970 H   0  0  0  0  0  0  0  0  0  0  0  0
  142.2120   78.6364  223.3459 H   0  0  0  0  0  0  0  0  0  0  0  0
  140.7003   79.9017  224.8262 H   0  0  0  0  0  0  0  0  0  0  0  0
  137.5510   79.6620  221.9270 H   0  0  0  0  0  0  0  0  0  0  0  0
  139.0592   78.3978  220.4423 H   0  0  0  0  0  0  0  0  0  0  0  0
  139.1535   69.6830  222.5704 H   0  0  0  0  0  0  0  0  0  0  0  0
  138.7672   68.1706  224.5253 H   0  0  0  0  0  0  0  0  0  0  0  0
  139.0545   67.7388  226.8254 H   0  0  0  0  0  0  0  0  0  0  0  0
  139.9356   68.4125  229.0656 H   0  0  0  0  0  0  0  0  0  0  0  0
  141.1729   70.5722  229.2995 H   0  0  0  0  0  0  0  0  0  0  0  0
  141.5131   72.0110  227.3243 H   0  0  0  0  0  0  0  0  0  0  0  0
  1  2  2  0
  2  3  1  0
  3  4  1  0
  4  5  1  0
  5  6  2  0
  5  7  1  0
  7  8  1  0
  8  9  1  0
  9 10  1  0
 10 11  1  0
 10 12  1  0
 12 13  1  0
 13 14  2  0
 14 15  1  0
 15 16  2  0
 16 17  1  0
 16 18  1  0
 18 19  2  0
  2 20  1  0
 20 21  2  0
 21 22  1  0
 22 23  2  0
 23 24  1  0
 24 25  2  0
 25 26  1  0
 26 27  2  0
 27 28  1  0
 28 29  2  0
 12  7  1  0
 19 13  1  0
 29 20  1  0
 28 23  1  0
  3 30  1  0
  4 31  1  0
  4 32  1  0
  8 33  1  0
  8 34  1  0
  9 35  1  0
  9 36  1  0
 10 37  1  6
 11 38  1  0
 12 39  1  1
 14 40  1  0
 15 41  1  0
 18 42  1  0
 19 43  1  0
 21 44  1  0
 22 45  1  0
 24 46  1  0
 25 47  1  0
 26 48  1  0
 27 49  1  0
M  END
>  <smiles>  (6) 
O=C(NCC(=O)N1CC[C@H](O)[C@H]1c1ccc(Cl)cc1)c1ccc2ccccc2n1

>  <score_type>  (6) 
oracle

>  <origin>  (6) 
autodockgpu

>  <m_score__min__energy>  (6) 
-8.9399999999999995

>  <m_primary>  (6) 
energy

>  <rmsd>  (6) 
2.2106755575085506

>  <m_score__min__rmsd>  (6) 
2.2106755575085506

>  <meeko>  (6) 
{"free_energy": -8.51, "intermolecular_energy": -10.3, "internal_energy": -1.65, "cluster_size": 14, "cluster_id": 2, "rank_in_cluster": 12}

>  <energy>  (6) 
-8.67

>  <cluster_rmsd>  (6) 
0.0

>  <cluster>  (6) 
2

$$$$

     RDKit          3D

 49 52  0  0  0  0  0  0  0  0999 V2000
  141.3360   71.9120  221.5600 O   0  0  0  0  0  0  0  0  0  0  0  0
  140.5660   72.2540  222.4930 C   0  0  0  0  0  0  0  0  0  0  0  0
  139.9270   73.5230  222.3510 N   0  0  0  0  0  0  0  0  0  0  0  0
  140.2210   74.2840  221.1650 C   0  0  0  0  0  0  0  0  0  0  0  0
  140.5600   75.6940  221.5240 C   0  0  0  0  0  0  0  0  0  0  0  0
  140.2230   76.0910  222.6870 O   0  0  0  0  0  0  0  0  0  0  0  0
  141.2240   76.5460  220.6090 N   0  0  0  0  0  0  0  0  0  0  0  0
  141.5640   76.1700  219.2280 C   0  0  0  0  0  0  0  0  0  0  0  0
  142.2990   77.3650  218.6650 C   0  0  0  0  0  0  0  0  0  0  0  0
  141.6350   78.4940  219.4670 C   0  0  2  0  0  0  0  0  0  0  0  0
  142.3540   79.6800  219.3820 O   0  0  0  0  0  0  0  0  0  0  0  0
  141.6690   77.8820  220.8520 C   0  0  1  0  0  0  0  0  0  0  0  0
  140.8160   78.6230  221.8090 C   0  0  0  0  0  0  0  0  0  0  0  0
  141.2620   79.0890  223.0280 C   0  0  0  0  0  0  0  0  0  0  0  0
  140.3860   79.7700  223.8470 C   0  0  0  0  0  0  0  0  0  0  0  0
  139.0640   80.0090  223.4940 C   0  0  0  0  0  0  0  0  0  0  0  0
  137.9930   80.8810  224.5750 Cl  0  0  0  0  0  0  0  0  0  0  0  0
  138.6270   79.5370  222.2710 C   0  0  0  0  0  0  0  0  0  0  0  0
  139.4980   78.8560  221.4470 C   0  0  0  0  0  0  0  0  0  0  0  0
  140.3200   71.4220  223.6670 C   0  0  0  0  0  0  0  0  0  0  0  0
  139.6640   70.2250  223.4650 C   0  0  0  0  0  0  0  0  0  0  0  0
  139.3740   69.3500  224.5090 C   0  0  0  0  0  0  0  0  0  0  0  0
  139.7770   69.7350  225.7730 C   0  0  0  0  0  0  0  0  0  0  0  0
  139.4960   68.8760  226.8220 C   0  0  0  0  0  0  0  0  0  0  0  0
  139.8870   69.2320  228.1040 C   0  0  0  0  0  0  0  0  0  0  0  0
  140.5490   70.4390  228.3070 C   0  0  0  0  0  0  0  0  0  0  0  0
  140.8070   71.2640  227.2280 C   0  0  0  0  0  0  0  0  0  0  0  0
  140.4250   70.9300  225.9320 C   0  0  0  0  0  0  0  0  0  0  0  0
  140.7010   71.7720  224.9080 N   0  0  0  0  0  0  0  0  0  0  0  0
  139.2740   73.8600  223.0980 H   0  0  0  0  0  0  0  0  0  0  0  0
  141.0748   73.8272  220.6432 H   0  0  0  0  0  0  0  0  0  0  0  0
  139.3361   74.2842  220.5116 H   0  0  0  0  0  0  0  0  0  0  0  0
  142.2096   75.2794  219.2179 H   0  0  0  0  0  0  0  0  0  0  0  0
  140.6708   75.9191  218.6370 H   0  0  0  0  0  0  0  0  0  0  0  0
  143.3800   77.3077  218.8603 H   0  0  0  0  0  0  0  0  0  0  0  0
  142.2336   77.4746  217.5724 H   0  0  0  0  0  0  0  0  0  0  0  0
  140.6318   78.7888  219.1254 H   0  0  0  0  0  0  0  0  0  0  0  0
  142.8830   79.7500  220.2380 H   0  0  0  0  0  0  0  0  0  0  0  0
  142.6596   77.9151  221.3291 H   0  0  0  0  0  0  0  0  0  0  0  0
  142.3023   78.9198  223.3427 H   0  0  0  0  0  0  0  0  0  0  0  0
  140.7485   80.1384  224.8180 H   0  0  0  0  0  0  0  0  0  0  0  0
  137.5866   79.7042  221.9555 H   0  0  0  0  0  0  0  0  0  0  0  0
  139.1372   78.4873  220.4755 H   0  0  0  0  0  0  0  0  0  0  0  0
  139.3595   69.9523  222.4438 H   0  0  0  0  0  0  0  0  0  0  0  0
  138.8496   68.3987  224.3355 H   0  0  0  0  0  0  0  0  0  0  0  0
  138.9710   67.9264  226.6414 H   0  0  0  0  0  0  0  0  0  0  0  0
  139.6756   68.5658  228.9534 H   0  0  0  0  0  0  0  0  0  0  0  0
  140.8647   70.7346  229.3184 H   0  0  0  0  0  0  0  0  0  0  0  0
  141.3314   72.2156  227.3994 H   0  0  0  0  0  0  0  0  0  0  0  0
  1  2  2  0
  2  3  1  0
  3  4  1  0
  4  5  1  0
  5  6  2  0
  5  7  1  0
  7  8  1  0
  8  9  1  0
  9 10  1  0
 10 11  1  0
 10 12  1  0
 12 13  1  0
 13 14  2  0
 14 15  1  0
 15 16  2  0
 16 17  1  0
 16 18  1  0
 18 19  2  0
  2 20  1  0
 20 21  2  0
 21 22  1  0
 22 23  2  0
 23 24  1  0
 24 25  2  0
 25 26  1  0
 26 27  2  0
 27 28  1  0
 28 29  2  0
 12  7  1  0
 19 13  1  0
 29 20  1  0
 28 23  1  0
  3 30  1  0
  4 31  1  0
  4 32  1  0
  8 33  1  0
  8 34  1  0
  9 35  1  0
  9 36  1  0
 10 37  1  6
 11 38  1  0
 12 39  1  1
 14 40  1  0
 15 41  1  0
 18 42  1  0
 19 43  1  0
 21 44  1  0
 22 45  1  0
 24 46  1  0
 25 47  1  0
 26 48  1  0
 27 49  1  0
M  END
>  <smiles>  (7) 
O=C(NCC(=O)N1CC[C@H](O)[C@H]1c1ccc(Cl)cc1)c1ccc2ccccc2n1

>  <score_type>  (7) 
oracle

>  <origin>  (7) 
autodockgpu

>  <m_score__min__energy>  (7) 
-8.9399999999999995

>  <m_primary>  (7) 
energy

>  <rmsd>  (7) 
2.3674140154342416

>  <m_score__min__rmsd>  (7) 
2.3674140154342416

>  <meeko>  (7) 
{"free_energy": -8.65, "intermolecular_energy": -10.44, "internal_energy": -1.52, "cluster_size": 14, "cluster_id": 2, "rank_in_cluster": 2}

>  <energy>  (7) 
-8.65

>  <cluster_rmsd>  (7) 
0.56

>  <cluster>  (7) 
2

$$$$

     RDKit          3D

 49 52  0  0  0  0  0  0  0  0999 V2000
  139.9980   73.4950  222.4910 O   0  0  0  0  0  0  0  0  0  0  0  0
  140.3130   72.2780  222.4750 C   0  0  0  0  0  0  0  0  0  0  0  0
  140.6850   71.7380  221.2050 N   0  0  0  0  0  0  0  0  0  0  0  0
  140.6630   72.6290  220.0750 C   0  0  0  0  0  0  0  0  0  0  0  0
  141.8910   72.4430  219.2450 C   0  0  0  0  0  0  0  0  0  0  0  0
  141.7860   71.6950  218.2180 O   0  0  0  0  0  0  0  0  0  0  0  0
  143.1130   73.0710  219.5870 N   0  0  0  0  0  0  0  0  0  0  0  0
  143.2130   74.2860  220.4100 C   0  0  0  0  0  0  0  0  0  0  0  0
  144.6910   74.6050  220.4600 C   0  0  0  0  0  0  0  0  0  0  0  0
  145.2770   73.1910  220.3390 C   0  0  2  0  0  0  0  0  0  0  0  0
  146.6320   73.2200  220.0290 O   0  0  0  0  0  0  0  0  0  0  0  0
  144.4250   72.6540  219.2080 C   0  0  1  0  0  0  0  0  0  0  0  0
  144.5570   71.1860  219.0620 C   0  0  0  0  0  0  0  0  0  0  0  0
  145.1280   70.5760  217.9630 C   0  0  0  0  0  0  0  0  0  0  0  0
  145.2040   69.2000  217.9250 C   0  0  0  0  0  0  0  0  0  0  0  0
  144.7280   68.3940  218.9520 C   0  0  0  0  0  0  0  0  0  0  0  0
  144.8520   66.6480  218.8500 Cl  0  0  0  0  0  0  0  0  0  0  0  0
  144.1580   69.0160  220.0480 C   0  0  0  0  0  0  0  0  0  0  0  0
  144.0790   70.3910  220.0920 C   0  0  0  0  0  0  0  0  0  0  0  0
  140.3090   71.4390  223.6700 C   0  0  0  0  0  0  0  0  0  0  0  0
  139.8540   70.1440  223.5290 C   0  0  0  0  0  0  0  0  0  0  0  0
  139.8030   69.2530  224.5990 C   0  0  0  0  0  0  0  0  0  0  0  0
  140.2350   69.7260  225.8230 C   0  0  0  0  0  0  0  0  0  0  0  0
  140.1920   68.8530  226.8970 C   0  0  0  0  0  0  0  0  0  0  0  0
  140.6170   69.2960  228.1400 C   0  0  0  0  0  0  0  0  0  0  0  0
  141.0760   70.6020  228.2810 C   0  0  0  0  0  0  0  0  0  0  0  0
  141.1010   71.4370  227.1800 C   0  0  0  0  0  0  0  0  0  0  0  0
  140.6790   71.0180  225.9210 C   0  0  0  0  0  0  0  0  0  0  0  0
  140.7230   71.8740  224.8730 N   0  0  0  0  0  0  0  0  0  0  0  0
  140.9570   70.7290  221.1330 H   0  0  0  0  0  0  0  0  0  0  0  0
  139.7748   72.4160  219.4620 H   0  0  0  0  0  0  0  0  0  0  0  0
  140.6299   73.6669  220.4379 H   0  0  0  0  0  0  0  0  0  0  0  0
  142.6544   75.1132  219.9476 H   0  0  0  0  0  0  0  0  0  0  0  0
  142.7876   74.1410  221.4140 H   0  0  0  0  0  0  0  0  0  0  0  0
  144.9981   75.2467  219.6210 H   0  0  0  0  0  0  0  0  0  0  0  0
  145.0131   75.1638  221.3511 H   0  0  0  0  0  0  0  0  0  0  0  0
  145.2457   72.5859  221.2571 H   0  0  0  0  0  0  0  0  0  0  0  0
  146.8170   74.1410  219.6620 H   0  0  0  0  0  0  0  0  0  0  0  0
  144.7153   73.0283  218.2152 H   0  0  0  0  0  0  0  0  0  0  0  0
  145.5168   71.1793  217.1294 H   0  0  0  0  0  0  0  0  0  0  0  0
  145.6599   68.7207  217.0461 H   0  0  0  0  0  0  0  0  0  0  0  0
  143.7687   68.4145  220.8826 H   0  0  0  0  0  0  0  0  0  0  0  0
  143.6233   70.8718  220.9701 H   0  0  0  0  0  0  0  0  0  0  0  0
  139.5201   69.8033  222.5378 H   0  0  0  0  0  0  0  0  0  0  0  0
  139.4366   68.2232  224.4752 H   0  0  0  0  0  0  0  0  0  0  0  0
  139.8263   67.8239  226.7659 H   0  0  0  0  0  0  0  0  0  0  0  0
  140.5916   68.6205  229.0078 H   0  0  0  0  0  0  0  0  0  0  0  0
  141.4164   70.9670  229.2613 H   0  0  0  0  0  0  0  0  0  0  0  0
  141.4666   72.4672  227.3024 H   0  0  0  0  0  0  0  0  0  0  0  0
  1  2  2  0
  2  3  1  0
  3  4  1  0
  4  5  1  0
  5  6  2  0
  5  7  1  0
  7  8  1  0
  8  9  1  0
  9 10  1  0
 10 11  1  0
 10 12  1  0
 12 13  1  0
 13 14  2  0
 14 15  1  0
 15 16  2  0
 16 17  1  0
 16 18  1  0
 18 19  2  0
  2 20  1  0
 20 21  2  0
 21 22  1  0
 22 23  2  0
 23 24  1  0
 24 25  2  0
 25 26  1  0
 26 27  2  0
 27 28  1  0
 28 29  2  0
 12  7  1  0
 19 13  1  0
 29 20  1  0
 28 23  1  0
  3 30  1  0
  4 31  1  0
  4 32  1  0
  8 33  1  0
  8 34  1  0
  9 35  1  0
  9 36  1  0
 10 37  1  1
 11 38  1  0
 12 39  1  6
 14 40  1  0
 15 41  1  0
 18 42  1  0
 19 43  1  0
 21 44  1  0
 22 45  1  0
 24 46  1  0
 25 47  1  0
 26 48  1  0
 27 49  1  0
M  END
>  <smiles>  (8) 
O=C(NCC(=O)N1CC[C@H](O)[C@H]1c1ccc(Cl)cc1)c1ccc2ccccc2n1

>  <score_type>  (8) 
oracle

>  <origin>  (8) 
autodockgpu

>  <m_score__min__energy>  (8) 
-8.9399999999999995

>  <m_primary>  (8) 
energy

>  <rmsd>  (8) 
3.6854552751094682

>  <m_score__min__rmsd>  (8) 
3.6854552751094682

>  <meeko>  (8) 
{"free_energy": -8.47, "intermolecular_energy": -10.26, "internal_energy": -1.47, "cluster_size": 5, "cluster_id": 1, "rank_in_cluster": 5}

>  <energy>  (8) 
-8.63

>  <cluster_rmsd>  (8) 
0.55

>  <cluster>  (8) 
2

$$$$

     RDKit          3D

 49 52  0  0  0  0  0  0  0  0999 V2000
  140.0250   73.5590  222.3390 O   0  0  0  0  0  0  0  0  0  0  0  0
  140.2710   72.3260  222.3260 C   0  0  0  0  0  0  0  0  0  0  0  0
  140.6260   71.7660  221.0610 N   0  0  0  0  0  0  0  0  0  0  0  0
  140.6680   72.6570  219.9310 C   0  0  0  0  0  0  0  0  0  0  0  0
  141.9440   72.4770  219.1750 C   0  0  0  0  0  0  0  0  0  0  0  0
  141.9100   71.7080  218.1600 O   0  0  0  0  0  0  0  0  0  0  0  0
  143.1340   73.1330  219.5740 N   0  0  0  0  0  0  0  0  0  0  0  0
  143.1680   74.3970  220.3250 C   0  0  0  0  0  0  0  0  0  0  0  0
  144.6360   74.7270  220.4720 C   0  0  0  0  0  0  0  0  0  0  0  0
  145.2310   73.3120  220.4860 C   0  0  2  0  0  0  0  0  0  0  0  0
  146.6070   73.3290  220.2840 O   0  0  0  0  0  0  0  0  0  0  0  0
  144.4730   72.7000  219.3280 C   0  0  1  0  0  0  0  0  0  0  0  0
  144.6180   71.2270  219.2840 C   0  0  0  0  0  0  0  0  0  0  0  0
  143.8960   70.3640  220.0830 C   0  0  0  0  0  0  0  0  0  0  0  0
  144.1050   69.0060  219.9630 C   0  0  0  0  0  0  0  0  0  0  0  0
  145.0180   68.4650  219.0670 C   0  0  0  0  0  0  0  0  0  0  0  0
  145.2440   66.7300  218.9580 Cl  0  0  0  0  0  0  0  0  0  0  0  0
  145.7360   69.3390  218.2720 C   0  0  0  0  0  0  0  0  0  0  0  0
  145.5320   70.6970  218.3860 C   0  0  0  0  0  0  0  0  0  0  0  0
  140.2050   71.4880  223.5200 C   0  0  0  0  0  0  0  0  0  0  0  0
  139.6470   70.2350  223.3810 C   0  0  0  0  0  0  0  0  0  0  0  0
  139.5300   69.3490  224.4500 C   0  0  0  0  0  0  0  0  0  0  0  0
  140.0050   69.7840  225.6720 C   0  0  0  0  0  0  0  0  0  0  0  0
  139.8970   68.9150  226.7450 C   0  0  0  0  0  0  0  0  0  0  0  0
  140.3630   69.3210  227.9860 C   0  0  0  0  0  0  0  0  0  0  0  0
  140.9270   70.5850  228.1260 C   0  0  0  0  0  0  0  0  0  0  0  0
  141.0130   71.4170  227.0260 C   0  0  0  0  0  0  0  0  0  0  0  0
  140.5530   71.0350  225.7690 C   0  0  0  0  0  0  0  0  0  0  0  0
  140.6590   71.8860  224.7210 N   0  0  0  0  0  0  0  0  0  0  0  0
  140.8410   70.7430  220.9900 H   0  0  0  0  0  0  0  0  0  0  0  0
  139.8188   72.4401  219.2663 H   0  0  0  0  0  0  0  0  0  0  0  0
  140.6094   73.6946  220.2915 H   0  0  0  0  0  0  0  0  0  0  0  0
  142.6473   75.1908  219.7693 H   0  0  0  0  0  0  0  0  0  0  0  0
  142.6647   74.3117  221.2994 H   0  0  0  0  0  0  0  0  0  0  0  0
  145.0082   75.3173  219.6217 H   0  0  0  0  0  0  0  0  0  0  0  0
  144.8857   75.3418  221.3493 H   0  0  0  0  0  0  0  0  0  0  0  0
  145.1270   72.7655  221.4349 H   0  0  0  0  0  0  0  0  0  0  0  0
  146.7960   74.1350  219.7080 H   0  0  0  0  0  0  0  0  0  0  0  0
  144.8415   73.0127  218.3398 H   0  0  0  0  0  0  0  0  0  0  0  0
  143.1639   70.7538  220.8056 H   0  0  0  0  0  0  0  0  0  0  0  0
  143.5254   68.3241  220.6025 H   0  0  0  0  0  0  0  0  0  0  0  0
  146.4690   68.9509  217.5495 H   0  0  0  0  0  0  0  0  0  0  0  0
  146.1106   71.3799  217.7466 H   0  0  0  0  0  0  0  0  0  0  0  0
  139.2813   69.9238  222.3914 H   0  0  0  0  0  0  0  0  0  0  0  0
  139.0814   68.3522  224.3269 H   0  0  0  0  0  0  0  0  0  0  0  0
  139.4488   67.9189  226.6147 H   0  0  0  0  0  0  0  0  0  0  0  0
  140.2874   68.6488  228.8534 H   0  0  0  0  0  0  0  0  0  0  0  0
  141.3016   70.9195  229.1047 H   0  0  0  0  0  0  0  0  0  0  0  0
  141.4600   72.4147  227.1478 H   0  0  0  0  0  0  0  0  0  0  0  0
  1  2  2  0
  2  3  1  0
  3  4  1  0
  4  5  1  0
  5  6  2  0
  5  7  1  0
  7  8  1  0
  8  9  1  0
  9 10  1  0
 10 11  1  0
 10 12  1  0
 12 13  1  0
 13 14  2  0
 14 15  1  0
 15 16  2  0
 16 17  1  0
 16 18  1  0
 18 19  2  0
  2 20  1  0
 20 21  2  0
 21 22  1  0
 22 23  2  0
 23 24  1  0
 24 25  2  0
 25 26  1  0
 26 27  2  0
 27 28  1  0
 28 29  2  0
 12  7  1  0
 19 13  1  0
 29 20  1  0
 28 23  1  0
  3 30  1  0
  4 31  1  0
  4 32  1  0
  8 33  1  0
  8 34  1  0
  9 35  1  0
  9 36  1  0
 10 37  1  1
 11 38  1  0
 12 39  1  6
 14 40  1  0
 15 41  1  0
 18 42  1  0
 19 43  1  0
 21 44  1  0
 22 45  1  0
 24 46  1  0
 25 47  1  0
 26 48  1  0
 27 49  1  0
M  END
>  <smiles>  (9) 
O=C(NCC(=O)N1CC[C@H](O)[C@H]1c1ccc(Cl)cc1)c1ccc2ccccc2n1

>  <score_type>  (9) 
oracle

>  <origin>  (9) 
autodockgpu

>  <m_score__min__energy>  (9) 
-8.9399999999999995

>  <m_primary>  (9) 
energy

>  <rmsd>  (9) 
3.6722624251083884

>  <m_score__min__rmsd>  (9) 
3.6722624251083884

>  <meeko>  (9) 
{"free_energy": -8.69, "intermolecular_energy": -10.48, "internal_energy": -1.41, "cluster_size": 5, "cluster_id": 1, "rank_in_cluster": 3}

>  <energy>  (9) 
-8.63

>  <cluster_rmsd>  (9) 
0.24

>  <cluster>  (9) 
2

$$$$

     RDKit          3D

 49 52  0  0  0  0  0  0  0  0999 V2000
  140.2260   73.4300  222.3980 O   0  0  0  0  0  0  0  0  0  0  0  0
  140.2560   72.1750  222.4540 C   0  0  0  0  0  0  0  0  0  0  0  0
  140.3780   71.4900  221.2060 N   0  0  0  0  0  0  0  0  0  0  0  0
  140.4560   72.2940  220.0150 C   0  0  0  0  0  0  0  0  0  0  0  0
  141.6930   71.9630  219.2450 C   0  0  0  0  0  0  0  0  0  0  0  0
  141.6400   70.9470  218.4770 O   0  0  0  0  0  0  0  0  0  0  0  0
  142.8660   72.7450  219.3670 N   0  0  0  0  0  0  0  0  0  0  0  0
  142.9240   74.0450  220.0520 C   0  0  0  0  0  0  0  0  0  0  0  0
  144.3500   74.5160  219.8820 C   0  0  0  0  0  0  0  0  0  0  0  0
  145.0760   73.1650  219.8200 C   0  0  2  0  0  0  0  0  0  0  0  0
  146.3730   73.2970  219.3380 O   0  0  0  0  0  0  0  0  0  0  0  0
  144.1640   72.4250  218.8640 C   0  0  1  0  0  0  0  0  0  0  0  0
  144.4450   70.9710  218.8410 C   0  0  0  0  0  0  0  0  0  0  0  0
  145.0450   70.3260  217.7790 C   0  0  0  0  0  0  0  0  0  0  0  0
  145.2630   68.9660  217.8580 C   0  0  0  0  0  0  0  0  0  0  0  0
  144.9030   68.2130  218.9680 C   0  0  0  0  0  0  0  0  0  0  0  0
  145.2050   66.4860  219.0130 Cl  0  0  0  0  0  0  0  0  0  0  0  0
  144.3030   68.8690  220.0260 C   0  0  0  0  0  0  0  0  0  0  0  0
  144.0820   70.2280  219.9540 C   0  0  0  0  0  0  0  0  0  0  0  0
  140.1710   71.4310  223.7070 C   0  0  0  0  0  0  0  0  0  0  0  0
  139.5370   70.2070  223.6720 C   0  0  0  0  0  0  0  0  0  0  0  0
  139.3950   69.4090  224.8050 C   0  0  0  0  0  0  0  0  0  0  0  0
  139.9250   69.9020  225.9830 C   0  0  0  0  0  0  0  0  0  0  0  0
  139.7930   69.1210  227.1180 C   0  0  0  0  0  0  0  0  0  0  0  0
  140.3130   69.5860  228.3160 C   0  0  0  0  0  0  0  0  0  0  0  0
  140.9530   70.8210  228.3520 C   0  0  0  0  0  0  0  0  0  0  0  0
  141.0600   71.5650  227.1910 C   0  0  0  0  0  0  0  0  0  0  0  0
  140.5470   71.1210  225.9760 C   0  0  0  0  0  0  0  0  0  0  0  0
  140.6770   71.8870  224.8660 N   0  0  0  0  0  0  0  0  0  0  0  0
  140.4080   70.4430  221.1920 H   0  0  0  0  0  0  0  0  0  0  0  0
  139.5745   72.0982  219.3868 H   0  0  0  0  0  0  0  0  0  0  0  0
  140.4867   73.3555  220.3017 H   0  0  0  0  0  0  0  0  0  0  0  0
  142.2244   74.7568  219.5895 H   0  0  0  0  0  0  0  0  0  0  0  0
  142.6396   73.9657  221.1116 H   0  0  0  0  0  0  0  0  0  0  0  0
  144.4810   75.0920  218.9541 H   0  0  0  0  0  0  0  0  0  0  0  0
  144.7081   75.1969  220.6682 H   0  0  0  0  0  0  0  0  0  0  0  0
  145.2226   72.6630  220.7877 H   0  0  0  0  0  0  0  0  0  0  0  0
  146.5890   74.2820  219.3790 H   0  0  0  0  0  0  0  0  0  0  0  0
  144.2910   72.7176  217.8113 H   0  0  0  0  0  0  0  0  0  0  0  0
  145.3452   70.8880  216.8823 H   0  0  0  0  0  0  0  0  0  0  0  0
  145.7411   68.4577  217.0077 H   0  0  0  0  0  0  0  0  0  0  0  0
  144.0025   68.3083  220.9234 H   0  0  0  0  0  0  0  0  0  0  0  0
  143.6041   70.7374  220.8038 H   0  0  0  0  0  0  0  0  0  0  0  0
  139.1289   69.8480  222.7156 H   0  0  0  0  0  0  0  0  0  0  0  0
  138.8862   68.4346  224.7644 H   0  0  0  0  0  0  0  0  0  0  0  0
  139.2838   68.1472  227.0702 H   0  0  0  0  0  0  0  0  0  0  0  0
  140.2204   68.9831  229.2314 H   0  0  0  0  0  0  0  0  0  0  0  0
  141.3702   71.2023  229.2957 H   0  0  0  0  0  0  0  0  0  0  0  0
  141.5675   72.5402  227.2293 H   0  0  0  0  0  0  0  0  0  0  0  0
  1  2  2  0
  2  3  1  0
  3  4  1  0
  4  5  1  0
  5  6  2  0
  5  7  1  0
  7  8  1  0
  8  9  1  0
  9 10  1  0
 10 11  1  0
 10 12  1  0
 12 13  1  0
 13 14  2  0
 14 15  1  0
 15 16  2  0
 16 17  1  0
 16 18  1  0
 18 19  2  0
  2 20  1  0
 20 21  2  0
 21 22  1  0
 22 23  2  0
 23 24  1  0
 24 25  2  0
 25 26  1  0
 26 27  2  0
 27 28  1  0
 28 29  2  0
 12  7  1  0
 19 13  1  0
 29 20  1  0
 28 23  1  0
  3 30  1  0
  4 31  1  0
  4 32  1  0
  8 33  1  0
  8 34  1  0
  9 35  1  0
  9 36  1  0
 10 37  1  1
 11 38  1  0
 12 39  1  6
 14 40  1  0
 15 41  1  0
 18 42  1  0
 19 43  1  0
 21 44  1  0
 22 45  1  0
 24 46  1  0
 25 47  1  0
 26 48  1  0
 27 49  1  0
M  END
>  <smiles>  (10) 
O=C(NCC(=O)N1CC[C@H](O)[C@H]1c1ccc(Cl)cc1)c1ccc2ccccc2n1

>  <score_type>  (10) 
oracle

>  <origin>  (10) 
autodockgpu

>  <m_score__min__energy>  (10) 
-8.9399999999999995

>  <m_primary>  (10) 
energy

>  <rmsd>  (10) 
3.557589977119567

>  <m_score__min__rmsd>  (10) 
3.557589977119567

>  <meeko>  (10) 
{"free_energy": -8.83, "intermolecular_energy": -10.62, "internal_energy": -1.32, "cluster_size": 5, "cluster_id": 1, "rank_in_cluster": 2}

>  <energy>  (10) 
-8.63

>  <cluster_rmsd>  (10) 
0.25

>  <cluster>  (10) 
2

$$$$

     RDKit          3D

 49 52  0  0  0  0  0  0  0  0999 V2000
  139.7810   71.2660  221.3290 O   0  0  0  0  0  0  0  0  0  0  0  0
  139.2480   71.6690  222.3940 C   0  0  0  0  0  0  0  0  0  0  0  0
  138.2590   72.6910  222.2580 N   0  0  0  0  0  0  0  0  0  0  0  0
  137.9680   73.1580  220.9280 C   0  0  0  0  0  0  0  0  0  0  0  0
  139.0490   74.0720  220.4510 C   0  0  0  0  0  0  0  0  0  0  0  0
  139.7050   73.7030  219.4220 O   0  0  0  0  0  0  0  0  0  0  0  0
  139.3270   75.2910  221.1150 N   0  0  0  0  0  0  0  0  0  0  0  0
  138.4080   75.9460  222.0580 C   0  0  0  0  0  0  0  0  0  0  0  0
  139.1060   77.2240  222.4630 C   0  0  0  0  0  0  0  0  0  0  0  0
  140.5710   76.7850  222.3330 C   0  0  2  0  0  0  0  0  0  0  0  0
  141.4380   77.8720  222.3340 O   0  0  0  0  0  0  0  0  0  0  0  0
  140.5120   76.0790  220.9950 C   0  0  1  0  0  0  0  0  0  0  0  0
  141.7300   75.2780  220.7340 C   0  0  0  0  0  0  0  0  0  0  0  0
  141.9090   73.9890  221.1940 C   0  0  0  0  0  0  0  0  0  0  0  0
  143.0810   73.3280  220.8940 C   0  0  0  0  0  0  0  0  0  0  0  0
  144.0970   73.9070  220.1450 C   0  0  0  0  0  0  0  0  0  0  0  0
  145.5680   73.0180  219.7940 Cl  0  0  0  0  0  0  0  0  0  0  0  0
  143.9080   75.1980  219.6900 C   0  0  0  0  0  0  0  0  0  0  0  0
  142.7380   75.8650  219.9850 C   0  0  0  0  0  0  0  0  0  0  0  0
  139.6000   71.1420  223.7090 C   0  0  0  0  0  0  0  0  0  0  0  0
  139.3240   69.8120  223.9490 C   0  0  0  0  0  0  0  0  0  0  0  0
  139.6140   69.2000  225.1670 C   0  0  0  0  0  0  0  0  0  0  0  0
  140.2010   69.9910  226.1360 C   0  0  0  0  0  0  0  0  0  0  0  0
  140.4960   69.3980  227.3510 C   0  0  0  0  0  0  0  0  0  0  0  0
  141.0850   70.1640  228.3460 C   0  0  0  0  0  0  0  0  0  0  0  0
  141.3640   71.5050  228.1030 C   0  0  0  0  0  0  0  0  0  0  0  0
  141.0500   72.0530  226.8740 C   0  0  0  0  0  0  0  0  0  0  0  0
  140.4590   71.3060  225.8580 C   0  0  0  0  0  0  0  0  0  0  0  0
  140.1710   71.8890  224.6700 N   0  0  0  0  0  0  0  0  0  0  0  0
  137.7810   73.0650  223.1120 H   0  0  0  0  0  0  0  0  0  0  0  0
  137.8957   72.2960  220.2485 H   0  0  0  0  0  0  0  0  0  0  0  0
  137.0153   73.7077  220.9424 H   0  0  0  0  0  0  0  0  0  0  0  0
  137.4475   76.1683  221.5701 H   0  0  0  0  0  0  0  0  0  0  0  0
  138.1815   75.3072  222.9244 H   0  0  0  0  0  0  0  0  0  0  0  0
  138.8668   78.0529  221.7806 H   0  0  0  0  0  0  0  0  0  0  0  0
  138.8256   77.6092  223.4545 H   0  0  0  0  0  0  0  0  0  0  0  0
  140.9528   76.1642  223.1569 H   0  0  0  0  0  0  0  0  0  0  0  0
  142.3070   77.5390  221.9460 H   0  0  0  0  0  0  0  0  0  0  0  0
  140.4775   76.7612  220.1328 H   0  0  0  0  0  0  0  0  0  0  0  0
  141.1277   73.4963  221.7914 H   0  0  0  0  0  0  0  0  0  0  0  0
  143.2168   72.3006  221.2627 H   0  0  0  0  0  0  0  0  0  0  0  0
  144.6892   75.6924  219.0939 H   0  0  0  0  0  0  0  0  0  0  0  0
  142.6005   76.8920  219.6156 H   0  0  0  0  0  0  0  0  0  0  0  0
  138.8590   69.2138  223.1515 H   0  0  0  0  0  0  0  0  0  0  0  0
  139.3867   68.1391  225.3481 H   0  0  0  0  0  0  0  0  0  0  0  0
  140.2671   68.3362  227.5249 H   0  0  0  0  0  0  0  0  0  0  0  0
  141.3296   69.7146  229.3197 H   0  0  0  0  0  0  0  0  0  0  0  0
  141.8309   72.1243  228.8831 H   0  0  0  0  0  0  0  0  0  0  0  0
  141.2743   73.1144  226.6921 H   0  0  0  0  0  0  0  0  0  0  0  0
  1  2  2  0
  2  3  1  0
  3  4  1  0
  4  5  1  0
  5  6  2  0
  5  7  1  0
  7  8  1  0
  8  9  1  0
  9 10  1  0
 10 11  1  0
 10 12  1  0
 12 13  1  0
 13 14  2  0
 14 15  1  0
 15 16  2  0
 16 17  1  0
 16 18  1  0
 18 19  2  0
  2 20  1  0
 20 21  2  0
 21 22  1  0
 22 23  2  0
 23 24  1  0
 24 25  2  0
 25 26  1  0
 26 27  2  0
 27 28  1  0
 28 29  2  0
 12  7  1  0
 19 13  1  0
 29 20  1  0
 28 23  1  0
  3 30  1  0
  4 31  1  0
  4 32  1  0
  8 33  1  0
  8 34  1  0
  9 35  1  0
  9 36  1  0
 10 37  1  1
 11 38  1  0
 12 39  1  6
 14 40  1  0
 15 41  1  0
 18 42  1  0
 19 43  1  0
 21 44  1  0
 22 45  1  0
 24 46  1  0
 25 47  1  0
 26 48  1  0
 27 49  1  0
M  END
>  <smiles>  (11) 
O=C(NCC(=O)N1CC[C@H](O)[C@H]1c1ccc(Cl)cc1)c1ccc2ccccc2n1

>  <score_type>  (11) 
oracle

>  <origin>  (11) 
autodockgpu

>  <m_score__min__energy>  (11) 
-8.9399999999999995

>  <m_primary>  (11) 
energy

>  <rmsd>  (11) 
2.8009824196204303

>  <m_score__min__rmsd>  (11) 
2.8009824196204303

>  <meeko>  (11) 
{"free_energy": -8.44, "intermolecular_energy": -10.23, "internal_energy": -1.55, "cluster_size": 3, "cluster_id": 4, "rank_in_cluster": 2}

>  <energy>  (11) 
-8.61

>  <cluster_rmsd>  (11) 
0.25

>  <cluster>  (11) 
2

$$$$

     RDKit          3D

 49 52  0  0  0  0  0  0  0  0999 V2000
  139.9230   74.1000  222.2510 O   0  0  0  0  0  0  0  0  0  0  0  0
  140.4020   75.0580  221.5920 C   0  0  0  0  0  0  0  0  0  0  0  0
  141.0060   74.7250  220.3410 N   0  0  0  0  0  0  0  0  0  0  0  0
  141.0090   73.3380  219.9560 C   0  0  0  0  0  0  0  0  0  0  0  0
  142.0680   72.5950  220.7030 C   0  0  0  0  0  0  0  0  0  0  0  0
  141.7990   72.2550  221.9010 O   0  0  0  0  0  0  0  0  0  0  0  0
  143.3120   72.2860  220.1020 N   0  0  0  0  0  0  0  0  0  0  0  0
  143.7540   70.9220  219.7750 C   0  0  0  0  0  0  0  0  0  0  0  0
  145.1450   71.0860  219.2060 C   0  0  0  0  0  0  0  0  0  0  0  0
  145.0200   72.4830  218.5830 C   0  0  2  0  0  0  0  0  0  0  0  0
  146.2630   73.0220  218.2710 O   0  0  0  0  0  0  0  0  0  0  0  0
  144.3290   73.2110  219.7170 C   0  0  1  0  0  0  0  0  0  0  0  0
  143.7990   74.5270  219.2930 C   0  0  0  0  0  0  0  0  0  0  0  0
  143.8260   75.6540  220.0890 C   0  0  0  0  0  0  0  0  0  0  0  0
  143.3070   76.8330  219.5970 C   0  0  0  0  0  0  0  0  0  0  0  0
  142.7540   76.9370  218.3270 C   0  0  0  0  0  0  0  0  0  0  0  0
  142.1080   78.4630  217.7540 Cl  0  0  0  0  0  0  0  0  0  0  0  0
  142.7330   75.8020  217.5380 C   0  0  0  0  0  0  0  0  0  0  0  0
  143.2500   74.6200  218.0230 C   0  0  0  0  0  0  0  0  0  0  0  0
  140.3580   76.4430  222.0540 C   0  0  0  0  0  0  0  0  0  0  0  0
  139.1280   76.9430  222.4300 C   0  0  0  0  0  0  0  0  0  0  0  0
  138.9640   78.2490  222.8860 C   0  0  0  0  0  0  0  0  0  0  0  0
  140.1000   79.0330  222.9490 C   0  0  0  0  0  0  0  0  0  0  0  0
  139.9540   80.3330  223.4010 C   0  0  0  0  0  0  0  0  0  0  0  0
  141.0740   81.1470  223.4760 C   0  0  0  0  0  0  0  0  0  0  0  0
  142.3140   80.6420  223.0970 C   0  0  0  0  0  0  0  0  0  0  0  0
  142.4100   79.3370  222.6520 C   0  0  0  0  0  0  0  0  0  0  0  0
  141.3020   78.4990  222.5670 C   0  0  0  0  0  0  0  0  0  0  0  0
  141.4470   77.2270  222.1250 N   0  0  0  0  0  0  0  0  0  0  0  0
  141.4210   75.4840  219.7500 H   0  0  0  0  0  0  0  0  0  0  0  0
  140.0274   72.8963  220.1826 H   0  0  0  0  0  0  0  0  0  0  0  0
  141.2145   73.2664  218.8777 H   0  0  0  0  0  0  0  0  0  0  0  0
  143.7777   70.2963  220.6794 H   0  0  0  0  0  0  0  0  0  0  0  0
  143.0740   70.4266  219.0664 H   0  0  0  0  0  0  0  0  0  0  0  0
  145.9131   71.0580  219.9929 H   0  0  0  0  0  0  0  0  0  0  0  0
  145.4541   70.2948  218.5071 H   0  0  0  0  0  0  0  0  0  0  0  0
  144.4843   72.5262  217.6232 H   0  0  0  0  0  0  0  0  0  0  0  0
  146.2090   74.0040  218.5000 H   0  0  0  0  0  0  0  0  0  0  0  0
  144.9976   73.4722  220.5505 H   0  0  0  0  0  0  0  0  0  0  0  0
  144.2552   75.6124  221.1010 H   0  0  0  0  0  0  0  0  0  0  0  0
  143.3319   77.7277  220.2364 H   0  0  0  0  0  0  0  0  0  0  0  0
  142.3047   75.8422  216.5256 H   0  0  0  0  0  0  0  0  0  0  0  0
  143.2265   73.7247  217.3843 H   0  0  0  0  0  0  0  0  0  0  0  0
  138.2467   76.2877  222.3675 H   0  0  0  0  0  0  0  0  0  0  0  0
  137.9781   78.6372  223.1815 H   0  0  0  0  0  0  0  0  0  0  0  0
  138.9653   80.7143  223.6960 H   0  0  0  0  0  0  0  0  0  0  0  0
  140.9830   82.1837  223.8323 H   0  0  0  0  0  0  0  0  0  0  0  0
  143.2109   81.2765  223.1511 H   0  0  0  0  0  0  0  0  0  0  0  0
  143.3950   78.9477  222.3551 H   0  0  0  0  0  0  0  0  0  0  0  0
  1  2  2  0
  2  3  1  0
  3  4  1  0
  4  5  1  0
  5  6  2  0
  5  7  1  0
  7  8  1  0
  8  9  1  0
  9 10  1  0
 10 11  1  0
 10 12  1  0
 12 13  1  0
 13 14  2  0
 14 15  1  0
 15 16  2  0
 16 17  1  0
 16 18  1  0
 18 19  2  0
  2 20  1  0
 20 21  2  0
 21 22  1  0
 22 23  2  0
 23 24  1  0
 24 25  2  0
 25 26  1  0
 26 27  2  0
 27 28  1  0
 28 29  2  0
 12  7  1  0
 19 13  1  0
 29 20  1  0
 28 23  1  0
  3 30  1  0
  4 31  1  0
  4 32  1  0
  8 33  1  0
  8 34  1  0
  9 35  1  0
  9 36  1  0
 10 37  1  6
 11 38  1  0
 12 39  1  1
 14 40  1  0
 15 41  1  0
 18 42  1  0
 19 43  1  0
 21 44  1  0
 22 45  1  0
 24 46  1  0
 25 47  1  0
 26 48  1  0
 27 49  1  0
M  END
>  <smiles>  (12) 
O=C(NCC(=O)N1CC[C@H](O)[C@H]1c1ccc(Cl)cc1)c1ccc2ccccc2n1

>  <score_type>  (12) 
oracle

>  <origin>  (12) 
autodockgpu

>  <m_score__min__energy>  (12) 
-8.9399999999999995

>  <m_primary>  (12) 
energy

>  <rmsd>  (12) 
7.541757177872421

>  <m_score__min__rmsd>  (12) 
7.541757177872421

>  <meeko>  (12) 
{"free_energy": -7.97, "intermolecular_energy": -9.76, "internal_energy": -2.04, "cluster_size": 16, "cluster_id": 7, "rank_in_cluster": 6}

>  <energy>  (12) 
-8.58

>  <cluster_rmsd>  (12) 
0.9

>  <cluster>  (12) 
2

$$$$

     RDKit          3D

 49 52  0  0  0  0  0  0  0  0999 V2000
  140.2990   73.4110  222.3400 O   0  0  0  0  0  0  0  0  0  0  0  0
  140.3630   72.1560  222.3940 C   0  0  0  0  0  0  0  0  0  0  0  0
  140.5200   71.4770  221.1470 N   0  0  0  0  0  0  0  0  0  0  0  0
  140.5880   72.2850  219.9580 C   0  0  0  0  0  0  0  0  0  0  0  0
  141.8990   72.0840  219.2690 C   0  0  0  0  0  0  0  0  0  0  0  0
  141.9400   71.1970  218.3550 O   0  0  0  0  0  0  0  0  0  0  0  0
  143.0390   72.8470  219.6200 N   0  0  0  0  0  0  0  0  0  0  0  0
  142.9860   74.1130  220.3660 C   0  0  0  0  0  0  0  0  0  0  0  0
  144.4230   74.5750  220.4560 C   0  0  0  0  0  0  0  0  0  0  0  0
  145.1450   73.2200  220.4490 C   0  0  2  0  0  0  0  0  0  0  0  0
  146.5040   73.3600  220.1940 O   0  0  0  0  0  0  0  0  0  0  0  0
  144.4000   72.5350  219.3220 C   0  0  1  0  0  0  0  0  0  0  0  0
  144.6760   71.0810  219.2760 C   0  0  0  0  0  0  0  0  0  0  0  0
  144.0610   70.1600  220.0980 C   0  0  0  0  0  0  0  0  0  0  0  0
  144.3880   68.8260  219.9740 C   0  0  0  0  0  0  0  0  0  0  0  0
  145.3170   68.3660  219.0490 C   0  0  0  0  0  0  0  0  0  0  0  0
  145.6950   66.6580  218.9350 Cl  0  0  0  0  0  0  0  0  0  0  0  0
  145.9280   69.2980  218.2300 C   0  0  0  0  0  0  0  0  0  0  0  0
  145.6050   70.6330  218.3500 C   0  0  0  0  0  0  0  0  0  0  0  0
  140.2850   71.4090  223.6460 C   0  0  0  0  0  0  0  0  0  0  0  0
  139.7210   70.1510  223.5950 C   0  0  0  0  0  0  0  0  0  0  0  0
  139.5930   69.3460  224.7250 C   0  0  0  0  0  0  0  0  0  0  0  0
  140.0610   69.8670  225.9150 C   0  0  0  0  0  0  0  0  0  0  0  0
  139.9410   69.0800  227.0480 C   0  0  0  0  0  0  0  0  0  0  0  0
  140.4010   69.5730  228.2600 C   0  0  0  0  0  0  0  0  0  0  0  0
  140.9700   70.8410  228.3110 C   0  0  0  0  0  0  0  0  0  0  0  0
  141.0680   71.5910  227.1530 C   0  0  0  0  0  0  0  0  0  0  0  0
  140.6140   71.1190  225.9240 C   0  0  0  0  0  0  0  0  0  0  0  0
  140.7330   71.8910  224.8180 N   0  0  0  0  0  0  0  0  0  0  0  0
  140.5790   70.4310  221.1320 H   0  0  0  0  0  0  0  0  0  0  0  0
  139.7726   71.9986  219.2774 H   0  0  0  0  0  0  0  0  0  0  0  0
  140.4898   73.3440  220.2387 H   0  0  0  0  0  0  0  0  0  0  0  0
  142.3749   74.8531  219.8285 H   0  0  0  0  0  0  0  0  0  0  0  0
  142.5292   73.9886  221.3589 H   0  0  0  0  0  0  0  0  0  0  0  0
  144.7073   75.1926  219.5913 H   0  0  0  0  0  0  0  0  0  0  0  0
  144.6489   75.2137  221.3226 H   0  0  0  0  0  0  0  0  0  0  0  0
  145.1287   72.6715  221.4024 H   0  0  0  0  0  0  0  0  0  0  0  0
  146.5930   74.1520  219.5760 H   0  0  0  0  0  0  0  0  0  0  0  0
  144.6992   72.8737  218.3191 H   0  0  0  0  0  0  0  0  0  0  0  0
  143.3195   70.4852  220.8426 H   0  0  0  0  0  0  0  0  0  0  0  0
  143.8938   68.0974  220.6335 H   0  0  0  0  0  0  0  0  0  0  0  0
  146.6698   68.9750  217.4847 H   0  0  0  0  0  0  0  0  0  0  0  0
  146.0986   71.3634  217.6921 H   0  0  0  0  0  0  0  0  0  0  0  0
  139.3597   69.7701  222.6284 H   0  0  0  0  0  0  0  0  0  0  0  0
  139.1412   68.3445  224.6717 H   0  0  0  0  0  0  0  0  0  0  0  0
  139.4879   68.0795  226.9877 H   0  0  0  0  0  0  0  0  0  0  0  0
  140.3165   68.9660  229.1735 H   0  0  0  0  0  0  0  0  0  0  0  0
  141.3394   71.2445  229.2653 H   0  0  0  0  0  0  0  0  0  0  0  0
  141.5192   72.5929  227.2045 H   0  0  0  0  0  0  0  0  0  0  0  0
  1  2  2  0
  2  3  1  0
  3  4  1  0
  4  5  1  0
  5  6  2  0
  5  7  1  0
  7  8  1  0
  8  9  1  0
  9 10  1  0
 10 11  1  0
 10 12  1  0
 12 13  1  0
 13 14  2  0
 14 15  1  0
 15 16  2  0
 16 17  1  0
 16 18  1  0
 18 19  2  0
  2 20  1  0
 20 21  2  0
 21 22  1  0
 22 23  2  0
 23 24  1  0
 24 25  2  0
 25 26  1  0
 26 27  2  0
 27 28  1  0
 28 29  2  0
 12  7  1  0
 19 13  1  0
 29 20  1  0
 28 23  1  0
  3 30  1  0
  4 31  1  0
  4 32  1  0
  8 33  1  0
  8 34  1  0
  9 35  1  0
  9 36  1  0
 10 37  1  1
 11 38  1  0
 12 39  1  6
 14 40  1  0
 15 41  1  0
 18 42  1  0
 19 43  1  0
 21 44  1  0
 22 45  1  0
 24 46  1  0
 25 47  1  0
 26 48  1  0
 27 49  1  0
M  END
>  <smiles>  (13) 
O=C(NCC(=O)N1CC[C@H](O)[C@H]1c1ccc(Cl)cc1)c1ccc2ccccc2n1

>  <score_type>  (13) 
oracle

>  <origin>  (13) 
autodockgpu

>  <m_score__min__energy>  (13) 
-8.9399999999999995

>  <m_primary>  (13) 
energy

>  <rmsd>  (13) 
3.6634761738388955

>  <m_score__min__rmsd>  (13) 
3.6634761738388955

>  <meeko>  (13) 
{"free_energy": -8.94, "intermolecular_energy": -10.73, "internal_energy": -1.36, "cluster_size": 5, "cluster_id": 1, "rank_in_cluster": 1}

>  <energy>  (13) 
-8.57

>  <cluster_rmsd>  (13) 
0.48

>  <cluster>  (13) 
2

$$$$

     RDKit          3D

 49 52  0  0  0  0  0  0  0  0999 V2000
  140.9720   71.4160  221.4060 O   0  0  0  0  0  0  0  0  0  0  0  0
  140.4420   71.9040  222.4370 C   0  0  0  0  0  0  0  0  0  0  0  0
  140.0210   73.2650  222.3470 N   0  0  0  0  0  0  0  0  0  0  0  0
  140.2390   73.9450  221.0970 C   0  0  0  0  0  0  0  0  0  0  0  0
  140.6120   75.3710  221.3400 C   0  0  0  0  0  0  0  0  0  0  0  0
  140.2890   75.8680  222.4680 O   0  0  0  0  0  0  0  0  0  0  0  0
  141.2920   76.1310  220.3580 N   0  0  0  0  0  0  0  0  0  0  0  0
  141.5570   75.6630  218.9900 C   0  0  0  0  0  0  0  0  0  0  0  0
  142.3410   76.7790  218.3380 C   0  0  0  0  0  0  0  0  0  0  0  0
  141.7770   77.9870  219.0990 C   0  0  2  0  0  0  0  0  0  0  0  0
  142.5630   79.1200  218.9240 O   0  0  0  0  0  0  0  0  0  0  0  0
  141.8250   77.4470  220.5130 C   0  0  1  0  0  0  0  0  0  0  0  0
  141.0540   78.2890  221.4560 C   0  0  0  0  0  0  0  0  0  0  0  0
  141.5360   78.7000  222.6820 C   0  0  0  0  0  0  0  0  0  0  0  0
  140.7370   79.4850  223.4870 C   0  0  0  0  0  0  0  0  0  0  0  0
  139.4600   79.8830  223.1140 C   0  0  0  0  0  0  0  0  0  0  0  0
  138.4880   80.8820  224.1790 Cl  0  0  0  0  0  0  0  0  0  0  0  0
  138.9870   79.4650  221.8840 C   0  0  0  0  0  0  0  0  0  0  0  0
  139.7800   78.6810  221.0750 C   0  0  0  0  0  0  0  0  0  0  0  0
  140.2560   71.1440  223.6700 C   0  0  0  0  0  0  0  0  0  0  0  0
  139.5760   69.9480  223.5760 C   0  0  0  0  0  0  0  0  0  0  0  0
  139.3380   69.1380  224.6850 C   0  0  0  0  0  0  0  0  0  0  0  0
  139.8180   69.5910  225.8990 C   0  0  0  0  0  0  0  0  0  0  0  0
  139.5890   68.7980  227.0110 C   0  0  0  0  0  0  0  0  0  0  0  0
  140.0570   69.2230  228.2450 C   0  0  0  0  0  0  0  0  0  0  0  0
  140.7420   70.4310  228.3390 C   0  0  0  0  0  0  0  0  0  0  0  0
  140.9460   71.1880  227.2010 C   0  0  0  0  0  0  0  0  0  0  0  0
  140.4870   70.7840  225.9500 C   0  0  0  0  0  0  0  0  0  0  0  0
  140.7110   71.5610  224.8640 N   0  0  0  0  0  0  0  0  0  0  0  0
  139.5730   73.7230  223.1760 H   0  0  0  0  0  0  0  0  0  0  0  0
  141.0519   73.4457  220.5494 H   0  0  0  0  0  0  0  0  0  0  0  0
  139.3115   73.9137  220.5064 H   0  0  0  0  0  0  0  0  0  0  0  0
  142.1471   74.7349  219.0067 H   0  0  0  0  0  0  0  0  0  0  0  0
  140.6290   75.4372  218.4442 H   0  0  0  0  0  0  0  0  0  0  0  0
  143.4231   76.6649  218.4991 H   0  0  0  0  0  0  0  0  0  0  0  0
  142.2414   76.8351  217.2440 H   0  0  0  0  0  0  0  0  0  0  0  0
  140.7813   78.3260  218.7769 H   0  0  0  0  0  0  0  0  0  0  0  0
  143.5190   78.7980  218.9070 H   0  0  0  0  0  0  0  0  0  0  0  0
  142.8326   77.4428  220.9543 H   0  0  0  0  0  0  0  0  0  0  0  0
  142.5430   78.4058  223.0126 H   0  0  0  0  0  0  0  0  0  0  0  0
  141.1269   79.8086  224.4633 H   0  0  0  0  0  0  0  0  0  0  0  0
  137.9799   79.7577  221.5521 H   0  0  0  0  0  0  0  0  0  0  0  0
  139.3910   78.3567  220.0985 H   0  0  0  0  0  0  0  0  0  0  0  0
  139.2087   69.6220  222.5917 H   0  0  0  0  0  0  0  0  0  0  0  0
  138.7950   68.1853  224.5981 H   0  0  0  0  0  0  0  0  0  0  0  0
  139.0448   67.8467  226.9168 H   0  0  0  0  0  0  0  0  0  0  0  0
  139.8882   68.6102  229.1428 H   0  0  0  0  0  0  0  0  0  0  0  0
  141.1182   70.7805  229.3118 H   0  0  0  0  0  0  0  0  0  0  0  0
  141.4888   72.1410  227.2862 H   0  0  0  0  0  0  0  0  0  0  0  0
  1  2  2  0
  2  3  1  0
  3  4  1  0
  4  5  1  0
  5  6  2  0
  5  7  1  0
  7  8  1  0
  8  9  1  0
  9 10  1  0
 10 11  1  0
 10 12  1  0
 12 13  1  0
 13 14  2  0
 14 15  1  0
 15 16  2  0
 16 17  1  0
 16 18  1  0
 18 19  2  0
  2 20  1  0
 20 21  2  0
 21 22  1  0
 22 23  2  0
 23 24  1  0
 24 25  2  0
 25 26  1  0
 26 27  2  0
 27 28  1  0
 28 29  2  0
 12  7  1  0
 19 13  1  0
 29 20  1  0
 28 23  1  0
  3 30  1  0
  4 31  1  0
  4 32  1  0
  8 33  1  0
  8 34  1  0
  9 35  1  0
  9 36  1  0
 10 37  1  6
 11 38  1  0
 12 39  1  1
 14 40  1  0
 15 41  1  0
 18 42  1  0
 19 43  1  0
 21 44  1  0
 22 45  1  0
 24 46  1  0
 25 47  1  0
 26 48  1  0
 27 49  1  0
M  END
>  <smiles>  (14) 
O=C(NCC(=O)N1CC[C@H](O)[C@H]1c1ccc(Cl)cc1)c1ccc2ccccc2n1

>  <score_type>  (14) 
oracle

>  <origin>  (14) 
autodockgpu

>  <m_score__min__energy>  (14) 
-8.9399999999999995

>  <m_primary>  (14) 
energy

>  <rmsd>  (14) 
2.0633819998656566

>  <m_score__min__rmsd>  (14) 
2.0633819998656566

>  <meeko>  (14) 
{"free_energy": -8.63, "intermolecular_energy": -10.42, "internal_energy": -1.61, "cluster_size": 14, "cluster_id": 2, "rank_in_cluster": 4}

>  <energy>  (14) 
-8.56

>  <cluster_rmsd>  (14) 
0.35

>  <cluster>  (14) 
2

$$$$

     RDKit          3D

 49 52  0  0  0  0  0  0  0  0999 V2000
  141.3300   72.2400  222.2240 O   0  0  0  0  0  0  0  0  0  0  0  0
  140.3440   72.0990  222.9910 C   0  0  0  0  0  0  0  0  0  0  0  0
  139.1390   72.7600  222.6000 N   0  0  0  0  0  0  0  0  0  0  0  0
  139.1680   73.5170  221.3760 C   0  0  0  0  0  0  0  0  0  0  0  0
  139.8520   74.8280  221.5930 C   0  0  0  0  0  0  0  0  0  0  0  0
  139.5840   75.4470  222.6730 O   0  0  0  0  0  0  0  0  0  0  0  0
  140.7550   75.3520  220.6370 N   0  0  0  0  0  0  0  0  0  0  0  0
  141.0250   74.7330  219.3310 C   0  0  0  0  0  0  0  0  0  0  0  0
  142.0780   75.6100  218.6910 C   0  0  0  0  0  0  0  0  0  0  0  0
  141.7220   76.9640  219.3210 C   0  0  2  0  0  0  0  0  0  0  0  0
  142.7420   77.8940  219.1560 O   0  0  0  0  0  0  0  0  0  0  0  0
  141.5400   76.5390  220.7630 C   0  0  1  0  0  0  0  0  0  0  0  0
  140.8900   77.5920  221.5760 C   0  0  0  0  0  0  0  0  0  0  0  0
  141.4190   78.0840  222.7520 C   0  0  0  0  0  0  0  0  0  0  0  0
  140.7340   79.0690  223.4340 C   0  0  0  0  0  0  0  0  0  0  0  0
  139.5270   79.5890  222.9850 C   0  0  0  0  0  0  0  0  0  0  0  0
  138.7000   80.8400  223.8940 Cl  0  0  0  0  0  0  0  0  0  0  0  0
  139.0070   79.0890  221.8060 C   0  0  0  0  0  0  0  0  0  0  0  0
  139.6860   78.1050  221.1200 C   0  0  0  0  0  0  0  0  0  0  0  0
  140.3970   71.3110  224.2190 C   0  0  0  0  0  0  0  0  0  0  0  0
  141.0060   71.8900  225.3130 C   0  0  0  0  0  0  0  0  0  0  0  0
  141.1170   71.2340  226.5370 C   0  0  0  0  0  0  0  0  0  0  0  0
  140.5830   69.9610  226.6110 C   0  0  0  0  0  0  0  0  0  0  0  0
  140.6840   69.2950  227.8200 C   0  0  0  0  0  0  0  0  0  0  0  0
  140.1590   68.0160  227.9280 C   0  0  0  0  0  0  0  0  0  0  0  0
  139.5460   67.4330  226.8240 C   0  0  0  0  0  0  0  0  0  0  0  0
  139.4690   68.1370  225.6370 C   0  0  0  0  0  0  0  0  0  0  0  0
  139.9870   69.4220  225.5020 C   0  0  0  0  0  0  0  0  0  0  0  0
  139.8870   70.0710  224.3180 N   0  0  0  0  0  0  0  0  0  0  0  0
  138.2860   72.6770  223.2010 H   0  0  0  0  0  0  0  0  0  0  0  0
  139.7123   72.9463  220.6092 H   0  0  0  0  0  0  0  0  0  0  0  0
  138.1354   73.7026  221.0455 H   0  0  0  0  0  0  0  0  0  0  0  0
  141.4022   73.7078  219.4599 H   0  0  0  0  0  0  0  0  0  0  0  0
  140.1177   74.6600  218.7134 H   0  0  0  0  0  0  0  0  0  0  0  0
  143.0949   75.2894  218.9615 H   0  0  0  0  0  0  0  0  0  0  0  0
  142.0818   75.5992  217.5911 H   0  0  0  0  0  0  0  0  0  0  0  0
  140.8500   77.4731  218.8845 H   0  0  0  0  0  0  0  0  0  0  0  0
  143.4340   77.6810  219.8590 H   0  0  0  0  0  0  0  0  0  0  0  0
  142.4851   76.3638  221.2979 H   0  0  0  0  0  0  0  0  0  0  0  0
  142.3727   77.6967  223.1400 H   0  0  0  0  0  0  0  0  0  0  0  0
  141.1609   79.4576  224.3703 H   0  0  0  0  0  0  0  0  0  0  0  0
  138.0537   79.4754  221.4162 H   0  0  0  0  0  0  0  0  0  0  0  0
  139.2600   77.7157  220.1836 H   0  0  0  0  0  0  0  0  0  0  0  0
  141.4184   72.9051  225.2155 H   0  0  0  0  0  0  0  0  0  0  0  0
  141.6056   71.7058  227.4022 H   0  0  0  0  0  0  0  0  0  0  0  0
  141.1731   69.7727  228.6818 H   0  0  0  0  0  0  0  0  0  0  0  0
  140.2268   67.4671  228.8789 H   0  0  0  0  0  0  0  0  0  0  0  0
  139.1255   66.4190  226.8950 H   0  0  0  0  0  0  0  0  0  0  0  0
  138.9822   67.6662  224.7702 H   0  0  0  0  0  0  0  0  0  0  0  0
  1  2  2  0
  2  3  1  0
  3  4  1  0
  4  5  1  0
  5  6  2  0
  5  7  1  0
  7  8  1  0
  8  9  1  0
  9 10  1  0
 10 11  1  0
 10 12  1  0
 12 13  1  0
 13 14  2  0
 14 15  1  0
 15 16  2  0
 16 17  1  0
 16 18  1  0
 18 19  2  0
  2 20  1  0
 20 21  2  0
 21 22  1  0
 22 23  2  0
 23 24  1  0
 24 25  2  0
 25 26  1  0
 26 27  2  0
 27 28  1  0
 28 29  2  0
 12  7  1  0
 19 13  1  0
 29 20  1  0
 28 23  1  0
  3 30  1  0
  4 31  1  0
  4 32  1  0
  8 33  1  0
  8 34  1  0
  9 35  1  0
  9 36  1  0
 10 37  1  6
 11 38  1  0
 12 39  1  1
 14 40  1  0
 15 41  1  0
 18 42  1  0
 19 43  1  0
 21 44  1  0
 22 45  1  0
 24 46  1  0
 25 47  1  0
 26 48  1  0
 27 49  1  0
M  END
>  <smiles>  (15) 
O=C(NCC(=O)N1CC[C@H](O)[C@H]1c1ccc(Cl)cc1)c1ccc2ccccc2n1

>  <score_type>  (15) 
oracle

>  <origin>  (15) 
autodockgpu

>  <m_score__min__energy>  (15) 
-8.9399999999999995

>  <m_primary>  (15) 
energy

>  <rmsd>  (15) 
2.9460013849973654

>  <m_score__min__rmsd>  (15) 
2.9460013849973654

>  <meeko>  (15) 
{"free_energy": -8.58, "intermolecular_energy": -10.37, "internal_energy": -1.39, "cluster_size": 14, "cluster_id": 2, "rank_in_cluster": 7}

>  <energy>  (15) 
-8.53

>  <cluster_rmsd>  (15) 
0.51

>  <cluster>  (15) 
2

$$$$

     RDKit          3D

 49 52  0  0  0  0  0  0  0  0999 V2000
  139.9700   74.1360  222.2340 O   0  0  0  0  0  0  0  0  0  0  0  0
  140.4010   75.1090  221.5650 C   0  0  0  0  0  0  0  0  0  0  0  0
  140.9690   74.7980  220.2910 N   0  0  0  0  0  0  0  0  0  0  0  0
  140.9920   73.4140  219.8980 C   0  0  0  0  0  0  0  0  0  0  0  0
  142.0110   72.6650  220.6940 C   0  0  0  0  0  0  0  0  0  0  0  0
  141.6870   72.3330  221.8810 O   0  0  0  0  0  0  0  0  0  0  0  0
  143.2780   72.3420  220.1500 N   0  0  0  0  0  0  0  0  0  0  0  0
  143.7320   70.9710  219.8730 C   0  0  0  0  0  0  0  0  0  0  0  0
  145.1440   71.1220  219.3550 C   0  0  0  0  0  0  0  0  0  0  0  0
  145.0440   72.5040  218.6940 C   0  0  2  0  0  0  0  0  0  0  0  0
  146.2980   73.0360  218.4180 O   0  0  0  0  0  0  0  0  0  0  0  0
  144.3090   73.2590  219.7820 C   0  0  1  0  0  0  0  0  0  0  0  0
  143.7970   74.5630  219.3050 C   0  0  0  0  0  0  0  0  0  0  0  0
  143.7900   75.7090  220.0740 C   0  0  0  0  0  0  0  0  0  0  0  0
  143.2910   76.8760  219.5350 C   0  0  0  0  0  0  0  0  0  0  0  0
  142.7900   76.9480  218.2410 C   0  0  0  0  0  0  0  0  0  0  0  0
  142.1680   78.4600  217.6060 Cl  0  0  0  0  0  0  0  0  0  0  0  0
  142.8020   75.7950  217.4790 C   0  0  0  0  0  0  0  0  0  0  0  0
  143.3000   74.6250  218.0130 C   0  0  0  0  0  0  0  0  0  0  0  0
  140.3400   76.4900  222.0370 C   0  0  0  0  0  0  0  0  0  0  0  0
  139.0950   76.9930  222.3510 C   0  0  0  0  0  0  0  0  0  0  0  0
  138.9130   78.2960  222.8100 C   0  0  0  0  0  0  0  0  0  0  0  0
  140.0480   79.0730  222.9410 C   0  0  0  0  0  0  0  0  0  0  0  0
  139.8850   80.3700  223.3960 C   0  0  0  0  0  0  0  0  0  0  0  0
  141.0040   81.1770  223.5380 C   0  0  0  0  0  0  0  0  0  0  0  0
  142.2590   80.6690  223.2210 C   0  0  0  0  0  0  0  0  0  0  0  0
  142.3720   79.3670  222.7690 C   0  0  0  0  0  0  0  0  0  0  0  0
  141.2650   78.5360  222.6180 C   0  0  0  0  0  0  0  0  0  0  0  0
  141.4280   77.2680  222.1720 N   0  0  0  0  0  0  0  0  0  0  0  0
  141.3440   75.5690  219.6900 H   0  0  0  0  0  0  0  0  0  0  0  0
  139.9999   72.9714  220.0706 H   0  0  0  0  0  0  0  0  0  0  0  0
  141.2535   73.3495  218.8315 H   0  0  0  0  0  0  0  0  0  0  0  0
  143.7202   70.3670  220.7922 H   0  0  0  0  0  0  0  0  0  0  0  0
  143.0800   70.4586  219.1503 H   0  0  0  0  0  0  0  0  0  0  0  0
  145.8808   71.1133  220.1717 H   0  0  0  0  0  0  0  0  0  0  0  0
  145.4798   70.3144  218.6878 H   0  0  0  0  0  0  0  0  0  0  0  0
  144.5464   72.5236  217.7132 H   0  0  0  0  0  0  0  0  0  0  0  0
  146.2300   74.0260  218.6020 H   0  0  0  0  0  0  0  0  0  0  0  0
  144.9437   73.5416  220.6348 H   0  0  0  0  0  0  0  0  0  0  0  0
  144.1774   75.6917  221.1034 H   0  0  0  0  0  0  0  0  0  0  0  0
  143.2895   77.7855  220.1537 H   0  0  0  0  0  0  0  0  0  0  0  0
  142.4154   75.8105  216.4493 H   0  0  0  0  0  0  0  0  0  0  0  0
  143.3028   73.7147  217.3954 H   0  0  0  0  0  0  0  0  0  0  0  0
  138.2151   76.3431  222.2351 H   0  0  0  0  0  0  0  0  0  0  0  0
  137.9146   78.6869  223.0560 H   0  0  0  0  0  0  0  0  0  0  0  0
  138.8840   80.7546  223.6411 H   0  0  0  0  0  0  0  0  0  0  0  0
  140.8995   82.2109  223.8986 H   0  0  0  0  0  0  0  0  0  0  0  0
  143.1550   81.2980  223.3289 H   0  0  0  0  0  0  0  0  0  0  0  0
  143.3693   78.9749  222.5206 H   0  0  0  0  0  0  0  0  0  0  0  0
  1  2  2  0
  2  3  1  0
  3  4  1  0
  4  5  1  0
  5  6  2  0
  5  7  1  0
  7  8  1  0
  8  9  1  0
  9 10  1  0
 10 11  1  0
 10 12  1  0
 12 13  1  0
 13 14  2  0
 14 15  1  0
 15 16  2  0
 16 17  1  0
 16 18  1  0
 18 19  2  0
  2 20  1  0
 20 21  2  0
 21 22  1  0
 22 23  2  0
 23 24  1  0
 24 25  2  0
 25 26  1  0
 26 27  2  0
 27 28  1  0
 28 29  2  0
 12  7  1  0
 19 13  1  0
 29 20  1  0
 28 23  1  0
  3 30  1  0
  4 31  1  0
  4 32  1  0
  8 33  1  0
  8 34  1  0
  9 35  1  0
  9 36  1  0
 10 37  1  6
 11 38  1  0
 12 39  1  1
 14 40  1  0
 15 41  1  0
 18 42  1  0
 19 43  1  0
 21 44  1  0
 22 45  1  0
 24 46  1  0
 25 47  1  0
 26 48  1  0
 27 49  1  0
M  END
>  <smiles>  (16) 
O=C(NCC(=O)N1CC[C@H](O)[C@H]1c1ccc(Cl)cc1)c1ccc2ccccc2n1

>  <score_type>  (16) 
oracle

>  <origin>  (16) 
autodockgpu

>  <m_score__min__energy>  (16) 
-8.9399999999999995

>  <m_primary>  (16) 
energy

>  <rmsd>  (16) 
7.550672694965089

>  <m_score__min__rmsd>  (16) 
7.550672694965089

>  <meeko>  (16) 
{"free_energy": -8.06, "intermolecular_energy": -9.85, "internal_energy": -1.92, "cluster_size": 16, "cluster_id": 7, "rank_in_cluster": 2}

>  <energy>  (16) 
-8.53

>  <cluster_rmsd>  (16) 
0.49

>  <cluster>  (16) 
2

$$$$

     RDKit          3D

 49 52  0  0  0  0  0  0  0  0999 V2000
  139.9490   73.6460  222.5430 O   0  0  0  0  0  0  0  0  0  0  0  0
  140.2890   72.4350  222.5290 C   0  0  0  0  0  0  0  0  0  0  0  0
  140.7660   71.9270  221.2820 N   0  0  0  0  0  0  0  0  0  0  0  0
  140.8120   72.8390  220.1700 C   0  0  0  0  0  0  0  0  0  0  0  0
  141.6620   72.2810  219.0750 C   0  0  0  0  0  0  0  0  0  0  0  0
  141.0720   71.9650  217.9910 O   0  0  0  0  0  0  0  0  0  0  0  0
  143.0580   72.1130  219.2410 N   0  0  0  0  0  0  0  0  0  0  0  0
  143.7640   70.8380  219.0450 C   0  0  0  0  0  0  0  0  0  0  0  0
  145.2080   71.1350  219.3810 C   0  0  0  0  0  0  0  0  0  0  0  0
  145.2810   72.6150  218.9810 C   0  0  2  0  0  0  0  0  0  0  0  0
  146.4170   73.2320  219.4920 O   0  0  0  0  0  0  0  0  0  0  0  0
  144.0010   73.1170  219.6160 C   0  0  1  0  0  0  0  0  0  0  0  0
  143.6400   74.4730  219.1410 C   0  0  0  0  0  0  0  0  0  0  0  0
  143.7020   74.8600  217.8180 C   0  0  0  0  0  0  0  0  0  0  0  0
  143.3410   76.1480  217.4800 C   0  0  0  0  0  0  0  0  0  0  0  0
  142.9160   77.0780  218.4190 C   0  0  0  0  0  0  0  0  0  0  0  0
  142.4690   78.7020  217.9320 Cl  0  0  0  0  0  0  0  0  0  0  0  0
  142.8580   76.6790  219.7420 C   0  0  0  0  0  0  0  0  0  0  0  0
  143.2160   75.3930  220.0870 C   0  0  0  0  0  0  0  0  0  0  0  0
  140.2120   71.5740  223.7060 C   0  0  0  0  0  0  0  0  0  0  0  0
  139.6340   70.3320  223.5400 C   0  0  0  0  0  0  0  0  0  0  0  0
  139.5050   69.4250  224.5890 C   0  0  0  0  0  0  0  0  0  0  0  0
  139.9870   69.8260  225.8210 C   0  0  0  0  0  0  0  0  0  0  0  0
  139.8670   68.9370  226.8740 C   0  0  0  0  0  0  0  0  0  0  0  0
  140.3400   69.3090  228.1240 C   0  0  0  0  0  0  0  0  0  0  0  0
  140.9230   70.5610  228.2900 C   0  0  0  0  0  0  0  0  0  0  0  0
  141.0200   71.4150  227.2080 C   0  0  0  0  0  0  0  0  0  0  0  0
  140.5540   71.0670  225.9430 C   0  0  0  0  0  0  0  0  0  0  0  0
  140.6720   71.9390  224.9140 N   0  0  0  0  0  0  0  0  0  0  0  0
  141.0630   70.9250  221.2120 H   0  0  0  0  0  0  0  0  0  0  0  0
  139.7921   73.0004  219.7909 H   0  0  0  0  0  0  0  0  0  0  0  0
  141.2445   73.7924  220.5075 H   0  0  0  0  0  0  0  0  0  0  0  0
  143.3615   70.0658  219.7171 H   0  0  0  0  0  0  0  0  0  0  0  0
  143.6484   70.4548  218.0204 H   0  0  0  0  0  0  0  0  0  0  0  0
  145.4149   70.9917  220.4518 H   0  0  0  0  0  0  0  0  0  0  0  0
  145.9412   70.4851  218.8809 H   0  0  0  0  0  0  0  0  0  0  0  0
  145.3589   72.8098  217.9012 H   0  0  0  0  0  0  0  0  0  0  0  0
  146.2990   74.2200  219.3270 H   0  0  0  0  0  0  0  0  0  0  0  0
  144.0653   73.2469  220.7064 H   0  0  0  0  0  0  0  0  0  0  0  0
  144.0343   74.1522  217.0443 H   0  0  0  0  0  0  0  0  0  0  0  0
  143.3920   76.4503  216.4236 H   0  0  0  0  0  0  0  0  0  0  0  0
  142.5271   77.3859  220.5171 H   0  0  0  0  0  0  0  0  0  0  0  0
  143.1637   75.0886  221.1427 H   0  0  0  0  0  0  0  0  0  0  0  0
  139.2621   70.0484  222.5444 H   0  0  0  0  0  0  0  0  0  0  0  0
  139.0421   68.4377  224.4442 H   0  0  0  0  0  0  0  0  0  0  0  0
  139.4039   67.9508  226.7226 H   0  0  0  0  0  0  0  0  0  0  0  0
  140.2547   68.6196  228.9769 H   0  0  0  0  0  0  0  0  0  0  0  0
  141.3039   70.8688  229.2750 H   0  0  0  0  0  0  0  0  0  0  0  0
  141.4811   72.4034  227.3510 H   0  0  0  0  0  0  0  0  0  0  0  0
  1  2  2  0
  2  3  1  0
  3  4  1  0
  4  5  1  0
  5  6  2  0
  5  7  1  0
  7  8  1  0
  8  9  1  0
  9 10  1  0
 10 11  1  0
 10 12  1  0
 12 13  1  0
 13 14  2  0
 14 15  1  0
 15 16  2  0
 16 17  1  0
 16 18  1  0
 18 19  2  0
  2 20  1  0
 20 21  2  0
 21 22  1  0
 22 23  2  0
 23 24  1  0
 24 25  2  0
 25 26  1  0
 26 27  2  0
 27 28  1  0
 28 29  2  0
 12  7  1  0
 19 13  1  0
 29 20  1  0
 28 23  1  0
  3 30  1  0
  4 31  1  0
  4 32  1  0
  8 33  1  0
  8 34  1  0
  9 35  1  0
  9 36  1  0
 10 37  1  6
 11 38  1  0
 12 39  1  1
 14 40  1  0
 15 41  1  0
 18 42  1  0
 19 43  1  0
 21 44  1  0
 22 45  1  0
 24 46  1  0
 25 47  1  0
 26 48  1  0
 27 49  1  0
M  END
>  <smiles>  (17) 
O=C(NCC(=O)N1CC[C@H](O)[C@H]1c1ccc(Cl)cc1)c1ccc2ccccc2n1

>  <score_type>  (17) 
oracle

>  <origin>  (17) 
autodockgpu

>  <m_score__min__energy>  (17) 
-8.9399999999999995

>  <m_primary>  (17) 
energy

>  <rmsd>  (17) 
3.866057028296243

>  <m_score__min__rmsd>  (17) 
3.866057028296243

>  <meeko>  (17) 
{"free_energy": -8.49, "intermolecular_energy": -10.28, "internal_energy": -1.43, "cluster_size": 4, "cluster_id": 3, "rank_in_cluster": 2}

>  <energy>  (17) 
-8.51

>  <cluster_rmsd>  (17) 
0.47

>  <cluster>  (17) 
2

$$$$

     RDKit          3D

 49 52  0  0  0  0  0  0  0  0999 V2000
  138.9870   74.9520  221.8900 O   0  0  0  0  0  0  0  0  0  0  0  0
  140.1070   75.5080  222.0220 C   0  0  0  0  0  0  0  0  0  0  0  0
  141.2520   74.6670  221.8690 N   0  0  0  0  0  0  0  0  0  0  0  0
  141.0180   73.2770  221.5810 C   0  0  0  0  0  0  0  0  0  0  0  0
  141.4560   72.9540  220.1900 C   0  0  0  0  0  0  0  0  0  0  0  0
  140.5750   73.0350  219.2730 O   0  0  0  0  0  0  0  0  0  0  0  0
  142.7910   72.5750  219.9090 N   0  0  0  0  0  0  0  0  0  0  0  0
  143.2280   71.1880  219.6930 C   0  0  0  0  0  0  0  0  0  0  0  0
  144.7220   71.2750  219.4810 C   0  0  0  0  0  0  0  0  0  0  0  0
  144.8260   72.6710  218.8530 C   0  0  2  0  0  0  0  0  0  0  0  0
  146.1340   73.1420  218.8550 O   0  0  0  0  0  0  0  0  0  0  0  0
  143.9190   73.4440  219.7870 C   0  0  1  0  0  0  0  0  0  0  0  0
  143.5780   74.7810  219.2510 C   0  0  0  0  0  0  0  0  0  0  0  0
  143.2710   75.8670  220.0460 C   0  0  0  0  0  0  0  0  0  0  0  0
  142.9690   77.0720  219.4470 C   0  0  0  0  0  0  0  0  0  0  0  0
  142.9590   77.2410  218.0680 C   0  0  0  0  0  0  0  0  0  0  0  0
  142.5660   78.7970  217.3610 Cl  0  0  0  0  0  0  0  0  0  0  0  0
  143.2670   76.1470  217.2820 C   0  0  0  0  0  0  0  0  0  0  0  0
  143.5710   74.9400  217.8740 C   0  0  0  0  0  0  0  0  0  0  0  0
  140.2600   76.9300  222.3160 C   0  0  0  0  0  0  0  0  0  0  0  0
  139.1130   77.6960  222.3310 C   0  0  0  0  0  0  0  0  0  0  0  0
  139.1350   79.0640  222.5980 C   0  0  0  0  0  0  0  0  0  0  0  0
  140.3710   79.6280  222.8510 C   0  0  0  0  0  0  0  0  0  0  0  0
  140.4100   80.9850  223.1180 C   0  0  0  0  0  0  0  0  0  0  0  0
  141.6350   81.5830  223.3760 C   0  0  0  0  0  0  0  0  0  0  0  0
  142.7910   80.8090  223.3600 C   0  0  0  0  0  0  0  0  0  0  0  0
  142.7010   79.4570  223.0880 C   0  0  0  0  0  0  0  0  0  0  0  0
  141.4850   78.8320  222.8260 C   0  0  0  0  0  0  0  0  0  0  0  0
  141.4490   77.5040  222.5650 N   0  0  0  0  0  0  0  0  0  0  0  0
  142.2110   75.0770  221.9680 H   0  0  0  0  0  0  0  0  0  0  0  0
  141.5849   72.6587  222.2926 H   0  0  0  0  0  0  0  0  0  0  0  0
  139.9419   73.0689  221.6743 H   0  0  0  0  0  0  0  0  0  0  0  0
  142.9981   70.5691  220.5728 H   0  0  0  0  0  0  0  0  0  0  0  0
  142.7165   70.7230  218.8374 H   0  0  0  0  0  0  0  0  0  0  0  0
  145.2726   71.2137  220.4313 H   0  0  0  0  0  0  0  0  0  0  0  0
  145.1502   70.4631  218.8747 H   0  0  0  0  0  0  0  0  0  0  0  0
  144.5430   72.7335  217.7919 H   0  0  0  0  0  0  0  0  0  0  0  0
  146.0750   74.1350  218.6840 H   0  0  0  0  0  0  0  0  0  0  0  0
  144.3767   73.6784  220.7594 H   0  0  0  0  0  0  0  0  0  0  0  0
  143.2673   75.7726  221.1419 H   0  0  0  0  0  0  0  0  0  0  0  0
  142.7264   77.9335  220.0865 H   0  0  0  0  0  0  0  0  0  0  0  0
  143.2696   76.2393  216.1859 H   0  0  0  0  0  0  0  0  0  0  0  0
  143.8150   74.0782  217.2354 H   0  0  0  0  0  0  0  0  0  0  0  0
  138.1476   77.2106  222.1251 H   0  0  0  0  0  0  0  0  0  0  0  0
  138.2138   79.6651  222.6069 H   0  0  0  0  0  0  0  0  0  0  0  0
  139.4849   81.5800  223.1256 H   0  0  0  0  0  0  0  0  0  0  0  0
  141.6918   82.6602  223.5915 H   0  0  0  0  0  0  0  0  0  0  0  0
  143.7692   81.2697  223.5623 H   0  0  0  0  0  0  0  0  0  0  0  0
  143.6212   78.8545  223.0782 H   0  0  0  0  0  0  0  0  0  0  0  0
  1  2  2  0
  2  3  1  0
  3  4  1  0
  4  5  1  0
  5  6  2  0
  5  7  1  0
  7  8  1  0
  8  9  1  0
  9 10  1  0
 10 11  1  0
 10 12  1  0
 12 13  1  0
 13 14  2  0
 14 15  1  0
 15 16  2  0
 16 17  1  0
 16 18  1  0
 18 19  2  0
  2 20  1  0
 20 21  2  0
 21 22  1  0
 22 23  2  0
 23 24  1  0
 24 25  2  0
 25 26  1  0
 26 27  2  0
 27 28  1  0
 28 29  2  0
 12  7  1  0
 19 13  1  0
 29 20  1  0
 28 23  1  0
  3 30  1  0
  4 31  1  0
  4 32  1  0
  8 33  1  0
  8 34  1  0
  9 35  1  0
  9 36  1  0
 10 37  1  6
 11 38  1  0
 12 39  1  1
 14 40  1  0
 15 41  1  0
 18 42  1  0
 19 43  1  0
 21 44  1  0
 22 45  1  0
 24 46  1  0
 25 47  1  0
 26 48  1  0
 27 49  1  0
M  END
>  <smiles>  (18) 
O=C(NCC(=O)N1CC[C@H](O)[C@H]1c1ccc(Cl)cc1)c1ccc2ccccc2n1

>  <score_type>  (18) 
oracle

>  <origin>  (18) 
autodockgpu

>  <m_score__min__energy>  (18) 
-8.9399999999999995

>  <m_primary>  (18) 
energy

>  <rmsd>  (18) 
7.715326780789923

>  <m_score__min__rmsd>  (18) 
7.715326780789923

>  <meeko>  (18) 
{"free_energy": -7.81, "intermolecular_energy": -9.6, "internal_energy": -2.2, "cluster_size": 16, "cluster_id": 7, "rank_in_cluster": 15}

>  <energy>  (18) 
-8.4

>  <cluster_rmsd>  (18) 
0.45

>  <cluster>  (18) 
2

$$$$

     RDKit          3D

 49 52  0  0  0  0  0  0  0  0999 V2000
  140.9720   71.4220  221.4110 O   0  0  0  0  0  0  0  0  0  0  0  0
  140.4390   71.9030  222.4440 C   0  0  0  0  0  0  0  0  0  0  0  0
  140.0190   73.2660  222.3620 N   0  0  0  0  0  0  0  0  0  0  0  0
  140.2450   73.9550  221.1190 C   0  0  0  0  0  0  0  0  0  0  0  0
  140.6250   75.3770  221.3750 C   0  0  0  0  0  0  0  0  0  0  0  0
  140.2760   75.8750  222.4940 O   0  0  0  0  0  0  0  0  0  0  0  0
  141.3400   76.1310  220.4130 N   0  0  0  0  0  0  0  0  0  0  0  0
  141.7190   75.6270  219.0850 C   0  0  0  0  0  0  0  0  0  0  0  0
  142.4990   76.7530  218.4460 C   0  0  0  0  0  0  0  0  0  0  0  0
  141.8340   77.9610  219.1200 C   0  0  2  0  0  0  0  0  0  0  0  0
  142.5830   79.1200  218.9570 O   0  0  0  0  0  0  0  0  0  0  0  0
  141.8060   77.4730  220.5540 C   0  0  1  0  0  0  0  0  0  0  0  0
  140.9370   78.3130  221.4090 C   0  0  0  0  0  0  0  0  0  0  0  0
  139.6640   78.7070  221.0520 C   0  0  0  0  0  0  0  0  0  0  0  0
  138.9350   79.4890  221.9230 C   0  0  0  0  0  0  0  0  0  0  0  0
  139.4300   79.9010  223.1540 C   0  0  0  0  0  0  0  0  0  0  0  0
  138.4580   80.8950  224.2220 Cl  0  0  0  0  0  0  0  0  0  0  0  0
  140.7070   79.5010  223.5020 C   0  0  0  0  0  0  0  0  0  0  0  0
  141.4410   78.7190  222.6360 C   0  0  0  0  0  0  0  0  0  0  0  0
  140.2460   71.1350  223.6700 C   0  0  0  0  0  0  0  0  0  0  0  0
  139.5520   69.9470  223.5670 C   0  0  0  0  0  0  0  0  0  0  0  0
  139.3070   69.1300  224.6690 C   0  0  0  0  0  0  0  0  0  0  0  0
  139.7940   69.5660  225.8860 C   0  0  0  0  0  0  0  0  0  0  0  0
  139.5590   68.7660  226.9920 C   0  0  0  0  0  0  0  0  0  0  0  0
  140.0350   69.1740  228.2290 C   0  0  0  0  0  0  0  0  0  0  0  0
  140.7340   70.3720  228.3320 C   0  0  0  0  0  0  0  0  0  0  0  0
  140.9440   71.1370  227.2000 C   0  0  0  0  0  0  0  0  0  0  0  0
  140.4780   70.7510  225.9460 C   0  0  0  0  0  0  0  0  0  0  0  0
  140.7090   71.5350  224.8670 N   0  0  0  0  0  0  0  0  0  0  0  0
  139.5690   73.7180  223.1930 H   0  0  0  0  0  0  0  0  0  0  0  0
  141.0570   73.4558  220.5700 H   0  0  0  0  0  0  0  0  0  0  0  0
  139.3193   73.9338  220.5251 H   0  0  0  0  0  0  0  0  0  0  0  0
  142.3449   74.7271  219.1774 H   0  0  0  0  0  0  0  0  0  0  0  0
  140.8417   75.3409  218.4863 H   0  0  0  0  0  0  0  0  0  0  0  0
  143.5711   76.6925  218.6845 H   0  0  0  0  0  0  0  0  0  0  0  0
  142.4732   76.7661  217.3464 H   0  0  0  0  0  0  0  0  0  0  0  0
  140.8503   78.2447  218.7177 H   0  0  0  0  0  0  0  0  0  0  0  0
  143.5500   78.8340  218.9720 H   0  0  0  0  0  0  0  0  0  0  0  0
  142.7796   77.5280  221.0629 H   0  0  0  0  0  0  0  0  0  0  0  0
  139.2363   78.4015  220.0857 H   0  0  0  0  0  0  0  0  0  0  0  0
  137.9207   79.7991  221.6314 H   0  0  0  0  0  0  0  0  0  0  0  0
  141.1363   79.8061  224.4677 H   0  0  0  0  0  0  0  0  0  0  0  0
  142.4554   78.4080  222.9262 H   0  0  0  0  0  0  0  0  0  0  0  0
  139.1791   69.6338  222.5807 H   0  0  0  0  0  0  0  0  0  0  0  0
  138.7531   68.1844  224.5745 H   0  0  0  0  0  0  0  0  0  0  0  0
  139.0036   67.8219  226.8908 H   0  0  0  0  0  0  0  0  0  0  0  0
  139.8611   68.5551  229.1216 H   0  0  0  0  0  0  0  0  0  0  0  0
  141.1168   70.7082  229.3069 H   0  0  0  0  0  0  0  0  0  0  0  0
  141.4980   72.0827  227.2930 H   0  0  0  0  0  0  0  0  0  0  0  0
  1  2  2  0
  2  3  1  0
  3  4  1  0
  4  5  1  0
  5  6  2  0
  5  7  1  0
  7  8  1  0
  8  9  1  0
  9 10  1  0
 10 11  1  0
 10 12  1  0
 12 13  1  0
 13 14  2  0
 14 15  1  0
 15 16  2  0
 16 17  1  0
 16 18  1  0
 18 19  2  0
  2 20  1  0
 20 21  2  0
 21 22  1  0
 22 23  2  0
 23 24  1  0
 24 25  2  0
 25 26  1  0
 26 27  2  0
 27 28  1  0
 28 29  2  0
 12  7  1  0
 19 13  1  0
 29 20  1  0
 28 23  1  0
  3 30  1  0
  4 31  1  0
  4 32  1  0
  8 33  1  0
  8 34  1  0
  9 35  1  0
  9 36  1  0
 10 37  1  6
 11 38  1  0
 12 39  1  1
 14 40  1  0
 15 41  1  0
 18 42  1  0
 19 43  1  0
 21 44  1  0
 22 45  1  0
 24 46  1  0
 25 47  1  0
 26 48  1  0
 27 49  1  0
M  END
>  <smiles>  (19) 
O=C(NCC(=O)N1CC[C@H](O)[C@H]1c1ccc(Cl)cc1)c1ccc2ccccc2n1

>  <score_type>  (19) 
oracle

>  <origin>  (19) 
autodockgpu

>  <m_score__min__energy>  (19) 
-8.9399999999999995

>  <m_primary>  (19) 
energy

>  <rmsd>  (19) 
2.110619703438244

>  <m_score__min__rmsd>  (19) 
2.110619703438244

>  <meeko>  (19) 
{"free_energy": -8.61, "intermolecular_energy": -10.4, "internal_energy": -1.61, "cluster_size": 14, "cluster_id": 2, "rank_in_cluster": 6}

>  <energy>  (19) 
-8.34

>  <cluster_rmsd>  (19) 
0.64

>  <cluster>  (19) 
2

$$$$

     RDKit          3D

 49 52  0  0  0  0  0  0  0  0999 V2000
  141.1860   71.6940  221.4660 O   0  0  0  0  0  0  0  0  0  0  0  0
  140.5500   72.1600  222.4460 C   0  0  0  0  0  0  0  0  0  0  0  0
  140.0900   73.5060  222.3170 N   0  0  0  0  0  0  0  0  0  0  0  0
  140.3950   74.1960  221.0920 C   0  0  0  0  0  0  0  0  0  0  0  0
  140.8360   75.5940  221.3790 C   0  0  0  0  0  0  0  0  0  0  0  0
  140.6440   76.0290  222.5610 O   0  0  0  0  0  0  0  0  0  0  0  0
  141.4390   76.3940  220.3790 N   0  0  0  0  0  0  0  0  0  0  0  0
  141.7080   75.9380  219.0070 C   0  0  0  0  0  0  0  0  0  0  0  0
  142.3960   77.1030  218.3340 C   0  0  0  0  0  0  0  0  0  0  0  0
  141.7640   78.2720  219.1010 C   0  0  2  0  0  0  0  0  0  0  0  0
  142.4630   79.4570  218.9050 O   0  0  0  0  0  0  0  0  0  0  0  0
  141.8800   77.7460  220.5160 C   0  0  1  0  0  0  0  0  0  0  0  0
  141.0710   78.5360  221.4720 C   0  0  0  0  0  0  0  0  0  0  0  0
  141.5760   79.0720  222.6390 C   0  0  0  0  0  0  0  0  0  0  0  0
  140.7380   79.7950  223.4620 C   0  0  0  0  0  0  0  0  0  0  0  0
  139.3980   80.0080  223.1650 C   0  0  0  0  0  0  0  0  0  0  0  0
  138.3770   80.9360  224.2480 Cl  0  0  0  0  0  0  0  0  0  0  0  0
  138.9030   79.4670  221.9930 C   0  0  0  0  0  0  0  0  0  0  0  0
  139.7350   78.7430  221.1660 C   0  0  0  0  0  0  0  0  0  0  0  0
  140.2820   71.3910  223.6580 C   0  0  0  0  0  0  0  0  0  0  0  0
  139.5870   70.2090  223.5130 C   0  0  0  0  0  0  0  0  0  0  0  0
  139.2730   69.3930  224.5980 C   0  0  0  0  0  0  0  0  0  0  0  0
  139.6930   69.8230  225.8420 C   0  0  0  0  0  0  0  0  0  0  0  0
  139.3890   69.0240  226.9310 C   0  0  0  0  0  0  0  0  0  0  0  0
  139.7960   69.4270  228.1930 C   0  0  0  0  0  0  0  0  0  0  0  0
  140.4970   70.6200  228.3390 C   0  0  0  0  0  0  0  0  0  0  0  0
  140.7770   71.3850  227.2220 C   0  0  0  0  0  0  0  0  0  0  0  0
  140.3800   71.0030  225.9430 C   0  0  0  0  0  0  0  0  0  0  0  0
  140.6780   71.7870  224.8800 N   0  0  0  0  0  0  0  0  0  0  0  0
  139.5540   73.9460  223.1030 H   0  0  0  0  0  0  0  0  0  0  0  0
  141.2004   73.6624  220.5661 H   0  0  0  0  0  0  0  0  0  0  0  0
  139.4915   74.2279  220.4654 H   0  0  0  0  0  0  0  0  0  0  0  0
  142.3632   75.0545  219.0150 H   0  0  0  0  0  0  0  0  0  0  0  0
  140.7873   75.6433  218.4822 H   0  0  0  0  0  0  0  0  0  0  0  0
  143.4867   77.0672  218.4724 H   0  0  0  0  0  0  0  0  0  0  0  0
  142.2692   77.1454  217.2422 H   0  0  0  0  0  0  0  0  0  0  0  0
  140.7403   78.5369  218.7978 H   0  0  0  0  0  0  0  0  0  0  0  0
  143.0510   79.3060  218.0990 H   0  0  0  0  0  0  0  0  0  0  0  0
  142.8945   77.8172  220.9351 H   0  0  0  0  0  0  0  0  0  0  0  0
  142.6321   78.9247  222.9091 H   0  0  0  0  0  0  0  0  0  0  0  0
  141.1472   80.2198  224.3905 H   0  0  0  0  0  0  0  0  0  0  0  0
  137.8474   79.6140  221.7209 H   0  0  0  0  0  0  0  0  0  0  0  0
  139.3272   78.3176  220.2372 H   0  0  0  0  0  0  0  0  0  0  0  0
  139.2696   69.8996  222.5063 H   0  0  0  0  0  0  0  0  0  0  0  0
  138.7176   68.4521  224.4703 H   0  0  0  0  0  0  0  0  0  0  0  0
  138.8333   68.0843  226.7967 H   0  0  0  0  0  0  0  0  0  0  0  0
  139.5665   68.8081  229.0729 H   0  0  0  0  0  0  0  0  0  0  0  0
  140.8257   70.9517  229.3350 H   0  0  0  0  0  0  0  0  0  0  0  0
  141.3317   72.3266  227.3477 H   0  0  0  0  0  0  0  0  0  0  0  0
  1  2  2  0
  2  3  1  0
  3  4  1  0
  4  5  1  0
  5  6  2  0
  5  7  1  0
  7  8  1  0
  8  9  1  0
  9 10  1  0
 10 11  1  0
 10 12  1  0
 12 13  1  0
 13 14  2  0
 14 15  1  0
 15 16  2  0
 16 17  1  0
 16 18  1  0
 18 19  2  0
  2 20  1  0
 20 21  2  0
 21 22  1  0
 22 23  2  0
 23 24  1  0
 24 25  2  0
 25 26  1  0
 26 27  2  0
 27 28  1  0
 28 29  2  0
 12  7  1  0
 19 13  1  0
 29 20  1  0
 28 23  1  0
  3 30  1  0
  4 31  1  0
  4 32  1  0
  8 33  1  0
  8 34  1  0
  9 35  1  0
  9 36  1  0
 10 37  1  6
 11 38  1  0
 12 39  1  1
 14 40  1  0
 15 41  1  0
 18 42  1  0
 19 43  1  0
 21 44  1  0
 22 45  1  0
 24 46  1  0
 25 47  1  0
 26 48  1  0
 27 49  1  0
M  END
>  <smiles>  (20) 
O=C(NCC(=O)N1CC[C@H](O)[C@H]1c1ccc(Cl)cc1)c1ccc2ccccc2n1

>  <score_type>  (20) 
oracle

>  <origin>  (20) 
autodockgpu

>  <m_score__min__energy>  (20) 
-8.9399999999999995

>  <m_primary>  (20) 
energy

>  <rmsd>  (20) 
2.197383222042067

>  <m_score__min__rmsd>  (20) 
2.197383222042067

>  <meeko>  (20) 
{"free_energy": -8.4, "intermolecular_energy": -10.19, "internal_energy": -1.58, "cluster_size": 14, "cluster_id": 2, "rank_in_cluster": 13}

>  <energy>  (20) 
-8.66

>  <cluster_rmsd>  (20) 
0.0

>  <cluster>  (20) 
3

$$$$

     RDKit          3D

 49 52  0  0  0  0  0  0  0  0999 V2000
  139.9640   74.0830  222.2570 O   0  0  0  0  0  0  0  0  0  0  0  0
  140.4090   75.0460  221.5820 C   0  0  0  0  0  0  0  0  0  0  0  0
  140.9950   74.7160  220.3220 N   0  0  0  0  0  0  0  0  0  0  0  0
  141.0190   73.3270  219.9460 C   0  0  0  0  0  0  0  0  0  0  0  0
  142.0870   72.6040  220.7000 C   0  0  0  0  0  0  0  0  0  0  0  0
  141.8260   72.2820  221.9040 O   0  0  0  0  0  0  0  0  0  0  0  0
  143.3310   72.2940  220.0980 N   0  0  0  0  0  0  0  0  0  0  0  0
  143.7930   70.9270  219.8160 C   0  0  0  0  0  0  0  0  0  0  0  0
  145.1760   71.0950  219.2280 C   0  0  0  0  0  0  0  0  0  0  0  0
  145.0210   72.4660  218.5560 C   0  0  2  0  0  0  0  0  0  0  0  0
  146.2510   73.0150  218.2130 O   0  0  0  0  0  0  0  0  0  0  0  0
  144.3280   73.2230  219.6700 C   0  0  1  0  0  0  0  0  0  0  0  0
  143.7720   74.5130  219.2040 C   0  0  0  0  0  0  0  0  0  0  0  0
  143.2170   74.6980  217.9540 C   0  0  0  0  0  0  0  0  0  0  0  0
  142.7240   75.9420  217.6170 C   0  0  0  0  0  0  0  0  0  0  0  0
  142.7620   77.0240  218.4880 C   0  0  0  0  0  0  0  0  0  0  0  0
  142.1210   78.5830  218.0060 Cl  0  0  0  0  0  0  0  0  0  0  0  0
  143.3200   76.8270  219.7370 C   0  0  0  0  0  0  0  0  0  0  0  0
  143.8140   75.5860  220.0800 C   0  0  0  0  0  0  0  0  0  0  0  0
  140.3460   76.4320  222.0360 C   0  0  0  0  0  0  0  0  0  0  0  0
  139.1010   76.9360  222.3510 C   0  0  0  0  0  0  0  0  0  0  0  0
  138.9180   78.2440  222.7940 C   0  0  0  0  0  0  0  0  0  0  0  0
  140.0510   79.0260  222.9070 C   0  0  0  0  0  0  0  0  0  0  0  0
  139.8860   80.3290  223.3460 C   0  0  0  0  0  0  0  0  0  0  0  0
  141.0030   81.1410  223.4710 C   0  0  0  0  0  0  0  0  0  0  0  0
  142.2590   80.6320  223.1540 C   0  0  0  0  0  0  0  0  0  0  0  0
  142.3730   79.3250  222.7190 C   0  0  0  0  0  0  0  0  0  0  0  0
  141.2680   78.4890  222.5850 C   0  0  0  0  0  0  0  0  0  0  0  0
  141.4320   77.2150  222.1560 N   0  0  0  0  0  0  0  0  0  0  0  0
  141.3830   75.4790  219.7170 H   0  0  0  0  0  0  0  0  0  0  0  0
  140.0434   72.8726  220.1733 H   0  0  0  0  0  0  0  0  0  0  0  0
  141.2280   73.2516  218.8687 H   0  0  0  0  0  0  0  0  0  0  0  0
  143.8358   70.3346  220.7419 H   0  0  0  0  0  0  0  0  0  0  0  0
  143.1153   70.3945  219.1326 H   0  0  0  0  0  0  0  0  0  0  0  0
  145.9514   71.1090  220.0081 H   0  0  0  0  0  0  0  0  0  0  0  0
  145.4927   70.2846  218.5550 H   0  0  0  0  0  0  0  0  0  0  0  0
  144.4761   72.4646  217.6005 H   0  0  0  0  0  0  0  0  0  0  0  0
  146.1900   73.9980  218.4280 H   0  0  0  0  0  0  0  0  0  0  0  0
  144.9989   73.5263  220.4873 H   0  0  0  0  0  0  0  0  0  0  0  0
  143.1683   73.8656  217.2365 H   0  0  0  0  0  0  0  0  0  0  0  0
  142.2833   76.0827  216.6190 H   0  0  0  0  0  0  0  0  0  0  0  0
  143.3700   77.6582  220.4558 H   0  0  0  0  0  0  0  0  0  0  0  0
  144.2542   75.4437  221.0780 H   0  0  0  0  0  0  0  0  0  0  0  0
  138.2222   76.2823  222.2488 H   0  0  0  0  0  0  0  0  0  0  0  0
  137.9201   78.6349  223.0417 H   0  0  0  0  0  0  0  0  0  0  0  0
  138.8851   80.7136  223.5915 H   0  0  0  0  0  0  0  0  0  0  0  0
  140.8973   82.1795  223.8180 H   0  0  0  0  0  0  0  0  0  0  0  0
  143.1538   81.2648  223.2489 H   0  0  0  0  0  0  0  0  0  0  0  0
  143.3700   78.9324  222.4704 H   0  0  0  0  0  0  0  0  0  0  0  0
  1  2  2  0
  2  3  1  0
  3  4  1  0
  4  5  1  0
  5  6  2  0
  5  7  1  0
  7  8  1  0
  8  9  1  0
  9 10  1  0
 10 11  1  0
 10 12  1  0
 12 13  1  0
 13 14  2  0
 14 15  1  0
 15 16  2  0
 16 17  1  0
 16 18  1  0
 18 19  2  0
  2 20  1  0
 20 21  2  0
 21 22  1  0
 22 23  2  0
 23 24  1  0
 24 25  2  0
 25 26  1  0
 26 27  2  0
 27 28  1  0
 28 29  2  0
 12  7  1  0
 19 13  1  0
 29 20  1  0
 28 23  1  0
  3 30  1  0
  4 31  1  0
  4 32  1  0
  8 33  1  0
  8 34  1  0
  9 35  1  0
  9 36  1  0
 10 37  1  6
 11 38  1  0
 12 39  1  1
 14 40  1  0
 15 41  1  0
 18 42  1  0
 19 43  1  0
 21 44  1  0
 22 45  1  0
 24 46  1  0
 25 47  1  0
 26 48  1  0
 27 49  1  0
M  END
>  <smiles>  (21) 
O=C(NCC(=O)N1CC[C@H](O)[C@H]1c1ccc(Cl)cc1)c1ccc2ccccc2n1

>  <score_type>  (21) 
oracle

>  <origin>  (21) 
autodockgpu

>  <m_score__min__energy>  (21) 
-8.9399999999999995

>  <m_primary>  (21) 
energy

>  <rmsd>  (21) 
7.536974101310121

>  <m_score__min__rmsd>  (21) 
7.536974101310121

>  <meeko>  (21) 
{"free_energy": -7.94, "intermolecular_energy": -9.73, "internal_energy": -2.05, "cluster_size": 16, "cluster_id": 7, "rank_in_cluster": 11}

>  <energy>  (21) 
-8.49

>  <cluster_rmsd>  (21) 
1.12

>  <cluster>  (21) 
3

$$$$

     RDKit          3D

 49 52  0  0  0  0  0  0  0  0999 V2000
  139.0100   74.9650  221.8460 O   0  0  0  0  0  0  0  0  0  0  0  0
  140.1250   75.5310  221.9790 C   0  0  0  0  0  0  0  0  0  0  0  0
  141.2770   74.7090  221.7930 N   0  0  0  0  0  0  0  0  0  0  0  0
  141.0570   73.3230  221.4730 C   0  0  0  0  0  0  0  0  0  0  0  0
  141.6060   73.0090  220.1190 C   0  0  0  0  0  0  0  0  0  0  0  0
  140.7890   73.0420  219.1430 O   0  0  0  0  0  0  0  0  0  0  0  0
  142.9730   72.6890  219.9370 N   0  0  0  0  0  0  0  0  0  0  0  0
  143.4930   71.3170  219.8380 C   0  0  0  0  0  0  0  0  0  0  0  0
  144.9910   71.4740  219.7020 C   0  0  0  0  0  0  0  0  0  0  0  0
  145.0580   72.8320  218.9890 C   0  0  2  0  0  0  0  0  0  0  0  0
  146.3370   73.3750  219.0320 O   0  0  0  0  0  0  0  0  0  0  0  0
  144.0590   73.6090  219.8200 C   0  0  1  0  0  0  0  0  0  0  0  0
  143.6800   74.8900  219.1800 C   0  0  0  0  0  0  0  0  0  0  0  0
  143.6990   75.0960  217.8160 C   0  0  0  0  0  0  0  0  0  0  0  0
  143.3250   76.3280  217.3190 C   0  0  0  0  0  0  0  0  0  0  0  0
  142.9280   77.3770  218.1390 C   0  0  0  0  0  0  0  0  0  0  0  0
  142.4640   78.9220  217.4530 Cl  0  0  0  0  0  0  0  0  0  0  0  0
  142.9140   77.1590  219.5040 C   0  0  0  0  0  0  0  0  0  0  0  0
  143.2860   75.9300  220.0070 C   0  0  0  0  0  0  0  0  0  0  0  0
  140.2640   76.9480  222.3060 C   0  0  0  0  0  0  0  0  0  0  0  0
  139.1070   77.6970  222.3660 C   0  0  0  0  0  0  0  0  0  0  0  0
  139.1160   79.0570  222.6680 C   0  0  0  0  0  0  0  0  0  0  0  0
  140.3490   79.6320  222.9090 C   0  0  0  0  0  0  0  0  0  0  0  0
  140.3750   80.9830  223.2110 C   0  0  0  0  0  0  0  0  0  0  0  0
  141.5970   81.5910  223.4580 C   0  0  0  0  0  0  0  0  0  0  0  0
  142.7630   80.8350  223.3980 C   0  0  0  0  0  0  0  0  0  0  0  0
  142.6860   79.4890  223.0930 C   0  0  0  0  0  0  0  0  0  0  0  0
  141.4730   78.8540  222.8400 C   0  0  0  0  0  0  0  0  0  0  0  0
  141.4500   77.5320  222.5450 N   0  0  0  0  0  0  0  0  0  0  0  0
  142.2330   75.1280  221.8920 H   0  0  0  0  0  0  0  0  0  0  0  0
  141.5587   72.6936  222.2227 H   0  0  0  0  0  0  0  0  0  0  0  0
  139.9754   73.1229  221.4754 H   0  0  0  0  0  0  0  0  0  0  0  0
  143.2451   70.7435  220.7434 H   0  0  0  0  0  0  0  0  0  0  0  0
  143.0565   70.7704  218.9891 H   0  0  0  0  0  0  0  0  0  0  0  0
  145.4883   71.5038  220.6827 H   0  0  0  0  0  0  0  0  0  0  0  0
  145.4953   70.6507  219.1750 H   0  0  0  0  0  0  0  0  0  0  0  0
  144.8346   72.8121  217.9121 H   0  0  0  0  0  0  0  0  0  0  0  0
  146.2290   74.3230  219.3600 H   0  0  0  0  0  0  0  0  0  0  0  0
  144.4471   73.9276  220.7987 H   0  0  0  0  0  0  0  0  0  0  0  0
  144.0078   74.2898  217.1343 H   0  0  0  0  0  0  0  0  0  0  0  0
  143.3419   76.4857  216.2305 H   0  0  0  0  0  0  0  0  0  0  0  0
  142.6068   77.9642  220.1876 H   0  0  0  0  0  0  0  0  0  0  0  0
  143.2695   75.7707  221.0953 H   0  0  0  0  0  0  0  0  0  0  0  0
  138.1440   77.2033  222.1686 H   0  0  0  0  0  0  0  0  0  0  0  0
  138.1870   79.6443  222.7124 H   0  0  0  0  0  0  0  0  0  0  0  0
  139.4422   81.5644  223.2543 H   0  0  0  0  0  0  0  0  0  0  0  0
  141.6436   82.6631  223.6995 H   0  0  0  0  0  0  0  0  0  0  0  0
  143.7387   81.3046  223.5917 H   0  0  0  0  0  0  0  0  0  0  0  0
  143.6139   78.8999  223.0487 H   0  0  0  0  0  0  0  0  0  0  0  0
  1  2  2  0
  2  3  1  0
  3  4  1  0
  4  5  1  0
  5  6  2  0
  5  7  1  0
  7  8  1  0
  8  9  1  0
  9 10  1  0
 10 11  1  0
 10 12  1  0
 12 13  1  0
 13 14  2  0
 14 15  1  0
 15 16  2  0
 16 17  1  0
 16 18  1  0
 18 19  2  0
  2 20  1  0
 20 21  2  0
 21 22  1  0
 22 23  2  0
 23 24  1  0
 24 25  2  0
 25 26  1  0
 26 27  2  0
 27 28  1  0
 28 29  2  0
 12  7  1  0
 19 13  1  0
 29 20  1  0
 28 23  1  0
  3 30  1  0
  4 31  1  0
  4 32  1  0
  8 33  1  0
  8 34  1  0
  9 35  1  0
  9 36  1  0
 10 37  1  6
 11 38  1  0
 12 39  1  1
 14 40  1  0
 15 41  1  0
 18 42  1  0
 19 43  1  0
 21 44  1  0
 22 45  1  0
 24 46  1  0
 25 47  1  0
 26 48  1  0
 27 49  1  0
M  END
>  <smiles>  (22) 
O=C(NCC(=O)N1CC[C@H](O)[C@H]1c1ccc(Cl)cc1)c1ccc2ccccc2n1

>  <score_type>  (22) 
oracle

>  <origin>  (22) 
autodockgpu

>  <m_score__min__energy>  (22) 
-8.9399999999999995

>  <m_primary>  (22) 
energy

>  <rmsd>  (22) 
7.747405280117082

>  <m_score__min__rmsd>  (22) 
7.747405280117082

>  <meeko>  (22) 
{"free_energy": -7.98, "intermolecular_energy": -9.77, "internal_energy": -2.2, "cluster_size": 16, "cluster_id": 7, "rank_in_cluster": 4}

>  <energy>  (22) 
-8.44

>  <cluster_rmsd>  (22) 
1.11

>  <cluster>  (22) 
3

$$$$

     RDKit          3D

 49 52  0  0  0  0  0  0  0  0999 V2000
  141.1940   72.3330  221.2130 O   0  0  0  0  0  0  0  0  0  0  0  0
  140.4090   72.6170  222.1540 C   0  0  0  0  0  0  0  0  0  0  0  0
  139.6840   73.8410  222.0240 N   0  0  0  0  0  0  0  0  0  0  0  0
  139.9170   74.6260  220.8400 C   0  0  0  0  0  0  0  0  0  0  0  0
  140.8220   75.7740  221.1490 C   0  0  0  0  0  0  0  0  0  0  0  0
  141.1950   75.9050  222.3600 O   0  0  0  0  0  0  0  0  0  0  0  0
  141.2410   76.6730  220.1380 N   0  0  0  0  0  0  0  0  0  0  0  0
  140.9300   78.1100  220.1320 C   0  0  0  0  0  0  0  0  0  0  0  0
  141.5340   78.6360  218.8490 C   0  0  0  0  0  0  0  0  0  0  0  0
  142.7150   77.6680  218.6890 C   0  0  2  0  0  0  0  0  0  0  0  0
  143.2550   77.7200  217.4090 O   0  0  0  0  0  0  0  0  0  0  0  0
  142.0150   76.3570  218.9810 C   0  0  1  0  0  0  0  0  0  0  0  0
  142.9760   75.2510  219.1980 C   0  0  0  0  0  0  0  0  0  0  0  0
  144.0160   75.3080  220.1030 C   0  0  0  0  0  0  0  0  0  0  0  0
  144.8550   74.2210  220.2300 C   0  0  0  0  0  0  0  0  0  0  0  0
  144.6970   73.0620  219.4810 C   0  0  0  0  0  0  0  0  0  0  0  0
  145.7940   71.7090  219.6840 Cl  0  0  0  0  0  0  0  0  0  0  0  0
  143.6520   73.0150  218.5770 C   0  0  0  0  0  0  0  0  0  0  0  0
  142.8090   74.0980  218.4460 C   0  0  0  0  0  0  0  0  0  0  0  0
  140.2290   71.7630  223.3250 C   0  0  0  0  0  0  0  0  0  0  0  0
  139.5390   70.5830  223.1430 C   0  0  0  0  0  0  0  0  0  0  0  0
  139.3050   69.6900  224.1870 C   0  0  0  0  0  0  0  0  0  0  0  0
  139.8010   70.0400  225.4280 C   0  0  0  0  0  0  0  0  0  0  0  0
  139.5770   69.1640  226.4760 C   0  0  0  0  0  0  0  0  0  0  0  0
  140.0620   69.4850  227.7350 C   0  0  0  0  0  0  0  0  0  0  0  0
  140.7580   70.6760  227.9170 C   0  0  0  0  0  0  0  0  0  0  0  0
  140.9560   71.5200  226.8400 C   0  0  0  0  0  0  0  0  0  0  0  0
  140.4810   71.2210  225.5660 C   0  0  0  0  0  0  0  0  0  0  0  0
  140.7000   72.0800  224.5430 N   0  0  0  0  0  0  0  0  0  0  0  0
  139.0160   74.1280  222.7780 H   0  0  0  0  0  0  0  0  0  0  0  0
  140.3835   73.9929  220.0708 H   0  0  0  0  0  0  0  0  0  0  0  0
  138.9558   75.0164  220.4745 H   0  0  0  0  0  0  0  0  0  0  0  0
  139.8417   78.2701  220.1410 H   0  0  0  0  0  0  0  0  0  0  0  0
  141.3312   78.6232  221.0183 H   0  0  0  0  0  0  0  0  0  0  0  0
  140.8299   78.5627  218.0070 H   0  0  0  0  0  0  0  0  0  0  0  0
  141.8093   79.7008  218.8708 H   0  0  0  0  0  0  0  0  0  0  0  0
  143.5839   77.8718  219.3320 H   0  0  0  0  0  0  0  0  0  0  0  0
  143.7180   78.6130  217.3360 H   0  0  0  0  0  0  0  0  0  0  0  0
  141.3965   75.9870  218.1500 H   0  0  0  0  0  0  0  0  0  0  0  0
  144.1737   76.2084  220.7149 H   0  0  0  0  0  0  0  0  0  0  0  0
  145.6822   74.2739  220.9532 H   0  0  0  0  0  0  0  0  0  0  0  0
  143.4935   72.1157  217.9637 H   0  0  0  0  0  0  0  0  0  0  0  0
  141.9804   74.0460  217.7244 H   0  0  0  0  0  0  0  0  0  0  0  0
  139.1604   70.3383  222.1396 H   0  0  0  0  0  0  0  0  0  0  0  0
  138.7522   68.7520  224.0305 H   0  0  0  0  0  0  0  0  0  0  0  0
  139.0229   68.2278  226.3128 H   0  0  0  0  0  0  0  0  0  0  0  0
  139.8978   68.8036  228.5828 H   0  0  0  0  0  0  0  0  0  0  0  0
  141.1477   70.9440  228.9101 H   0  0  0  0  0  0  0  0  0  0  0  0
  141.5073   72.4592  226.9949 H   0  0  0  0  0  0  0  0  0  0  0  0
  1  2  2  0
  2  3  1  0
  3  4  1  0
  4  5  1  0
  5  6  2  0
  5  7  1  0
  7  8  1  0
  8  9  1  0
  9 10  1  0
 10 11  1  0
 10 12  1  0
 12 13  1  0
 13 14  2  0
 14 15  1  0
 15 16  2  0
 16 17  1  0
 16 18  1  0
 18 19  2  0
  2 20  1  0
 20 21  2  0
 21 22  1  0
 22 23  2  0
 23 24  1  0
 24 25  2  0
 25 26  1  0
 26 27  2  0
 27 28  1  0
 28 29  2  0
 12  7  1  0
 19 13  1  0
 29 20  1  0
 28 23  1  0
  3 30  1  0
  4 31  1  0
  4 32  1  0
  8 33  1  0
  8 34  1  0
  9 35  1  0
  9 36  1  0
 10 37  1  1
 11 38  1  0
 12 39  1  6
 14 40  1  0
 15 41  1  0
 18 42  1  0
 19 43  1  0
 21 44  1  0
 22 45  1  0
 24 46  1  0
 25 47  1  0
 26 48  1  0
 27 49  1  0
M  END
>  <smiles>  (23) 
O=C(NCC(=O)N1CC[C@H](O)[C@H]1c1ccc(Cl)cc1)c1ccc2ccccc2n1

>  <score_type>  (23) 
oracle

>  <origin>  (23) 
autodockgpu

>  <m_score__min__energy>  (23) 
-8.9399999999999995

>  <m_primary>  (23) 
energy

>  <rmsd>  (23) 
2.3202809949569323

>  <m_score__min__rmsd>  (23) 
2.3202809949569323

>  <meeko>  (23) 
{"free_energy": -8.19, "intermolecular_energy": -9.98, "internal_energy": -1.76, "cluster_size": 7, "cluster_id": 6, "rank_in_cluster": 5}

>  <energy>  (23) 
-8.44

>  <cluster_rmsd>  (23) 
1.39

>  <cluster>  (23) 
3

$$$$

     RDKit          3D

 49 52  0  0  0  0  0  0  0  0999 V2000
  141.0560   74.2460  221.3560 O   0  0  0  0  0  0  0  0  0  0  0  0
  140.0700   74.7470  221.9550 C   0  0  0  0  0  0  0  0  0  0  0  0
  138.9990   73.8540  222.2640 N   0  0  0  0  0  0  0  0  0  0  0  0
  139.1460   72.4790  221.8650 C   0  0  0  0  0  0  0  0  0  0  0  0
  138.1560   71.6210  222.5830 C   0  0  0  0  0  0  0  0  0  0  0  0
  137.2020   72.2180  223.1810 O   0  0  0  0  0  0  0  0  0  0  0  0
  138.2780   70.2110  222.5960 N   0  0  0  0  0  0  0  0  0  0  0  0
  138.2360   69.3680  221.3910 C   0  0  0  0  0  0  0  0  0  0  0  0
  138.3540   67.9500  221.9010 C   0  0  0  0  0  0  0  0  0  0  0  0
  139.1910   68.1850  223.1660 C   0  0  2  0  0  0  0  0  0  0  0  0
  139.1730   67.0800  224.0100 O   0  0  0  0  0  0  0  0  0  0  0  0
  138.4590   69.3780  223.7420 C   0  0  1  0  0  0  0  0  0  0  0  0
  139.2250   70.0290  224.8290 C   0  0  0  0  0  0  0  0  0  0  0  0
  140.1530   71.0290  224.6170 C   0  0  0  0  0  0  0  0  0  0  0  0
  140.8130   71.5710  225.7000 C   0  0  0  0  0  0  0  0  0  0  0  0
  140.5830   71.1520  227.0040 C   0  0  0  0  0  0  0  0  0  0  0  0
  141.4520   71.8780  228.3430 Cl  0  0  0  0  0  0  0  0  0  0  0  0
  139.6520   70.1500  227.2050 C   0  0  0  0  0  0  0  0  0  0  0  0
  138.9890   69.6040  226.1270 C   0  0  0  0  0  0  0  0  0  0  0  0
  139.9970   76.1570  222.3260 C   0  0  0  0  0  0  0  0  0  0  0  0
  138.7430   76.7270  222.3890 C   0  0  0  0  0  0  0  0  0  0  0  0
  138.5500   78.0640  222.7320 C   0  0  0  0  0  0  0  0  0  0  0  0
  139.6830   78.8050  223.0090 C   0  0  0  0  0  0  0  0  0  0  0  0
  139.5090   80.1350  223.3510 C   0  0  0  0  0  0  0  0  0  0  0  0
  140.6260   80.9060  223.6360 C   0  0  0  0  0  0  0  0  0  0  0  0
  141.8900   80.3300  223.5710 C   0  0  0  0  0  0  0  0  0  0  0  0
  142.0140   78.9980  223.2250 C   0  0  0  0  0  0  0  0  0  0  0  0
  140.9100   78.2010  222.9350 C   0  0  0  0  0  0  0  0  0  0  0  0
  141.0830   76.9000  222.6000 N   0  0  0  0  0  0  0  0  0  0  0  0
  138.1520   74.2170  222.7630 H   0  0  0  0  0  0  0  0  0  0  0  0
  138.9789   72.3961  220.7809 H   0  0  0  0  0  0  0  0  0  0  0  0
  140.1617   72.1403  222.1173 H   0  0  0  0  0  0  0  0  0  0  0  0
  137.2861   69.5080  220.8542 H   0  0  0  0  0  0  0  0  0  0  0  0
  139.0385   69.6202  220.6822 H   0  0  0  0  0  0  0  0  0  0  0  0
  137.3700   67.5190  222.1378 H   0  0  0  0  0  0  0  0  0  0  0  0
  138.7895   67.2371  221.1854 H   0  0  0  0  0  0  0  0  0  0  0  0
  140.2655   68.3495  222.9975 H   0  0  0  0  0  0  0  0  0  0  0  0
  139.2870   66.2720  223.4160 H   0  0  0  0  0  0  0  0  0  0  0  0
  137.5072   69.1225  224.2306 H   0  0  0  0  0  0  0  0  0  0  0  0
  140.3630   71.3884  223.5988 H   0  0  0  0  0  0  0  0  0  0  0  0
  141.5513   72.3672  225.5238 H   0  0  0  0  0  0  0  0  0  0  0  0
  139.4409   69.7894  228.2226 H   0  0  0  0  0  0  0  0  0  0  0  0
  138.2508   68.8075  226.3020 H   0  0  0  0  0  0  0  0  0  0  0  0
  137.8648   76.1051  222.1607 H   0  0  0  0  0  0  0  0  0  0  0  0
  137.5446   78.5078  222.7799 H   0  0  0  0  0  0  0  0  0  0  0  0
  138.5011   80.5733  223.3960 H   0  0  0  0  0  0  0  0  0  0  0  0
  140.5130   81.9650  223.9113 H   0  0  0  0  0  0  0  0  0  0  0  0
  142.7845   80.9303  223.7934 H   0  0  0  0  0  0  0  0  0  0  0  0
  143.0186   78.5525  223.1771 H   0  0  0  0  0  0  0  0  0  0  0  0
  1  2  2  0
  2  3  1  0
  3  4  1  0
  4  5  1  0
  5  6  2  0
  5  7  1  0
  7  8  1  0
  8  9  1  0
  9 10  1  0
 10 11  1  0
 10 12  1  0
 12 13  1  0
 13 14  2  0
 14 15  1  0
 15 16  2  0
 16 17  1  0
 16 18  1  0
 18 19  2  0
  2 20  1  0
 20 21  2  0
 21 22  1  0
 22 23  2  0
 23 24  1  0
 24 25  2  0
 25 26  1  0
 26 27  2  0
 27 28  1  0
 28 29  2  0
 12  7  1  0
 19 13  1  0
 29 20  1  0
 28 23  1  0
  3 30  1  0
  4 31  1  0
  4 32  1  0
  8 33  1  0
  8 34  1  0
  9 35  1  0
  9 36  1  0
 10 37  1  6
 11 38  1  0
 12 39  1  1
 14 40  1  0
 15 41  1  0
 18 42  1  0
 19 43  1  0
 21 44  1  0
 22 45  1  0
 24 46  1  0
 25 47  1  0
 26 48  1  0
 27 49  1  0
M  END
>  <smiles>  (24) 
O=C(NCC(=O)N1CC[C@H](O)[C@H]1c1ccc(Cl)cc1)c1ccc2ccccc2n1

>  <score_type>  (24) 
oracle

>  <origin>  (24) 
autodockgpu

>  <m_score__min__energy>  (24) 
-8.9399999999999995

>  <m_primary>  (24) 
energy

>  <rmsd>  (24) 
8.262697621847096

>  <m_score__min__rmsd>  (24) 
8.262697621847096

>  <meeko>  (24) 
{"free_energy": -8.29, "intermolecular_energy": -10.08, "internal_energy": -1.65, "cluster_size": 1, "cluster_id": 5, "rank_in_cluster": 1}

>  <energy>  (24) 
-8.45

>  <cluster_rmsd>  (24) 
0.0

>  <cluster>  (24) 
4

$$$$

     RDKit          3D

 49 52  0  0  0  0  0  0  0  0999 V2000
  140.9240   71.7290  221.3260 O   0  0  0  0  0  0  0  0  0  0  0  0
  140.4130   72.2140  222.3680 C   0  0  0  0  0  0  0  0  0  0  0  0
  139.9920   73.5760  222.2890 N   0  0  0  0  0  0  0  0  0  0  0  0
  140.1900   74.2590  221.0380 C   0  0  0  0  0  0  0  0  0  0  0  0
  140.9330   75.5370  221.2560 C   0  0  0  0  0  0  0  0  0  0  0  0
  140.9240   76.0160  222.4370 O   0  0  0  0  0  0  0  0  0  0  0  0
  141.6130   76.1830  220.1950 N   0  0  0  0  0  0  0  0  0  0  0  0
  141.8440   77.6330  220.1250 C   0  0  0  0  0  0  0  0  0  0  0  0
  142.5530   77.8540  218.8070 C   0  0  0  0  0  0  0  0  0  0  0  0
  143.2950   76.5170  218.6720 C   0  0  2  0  0  0  0  0  0  0  0  0
  143.7720   76.3200  217.3810 O   0  0  0  0  0  0  0  0  0  0  0  0
  142.1790   75.5630  219.0400 C   0  0  1  0  0  0  0  0  0  0  0  0
  142.6800   74.1920  219.2920 C   0  0  0  0  0  0  0  0  0  0  0  0
  143.6110   73.8850  220.2630 C   0  0  0  0  0  0  0  0  0  0  0  0
  144.0110   72.5750  220.4180 C   0  0  0  0  0  0  0  0  0  0  0  0
  143.5130   71.5420  219.6330 C   0  0  0  0  0  0  0  0  0  0  0  0
  144.0580   69.8930  219.8740 Cl  0  0  0  0  0  0  0  0  0  0  0  0
  142.5810   71.8600  218.6630 C   0  0  0  0  0  0  0  0  0  0  0  0
  142.1770   73.1690  218.5030 C   0  0  0  0  0  0  0  0  0  0  0  0
  140.2470   71.4510  223.6020 C   0  0  0  0  0  0  0  0  0  0  0  0
  139.6030   70.2350  223.5090 C   0  0  0  0  0  0  0  0  0  0  0  0
  139.3870   69.4200  224.6180 C   0  0  0  0  0  0  0  0  0  0  0  0
  139.8520   69.8880  225.8320 C   0  0  0  0  0  0  0  0  0  0  0  0
  139.6450   69.0910  226.9450 C   0  0  0  0  0  0  0  0  0  0  0  0
  140.0990   69.5310  228.1790 C   0  0  0  0  0  0  0  0  0  0  0  0
  140.7480   70.7570  228.2730 C   0  0  0  0  0  0  0  0  0  0  0  0
  140.9310   71.5190  227.1330 C   0  0  0  0  0  0  0  0  0  0  0  0
  140.4860   71.1000  225.8820 C   0  0  0  0  0  0  0  0  0  0  0  0
  140.6890   71.8820  224.7960 N   0  0  0  0  0  0  0  0  0  0  0  0
  139.5590   74.0320  223.1270 H   0  0  0  0  0  0  0  0  0  0  0  0
  140.7686   73.6141  220.3602 H   0  0  0  0  0  0  0  0  0  0  0  0
  139.2089   74.4868  220.5959 H   0  0  0  0  0  0  0  0  0  0  0  0
  140.8887   78.1780  220.1462 H   0  0  0  0  0  0  0  0  0  0  0  0
  142.4345   77.9987  220.9780 H   0  0  0  0  0  0  0  0  0  0  0  0
  141.8417   78.0105  217.9827 H   0  0  0  0  0  0  0  0  0  0  0  0
  143.1968   78.7452  218.7725 H   0  0  0  0  0  0  0  0  0  0  0  0
  144.2003   76.4149  219.2884 H   0  0  0  0  0  0  0  0  0  0  0  0
  144.7470   76.0800  217.4750 H   0  0  0  0  0  0  0  0  0  0  0  0
  141.4401   75.4118  218.2393 H   0  0  0  0  0  0  0  0  0  0  0  0
  144.0284   74.6749  220.9047 H   0  0  0  0  0  0  0  0  0  0  0  0
  144.7539   72.3379  221.1938 H   0  0  0  0  0  0  0  0  0  0  0  0
  142.1627   71.0713  218.0204 H   0  0  0  0  0  0  0  0  0  0  0  0
  141.4346   73.4081  217.7273 H   0  0  0  0  0  0  0  0  0  0  0  0
  139.2474   69.8968  222.5246 H   0  0  0  0  0  0  0  0  0  0  0  0
  138.8718   68.4520  224.5315 H   0  0  0  0  0  0  0  0  0  0  0  0
  139.1286   68.1242  226.8518 H   0  0  0  0  0  0  0  0  0  0  0  0
  139.9468   68.9145  229.0772 H   0  0  0  0  0  0  0  0  0  0  0  0
  141.1129   71.1181  229.2458 H   0  0  0  0  0  0  0  0  0  0  0  0
  141.4450   72.4878  227.2176 H   0  0  0  0  0  0  0  0  0  0  0  0
  1  2  2  0
  2  3  1  0
  3  4  1  0
  4  5  1  0
  5  6  2  0
  5  7  1  0
  7  8  1  0
  8  9  1  0
  9 10  1  0
 10 11  1  0
 10 12  1  0
 12 13  1  0
 13 14  2  0
 14 15  1  0
 15 16  2  0
 16 17  1  0
 16 18  1  0
 18 19  2  0
  2 20  1  0
 20 21  2  0
 21 22  1  0
 22 23  2  0
 23 24  1  0
 24 25  2  0
 25 26  1  0
 26 27  2  0
 27 28  1  0
 28 29  2  0
 12  7  1  0
 19 13  1  0
 29 20  1  0
 28 23  1  0
  3 30  1  0
  4 31  1  0
  4 32  1  0
  8 33  1  0
  8 34  1  0
  9 35  1  0
  9 36  1  0
 10 37  1  1
 11 38  1  0
 12 39  1  6
 14 40  1  0
 15 41  1  0
 18 42  1  0
 19 43  1  0
 21 44  1  0
 22 45  1  0
 24 46  1  0
 25 47  1  0
 26 48  1  0
 27 49  1  0
M  END
>  <smiles>  (25) 
O=C(NCC(=O)N1CC[C@H](O)[C@H]1c1ccc(Cl)cc1)c1ccc2ccccc2n1

>  <score_type>  (25) 
oracle

>  <origin>  (25) 
autodockgpu

>  <m_score__min__energy>  (25) 
-8.9399999999999995

>  <m_primary>  (25) 
energy

>  <rmsd>  (25) 
2.324805711617245

>  <m_score__min__rmsd>  (25) 
2.324805711617245

>  <meeko>  (25) 
{"free_energy": -7.98, "intermolecular_energy": -9.77, "internal_energy": -2.05, "cluster_size": 7, "cluster_id": 6, "rank_in_cluster": 7}

>  <energy>  (25) 
-8.44

>  <cluster_rmsd>  (25) 
0.7

>  <cluster>  (25) 
4

$$$$

     RDKit          3D

 49 52  0  0  0  0  0  0  0  0999 V2000
  139.8770   70.4260  221.3950 O   0  0  0  0  0  0  0  0  0  0  0  0
  139.5730   71.1910  222.3460 C   0  0  0  0  0  0  0  0  0  0  0  0
  138.8380   72.3660  221.9990 N   0  0  0  0  0  0  0  0  0  0  0  0
  138.5190   72.5620  220.6100 C   0  0  0  0  0  0  0  0  0  0  0  0
  139.1780   73.8010  220.0950 C   0  0  0  0  0  0  0  0  0  0  0  0
  139.5800   73.7800  218.8860 O   0  0  0  0  0  0  0  0  0  0  0  0
  139.3450   74.9410  220.9180 N   0  0  0  0  0  0  0  0  0  0  0  0
  138.3450   75.4120  221.8880 C   0  0  0  0  0  0  0  0  0  0  0  0
  138.9370   76.6700  222.4820 C   0  0  0  0  0  0  0  0  0  0  0  0
  140.4330   76.3450  222.3700 C   0  0  2  0  0  0  0  0  0  0  0  0
  141.2220   77.4750  222.5470 O   0  0  0  0  0  0  0  0  0  0  0  0
  140.4760   75.8110  220.9530 C   0  0  1  0  0  0  0  0  0  0  0  0
  141.7560   75.1270  220.6550 C   0  0  0  0  0  0  0  0  0  0  0  0
  142.7940   75.7170  219.9640 C   0  0  0  0  0  0  0  0  0  0  0  0
  143.9460   74.9930  219.7400 C   0  0  0  0  0  0  0  0  0  0  0  0
  144.1080   73.6860  220.1830 C   0  0  0  0  0  0  0  0  0  0  0  0
  145.5960   72.8130  219.8690 Cl  0  0  0  0  0  0  0  0  0  0  0  0
  143.0620   73.1050  220.8740 C   0  0  0  0  0  0  0  0  0  0  0  0
  141.9070   73.8240  221.1020 C   0  0  0  0  0  0  0  0  0  0  0  0
  139.9360   70.9200  223.7330 C   0  0  0  0  0  0  0  0  0  0  0  0
  140.6650   71.8870  224.3940 C   0  0  0  0  0  0  0  0  0  0  0  0
  141.0690   71.7380  225.7190 C   0  0  0  0  0  0  0  0  0  0  0  0
  140.7030   70.5670  226.3530 C   0  0  0  0  0  0  0  0  0  0  0  0
  141.0960   70.4040  227.6710 C   0  0  0  0  0  0  0  0  0  0  0  0
  140.7450   69.2390  228.3360 C   0  0  0  0  0  0  0  0  0  0  0  0
  140.0100   68.2640  227.6690 C   0  0  0  0  0  0  0  0  0  0  0  0
  139.6400   68.4720  226.3530 C   0  0  0  0  0  0  0  0  0  0  0  0
  139.9790   69.6320  225.6620 C   0  0  0  0  0  0  0  0  0  0  0  0
  139.5940   69.7890  224.3740 N   0  0  0  0  0  0  0  0  0  0  0  0
  138.5580   73.0400  222.7510 H   0  0  0  0  0  0  0  0  0  0  0  0
  138.8722   71.6959  220.0311 H   0  0  0  0  0  0  0  0  0  0  0  0
  137.4291   72.6670  220.5051 H   0  0  0  0  0  0  0  0  0  0  0  0
  137.3925   75.6336  221.3844 H   0  0  0  0  0  0  0  0  0  0  0  0
  138.1269   74.6557  222.6564 H   0  0  0  0  0  0  0  0  0  0  0  0
  138.6689   77.5621  221.8969 H   0  0  0  0  0  0  0  0  0  0  0  0
  138.5911   76.9073  223.4989 H   0  0  0  0  0  0  0  0  0  0  0  0
  140.8236   75.6509  223.1287 H   0  0  0  0  0  0  0  0  0  0  0  0
  142.1410   77.2320  222.2090 H   0  0  0  0  0  0  0  0  0  0  0  0
  140.4290   76.5930  220.1808 H   0  0  0  0  0  0  0  0  0  0  0  0
  142.7040   76.7501  219.5970 H   0  0  0  0  0  0  0  0  0  0  0  0
  144.7699   75.4693  219.1884 H   0  0  0  0  0  0  0  0  0  0  0  0
  143.1500   72.0719  221.2413 H   0  0  0  0  0  0  0  0  0  0  0  0
  141.0825   73.3496  221.6543 H   0  0  0  0  0  0  0  0  0  0  0  0
  140.9366   72.8074  223.8563 H   0  0  0  0  0  0  0  0  0  0  0  0
  141.6513   72.5155  226.2352 H   0  0  0  0  0  0  0  0  0  0  0  0
  141.6770   71.1859  228.1819 H   0  0  0  0  0  0  0  0  0  0  0  0
  141.0454   69.0868  229.3832 H   0  0  0  0  0  0  0  0  0  0  0  0
  139.7254   67.3349  228.1846 H   0  0  0  0  0  0  0  0  0  0  0  0
  139.0585   67.6951  225.8349 H   0  0  0  0  0  0  0  0  0  0  0  0
  1  2  2  0
  2  3  1  0
  3  4  1  0
  4  5  1  0
  5  6  2  0
  5  7  1  0
  7  8  1  0
  8  9  1  0
  9 10  1  0
 10 11  1  0
 10 12  1  0
 12 13  1  0
 13 14  2  0
 14 15  1  0
 15 16  2  0
 16 17  1  0
 16 18  1  0
 18 19  2  0
  2 20  1  0
 20 21  2  0
 21 22  1  0
 22 23  2  0
 23 24  1  0
 24 25  2  0
 25 26  1  0
 26 27  2  0
 27 28  1  0
 28 29  2  0
 12  7  1  0
 19 13  1  0
 29 20  1  0
 28 23  1  0
  3 30  1  0
  4 31  1  0
  4 32  1  0
  8 33  1  0
  8 34  1  0
  9 35  1  0
  9 36  1  0
 10 37  1  1
 11 38  1  0
 12 39  1  6
 14 40  1  0
 15 41  1  0
 18 42  1  0
 19 43  1  0
 21 44  1  0
 22 45  1  0
 24 46  1  0
 25 47  1  0
 26 48  1  0
 27 49  1  0
M  END
>  <smiles>  (26) 
O=C(NCC(=O)N1CC[C@H](O)[C@H]1c1ccc(Cl)cc1)c1ccc2ccccc2n1

>  <score_type>  (26) 
oracle

>  <origin>  (26) 
autodockgpu

>  <m_score__min__energy>  (26) 
-8.9399999999999995

>  <m_primary>  (26) 
energy

>  <rmsd>  (26) 
3.515879778783904

>  <m_score__min__rmsd>  (26) 
3.515879778783904

>  <meeko>  (26) 
{"free_energy": -8.19, "intermolecular_energy": -9.98, "internal_energy": -1.63, "cluster_size": 3, "cluster_id": 4, "rank_in_cluster": 3}

>  <energy>  (26) 
-8.19

>  <cluster_rmsd>  (26) 
0.3

>  <cluster>  (26) 
4

$$$$

     RDKit          3D

 49 52  0  0  0  0  0  0  0  0999 V2000
  141.3540   71.9020  221.5630 O   0  0  0  0  0  0  0  0  0  0  0  0
  140.5680   72.2310  222.4880 C   0  0  0  0  0  0  0  0  0  0  0  0
  139.9150   73.4930  222.3430 N   0  0  0  0  0  0  0  0  0  0  0  0
  140.2140   74.2620  221.1640 C   0  0  0  0  0  0  0  0  0  0  0  0
  140.5810   75.6610  221.5360 C   0  0  0  0  0  0  0  0  0  0  0  0
  140.2410   76.0580  222.6990 O   0  0  0  0  0  0  0  0  0  0  0  0
  141.2750   76.5040  220.6350 N   0  0  0  0  0  0  0  0  0  0  0  0
  141.7180   76.0910  219.2940 C   0  0  0  0  0  0  0  0  0  0  0  0
  142.4470   77.2920  218.7350 C   0  0  0  0  0  0  0  0  0  0  0  0
  141.6950   78.4230  219.4500 C   0  0  2  0  0  0  0  0  0  0  0  0
  142.3790   79.6310  219.3670 O   0  0  0  0  0  0  0  0  0  0  0  0
  141.6590   77.8620  220.8560 C   0  0  1  0  0  0  0  0  0  0  0  0
  140.7200   78.6050  221.7270 C   0  0  0  0  0  0  0  0  0  0  0  0
  139.4090   78.8690  221.3880 C   0  0  0  0  0  0  0  0  0  0  0  0
  138.6150   79.5690  222.2730 C   0  0  0  0  0  0  0  0  0  0  0  0
  139.0820   80.0240  223.4990 C   0  0  0  0  0  0  0  0  0  0  0  0
  138.0290   80.9100  224.5850 Cl  0  0  0  0  0  0  0  0  0  0  0  0
  140.3980   79.7540  223.8290 C   0  0  0  0  0  0  0  0  0  0  0  0
  141.1960   79.0550  222.9490 C   0  0  0  0  0  0  0  0  0  0  0  0
  140.3180   71.3910  223.6560 C   0  0  0  0  0  0  0  0  0  0  0  0
  139.6550   70.2000  223.4450 C   0  0  0  0  0  0  0  0  0  0  0  0
  139.3610   69.3180  224.4820 C   0  0  0  0  0  0  0  0  0  0  0  0
  139.7670   69.6910  225.7490 C   0  0  0  0  0  0  0  0  0  0  0  0
  139.4830   68.8250  226.7920 C   0  0  0  0  0  0  0  0  0  0  0  0
  139.8770   69.1690  228.0760 C   0  0  0  0  0  0  0  0  0  0  0  0
  140.5460   70.3710  228.2880 C   0  0  0  0  0  0  0  0  0  0  0  0
  140.8080   71.2020  227.2150 C   0  0  0  0  0  0  0  0  0  0  0  0
  140.4230   70.8810  225.9170 C   0  0  0  0  0  0  0  0  0  0  0  0
  140.7020   71.7290  224.8990 N   0  0  0  0  0  0  0  0  0  0  0  0
  139.2490   73.8180  223.0840 H   0  0  0  0  0  0  0  0  0  0  0  0
  141.0556   73.7958  220.6307 H   0  0  0  0  0  0  0  0  0  0  0  0
  139.3243   74.2857  220.5175 H   0  0  0  0  0  0  0  0  0  0  0  0
  142.3932   75.2251  219.3596 H   0  0  0  0  0  0  0  0  0  0  0  0
  140.8752   75.7859  218.6564 H   0  0  0  0  0  0  0  0  0  0  0  0
  143.5144   77.2808  219.0007 H   0  0  0  0  0  0  0  0  0  0  0  0
  142.4488   77.3609  217.6372 H   0  0  0  0  0  0  0  0  0  0  0  0
  140.7068   78.6692  219.0343 H   0  0  0  0  0  0  0  0  0  0  0  0
  142.8740   79.7340  220.2400 H   0  0  0  0  0  0  0  0  0  0  0  0
  142.6146   77.9472  221.3940 H   0  0  0  0  0  0  0  0  0  0  0  0
  139.0023   78.5261  220.4252 H   0  0  0  0  0  0  0  0  0  0  0  0
  137.5704   79.7748  221.9964 H   0  0  0  0  0  0  0  0  0  0  0  0
  140.8065   80.0963  224.7913 H   0  0  0  0  0  0  0  0  0  0  0  0
  142.2408   78.8482  223.2242 H   0  0  0  0  0  0  0  0  0  0  0  0
  139.3477   69.9376  222.4219 H   0  0  0  0  0  0  0  0  0  0  0  0
  138.8315   68.3709  224.3012 H   0  0  0  0  0  0  0  0  0  0  0  0
  138.9533   67.8793  226.6046 H   0  0  0  0  0  0  0  0  0  0  0  0
  139.6626   68.4974  228.9204 H   0  0  0  0  0  0  0  0  0  0  0  0
  140.8637   70.6574  229.3014 H   0  0  0  0  0  0  0  0  0  0  0  0
  141.3387   72.1489  227.3932 H   0  0  0  0  0  0  0  0  0  0  0  0
  1  2  2  0
  2  3  1  0
  3  4  1  0
  4  5  1  0
  5  6  2  0
  5  7  1  0
  7  8  1  0
  8  9  1  0
  9 10  1  0
 10 11  1  0
 10 12  1  0
 12 13  1  0
 13 14  2  0
 14 15  1  0
 15 16  2  0
 16 17  1  0
 16 18  1  0
 18 19  2  0
  2 20  1  0
 20 21  2  0
 21 22  1  0
 22 23  2  0
 23 24  1  0
 24 25  2  0
 25 26  1  0
 26 27  2  0
 27 28  1  0
 28 29  2  0
 12  7  1  0
 19 13  1  0
 29 20  1  0
 28 23  1  0
  3 30  1  0
  4 31  1  0
  4 32  1  0
  8 33  1  0
  8 34  1  0
  9 35  1  0
  9 36  1  0
 10 37  1  6
 11 38  1  0
 12 39  1  1
 14 40  1  0
 15 41  1  0
 18 42  1  0
 19 43  1  0
 21 44  1  0
 22 45  1  0
 24 46  1  0
 25 47  1  0
 26 48  1  0
 27 49  1  0
M  END
>  <smiles>  (27) 
O=C(NCC(=O)N1CC[C@H](O)[C@H]1c1ccc(Cl)cc1)c1ccc2ccccc2n1

>  <score_type>  (27) 
oracle

>  <origin>  (27) 
autodockgpu

>  <m_score__min__energy>  (27) 
-8.9399999999999995

>  <m_primary>  (27) 
energy

>  <rmsd>  (27) 
2.3812474604904255

>  <m_score__min__rmsd>  (27) 
2.3812474604904255

>  <meeko>  (27) 
{"free_energy": -8.63, "intermolecular_energy": -10.42, "internal_energy": -1.52, "cluster_size": 14, "cluster_id": 2, "rank_in_cluster": 3}

>  <energy>  (27) 
-8.29

>  <cluster_rmsd>  (27) 
0.0

>  <cluster>  (27) 
5

$$$$

     RDKit          3D

 49 52  0  0  0  0  0  0  0  0999 V2000
  141.0130   71.9750  221.1390 O   0  0  0  0  0  0  0  0  0  0  0  0
  140.4680   72.4050  222.1870 C   0  0  0  0  0  0  0  0  0  0  0  0
  140.0530   73.7720  222.1670 N   0  0  0  0  0  0  0  0  0  0  0  0
  140.2950   74.5200  220.9620 C   0  0  0  0  0  0  0  0  0  0  0  0
  140.8900   75.8510  221.2880 C   0  0  0  0  0  0  0  0  0  0  0  0
  141.0410   76.1290  222.5230 O   0  0  0  0  0  0  0  0  0  0  0  0
  141.2660   76.7580  220.2680 N   0  0  0  0  0  0  0  0  0  0  0  0
  141.0190   78.2070  220.3200 C   0  0  0  0  0  0  0  0  0  0  0  0
  141.5420   78.7410  219.0060 C   0  0  0  0  0  0  0  0  0  0  0  0
  142.6620   77.7300  218.7280 C   0  0  2  0  0  0  0  0  0  0  0  0
  143.1010   77.7930  217.4110 O   0  0  0  0  0  0  0  0  0  0  0  0
  141.9320   76.4410  219.0450 C   0  0  1  0  0  0  0  0  0  0  0  0
  142.8570   75.2910  219.1580 C   0  0  0  0  0  0  0  0  0  0  0  0
  142.7800   74.1670  218.3610 C   0  0  0  0  0  0  0  0  0  0  0  0
  143.6920   73.1500  218.5460 C   0  0  0  0  0  0  0  0  0  0  0  0
  144.6930   73.2080  219.5080 C   0  0  0  0  0  0  0  0  0  0  0  0
  145.8270   71.8840  219.7000 Cl  0  0  0  0  0  0  0  0  0  0  0  0
  144.7620   74.3380  220.3010 C   0  0  0  0  0  0  0  0  0  0  0  0
  143.8520   75.3580  220.1210 C   0  0  0  0  0  0  0  0  0  0  0  0
  140.2580   71.5780  223.3720 C   0  0  0  0  0  0  0  0  0  0  0  0
  139.5460   70.4080  223.2050 C   0  0  0  0  0  0  0  0  0  0  0  0
  139.2830   69.5400  224.2630 C   0  0  0  0  0  0  0  0  0  0  0  0
  139.7720   69.9050  225.5030 C   0  0  0  0  0  0  0  0  0  0  0  0
  139.5200   69.0540  226.5650 C   0  0  0  0  0  0  0  0  0  0  0  0
  139.9960   69.3900  227.8230 C   0  0  0  0  0  0  0  0  0  0  0  0
  140.7140   70.5700  227.9900 C   0  0  0  0  0  0  0  0  0  0  0  0
  140.9400   71.3890  226.8990 C   0  0  0  0  0  0  0  0  0  0  0  0
  140.4740   71.0750  225.6260 C   0  0  0  0  0  0  0  0  0  0  0  0
  140.7220   71.9100  224.5890 N   0  0  0  0  0  0  0  0  0  0  0  0
  139.5920   74.1840  223.0140 H   0  0  0  0  0  0  0  0  0  0  0  0
  140.9904   73.9591  220.3203 H   0  0  0  0  0  0  0  0  0  0  0  0
  139.3398   74.6738  220.4387 H   0  0  0  0  0  0  0  0  0  0  0  0
  139.9430   78.4123  220.4198 H   0  0  0  0  0  0  0  0  0  0  0  0
  141.5113   78.6791  221.1830 H   0  0  0  0  0  0  0  0  0  0  0  0
  140.7707   78.7203  218.2220 H   0  0  0  0  0  0  0  0  0  0  0  0
  141.8653   79.7921  219.0312 H   0  0  0  0  0  0  0  0  0  0  0  0
  143.5872   77.8814  219.3034 H   0  0  0  0  0  0  0  0  0  0  0  0
  143.6670   78.6250  217.3430 H   0  0  0  0  0  0  0  0  0  0  0  0
  141.2348   76.1189  218.2575 H   0  0  0  0  0  0  0  0  0  0  0  0
  142.0014   74.0837  217.5885 H   0  0  0  0  0  0  0  0  0  0  0  0
  143.6247   72.2573  217.9068 H   0  0  0  0  0  0  0  0  0  0  0  0
  145.5406   74.4232  221.0734 H   0  0  0  0  0  0  0  0  0  0  0  0
  143.9174   76.2509  220.7601 H   0  0  0  0  0  0  0  0  0  0  0  0
  139.1732   70.1516  222.2024 H   0  0  0  0  0  0  0  0  0  0  0  0
  138.7140   68.6098  224.1182 H   0  0  0  0  0  0  0  0  0  0  0  0
  138.9507   68.1251  226.4132 H   0  0  0  0  0  0  0  0  0  0  0  0
  139.8076   68.7292  228.6820 H   0  0  0  0  0  0  0  0  0  0  0  0
  141.0988   70.8492  228.9820 H   0  0  0  0  0  0  0  0  0  0  0  0
  141.5074   72.3204  227.0423 H   0  0  0  0  0  0  0  0  0  0  0  0
  1  2  2  0
  2  3  1  0
  3  4  1  0
  4  5  1  0
  5  6  2  0
  5  7  1  0
  7  8  1  0
  8  9  1  0
  9 10  1  0
 10 11  1  0
 10 12  1  0
 12 13  1  0
 13 14  2  0
 14 15  1  0
 15 16  2  0
 16 17  1  0
 16 18  1  0
 18 19  2  0
  2 20  1  0
 20 21  2  0
 21 22  1  0
 22 23  2  0
 23 24  1  0
 24 25  2  0
 25 26  1  0
 26 27  2  0
 27 28  1  0
 28 29  2  0
 12  7  1  0
 19 13  1  0
 29 20  1  0
 28 23  1  0
  3 30  1  0
  4 31  1  0
  4 32  1  0
  8 33  1  0
  8 34  1  0
  9 35  1  0
  9 36  1  0
 10 37  1  1
 11 38  1  0
 12 39  1  6
 14 40  1  0
 15 41  1  0
 18 42  1  0
 19 43  1  0
 21 44  1  0
 22 45  1  0
 24 46  1  0
 25 47  1  0
 26 48  1  0
 27 49  1  0
M  END
>  <smiles>  (28) 
O=C(NCC(=O)N1CC[C@H](O)[C@H]1c1ccc(Cl)cc1)c1ccc2ccccc2n1

>  <score_type>  (28) 
oracle

>  <origin>  (28) 
autodockgpu

>  <m_score__min__energy>  (28) 
-8.9399999999999995

>  <m_primary>  (28) 
energy

>  <rmsd>  (28) 
2.380338626501924

>  <m_score__min__rmsd>  (28) 
2.380338626501924

>  <meeko>  (28) 
{"free_energy": -8.21, "intermolecular_energy": -10.0, "internal_energy": -1.88, "cluster_size": 7, "cluster_id": 6, "rank_in_cluster": 1}

>  <energy>  (28) 
-8.21

>  <cluster_rmsd>  (28) 
0.0

>  <cluster>  (28) 
6

$$$$

     RDKit          3D

 49 52  0  0  0  0  0  0  0  0999 V2000
  140.7030   71.1480  221.2990 O   0  0  0  0  0  0  0  0  0  0  0  0
  140.3660   71.7710  222.3380 C   0  0  0  0  0  0  0  0  0  0  0  0
  140.2000   73.1830  222.2030 N   0  0  0  0  0  0  0  0  0  0  0  0
  140.4300   73.7550  220.9030 C   0  0  0  0  0  0  0  0  0  0  0  0
  141.7400   74.4740  220.8770 C   0  0  0  0  0  0  0  0  0  0  0  0
  141.7290   75.7050  221.2090 O   0  0  0  0  0  0  0  0  0  0  0  0
  142.9340   73.8140  220.5000 N   0  0  0  0  0  0  0  0  0  0  0  0
  143.2500   72.4200  220.8440 C   0  0  0  0  0  0  0  0  0  0  0  0
  144.6320   72.1800  220.2780 C   0  0  0  0  0  0  0  0  0  0  0  0
  144.6040   73.1380  219.0790 C   0  0  2  0  0  0  0  0  0  0  0  0
  145.8770   73.3600  218.5660 O   0  0  0  0  0  0  0  0  0  0  0  0
  144.0120   74.3640  219.7410 C   0  0  1  0  0  0  0  0  0  0  0  0
  143.5800   75.3770  218.7510 C   0  0  0  0  0  0  0  0  0  0  0  0
  143.3480   76.7010  219.0640 C   0  0  0  0  0  0  0  0  0  0  0  0
  142.9500   77.5650  218.0670 C   0  0  0  0  0  0  0  0  0  0  0  0
  142.7700   77.1590  216.7500 C   0  0  0  0  0  0  0  0  0  0  0  0
  142.2620   78.3020  215.5220 Cl  0  0  0  0  0  0  0  0  0  0  0  0
  143.0060   75.8300  216.4480 C   0  0  0  0  0  0  0  0  0  0  0  0
  143.4040   74.9610  217.4410 C   0  0  0  0  0  0  0  0  0  0  0  0
  140.1510   71.1140  223.6240 C   0  0  0  0  0  0  0  0  0  0  0  0
  139.4650   69.9170  223.6130 C   0  0  0  0  0  0  0  0  0  0  0  0
  139.2000   69.2010  224.7780 C   0  0  0  0  0  0  0  0  0  0  0  0
  139.6590   69.7460  225.9620 C   0  0  0  0  0  0  0  0  0  0  0  0
  139.4040   69.0460  227.1290 C   0  0  0  0  0  0  0  0  0  0  0  0
  139.8510   69.5660  228.3340 C   0  0  0  0  0  0  0  0  0  0  0  0
  140.5430   70.7730  228.3450 C   0  0  0  0  0  0  0  0  0  0  0  0
  140.7740   71.4360  227.1530 C   0  0  0  0  0  0  0  0  0  0  0  0
  140.3360   70.9360  225.9300 C   0  0  0  0  0  0  0  0  0  0  0  0
  140.5860   71.6220  224.7900 N   0  0  0  0  0  0  0  0  0  0  0  0
  139.9200   73.7530  223.0370 H   0  0  0  0  0  0  0  0  0  0  0  0
  140.4414   72.9528  220.1504 H   0  0  0  0  0  0  0  0  0  0  0  0
  139.6248   74.4702  220.6793 H   0  0  0  0  0  0  0  0  0  0  0  0
  143.2499   72.2816  221.9353 H   0  0  0  0  0  0  0  0  0  0  0  0
  142.5091   71.7161  220.4369 H   0  0  0  0  0  0  0  0  0  0  0  0
  145.4194   72.4501  220.9971 H   0  0  0  0  0  0  0  0  0  0  0  0
  144.8522   71.1320  220.0265 H   0  0  0  0  0  0  0  0  0  0  0  0
  144.0437   72.7814  218.2021 H   0  0  0  0  0  0  0  0  0  0  0  0
  145.8830   74.3130  218.2340 H   0  0  0  0  0  0  0  0  0  0  0  0
  144.7256   74.9202  220.3666 H   0  0  0  0  0  0  0  0  0  0  0  0
  143.4790   77.0615  220.0949 H   0  0  0  0  0  0  0  0  0  0  0  0
  142.7673   78.6189  218.3239 H   0  0  0  0  0  0  0  0  0  0  0  0
  142.8763   75.4674  215.4176 H   0  0  0  0  0  0  0  0  0  0  0  0
  143.5873   73.9067  217.1862 H   0  0  0  0  0  0  0  0  0  0  0  0
  139.1153   69.5142  222.6510 H   0  0  0  0  0  0  0  0  0  0  0  0
  138.6517   68.2476  224.7566 H   0  0  0  0  0  0  0  0  0  0  0  0
  138.8557   68.0928  227.1006 H   0  0  0  0  0  0  0  0  0  0  0  0
  139.6600   69.0283  229.2744 H   0  0  0  0  0  0  0  0  0  0  0  0
  140.9035   71.1967  229.2939 H   0  0  0  0  0  0  0  0  0  0  0  0
  141.3218   72.3897  227.1723 H   0  0  0  0  0  0  0  0  0  0  0  0
  1  2  2  0
  2  3  1  0
  3  4  1  0
  4  5  1  0
  5  6  2  0
  5  7  1  0
  7  8  1  0
  8  9  1  0
  9 10  1  0
 10 11  1  0
 10 12  1  0
 12 13  1  0
 13 14  2  0
 14 15  1  0
 15 16  2  0
 16 17  1  0
 16 18  1  0
 18 19  2  0
  2 20  1  0
 20 21  2  0
 21 22  1  0
 22 23  2  0
 23 24  1  0
 24 25  2  0
 25 26  1  0
 26 27  2  0
 27 28  1  0
 28 29  2  0
 12  7  1  0
 19 13  1  0
 29 20  1  0
 28 23  1  0
  3 30  1  0
  4 31  1  0
  4 32  1  0
  8 33  1  0
  8 34  1  0
  9 35  1  0
  9 36  1  0
 10 37  1  6
 11 38  1  0
 12 39  1  1
 14 40  1  0
 15 41  1  0
 18 42  1  0
 19 43  1  0
 21 44  1  0
 22 45  1  0
 24 46  1  0
 25 47  1  0
 26 48  1  0
 27 49  1  0
M  END
>  <smiles>  (29) 
O=C(NCC(=O)N1CC[C@H](O)[C@H]1c1ccc(Cl)cc1)c1ccc2ccccc2n1

>  <score_type>  (29) 
oracle

>  <origin>  (29) 
autodockgpu

>  <m_score__min__energy>  (29) 
-8.9399999999999995

>  <m_primary>  (29) 
energy

>  <rmsd>  (29) 
3.1983849851367654

>  <m_score__min__rmsd>  (29) 
3.1983849851367654

>  <meeko>  (29) 
{"free_energy": -8.44, "intermolecular_energy": -10.23, "internal_energy": -1.46, "cluster_size": 4, "cluster_id": 3, "rank_in_cluster": 4}

>  <energy>  (29) 
-8.21

>  <cluster_rmsd>  (29) 
0.13

>  <cluster>  (29) 
6

$$$$

     RDKit          3D

 49 52  0  0  0  0  0  0  0  0999 V2000
  140.0690   70.8880  221.5130 O   0  0  0  0  0  0  0  0  0  0  0  0
  139.5210   71.3690  222.5380 C   0  0  0  0  0  0  0  0  0  0  0  0
  138.4910   72.3320  222.3100 N   0  0  0  0  0  0  0  0  0  0  0  0
  138.1810   72.6590  220.9430 C   0  0  0  0  0  0  0  0  0  0  0  0
  139.1590   73.6580  220.4140 C   0  0  0  0  0  0  0  0  0  0  0  0
  139.7900   73.3410  219.3540 O   0  0  0  0  0  0  0  0  0  0  0  0
  139.3700   74.8970  221.0650 N   0  0  0  0  0  0  0  0  0  0  0  0
  138.4070   75.5200  221.9860 C   0  0  0  0  0  0  0  0  0  0  0  0
  139.0380   76.8350  222.3840 C   0  0  0  0  0  0  0  0  0  0  0  0
  140.5240   76.4640  222.2800 C   0  0  2  0  0  0  0  0  0  0  0  0
  141.3380   77.5910  222.2780 O   0  0  0  0  0  0  0  0  0  0  0  0
  140.5180   75.7390  220.9510 C   0  0  1  0  0  0  0  0  0  0  0  0
  141.7750   74.9920  220.7190 C   0  0  0  0  0  0  0  0  0  0  0  0
  141.9880   73.7000  221.1530 C   0  0  0  0  0  0  0  0  0  0  0  0
  143.1960   73.0930  220.8830 C   0  0  0  0  0  0  0  0  0  0  0  0
  144.2170   73.7300  220.1890 C   0  0  0  0  0  0  0  0  0  0  0  0
  145.7340   72.9100  219.8750 Cl  0  0  0  0  0  0  0  0  0  0  0  0
  143.9930   75.0250  219.7590 C   0  0  0  0  0  0  0  0  0  0  0  0
  142.7870   75.6380  220.0250 C   0  0  0  0  0  0  0  0  0  0  0  0
  139.8950   70.9820  223.8950 C   0  0  0  0  0  0  0  0  0  0  0  0
  140.6510   71.8800  224.6200 C   0  0  0  0  0  0  0  0  0  0  0  0
  141.0670   71.6210  225.9240 C   0  0  0  0  0  0  0  0  0  0  0  0
  140.6840   70.4100  226.4690 C   0  0  0  0  0  0  0  0  0  0  0  0
  141.0890   70.1370  227.7640 C   0  0  0  0  0  0  0  0  0  0  0  0
  140.7220   68.9310  228.3420 C   0  0  0  0  0  0  0  0  0  0  0  0
  139.9590   68.0260  227.6110 C   0  0  0  0  0  0  0  0  0  0  0  0
  139.5790   68.3430  226.3200 C   0  0  0  0  0  0  0  0  0  0  0  0
  139.9330   69.5470  225.7170 C   0  0  0  0  0  0  0  0  0  0  0  0
  139.5360   69.8120  224.4500 N   0  0  0  0  0  0  0  0  0  0  0  0
  137.9990   72.7660  223.1270 H   0  0  0  0  0  0  0  0  0  0  0  0
  138.2286   71.7458  220.3317 H   0  0  0  0  0  0  0  0  0  0  0  0
  137.1699   73.0899  220.8986 H   0  0  0  0  0  0  0  0  0  0  0  0
  137.4445   75.6904  221.4814 H   0  0  0  0  0  0  0  0  0  0  0  0
  138.1979   74.8823  222.8576 H   0  0  0  0  0  0  0  0  0  0  0  0
  138.7699   77.6431  221.6876 H   0  0  0  0  0  0  0  0  0  0  0  0
  138.7253   77.2189  223.3663 H   0  0  0  0  0  0  0  0  0  0  0  0
  140.9227   75.8724  223.1173 H   0  0  0  0  0  0  0  0  0  0  0  0
  142.2020   77.3120  221.8390 H   0  0  0  0  0  0  0  0  0  0  0  0
  140.4645   76.4082  220.0797 H   0  0  0  0  0  0  0  0  0  0  0  0
  141.2049   73.1615  221.7068 H   0  0  0  0  0  0  0  0  0  0  0  0
  143.3580   72.0623  221.2313 H   0  0  0  0  0  0  0  0  0  0  0  0
  144.7755   75.5651  219.2058 H   0  0  0  0  0  0  0  0  0  0  0  0
  142.6229   76.6685  219.6769 H   0  0  0  0  0  0  0  0  0  0  0  0
  140.9352   72.8340  224.1519 H   0  0  0  0  0  0  0  0  0  0  0  0
  141.6704   72.3445  226.4918 H   0  0  0  0  0  0  0  0  0  0  0  0
  141.6924   70.8651  228.3259 H   0  0  0  0  0  0  0  0  0  0  0  0
  141.0317   68.6919  229.3701 H   0  0  0  0  0  0  0  0  0  0  0  0
  139.6604   67.0657  228.0567 H   0  0  0  0  0  0  0  0  0  0  0  0
  138.9769   67.6199  225.7503 H   0  0  0  0  0  0  0  0  0  0  0  0
  1  2  2  0
  2  3  1  0
  3  4  1  0
  4  5  1  0
  5  6  2  0
  5  7  1  0
  7  8  1  0
  8  9  1  0
  9 10  1  0
 10 11  1  0
 10 12  1  0
 12 13  1  0
 13 14  2  0
 14 15  1  0
 15 16  2  0
 16 17  1  0
 16 18  1  0
 18 19  2  0
  2 20  1  0
 20 21  2  0
 21 22  1  0
 22 23  2  0
 23 24  1  0
 24 25  2  0
 25 26  1  0
 26 27  2  0
 27 28  1  0
 28 29  2  0
 12  7  1  0
 19 13  1  0
 29 20  1  0
 28 23  1  0
  3 30  1  0
  4 31  1  0
  4 32  1  0
  8 33  1  0
  8 34  1  0
  9 35  1  0
  9 36  1  0
 10 37  1  1
 11 38  1  0
 12 39  1  6
 14 40  1  0
 15 41  1  0
 18 42  1  0
 19 43  1  0
 21 44  1  0
 22 45  1  0
 24 46  1  0
 25 47  1  0
 26 48  1  0
 27 49  1  0
M  END
>  <smiles>  (30) 
O=C(NCC(=O)N1CC[C@H](O)[C@H]1c1ccc(Cl)cc1)c1ccc2ccccc2n1

>  <score_type>  (30) 
oracle

>  <origin>  (30) 
autodockgpu

>  <m_score__min__energy>  (30) 
-8.9399999999999995

>  <m_primary>  (30) 
energy

>  <rmsd>  (30) 
3.48647380631072

>  <m_score__min__rmsd>  (30) 
3.48647380631072

>  <meeko>  (30) 
{"free_energy": -8.45, "intermolecular_energy": -10.24, "internal_energy": -1.56, "cluster_size": 3, "cluster_id": 4, "rank_in_cluster": 1}

>  <energy>  (30) 
-8.2

>  <cluster_rmsd>  (30) 
0.24

>  <cluster>  (30) 
6

$$$$

     RDKit          3D

 49 52  0  0  0  0  0  0  0  0999 V2000
  139.0050   74.9490  221.8790 O   0  0  0  0  0  0  0  0  0  0  0  0
  140.1190   75.5160  222.0160 C   0  0  0  0  0  0  0  0  0  0  0  0
  141.2730   74.6890  221.8570 N   0  0  0  0  0  0  0  0  0  0  0  0
  141.0540   73.2980  221.5580 C   0  0  0  0  0  0  0  0  0  0  0  0
  141.5850   72.9690  220.2000 C   0  0  0  0  0  0  0  0  0  0  0  0
  140.7530   72.9800  219.2360 O   0  0  0  0  0  0  0  0  0  0  0  0
  142.9520   72.6590  220.0020 N   0  0  0  0  0  0  0  0  0  0  0  0
  143.4750   71.2930  219.8490 C   0  0  0  0  0  0  0  0  0  0  0  0
  144.9720   71.4590  219.7140 C   0  0  0  0  0  0  0  0  0  0  0  0
  145.0330   72.8430  219.0530 C   0  0  2  0  0  0  0  0  0  0  0  0
  146.3110   73.3870  219.1120 O   0  0  0  0  0  0  0  0  0  0  0  0
  144.0360   73.5860  219.9160 C   0  0  1  0  0  0  0  0  0  0  0  0
  143.6520   74.8890  219.3260 C   0  0  0  0  0  0  0  0  0  0  0  0
  143.2760   75.9850  220.0740 C   0  0  0  0  0  0  0  0  0  0  0  0
  142.9380   77.1550  219.4260 C   0  0  0  0  0  0  0  0  0  0  0  0
  142.9600   77.2780  218.0430 C   0  0  0  0  0  0  0  0  0  0  0  0
  142.5190   78.7900  217.2720 Cl  0  0  0  0  0  0  0  0  0  0  0  0
  143.3370   76.1730  217.3030 C   0  0  0  0  0  0  0  0  0  0  0  0
  143.6770   75.0010  217.9440 C   0  0  0  0  0  0  0  0  0  0  0  0
  140.2560   76.9370  222.3200 C   0  0  0  0  0  0  0  0  0  0  0  0
  139.1000   77.6890  222.3520 C   0  0  0  0  0  0  0  0  0  0  0  0
  139.1070   79.0540  222.6310 C   0  0  0  0  0  0  0  0  0  0  0  0
  140.3380   79.6310  222.8790 C   0  0  0  0  0  0  0  0  0  0  0  0
  140.3620   80.9870  223.1580 C   0  0  0  0  0  0  0  0  0  0  0  0
  141.5820   81.5980  223.4110 C   0  0  0  0  0  0  0  0  0  0  0  0
  142.7470   80.8390  223.3790 C   0  0  0  0  0  0  0  0  0  0  0  0
  142.6720   79.4880  223.0950 C   0  0  0  0  0  0  0  0  0  0  0  0
  141.4620   78.8500  222.8380 C   0  0  0  0  0  0  0  0  0  0  0  0
  141.4400   77.5240  222.5650 N   0  0  0  0  0  0  0  0  0  0  0  0
  142.2270   75.1080  221.9600 H   0  0  0  0  0  0  0  0  0  0  0  0
  141.5690   72.6802  222.3084 H   0  0  0  0  0  0  0  0  0  0  0  0
  139.9734   73.0936  221.5786 H   0  0  0  0  0  0  0  0  0  0  0  0
  143.2317   70.6848  220.7327 H   0  0  0  0  0  0  0  0  0  0  0  0
  143.0369   70.7779  218.9814 H   0  0  0  0  0  0  0  0  0  0  0  0
  145.4726   71.4528  220.6935 H   0  0  0  0  0  0  0  0  0  0  0  0
  145.4766   70.6576  219.1544 H   0  0  0  0  0  0  0  0  0  0  0  0
  144.8053   72.8631  217.9770 H   0  0  0  0  0  0  0  0  0  0  0  0
  146.1910   74.3610  219.3430 H   0  0  0  0  0  0  0  0  0  0  0  0
  144.4269   73.8688  220.9046 H   0  0  0  0  0  0  0  0  0  0  0  0
  143.2460   75.9270  221.1721 H   0  0  0  0  0  0  0  0  0  0  0  0
  142.6391   78.0252  220.0289 H   0  0  0  0  0  0  0  0  0  0  0  0
  143.3656   76.2288  216.2048 H   0  0  0  0  0  0  0  0  0  0  0  0
  143.9766   74.1301  217.3424 H   0  0  0  0  0  0  0  0  0  0  0  0
  138.1389   77.1935  222.1502 H   0  0  0  0  0  0  0  0  0  0  0  0
  138.1785   79.6434  222.6528 H   0  0  0  0  0  0  0  0  0  0  0  0
  139.4296   81.5702  223.1788 H   0  0  0  0  0  0  0  0  0  0  0  0
  141.6273   82.6740  223.6350 H   0  0  0  0  0  0  0  0  0  0  0  0
  143.7209   81.3101  223.5782 H   0  0  0  0  0  0  0  0  0  0  0  0
  143.5998   78.8975  223.0714 H   0  0  0  0  0  0  0  0  0  0  0  0
  1  2  2  0
  2  3  1  0
  3  4  1  0
  4  5  1  0
  5  6  2  0
  5  7  1  0
  7  8  1  0
  8  9  1  0
  9 10  1  0
 10 11  1  0
 10 12  1  0
 12 13  1  0
 13 14  2  0
 14 15  1  0
 15 16  2  0
 16 17  1  0
 16 18  1  0
 18 19  2  0
  2 20  1  0
 20 21  2  0
 21 22  1  0
 22 23  2  0
 23 24  1  0
 24 25  2  0
 25 26  1  0
 26 27  2  0
 27 28  1  0
 28 29  2  0
 12  7  1  0
 19 13  1  0
 29 20  1  0
 28 23  1  0
  3 30  1  0
  4 31  1  0
  4 32  1  0
  8 33  1  0
  8 34  1  0
  9 35  1  0
  9 36  1  0
 10 37  1  6
 11 38  1  0
 12 39  1  1
 14 40  1  0
 15 41  1  0
 18 42  1  0
 19 43  1  0
 21 44  1  0
 22 45  1  0
 24 46  1  0
 25 47  1  0
 26 48  1  0
 27 49  1  0
M  END
>  <smiles>  (31) 
O=C(NCC(=O)N1CC[C@H](O)[C@H]1c1ccc(Cl)cc1)c1ccc2ccccc2n1

>  <score_type>  (31) 
oracle

>  <origin>  (31) 
autodockgpu

>  <m_score__min__energy>  (31) 
-8.9399999999999995

>  <m_primary>  (31) 
energy

>  <rmsd>  (31) 
7.748715272323285

>  <m_score__min__rmsd>  (31) 
7.748715272323285

>  <meeko>  (31) 
{"free_energy": -7.87, "intermolecular_energy": -9.66, "internal_energy": -2.21, "cluster_size": 16, "cluster_id": 7, "rank_in_cluster": 13}

>  <energy>  (31) 
-8.2

>  <cluster_rmsd>  (31) 
0.12

>  <cluster>  (31) 
6

$$$$

     RDKit          3D

 49 52  0  0  0  0  0  0  0  0999 V2000
  139.8950   74.1540  222.2020 O   0  0  0  0  0  0  0  0  0  0  0  0
  140.3920   75.1190  221.5680 C   0  0  0  0  0  0  0  0  0  0  0  0
  141.0100   74.8040  220.3190 N   0  0  0  0  0  0  0  0  0  0  0  0
  141.0060   73.4250  219.9080 C   0  0  0  0  0  0  0  0  0  0  0  0
  141.9980   72.6420  220.7060 C   0  0  0  0  0  0  0  0  0  0  0  0
  141.6430   72.2830  221.8760 O   0  0  0  0  0  0  0  0  0  0  0  0
  143.2720   72.3190  220.1810 N   0  0  0  0  0  0  0  0  0  0  0  0
  143.7290   70.9470  219.9110 C   0  0  0  0  0  0  0  0  0  0  0  0
  145.1490   71.0970  219.4140 C   0  0  0  0  0  0  0  0  0  0  0  0
  145.0600   72.4790  218.7520 C   0  0  2  0  0  0  0  0  0  0  0  0
  146.3180   73.0100  218.4940 O   0  0  0  0  0  0  0  0  0  0  0  0
  144.3100   73.2340  219.8280 C   0  0  1  0  0  0  0  0  0  0  0  0
  143.8050   74.5390  219.3430 C   0  0  0  0  0  0  0  0  0  0  0  0
  143.8250   75.6940  220.0980 C   0  0  0  0  0  0  0  0  0  0  0  0
  143.3310   76.8600  219.5520 C   0  0  0  0  0  0  0  0  0  0  0  0
  142.8110   76.9230  218.2650 C   0  0  0  0  0  0  0  0  0  0  0  0
  142.1960   78.4340  217.6220 Cl  0  0  0  0  0  0  0  0  0  0  0  0
  142.7960   75.7600  217.5180 C   0  0  0  0  0  0  0  0  0  0  0  0
  143.2880   74.5910  218.0580 C   0  0  0  0  0  0  0  0  0  0  0  0
  140.3550   76.4950  222.0550 C   0  0  0  0  0  0  0  0  0  0  0  0
  139.1280   76.9920  222.4450 C   0  0  0  0  0  0  0  0  0  0  0  0
  138.9700   78.2900  222.9260 C   0  0  0  0  0  0  0  0  0  0  0  0
  140.1090   79.0690  222.9980 C   0  0  0  0  0  0  0  0  0  0  0  0
  139.9690   80.3620  223.4740 C   0  0  0  0  0  0  0  0  0  0  0  0
  141.0920   81.1710  223.5590 C   0  0  0  0  0  0  0  0  0  0  0  0
  142.3290   80.6690  223.1660 C   0  0  0  0  0  0  0  0  0  0  0  0
  142.4180   79.3720  222.6970 C   0  0  0  0  0  0  0  0  0  0  0  0
  141.3070   78.5390  222.6020 C   0  0  0  0  0  0  0  0  0  0  0  0
  141.4470   77.2750  222.1350 N   0  0  0  0  0  0  0  0  0  0  0  0
  141.4410   75.5690  219.7480 H   0  0  0  0  0  0  0  0  0  0  0  0
  140.0020   73.0033  220.0630 H   0  0  0  0  0  0  0  0  0  0  0  0
  141.2789   73.3684  218.8439 H   0  0  0  0  0  0  0  0  0  0  0  0
  143.7030   70.3431  220.8301 H   0  0  0  0  0  0  0  0  0  0  0  0
  143.0874   70.4348  219.1788 H   0  0  0  0  0  0  0  0  0  0  0  0
  145.8735   71.0875  220.2416 H   0  0  0  0  0  0  0  0  0  0  0  0
  145.4940   70.2893  218.7517 H   0  0  0  0  0  0  0  0  0  0  0  0
  144.5770   72.4990  217.7639 H   0  0  0  0  0  0  0  0  0  0  0  0
  146.2360   74.0070  218.6310 H   0  0  0  0  0  0  0  0  0  0  0  0
  144.9332   73.5154  220.6897 H   0  0  0  0  0  0  0  0  0  0  0  0
  144.2293   75.6847  221.1210 H   0  0  0  0  0  0  0  0  0  0  0  0
  143.3493   77.7768  220.1596 H   0  0  0  0  0  0  0  0  0  0  0  0
  142.3923   75.7674  216.4948 H   0  0  0  0  0  0  0  0  0  0  0  0
  143.2698   73.6733  217.4518 H   0  0  0  0  0  0  0  0  0  0  0  0
  138.2443   76.3409  222.3737 H   0  0  0  0  0  0  0  0  0  0  0  0
  137.9868   78.6757  223.2333 H   0  0  0  0  0  0  0  0  0  0  0  0
  138.9827   80.7412  223.7797 H   0  0  0  0  0  0  0  0  0  0  0  0
  141.0057   82.2015  223.9341 H   0  0  0  0  0  0  0  0  0  0  0  0
  143.2284   81.2992  223.2281 H   0  0  0  0  0  0  0  0  0  0  0  0
  143.4003   78.9849  222.3883 H   0  0  0  0  0  0  0  0  0  0  0  0
  1  2  2  0
  2  3  1  0
  3  4  1  0
  4  5  1  0
  5  6  2  0
  5  7  1  0
  7  8  1  0
  8  9  1  0
  9 10  1  0
 10 11  1  0
 10 12  1  0
 12 13  1  0
 13 14  2  0
 14 15  1  0
 15 16  2  0
 16 17  1  0
 16 18  1  0
 18 19  2  0
  2 20  1  0
 20 21  2  0
 21 22  1  0
 22 23  2  0
 23 24  1  0
 24 25  2  0
 25 26  1  0
 26 27  2  0
 27 28  1  0
 28 29  2  0
 12  7  1  0
 19 13  1  0
 29 20  1  0
 28 23  1  0
  3 30  1  0
  4 31  1  0
  4 32  1  0
  8 33  1  0
  8 34  1  0
  9 35  1  0
  9 36  1  0
 10 37  1  6
 11 38  1  0
 12 39  1  1
 14 40  1  0
 15 41  1  0
 18 42  1  0
 19 43  1  0
 21 44  1  0
 22 45  1  0
 24 46  1  0
 25 47  1  0
 26 48  1  0
 27 49  1  0
M  END
>  <smiles>  (32) 
O=C(NCC(=O)N1CC[C@H](O)[C@H]1c1ccc(Cl)cc1)c1ccc2ccccc2n1

>  <score_type>  (32) 
oracle

>  <origin>  (32) 
autodockgpu

>  <m_score__min__energy>  (32) 
-8.9399999999999995

>  <m_primary>  (32) 
energy

>  <rmsd>  (32) 
7.5599106899205974

>  <m_score__min__rmsd>  (32) 
7.5599106899205974

>  <meeko>  (32) 
{"free_energy": -8.07, "intermolecular_energy": -9.86, "internal_energy": -1.92, "cluster_size": 16, "cluster_id": 7, "rank_in_cluster": 1}

>  <energy>  (32) 
-8.19

>  <cluster_rmsd>  (32) 
0.23

>  <cluster>  (32) 
6

$$$$

     RDKit          3D

 49 52  0  0  0  0  0  0  0  0999 V2000
  138.9890   75.0100  221.8640 O   0  0  0  0  0  0  0  0  0  0  0  0
  140.1040   75.5720  222.0130 C   0  0  0  0  0  0  0  0  0  0  0  0
  141.2560   74.7420  221.8600 N   0  0  0  0  0  0  0  0  0  0  0  0
  141.0350   73.3540  221.5530 C   0  0  0  0  0  0  0  0  0  0  0  0
  141.5310   73.0400  220.1790 C   0  0  0  0  0  0  0  0  0  0  0  0
  140.6850   73.1160  219.2290 O   0  0  0  0  0  0  0  0  0  0  0  0
  142.8790   72.6750  219.9490 N   0  0  0  0  0  0  0  0  0  0  0  0
  143.3460   71.2880  219.8060 C   0  0  0  0  0  0  0  0  0  0  0  0
  144.8430   71.3940  219.6290 C   0  0  0  0  0  0  0  0  0  0  0  0
  144.9390   72.7630  218.9420 C   0  0  2  0  0  0  0  0  0  0  0  0
  146.2370   73.2590  218.9570 O   0  0  0  0  0  0  0  0  0  0  0  0
  143.9940   73.5580  219.8180 C   0  0  1  0  0  0  0  0  0  0  0  0
  143.6430   74.8650  219.2150 C   0  0  0  0  0  0  0  0  0  0  0  0
  143.6600   75.1090  217.8570 C   0  0  0  0  0  0  0  0  0  0  0  0
  143.3140   76.3620  217.3970 C   0  0  0  0  0  0  0  0  0  0  0  0
  142.9470   77.3970  218.2470 C   0  0  0  0  0  0  0  0  0  0  0  0
  142.5170   78.9720  217.6070 Cl  0  0  0  0  0  0  0  0  0  0  0  0
  142.9330   77.1420  219.6060 C   0  0  0  0  0  0  0  0  0  0  0  0
  143.2780   75.8910  220.0730 C   0  0  0  0  0  0  0  0  0  0  0  0
  140.2430   76.9920  222.3240 C   0  0  0  0  0  0  0  0  0  0  0  0
  139.0880   77.7450  222.3580 C   0  0  0  0  0  0  0  0  0  0  0  0
  139.0970   79.1090  222.6430 C   0  0  0  0  0  0  0  0  0  0  0  0
  140.3280   79.6830  222.8950 C   0  0  0  0  0  0  0  0  0  0  0  0
  140.3550   81.0380  223.1810 C   0  0  0  0  0  0  0  0  0  0  0  0
  141.5750   81.6450  223.4380 C   0  0  0  0  0  0  0  0  0  0  0  0
  142.7390   80.8840  223.4040 C   0  0  0  0  0  0  0  0  0  0  0  0
  142.6620   79.5350  223.1140 C   0  0  0  0  0  0  0  0  0  0  0  0
  141.4510   78.9010  222.8520 C   0  0  0  0  0  0  0  0  0  0  0  0
  141.4280   77.5760  222.5730 N   0  0  0  0  0  0  0  0  0  0  0  0
  142.2110   75.1580  221.9730 H   0  0  0  0  0  0  0  0  0  0  0  0
  141.5720   72.7311  222.2835 H   0  0  0  0  0  0  0  0  0  0  0  0
  139.9560   73.1453  221.5996 H   0  0  0  0  0  0  0  0  0  0  0  0
  143.1038   70.7040  220.7062 H   0  0  0  0  0  0  0  0  0  0  0  0
  142.8656   70.7762  218.9590 H   0  0  0  0  0  0  0  0  0  0  0  0
  145.3691   71.3851  220.5950 H   0  0  0  0  0  0  0  0  0  0  0  0
  145.3015   70.5645  219.0708 H   0  0  0  0  0  0  0  0  0  0  0  0
  144.6838   72.7733  217.8721 H   0  0  0  0  0  0  0  0  0  0  0  0
  146.1550   74.2580  219.0740 H   0  0  0  0  0  0  0  0  0  0  0  0
  144.4221   73.8421  220.7906 H   0  0  0  0  0  0  0  0  0  0  0  0
  143.9456   74.3150  217.1512 H   0  0  0  0  0  0  0  0  0  0  0  0
  143.3293   76.5493  216.3132 H   0  0  0  0  0  0  0  0  0  0  0  0
  142.6474   77.9350  220.3129 H   0  0  0  0  0  0  0  0  0  0  0  0
  143.2631   75.7020  221.1565 H   0  0  0  0  0  0  0  0  0  0  0  0
  138.1264   77.2518  222.1530 H   0  0  0  0  0  0  0  0  0  0  0  0
  138.1694   79.6997  222.6662 H   0  0  0  0  0  0  0  0  0  0  0  0
  139.4238   81.6231  223.2039 H   0  0  0  0  0  0  0  0  0  0  0  0
  141.6220   82.7199  223.6670 H   0  0  0  0  0  0  0  0  0  0  0  0
  143.7134   81.3525  223.6064 H   0  0  0  0  0  0  0  0  0  0  0  0
  143.5886   78.9427  223.0894 H   0  0  0  0  0  0  0  0  0  0  0  0
  1  2  2  0
  2  3  1  0
  3  4  1  0
  4  5  1  0
  5  6  2  0
  5  7  1  0
  7  8  1  0
  8  9  1  0
  9 10  1  0
 10 11  1  0
 10 12  1  0
 12 13  1  0
 13 14  2  0
 14 15  1  0
 15 16  2  0
 16 17  1  0
 16 18  1  0
 18 19  2  0
  2 20  1  0
 20 21  2  0
 21 22  1  0
 22 23  2  0
 23 24  1  0
 24 25  2  0
 25 26  1  0
 26 27  2  0
 27 28  1  0
 28 29  2  0
 12  7  1  0
 19 13  1  0
 29 20  1  0
 28 23  1  0
  3 30  1  0
  4 31  1  0
  4 32  1  0
  8 33  1  0
  8 34  1  0
  9 35  1  0
  9 36  1  0
 10 37  1  6
 11 38  1  0
 12 39  1  1
 14 40  1  0
 15 41  1  0
 18 42  1  0
 19 43  1  0
 21 44  1  0
 22 45  1  0
 24 46  1  0
 25 47  1  0
 26 48  1  0
 27 49  1  0
M  END
>  <smiles>  (33) 
O=C(NCC(=O)N1CC[C@H](O)[C@H]1c1ccc(Cl)cc1)c1ccc2ccccc2n1

>  <score_type>  (33) 
oracle

>  <origin>  (33) 
autodockgpu

>  <m_score__min__energy>  (33) 
-8.9399999999999995

>  <m_primary>  (33) 
energy

>  <rmsd>  (33) 
7.752946048182232

>  <m_score__min__rmsd>  (33) 
7.752946048182232

>  <meeko>  (33) 
{"free_energy": -7.96, "intermolecular_energy": -9.75, "internal_energy": -2.2, "cluster_size": 16, "cluster_id": 7, "rank_in_cluster": 8}

>  <energy>  (33) 
-8.17

>  <cluster_rmsd>  (33) 
0.19

>  <cluster>  (33) 
6

$$$$

     RDKit          3D

 49 52  0  0  0  0  0  0  0  0999 V2000
  139.9300   74.0760  222.2370 O   0  0  0  0  0  0  0  0  0  0  0  0
  140.4100   75.0350  221.5810 C   0  0  0  0  0  0  0  0  0  0  0  0
  141.0240   74.7030  220.3350 N   0  0  0  0  0  0  0  0  0  0  0  0
  141.0360   73.3170  219.9510 C   0  0  0  0  0  0  0  0  0  0  0  0
  142.0960   72.5790  220.7020 C   0  0  0  0  0  0  0  0  0  0  0  0
  141.8240   72.2380  221.8990 O   0  0  0  0  0  0  0  0  0  0  0  0
  143.3440   72.2770  220.1070 N   0  0  0  0  0  0  0  0  0  0  0  0
  143.7930   70.9160  219.7760 C   0  0  0  0  0  0  0  0  0  0  0  0
  145.1860   71.0870  219.2150 C   0  0  0  0  0  0  0  0  0  0  0  0
  145.0600   72.4870  218.5970 C   0  0  2  0  0  0  0  0  0  0  0  0
  146.3020   73.0310  218.2940 O   0  0  0  0  0  0  0  0  0  0  0  0
  144.3600   73.2070  219.7310 C   0  0  1  0  0  0  0  0  0  0  0  0
  143.8280   74.5230  219.3090 C   0  0  0  0  0  0  0  0  0  0  0  0
  143.8580   75.6500  220.1040 C   0  0  0  0  0  0  0  0  0  0  0  0
  143.3360   76.8290  219.6150 C   0  0  0  0  0  0  0  0  0  0  0  0
  142.7770   76.9330  218.3480 C   0  0  0  0  0  0  0  0  0  0  0  0
  142.1280   78.4590  217.7780 Cl  0  0  0  0  0  0  0  0  0  0  0  0
  142.7520   75.7970  217.5590 C   0  0  0  0  0  0  0  0  0  0  0  0
  143.2720   74.6150  218.0420 C   0  0  0  0  0  0  0  0  0  0  0  0
  140.3570   76.4200  222.0420 C   0  0  0  0  0  0  0  0  0  0  0  0
  139.1220   76.9150  222.4060 C   0  0  0  0  0  0  0  0  0  0  0  0
  138.9490   78.2210  222.8600 C   0  0  0  0  0  0  0  0  0  0  0  0
  140.0820   79.0090  222.9320 C   0  0  0  0  0  0  0  0  0  0  0  0
  139.9270   80.3100  223.3820 C   0  0  0  0  0  0  0  0  0  0  0  0
  141.0430   81.1280  223.4660 C   0  0  0  0  0  0  0  0  0  0  0  0
  142.2880   80.6270  223.0980 C   0  0  0  0  0  0  0  0  0  0  0  0
  142.3930   79.3220  222.6550 C   0  0  0  0  0  0  0  0  0  0  0  0
  141.2880   78.4800  222.5610 C   0  0  0  0  0  0  0  0  0  0  0  0
  141.4420   77.2080  222.1210 N   0  0  0  0  0  0  0  0  0  0  0  0
  141.4410   75.4630  219.7450 H   0  0  0  0  0  0  0  0  0  0  0  0
  140.0558   72.8704  220.1740 H   0  0  0  0  0  0  0  0  0  0  0  0
  141.2464   73.2465  218.8736 H   0  0  0  0  0  0  0  0  0  0  0  0
  143.8143   70.2863  220.6777 H   0  0  0  0  0  0  0  0  0  0  0  0
  143.1185   70.4216  219.0614 H   0  0  0  0  0  0  0  0  0  0  0  0
  145.9501   71.0580  220.0058 H   0  0  0  0  0  0  0  0  0  0  0  0
  145.5010   70.2999  218.5141 H   0  0  0  0  0  0  0  0  0  0  0  0
  144.5298   72.5333  217.6343 H   0  0  0  0  0  0  0  0  0  0  0  0
  146.2410   74.0130  218.5200 H   0  0  0  0  0  0  0  0  0  0  0  0
  145.0228   73.4662  220.5697 H   0  0  0  0  0  0  0  0  0  0  0  0
  144.2922   75.6088  221.1138 H   0  0  0  0  0  0  0  0  0  0  0  0
  143.3635   77.7235  220.2546 H   0  0  0  0  0  0  0  0  0  0  0  0
  142.3184   75.8366  216.5489 H   0  0  0  0  0  0  0  0  0  0  0  0
  143.2451   73.7193  217.4041 H   0  0  0  0  0  0  0  0  0  0  0  0
  138.2438   76.2563  222.3355 H   0  0  0  0  0  0  0  0  0  0  0  0
  137.9593   78.6058  223.1470 H   0  0  0  0  0  0  0  0  0  0  0  0
  138.9343   80.6879  223.6681 H   0  0  0  0  0  0  0  0  0  0  0  0
  140.9452   82.1647  223.8207 H   0  0  0  0  0  0  0  0  0  0  0  0
  143.1820   81.2649  223.1592 H   0  0  0  0  0  0  0  0  0  0  0  0
  143.3820   78.9359  222.3672 H   0  0  0  0  0  0  0  0  0  0  0  0
  1  2  2  0
  2  3  1  0
  3  4  1  0
  4  5  1  0
  5  6  2  0
  5  7  1  0
  7  8  1  0
  8  9  1  0
  9 10  1  0
 10 11  1  0
 10 12  1  0
 12 13  1  0
 13 14  2  0
 14 15  1  0
 15 16  2  0
 16 17  1  0
 16 18  1  0
 18 19  2  0
  2 20  1  0
 20 21  2  0
 21 22  1  0
 22 23  2  0
 23 24  1  0
 24 25  2  0
 25 26  1  0
 26 27  2  0
 27 28  1  0
 28 29  2  0
 12  7  1  0
 19 13  1  0
 29 20  1  0
 28 23  1  0
  3 30  1  0
  4 31  1  0
  4 32  1  0
  8 33  1  0
  8 34  1  0
  9 35  1  0
  9 36  1  0
 10 37  1  6
 11 38  1  0
 12 39  1  1
 14 40  1  0
 15 41  1  0
 18 42  1  0
 19 43  1  0
 21 44  1  0
 22 45  1  0
 24 46  1  0
 25 47  1  0
 26 48  1  0
 27 49  1  0
M  END
>  <smiles>  (34) 
O=C(NCC(=O)N1CC[C@H](O)[C@H]1c1ccc(Cl)cc1)c1ccc2ccccc2n1

>  <score_type>  (34) 
oracle

>  <origin>  (34) 
autodockgpu

>  <m_score__min__energy>  (34) 
-8.9399999999999995

>  <m_primary>  (34) 
energy

>  <rmsd>  (34) 
7.540050723153978

>  <m_score__min__rmsd>  (34) 
7.540050723153978

>  <meeko>  (34) 
{"free_energy": -7.95, "intermolecular_energy": -9.74, "internal_energy": -2.05, "cluster_size": 16, "cluster_id": 7, "rank_in_cluster": 10}

>  <energy>  (34) 
-7.98

>  <cluster_rmsd>  (34) 
1.07

>  <cluster>  (34) 
6

$$$$

     RDKit          3D

 49 52  0  0  0  0  0  0  0  0999 V2000
  141.0610   71.5850  221.4520 O   0  0  0  0  0  0  0  0  0  0  0  0
  140.4730   72.0260  222.4720 C   0  0  0  0  0  0  0  0  0  0  0  0
  140.0160   73.3780  222.4030 N   0  0  0  0  0  0  0  0  0  0  0  0
  140.2690   74.1010  221.1850 C   0  0  0  0  0  0  0  0  0  0  0  0
  140.4660   75.5530  221.4740 C   0  0  0  0  0  0  0  0  0  0  0  0
  139.9460   76.0040  222.5460 O   0  0  0  0  0  0  0  0  0  0  0  0
  141.1990   76.3850  220.5940 N   0  0  0  0  0  0  0  0  0  0  0  0
  141.6410   75.9790  219.2510 C   0  0  0  0  0  0  0  0  0  0  0  0
  142.4180   77.1620  218.7200 C   0  0  0  0  0  0  0  0  0  0  0  0
  141.6980   78.3080  219.4450 C   0  0  2  0  0  0  0  0  0  0  0  0
  142.4250   79.4910  219.3890 O   0  0  0  0  0  0  0  0  0  0  0  0
  141.6270   77.7250  220.8410 C   0  0  1  0  0  0  0  0  0  0  0  0
  140.7060   78.4870  221.7150 C   0  0  0  0  0  0  0  0  0  0  0  0
  139.4150   78.8190  221.3590 C   0  0  0  0  0  0  0  0  0  0  0  0
  138.6370   79.5310  222.2480 C   0  0  0  0  0  0  0  0  0  0  0  0
  139.0990   79.9300  223.4950 C   0  0  0  0  0  0  0  0  0  0  0  0
  138.0650   80.8340  224.5860 Cl  0  0  0  0  0  0  0  0  0  0  0  0
  140.3940   79.5920  223.8420 C   0  0  0  0  0  0  0  0  0  0  0  0
  141.1770   78.8810  222.9580 C   0  0  0  0  0  0  0  0  0  0  0  0
  140.2550   71.2260  223.6740 C   0  0  0  0  0  0  0  0  0  0  0  0
  139.5840   70.0300  223.5210 C   0  0  0  0  0  0  0  0  0  0  0  0
  139.3180   69.1830  224.5950 C   0  0  0  0  0  0  0  0  0  0  0  0
  139.7620   69.5960  225.8370 C   0  0  0  0  0  0  0  0  0  0  0  0
  139.5060   68.7660  226.9140 C   0  0  0  0  0  0  0  0  0  0  0  0
  139.9380   69.1500  228.1750 C   0  0  0  0  0  0  0  0  0  0  0  0
  140.6150   70.3560  228.3280 C   0  0  0  0  0  0  0  0  0  0  0  0
  140.8470   71.1520  227.2220 C   0  0  0  0  0  0  0  0  0  0  0  0
  140.4240   70.7890  225.9460 C   0  0  0  0  0  0  0  0  0  0  0  0
  140.6760   71.6030  224.8930 N   0  0  0  0  0  0  0  0  0  0  0  0
  139.5190   73.7980  223.2250 H   0  0  0  0  0  0  0  0  0  0  0  0
  141.1750   73.7002  220.7069 H   0  0  0  0  0  0  0  0  0  0  0  0
  139.4051   73.9842  220.5142 H   0  0  0  0  0  0  0  0  0  0  0  0
  142.2842   75.0885  219.3085 H   0  0  0  0  0  0  0  0  0  0  0  0
  140.7946   75.7149  218.5999 H   0  0  0  0  0  0  0  0  0  0  0  0
  143.4811   77.1087  218.9973 H   0  0  0  0  0  0  0  0  0  0  0  0
  142.4348   77.2482  217.6235 H   0  0  0  0  0  0  0  0  0  0  0  0
  140.7239   78.5966  219.0233 H   0  0  0  0  0  0  0  0  0  0  0  0
  142.8230   79.6200  220.3070 H   0  0  0  0  0  0  0  0  0  0  0  0
  142.5792   77.7671  221.3901 H   0  0  0  0  0  0  0  0  0  0  0  0
  139.0119   78.5201  220.3801 H   0  0  0  0  0  0  0  0  0  0  0  0
  137.6090   79.7933  221.9573 H   0  0  0  0  0  0  0  0  0  0  0  0
  140.7983   79.8896  224.8207 H   0  0  0  0  0  0  0  0  0  0  0  0
  142.2054   78.6186  223.2472 H   0  0  0  0  0  0  0  0  0  0  0  0
  139.2474   69.7349  222.5162 H   0  0  0  0  0  0  0  0  0  0  0  0
  138.7810   68.2324  224.4609 H   0  0  0  0  0  0  0  0  0  0  0  0
  138.9685   67.8168  226.7725 H   0  0  0  0  0  0  0  0  0  0  0  0
  139.7470   68.5066  229.0466 H   0  0  0  0  0  0  0  0  0  0  0  0
  140.9631   70.6737  229.3220 H   0  0  0  0  0  0  0  0  0  0  0  0
  141.3833   72.1033  227.3542 H   0  0  0  0  0  0  0  0  0  0  0  0
  1  2  2  0
  2  3  1  0
  3  4  1  0
  4  5  1  0
  5  6  2  0
  5  7  1  0
  7  8  1  0
  8  9  1  0
  9 10  1  0
 10 11  1  0
 10 12  1  0
 12 13  1  0
 13 14  2  0
 14 15  1  0
 15 16  2  0
 16 17  1  0
 16 18  1  0
 18 19  2  0
  2 20  1  0
 20 21  2  0
 21 22  1  0
 22 23  2  0
 23 24  1  0
 24 25  2  0
 25 26  1  0
 26 27  2  0
 27 28  1  0
 28 29  2  0
 12  7  1  0
 19 13  1  0
 29 20  1  0
 28 23  1  0
  3 30  1  0
  4 31  1  0
  4 32  1  0
  8 33  1  0
  8 34  1  0
  9 35  1  0
  9 36  1  0
 10 37  1  6
 11 38  1  0
 12 39  1  1
 14 40  1  0
 15 41  1  0
 18 42  1  0
 19 43  1  0
 21 44  1  0
 22 45  1  0
 24 46  1  0
 25 47  1  0
 26 48  1  0
 27 49  1  0
M  END
>  <smiles>  (35) 
O=C(NCC(=O)N1CC[C@H](O)[C@H]1c1ccc(Cl)cc1)c1ccc2ccccc2n1

>  <score_type>  (35) 
oracle

>  <origin>  (35) 
autodockgpu

>  <m_score__min__energy>  (35) 
-8.9399999999999995

>  <m_primary>  (35) 
energy

>  <rmsd>  (35) 
2.316132280231707

>  <m_score__min__rmsd>  (35) 
2.316132280231707

>  <meeko>  (35) 
{"free_energy": -8.53, "intermolecular_energy": -10.32, "internal_energy": -1.63, "cluster_size": 14, "cluster_id": 2, "rank_in_cluster": 10}

>  <energy>  (35) 
-8.07

>  <cluster_rmsd>  (35) 
0.0

>  <cluster>  (35) 
7

$$$$

     RDKit          3D

 49 52  0  0  0  0  0  0  0  0999 V2000
  140.8430   72.0920  221.0900 O   0  0  0  0  0  0  0  0  0  0  0  0
  140.3680   72.5020  222.1790 C   0  0  0  0  0  0  0  0  0  0  0  0
  139.9750   73.8750  222.2200 N   0  0  0  0  0  0  0  0  0  0  0  0
  140.1580   74.6510  221.0220 C   0  0  0  0  0  0  0  0  0  0  0  0
  140.8410   75.9420  221.3390 C   0  0  0  0  0  0  0  0  0  0  0  0
  141.0510   76.1970  222.5700 O   0  0  0  0  0  0  0  0  0  0  0  0
  141.2350   76.8360  220.3140 N   0  0  0  0  0  0  0  0  0  0  0  0
  141.0230   78.2900  220.3620 C   0  0  0  0  0  0  0  0  0  0  0  0
  141.5540   78.8080  219.0440 C   0  0  0  0  0  0  0  0  0  0  0  0
  142.6480   77.7680  218.7660 C   0  0  2  0  0  0  0  0  0  0  0  0
  143.0820   77.8170  217.4460 O   0  0  0  0  0  0  0  0  0  0  0  0
  141.8880   76.4990  219.0900 C   0  0  1  0  0  0  0  0  0  0  0  0
  142.7850   75.3260  219.2030 C   0  0  0  0  0  0  0  0  0  0  0  0
  142.6050   74.1550  218.4960 C   0  0  0  0  0  0  0  0  0  0  0  0
  143.5000   73.1210  218.6720 C   0  0  0  0  0  0  0  0  0  0  0  0
  144.5830   73.2080  219.5380 C   0  0  0  0  0  0  0  0  0  0  0  0
  145.6900   71.8600  219.7230 Cl  0  0  0  0  0  0  0  0  0  0  0  0
  144.7540   74.3850  220.2410 C   0  0  0  0  0  0  0  0  0  0  0  0
  143.8630   75.4230  220.0690 C   0  0  0  0  0  0  0  0  0  0  0  0
  140.2160   71.6470  223.3530 C   0  0  0  0  0  0  0  0  0  0  0  0
  139.5460   70.4540  223.1800 C   0  0  0  0  0  0  0  0  0  0  0  0
  139.3390   69.5580  224.2270 C   0  0  0  0  0  0  0  0  0  0  0  0
  139.8400   69.9190  225.4620 C   0  0  0  0  0  0  0  0  0  0  0  0
  139.6440   69.0400  226.5130 C   0  0  0  0  0  0  0  0  0  0  0  0
  140.1340   69.3720  227.7670 C   0  0  0  0  0  0  0  0  0  0  0  0
  140.8100   70.5760  227.9410 C   0  0  0  0  0  0  0  0  0  0  0  0
  140.9820   71.4220  226.8610 C   0  0  0  0  0  0  0  0  0  0  0  0
  140.5000   71.1120  225.5920 C   0  0  0  0  0  0  0  0  0  0  0  0
  140.6930   71.9740  224.5660 N   0  0  0  0  0  0  0  0  0  0  0  0
  139.5730   74.2710  223.1020 H   0  0  0  0  0  0  0  0  0  0  0  0
  140.7730   74.0804  220.3105 H   0  0  0  0  0  0  0  0  0  0  0  0
  139.1733   74.8661  220.5813 H   0  0  0  0  0  0  0  0  0  0  0  0
  139.9525   78.5212  220.4650 H   0  0  0  0  0  0  0  0  0  0  0  0
  141.5298   78.7528  221.2216 H   0  0  0  0  0  0  0  0  0  0  0  0
  140.7797   78.8040  218.2627 H   0  0  0  0  0  0  0  0  0  0  0  0
  141.9027   79.8511  219.0643 H   0  0  0  0  0  0  0  0  0  0  0  0
  143.5789   77.8971  219.3377 H   0  0  0  0  0  0  0  0  0  0  0  0
  143.6910   78.6190  217.3800 H   0  0  0  0  0  0  0  0  0  0  0  0
  141.1799   76.1918  218.3062 H   0  0  0  0  0  0  0  0  0  0  0  0
  141.7589   74.0477  217.8013 H   0  0  0  0  0  0  0  0  0  0  0  0
  143.3507   72.1906  218.1045 H   0  0  0  0  0  0  0  0  0  0  0  0
  145.5993   74.4937  220.9365 H   0  0  0  0  0  0  0  0  0  0  0  0
  144.0118   76.3544  220.6350 H   0  0  0  0  0  0  0  0  0  0  0  0
  139.1617   70.2010  222.1809 H   0  0  0  0  0  0  0  0  0  0  0  0
  138.8027   68.6094  224.0769 H   0  0  0  0  0  0  0  0  0  0  0  0
  139.1077   68.0925  226.3559 H   0  0  0  0  0  0  0  0  0  0  0  0
  139.9896   68.6893  228.6173 H   0  0  0  0  0  0  0  0  0  0  0  0
  141.2044   70.8524  228.9300 H   0  0  0  0  0  0  0  0  0  0  0  0
  141.5174   72.3714  227.0092 H   0  0  0  0  0  0  0  0  0  0  0  0
  1  2  2  0
  2  3  1  0
  3  4  1  0
  4  5  1  0
  5  6  2  0
  5  7  1  0
  7  8  1  0
  8  9  1  0
  9 10  1  0
 10 11  1  0
 10 12  1  0
 12 13  1  0
 13 14  2  0
 14 15  1  0
 15 16  2  0
 16 17  1  0
 16 18  1  0
 18 19  2  0
  2 20  1  0
 20 21  2  0
 21 22  1  0
 22 23  2  0
 23 24  1  0
 24 25  2  0
 25 26  1  0
 26 27  2  0
 27 28  1  0
 28 29  2  0
 12  7  1  0
 19 13  1  0
 29 20  1  0
 28 23  1  0
  3 30  1  0
  4 31  1  0
  4 32  1  0
  8 33  1  0
  8 34  1  0
  9 35  1  0
  9 36  1  0
 10 37  1  1
 11 38  1  0
 12 39  1  6
 14 40  1  0
 15 41  1  0
 18 42  1  0
 19 43  1  0
 21 44  1  0
 22 45  1  0
 24 46  1  0
 25 47  1  0
 26 48  1  0
 27 49  1  0
M  END
>  <smiles>  (36) 
O=C(NCC(=O)N1CC[C@H](O)[C@H]1c1ccc(Cl)cc1)c1ccc2ccccc2n1

>  <score_type>  (36) 
oracle

>  <origin>  (36) 
autodockgpu

>  <m_score__min__energy>  (36) 
-8.9399999999999995

>  <m_primary>  (36) 
energy

>  <rmsd>  (36) 
2.3922033397530678

>  <m_score__min__rmsd>  (36) 
2.3922033397530678

>  <meeko>  (36) 
{"free_energy": -8.2, "intermolecular_energy": -9.99, "internal_energy": -1.92, "cluster_size": 7, "cluster_id": 6, "rank_in_cluster": 4}

>  <energy>  (36) 
-8.06

>  <cluster_rmsd>  (36) 
0.07

>  <cluster>  (36) 
7

$$$$

     RDKit          3D

 49 52  0  0  0  0  0  0  0  0999 V2000
  141.2600   72.3950  221.2060 O   0  0  0  0  0  0  0  0  0  0  0  0
  140.4440   72.6570  222.1260 C   0  0  0  0  0  0  0  0  0  0  0  0
  139.6940   73.8640  221.9810 N   0  0  0  0  0  0  0  0  0  0  0  0
  139.9400   74.6590  220.8070 C   0  0  0  0  0  0  0  0  0  0  0  0
  140.7970   75.8340  221.1460 C   0  0  0  0  0  0  0  0  0  0  0  0
  141.1460   75.9620  222.3650 O   0  0  0  0  0  0  0  0  0  0  0  0
  141.2010   76.7600  220.1540 N   0  0  0  0  0  0  0  0  0  0  0  0
  140.9210   78.2030  220.2100 C   0  0  0  0  0  0  0  0  0  0  0  0
  141.4930   78.7630  218.9270 C   0  0  0  0  0  0  0  0  0  0  0  0
  142.6460   77.7770  218.6910 C   0  0  2  0  0  0  0  0  0  0  0  0
  143.1430   77.8650  217.3950 O   0  0  0  0  0  0  0  0  0  0  0  0
  141.9290   76.4710  218.9600 C   0  0  1  0  0  0  0  0  0  0  0  0
  142.8720   75.3380  219.1040 C   0  0  0  0  0  0  0  0  0  0  0  0
  142.7780   74.1690  218.3760 C   0  0  0  0  0  0  0  0  0  0  0  0
  143.7100   73.1740  218.5850 C   0  0  0  0  0  0  0  0  0  0  0  0
  144.7450   73.2970  219.5020 C   0  0  0  0  0  0  0  0  0  0  0  0
  145.9020   71.9990  219.7260 Cl  0  0  0  0  0  0  0  0  0  0  0  0
  144.8300   74.4730  220.2250 C   0  0  0  0  0  0  0  0  0  0  0  0
  143.9020   75.4720  220.0220 C   0  0  0  0  0  0  0  0  0  0  0  0
  140.2530   71.7950  223.2900 C   0  0  0  0  0  0  0  0  0  0  0  0
  139.5350   70.6330  223.1010 C   0  0  0  0  0  0  0  0  0  0  0  0
  139.2890   69.7340  224.1370 C   0  0  0  0  0  0  0  0  0  0  0  0
  139.8020   70.0590  225.3770 C   0  0  0  0  0  0  0  0  0  0  0  0
  139.5670   69.1760  226.4170 C   0  0  0  0  0  0  0  0  0  0  0  0
  140.0680   69.4730  227.6760 C   0  0  0  0  0  0  0  0  0  0  0  0
  140.7930   70.6450  227.8650 C   0  0  0  0  0  0  0  0  0  0  0  0
  141.0020   71.4960  226.7960 C   0  0  0  0  0  0  0  0  0  0  0  0
  140.5100   71.2220  225.5230 C   0  0  0  0  0  0  0  0  0  0  0  0
  140.7410   72.0870  224.5070 N   0  0  0  0  0  0  0  0  0  0  0  0
  139.0000   74.1320  222.7190 H   0  0  0  0  0  0  0  0  0  0  0  0
  140.4510   74.0430  220.0524 H   0  0  0  0  0  0  0  0  0  0  0  0
  138.9789   75.0197  220.4117 H   0  0  0  0  0  0  0  0  0  0  0  0
  139.8374   78.3848  220.2619 H   0  0  0  0  0  0  0  0  0  0  0  0
  141.3626   78.6753  221.0999 H   0  0  0  0  0  0  0  0  0  0  0  0
  140.7594   78.7358  218.1078 H   0  0  0  0  0  0  0  0  0  0  0  0
  141.7928   79.8201  218.9780 H   0  0  0  0  0  0  0  0  0  0  0  0
  143.5405   77.9391  219.3103 H   0  0  0  0  0  0  0  0  0  0  0  0
  143.7030   78.7040  217.3660 H   0  0  0  0  0  0  0  0  0  0  0  0
  141.2755   76.1445  218.1376 H   0  0  0  0  0  0  0  0  0  0  0  0
  141.9718   74.0330  217.6401 H   0  0  0  0  0  0  0  0  0  0  0  0
  143.6300   72.2451  218.0013 H   0  0  0  0  0  0  0  0  0  0  0  0
  145.6363   74.6109  220.9604 H   0  0  0  0  0  0  0  0  0  0  0  0
  143.9811   76.4016  220.6048 H   0  0  0  0  0  0  0  0  0  0  0  0
  139.1430   70.4080  222.0981 H   0  0  0  0  0  0  0  0  0  0  0  0
  138.7141   68.8104  223.9747 H   0  0  0  0  0  0  0  0  0  0  0  0
  138.9922   68.2536  226.2477 H   0  0  0  0  0  0  0  0  0  0  0  0
  139.8933   68.7872  228.5181 H   0  0  0  0  0  0  0  0  0  0  0  0
  141.1970   70.8927  228.8577 H   0  0  0  0  0  0  0  0  0  0  0  0
  141.5762   72.4204  226.9566 H   0  0  0  0  0  0  0  0  0  0  0  0
  1  2  2  0
  2  3  1  0
  3  4  1  0
  4  5  1  0
  5  6  2  0
  5  7  1  0
  7  8  1  0
  8  9  1  0
  9 10  1  0
 10 11  1  0
 10 12  1  0
 12 13  1  0
 13 14  2  0
 14 15  1  0
 15 16  2  0
 16 17  1  0
 16 18  1  0
 18 19  2  0
  2 20  1  0
 20 21  2  0
 21 22  1  0
 22 23  2  0
 23 24  1  0
 24 25  2  0
 25 26  1  0
 26 27  2  0
 27 28  1  0
 28 29  2  0
 12  7  1  0
 19 13  1  0
 29 20  1  0
 28 23  1  0
  3 30  1  0
  4 31  1  0
  4 32  1  0
  8 33  1  0
  8 34  1  0
  9 35  1  0
  9 36  1  0
 10 37  1  1
 11 38  1  0
 12 39  1  6
 14 40  1  0
 15 41  1  0
 18 42  1  0
 19 43  1  0
 21 44  1  0
 22 45  1  0
 24 46  1  0
 25 47  1  0
 26 48  1  0
 27 49  1  0
M  END
>  <smiles>  (37) 
O=C(NCC(=O)N1CC[C@H](O)[C@H]1c1ccc(Cl)cc1)c1ccc2ccccc2n1

>  <score_type>  (37) 
oracle

>  <origin>  (37) 
autodockgpu

>  <m_score__min__energy>  (37) 
-8.9399999999999995

>  <m_primary>  (37) 
energy

>  <rmsd>  (37) 
2.37056379300565

>  <m_score__min__rmsd>  (37) 
2.37056379300565

>  <meeko>  (37) 
{"free_energy": -8.2, "intermolecular_energy": -9.99, "internal_energy": -1.75, "cluster_size": 7, "cluster_id": 6, "rank_in_cluster": 3}

>  <energy>  (37) 
-8.03

>  <cluster_rmsd>  (37) 
0.07

>  <cluster>  (37) 
7

$$$$

     RDKit          3D

 49 52  0  0  0  0  0  0  0  0999 V2000
  140.8720   72.0770  221.1040 O   0  0  0  0  0  0  0  0  0  0  0  0
  140.3810   72.4880  222.1860 C   0  0  0  0  0  0  0  0  0  0  0  0
  139.9780   73.8570  222.2160 N   0  0  0  0  0  0  0  0  0  0  0  0
  140.1690   74.6310  221.0180 C   0  0  0  0  0  0  0  0  0  0  0  0
  140.7950   75.9480  221.3440 C   0  0  0  0  0  0  0  0  0  0  0  0
  140.9510   76.2220  222.5780 O   0  0  0  0  0  0  0  0  0  0  0  0
  141.1920   76.8450  220.3240 N   0  0  0  0  0  0  0  0  0  0  0  0
  140.9800   78.2990  220.3750 C   0  0  0  0  0  0  0  0  0  0  0  0
  141.5160   78.8210  219.0610 C   0  0  0  0  0  0  0  0  0  0  0  0
  142.6120   77.7820  218.7840 C   0  0  2  0  0  0  0  0  0  0  0  0
  143.0520   77.8350  217.4660 O   0  0  0  0  0  0  0  0  0  0  0  0
  141.8500   76.5120  219.1010 C   0  0  1  0  0  0  0  0  0  0  0  0
  142.7480   75.3400  219.2140 C   0  0  0  0  0  0  0  0  0  0  0  0
  142.5580   74.1630  218.5180 C   0  0  0  0  0  0  0  0  0  0  0  0
  143.4540   73.1290  218.6940 C   0  0  0  0  0  0  0  0  0  0  0  0
  144.5470   73.2210  219.5470 C   0  0  0  0  0  0  0  0  0  0  0  0
  145.6540   71.8740  219.7320 Cl  0  0  0  0  0  0  0  0  0  0  0  0
  144.7260   74.4050  220.2400 C   0  0  0  0  0  0  0  0  0  0  0  0
  143.8350   75.4420  220.0680 C   0  0  0  0  0  0  0  0  0  0  0  0
  140.2210   71.6360  223.3610 C   0  0  0  0  0  0  0  0  0  0  0  0
  139.5550   70.4410  223.1860 C   0  0  0  0  0  0  0  0  0  0  0  0
  139.3410   69.5480  224.2340 C   0  0  0  0  0  0  0  0  0  0  0  0
  139.8320   69.9140  225.4730 C   0  0  0  0  0  0  0  0  0  0  0  0
  139.6290   69.0380  226.5250 C   0  0  0  0  0  0  0  0  0  0  0  0
  140.1090   69.3750  227.7820 C   0  0  0  0  0  0  0  0  0  0  0  0
  140.7810   70.5800  227.9570 C   0  0  0  0  0  0  0  0  0  0  0  0
  140.9600   71.4230  226.8760 C   0  0  0  0  0  0  0  0  0  0  0  0
  140.4880   71.1090  225.6040 C   0  0  0  0  0  0  0  0  0  0  0  0
  140.6880   71.9680  224.5770 N   0  0  0  0  0  0  0  0  0  0  0  0
  139.5620   74.2540  223.0920 H   0  0  0  0  0  0  0  0  0  0  0  0
  140.8252   74.0780  220.3298 H   0  0  0  0  0  0  0  0  0  0  0  0
  139.1907   74.8074  220.5470 H   0  0  0  0  0  0  0  0  0  0  0  0
  139.9091   78.5300  220.4744 H   0  0  0  0  0  0  0  0  0  0  0  0
  141.4837   78.7592  221.2378 H   0  0  0  0  0  0  0  0  0  0  0  0
  140.7448   78.8190  218.2766 H   0  0  0  0  0  0  0  0  0  0  0  0
  141.8642   79.8641  219.0860 H   0  0  0  0  0  0  0  0  0  0  0  0
  143.5407   77.9096  219.3596 H   0  0  0  0  0  0  0  0  0  0  0  0
  143.6760   78.6260  217.4100 H   0  0  0  0  0  0  0  0  0  0  0  0
  141.1443   76.2072  218.3142 H   0  0  0  0  0  0  0  0  0  0  0  0
  141.7046   74.0513  217.8331 H   0  0  0  0  0  0  0  0  0  0  0  0
  143.2968   72.1938  218.1365 H   0  0  0  0  0  0  0  0  0  0  0  0
  145.5777   74.5183  220.9268 H   0  0  0  0  0  0  0  0  0  0  0  0
  143.9909   76.3779  220.6245 H   0  0  0  0  0  0  0  0  0  0  0  0
  139.1798   70.1840  222.1844 H   0  0  0  0  0  0  0  0  0  0  0  0
  138.8074   68.5981  224.0826 H   0  0  0  0  0  0  0  0  0  0  0  0
  139.0953   68.0892  226.3668 H   0  0  0  0  0  0  0  0  0  0  0  0
  139.9594   68.6948  228.6334 H   0  0  0  0  0  0  0  0  0  0  0  0
  141.1672   70.8602  228.9481 H   0  0  0  0  0  0  0  0  0  0  0  0
  141.4931   72.3735  227.0256 H   0  0  0  0  0  0  0  0  0  0  0  0
  1  2  2  0
  2  3  1  0
  3  4  1  0
  4  5  1  0
  5  6  2  0
  5  7  1  0
  7  8  1  0
  8  9  1  0
  9 10  1  0
 10 11  1  0
 10 12  1  0
 12 13  1  0
 13 14  2  0
 14 15  1  0
 15 16  2  0
 16 17  1  0
 16 18  1  0
 18 19  2  0
  2 20  1  0
 20 21  2  0
 21 22  1  0
 22 23  2  0
 23 24  1  0
 24 25  2  0
 25 26  1  0
 26 27  2  0
 27 28  1  0
 28 29  2  0
 12  7  1  0
 19 13  1  0
 29 20  1  0
 28 23  1  0
  3 30  1  0
  4 31  1  0
  4 32  1  0
  8 33  1  0
  8 34  1  0
  9 35  1  0
  9 36  1  0
 10 37  1  1
 11 38  1  0
 12 39  1  6
 14 40  1  0
 15 41  1  0
 18 42  1  0
 19 43  1  0
 21 44  1  0
 22 45  1  0
 24 46  1  0
 25 47  1  0
 26 48  1  0
 27 49  1  0
M  END
>  <smiles>  (38) 
O=C(NCC(=O)N1CC[C@H](O)[C@H]1c1ccc(Cl)cc1)c1ccc2ccccc2n1

>  <score_type>  (38) 
oracle

>  <origin>  (38) 
autodockgpu

>  <m_score__min__energy>  (38) 
-8.9399999999999995

>  <m_primary>  (38) 
energy

>  <rmsd>  (38) 
2.3909454437727375

>  <m_score__min__rmsd>  (38) 
2.3909454437727375

>  <meeko>  (38) 
{"free_energy": -8.21, "intermolecular_energy": -10.0, "internal_energy": -1.94, "cluster_size": 7, "cluster_id": 6, "rank_in_cluster": 2}

>  <energy>  (38) 
-7.98

>  <cluster_rmsd>  (38) 
0.97

>  <cluster>  (38) 
7

$$$$

     RDKit          3D

 49 52  0  0  0  0  0  0  0  0999 V2000
  141.1110   71.6020  221.4380 O   0  0  0  0  0  0  0  0  0  0  0  0
  140.5260   72.0530  222.4560 C   0  0  0  0  0  0  0  0  0  0  0  0
  140.0640   73.4020  222.3740 N   0  0  0  0  0  0  0  0  0  0  0  0
  140.3100   74.1120  221.1460 C   0  0  0  0  0  0  0  0  0  0  0  0
  140.4760   75.5730  221.4150 C   0  0  0  0  0  0  0  0  0  0  0  0
  139.9600   76.0240  222.4900 O   0  0  0  0  0  0  0  0  0  0  0  0
  141.1740   76.4120  220.5140 N   0  0  0  0  0  0  0  0  0  0  0  0
  141.4990   76.0440  219.1280 C   0  0  0  0  0  0  0  0  0  0  0  0
  142.2820   77.2180  218.5840 C   0  0  0  0  0  0  0  0  0  0  0  0
  141.6640   78.3590  219.4040 C   0  0  2  0  0  0  0  0  0  0  0  0
  142.4310   79.5160  219.3370 O   0  0  0  0  0  0  0  0  0  0  0  0
  141.6730   77.7240  220.7780 C   0  0  1  0  0  0  0  0  0  0  0  0
  140.8490   78.4830  221.7470 C   0  0  0  0  0  0  0  0  0  0  0  0
  141.2810   78.8270  223.0120 C   0  0  0  0  0  0  0  0  0  0  0  0
  140.4360   79.5380  223.8380 C   0  0  0  0  0  0  0  0  0  0  0  0
  139.1600   79.9250  223.4500 C   0  0  0  0  0  0  0  0  0  0  0  0
  138.1280   80.8280  224.5430 Cl  0  0  0  0  0  0  0  0  0  0  0  0
  138.7370   79.5750  222.1810 C   0  0  0  0  0  0  0  0  0  0  0  0
  139.5770   78.8650  221.3500 C   0  0  0  0  0  0  0  0  0  0  0  0
  140.3160   71.2650  223.6670 C   0  0  0  0  0  0  0  0  0  0  0  0
  139.6760   70.0510  223.5250 C   0  0  0  0  0  0  0  0  0  0  0  0
  139.4200   69.2140  224.6090 C   0  0  0  0  0  0  0  0  0  0  0  0
  139.8410   69.6560  225.8490 C   0  0  0  0  0  0  0  0  0  0  0  0
  139.5940   68.8350  226.9370 C   0  0  0  0  0  0  0  0  0  0  0  0
  140.0030   69.2490  228.1950 C   0  0  0  0  0  0  0  0  0  0  0  0
  140.6490   70.4740  228.3370 C   0  0  0  0  0  0  0  0  0  0  0  0
  140.8720   71.2580  227.2210 C   0  0  0  0  0  0  0  0  0  0  0  0
  140.4720   70.8670  225.9470 C   0  0  0  0  0  0  0  0  0  0  0  0
  140.7140   71.6710  224.8850 N   0  0  0  0  0  0  0  0  0  0  0  0
  139.5700   73.8300  223.1920 H   0  0  0  0  0  0  0  0  0  0  0  0
  141.2268   73.7226  220.6793 H   0  0  0  0  0  0  0  0  0  0  0  0
  139.4529   73.9677  220.4717 H   0  0  0  0  0  0  0  0  0  0  0  0
  142.1083   75.1285  219.1039 H   0  0  0  0  0  0  0  0  0  0  0  0
  140.5970   75.8380  218.5331 H   0  0  0  0  0  0  0  0  0  0  0  0
  143.3598   77.1141  218.7780 H   0  0  0  0  0  0  0  0  0  0  0  0
  142.2214   77.3478  217.4934 H   0  0  0  0  0  0  0  0  0  0  0  0
  140.6734   78.6997  219.0685 H   0  0  0  0  0  0  0  0  0  0  0  0
  142.9030   79.5920  220.2260 H   0  0  0  0  0  0  0  0  0  0  0  0
  142.6643   77.7095  221.2547 H   0  0  0  0  0  0  0  0  0  0  0  0
  142.2850   78.5381  223.3564 H   0  0  0  0  0  0  0  0  0  0  0  0
  140.7868   79.8095  224.8446 H   0  0  0  0  0  0  0  0  0  0  0  0
  137.7330   79.8623  221.8355 H   0  0  0  0  0  0  0  0  0  0  0  0
  139.2278   78.5937  220.3428 H   0  0  0  0  0  0  0  0  0  0  0  0
  139.3569   69.7330  222.5215 H   0  0  0  0  0  0  0  0  0  0  0  0
  138.9078   68.2486  224.4840 H   0  0  0  0  0  0  0  0  0  0  0  0
  139.0818   67.8705  226.8048 H   0  0  0  0  0  0  0  0  0  0  0  0
  139.8186   68.6145  229.0744 H   0  0  0  0  0  0  0  0  0  0  0  0
  140.9792   70.8151  229.3293 H   0  0  0  0  0  0  0  0  0  0  0  0
  141.3832   72.2242  227.3441 H   0  0  0  0  0  0  0  0  0  0  0  0
  1  2  2  0
  2  3  1  0
  3  4  1  0
  4  5  1  0
  5  6  2  0
  5  7  1  0
  7  8  1  0
  8  9  1  0
  9 10  1  0
 10 11  1  0
 10 12  1  0
 12 13  1  0
 13 14  2  0
 14 15  1  0
 15 16  2  0
 16 17  1  0
 16 18  1  0
 18 19  2  0
  2 20  1  0
 20 21  2  0
 21 22  1  0
 22 23  2  0
 23 24  1  0
 24 25  2  0
 25 26  1  0
 26 27  2  0
 27 28  1  0
 28 29  2  0
 12  7  1  0
 19 13  1  0
 29 20  1  0
 28 23  1  0
  3 30  1  0
  4 31  1  0
  4 32  1  0
  8 33  1  0
  8 34  1  0
  9 35  1  0
  9 36  1  0
 10 37  1  6
 11 38  1  0
 12 39  1  1
 14 40  1  0
 15 41  1  0
 18 42  1  0
 19 43  1  0
 21 44  1  0
 22 45  1  0
 24 46  1  0
 25 47  1  0
 26 48  1  0
 27 49  1  0
M  END
>  <smiles>  (39) 
O=C(NCC(=O)N1CC[C@H](O)[C@H]1c1ccc(Cl)cc1)c1ccc2ccccc2n1

>  <score_type>  (39) 
oracle

>  <origin>  (39) 
autodockgpu

>  <m_score__min__energy>  (39) 
-8.9399999999999995

>  <m_primary>  (39) 
energy

>  <rmsd>  (39) 
2.2903839842605396

>  <m_score__min__rmsd>  (39) 
2.2903839842605396

>  <meeko>  (39) 
{"free_energy": -8.53, "intermolecular_energy": -10.32, "internal_energy": -1.64, "cluster_size": 14, "cluster_id": 2, "rank_in_cluster": 11}

>  <energy>  (39) 
-7.97

>  <cluster_rmsd>  (39) 
0.98

>  <cluster>  (39) 
7

$$$$

     RDKit          3D

 49 52  0  0  0  0  0  0  0  0999 V2000
  141.0820   71.4550  221.4570 O   0  0  0  0  0  0  0  0  0  0  0  0
  140.4140   71.8810  222.4330 C   0  0  0  0  0  0  0  0  0  0  0  0
  139.8100   73.1650  222.2740 N   0  0  0  0  0  0  0  0  0  0  0  0
  140.0210   73.8450  221.0230 C   0  0  0  0  0  0  0  0  0  0  0  0
  140.6800   75.1660  221.2550 C   0  0  0  0  0  0  0  0  0  0  0  0
  140.5970   75.6540  222.4290 O   0  0  0  0  0  0  0  0  0  0  0  0
  141.3610   75.8410  220.2130 N   0  0  0  0  0  0  0  0  0  0  0  0
  141.5700   75.2840  218.8680 C   0  0  0  0  0  0  0  0  0  0  0  0
  142.3790   76.3290  218.1330 C   0  0  0  0  0  0  0  0  0  0  0  0
  141.8840   77.6000  218.8370 C   0  0  2  0  0  0  0  0  0  0  0  0
  142.7090   78.6880  218.5770 O   0  0  0  0  0  0  0  0  0  0  0  0
  141.9500   77.1400  220.2780 C   0  0  1  0  0  0  0  0  0  0  0  0
  141.2390   78.0650  221.1900 C   0  0  0  0  0  0  0  0  0  0  0  0
  141.8290   78.6620  222.2850 C   0  0  0  0  0  0  0  0  0  0  0  0
  141.0790   79.5110  223.0710 C   0  0  0  0  0  0  0  0  0  0  0  0
  139.7440   79.7920  222.8070 C   0  0  0  0  0  0  0  0  0  0  0  0
  138.8370   80.8800  223.8420 Cl  0  0  0  0  0  0  0  0  0  0  0  0
  139.1630   79.1890  221.7080 C   0  0  0  0  0  0  0  0  0  0  0  0
  139.9080   78.3400  220.9170 C   0  0  0  0  0  0  0  0  0  0  0  0
  140.2470   71.1260  223.6720 C   0  0  0  0  0  0  0  0  0  0  0  0
  139.5590   69.9340  223.5960 C   0  0  0  0  0  0  0  0  0  0  0  0
  139.3370   69.1290  224.7120 C   0  0  0  0  0  0  0  0  0  0  0  0
  139.8440   69.5820  225.9150 C   0  0  0  0  0  0  0  0  0  0  0  0
  139.6330   68.7950  227.0340 C   0  0  0  0  0  0  0  0  0  0  0  0
  140.1290   69.2200  228.2570 C   0  0  0  0  0  0  0  0  0  0  0  0
  140.8230   70.4230  228.3330 C   0  0  0  0  0  0  0  0  0  0  0  0
  141.0090   71.1760  227.1890 C   0  0  0  0  0  0  0  0  0  0  0  0
  140.5220   70.7710  225.9480 C   0  0  0  0  0  0  0  0  0  0  0  0
  140.7290   71.5440  224.8560 N   0  0  0  0  0  0  0  0  0  0  0  0
  139.2410   73.5700  223.0560 H   0  0  0  0  0  0  0  0  0  0  0  0
  140.6634   73.2274  220.3782 H   0  0  0  0  0  0  0  0  0  0  0  0
  139.0479   74.0111  220.5376 H   0  0  0  0  0  0  0  0  0  0  0  0
  142.1239   74.3353  218.9242 H   0  0  0  0  0  0  0  0  0  0  0  0
  140.6197   75.0642  218.3595 H   0  0  0  0  0  0  0  0  0  0  0  0
  143.4599   76.1803  218.2730 H   0  0  0  0  0  0  0  0  0  0  0  0
  142.2514   76.3271  217.0404 H   0  0  0  0  0  0  0  0  0  0  0  0
  140.8938   77.9602  218.5212 H   0  0  0  0  0  0  0  0  0  0  0  0
  143.6210   78.4400  218.9310 H   0  0  0  0  0  0  0  0  0  0  0  0
  142.9685   77.1197  220.6929 H   0  0  0  0  0  0  0  0  0  0  0  0
  142.8833   78.4634  222.5277 H   0  0  0  0  0  0  0  0  0  0  0  0
  141.5564   79.9846  223.9415 H   0  0  0  0  0  0  0  0  0  0  0  0
  138.1085   79.3858  221.4645 H   0  0  0  0  0  0  0  0  0  0  0  0
  139.4327   77.8676  220.0447 H   0  0  0  0  0  0  0  0  0  0  0  0
  139.1714   69.6064  222.6200 H   0  0  0  0  0  0  0  0  0  0  0  0
  138.7855   68.1801  224.6387 H   0  0  0  0  0  0  0  0  0  0  0  0
  139.0804   67.8472  226.9542 H   0  0  0  0  0  0  0  0  0  0  0  0
  139.9749   68.6108  229.1598 H   0  0  0  0  0  0  0  0  0  0  0  0
  141.2211   70.7727  229.2970 H   0  0  0  0  0  0  0  0  0  0  0  0
  141.5593   72.1258  227.2606 H   0  0  0  0  0  0  0  0  0  0  0  0
  1  2  2  0
  2  3  1  0
  3  4  1  0
  4  5  1  0
  5  6  2  0
  5  7  1  0
  7  8  1  0
  8  9  1  0
  9 10  1  0
 10 11  1  0
 10 12  1  0
 12 13  1  0
 13 14  2  0
 14 15  1  0
 15 16  2  0
 16 17  1  0
 16 18  1  0
 18 19  2  0
  2 20  1  0
 20 21  2  0
 21 22  1  0
 22 23  2  0
 23 24  1  0
 24 25  2  0
 25 26  1  0
 26 27  2  0
 27 28  1  0
 28 29  2  0
 12  7  1  0
 19 13  1  0
 29 20  1  0
 28 23  1  0
  3 30  1  0
  4 31  1  0
  4 32  1  0
  8 33  1  0
  8 34  1  0
  9 35  1  0
  9 36  1  0
 10 37  1  6
 11 38  1  0
 12 39  1  1
 14 40  1  0
 15 41  1  0
 18 42  1  0
 19 43  1  0
 21 44  1  0
 22 45  1  0
 24 46  1  0
 25 47  1  0
 26 48  1  0
 27 49  1  0
M  END
>  <smiles>  (40) 
O=C(NCC(=O)N1CC[C@H](O)[C@H]1c1ccc(Cl)cc1)c1ccc2ccccc2n1

>  <score_type>  (40) 
oracle

>  <origin>  (40) 
autodockgpu

>  <m_score__min__energy>  (40) 
-8.9399999999999995

>  <m_primary>  (40) 
energy

>  <rmsd>  (40) 
1.9287680840660864

>  <m_score__min__rmsd>  (40) 
1.9287680840660864

>  <meeko>  (40) 
{"free_energy": -8.56, "intermolecular_energy": -10.35, "internal_energy": -1.47, "cluster_size": 14, "cluster_id": 2, "rank_in_cluster": 9}

>  <energy>  (40) 
-7.97

>  <cluster_rmsd>  (40) 
0.11

>  <cluster>  (40) 
7

$$$$

     RDKit          3D

 49 52  0  0  0  0  0  0  0  0999 V2000
  138.9530   74.9470  221.8080 O   0  0  0  0  0  0  0  0  0  0  0  0
  140.0710   75.5010  221.9630 C   0  0  0  0  0  0  0  0  0  0  0  0
  141.2180   74.6720  221.7680 N   0  0  0  0  0  0  0  0  0  0  0  0
  140.9890   73.2960  221.4160 C   0  0  0  0  0  0  0  0  0  0  0  0
  141.5460   73.0070  220.0600 C   0  0  0  0  0  0  0  0  0  0  0  0
  140.7340   73.0560  219.0800 O   0  0  0  0  0  0  0  0  0  0  0  0
  142.9150   72.6920  219.8790 N   0  0  0  0  0  0  0  0  0  0  0  0
  143.4420   71.3230  219.7880 C   0  0  0  0  0  0  0  0  0  0  0  0
  144.9390   71.4860  219.6510 C   0  0  0  0  0  0  0  0  0  0  0  0
  144.9980   72.8400  218.9300 C   0  0  2  0  0  0  0  0  0  0  0  0
  146.2740   73.3900  218.9680 O   0  0  0  0  0  0  0  0  0  0  0  0
  143.9960   73.6180  219.7560 C   0  0  1  0  0  0  0  0  0  0  0  0
  143.6100   74.8920  219.1080 C   0  0  0  0  0  0  0  0  0  0  0  0
  143.6280   75.0910  217.7420 C   0  0  0  0  0  0  0  0  0  0  0  0
  143.2480   76.3170  217.2380 C   0  0  0  0  0  0  0  0  0  0  0  0
  142.8450   77.3690  218.0520 C   0  0  0  0  0  0  0  0  0  0  0  0
  142.3730   78.9070  217.3560 Cl  0  0  0  0  0  0  0  0  0  0  0  0
  142.8310   77.1590  219.4180 C   0  0  0  0  0  0  0  0  0  0  0  0
  143.2100   75.9350  219.9280 C   0  0  0  0  0  0  0  0  0  0  0  0
  140.2190   76.9080  222.3210 C   0  0  0  0  0  0  0  0  0  0  0  0
  139.0620   77.6450  222.4720 C   0  0  0  0  0  0  0  0  0  0  0  0
  139.0790   78.9960  222.8110 C   0  0  0  0  0  0  0  0  0  0  0  0
  140.3200   79.5750  222.9950 C   0  0  0  0  0  0  0  0  0  0  0  0
  140.3540   80.9170  223.3330 C   0  0  0  0  0  0  0  0  0  0  0  0
  141.5840   81.5290  223.5240 C   0  0  0  0  0  0  0  0  0  0  0  0
  142.7500   80.7860  223.3720 C   0  0  0  0  0  0  0  0  0  0  0  0
  142.6650   79.4490  223.0330 C   0  0  0  0  0  0  0  0  0  0  0  0
  141.4440   78.8100  222.8360 C   0  0  0  0  0  0  0  0  0  0  0  0
  141.4130   77.4970  222.5050 N   0  0  0  0  0  0  0  0  0  0  0  0
  142.1760   75.0810  221.8830 H   0  0  0  0  0  0  0  0  0  0  0  0
  141.4794   72.6460  222.1556 H   0  0  0  0  0  0  0  0  0  0  0  0
  139.9057   73.1053  221.4055 H   0  0  0  0  0  0  0  0  0  0  0  0
  143.1970   70.7536  220.6967 H   0  0  0  0  0  0  0  0  0  0  0  0
  143.0083   70.7696  218.9420 H   0  0  0  0  0  0  0  0  0  0  0  0
  145.4364   71.5241  220.6314 H   0  0  0  0  0  0  0  0  0  0  0  0
  145.4478   70.6620  219.1292 H   0  0  0  0  0  0  0  0  0  0  0  0
  144.7733   72.8115  217.8536 H   0  0  0  0  0  0  0  0  0  0  0  0
  146.2150   74.1940  219.5740 H   0  0  0  0  0  0  0  0  0  0  0  0
  144.3827   73.9461  220.7321 H   0  0  0  0  0  0  0  0  0  0  0  0
  143.9412   74.2826  217.0649 H   0  0  0  0  0  0  0  0  0  0  0  0
  143.2645   76.4684  216.1486 H   0  0  0  0  0  0  0  0  0  0  0  0
  142.5183   77.9662  220.0967 H   0  0  0  0  0  0  0  0  0  0  0  0
  143.1943   75.7822  221.0172 H   0  0  0  0  0  0  0  0  0  0  0  0
  138.0925   77.1482  222.3193 H   0  0  0  0  0  0  0  0  0  0  0  0
  138.1500   79.5736  222.9266 H   0  0  0  0  0  0  0  0  0  0  0  0
  139.4212   81.4885  223.4482 H   0  0  0  0  0  0  0  0  0  0  0  0
  141.6369   82.5941  223.7937 H   0  0  0  0  0  0  0  0  0  0  0  0
  143.7320   81.2589  223.5204 H   0  0  0  0  0  0  0  0  0  0  0  0
  143.5930   78.8704  222.9149 H   0  0  0  0  0  0  0  0  0  0  0  0
  1  2  2  0
  2  3  1  0
  3  4  1  0
  4  5  1  0
  5  6  2  0
  5  7  1  0
  7  8  1  0
  8  9  1  0
  9 10  1  0
 10 11  1  0
 10 12  1  0
 12 13  1  0
 13 14  2  0
 14 15  1  0
 15 16  2  0
 16 17  1  0
 16 18  1  0
 18 19  2  0
  2 20  1  0
 20 21  2  0
 21 22  1  0
 22 23  2  0
 23 24  1  0
 24 25  2  0
 25 26  1  0
 26 27  2  0
 27 28  1  0
 28 29  2  0
 12  7  1  0
 19 13  1  0
 29 20  1  0
 28 23  1  0
  3 30  1  0
  4 31  1  0
  4 32  1  0
  8 33  1  0
  8 34  1  0
  9 35  1  0
  9 36  1  0
 10 37  1  6
 11 38  1  0
 12 39  1  1
 14 40  1  0
 15 41  1  0
 18 42  1  0
 19 43  1  0
 21 44  1  0
 22 45  1  0
 24 46  1  0
 25 47  1  0
 26 48  1  0
 27 49  1  0
M  END
>  <smiles>  (41) 
O=C(NCC(=O)N1CC[C@H](O)[C@H]1c1ccc(Cl)cc1)c1ccc2ccccc2n1

>  <score_type>  (41) 
oracle

>  <origin>  (41) 
autodockgpu

>  <m_score__min__energy>  (41) 
-8.9399999999999995

>  <m_primary>  (41) 
energy

>  <rmsd>  (41) 
7.699670030981896

>  <m_score__min__rmsd>  (41) 
7.699670030981896

>  <meeko>  (41) 
{"free_energy": -7.87, "intermolecular_energy": -9.66, "internal_energy": -2.2, "cluster_size": 16, "cluster_id": 7, "rank_in_cluster": 14}

>  <energy>  (41) 
-7.96

>  <cluster_rmsd>  (41) 
0.99

>  <cluster>  (41) 
7

$$$$

     RDKit          3D

 49 52  0  0  0  0  0  0  0  0999 V2000
  139.9400   74.1120  222.2540 O   0  0  0  0  0  0  0  0  0  0  0  0
  140.3930   75.0750  221.5850 C   0  0  0  0  0  0  0  0  0  0  0  0
  140.9710   74.7490  220.3200 N   0  0  0  0  0  0  0  0  0  0  0  0
  140.9810   73.3630  219.9340 C   0  0  0  0  0  0  0  0  0  0  0  0
  142.0160   72.6150  220.7090 C   0  0  0  0  0  0  0  0  0  0  0  0
  141.7140   72.2770  221.9000 O   0  0  0  0  0  0  0  0  0  0  0  0
  143.2740   72.3000  220.1410 N   0  0  0  0  0  0  0  0  0  0  0  0
  143.7250   70.9320  219.8410 C   0  0  0  0  0  0  0  0  0  0  0  0
  145.1290   71.0910  219.3040 C   0  0  0  0  0  0  0  0  0  0  0  0
  145.0180   72.4810  218.6610 C   0  0  2  0  0  0  0  0  0  0  0  0
  146.2670   73.0170  218.3720 O   0  0  0  0  0  0  0  0  0  0  0  0
  144.3000   73.2220  219.7690 C   0  0  1  0  0  0  0  0  0  0  0  0
  143.7790   74.5320  219.3160 C   0  0  0  0  0  0  0  0  0  0  0  0
  143.7940   75.6700  220.0950 C   0  0  0  0  0  0  0  0  0  0  0  0
  143.2850   76.8430  219.5770 C   0  0  0  0  0  0  0  0  0  0  0  0
  142.7530   76.9280  218.2960 C   0  0  0  0  0  0  0  0  0  0  0  0
  142.1190   78.4460  217.6900 Cl  0  0  0  0  0  0  0  0  0  0  0  0
  142.7430   75.7810  217.5250 C   0  0  0  0  0  0  0  0  0  0  0  0
  143.2510   74.6060  218.0360 C   0  0  0  0  0  0  0  0  0  0  0  0
  140.3450   76.4590  222.0490 C   0  0  0  0  0  0  0  0  0  0  0  0
  139.1130   76.9580  222.4150 C   0  0  0  0  0  0  0  0  0  0  0  0
  138.9440   78.2630  222.8730 C   0  0  0  0  0  0  0  0  0  0  0  0
  140.0800   79.0470  222.9460 C   0  0  0  0  0  0  0  0  0  0  0  0
  139.9300   80.3470  223.3990 C   0  0  0  0  0  0  0  0  0  0  0  0
  141.0490   81.1610  223.4850 C   0  0  0  0  0  0  0  0  0  0  0  0
  142.2920   80.6570  223.1150 C   0  0  0  0  0  0  0  0  0  0  0  0
  142.3920   79.3520  222.6690 C   0  0  0  0  0  0  0  0  0  0  0  0
  141.2840   78.5140  222.5730 C   0  0  0  0  0  0  0  0  0  0  0  0
  141.4340   77.2440  222.1300 N   0  0  0  0  0  0  0  0  0  0  0  0
  141.3650   75.5120  219.7200 H   0  0  0  0  0  0  0  0  0  0  0  0
  139.9920   72.9242  220.1324 H   0  0  0  0  0  0  0  0  0  0  0  0
  141.2172   73.2925  218.8620 H   0  0  0  0  0  0  0  0  0  0  0  0
  143.7274   70.3171  220.7531 H   0  0  0  0  0  0  0  0  0  0  0  0
  143.0628   70.4273  219.1222 H   0  0  0  0  0  0  0  0  0  0  0  0
  145.8778   71.0734  220.1096 H   0  0  0  0  0  0  0  0  0  0  0  0
  145.4556   70.2919  218.6222 H   0  0  0  0  0  0  0  0  0  0  0  0
  144.5052   72.5120  217.6883 H   0  0  0  0  0  0  0  0  0  0  0  0
  146.1820   74.0140  218.5060 H   0  0  0  0  0  0  0  0  0  0  0  0
  144.9483   73.4942  220.6149 H   0  0  0  0  0  0  0  0  0  0  0  0
  144.2059   75.6428  221.1146 H   0  0  0  0  0  0  0  0  0  0  0  0
  143.3009   77.7473  220.2031 H   0  0  0  0  0  0  0  0  0  0  0  0
  142.3304   75.8058  216.5056 H   0  0  0  0  0  0  0  0  0  0  0  0
  143.2372   73.7012  217.4106 H   0  0  0  0  0  0  0  0  0  0  0  0
  138.2324   76.3028  222.3429 H   0  0  0  0  0  0  0  0  0  0  0  0
  137.9558   78.6500  223.1621 H   0  0  0  0  0  0  0  0  0  0  0  0
  138.9387   80.7278  223.6861 H   0  0  0  0  0  0  0  0  0  0  0  0
  140.9549   82.1969  223.8428 H   0  0  0  0  0  0  0  0  0  0  0  0
  143.1882   81.2918  223.1768 H   0  0  0  0  0  0  0  0  0  0  0  0
  143.3796   78.9629  222.3805 H   0  0  0  0  0  0  0  0  0  0  0  0
  1  2  2  0
  2  3  1  0
  3  4  1  0
  4  5  1  0
  5  6  2  0
  5  7  1  0
  7  8  1  0
  8  9  1  0
  9 10  1  0
 10 11  1  0
 10 12  1  0
 12 13  1  0
 13 14  2  0
 14 15  1  0
 15 16  2  0
 16 17  1  0
 16 18  1  0
 18 19  2  0
  2 20  1  0
 20 21  2  0
 21 22  1  0
 22 23  2  0
 23 24  1  0
 24 25  2  0
 25 26  1  0
 26 27  2  0
 27 28  1  0
 28 29  2  0
 12  7  1  0
 19 13  1  0
 29 20  1  0
 28 23  1  0
  3 30  1  0
  4 31  1  0
  4 32  1  0
  8 33  1  0
  8 34  1  0
  9 35  1  0
  9 36  1  0
 10 37  1  6
 11 38  1  0
 12 39  1  1
 14 40  1  0
 15 41  1  0
 18 42  1  0
 19 43  1  0
 21 44  1  0
 22 45  1  0
 24 46  1  0
 25 47  1  0
 26 48  1  0
 27 49  1  0
M  END
>  <smiles>  (42) 
O=C(NCC(=O)N1CC[C@H](O)[C@H]1c1ccc(Cl)cc1)c1ccc2ccccc2n1

>  <score_type>  (42) 
oracle

>  <origin>  (42) 
autodockgpu

>  <m_score__min__energy>  (42) 
-8.9399999999999995

>  <m_primary>  (42) 
energy

>  <rmsd>  (42) 
7.544489023248385

>  <m_score__min__rmsd>  (42) 
7.544489023248385

>  <meeko>  (42) 
{"free_energy": -8.03, "intermolecular_energy": -9.82, "internal_energy": -1.99, "cluster_size": 16, "cluster_id": 7, "rank_in_cluster": 3}

>  <energy>  (42) 
-7.96

>  <cluster_rmsd>  (42) 
0.98

>  <cluster>  (42) 
7

$$$$

     RDKit          3D

 49 52  0  0  0  0  0  0  0  0999 V2000
  141.1140   71.6620  221.4860 O   0  0  0  0  0  0  0  0  0  0  0  0
  140.4640   72.0700  222.4810 C   0  0  0  0  0  0  0  0  0  0  0  0
  139.9270   73.3910  222.3860 N   0  0  0  0  0  0  0  0  0  0  0  0
  140.1770   74.1210  221.1720 C   0  0  0  0  0  0  0  0  0  0  0  0
  140.4220   75.5640  221.4750 C   0  0  0  0  0  0  0  0  0  0  0  0
  139.9860   76.0010  222.5900 O   0  0  0  0  0  0  0  0  0  0  0  0
  141.1060   76.4020  220.5620 N   0  0  0  0  0  0  0  0  0  0  0  0
  141.4300   76.0230  219.1780 C   0  0  0  0  0  0  0  0  0  0  0  0
  142.1950   77.2000  218.6180 C   0  0  0  0  0  0  0  0  0  0  0  0
  141.5670   78.3420  219.4280 C   0  0  2  0  0  0  0  0  0  0  0  0
  142.3190   79.5080  219.3460 O   0  0  0  0  0  0  0  0  0  0  0  0
  141.5890   77.7230  220.8100 C   0  0  1  0  0  0  0  0  0  0  0  0
  140.7600   78.4820  221.7730 C   0  0  0  0  0  0  0  0  0  0  0  0
  141.2070   78.8810  223.0170 C   0  0  0  0  0  0  0  0  0  0  0  0
  140.3550   79.5870  223.8400 C   0  0  0  0  0  0  0  0  0  0  0  0
  139.0570   79.9170  223.4690 C   0  0  0  0  0  0  0  0  0  0  0  0
  138.0170   80.8160  224.5570 Cl  0  0  0  0  0  0  0  0  0  0  0  0
  138.6200   79.5120  222.2220 C   0  0  0  0  0  0  0  0  0  0  0  0
  139.4670   78.8060  221.3940 C   0  0  0  0  0  0  0  0  0  0  0  0
  140.2540   71.2640  223.6800 C   0  0  0  0  0  0  0  0  0  0  0  0
  139.5680   70.0770  223.5290 C   0  0  0  0  0  0  0  0  0  0  0  0
  139.3080   69.2260  224.6000 C   0  0  0  0  0  0  0  0  0  0  0  0
  139.7730   69.6250  225.8390 C   0  0  0  0  0  0  0  0  0  0  0  0
  139.5230   68.7900  226.9140 C   0  0  0  0  0  0  0  0  0  0  0  0
  139.9760   69.1620  228.1710 C   0  0  0  0  0  0  0  0  0  0  0  0
  140.6680   70.3590  228.3230 C   0  0  0  0  0  0  0  0  0  0  0  0
  140.8930   71.1600  227.2190 C   0  0  0  0  0  0  0  0  0  0  0  0
  140.4500   70.8100  225.9470 C   0  0  0  0  0  0  0  0  0  0  0  0
  140.6960   71.6290  224.8960 N   0  0  0  0  0  0  0  0  0  0  0  0
  139.3760   73.7830  223.1870 H   0  0  0  0  0  0  0  0  0  0  0  0
  141.0614   73.7002  220.6712 H   0  0  0  0  0  0  0  0  0  0  0  0
  139.2973   74.0375  220.5169 H   0  0  0  0  0  0  0  0  0  0  0  0
  142.0509   75.1152  219.1612 H   0  0  0  0  0  0  0  0  0  0  0  0
  140.5281   75.7991  218.5894 H   0  0  0  0  0  0  0  0  0  0  0  0
  143.2749   77.1117  218.8079 H   0  0  0  0  0  0  0  0  0  0  0  0
  142.1275   77.3171  217.5263 H   0  0  0  0  0  0  0  0  0  0  0  0
  140.5711   78.6662  219.0918 H   0  0  0  0  0  0  0  0  0  0  0  0
  142.9050   79.5230  220.1670 H   0  0  0  0  0  0  0  0  0  0  0  0
  142.5818   77.7267  221.2837 H   0  0  0  0  0  0  0  0  0  0  0  0
  142.2281   78.6392  223.3468 H   0  0  0  0  0  0  0  0  0  0  0  0
  140.7173   79.9016  224.8298 H   0  0  0  0  0  0  0  0  0  0  0  0
  137.5989   79.7523  221.8908 H   0  0  0  0  0  0  0  0  0  0  0  0
  139.1059   78.4908  220.4039 H   0  0  0  0  0  0  0  0  0  0  0  0
  139.2138   69.7926  222.5272 H   0  0  0  0  0  0  0  0  0  0  0  0
  138.7592   68.2821  224.4666 H   0  0  0  0  0  0  0  0  0  0  0  0
  138.9742   67.8470  226.7738 H   0  0  0  0  0  0  0  0  0  0  0  0
  139.7895   68.5154  229.0411 H   0  0  0  0  0  0  0  0  0  0  0  0
  141.0334   70.6659  229.3141 H   0  0  0  0  0  0  0  0  0  0  0  0
  141.4402   72.1052  227.3503 H   0  0  0  0  0  0  0  0  0  0  0  0
  1  2  2  0
  2  3  1  0
  3  4  1  0
  4  5  1  0
  5  6  2  0
  5  7  1  0
  7  8  1  0
  8  9  1  0
  9 10  1  0
 10 11  1  0
 10 12  1  0
 12 13  1  0
 13 14  2  0
 14 15  1  0
 15 16  2  0
 16 17  1  0
 16 18  1  0
 18 19  2  0
  2 20  1  0
 20 21  2  0
 21 22  1  0
 22 23  2  0
 23 24  1  0
 24 25  2  0
 25 26  1  0
 26 27  2  0
 27 28  1  0
 28 29  2  0
 12  7  1  0
 19 13  1  0
 29 20  1  0
 28 23  1  0
  3 30  1  0
  4 31  1  0
  4 32  1  0
  8 33  1  0
  8 34  1  0
  9 35  1  0
  9 36  1  0
 10 37  1  6
 11 38  1  0
 12 39  1  1
 14 40  1  0
 15 41  1  0
 18 42  1  0
 19 43  1  0
 21 44  1  0
 22 45  1  0
 24 46  1  0
 25 47  1  0
 26 48  1  0
 27 49  1  0
M  END
>  <smiles>  (43) 
O=C(NCC(=O)N1CC[C@H](O)[C@H]1c1ccc(Cl)cc1)c1ccc2ccccc2n1

>  <score_type>  (43) 
oracle

>  <origin>  (43) 
autodockgpu

>  <m_score__min__energy>  (43) 
-8.9399999999999995

>  <m_primary>  (43) 
energy

>  <rmsd>  (43) 
2.2521098275037077

>  <m_score__min__rmsd>  (43) 
2.2521098275037077

>  <meeko>  (43) 
{"free_energy": -8.57, "intermolecular_energy": -10.36, "internal_energy": -1.58, "cluster_size": 14, "cluster_id": 2, "rank_in_cluster": 8}

>  <energy>  (43) 
-7.96

>  <cluster_rmsd>  (43) 
0.98

>  <cluster>  (43) 
7

$$$$

     RDKit          3D

 49 52  0  0  0  0  0  0  0  0999 V2000
  139.0140   74.9910  221.8420 O   0  0  0  0  0  0  0  0  0  0  0  0
  140.1260   75.5570  221.9980 C   0  0  0  0  0  0  0  0  0  0  0  0
  141.2820   74.7330  221.8370 N   0  0  0  0  0  0  0  0  0  0  0  0
  141.0670   73.3470  221.5160 C   0  0  0  0  0  0  0  0  0  0  0  0
  141.5500   73.0540  220.1320 C   0  0  0  0  0  0  0  0  0  0  0  0
  140.6960   73.1480  219.1910 O   0  0  0  0  0  0  0  0  0  0  0  0
  142.8950   72.6880  219.8850 N   0  0  0  0  0  0  0  0  0  0  0  0
  143.3570   71.3000  219.7310 C   0  0  0  0  0  0  0  0  0  0  0  0
  144.8530   71.4050  219.5360 C   0  0  0  0  0  0  0  0  0  0  0  0
  144.9430   72.7770  218.8540 C   0  0  2  0  0  0  0  0  0  0  0  0
  146.2420   73.2700  218.8560 O   0  0  0  0  0  0  0  0  0  0  0  0
  144.0090   73.5700  219.7450 C   0  0  1  0  0  0  0  0  0  0  0  0
  143.6540   74.8790  219.1520 C   0  0  0  0  0  0  0  0  0  0  0  0
  143.6760   75.1350  217.7960 C   0  0  0  0  0  0  0  0  0  0  0  0
  143.3250   76.3910  217.3450 C   0  0  0  0  0  0  0  0  0  0  0  0
  142.9470   77.4160  218.2030 C   0  0  0  0  0  0  0  0  0  0  0  0
  142.5110   78.9940  217.5740 Cl  0  0  0  0  0  0  0  0  0  0  0  0
  142.9290   77.1490  219.5590 C   0  0  0  0  0  0  0  0  0  0  0  0
  143.2790   75.8960  220.0160 C   0  0  0  0  0  0  0  0  0  0  0  0
  140.2590   76.9740  222.3240 C   0  0  0  0  0  0  0  0  0  0  0  0
  139.0980   77.7160  222.3930 C   0  0  0  0  0  0  0  0  0  0  0  0
  139.1010   79.0760  222.6950 C   0  0  0  0  0  0  0  0  0  0  0  0
  140.3320   79.6580  222.9280 C   0  0  0  0  0  0  0  0  0  0  0  0
  140.3530   81.0090  223.2300 C   0  0  0  0  0  0  0  0  0  0  0  0
  141.5720   81.6250  223.4680 C   0  0  0  0  0  0  0  0  0  0  0  0
  142.7420   80.8760  223.3990 C   0  0  0  0  0  0  0  0  0  0  0  0
  142.6710   79.5290  223.0930 C   0  0  0  0  0  0  0  0  0  0  0  0
  141.4610   78.8870  222.8500 C   0  0  0  0  0  0  0  0  0  0  0  0
  141.4430   77.5660  222.5540 N   0  0  0  0  0  0  0  0  0  0  0  0
  142.2350   75.1520  221.9550 H   0  0  0  0  0  0  0  0  0  0  0  0
  141.6166   72.7191  222.2327 H   0  0  0  0  0  0  0  0  0  0  0  0
  139.9902   73.1294  221.5727 H   0  0  0  0  0  0  0  0  0  0  0  0
  143.1247   70.7130  220.6318 H   0  0  0  0  0  0  0  0  0  0  0  0
  142.8651   70.7918  218.8885 H   0  0  0  0  0  0  0  0  0  0  0  0
  145.3908   71.3910  220.4955 H   0  0  0  0  0  0  0  0  0  0  0  0
  145.3033   70.5774  218.9683 H   0  0  0  0  0  0  0  0  0  0  0  0
  144.6750   72.7932  217.7873 H   0  0  0  0  0  0  0  0  0  0  0  0
  146.1770   74.2320  219.1560 H   0  0  0  0  0  0  0  0  0  0  0  0
  144.4481   73.8495  220.7141 H   0  0  0  0  0  0  0  0  0  0  0  0
  143.9692   74.3488  217.0847 H   0  0  0  0  0  0  0  0  0  0  0  0
  143.3453   76.5884  216.2631 H   0  0  0  0  0  0  0  0  0  0  0  0
  142.6362   77.9340  220.2718 H   0  0  0  0  0  0  0  0  0  0  0  0
  143.2601   75.6977  221.0978 H   0  0  0  0  0  0  0  0  0  0  0  0
  138.1366   77.2165  222.2030 H   0  0  0  0  0  0  0  0  0  0  0  0
  138.1689   79.6579  222.7455 H   0  0  0  0  0  0  0  0  0  0  0  0
  139.4170   81.5847  223.2803 H   0  0  0  0  0  0  0  0  0  0  0  0
  141.6136   82.6974  223.7094 H   0  0  0  0  0  0  0  0  0  0  0  0
  143.7162   81.3512  223.5863 H   0  0  0  0  0  0  0  0  0  0  0  0
  143.6023   78.9460  223.0400 H   0  0  0  0  0  0  0  0  0  0  0  0
  1  2  2  0
  2  3  1  0
  3  4  1  0
  4  5  1  0
  5  6  2  0
  5  7  1  0
  7  8  1  0
  8  9  1  0
  9 10  1  0
 10 11  1  0
 10 12  1  0
 12 13  1  0
 13 14  2  0
 14 15  1  0
 15 16  2  0
 16 17  1  0
 16 18  1  0
 18 19  2  0
  2 20  1  0
 20 21  2  0
 21 22  1  0
 22 23  2  0
 23 24  1  0
 24 25  2  0
 25 26  1  0
 26 27  2  0
 27 28  1  0
 28 29  2  0
 12  7  1  0
 19 13  1  0
 29 20  1  0
 28 23  1  0
  3 30  1  0
  4 31  1  0
  4 32  1  0
  8 33  1  0
  8 34  1  0
  9 35  1  0
  9 36  1  0
 10 37  1  6
 11 38  1  0
 12 39  1  1
 14 40  1  0
 15 41  1  0
 18 42  1  0
 19 43  1  0
 21 44  1  0
 22 45  1  0
 24 46  1  0
 25 47  1  0
 26 48  1  0
 27 49  1  0
M  END
>  <smiles>  (44) 
O=C(NCC(=O)N1CC[C@H](O)[C@H]1c1ccc(Cl)cc1)c1ccc2ccccc2n1

>  <score_type>  (44) 
oracle

>  <origin>  (44) 
autodockgpu

>  <m_score__min__energy>  (44) 
-8.9399999999999995

>  <m_primary>  (44) 
energy

>  <rmsd>  (44) 
7.738509896330231

>  <m_score__min__rmsd>  (44) 
7.738509896330231

>  <meeko>  (44) 
{"free_energy": -7.96, "intermolecular_energy": -9.75, "internal_energy": -2.19, "cluster_size": 16, "cluster_id": 7, "rank_in_cluster": 9}

>  <energy>  (44) 
-7.95

>  <cluster_rmsd>  (44) 
0.11

>  <cluster>  (44) 
7

$$$$

     RDKit          3D

 49 52  0  0  0  0  0  0  0  0999 V2000
  138.9940   74.9630  221.8470 O   0  0  0  0  0  0  0  0  0  0  0  0
  140.1050   75.5350  221.9790 C   0  0  0  0  0  0  0  0  0  0  0  0
  141.2620   74.7060  221.8550 N   0  0  0  0  0  0  0  0  0  0  0  0
  141.0490   73.3080  221.5920 C   0  0  0  0  0  0  0  0  0  0  0  0
  141.4500   72.9760  220.1920 C   0  0  0  0  0  0  0  0  0  0  0  0
  140.5400   73.0330  219.3020 O   0  0  0  0  0  0  0  0  0  0  0  0
  142.7820   72.6140  219.8750 N   0  0  0  0  0  0  0  0  0  0  0  0
  143.2330   71.2300  219.6640 C   0  0  0  0  0  0  0  0  0  0  0  0
  144.7190   71.3370  219.4050 C   0  0  0  0  0  0  0  0  0  0  0  0
  144.7810   72.7270  218.7550 C   0  0  2  0  0  0  0  0  0  0  0  0
  146.0810   73.2180  218.7120 O   0  0  0  0  0  0  0  0  0  0  0  0
  143.8910   73.4980  219.7070 C   0  0  1  0  0  0  0  0  0  0  0  0
  143.5130   74.8230  219.1650 C   0  0  0  0  0  0  0  0  0  0  0  0
  143.3860   75.0890  217.8180 C   0  0  0  0  0  0  0  0  0  0  0  0
  143.0260   76.3580  217.4160 C   0  0  0  0  0  0  0  0  0  0  0  0
  142.7860   77.3890  218.3160 C   0  0  0  0  0  0  0  0  0  0  0  0
  142.3330   78.9850  217.7490 Cl  0  0  0  0  0  0  0  0  0  0  0  0
  142.9170   77.1110  219.6640 C   0  0  0  0  0  0  0  0  0  0  0  0
  143.2750   75.8440  220.0720 C   0  0  0  0  0  0  0  0  0  0  0  0
  140.2370   76.9650  222.2460 C   0  0  0  0  0  0  0  0  0  0  0  0
  139.0910   77.7290  222.1640 C   0  0  0  0  0  0  0  0  0  0  0  0
  139.0950   79.1020  222.3970 C   0  0  0  0  0  0  0  0  0  0  0  0
  140.3100   79.6750  222.7190 C   0  0  0  0  0  0  0  0  0  0  0  0
  140.3310   81.0390  222.9540 C   0  0  0  0  0  0  0  0  0  0  0  0
  141.5350   81.6460  223.2800 C   0  0  0  0  0  0  0  0  0  0  0  0
  142.6890   80.8750  223.3630 C   0  0  0  0  0  0  0  0  0  0  0  0
  142.6190   79.5160  223.1190 C   0  0  0  0  0  0  0  0  0  0  0  0
  141.4240   78.8820  222.7910 C   0  0  0  0  0  0  0  0  0  0  0  0
  141.4060   77.5480  222.5610 N   0  0  0  0  0  0  0  0  0  0  0  0
  142.2150   75.1300  221.9570 H   0  0  0  0  0  0  0  0  0  0  0  0
  141.6511   72.7112  222.2929 H   0  0  0  0  0  0  0  0  0  0  0  0
  139.9811   73.0785  221.7219 H   0  0  0  0  0  0  0  0  0  0  0  0
  143.0396   70.6198  220.5586 H   0  0  0  0  0  0  0  0  0  0  0  0
  142.7026   70.7454  218.8311 H   0  0  0  0  0  0  0  0  0  0  0  0
  145.2993   71.2974  220.3386 H   0  0  0  0  0  0  0  0  0  0  0  0
  145.1416   70.5235  218.7969 H   0  0  0  0  0  0  0  0  0  0  0  0
  144.4646   72.7711  217.7024 H   0  0  0  0  0  0  0  0  0  0  0  0
  146.0120   74.2100  218.8830 H   0  0  0  0  0  0  0  0  0  0  0  0
  144.3744   73.7520  220.6619 H   0  0  0  0  0  0  0  0  0  0  0  0
  143.5694   74.2996  217.0742 H   0  0  0  0  0  0  0  0  0  0  0  0
  142.9248   76.5622  216.3399 H   0  0  0  0  0  0  0  0  0  0  0  0
  142.7359   77.8994  220.4094 H   0  0  0  0  0  0  0  0  0  0  0  0
  143.3746   75.6372  221.1478 H   0  0  0  0  0  0  0  0  0  0  0  0
  138.1418   77.2368  221.9058 H   0  0  0  0  0  0  0  0  0  0  0  0
  138.1751   79.7012  222.3280 H   0  0  0  0  0  0  0  0  0  0  0  0
  139.4074   81.6323  222.8833 H   0  0  0  0  0  0  0  0  0  0  0  0
  141.5764   82.7285  223.4713 H   0  0  0  0  0  0  0  0  0  0  0  0
  143.6506   81.3428  223.6209 H   0  0  0  0  0  0  0  0  0  0  0  0
  143.5383   78.9157  223.1863 H   0  0  0  0  0  0  0  0  0  0  0  0
  1  2  2  0
  2  3  1  0
  3  4  1  0
  4  5  1  0
  5  6  2  0
  5  7  1  0
  7  8  1  0
  8  9  1  0
  9 10  1  0
 10 11  1  0
 10 12  1  0
 12 13  1  0
 13 14  2  0
 14 15  1  0
 15 16  2  0
 16 17  1  0
 16 18  1  0
 18 19  2  0
  2 20  1  0
 20 21  2  0
 21 22  1  0
 22 23  2  0
 23 24  1  0
 24 25  2  0
 25 26  1  0
 26 27  2  0
 27 28  1  0
 28 29  2  0
 12  7  1  0
 19 13  1  0
 29 20  1  0
 28 23  1  0
  3 30  1  0
  4 31  1  0
  4 32  1  0
  8 33  1  0
  8 34  1  0
  9 35  1  0
  9 36  1  0
 10 37  1  6
 11 38  1  0
 12 39  1  1
 14 40  1  0
 15 41  1  0
 18 42  1  0
 19 43  1  0
 21 44  1  0
 22 45  1  0
 24 46  1  0
 25 47  1  0
 26 48  1  0
 27 49  1  0
M  END
>  <smiles>  (45) 
O=C(NCC(=O)N1CC[C@H](O)[C@H]1c1ccc(Cl)cc1)c1ccc2ccccc2n1

>  <score_type>  (45) 
oracle

>  <origin>  (45) 
autodockgpu

>  <m_score__min__energy>  (45) 
-8.9399999999999995

>  <m_primary>  (45) 
energy

>  <rmsd>  (45) 
7.738023393131456

>  <m_score__min__rmsd>  (45) 
7.738023393131456

>  <meeko>  (45) 
{"free_energy": -7.77, "intermolecular_energy": -9.56, "internal_energy": -2.28, "cluster_size": 16, "cluster_id": 7, "rank_in_cluster": 16}

>  <energy>  (45) 
-7.94

>  <cluster_rmsd>  (45) 
0.16

>  <cluster>  (45) 
7

$$$$

     RDKit          3D

 49 52  0  0  0  0  0  0  0  0999 V2000
  141.3310   72.1690  221.3870 O   0  0  0  0  0  0  0  0  0  0  0  0
  140.4630   72.4490  222.2530 C   0  0  0  0  0  0  0  0  0  0  0  0
  139.7100   73.6420  222.0290 N   0  0  0  0  0  0  0  0  0  0  0  0
  140.0130   74.4040  220.8460 C   0  0  0  0  0  0  0  0  0  0  0  0
  141.1020   75.3870  221.1270 C   0  0  0  0  0  0  0  0  0  0  0  0
  141.4580   75.5220  222.3430 O   0  0  0  0  0  0  0  0  0  0  0  0
  141.7070   76.1320  220.0860 N   0  0  0  0  0  0  0  0  0  0  0  0
  141.9250   75.6200  218.7250 C   0  0  0  0  0  0  0  0  0  0  0  0
  142.6360   76.7370  217.9950 C   0  0  0  0  0  0  0  0  0  0  0  0
  142.0640   77.9530  218.7370 C   0  0  2  0  0  0  0  0  0  0  0  0
  142.7990   79.1050  218.4830 O   0  0  0  0  0  0  0  0  0  0  0  0
  142.1990   77.4700  220.1660 C   0  0  1  0  0  0  0  0  0  0  0  0
  141.4420   78.3200  221.1130 C   0  0  0  0  0  0  0  0  0  0  0  0
  142.0160   78.9530  222.1970 C   0  0  0  0  0  0  0  0  0  0  0  0
  141.2220   79.7260  223.0190 C   0  0  0  0  0  0  0  0  0  0  0  0
  139.8610   79.8950  222.8030 C   0  0  0  0  0  0  0  0  0  0  0  0
  138.8990   80.8890  223.8810 Cl  0  0  0  0  0  0  0  0  0  0  0  0
  139.2960   79.2560  221.7140 C   0  0  0  0  0  0  0  0  0  0  0  0
  140.0840   78.4830  220.8880 C   0  0  0  0  0  0  0  0  0  0  0  0
  140.2160   71.6200  223.4290 C   0  0  0  0  0  0  0  0  0  0  0  0
  139.4610   70.4790  223.2490 C   0  0  0  0  0  0  0  0  0  0  0  0
  139.1610   69.6130  224.2970 C   0  0  0  0  0  0  0  0  0  0  0  0
  139.6570   69.9480  225.5430 C   0  0  0  0  0  0  0  0  0  0  0  0
  139.3670   69.0970  226.5960 C   0  0  0  0  0  0  0  0  0  0  0  0
  139.8500   69.4040  227.8590 C   0  0  0  0  0  0  0  0  0  0  0  0
  140.6110   70.5550  228.0400 C   0  0  0  0  0  0  0  0  0  0  0  0
  140.8740   71.3740  226.9580 C   0  0  0  0  0  0  0  0  0  0  0  0
  140.4010   71.0890  225.6800 C   0  0  0  0  0  0  0  0  0  0  0  0
  140.6860   71.9230  224.6510 N   0  0  0  0  0  0  0  0  0  0  0  0
  138.9720   73.9240  222.7180 H   0  0  0  0  0  0  0  0  0  0  0  0
  140.3382   73.7207  220.0477 H   0  0  0  0  0  0  0  0  0  0  0  0
  139.1112   74.9495  220.5312 H   0  0  0  0  0  0  0  0  0  0  0  0
  142.5493   74.7146  218.7481 H   0  0  0  0  0  0  0  0  0  0  0  0
  140.9817   75.3402  218.2332 H   0  0  0  0  0  0  0  0  0  0  0  0
  143.7280   76.6673  218.1079 H   0  0  0  0  0  0  0  0  0  0  0  0
  142.4833   76.7471  216.9057 H   0  0  0  0  0  0  0  0  0  0  0  0
  141.0425   78.2441  218.4509 H   0  0  0  0  0  0  0  0  0  0  0  0
  143.3470   78.9130  217.6580 H   0  0  0  0  0  0  0  0  0  0  0  0
  143.2260   77.5179  220.5573 H   0  0  0  0  0  0  0  0  0  0  0  0
  143.0910   78.8428  222.4026 H   0  0  0  0  0  0  0  0  0  0  0  0
  141.6861   80.2287  223.8803 H   0  0  0  0  0  0  0  0  0  0  0  0
  138.2210   79.3643  221.5076 H   0  0  0  0  0  0  0  0  0  0  0  0
  139.6216   77.9810  220.0253 H   0  0  0  0  0  0  0  0  0  0  0  0
  139.0831   70.2456  222.2426 H   0  0  0  0  0  0  0  0  0  0  0  0
  138.5584   68.7060  224.1410 H   0  0  0  0  0  0  0  0  0  0  0  0
  138.7632   68.1920  226.4333 H   0  0  0  0  0  0  0  0  0  0  0  0
  139.6334   68.7430  228.7111 H   0  0  0  0  0  0  0  0  0  0  0  0
  141.0002   70.8111  229.0365 H   0  0  0  0  0  0  0  0  0  0  0  0
  141.4770   72.2810  227.1118 H   0  0  0  0  0  0  0  0  0  0  0  0
  1  2  2  0
  2  3  1  0
  3  4  1  0
  4  5  1  0
  5  6  2  0
  5  7  1  0
  7  8  1  0
  8  9  1  0
  9 10  1  0
 10 11  1  0
 10 12  1  0
 12 13  1  0
 13 14  2  0
 14 15  1  0
 15 16  2  0
 16 17  1  0
 16 18  1  0
 18 19  2  0
  2 20  1  0
 20 21  2  0
 21 22  1  0
 22 23  2  0
 23 24  1  0
 24 25  2  0
 25 26  1  0
 26 27  2  0
 27 28  1  0
 28 29  2  0
 12  7  1  0
 19 13  1  0
 29 20  1  0
 28 23  1  0
  3 30  1  0
  4 31  1  0
  4 32  1  0
  8 33  1  0
  8 34  1  0
  9 35  1  0
  9 36  1  0
 10 37  1  6
 11 38  1  0
 12 39  1  1
 14 40  1  0
 15 41  1  0
 18 42  1  0
 19 43  1  0
 21 44  1  0
 22 45  1  0
 24 46  1  0
 25 47  1  0
 26 48  1  0
 27 49  1  0
M  END
>  <smiles>  (46) 
O=C(NCC(=O)N1CC[C@H](O)[C@H]1c1ccc(Cl)cc1)c1ccc2ccccc2n1

>  <score_type>  (46) 
oracle

>  <origin>  (46) 
autodockgpu

>  <m_score__min__energy>  (46) 
-8.9399999999999995

>  <m_primary>  (46) 
energy

>  <rmsd>  (46) 
2.1002191326069135

>  <m_score__min__rmsd>  (46) 
2.1002191326069135

>  <meeko>  (46) 
{"free_energy": -8.34, "intermolecular_energy": -10.13, "internal_energy": -1.41, "cluster_size": 14, "cluster_id": 2, "rank_in_cluster": 14}

>  <energy>  (46) 
-7.91

>  <cluster_rmsd>  (46) 
1.0

>  <cluster>  (46) 
7

$$$$

     RDKit          3D

 49 52  0  0  0  0  0  0  0  0999 V2000
  140.9670   71.4030  221.4080 O   0  0  0  0  0  0  0  0  0  0  0  0
  140.4380   71.8960  222.4370 C   0  0  0  0  0  0  0  0  0  0  0  0
  140.0150   73.2570  222.3390 N   0  0  0  0  0  0  0  0  0  0  0  0
  140.2330   73.9300  221.0860 C   0  0  0  0  0  0  0  0  0  0  0  0
  140.5490   75.3720  221.3190 C   0  0  0  0  0  0  0  0  0  0  0  0
  140.1360   75.8850  222.4100 O   0  0  0  0  0  0  0  0  0  0  0  0
  141.2750   76.1280  220.3670 N   0  0  0  0  0  0  0  0  0  0  0  0
  141.6470   75.6360  219.0330 C   0  0  0  0  0  0  0  0  0  0  0  0
  142.4440   76.7600  218.4090 C   0  0  0  0  0  0  0  0  0  0  0  0
  141.7960   77.9680  219.0990 C   0  0  2  0  0  0  0  0  0  0  0  0
  142.5610   79.1190  218.9510 O   0  0  0  0  0  0  0  0  0  0  0  0
  141.7610   77.4620  220.5260 C   0  0  1  0  0  0  0  0  0  0  0  0
  140.9030   78.3030  221.3930 C   0  0  0  0  0  0  0  0  0  0  0  0
  139.6250   78.6950  221.0530 C   0  0  0  0  0  0  0  0  0  0  0  0
  138.9080   79.4780  221.9330 C   0  0  0  0  0  0  0  0  0  0  0  0
  139.4210   79.8930  223.1560 C   0  0  0  0  0  0  0  0  0  0  0  0
  138.4640   80.8880  224.2360 Cl  0  0  0  0  0  0  0  0  0  0  0  0
  140.7030   79.4940  223.4860 C   0  0  0  0  0  0  0  0  0  0  0  0
  141.4250   78.7110  222.6110 C   0  0  0  0  0  0  0  0  0  0  0  0
  140.2520   71.1440  223.6740 C   0  0  0  0  0  0  0  0  0  0  0  0
  139.5610   69.9530  223.5890 C   0  0  0  0  0  0  0  0  0  0  0  0
  139.3220   69.1500  224.7030 C   0  0  0  0  0  0  0  0  0  0  0  0
  139.8150   69.6030  225.9120 C   0  0  0  0  0  0  0  0  0  0  0  0
  139.5860   68.8170  227.0290 C   0  0  0  0  0  0  0  0  0  0  0  0
  140.0670   69.2420  228.2580 C   0  0  0  0  0  0  0  0  0  0  0  0
  140.7640   70.4430  228.3430 C   0  0  0  0  0  0  0  0  0  0  0  0
  140.9670   71.1940  227.2000 C   0  0  0  0  0  0  0  0  0  0  0  0
  140.4960   70.7900  225.9540 C   0  0  0  0  0  0  0  0  0  0  0  0
  140.7200   71.5610  224.8630 N   0  0  0  0  0  0  0  0  0  0  0  0
  139.5680   73.7190  223.1660 H   0  0  0  0  0  0  0  0  0  0  0  0
  141.0743   73.4546  220.5605 H   0  0  0  0  0  0  0  0  0  0  0  0
  139.3193   73.8580  220.4778 H   0  0  0  0  0  0  0  0  0  0  0  0
  142.2598   74.7261  219.1136 H   0  0  0  0  0  0  0  0  0  0  0  0
  140.7660   75.3703  218.4303 H   0  0  0  0  0  0  0  0  0  0  0  0
  143.5150   76.6810  218.6470 H   0  0  0  0  0  0  0  0  0  0  0  0
  142.4190   76.7883  217.3096 H   0  0  0  0  0  0  0  0  0  0  0  0
  140.8163   78.2705  218.7006 H   0  0  0  0  0  0  0  0  0  0  0  0
  143.5240   78.8180  218.9570 H   0  0  0  0  0  0  0  0  0  0  0  0
  142.7354   77.4968  221.0352 H   0  0  0  0  0  0  0  0  0  0  0  0
  139.1840   78.3874  220.0934 H   0  0  0  0  0  0  0  0  0  0  0  0
  137.8892   79.7864  221.6558 H   0  0  0  0  0  0  0  0  0  0  0  0
  141.1459   79.8008  224.4450 H   0  0  0  0  0  0  0  0  0  0  0  0
  142.4438   78.4012  222.8867 H   0  0  0  0  0  0  0  0  0  0  0  0
  139.1857   69.6257  222.6082 H   0  0  0  0  0  0  0  0  0  0  0  0
  138.7685   68.2027  224.6238 H   0  0  0  0  0  0  0  0  0  0  0  0
  139.0315   67.8709  226.9426 H   0  0  0  0  0  0  0  0  0  0  0  0
  139.8987   68.6341  229.1592 H   0  0  0  0  0  0  0  0  0  0  0  0
  141.1505   70.7923  229.3118 H   0  0  0  0  0  0  0  0  0  0  0  0
  141.5190   72.1423  227.2779 H   0  0  0  0  0  0  0  0  0  0  0  0
  1  2  2  0
  2  3  1  0
  3  4  1  0
  4  5  1  0
  5  6  2  0
  5  7  1  0
  7  8  1  0
  8  9  1  0
  9 10  1  0
 10 11  1  0
 10 12  1  0
 12 13  1  0
 13 14  2  0
 14 15  1  0
 15 16  2  0
 16 17  1  0
 16 18  1  0
 18 19  2  0
  2 20  1  0
 20 21  2  0
 21 22  1  0
 22 23  2  0
 23 24  1  0
 24 25  2  0
 25 26  1  0
 26 27  2  0
 27 28  1  0
 28 29  2  0
 12  7  1  0
 19 13  1  0
 29 20  1  0
 28 23  1  0
  3 30  1  0
  4 31  1  0
  4 32  1  0
  8 33  1  0
  8 34  1  0
  9 35  1  0
  9 36  1  0
 10 37  1  6
 11 38  1  0
 12 39  1  1
 14 40  1  0
 15 41  1  0
 18 42  1  0
 19 43  1  0
 21 44  1  0
 22 45  1  0
 24 46  1  0
 25 47  1  0
 26 48  1  0
 27 49  1  0
M  END
>  <smiles>  (47) 
O=C(NCC(=O)N1CC[C@H](O)[C@H]1c1ccc(Cl)cc1)c1ccc2ccccc2n1

>  <score_type>  (47) 
oracle

>  <origin>  (47) 
autodockgpu

>  <m_score__min__energy>  (47) 
-8.9399999999999995

>  <m_primary>  (47) 
energy

>  <rmsd>  (47) 
2.0896715732186495

>  <m_score__min__rmsd>  (47) 
2.0896715732186495

>  <meeko>  (47) 
{"free_energy": -8.63, "intermolecular_energy": -10.42, "internal_energy": -1.61, "cluster_size": 14, "cluster_id": 2, "rank_in_cluster": 5}

>  <energy>  (47) 
-7.87

>  <cluster_rmsd>  (47) 
0.97

>  <cluster>  (47) 
7

$$$$

     RDKit          3D

 49 52  0  0  0  0  0  0  0  0999 V2000
  139.7680   73.5760  222.5390 O   0  0  0  0  0  0  0  0  0  0  0  0
  140.2950   72.4360  222.6070 C   0  0  0  0  0  0  0  0  0  0  0  0
  141.0300   72.0110  221.4570 N   0  0  0  0  0  0  0  0  0  0  0  0
  141.0970   72.9170  220.3420 C   0  0  0  0  0  0  0  0  0  0  0  0
  141.8020   72.2740  219.1920 C   0  0  0  0  0  0  0  0  0  0  0  0
  141.0750   71.8420  218.2390 O   0  0  0  0  0  0  0  0  0  0  0  0
  143.2120   72.1540  219.1680 N   0  0  0  0  0  0  0  0  0  0  0  0
  143.9290   70.9290  218.7830 C   0  0  0  0  0  0  0  0  0  0  0  0
  145.3940   71.2600  218.9590 C   0  0  0  0  0  0  0  0  0  0  0  0
  145.3670   72.7680  218.6760 C   0  0  2  0  0  0  0  0  0  0  0  0
  146.5380   73.3920  219.0900 O   0  0  0  0  0  0  0  0  0  0  0  0
  144.1630   73.1660  219.5030 C   0  0  1  0  0  0  0  0  0  0  0  0
  143.7000   74.5370  219.1890 C   0  0  0  0  0  0  0  0  0  0  0  0
  143.2240   75.4180  220.1380 C   0  0  0  0  0  0  0  0  0  0  0  0
  142.8180   76.6750  219.7410 C   0  0  0  0  0  0  0  0  0  0  0  0
  142.8670   77.0950  218.4170 C   0  0  0  0  0  0  0  0  0  0  0  0
  142.3380   78.7060  217.9690 Cl  0  0  0  0  0  0  0  0  0  0  0  0
  143.3460   76.2040  217.4750 C   0  0  0  0  0  0  0  0  0  0  0  0
  143.7530   74.9460  217.8660 C   0  0  0  0  0  0  0  0  0  0  0  0
  140.1800   71.5740  223.7790 C   0  0  0  0  0  0  0  0  0  0  0  0
  139.4940   70.3880  223.6240 C   0  0  0  0  0  0  0  0  0  0  0  0
  139.3190   69.4860  224.6720 C   0  0  0  0  0  0  0  0  0  0  0  0
  139.8700   69.8350  225.8900 C   0  0  0  0  0  0  0  0  0  0  0  0
  139.7050   68.9500  226.9420 C   0  0  0  0  0  0  0  0  0  0  0  0
  140.2450   69.2700  228.1790 C   0  0  0  0  0  0  0  0  0  0  0  0
  140.9360   70.4670  228.3350 C   0  0  0  0  0  0  0  0  0  0  0  0
  141.0740   71.3190  227.2550 C   0  0  0  0  0  0  0  0  0  0  0  0
  140.5430   71.0220  226.0030 C   0  0  0  0  0  0  0  0  0  0  0  0
  140.7050   71.8890  224.9760 N   0  0  0  0  0  0  0  0  0  0  0  0
  141.4900   71.0700  221.4580 H   0  0  0  0  0  0  0  0  0  0  0  0
  140.0767   73.1904  220.0350 H   0  0  0  0  0  0  0  0  0  0  0  0
  141.6535   73.8162  220.6449 H   0  0  0  0  0  0  0  0  0  0  0  0
  143.6410   70.0915  219.4354 H   0  0  0  0  0  0  0  0  0  0  0  0
  143.6963   70.6210  217.7530 H   0  0  0  0  0  0  0  0  0  0  0  0
  145.7410   71.0432  219.9801 H   0  0  0  0  0  0  0  0  0  0  0  0
  146.0778   70.6825  218.3195 H   0  0  0  0  0  0  0  0  0  0  0  0
  145.3001   73.0476  217.6142 H   0  0  0  0  0  0  0  0  0  0  0  0
  146.2980   74.3580  219.2560 H   0  0  0  0  0  0  0  0  0  0  0  0
  144.3623   73.2154  220.5837 H   0  0  0  0  0  0  0  0  0  0  0  0
  143.1691   75.1222  221.1961 H   0  0  0  0  0  0  0  0  0  0  0  0
  142.4403   77.3730  220.5027 H   0  0  0  0  0  0  0  0  0  0  0  0
  143.4023   76.4977  216.4164 H   0  0  0  0  0  0  0  0  0  0  0  0
  144.1308   74.2466  217.1056 H   0  0  0  0  0  0  0  0  0  0  0  0
  139.0699   70.1452  222.6385 H   0  0  0  0  0  0  0  0  0  0  0  0
  138.7694   68.5429  224.5361 H   0  0  0  0  0  0  0  0  0  0  0  0
  139.1546   68.0084  226.7991 H   0  0  0  0  0  0  0  0  0  0  0  0
  140.1277   68.5826  229.0297 H   0  0  0  0  0  0  0  0  0  0  0  0
  141.3694   70.7337  229.3102 H   0  0  0  0  0  0  0  0  0  0  0  0
  141.6218   72.2633  227.3896 H   0  0  0  0  0  0  0  0  0  0  0  0
  1  2  2  0
  2  3  1  0
  3  4  1  0
  4  5  1  0
  5  6  2  0
  5  7  1  0
  7  8  1  0
  8  9  1  0
  9 10  1  0
 10 11  1  0
 10 12  1  0
 12 13  1  0
 13 14  2  0
 14 15  1  0
 15 16  2  0
 16 17  1  0
 16 18  1  0
 18 19  2  0
  2 20  1  0
 20 21  2  0
 21 22  1  0
 22 23  2  0
 23 24  1  0
 24 25  2  0
 25 26  1  0
 26 27  2  0
 27 28  1  0
 28 29  2  0
 12  7  1  0
 19 13  1  0
 29 20  1  0
 28 23  1  0
  3 30  1  0
  4 31  1  0
  4 32  1  0
  8 33  1  0
  8 34  1  0
  9 35  1  0
  9 36  1  0
 10 37  1  6
 11 38  1  0
 12 39  1  1
 14 40  1  0
 15 41  1  0
 18 42  1  0
 19 43  1  0
 21 44  1  0
 22 45  1  0
 24 46  1  0
 25 47  1  0
 26 48  1  0
 27 49  1  0
M  END
>  <smiles>  (48) 
O=C(NCC(=O)N1CC[C@H](O)[C@H]1c1ccc(Cl)cc1)c1ccc2ccccc2n1

>  <score_type>  (48) 
oracle

>  <origin>  (48) 
autodockgpu

>  <m_score__min__energy>  (48) 
-8.9399999999999995

>  <m_primary>  (48) 
energy

>  <rmsd>  (48) 
3.8854584971003794

>  <m_score__min__rmsd>  (48) 
3.8854584971003794

>  <meeko>  (48) 
{"free_energy": -8.44, "intermolecular_energy": -10.23, "internal_energy": -1.35, "cluster_size": 4, "cluster_id": 3, "rank_in_cluster": 3}

>  <energy>  (48) 
-7.87

>  <cluster_rmsd>  (48) 
0.98

>  <cluster>  (48) 
7

$$$$

     RDKit          3D

 49 52  0  0  0  0  0  0  0  0999 V2000
  140.0220   73.1390  222.7840 O   0  0  0  0  0  0  0  0  0  0  0  0
  140.3450   71.9280  222.8940 C   0  0  0  0  0  0  0  0  0  0  0  0
  140.7530   71.2720  221.6930 N   0  0  0  0  0  0  0  0  0  0  0  0
  140.7580   72.0490  220.4820 C   0  0  0  0  0  0  0  0  0  0  0  0
  141.8830   73.0320  220.5000 C   0  0  0  0  0  0  0  0  0  0  0  0
  141.6200   74.2020  220.9310 O   0  0  0  0  0  0  0  0  0  0  0  0
  143.1790   72.6740  220.0560 N   0  0  0  0  0  0  0  0  0  0  0  0
  143.6710   71.2910  219.9770 C   0  0  0  0  0  0  0  0  0  0  0  0
  145.1030   71.4100  219.5050 C   0  0  0  0  0  0  0  0  0  0  0  0
  145.0060   72.6940  218.6690 C   0  0  2  0  0  0  0  0  0  0  0  0
  146.2610   73.2180  218.3810 O   0  0  0  0  0  0  0  0  0  0  0  0
  144.2080   73.5620  219.6190 C   0  0  1  0  0  0  0  0  0  0  0  0
  143.6930   74.7830  218.9580 C   0  0  0  0  0  0  0  0  0  0  0  0
  143.3910   74.8530  217.6130 C   0  0  0  0  0  0  0  0  0  0  0  0
  142.9150   76.0390  217.0950 C   0  0  0  0  0  0  0  0  0  0  0  0
  142.7240   77.1740  217.8730 C   0  0  0  0  0  0  0  0  0  0  0  0
  142.1160   78.6560  217.1610 Cl  0  0  0  0  0  0  0  0  0  0  0  0
  143.0300   77.0920  219.2190 C   0  0  0  0  0  0  0  0  0  0  0  0
  143.5070   75.9100  219.7430 C   0  0  0  0  0  0  0  0  0  0  0  0
  140.3130   71.2090  224.1640 C   0  0  0  0  0  0  0  0  0  0  0  0
  140.6930   71.9060  225.2920 C   0  0  0  0  0  0  0  0  0  0  0  0
  140.7030   71.3240  226.5580 C   0  0  0  0  0  0  0  0  0  0  0  0
  140.3100   70.0020  226.6380 C   0  0  0  0  0  0  0  0  0  0  0  0
  140.3140   69.4090  227.8890 C   0  0  0  0  0  0  0  0  0  0  0  0
  139.9250   68.0830  228.0040 C   0  0  0  0  0  0  0  0  0  0  0  0
  139.5420   67.3800  226.8660 C   0  0  0  0  0  0  0  0  0  0  0  0
  139.5540   68.0160  225.6380 C   0  0  0  0  0  0  0  0  0  0  0  0
  139.9400   69.3460  225.4950 C   0  0  0  0  0  0  0  0  0  0  0  0
  139.9350   69.9230  224.2700 N   0  0  0  0  0  0  0  0  0  0  0  0
  141.0330   70.2620  221.7260 H   0  0  0  0  0  0  0  0  0  0  0  0
  140.8779   71.3763  219.6200 H   0  0  0  0  0  0  0  0  0  0  0  0
  139.8068   72.5959  220.4044 H   0  0  0  0  0  0  0  0  0  0  0  0
  143.6285   70.8088  220.9647 H   0  0  0  0  0  0  0  0  0  0  0  0
  143.0627   70.6747  219.2986 H   0  0  0  0  0  0  0  0  0  0  0  0
  145.8017   71.5236  220.3470 H   0  0  0  0  0  0  0  0  0  0  0  0
  145.4849   70.5329  218.9620 H   0  0  0  0  0  0  0  0  0  0  0  0
  144.5531   72.5765  217.6735 H   0  0  0  0  0  0  0  0  0  0  0  0
  146.3320   74.0790  218.9010 H   0  0  0  0  0  0  0  0  0  0  0  0
  144.7978   73.9658  220.4551 H   0  0  0  0  0  0  0  0  0  0  0  0
  143.5280   73.9756  216.9639 H   0  0  0  0  0  0  0  0  0  0  0  0
  142.6768   76.0884  216.0222 H   0  0  0  0  0  0  0  0  0  0  0  0
  142.8930   77.9681  219.8699 H   0  0  0  0  0  0  0  0  0  0  0  0
  143.7471   75.8595  220.8153 H   0  0  0  0  0  0  0  0  0  0  0  0
  140.9987   72.9576  225.1886 H   0  0  0  0  0  0  0  0  0  0  0  0
  141.0090   71.8897  227.4504 H   0  0  0  0  0  0  0  0  0  0  0  0
  140.6208   69.9805  228.7774 H   0  0  0  0  0  0  0  0  0  0  0  0
  139.9193   67.5906  228.9876 H   0  0  0  0  0  0  0  0  0  0  0  0
  139.2323   66.3273  226.9424 H   0  0  0  0  0  0  0  0  0  0  0  0
  139.2483   67.4522  224.7443 H   0  0  0  0  0  0  0  0  0  0  0  0
  1  2  2  0
  2  3  1  0
  3  4  1  0
  4  5  1  0
  5  6  2  0
  5  7  1  0
  7  8  1  0
  8  9  1  0
  9 10  1  0
 10 11  1  0
 10 12  1  0
 12 13  1  0
 13 14  2  0
 14 15  1  0
 15 16  2  0
 16 17  1  0
 16 18  1  0
 18 19  2  0
  2 20  1  0
 20 21  2  0
 21 22  1  0
 22 23  2  0
 23 24  1  0
 24 25  2  0
 25 26  1  0
 26 27  2  0
 27 28  1  0
 28 29  2  0
 12  7  1  0
 19 13  1  0
 29 20  1  0
 28 23  1  0
  3 30  1  0
  4 31  1  0
  4 32  1  0
  8 33  1  0
  8 34  1  0
  9 35  1  0
  9 36  1  0
 10 37  1  6
 11 38  1  0
 12 39  1  1
 14 40  1  0
 15 41  1  0
 18 42  1  0
 19 43  1  0
 21 44  1  0
 22 45  1  0
 24 46  1  0
 25 47  1  0
 26 48  1  0
 27 49  1  0
M  END
>  <smiles>  (49) 
O=C(NCC(=O)N1CC[C@H](O)[C@H]1c1ccc(Cl)cc1)c1ccc2ccccc2n1

>  <score_type>  (49) 
oracle

>  <origin>  (49) 
autodockgpu

>  <m_score__min__energy>  (49) 
-8.9399999999999995

>  <m_primary>  (49) 
energy

>  <rmsd>  (49) 
4.2987855510197805

>  <m_score__min__rmsd>  (49) 
4.2987855510197805

>  <meeko>  (49) 
{"free_energy": -8.66, "intermolecular_energy": -10.45, "internal_energy": -1.36, "cluster_size": 4, "cluster_id": 3, "rank_in_cluster": 1}

>  <energy>  (49) 
-7.81

>  <cluster_rmsd>  (49) 
0.96

>  <cluster>  (49) 
7

$$$$

     RDKit          3D

 49 52  0  0  0  0  0  0  0  0999 V2000
  138.9620   75.0140  221.7620 O   0  0  0  0  0  0  0  0  0  0  0  0
  140.0820   75.5460  221.9720 C   0  0  0  0  0  0  0  0  0  0  0  0
  141.2210   74.6950  221.8360 N   0  0  0  0  0  0  0  0  0  0  0  0
  140.9840   73.3230  221.4740 C   0  0  0  0  0  0  0  0  0  0  0  0
  141.4310   73.0710  220.0710 C   0  0  0  0  0  0  0  0  0  0  0  0
  140.5670   73.2440  219.1500 O   0  0  0  0  0  0  0  0  0  0  0  0
  142.7540   72.6590  219.7840 N   0  0  0  0  0  0  0  0  0  0  0  0
  143.1550   71.2600  219.5740 C   0  0  0  0  0  0  0  0  0  0  0  0
  144.6500   71.3090  219.3520 C   0  0  0  0  0  0  0  0  0  0  0  0
  144.7830   72.6990  218.7140 C   0  0  2  0  0  0  0  0  0  0  0  0
  146.1020   73.1380  218.7050 O   0  0  0  0  0  0  0  0  0  0  0  0
  143.9010   73.4990  219.6490 C   0  0  1  0  0  0  0  0  0  0  0  0
  143.5890   74.8410  219.1070 C   0  0  0  0  0  0  0  0  0  0  0  0
  143.6480   75.1560  217.7650 C   0  0  0  0  0  0  0  0  0  0  0  0
  143.3360   76.4380  217.3630 C   0  0  0  0  0  0  0  0  0  0  0  0
  142.9620   77.4330  218.2570 C   0  0  0  0  0  0  0  0  0  0  0  0
  142.5760   79.0470  217.6890 Cl  0  0  0  0  0  0  0  0  0  0  0  0
  142.9070   77.1070  219.5990 C   0  0  0  0  0  0  0  0  0  0  0  0
  143.2170   75.8280  220.0080 C   0  0  0  0  0  0  0  0  0  0  0  0
  140.2390   76.9510  222.3370 C   0  0  0  0  0  0  0  0  0  0  0  0
  139.0860   77.6890  222.5130 C   0  0  0  0  0  0  0  0  0  0  0  0
  139.1120   79.0370  222.8610 C   0  0  0  0  0  0  0  0  0  0  0  0
  140.3570   79.6130  223.0260 C   0  0  0  0  0  0  0  0  0  0  0  0
  140.4000   80.9530  223.3720 C   0  0  0  0  0  0  0  0  0  0  0  0
  141.6340   81.5620  223.5460 C   0  0  0  0  0  0  0  0  0  0  0  0
  142.7960   80.8170  223.3690 C   0  0  0  0  0  0  0  0  0  0  0  0
  142.7020   79.4820  223.0230 C   0  0  0  0  0  0  0  0  0  0  0  0
  141.4770   78.8470  222.8430 C   0  0  0  0  0  0  0  0  0  0  0  0
  141.4370   77.5360  222.5040 N   0  0  0  0  0  0  0  0  0  0  0  0
  142.1800   75.0860  222.0000 H   0  0  0  0  0  0  0  0  0  0  0  0
  141.5434   72.6661  222.1563 H   0  0  0  0  0  0  0  0  0  0  0  0
  139.9064   73.1149  221.5485 H   0  0  0  0  0  0  0  0  0  0  0  0
  142.9155   70.6524  220.4592 H   0  0  0  0  0  0  0  0  0  0  0  0
  142.6265   70.8023  218.7247 H   0  0  0  0  0  0  0  0  0  0  0  0
  145.2052   71.2404  220.2991 H   0  0  0  0  0  0  0  0  0  0  0  0
  145.0547   70.4831  218.7486 H   0  0  0  0  0  0  0  0  0  0  0  0
  144.4944   72.7622  217.6544 H   0  0  0  0  0  0  0  0  0  0  0  0
  146.0620   74.1460  218.6910 H   0  0  0  0  0  0  0  0  0  0  0  0
  144.3706   73.7279  220.6170 H   0  0  0  0  0  0  0  0  0  0  0  0
  143.9398   74.3953  217.0259 H   0  0  0  0  0  0  0  0  0  0  0  0
  143.3853   76.6821  216.2916 H   0  0  0  0  0  0  0  0  0  0  0  0
  142.6163   77.8670  220.3392 H   0  0  0  0  0  0  0  0  0  0  0  0
  143.1681   75.5828  221.0792 H   0  0  0  0  0  0  0  0  0  0  0  0
  138.1130   77.1952  222.3735 H   0  0  0  0  0  0  0  0  0  0  0  0
  138.1863   79.6152  222.9979 H   0  0  0  0  0  0  0  0  0  0  0  0
  139.4704   81.5254  223.5067 H   0  0  0  0  0  0  0  0  0  0  0  0
  141.6936   82.6252  223.8217 H   0  0  0  0  0  0  0  0  0  0  0  0
  143.7815   81.2868  223.5034 H   0  0  0  0  0  0  0  0  0  0  0  0
  143.6266   78.9022  222.8853 H   0  0  0  0  0  0  0  0  0  0  0  0
  1  2  2  0
  2  3  1  0
  3  4  1  0
  4  5  1  0
  5  6  2  0
  5  7  1  0
  7  8  1  0
  8  9  1  0
  9 10  1  0
 10 11  1  0
 10 12  1  0
 12 13  1  0
 13 14  2  0
 14 15  1  0
 15 16  2  0
 16 17  1  0
 16 18  1  0
 18 19  2  0
  2 20  1  0
 20 21  2  0
 21 22  1  0
 22 23  2  0
 23 24  1  0
 24 25  2  0
 25 26  1  0
 26 27  2  0
 27 28  1  0
 28 29  2  0
 12  7  1  0
 19 13  1  0
 29 20  1  0
 28 23  1  0
  3 30  1  0
  4 31  1  0
  4 32  1  0
  8 33  1  0
  8 34  1  0
  9 35  1  0
  9 36  1  0
 10 37  1  6
 11 38  1  0
 12 39  1  1
 14 40  1  0
 15 41  1  0
 18 42  1  0
 19 43  1  0
 21 44  1  0
 22 45  1  0
 24 46  1  0
 25 47  1  0
 26 48  1  0
 27 49  1  0
M  END
>  <smiles>  (50) 
O=C(NCC(=O)N1CC[C@H](O)[C@H]1c1ccc(Cl)cc1)c1ccc2ccccc2n1

>  <score_type>  (50) 
oracle

>  <origin>  (50) 
autodockgpu

>  <m_score__min__energy>  (50) 
-8.9399999999999995

>  <m_primary>  (50) 
energy

>  <rmsd>  (50) 
7.674462068736967

>  <m_score__min__rmsd>  (50) 
7.674462068736967

>  <meeko>  (50) 
{"free_energy": -7.91, "intermolecular_energy": -9.7, "internal_energy": -2.2, "cluster_size": 16, "cluster_id": 7, "rank_in_cluster": 12}

>  <energy>  (50) 
-7.77

>  <cluster_rmsd>  (50) 
0.98

>  <cluster>  (50) 
7

$$$$
