
     RDKit          3D

 42 44  0  0  0  0  0  0  0  0999 V2000
  139.8900   71.1480  221.2480 O   0  0  0  0  0  0  0  0  0  0  0  0
  139.8110   71.8470  222.2850 C   0  0  0  0  0  0  0  0  0  0  0  0
  139.6490   73.2560  222.2880 N   0  0  0  0  0  0  0  0  0  0  0  0
  139.5660   73.9810  221.0100 C   0  0  0  0  0  0  0  0  0  0  0  0
  140.4550   75.1380  221.1240 C   0  0  0  0  0  0  0  0  0  0  0  0
  140.6680   75.6920  222.2520 O   0  0  0  0  0  0  0  0  0  0  0  0
  141.1440   75.7410  220.0210 N   0  0  0  0  0  0  0  0  0  0  0  0
  140.7430   75.5360  218.6560 C   0  0  0  0  0  0  0  0  0  0  0  0
  141.6700   76.4180  217.8600 C   0  0  0  0  0  0  0  0  0  0  0  0
  142.9120   76.4430  218.6980 C   0  0  0  0  0  0  0  0  0  0  0  0
  142.3190   76.6220  220.0830 C   0  0  1  0  0  0  0  0  0  0  0  0
  141.8320   78.0170  220.3120 C   0  0  0  0  0  0  0  0  0  0  0  0
  141.6160   78.2790  221.6780 O   0  0  0  0  0  0  0  0  0  0  0  0
  139.8880   71.1690  223.5850 C   0  0  0  0  0  0  0  0  0  0  0  0
  139.4690   69.8540  223.7350 C   0  0  0  0  0  0  0  0  0  0  0  0
  139.5230   69.1880  224.9180 C   0  0  0  0  0  0  0  0  0  0  0  0
  140.0130   69.8320  226.0310 C   0  0  0  0  0  0  0  0  0  0  0  0
  140.0920   69.2080  227.2580 C   0  0  0  0  0  0  0  0  0  0  0  0
  140.5850   69.8620  228.3640 C   0  0  0  0  0  0  0  0  0  0  0  0
  141.0110   71.1750  228.2500 C   0  0  0  0  0  0  0  0  0  0  0  0
  140.9290   71.7990  227.0090 C   0  0  0  0  0  0  0  0  0  0  0  0
  140.4390   71.1580  225.8920 C   0  0  0  0  0  0  0  0  0  0  0  0
  140.3630   71.7750  224.6880 N   0  0  0  0  0  0  0  0  0  0  0  0
  139.5910   73.7710  223.1980 H   0  0  0  0  0  0  0  0  0  0  0  0
  139.8926   73.3320  220.1841 H   0  0  0  0  0  0  0  0  0  0  0  0
  138.5330   74.2951  220.7998 H   0  0  0  0  0  0  0  0  0  0  0  0
  140.8653   74.4815  218.3680 H   0  0  0  0  0  0  0  0  0  0  0  0
  139.6835   75.7792  218.4878 H   0  0  0  0  0  0  0  0  0  0  0  0
  141.8708   75.9874  216.8679 H   0  0  0  0  0  0  0  0  0  0  0  0
  141.2569   77.4189  217.6665 H   0  0  0  0  0  0  0  0  0  0  0  0
  143.4736   75.5006  218.6171 H   0  0  0  0  0  0  0  0  0  0  0  0
  143.6388   77.2172  218.4109 H   0  0  0  0  0  0  0  0  0  0  0  0
  143.0476   76.4080  220.8788 H   0  0  0  0  0  0  0  0  0  0  0  0
  142.5830   78.7235  219.9286 H   0  0  0  0  0  0  0  0  0  0  0  0
  140.8730   78.1343  219.7861 H   0  0  0  0  0  0  0  0  0  0  0  0
  141.8300   77.5050  222.2430 H   0  0  0  0  0  0  0  0  0  0  0  0
  139.0745   69.3262  222.8542 H   0  0  0  0  0  0  0  0  0  0  0  0
  139.1788   68.1454  224.9853 H   0  0  0  0  0  0  0  0  0  0  0  0
  139.7539   68.1657  227.3549 H   0  0  0  0  0  0  0  0  0  0  0  0
  140.6404   69.3448  229.3332 H   0  0  0  0  0  0  0  0  0  0  0  0
  141.4065   71.7140  229.1236 H   0  0  0  0  0  0  0  0  0  0  0  0
  141.2675   72.8415  226.9163 H   0  0  0  0  0  0  0  0  0  0  0  0
  1  2  2  0
  2  3  1  0
  3  4  1  0
  4  5  1  0
  5  6  2  0
  5  7  1  0
  7  8  1  0
  8  9  1  0
  9 10  1  0
 10 11  1  0
 11 12  1  0
 12 13  1  0
  2 14  1  0
 14 15  2  0
 15 16  1  0
 16 17  2  0
 17 18  1  0
 18 19  2  0
 19 20  1  0
 20 21  2  0
 21 22  1  0
 22 23  2  0
 11  7  1  0
 23 14  1  0
 22 17  1  0
  3 24  1  0
  4 25  1  0
  4 26  1  0
  8 27  1  0
  8 28  1  0
  9 29  1  0
  9 30  1  0
 10 31  1  0
 10 32  1  0
 11 33  1  1
 12 34  1  0
 12 35  1  0
 13 36  1  0
 15 37  1  0
 16 38  1  0
 18 39  1  0
 19 40  1  0
 20 41  1  0
 21 42  1  0
M  END
>  <smiles>  (1) 
O=C(NCC(=O)N1CCC[C@H]1CO)c1ccc2ccccc2n1

>  <score_type>  (1) 
oracle

>  <origin>  (1) 
autodockgpu

>  <m_score__min__energy>  (1) 
-6.9299999999999997

>  <m_primary>  (1) 
energy

>  <rmsd>  (1) 
1.4152663583537732

>  <m_score__min__rmsd>  (1) 
1.4152663583537732

>  <meeko>  (1) 
{"free_energy": -6.5, "intermolecular_energy": -8.29, "internal_energy": -2.14, "cluster_size": 35, "cluster_id": 1, "rank_in_cluster": 14}

>  <energy>  (1) 
-6.93

>  <cluster_rmsd>  (1) 
0.0

>  <cluster>  (1) 
1

$$$$

     RDKit          3D

 42 44  0  0  0  0  0  0  0  0999 V2000
  140.2800   71.3030  221.2100 O   0  0  0  0  0  0  0  0  0  0  0  0
  140.0620   71.9920  222.2340 C   0  0  0  0  0  0  0  0  0  0  0  0
  139.8290   73.3910  222.2200 N   0  0  0  0  0  0  0  0  0  0  0  0
  139.8350   74.1160  220.9390 C   0  0  0  0  0  0  0  0  0  0  0  0
  140.3610   75.4530  221.2160 C   0  0  0  0  0  0  0  0  0  0  0  0
  140.5380   75.8530  222.4130 O   0  0  0  0  0  0  0  0  0  0  0  0
  140.7150   76.4080  220.2070 N   0  0  0  0  0  0  0  0  0  0  0  0
  139.9230   76.6090  219.0240 C   0  0  0  0  0  0  0  0  0  0  0  0
  140.6030   77.7500  218.3120 C   0  0  0  0  0  0  0  0  0  0  0  0
  142.0370   77.5930  218.7180 C   0  0  0  0  0  0  0  0  0  0  0  0
  141.8840   77.2990  220.1980 C   0  0  1  0  0  0  0  0  0  0  0  0
  141.5320   78.5220  220.9830 C   0  0  0  0  0  0  0  0  0  0  0  0
  141.6190   78.2980  222.3690 O   0  0  0  0  0  0  0  0  0  0  0  0
  140.0450   71.3130  223.5360 C   0  0  0  0  0  0  0  0  0  0  0  0
  139.5540   70.0220  223.6660 C   0  0  0  0  0  0  0  0  0  0  0  0
  139.5190   69.3560  224.8500 C   0  0  0  0  0  0  0  0  0  0  0  0
  139.9900   69.9760  225.9840 C   0  0  0  0  0  0  0  0  0  0  0  0
  139.9810   69.3510  227.2130 C   0  0  0  0  0  0  0  0  0  0  0  0
  140.4550   69.9810  228.3410 C   0  0  0  0  0  0  0  0  0  0  0  0
  140.9520   71.2710  228.2480 C   0  0  0  0  0  0  0  0  0  0  0  0
  140.9590   71.8960  227.0050 C   0  0  0  0  0  0  0  0  0  0  0  0
  140.4880   71.2780  225.8660 C   0  0  0  0  0  0  0  0  0  0  0  0
  140.4990   71.8970  224.6600 N   0  0  0  0  0  0  0  0  0  0  0  0
  139.6540   73.8980  223.1190 H   0  0  0  0  0  0  0  0  0  0  0  0
  140.4790   73.5980  220.2131 H   0  0  0  0  0  0  0  0  0  0  0  0
  138.8238   74.1694  220.5094 H   0  0  0  0  0  0  0  0  0  0  0  0
  139.9208   75.7046  218.3979 H   0  0  0  0  0  0  0  0  0  0  0  0
  138.8693   76.8249  219.2546 H   0  0  0  0  0  0  0  0  0  0  0  0
  140.4886   77.6602  217.2217 H   0  0  0  0  0  0  0  0  0  0  0  0
  140.1842   78.7338  218.5704 H   0  0  0  0  0  0  0  0  0  0  0  0
  142.5187   76.7585  218.1874 H   0  0  0  0  0  0  0  0  0  0  0  0
  142.6722   78.4617  218.4900 H   0  0  0  0  0  0  0  0  0  0  0  0
  142.8074   76.8962  220.6396 H   0  0  0  0  0  0  0  0  0  0  0  0
  142.2243   79.3318  220.7094 H   0  0  0  0  0  0  0  0  0  0  0  0
  140.4925   78.7923  220.7457 H   0  0  0  0  0  0  0  0  0  0  0  0
  141.8460   77.3670  222.5820 H   0  0  0  0  0  0  0  0  0  0  0  0
  139.1748   69.5131  222.7676 H   0  0  0  0  0  0  0  0  0  0  0  0
  139.1186   68.3327  224.9010 H   0  0  0  0  0  0  0  0  0  0  0  0
  139.5867   68.3273  227.2936 H   0  0  0  0  0  0  0  0  0  0  0  0
  140.4394   69.4631  229.3113 H   0  0  0  0  0  0  0  0  0  0  0  0
  141.3335   71.7907  229.1393 H   0  0  0  0  0  0  0  0  0  0  0  0
  141.3544   72.9196  226.9282 H   0  0  0  0  0  0  0  0  0  0  0  0
  1  2  2  0
  2  3  1  0
  3  4  1  0
  4  5  1  0
  5  6  2  0
  5  7  1  0
  7  8  1  0
  8  9  1  0
  9 10  1  0
 10 11  1  0
 11 12  1  0
 12 13  1  0
  2 14  1  0
 14 15  2  0
 15 16  1  0
 16 17  2  0
 17 18  1  0
 18 19  2  0
 19 20  1  0
 20 21  2  0
 21 22  1  0
 22 23  2  0
 11  7  1  0
 23 14  1  0
 22 17  1  0
  3 24  1  0
  4 25  1  0
  4 26  1  0
  8 27  1  0
  8 28  1  0
  9 29  1  0
  9 30  1  0
 10 31  1  0
 10 32  1  0
 11 33  1  1
 12 34  1  0
 12 35  1  0
 13 36  1  0
 15 37  1  0
 16 38  1  0
 18 39  1  0
 19 40  1  0
 20 41  1  0
 21 42  1  0
M  END
>  <smiles>  (2) 
O=C(NCC(=O)N1CCC[C@H]1CO)c1ccc2ccccc2n1

>  <score_type>  (2) 
oracle

>  <origin>  (2) 
autodockgpu

>  <m_score__min__energy>  (2) 
-6.9299999999999997

>  <m_primary>  (2) 
energy

>  <rmsd>  (2) 
1.400439191556623

>  <m_score__min__rmsd>  (2) 
1.400439191556623

>  <meeko>  (2) 
{"free_energy": -6.44, "intermolecular_energy": -8.23, "internal_energy": -2.24, "cluster_size": 35, "cluster_id": 1, "rank_in_cluster": 27}

>  <energy>  (2) 
-6.89

>  <cluster_rmsd>  (2) 
0.07

>  <cluster>  (2) 
1

$$$$

     RDKit          3D

 42 44  0  0  0  0  0  0  0  0999 V2000
  140.2630   70.9130  221.3180 O   0  0  0  0  0  0  0  0  0  0  0  0
  140.0000   71.5690  222.3530 C   0  0  0  0  0  0  0  0  0  0  0  0
  139.7370   72.9630  222.3690 N   0  0  0  0  0  0  0  0  0  0  0  0
  139.7660   73.7230  221.1100 C   0  0  0  0  0  0  0  0  0  0  0  0
  141.0160   74.4850  221.1070 C   0  0  0  0  0  0  0  0  0  0  0  0
  141.1090   75.5920  221.7290 O   0  0  0  0  0  0  0  0  0  0  0  0
  142.2110   74.0760  220.4290 N   0  0  0  0  0  0  0  0  0  0  0  0
  142.2590   72.9130  219.5840 C   0  0  0  0  0  0  0  0  0  0  0  0
  143.6550   72.9250  219.0160 C   0  0  0  0  0  0  0  0  0  0  0  0
  144.4520   73.5900  220.0970 C   0  0  0  0  0  0  0  0  0  0  0  0
  143.5260   74.7310  220.4730 C   0  0  1  0  0  0  0  0  0  0  0  0
  143.5280   75.8210  219.4500 C   0  0  0  0  0  0  0  0  0  0  0  0
  142.8300   76.9590  219.8950 O   0  0  0  0  0  0  0  0  0  0  0  0
  139.9590   70.8540  223.6350 C   0  0  0  0  0  0  0  0  0  0  0  0
  139.4020   69.5870  223.7330 C   0  0  0  0  0  0  0  0  0  0  0  0
  139.3420   68.8890  224.8980 C   0  0  0  0  0  0  0  0  0  0  0  0
  139.8540   69.4510  226.0450 C   0  0  0  0  0  0  0  0  0  0  0  0
  139.8240   68.7920  227.2550 C   0  0  0  0  0  0  0  0  0  0  0  0
  140.3390   69.3630  228.3960 C   0  0  0  0  0  0  0  0  0  0  0  0
  140.9020   70.6280  228.3350 C   0  0  0  0  0  0  0  0  0  0  0  0
  140.9310   71.2870  227.1100 C   0  0  0  0  0  0  0  0  0  0  0  0
  140.4190   70.7280  225.9590 C   0  0  0  0  0  0  0  0  0  0  0  0
  140.4530   71.3810  224.7700 N   0  0  0  0  0  0  0  0  0  0  0  0
  139.5250   73.4410  223.2760 H   0  0  0  0  0  0  0  0  0  0  0  0
  139.7390   73.0357  220.2516 H   0  0  0  0  0  0  0  0  0  0  0  0
  138.8955   74.3908  221.0309 H   0  0  0  0  0  0  0  0  0  0  0  0
  142.0840   71.9982  220.1693 H   0  0  0  0  0  0  0  0  0  0  0  0
  141.4860   72.9289  218.8016 H   0  0  0  0  0  0  0  0  0  0  0  0
  144.0155   71.9024  218.8310 H   0  0  0  0  0  0  0  0  0  0  0  0
  143.7245   73.4399  218.0465 H   0  0  0  0  0  0  0  0  0  0  0  0
  144.6257   72.9130  220.9464 H   0  0  0  0  0  0  0  0  0  0  0  0
  145.4606   73.9045  219.7908 H   0  0  0  0  0  0  0  0  0  0  0  0
  143.8071   75.1968  221.4291 H   0  0  0  0  0  0  0  0  0  0  0  0
  144.5687   76.1040  219.2338 H   0  0  0  0  0  0  0  0  0  0  0  0
  143.0245   75.4431  218.5479 H   0  0  0  0  0  0  0  0  0  0  0  0
  142.5780   76.8940  220.8410 H   0  0  0  0  0  0  0  0  0  0  0  0
  138.9890   69.1250  222.8241 H   0  0  0  0  0  0  0  0  0  0  0  0
  138.8895   67.8867  224.9235 H   0  0  0  0  0  0  0  0  0  0  0  0
  139.3787   67.7877  227.3098 H   0  0  0  0  0  0  0  0  0  0  0  0
  140.3041   68.8186  229.3512 H   0  0  0  0  0  0  0  0  0  0  0  0
  141.3175   71.1014  229.2368 H   0  0  0  0  0  0  0  0  0  0  0  0
  141.3787   72.2904  227.0583 H   0  0  0  0  0  0  0  0  0  0  0  0
  1  2  2  0
  2  3  1  0
  3  4  1  0
  4  5  1  0
  5  6  2  0
  5  7  1  0
  7  8  1  0
  8  9  1  0
  9 10  1  0
 10 11  1  0
 11 12  1  0
 12 13  1  0
  2 14  1  0
 14 15  2  0
 15 16  1  0
 16 17  2  0
 17 18  1  0
 18 19  2  0
 19 20  1  0
 20 21  2  0
 21 22  1  0
 22 23  2  0
 11  7  1  0
 23 14  1  0
 22 17  1  0
  3 24  1  0
  4 25  1  0
  4 26  1  0
  8 27  1  0
  8 28  1  0
  9 29  1  0
  9 30  1  0
 10 31  1  0
 10 32  1  0
 11 33  1  1
 12 34  1  0
 12 35  1  0
 13 36  1  0
 15 37  1  0
 16 38  1  0
 18 39  1  0
 19 40  1  0
 20 41  1  0
 21 42  1  0
M  END
>  <smiles>  (3) 
O=C(NCC(=O)N1CCC[C@H]1CO)c1ccc2ccccc2n1

>  <score_type>  (3) 
oracle

>  <origin>  (3) 
autodockgpu

>  <m_score__min__energy>  (3) 
-6.9299999999999997

>  <m_primary>  (3) 
energy

>  <rmsd>  (3) 
2.76687057179121

>  <m_score__min__rmsd>  (3) 
2.76687057179121

>  <meeko>  (3) 
{"free_energy": -6.62, "intermolecular_energy": -8.41, "internal_energy": -1.93, "cluster_size": 35, "cluster_id": 1, "rank_in_cluster": 4}

>  <energy>  (3) 
-6.72

>  <cluster_rmsd>  (3) 
1.83

>  <cluster>  (3) 
1

$$$$

     RDKit          3D

 42 44  0  0  0  0  0  0  0  0999 V2000
  138.7610   75.1720  221.9750 O   0  0  0  0  0  0  0  0  0  0  0  0
  139.9290   75.6190  222.0550 C   0  0  0  0  0  0  0  0  0  0  0  0
  141.0970   74.8490  221.8210 N   0  0  0  0  0  0  0  0  0  0  0  0
  140.9710   73.4280  221.4600 C   0  0  0  0  0  0  0  0  0  0  0  0
  141.5500   73.2800  220.1240 C   0  0  0  0  0  0  0  0  0  0  0  0
  140.8250   72.9510  219.1290 O   0  0  0  0  0  0  0  0  0  0  0  0
  142.9350   73.4810  219.8160 N   0  0  0  0  0  0  0  0  0  0  0  0
  143.6150   72.7330  218.7930 C   0  0  0  0  0  0  0  0  0  0  0  0
  144.9970   73.3320  218.7510 C   0  0  0  0  0  0  0  0  0  0  0  0
  145.2050   73.7950  220.1610 C   0  0  0  0  0  0  0  0  0  0  0  0
  143.8580   74.4300  220.4550 C   0  0  1  0  0  0  0  0  0  0  0  0
  143.6980   75.7510  219.7750 C   0  0  0  0  0  0  0  0  0  0  0  0
  142.4960   76.3860  220.1430 O   0  0  0  0  0  0  0  0  0  0  0  0
  140.1070   77.0320  222.4130 C   0  0  0  0  0  0  0  0  0  0  0  0
  139.0150   77.8660  222.6070 C   0  0  0  0  0  0  0  0  0  0  0  0
  139.1330   79.1790  222.9380 C   0  0  0  0  0  0  0  0  0  0  0  0
  140.3870   79.7240  223.0920 C   0  0  0  0  0  0  0  0  0  0  0  0
  140.5690   81.0480  223.4280 C   0  0  0  0  0  0  0  0  0  0  0  0
  141.8290   81.5820  223.5800 C   0  0  0  0  0  0  0  0  0  0  0  0
  142.9420   80.7780  223.3920 C   0  0  0  0  0  0  0  0  0  0  0  0
  142.7500   79.4420  223.0540 C   0  0  0  0  0  0  0  0  0  0  0  0
  141.4960   78.8920  222.8990 C   0  0  0  0  0  0  0  0  0  0  0  0
  141.3210   77.5890  222.5690 N   0  0  0  0  0  0  0  0  0  0  0  0
  142.0400   75.2950  221.9070 H   0  0  0  0  0  0  0  0  0  0  0  0
  141.5183   72.8037  222.1816 H   0  0  0  0  0  0  0  0  0  0  0  0
  139.9184   73.1087  221.4724 H   0  0  0  0  0  0  0  0  0  0  0  0
  143.6606   71.6658  219.0557 H   0  0  0  0  0  0  0  0  0  0  0  0
  143.1030   72.7884  217.8210 H   0  0  0  0  0  0  0  0  0  0  0  0
  145.7464   72.5783  218.4675 H   0  0  0  0  0  0  0  0  0  0  0  0
  145.0982   74.1385  218.0099 H   0  0  0  0  0  0  0  0  0  0  0  0
  145.4113   72.9523  220.8373 H   0  0  0  0  0  0  0  0  0  0  0  0
  146.0645   74.4680  220.2967 H   0  0  0  0  0  0  0  0  0  0  0  0
  143.7068   74.6085  221.5298 H   0  0  0  0  0  0  0  0  0  0  0  0
  144.5425   76.3990  220.0524 H   0  0  0  0  0  0  0  0  0  0  0  0
  143.6741   75.5762  218.6892 H   0  0  0  0  0  0  0  0  0  0  0  0
  142.5620   76.8290  221.0160 H   0  0  0  0  0  0  0  0  0  0  0  0
  138.0060   77.4445  222.4872 H   0  0  0  0  0  0  0  0  0  0  0  0
  138.2358   79.7991  223.0812 H   0  0  0  0  0  0  0  0  0  0  0  0
  139.6896   81.6915  223.5779 H   0  0  0  0  0  0  0  0  0  0  0  0
  141.9515   82.6415  223.8493 H   0  0  0  0  0  0  0  0  0  0  0  0
  143.9563   81.1876  223.5076 H   0  0  0  0  0  0  0  0  0  0  0  0
  143.6316   78.8013  222.9050 H   0  0  0  0  0  0  0  0  0  0  0  0
  1  2  2  0
  2  3  1  0
  3  4  1  0
  4  5  1  0
  5  6  2  0
  5  7  1  0
  7  8  1  0
  8  9  1  0
  9 10  1  0
 10 11  1  0
 11 12  1  0
 12 13  1  0
  2 14  1  0
 14 15  2  0
 15 16  1  0
 16 17  2  0
 17 18  1  0
 18 19  2  0
 19 20  1  0
 20 21  2  0
 21 22  1  0
 22 23  2  0
 11  7  1  0
 23 14  1  0
 22 17  1  0
  3 24  1  0
  4 25  1  0
  4 26  1  0
  8 27  1  0
  8 28  1  0
  9 29  1  0
  9 30  1  0
 10 31  1  0
 10 32  1  0
 11 33  1  1
 12 34  1  0
 12 35  1  0
 13 36  1  0
 15 37  1  0
 16 38  1  0
 18 39  1  0
 19 40  1  0
 20 41  1  0
 21 42  1  0
M  END
>  <smiles>  (4) 
O=C(NCC(=O)N1CCC[C@H]1CO)c1ccc2ccccc2n1

>  <score_type>  (4) 
oracle

>  <origin>  (4) 
autodockgpu

>  <m_score__min__energy>  (4) 
-6.9299999999999997

>  <m_primary>  (4) 
energy

>  <rmsd>  (4) 
7.671670423781618

>  <m_score__min__rmsd>  (4) 
7.671670423781618

>  <meeko>  (4) 
{"free_energy": -5.92, "intermolecular_energy": -7.71, "internal_energy": -2.79, "cluster_size": 10, "cluster_id": 4, "rank_in_cluster": 9}

>  <energy>  (4) 
-6.62

>  <cluster_rmsd>  (4) 
1.92

>  <cluster>  (4) 
1

$$$$

     RDKit          3D

 42 44  0  0  0  0  0  0  0  0999 V2000
  139.9730   74.1400  222.1870 O   0  0  0  0  0  0  0  0  0  0  0  0
  140.3720   75.0800  221.4600 C   0  0  0  0  0  0  0  0  0  0  0  0
  140.8530   74.9150  220.1360 N   0  0  0  0  0  0  0  0  0  0  0  0
  140.9020   73.5700  219.5410 C   0  0  0  0  0  0  0  0  0  0  0  0
  141.8860   72.8060  220.3080 C   0  0  0  0  0  0  0  0  0  0  0  0
  141.5260   71.8370  221.0530 O   0  0  0  0  0  0  0  0  0  0  0  0
  143.2960   73.0640  220.3000 N   0  0  0  0  0  0  0  0  0  0  0  0
  144.2500   72.1150  219.7930 C   0  0  0  0  0  0  0  0  0  0  0  0
  145.5720   72.8320  219.8890 C   0  0  0  0  0  0  0  0  0  0  0  0
  145.3760   73.7450  221.0610 C   0  0  0  0  0  0  0  0  0  0  0  0
  143.9810   74.2720  220.7810 C   0  0  1  0  0  0  0  0  0  0  0  0
  143.9700   75.2760  219.6740 C   0  0  0  0  0  0  0  0  0  0  0  0
  143.0310   76.2990  219.9050 O   0  0  0  0  0  0  0  0  0  0  0  0
  140.3420   76.4410  222.0090 C   0  0  0  0  0  0  0  0  0  0  0  0
  139.1570   77.0080  222.4560 C   0  0  0  0  0  0  0  0  0  0  0  0
  139.0830   78.2640  222.9710 C   0  0  0  0  0  0  0  0  0  0  0  0
  140.2280   79.0230  223.0600 C   0  0  0  0  0  0  0  0  0  0  0  0
  140.2150   80.3020  223.5740 C   0  0  0  0  0  0  0  0  0  0  0  0
  141.3650   81.0520  223.6590 C   0  0  0  0  0  0  0  0  0  0  0  0
  142.5660   80.5170  223.2200 C   0  0  0  0  0  0  0  0  0  0  0  0
  142.5720   79.2250  222.7040 C   0  0  0  0  0  0  0  0  0  0  0  0
  141.4280   78.4610  222.6130 C   0  0  0  0  0  0  0  0  0  0  0  0
  141.4460   77.2030  222.1070 N   0  0  0  0  0  0  0  0  0  0  0  0
  141.1700   75.7520  219.5900 H   0  0  0  0  0  0  0  0  0  0  0  0
  139.9144   73.0901  219.6071 H   0  0  0  0  0  0  0  0  0  0  0  0
  141.1800   73.6178  218.4778 H   0  0  0  0  0  0  0  0  0  0  0  0
  144.2559   71.2021  220.4066 H   0  0  0  0  0  0  0  0  0  0  0  0
  144.0191   71.7929  218.7669 H   0  0  0  0  0  0  0  0  0  0  0  0
  146.3934   72.1238  220.0726 H   0  0  0  0  0  0  0  0  0  0  0  0
  145.8445   73.3642  218.9657 H   0  0  0  0  0  0  0  0  0  0  0  0
  145.4177   73.1959  222.0133 H   0  0  0  0  0  0  0  0  0  0  0  0
  146.1450   74.5247  221.1644 H   0  0  0  0  0  0  0  0  0  0  0  0
  143.5381   74.7661  221.6584 H   0  0  0  0  0  0  0  0  0  0  0  0
  144.9711   75.7240  219.5898 H   0  0  0  0  0  0  0  0  0  0  0  0
  143.6892   74.7577  218.7453 H   0  0  0  0  0  0  0  0  0  0  0  0
  143.0920   76.6610  220.8150 H   0  0  0  0  0  0  0  0  0  0  0  0
  138.2340   76.4132  222.3905 H   0  0  0  0  0  0  0  0  0  0  0  0
  138.1191   78.6692  223.3127 H   0  0  0  0  0  0  0  0  0  0  0  0
  139.2648   80.7320  223.9236 H   0  0  0  0  0  0  0  0  0  0  0  0
  141.3317   82.0706  224.0730 H   0  0  0  0  0  0  0  0  0  0  0  0
  143.4956   81.1022  223.2784 H   0  0  0  0  0  0  0  0  0  0  0  0
  143.5240   78.7976  222.3560 H   0  0  0  0  0  0  0  0  0  0  0  0
  1  2  2  0
  2  3  1  0
  3  4  1  0
  4  5  1  0
  5  6  2  0
  5  7  1  0
  7  8  1  0
  8  9  1  0
  9 10  1  0
 10 11  1  0
 11 12  1  0
 12 13  1  0
  2 14  1  0
 14 15  2  0
 15 16  1  0
 16 17  2  0
 17 18  1  0
 18 19  2  0
 19 20  1  0
 20 21  2  0
 21 22  1  0
 22 23  2  0
 11  7  1  0
 23 14  1  0
 22 17  1  0
  3 24  1  0
  4 25  1  0
  4 26  1  0
  8 27  1  0
  8 28  1  0
  9 29  1  0
  9 30  1  0
 10 31  1  0
 10 32  1  0
 11 33  1  1
 12 34  1  0
 12 35  1  0
 13 36  1  0
 15 37  1  0
 16 38  1  0
 18 39  1  0
 19 40  1  0
 20 41  1  0
 21 42  1  0
M  END
>  <smiles>  (5) 
O=C(NCC(=O)N1CCC[C@H]1CO)c1ccc2ccccc2n1

>  <score_type>  (5) 
oracle

>  <origin>  (5) 
autodockgpu

>  <m_score__min__energy>  (5) 
-6.9299999999999997

>  <m_primary>  (5) 
energy

>  <rmsd>  (5) 
7.5406676333071125

>  <m_score__min__rmsd>  (5) 
7.5406676333071125

>  <meeko>  (5) 
{"free_energy": -6.03, "intermolecular_energy": -7.82, "internal_energy": -2.63, "cluster_size": 10, "cluster_id": 4, "rank_in_cluster": 8}

>  <energy>  (5) 
-6.62

>  <cluster_rmsd>  (5) 
1.43

>  <cluster>  (5) 
1

$$$$

     RDKit          3D

 42 44  0  0  0  0  0  0  0  0999 V2000
  140.4180   71.3410  221.2280 O   0  0  0  0  0  0  0  0  0  0  0  0
  140.1200   72.0170  222.2410 C   0  0  0  0  0  0  0  0  0  0  0  0
  139.8160   73.4020  222.2150 N   0  0  0  0  0  0  0  0  0  0  0  0
  139.8440   74.1300  220.9360 C   0  0  0  0  0  0  0  0  0  0  0  0
  140.3100   75.4850  221.2320 C   0  0  0  0  0  0  0  0  0  0  0  0
  140.3300   75.9240  222.4280 O   0  0  0  0  0  0  0  0  0  0  0  0
  140.7700   76.4160  220.2440 N   0  0  0  0  0  0  0  0  0  0  0  0
  140.0870   76.6160  218.9950 C   0  0  0  0  0  0  0  0  0  0  0  0
  140.8510   77.7310  218.3290 C   0  0  0  0  0  0  0  0  0  0  0  0
  142.2420   77.5480  218.8580 C   0  0  0  0  0  0  0  0  0  0  0  0
  141.9560   77.2810  220.3240 C   0  0  1  0  0  0  0  0  0  0  0  0
  141.5670   78.5230  221.0580 C   0  0  0  0  0  0  0  0  0  0  0  0
  141.6360   78.3500  222.4530 O   0  0  0  0  0  0  0  0  0  0  0  0
  140.0790   71.3360  223.5410 C   0  0  0  0  0  0  0  0  0  0  0  0
  139.5400   70.0630  223.6680 C   0  0  0  0  0  0  0  0  0  0  0  0
  139.4810   69.3960  224.8500 C   0  0  0  0  0  0  0  0  0  0  0  0
  139.9750   69.9960  225.9860 C   0  0  0  0  0  0  0  0  0  0  0  0
  139.9440   69.3680  227.2140 C   0  0  0  0  0  0  0  0  0  0  0  0
  140.4410   69.9780  228.3430 C   0  0  0  0  0  0  0  0  0  0  0  0
  140.9850   71.2490  228.2520 C   0  0  0  0  0  0  0  0  0  0  0  0
  141.0140   71.8760  227.0110 C   0  0  0  0  0  0  0  0  0  0  0  0
  140.5210   71.2790  225.8710 C   0  0  0  0  0  0  0  0  0  0  0  0
  140.5540   71.9000  224.6660 N   0  0  0  0  0  0  0  0  0  0  0  0
  139.5760   73.8990  223.1050 H   0  0  0  0  0  0  0  0  0  0  0  0
  140.5332   73.6371  220.2345 H   0  0  0  0  0  0  0  0  0  0  0  0
  138.8479   74.1478  220.4697 H   0  0  0  0  0  0  0  0  0  0  0  0
  140.1178   75.7024  218.3831 H   0  0  0  0  0  0  0  0  0  0  0  0
  139.0227   76.8580  219.1314 H   0  0  0  0  0  0  0  0  0  0  0  0
  140.8274   77.6277  217.2341 H   0  0  0  0  0  0  0  0  0  0  0  0
  140.4348   78.7275  218.5381 H   0  0  0  0  0  0  0  0  0  0  0  0
  142.7470   76.6945  218.3821 H   0  0  0  0  0  0  0  0  0  0  0  0
  142.9151   78.3981  218.6728 H   0  0  0  0  0  0  0  0  0  0  0  0
  142.8283   76.8652  220.8496 H   0  0  0  0  0  0  0  0  0  0  0  0
  142.2473   79.3367  220.7662 H   0  0  0  0  0  0  0  0  0  0  0  0
  140.5264   78.7635  220.7948 H   0  0  0  0  0  0  0  0  0  0  0  0
  141.8360   77.4220  222.7030 H   0  0  0  0  0  0  0  0  0  0  0  0
  139.1416   69.5709  222.7685 H   0  0  0  0  0  0  0  0  0  0  0  0
  139.0434   68.3879  224.8987 H   0  0  0  0  0  0  0  0  0  0  0  0
  139.5131   68.3589  227.2923 H   0  0  0  0  0  0  0  0  0  0  0  0
  140.4066   69.4593  229.3124 H   0  0  0  0  0  0  0  0  0  0  0  0
  141.3862   71.7524  229.1440 H   0  0  0  0  0  0  0  0  0  0  0  0
  141.4461   72.8849  226.9367 H   0  0  0  0  0  0  0  0  0  0  0  0
  1  2  2  0
  2  3  1  0
  3  4  1  0
  4  5  1  0
  5  6  2  0
  5  7  1  0
  7  8  1  0
  8  9  1  0
  9 10  1  0
 10 11  1  0
 11 12  1  0
 12 13  1  0
  2 14  1  0
 14 15  2  0
 15 16  1  0
 16 17  2  0
 17 18  1  0
 18 19  2  0
 19 20  1  0
 20 21  2  0
 21 22  1  0
 22 23  2  0
 11  7  1  0
 23 14  1  0
 22 17  1  0
  3 24  1  0
  4 25  1  0
  4 26  1  0
  8 27  1  0
  8 28  1  0
  9 29  1  0
  9 30  1  0
 10 31  1  0
 10 32  1  0
 11 33  1  1
 12 34  1  0
 12 35  1  0
 13 36  1  0
 15 37  1  0
 16 38  1  0
 18 39  1  0
 19 40  1  0
 20 41  1  0
 21 42  1  0
M  END
>  <smiles>  (6) 
O=C(NCC(=O)N1CCC[C@H]1CO)c1ccc2ccccc2n1

>  <score_type>  (6) 
oracle

>  <origin>  (6) 
autodockgpu

>  <m_score__min__energy>  (6) 
-6.9299999999999997

>  <m_primary>  (6) 
energy

>  <rmsd>  (6) 
1.4576463896657605

>  <m_score__min__rmsd>  (6) 
1.4576463896657605

>  <meeko>  (6) 
{"free_energy": -6.56, "intermolecular_energy": -8.35, "internal_energy": -2.21, "cluster_size": 35, "cluster_id": 1, "rank_in_cluster": 9}

>  <energy>  (6) 
-6.59

>  <cluster_rmsd>  (6) 
1.4

>  <cluster>  (6) 
1

$$$$

     RDKit          3D

 42 44  0  0  0  0  0  0  0  0999 V2000
  140.4120   71.4050  221.2720 O   0  0  0  0  0  0  0  0  0  0  0  0
  140.1230   72.0380  222.3150 C   0  0  0  0  0  0  0  0  0  0  0  0
  139.8050   73.4200  222.3480 N   0  0  0  0  0  0  0  0  0  0  0  0
  139.8050   74.1960  221.0980 C   0  0  0  0  0  0  0  0  0  0  0  0
  139.9710   75.6000  221.4750 C   0  0  0  0  0  0  0  0  0  0  0  0
  139.9070   75.9630  222.6940 O   0  0  0  0  0  0  0  0  0  0  0  0
  140.2120   76.6650  220.5450 N   0  0  0  0  0  0  0  0  0  0  0  0
  139.1530   77.3040  219.8130 C   0  0  0  0  0  0  0  0  0  0  0  0
  139.8420   78.4040  219.0480 C   0  0  0  0  0  0  0  0  0  0  0  0
  141.2160   77.8490  218.8250 C   0  0  0  0  0  0  0  0  0  0  0  0
  141.5090   77.2570  220.1900 C   0  0  1  0  0  0  0  0  0  0  0  0
  141.8240   78.3090  221.2050 C   0  0  0  0  0  0  0  0  0  0  0  0
  141.4390   77.9180  222.5010 O   0  0  0  0  0  0  0  0  0  0  0  0
  140.1090   71.3060  223.5880 C   0  0  0  0  0  0  0  0  0  0  0  0
  139.6170   70.0110  223.6660 C   0  0  0  0  0  0  0  0  0  0  0  0
  139.5850   69.2970  224.8220 C   0  0  0  0  0  0  0  0  0  0  0  0
  140.0600   69.8710  225.9800 C   0  0  0  0  0  0  0  0  0  0  0  0
  140.0540   69.1950  227.1820 C   0  0  0  0  0  0  0  0  0  0  0  0
  140.5310   69.7790  228.3340 C   0  0  0  0  0  0  0  0  0  0  0  0
  141.0290   71.0720  228.2920 C   0  0  0  0  0  0  0  0  0  0  0  0
  141.0320   71.7460  227.0750 C   0  0  0  0  0  0  0  0  0  0  0  0
  140.5590   71.1760  225.9130 C   0  0  0  0  0  0  0  0  0  0  0  0
  140.5670   71.8430  224.7330 N   0  0  0  0  0  0  0  0  0  0  0  0
  139.5740   73.8780  223.2610 H   0  0  0  0  0  0  0  0  0  0  0  0
  140.6365   73.8758  220.4529 H   0  0  0  0  0  0  0  0  0  0  0  0
  138.8704   74.0444  220.5381 H   0  0  0  0  0  0  0  0  0  0  0  0
  138.6707   76.5938  219.1253 H   0  0  0  0  0  0  0  0  0  0  0  0
  138.3567   77.6835  220.4702 H   0  0  0  0  0  0  0  0  0  0  0  0
  139.3342   78.5988  218.0919 H   0  0  0  0  0  0  0  0  0  0  0  0
  139.8442   79.3668  219.5800 H   0  0  0  0  0  0  0  0  0  0  0  0
  141.2186   77.0780  218.0404 H   0  0  0  0  0  0  0  0  0  0  0  0
  141.9550   78.5876  218.4810 H   0  0  0  0  0  0  0  0  0  0  0  0
  142.3684   76.5707  220.1699 H   0  0  0  0  0  0  0  0  0  0  0  0
  142.9077   78.4977  221.1974 H   0  0  0  0  0  0  0  0  0  0  0  0
  141.2622   79.2172  220.9412 H   0  0  0  0  0  0  0  0  0  0  0  0
  141.7970   77.0370  222.7450 H   0  0  0  0  0  0  0  0  0  0  0  0
  139.2346   69.5398  222.7485 H   0  0  0  0  0  0  0  0  0  0  0  0
  139.1844   68.2726  224.8324 H   0  0  0  0  0  0  0  0  0  0  0  0
  139.6602   68.1686  227.2212 H   0  0  0  0  0  0  0  0  0  0  0  0
  140.5170   69.2225  229.2827 H   0  0  0  0  0  0  0  0  0  0  0  0
  141.4139   71.5551  229.2022 H   0  0  0  0  0  0  0  0  0  0  0  0
  141.4266   72.7721  227.0390 H   0  0  0  0  0  0  0  0  0  0  0  0
  1  2  2  0
  2  3  1  0
  3  4  1  0
  4  5  1  0
  5  6  2  0
  5  7  1  0
  7  8  1  0
  8  9  1  0
  9 10  1  0
 10 11  1  0
 11 12  1  0
 12 13  1  0
  2 14  1  0
 14 15  2  0
 15 16  1  0
 16 17  2  0
 17 18  1  0
 18 19  2  0
 19 20  1  0
 20 21  2  0
 21 22  1  0
 22 23  2  0
 11  7  1  0
 23 14  1  0
 22 17  1  0
  3 24  1  0
  4 25  1  0
  4 26  1  0
  8 27  1  0
  8 28  1  0
  9 29  1  0
  9 30  1  0
 10 31  1  0
 10 32  1  0
 11 33  1  6
 12 34  1  0
 12 35  1  0
 13 36  1  0
 15 37  1  0
 16 38  1  0
 18 39  1  0
 19 40  1  0
 20 41  1  0
 21 42  1  0
M  END
>  <smiles>  (7) 
O=C(NCC(=O)N1CCC[C@H]1CO)c1ccc2ccccc2n1

>  <score_type>  (7) 
oracle

>  <origin>  (7) 
autodockgpu

>  <m_score__min__energy>  (7) 
-6.9299999999999997

>  <m_primary>  (7) 
energy

>  <rmsd>  (7) 
1.5697315046420615

>  <m_score__min__rmsd>  (7) 
1.5697315046420615

>  <meeko>  (7) 
{"free_energy": -6.38, "intermolecular_energy": -8.17, "internal_energy": -2.18, "cluster_size": 35, "cluster_id": 1, "rank_in_cluster": 31}

>  <energy>  (7) 
-6.59

>  <cluster_rmsd>  (7) 
1.94

>  <cluster>  (7) 
1

$$$$

     RDKit          3D

 42 44  0  0  0  0  0  0  0  0999 V2000
  140.5970   73.3340  222.3120 O   0  0  0  0  0  0  0  0  0  0  0  0
  140.6230   72.0810  222.3010 C   0  0  0  0  0  0  0  0  0  0  0  0
  140.9000   71.2990  221.1510 N   0  0  0  0  0  0  0  0  0  0  0  0
  141.1780   71.9630  219.8680 C   0  0  0  0  0  0  0  0  0  0  0  0
  142.5880   71.7170  219.5630 C   0  0  0  0  0  0  0  0  0  0  0  0
  142.9420   70.7020  218.8790 O   0  0  0  0  0  0  0  0  0  0  0  0
  143.6670   72.5580  219.9890 N   0  0  0  0  0  0  0  0  0  0  0  0
  144.4180   72.3020  221.1880 C   0  0  0  0  0  0  0  0  0  0  0  0
  145.4910   73.3600  221.1860 C   0  0  0  0  0  0  0  0  0  0  0  0
  144.8390   74.5000  220.4640 C   0  0  0  0  0  0  0  0  0  0  0  0
  144.1700   73.7660  219.3180 C   0  0  1  0  0  0  0  0  0  0  0  0
  145.1500   73.3340  218.2750 C   0  0  0  0  0  0  0  0  0  0  0  0
  145.6770   72.0580  218.5480 O   0  0  0  0  0  0  0  0  0  0  0  0
  140.3520   71.3720  223.5580 C   0  0  0  0  0  0  0  0  0  0  0  0
  139.6280   70.1880  223.5720 C   0  0  0  0  0  0  0  0  0  0  0  0
  139.3530   69.4990  224.7110 C   0  0  0  0  0  0  0  0  0  0  0  0
  139.8080   69.9830  225.9160 C   0  0  0  0  0  0  0  0  0  0  0  0
  139.5610   69.3270  227.1040 C   0  0  0  0  0  0  0  0  0  0  0  0
  140.0210   69.8210  228.3030 C   0  0  0  0  0  0  0  0  0  0  0  0
  140.7470   71.0010  228.3260 C   0  0  0  0  0  0  0  0  0  0  0  0
  140.9930   71.6570  227.1230 C   0  0  0  0  0  0  0  0  0  0  0  0
  140.5400   71.1760  225.9140 C   0  0  0  0  0  0  0  0  0  0  0  0
  140.7850   71.8230  224.7490 N   0  0  0  0  0  0  0  0  0  0  0  0
  140.9040   70.2540  221.2220 H   0  0  0  0  0  0  0  0  0  0  0  0
  140.5401   71.5415  219.0771 H   0  0  0  0  0  0  0  0  0  0  0  0
  140.9687   73.0413  219.9274 H   0  0  0  0  0  0  0  0  0  0  0  0
  143.7776   72.3977  222.0772 H   0  0  0  0  0  0  0  0  0  0  0  0
  144.8315   71.2831  221.2163 H   0  0  0  0  0  0  0  0  0  0  0  0
  145.7653   73.6469  222.2119 H   0  0  0  0  0  0  0  0  0  0  0  0
  146.4273   73.0269  220.7144 H   0  0  0  0  0  0  0  0  0  0  0  0
  144.1032   75.0139  221.0999 H   0  0  0  0  0  0  0  0  0  0  0  0
  145.5306   75.2966  220.1524 H   0  0  0  0  0  0  0  0  0  0  0  0
  143.4204   74.3882  218.8071 H   0  0  0  0  0  0  0  0  0  0  0  0
  144.6429   73.3082  217.2992 H   0  0  0  0  0  0  0  0  0  0  0  0
  145.9823   74.0532  218.2698 H   0  0  0  0  0  0  0  0  0  0  0  0
  144.9740   71.3800  218.6500 H   0  0  0  0  0  0  0  0  0  0  0  0
  139.2592   69.7882  222.6159 H   0  0  0  0  0  0  0  0  0  0  0  0
  138.7733   68.5651  224.6699 H   0  0  0  0  0  0  0  0  0  0  0  0
  138.9847   68.3901  227.0926 H   0  0  0  0  0  0  0  0  0  0  0  0
  139.8134   69.2817  229.2389 H   0  0  0  0  0  0  0  0  0  0  0  0
  141.1214   71.4111  229.2756 H   0  0  0  0  0  0  0  0  0  0  0  0
  141.5700   72.5934  227.1383 H   0  0  0  0  0  0  0  0  0  0  0  0
  1  2  2  0
  2  3  1  0
  3  4  1  0
  4  5  1  0
  5  6  2  0
  5  7  1  0
  7  8  1  0
  8  9  1  0
  9 10  1  0
 10 11  1  0
 11 12  1  0
 12 13  1  0
  2 14  1  0
 14 15  2  0
 15 16  1  0
 16 17  2  0
 17 18  1  0
 18 19  2  0
 19 20  1  0
 20 21  2  0
 21 22  1  0
 22 23  2  0
 11  7  1  0
 23 14  1  0
 22 17  1  0
  3 24  1  0
  4 25  1  0
  4 26  1  0
  8 27  1  0
  8 28  1  0
  9 29  1  0
  9 30  1  0
 10 31  1  0
 10 32  1  0
 11 33  1  6
 12 34  1  0
 12 35  1  0
 13 36  1  0
 15 37  1  0
 16 38  1  0
 18 39  1  0
 19 40  1  0
 20 41  1  0
 21 42  1  0
M  END
>  <smiles>  (8) 
O=C(NCC(=O)N1CCC[C@H]1CO)c1ccc2ccccc2n1

>  <score_type>  (8) 
oracle

>  <origin>  (8) 
autodockgpu

>  <m_score__min__energy>  (8) 
-6.9299999999999997

>  <m_primary>  (8) 
energy

>  <rmsd>  (8) 
4.01534291103745

>  <m_score__min__rmsd>  (8) 
4.01534291103745

>  <meeko>  (8) 
{"free_energy": -6.59, "intermolecular_energy": -8.38, "internal_energy": -1.79, "cluster_size": 1, "cluster_id": 3, "rank_in_cluster": 1}

>  <energy>  (8) 
-6.57

>  <cluster_rmsd>  (8) 
1.27

>  <cluster>  (8) 
1

$$$$

     RDKit          3D

 42 44  0  0  0  0  0  0  0  0999 V2000
  140.5470   71.0150  221.5560 O   0  0  0  0  0  0  0  0  0  0  0  0
  140.6380   72.0290  222.2890 C   0  0  0  0  0  0  0  0  0  0  0  0
  140.3530   72.0370  223.6780 N   0  0  0  0  0  0  0  0  0  0  0  0
  139.9200   70.7960  224.3400 C   0  0  0  0  0  0  0  0  0  0  0  0
  140.3750   70.8770  225.7280 C   0  0  0  0  0  0  0  0  0  0  0  0
  140.7510   71.9870  226.2290 O   0  0  0  0  0  0  0  0  0  0  0  0
  140.4410   69.7610  226.6250 N   0  0  0  0  0  0  0  0  0  0  0  0
  140.3660   69.9140  228.0530 C   0  0  0  0  0  0  0  0  0  0  0  0
  140.3770   68.5020  228.5780 C   0  0  0  0  0  0  0  0  0  0  0  0
  141.1740   67.7650  227.5440 C   0  0  0  0  0  0  0  0  0  0  0  0
  140.5910   68.3430  226.2690 C   0  0  1  0  0  0  0  0  0  0  0  0
  139.2300   67.8000  225.9740 C   0  0  0  0  0  0  0  0  0  0  0  0
  139.1140   67.3790  224.6350 O   0  0  0  0  0  0  0  0  0  0  0  0
  141.0670   73.2910  221.6740 C   0  0  0  0  0  0  0  0  0  0  0  0
  141.9790   73.3070  220.6290 C   0  0  0  0  0  0  0  0  0  0  0  0
  142.4040   74.4520  220.0320 C   0  0  0  0  0  0  0  0  0  0  0  0
  141.9160   75.6610  220.4720 C   0  0  0  0  0  0  0  0  0  0  0  0
  142.3090   76.8550  219.9040 C   0  0  0  0  0  0  0  0  0  0  0  0
  141.8150   78.0580  220.3520 C   0  0  0  0  0  0  0  0  0  0  0  0
  140.9020   78.0790  221.3950 C   0  0  0  0  0  0  0  0  0  0  0  0
  140.5100   76.8700  221.9620 C   0  0  0  0  0  0  0  0  0  0  0  0
  140.9950   75.6570  221.5250 C   0  0  0  0  0  0  0  0  0  0  0  0
  140.6050   74.4860  222.0860 N   0  0  0  0  0  0  0  0  0  0  0  0
  140.4520   72.9250  224.2240 H   0  0  0  0  0  0  0  0  0  0  0  0
  138.8239   70.7106  224.3051 H   0  0  0  0  0  0  0  0  0  0  0  0
  140.3409   69.9127  223.8374 H   0  0  0  0  0  0  0  0  0  0  0  0
  141.2320   70.4773  228.4308 H   0  0  0  0  0  0  0  0  0  0  0  0
  139.4739   70.4741  228.3701 H   0  0  0  0  0  0  0  0  0  0  0  0
  140.8633   68.4501  229.5633 H   0  0  0  0  0  0  0  0  0  0  0  0
  139.3694   68.0865  228.7266 H   0  0  0  0  0  0  0  0  0  0  0  0
  142.2490   67.9812  227.6318 H   0  0  0  0  0  0  0  0  0  0  0  0
  141.1113   66.6692  227.6171 H   0  0  0  0  0  0  0  0  0  0  0  0
  141.2147   68.1242  225.3897 H   0  0  0  0  0  0  0  0  0  0  0  0
  139.0380   66.9420  226.6350 H   0  0  0  0  0  0  0  0  0  0  0  0
  138.4972   68.6024  226.1449 H   0  0  0  0  0  0  0  0  0  0  0  0
  139.9660   67.0540  224.2720 H   0  0  0  0  0  0  0  0  0  0  0  0
  142.3772   72.3479  220.2662 H   0  0  0  0  0  0  0  0  0  0  0  0
  143.1299   74.4125  219.2064 H   0  0  0  0  0  0  0  0  0  0  0  0
  143.0325   76.8449  219.0755 H   0  0  0  0  0  0  0  0  0  0  0  0
  142.1427   78.9985  219.8851 H   0  0  0  0  0  0  0  0  0  0  0  0
  140.4959   79.0313  221.7667 H   0  0  0  0  0  0  0  0  0  0  0  0
  139.7859   76.8835  222.7900 H   0  0  0  0  0  0  0  0  0  0  0  0
  1  2  2  0
  2  3  1  0
  3  4  1  0
  4  5  1  0
  5  6  2  0
  5  7  1  0
  7  8  1  0
  8  9  1  0
  9 10  1  0
 10 11  1  0
 11 12  1  0
 12 13  1  0
  2 14  1  0
 14 15  2  0
 15 16  1  0
 16 17  2  0
 17 18  1  0
 18 19  2  0
 19 20  1  0
 20 21  2  0
 21 22  1  0
 22 23  2  0
 11  7  1  0
 23 14  1  0
 22 17  1  0
  3 24  1  0
  4 25  1  0
  4 26  1  0
  8 27  1  0
  8 28  1  0
  9 29  1  0
  9 30  1  0
 10 31  1  0
 10 32  1  0
 11 33  1  6
 12 34  1  0
 12 35  1  0
 13 36  1  0
 15 37  1  0
 16 38  1  0
 18 39  1  0
 19 40  1  0
 20 41  1  0
 21 42  1  0
M  END
>  <smiles>  (9) 
O=C(NCC(=O)N1CCC[C@H]1CO)c1ccc2ccccc2n1

>  <score_type>  (9) 
oracle

>  <origin>  (9) 
autodockgpu

>  <m_score__min__energy>  (9) 
-6.9299999999999997

>  <m_primary>  (9) 
energy

>  <rmsd>  (9) 
9.062492945038025

>  <m_score__min__rmsd>  (9) 
9.062492945038025

>  <meeko>  (9) 
{"free_energy": -6.83, "intermolecular_energy": -8.62, "internal_energy": -1.62, "cluster_size": 4, "cluster_id": 2, "rank_in_cluster": 2}

>  <energy>  (9) 
-6.56

>  <cluster_rmsd>  (9) 
1.33

>  <cluster>  (9) 
1

$$$$

     RDKit          3D

 42 44  0  0  0  0  0  0  0  0999 V2000
  140.7610   71.4460  221.3260 O   0  0  0  0  0  0  0  0  0  0  0  0
  140.3240   72.0840  222.3130 C   0  0  0  0  0  0  0  0  0  0  0  0
  139.9450   73.4500  222.2760 N   0  0  0  0  0  0  0  0  0  0  0  0
  140.0590   74.2030  221.0170 C   0  0  0  0  0  0  0  0  0  0  0  0
  140.2980   75.6000  221.3820 C   0  0  0  0  0  0  0  0  0  0  0  0
  140.1860   75.9900  222.5900 O   0  0  0  0  0  0  0  0  0  0  0  0
  140.6680   76.6270  220.4530 N   0  0  0  0  0  0  0  0  0  0  0  0
  139.8550   76.9690  219.3180 C   0  0  0  0  0  0  0  0  0  0  0  0
  140.5660   78.1400  218.6910 C   0  0  0  0  0  0  0  0  0  0  0  0
  142.0020   77.8850  219.0360 C   0  0  0  0  0  0  0  0  0  0  0  0
  141.8760   77.4640  220.4880 C   0  0  1  0  0  0  0  0  0  0  0  0
  141.6010   78.6240  221.3900 C   0  0  0  0  0  0  0  0  0  0  0  0
  141.7910   78.2910  222.7440 O   0  0  0  0  0  0  0  0  0  0  0  0
  140.1920   71.3750  223.5930 C   0  0  0  0  0  0  0  0  0  0  0  0
  139.5650   70.1400  223.6670 C   0  0  0  0  0  0  0  0  0  0  0  0
  139.4200   69.4500  224.8300 C   0  0  0  0  0  0  0  0  0  0  0  0
  139.9140   69.9870  225.9960 C   0  0  0  0  0  0  0  0  0  0  0  0
  139.7980   69.3330  227.2050 C   0  0  0  0  0  0  0  0  0  0  0  0
  140.2960   69.8790  228.3660 C   0  0  0  0  0  0  0  0  0  0  0  0
  140.9270   71.1120  228.3270 C   0  0  0  0  0  0  0  0  0  0  0  0
  141.0410   71.7660  227.1040 C   0  0  0  0  0  0  0  0  0  0  0  0
  140.5490   71.2320  225.9330 C   0  0  0  0  0  0  0  0  0  0  0  0
  140.6650   71.8780  224.7470 N   0  0  0  0  0  0  0  0  0  0  0  0
  139.5880   73.9140  223.1450 H   0  0  0  0  0  0  0  0  0  0  0  0
  140.8990   73.8182  220.4200 H   0  0  0  0  0  0  0  0  0  0  0  0
  139.1456   74.1030  220.4123 H   0  0  0  0  0  0  0  0  0  0  0  0
  139.7952   76.1265  218.6133 H   0  0  0  0  0  0  0  0  0  0  0  0
  138.8188   77.2078  219.5996 H   0  0  0  0  0  0  0  0  0  0  0  0
  140.4177   78.1554  217.6011 H   0  0  0  0  0  0  0  0  0  0  0  0
  140.1996   79.1131  219.0500 H   0  0  0  0  0  0  0  0  0  0  0  0
  142.4304   77.0824  218.4177 H   0  0  0  0  0  0  0  0  0  0  0  0
  142.6698   78.7426  218.8671 H   0  0  0  0  0  0  0  0  0  0  0  0
  142.7918   76.9835  220.8628 H   0  0  0  0  0  0  0  0  0  0  0  0
  142.2808   79.4480  221.1274 H   0  0  0  0  0  0  0  0  0  0  0  0
  140.5501   78.9196  221.2553 H   0  0  0  0  0  0  0  0  0  0  0  0
  141.8710   77.3230  222.8820 H   0  0  0  0  0  0  0  0  0  0  0  0
  139.1664   69.6980  222.7419 H   0  0  0  0  0  0  0  0  0  0  0  0
  138.9134   68.4736  224.8381 H   0  0  0  0  0  0  0  0  0  0  0  0
  139.2969   68.3545  227.2419 H   0  0  0  0  0  0  0  0  0  0  0  0
  140.1937   69.3398  229.3193 H   0  0  0  0  0  0  0  0  0  0  0  0
  141.3299   71.5650  229.2448 H   0  0  0  0  0  0  0  0  0  0  0  0
  141.5420   72.7447  227.0709 H   0  0  0  0  0  0  0  0  0  0  0  0
  1  2  2  0
  2  3  1  0
  3  4  1  0
  4  5  1  0
  5  6  2  0
  5  7  1  0
  7  8  1  0
  8  9  1  0
  9 10  1  0
 10 11  1  0
 11 12  1  0
 12 13  1  0
  2 14  1  0
 14 15  2  0
 15 16  1  0
 16 17  2  0
 17 18  1  0
 18 19  2  0
 19 20  1  0
 20 21  2  0
 21 22  1  0
 22 23  2  0
 11  7  1  0
 23 14  1  0
 22 17  1  0
  3 24  1  0
  4 25  1  0
  4 26  1  0
  8 27  1  0
  8 28  1  0
  9 29  1  0
  9 30  1  0
 10 31  1  0
 10 32  1  0
 11 33  1  1
 12 34  1  0
 12 35  1  0
 13 36  1  0
 15 37  1  0
 16 38  1  0
 18 39  1  0
 19 40  1  0
 20 41  1  0
 21 42  1  0
M  END
>  <smiles>  (10) 
O=C(NCC(=O)N1CCC[C@H]1CO)c1ccc2ccccc2n1

>  <score_type>  (10) 
oracle

>  <origin>  (10) 
autodockgpu

>  <m_score__min__energy>  (10) 
-6.9299999999999997

>  <m_primary>  (10) 
energy

>  <rmsd>  (10) 
1.5995145926971002

>  <m_score__min__rmsd>  (10) 
1.5995145926971002

>  <meeko>  (10) 
{"free_energy": -6.55, "intermolecular_energy": -8.34, "internal_energy": -2.2, "cluster_size": 35, "cluster_id": 1, "rank_in_cluster": 11}

>  <energy>  (10) 
-6.55

>  <cluster_rmsd>  (10) 
1.32

>  <cluster>  (10) 
1

$$$$

     RDKit          3D

 42 44  0  0  0  0  0  0  0  0999 V2000
  139.6800   74.1630  222.3290 O   0  0  0  0  0  0  0  0  0  0  0  0
  140.2390   75.0390  221.6280 C   0  0  0  0  0  0  0  0  0  0  0  0
  140.8590   74.7840  220.3770 N   0  0  0  0  0  0  0  0  0  0  0  0
  140.8680   73.4160  219.8350 C   0  0  0  0  0  0  0  0  0  0  0  0
  142.0190   72.7360  220.4290 C   0  0  0  0  0  0  0  0  0  0  0  0
  141.8680   71.6770  221.1210 O   0  0  0  0  0  0  0  0  0  0  0  0
  143.3770   73.1760  220.2960 N   0  0  0  0  0  0  0  0  0  0  0  0
  144.4230   72.3170  219.8130 C   0  0  0  0  0  0  0  0  0  0  0  0
  145.6360   73.2090  219.7480 C   0  0  0  0  0  0  0  0  0  0  0  0
  145.3820   74.2010  220.8430 C   0  0  0  0  0  0  0  0  0  0  0  0
  143.9140   74.5070  220.6150 C   0  0  1  0  0  0  0  0  0  0  0  0
  143.6980   75.3830  219.4230 C   0  0  0  0  0  0  0  0  0  0  0  0
  143.0640   76.5910  219.7700 O   0  0  0  0  0  0  0  0  0  0  0  0
  140.2550   76.4190  222.1270 C   0  0  0  0  0  0  0  0  0  0  0  0
  139.0960   77.0320  222.5810 C   0  0  0  0  0  0  0  0  0  0  0  0
  139.0650   78.3070  223.0510 C   0  0  0  0  0  0  0  0  0  0  0  0
  140.2290   79.0390  223.0850 C   0  0  0  0  0  0  0  0  0  0  0  0
  140.2600   80.3370  223.5510 C   0  0  0  0  0  0  0  0  0  0  0  0
  141.4300   81.0600  223.5810 C   0  0  0  0  0  0  0  0  0  0  0  0
  142.6070   80.4790  223.1340 C   0  0  0  0  0  0  0  0  0  0  0  0
  142.5680   79.1690  222.6650 C   0  0  0  0  0  0  0  0  0  0  0  0
  141.4050   78.4320  222.6300 C   0  0  0  0  0  0  0  0  0  0  0  0
  141.3790   77.1570  222.1710 N   0  0  0  0  0  0  0  0  0  0  0  0
  141.3060   75.5700  219.8490 H   0  0  0  0  0  0  0  0  0  0  0  0
  139.9382   72.8946  220.1063 H   0  0  0  0  0  0  0  0  0  0  0  0
  140.9375   73.4258  218.7372 H   0  0  0  0  0  0  0  0  0  0  0  0
  144.5914   71.4800  220.5065 H   0  0  0  0  0  0  0  0  0  0  0  0
  144.1805   71.8653  218.8398 H   0  0  0  0  0  0  0  0  0  0  0  0
  146.5573   72.6384  219.9369 H   0  0  0  0  0  0  0  0  0  0  0  0
  145.7786   73.6769  218.7627 H   0  0  0  0  0  0  0  0  0  0  0  0
  145.5541   73.7605  221.8361 H   0  0  0  0  0  0  0  0  0  0  0  0
  146.0397   75.0825  220.8203 H   0  0  0  0  0  0  0  0  0  0  0  0
  143.4592   75.0243  221.4727 H   0  0  0  0  0  0  0  0  0  0  0  0
  144.6728   75.6107  218.9671 H   0  0  0  0  0  0  0  0  0  0  0  0
  143.0473   74.8458  218.7173 H   0  0  0  0  0  0  0  0  0  0  0  0
  142.9420   76.6830  220.7400 H   0  0  0  0  0  0  0  0  0  0  0  0
  138.1574   76.4588  222.5595 H   0  0  0  0  0  0  0  0  0  0  0  0
  138.1199   78.7484  223.4002 H   0  0  0  0  0  0  0  0  0  0  0  0
  139.3294   80.8038  223.9061 H   0  0  0  0  0  0  0  0  0  0  0  0
  141.4318   82.0935  223.9576 H   0  0  0  0  0  0  0  0  0  0  0  0
  143.5520   81.0417  223.1497 H   0  0  0  0  0  0  0  0  0  0  0  0
  143.5000   78.7055  222.3093 H   0  0  0  0  0  0  0  0  0  0  0  0
  1  2  2  0
  2  3  1  0
  3  4  1  0
  4  5  1  0
  5  6  2  0
  5  7  1  0
  7  8  1  0
  8  9  1  0
  9 10  1  0
 10 11  1  0
 11 12  1  0
 12 13  1  0
  2 14  1  0
 14 15  2  0
 15 16  1  0
 16 17  2  0
 17 18  1  0
 18 19  2  0
 19 20  1  0
 20 21  2  0
 21 22  1  0
 22 23  2  0
 11  7  1  0
 23 14  1  0
 22 17  1  0
  3 24  1  0
  4 25  1  0
  4 26  1  0
  8 27  1  0
  8 28  1  0
  9 29  1  0
  9 30  1  0
 10 31  1  0
 10 32  1  0
 11 33  1  1
 12 34  1  0
 12 35  1  0
 13 36  1  0
 15 37  1  0
 16 38  1  0
 18 39  1  0
 19 40  1  0
 20 41  1  0
 21 42  1  0
M  END
>  <smiles>  (11) 
O=C(NCC(=O)N1CCC[C@H]1CO)c1ccc2ccccc2n1

>  <score_type>  (11) 
oracle

>  <origin>  (11) 
autodockgpu

>  <m_score__min__energy>  (11) 
-6.9299999999999997

>  <m_primary>  (11) 
energy

>  <rmsd>  (11) 
7.502136033476079

>  <m_score__min__rmsd>  (11) 
7.502136033476079

>  <meeko>  (11) 
{"free_energy": -6.08, "intermolecular_energy": -7.87, "internal_energy": -2.71, "cluster_size": 10, "cluster_id": 4, "rank_in_cluster": 4}

>  <energy>  (11) 
-6.55

>  <cluster_rmsd>  (11) 
1.3

>  <cluster>  (11) 
1

$$$$

     RDKit          3D

 42 44  0  0  0  0  0  0  0  0999 V2000
  139.8350   71.1760  221.2230 O   0  0  0  0  0  0  0  0  0  0  0  0
  139.7850   71.8770  222.2610 C   0  0  0  0  0  0  0  0  0  0  0  0
  139.6400   73.2880  222.2650 N   0  0  0  0  0  0  0  0  0  0  0  0
  139.5390   74.0130  220.9890 C   0  0  0  0  0  0  0  0  0  0  0  0
  140.2980   75.2540  221.1490 C   0  0  0  0  0  0  0  0  0  0  0  0
  140.4320   75.7970  222.2930 O   0  0  0  0  0  0  0  0  0  0  0  0
  140.9390   75.9540  220.0750 N   0  0  0  0  0  0  0  0  0  0  0  0
  140.4350   75.9310  218.7290 C   0  0  0  0  0  0  0  0  0  0  0  0
  141.3470   76.8630  217.9740 C   0  0  0  0  0  0  0  0  0  0  0  0
  142.6450   76.7350  218.7140 C   0  0  0  0  0  0  0  0  0  0  0  0
  142.1580   76.7720  220.1500 C   0  0  1  0  0  0  0  0  0  0  0  0
  141.7590   78.1490  220.5750 C   0  0  0  0  0  0  0  0  0  0  0  0
  141.6880   78.2640  221.9760 O   0  0  0  0  0  0  0  0  0  0  0  0
  139.8800   71.1990  223.5600 C   0  0  0  0  0  0  0  0  0  0  0  0
  139.4880   69.8760  223.7100 C   0  0  0  0  0  0  0  0  0  0  0  0
  139.5590   69.2100  224.8930 C   0  0  0  0  0  0  0  0  0  0  0  0
  140.0400   69.8630  226.0040 C   0  0  0  0  0  0  0  0  0  0  0  0
  140.1360   69.2390  227.2300 C   0  0  0  0  0  0  0  0  0  0  0  0
  140.6180   69.9020  228.3360 C   0  0  0  0  0  0  0  0  0  0  0  0
  141.0170   71.2240  228.2220 C   0  0  0  0  0  0  0  0  0  0  0  0
  140.9180   71.8470  226.9820 C   0  0  0  0  0  0  0  0  0  0  0  0
  140.4380   71.1970  225.8660 C   0  0  0  0  0  0  0  0  0  0  0  0
  140.3460   71.8140  224.6620 N   0  0  0  0  0  0  0  0  0  0  0  0
  139.6060   73.8050  223.1760 H   0  0  0  0  0  0  0  0  0  0  0  0
  139.9668   73.4093  220.1751 H   0  0  0  0  0  0  0  0  0  0  0  0
  138.4893   74.2213  220.7344 H   0  0  0  0  0  0  0  0  0  0  0  0
  140.4846   74.9144  218.3117 H   0  0  0  0  0  0  0  0  0  0  0  0
  139.3799   76.2363  218.6701 H   0  0  0  0  0  0  0  0  0  0  0  0
  141.4562   76.5469  216.9261 H   0  0  0  0  0  0  0  0  0  0  0  0
  140.9722   77.8963  217.9303 H   0  0  0  0  0  0  0  0  0  0  0  0
  143.1512   75.7862  218.4825 H   0  0  0  0  0  0  0  0  0  0  0  0
  143.3891   77.5060  218.4653 H   0  0  0  0  0  0  0  0  0  0  0  0
  142.9282   76.4342  220.8590 H   0  0  0  0  0  0  0  0  0  0  0  0
  142.5007   78.8675  220.1960 H   0  0  0  0  0  0  0  0  0  0  0  0
  140.7602   78.3576  220.1639 H   0  0  0  0  0  0  0  0  0  0  0  0
  141.8470   77.4070  222.4290 H   0  0  0  0  0  0  0  0  0  0  0  0
  139.1016   69.3410  222.8300 H   0  0  0  0  0  0  0  0  0  0  0  0
  139.2355   68.1608  224.9610 H   0  0  0  0  0  0  0  0  0  0  0  0
  139.8209   68.1895  227.3262 H   0  0  0  0  0  0  0  0  0  0  0  0
  140.6860   69.3852  229.3047 H   0  0  0  0  0  0  0  0  0  0  0  0
  141.4044   71.7702  229.0947 H   0  0  0  0  0  0  0  0  0  0  0  0
  141.2344   72.8964  226.8892 H   0  0  0  0  0  0  0  0  0  0  0  0
  1  2  2  0
  2  3  1  0
  3  4  1  0
  4  5  1  0
  5  6  2  0
  5  7  1  0
  7  8  1  0
  8  9  1  0
  9 10  1  0
 10 11  1  0
 11 12  1  0
 12 13  1  0
  2 14  1  0
 14 15  2  0
 15 16  1  0
 16 17  2  0
 17 18  1  0
 18 19  2  0
 19 20  1  0
 20 21  2  0
 21 22  1  0
 22 23  2  0
 11  7  1  0
 23 14  1  0
 22 17  1  0
  3 24  1  0
  4 25  1  0
  4 26  1  0
  8 27  1  0
  8 28  1  0
  9 29  1  0
  9 30  1  0
 10 31  1  0
 10 32  1  0
 11 33  1  1
 12 34  1  0
 12 35  1  0
 13 36  1  0
 15 37  1  0
 16 38  1  0
 18 39  1  0
 19 40  1  0
 20 41  1  0
 21 42  1  0
M  END
>  <smiles>  (12) 
O=C(NCC(=O)N1CCC[C@H]1CO)c1ccc2ccccc2n1

>  <score_type>  (12) 
oracle

>  <origin>  (12) 
autodockgpu

>  <m_score__min__energy>  (12) 
-6.9299999999999997

>  <m_primary>  (12) 
energy

>  <rmsd>  (12) 
1.3345143999809934

>  <m_score__min__rmsd>  (12) 
1.3345143999809934

>  <meeko>  (12) 
{"free_energy": -6.49, "intermolecular_energy": -8.28, "internal_energy": -2.21, "cluster_size": 35, "cluster_id": 1, "rank_in_cluster": 16}

>  <energy>  (12) 
-6.51

>  <cluster_rmsd>  (12) 
1.3

>  <cluster>  (12) 
1

$$$$

     RDKit          3D

 42 44  0  0  0  0  0  0  0  0999 V2000
  141.5780   72.3880  221.5910 O   0  0  0  0  0  0  0  0  0  0  0  0
  140.6380   72.6430  222.3790 C   0  0  0  0  0  0  0  0  0  0  0  0
  139.8650   73.8320  222.3410 N   0  0  0  0  0  0  0  0  0  0  0  0
  140.1560   74.8570  221.3260 C   0  0  0  0  0  0  0  0  0  0  0  0
  139.8280   76.1500  221.9270 C   0  0  0  0  0  0  0  0  0  0  0  0
  138.8140   76.2810  222.6870 O   0  0  0  0  0  0  0  0  0  0  0  0
  140.5850   77.3510  221.7270 N   0  0  0  0  0  0  0  0  0  0  0  0
  141.1740   77.6890  220.4600 C   0  0  0  0  0  0  0  0  0  0  0  0
  141.7770   79.0520  220.6830 C   0  0  0  0  0  0  0  0  0  0  0  0
  142.1270   79.0300  222.1400 C   0  0  0  0  0  0  0  0  0  0  0  0
  140.8820   78.3900  222.7230 C   0  0  1  0  0  0  0  0  0  0  0  0
  139.7240   79.3350  222.7550 C   0  0  0  0  0  0  0  0  0  0  0  0
  138.6310   78.8010  223.4630 O   0  0  0  0  0  0  0  0  0  0  0  0
  140.3090   71.6510  223.4100 C   0  0  0  0  0  0  0  0  0  0  0  0
  139.6020   70.4990  223.0970 C   0  0  0  0  0  0  0  0  0  0  0  0
  139.2760   69.5540  224.0190 C   0  0  0  0  0  0  0  0  0  0  0  0
  139.6570   69.7330  225.3290 C   0  0  0  0  0  0  0  0  0  0  0  0
  139.3560   68.8090  226.3070 C   0  0  0  0  0  0  0  0  0  0  0  0
  139.7420   68.9990  227.6150 C   0  0  0  0  0  0  0  0  0  0  0  0
  140.4490   70.1390  227.9620 C   0  0  0  0  0  0  0  0  0  0  0  0
  140.7500   71.0660  226.9690 C   0  0  0  0  0  0  0  0  0  0  0  0
  140.3710   70.8910  225.6560 C   0  0  0  0  0  0  0  0  0  0  0  0
  140.6700   71.8020  224.6970 N   0  0  0  0  0  0  0  0  0  0  0  0
  139.0940   73.9740  223.0350 H   0  0  0  0  0  0  0  0  0  0  0  0
  141.2206   74.8262  221.0507 H   0  0  0  0  0  0  0  0  0  0  0  0
  139.5690   74.6858  220.4116 H   0  0  0  0  0  0  0  0  0  0  0  0
  141.9499   76.9598  220.1838 H   0  0  0  0  0  0  0  0  0  0  0  0
  140.4409   77.6822  219.6400 H   0  0  0  0  0  0  0  0  0  0  0  0
  142.6743   79.1939  220.0627 H   0  0  0  0  0  0  0  0  0  0  0  0
  141.1003   79.8757  220.4116 H   0  0  0  0  0  0  0  0  0  0  0  0
  143.0227   78.4210  222.3318 H   0  0  0  0  0  0  0  0  0  0  0  0
  142.3732   80.0148  222.5636 H   0  0  0  0  0  0  0  0  0  0  0  0
  141.0365   78.0454  223.7561 H   0  0  0  0  0  0  0  0  0  0  0  0
  140.0407   80.2694  223.2414 H   0  0  0  0  0  0  0  0  0  0  0  0
  139.4032   79.5168  221.7186 H   0  0  0  0  0  0  0  0  0  0  0  0
  138.4750   77.8560  223.2470 H   0  0  0  0  0  0  0  0  0  0  0  0
  139.2904   70.3426  222.0537 H   0  0  0  0  0  0  0  0  0  0  0  0
  138.7140   68.6566  223.7209 H   0  0  0  0  0  0  0  0  0  0  0  0
  138.7961   67.9015  226.0369 H   0  0  0  0  0  0  0  0  0  0  0  0
  139.4905   68.2499  228.3802 H   0  0  0  0  0  0  0  0  0  0  0  0
  140.7660   70.3078  229.0017 H   0  0  0  0  0  0  0  0  0  0  0  0
  141.3111   71.9718  227.2423 H   0  0  0  0  0  0  0  0  0  0  0  0
  1  2  2  0
  2  3  1  0
  3  4  1  0
  4  5  1  0
  5  6  2  0
  5  7  1  0
  7  8  1  0
  8  9  1  0
  9 10  1  0
 10 11  1  0
 11 12  1  0
 12 13  1  0
  2 14  1  0
 14 15  2  0
 15 16  1  0
 16 17  2  0
 17 18  1  0
 18 19  2  0
 19 20  1  0
 20 21  2  0
 21 22  1  0
 22 23  2  0
 11  7  1  0
 23 14  1  0
 22 17  1  0
  3 24  1  0
  4 25  1  0
  4 26  1  0
  8 27  1  0
  8 28  1  0
  9 29  1  0
  9 30  1  0
 10 31  1  0
 10 32  1  0
 11 33  1  1
 12 34  1  0
 12 35  1  0
 13 36  1  0
 15 37  1  0
 16 38  1  0
 18 39  1  0
 19 40  1  0
 20 41  1  0
 21 42  1  0
M  END
>  <smiles>  (13) 
O=C(NCC(=O)N1CCC[C@H]1CO)c1ccc2ccccc2n1

>  <score_type>  (13) 
oracle

>  <origin>  (13) 
autodockgpu

>  <m_score__min__energy>  (13) 
-6.9299999999999997

>  <m_primary>  (13) 
energy

>  <rmsd>  (13) 
2.7692613873553156

>  <m_score__min__rmsd>  (13) 
2.7692613873553156

>  <meeko>  (13) 
{"free_energy": -6.43, "intermolecular_energy": -8.22, "internal_energy": -2.03, "cluster_size": 35, "cluster_id": 1, "rank_in_cluster": 28}

>  <energy>  (13) 
-6.51

>  <cluster_rmsd>  (13) 
1.37

>  <cluster>  (13) 
1

$$$$

     RDKit          3D

 42 44  0  0  0  0  0  0  0  0999 V2000
  139.8360   71.0240  221.2240 O   0  0  0  0  0  0  0  0  0  0  0  0
  139.7810   71.7290  222.2590 C   0  0  0  0  0  0  0  0  0  0  0  0
  139.6610   73.1420  222.2560 N   0  0  0  0  0  0  0  0  0  0  0  0
  139.5950   73.8640  220.9750 C   0  0  0  0  0  0  0  0  0  0  0  0
  140.4860   75.0190  221.0970 C   0  0  0  0  0  0  0  0  0  0  0  0
  140.7250   75.5450  222.2320 O   0  0  0  0  0  0  0  0  0  0  0  0
  141.1500   75.6480  219.9930 N   0  0  0  0  0  0  0  0  0  0  0  0
  140.7260   75.4630  218.6310 C   0  0  0  0  0  0  0  0  0  0  0  0
  141.6300   76.3700  217.8360 C   0  0  0  0  0  0  0  0  0  0  0  0
  142.8860   76.3930  218.6520 C   0  0  0  0  0  0  0  0  0  0  0  0
  142.3160   76.5410  220.0500 C   0  0  1  0  0  0  0  0  0  0  0  0
  141.8180   77.9260  220.3120 C   0  0  0  0  0  0  0  0  0  0  0  0
  141.4990   78.1190  221.6690 O   0  0  0  0  0  0  0  0  0  0  0  0
  139.8430   71.0540  223.5610 C   0  0  0  0  0  0  0  0  0  0  0  0
  139.3520   69.7670  223.7270 C   0  0  0  0  0  0  0  0  0  0  0  0
  139.3890   69.1050  224.9130 C   0  0  0  0  0  0  0  0  0  0  0  0
  139.9350   69.7260  226.0130 C   0  0  0  0  0  0  0  0  0  0  0  0
  140.0000   69.1040  227.2420 C   0  0  0  0  0  0  0  0  0  0  0  0
  140.5490   69.7350  228.3360 C   0  0  0  0  0  0  0  0  0  0  0  0
  141.0470   71.0220  228.2060 C   0  0  0  0  0  0  0  0  0  0  0  0
  140.9790   71.6420  226.9630 C   0  0  0  0  0  0  0  0  0  0  0  0
  140.4330   71.0240  225.8590 C   0  0  0  0  0  0  0  0  0  0  0  0
  140.3710   71.6390  224.6520 N   0  0  0  0  0  0  0  0  0  0  0  0
  139.6220   73.6630  223.1640 H   0  0  0  0  0  0  0  0  0  0  0  0
  139.9296   73.2120  220.1546 H   0  0  0  0  0  0  0  0  0  0  0  0
  138.5654   74.1803  220.7516 H   0  0  0  0  0  0  0  0  0  0  0  0
  140.8543   74.4153  218.3213 H   0  0  0  0  0  0  0  0  0  0  0  0
  139.6610   75.6969  218.4857 H   0  0  0  0  0  0  0  0  0  0  0  0
  141.8179   75.9603  216.8326 H   0  0  0  0  0  0  0  0  0  0  0  0
  141.2030   77.3699  217.6692 H   0  0  0  0  0  0  0  0  0  0  0  0
  143.4556   75.4582  218.5442 H   0  0  0  0  0  0  0  0  0  0  0  0
  143.5997   77.1797  218.3662 H   0  0  0  0  0  0  0  0  0  0  0  0
  143.0609   76.3214  220.8290 H   0  0  0  0  0  0  0  0  0  0  0  0
  142.5987   78.6454  220.0240 H   0  0  0  0  0  0  0  0  0  0  0  0
  140.9028   78.0777  219.7208 H   0  0  0  0  0  0  0  0  0  0  0  0
  141.8380   77.3950  222.2380 H   0  0  0  0  0  0  0  0  0  0  0  0
  138.9117   69.2582  222.8568 H   0  0  0  0  0  0  0  0  0  0  0  0
  138.9871   68.0842  224.9930 H   0  0  0  0  0  0  0  0  0  0  0  0
  139.6053   68.0830  227.3507 H   0  0  0  0  0  0  0  0  0  0  0  0
  140.5921   69.2207  229.3074 H   0  0  0  0  0  0  0  0  0  0  0  0
  141.4874   71.5428  229.0691 H   0  0  0  0  0  0  0  0  0  0  0  0
  141.3754   72.6626  226.8573 H   0  0  0  0  0  0  0  0  0  0  0  0
  1  2  2  0
  2  3  1  0
  3  4  1  0
  4  5  1  0
  5  6  2  0
  5  7  1  0
  7  8  1  0
  8  9  1  0
  9 10  1  0
 10 11  1  0
 11 12  1  0
 12 13  1  0
  2 14  1  0
 14 15  2  0
 15 16  1  0
 16 17  2  0
 17 18  1  0
 18 19  2  0
 19 20  1  0
 20 21  2  0
 21 22  1  0
 22 23  2  0
 11  7  1  0
 23 14  1  0
 22 17  1  0
  3 24  1  0
  4 25  1  0
  4 26  1  0
  8 27  1  0
  8 28  1  0
  9 29  1  0
  9 30  1  0
 10 31  1  0
 10 32  1  0
 11 33  1  1
 12 34  1  0
 12 35  1  0
 13 36  1  0
 15 37  1  0
 16 38  1  0
 18 39  1  0
 19 40  1  0
 20 41  1  0
 21 42  1  0
M  END
>  <smiles>  (14) 
O=C(NCC(=O)N1CCC[C@H]1CO)c1ccc2ccccc2n1

>  <score_type>  (14) 
oracle

>  <origin>  (14) 
autodockgpu

>  <m_score__min__energy>  (14) 
-6.9299999999999997

>  <m_primary>  (14) 
energy

>  <rmsd>  (14) 
1.3703319667744622

>  <m_score__min__rmsd>  (14) 
1.3703319667744622

>  <meeko>  (14) 
{"free_energy": -6.49, "intermolecular_energy": -8.28, "internal_energy": -2.16, "cluster_size": 35, "cluster_id": 1, "rank_in_cluster": 17}

>  <energy>  (14) 
-6.5

>  <cluster_rmsd>  (14) 
1.53

>  <cluster>  (14) 
1

$$$$

     RDKit          3D

 42 44  0  0  0  0  0  0  0  0999 V2000
  139.8880   73.8470  222.3830 O   0  0  0  0  0  0  0  0  0  0  0  0
  140.2430   74.7680  221.6110 C   0  0  0  0  0  0  0  0  0  0  0  0
  140.7590   74.5610  220.3060 N   0  0  0  0  0  0  0  0  0  0  0  0
  140.9020   73.1910  219.7890 C   0  0  0  0  0  0  0  0  0  0  0  0
  142.0500   72.5990  220.4770 C   0  0  0  0  0  0  0  0  0  0  0  0
  141.8980   71.6360  221.2960 O   0  0  0  0  0  0  0  0  0  0  0  0
  143.4060   73.0310  220.3050 N   0  0  0  0  0  0  0  0  0  0  0  0
  144.4060   72.2030  219.6840 C   0  0  0  0  0  0  0  0  0  0  0  0
  145.6300   73.0800  219.6290 C   0  0  0  0  0  0  0  0  0  0  0  0
  145.4600   73.9720  220.8210 C   0  0  0  0  0  0  0  0  0  0  0  0
  143.9870   74.3180  220.7090 C   0  0  1  0  0  0  0  0  0  0  0  0
  143.7210   75.3030  219.6170 C   0  0  0  0  0  0  0  0  0  0  0  0
  142.8780   76.3460  220.0450 O   0  0  0  0  0  0  0  0  0  0  0  0
  140.1190   76.1540  222.0810 C   0  0  0  0  0  0  0  0  0  0  0  0
  138.8750   76.7230  222.3160 C   0  0  0  0  0  0  0  0  0  0  0  0
  138.7130   78.0000  222.7510 C   0  0  0  0  0  0  0  0  0  0  0  0
  139.8250   78.7800  222.9740 C   0  0  0  0  0  0  0  0  0  0  0  0
  139.7230   80.0820  223.4170 C   0  0  0  0  0  0  0  0  0  0  0  0
  140.8410   80.8540  223.6370 C   0  0  0  0  0  0  0  0  0  0  0  0
  142.0990   80.3170  223.4110 C   0  0  0  0  0  0  0  0  0  0  0  0
  142.1940   79.0020  222.9660 C   0  0  0  0  0  0  0  0  0  0  0  0
  141.0840   78.2170  222.7410 C   0  0  0  0  0  0  0  0  0  0  0  0
  141.1880   76.9370  222.3070 N   0  0  0  0  0  0  0  0  0  0  0  0
  141.0340   75.3840  219.7190 H   0  0  0  0  0  0  0  0  0  0  0  0
  139.9925   72.6094  220.0000 H   0  0  0  0  0  0  0  0  0  0  0  0
  141.0521   73.1932  218.6993 H   0  0  0  0  0  0  0  0  0  0  0  0
  144.5974   71.3035  220.2875 H   0  0  0  0  0  0  0  0  0  0  0  0
  144.0990   71.8453  218.6901 H   0  0  0  0  0  0  0  0  0  0  0  0
  146.5492   72.4814  219.7112 H   0  0  0  0  0  0  0  0  0  0  0  0
  145.7241   73.6338  218.6833 H   0  0  0  0  0  0  0  0  0  0  0  0
  145.6810   73.4412  221.7587 H   0  0  0  0  0  0  0  0  0  0  0  0
  146.1324   74.8424  220.8382 H   0  0  0  0  0  0  0  0  0  0  0  0
  143.5921   74.7606  221.6354 H   0  0  0  0  0  0  0  0  0  0  0  0
  144.6776   75.7325  219.2847 H   0  0  0  0  0  0  0  0  0  0  0  0
  143.2174   74.7731  218.7950 H   0  0  0  0  0  0  0  0  0  0  0  0
  142.7470   76.3420  221.0180 H   0  0  0  0  0  0  0  0  0  0  0  0
  137.9777   76.1111  222.1418 H   0  0  0  0  0  0  0  0  0  0  0  0
  137.7051   78.4057  222.9229 H   0  0  0  0  0  0  0  0  0  0  0  0
  138.7272   80.5126  223.5984 H   0  0  0  0  0  0  0  0  0  0  0  0
  140.7370   81.8906  223.9899 H   0  0  0  0  0  0  0  0  0  0  0  0
  143.0042   80.9186  223.5801 H   0  0  0  0  0  0  0  0  0  0  0  0
  143.1913   78.5736  222.7874 H   0  0  0  0  0  0  0  0  0  0  0  0
  1  2  2  0
  2  3  1  0
  3  4  1  0
  4  5  1  0
  5  6  2  0
  5  7  1  0
  7  8  1  0
  8  9  1  0
  9 10  1  0
 10 11  1  0
 11 12  1  0
 12 13  1  0
  2 14  1  0
 14 15  2  0
 15 16  1  0
 16 17  2  0
 17 18  1  0
 18 19  2  0
 19 20  1  0
 20 21  2  0
 21 22  1  0
 22 23  2  0
 11  7  1  0
 23 14  1  0
 22 17  1  0
  3 24  1  0
  4 25  1  0
  4 26  1  0
  8 27  1  0
  8 28  1  0
  9 29  1  0
  9 30  1  0
 10 31  1  0
 10 32  1  0
 11 33  1  1
 12 34  1  0
 12 35  1  0
 13 36  1  0
 15 37  1  0
 16 38  1  0
 18 39  1  0
 19 40  1  0
 20 41  1  0
 21 42  1  0
M  END
>  <smiles>  (15) 
O=C(NCC(=O)N1CCC[C@H]1CO)c1ccc2ccccc2n1

>  <score_type>  (15) 
oracle

>  <origin>  (15) 
autodockgpu

>  <m_score__min__energy>  (15) 
-6.9299999999999997

>  <m_primary>  (15) 
energy

>  <rmsd>  (15) 
7.363774223629314

>  <m_score__min__rmsd>  (15) 
7.363774223629314

>  <meeko>  (15) 
{"free_energy": -6.11, "intermolecular_energy": -7.9, "internal_energy": -2.67, "cluster_size": 10, "cluster_id": 4, "rank_in_cluster": 3}

>  <energy>  (15) 
-6.5

>  <cluster_rmsd>  (15) 
1.28

>  <cluster>  (15) 
1

$$$$

     RDKit          3D

 42 44  0  0  0  0  0  0  0  0999 V2000
  141.4690   72.4500  221.6010 O   0  0  0  0  0  0  0  0  0  0  0  0
  140.5100   72.6360  222.3870 C   0  0  0  0  0  0  0  0  0  0  0  0
  139.6510   73.7630  222.3450 N   0  0  0  0  0  0  0  0  0  0  0  0
  139.8660   74.8050  221.3290 C   0  0  0  0  0  0  0  0  0  0  0  0
  139.5870   76.0880  221.9750 C   0  0  0  0  0  0  0  0  0  0  0  0
  138.5990   76.2200  222.7680 O   0  0  0  0  0  0  0  0  0  0  0  0
  140.3670   77.2750  221.7860 N   0  0  0  0  0  0  0  0  0  0  0  0
  141.1350   77.5120  220.5940 C   0  0  0  0  0  0  0  0  0  0  0  0
  141.7010   78.8950  220.7850 C   0  0  0  0  0  0  0  0  0  0  0  0
  141.8350   79.0000  222.2740 C   0  0  0  0  0  0  0  0  0  0  0  0
  140.5170   78.3980  222.7220 C   0  0  1  0  0  0  0  0  0  0  0  0
  139.3680   79.3300  222.5050 C   0  0  0  0  0  0  0  0  0  0  0  0
  138.1740   78.8250  223.0520 O   0  0  0  0  0  0  0  0  0  0  0  0
  140.2550   71.6230  223.4200 C   0  0  0  0  0  0  0  0  0  0  0  0
  139.5540   70.4620  223.1280 C   0  0  0  0  0  0  0  0  0  0  0  0
  139.2950   69.4990  224.0520 C   0  0  0  0  0  0  0  0  0  0  0  0
  139.7420   69.6680  225.3420 C   0  0  0  0  0  0  0  0  0  0  0  0
  139.5110   68.7250  226.3220 C   0  0  0  0  0  0  0  0  0  0  0  0
  139.9620   68.9040  227.6090 C   0  0  0  0  0  0  0  0  0  0  0  0
  140.6650   70.0540  227.9350 C   0  0  0  0  0  0  0  0  0  0  0  0
  140.8960   71.0000  226.9420 C   0  0  0  0  0  0  0  0  0  0  0  0
  140.4500   70.8350  225.6480 C   0  0  0  0  0  0  0  0  0  0  0  0
  140.6810   71.7640  224.6880 N   0  0  0  0  0  0  0  0  0  0  0  0
  138.8700   73.8470  223.0380 H   0  0  0  0  0  0  0  0  0  0  0  0
  140.9065   74.7783  220.9732 H   0  0  0  0  0  0  0  0  0  0  0  0
  139.2108   74.6499  220.4592 H   0  0  0  0  0  0  0  0  0  0  0  0
  141.9419   76.7707  220.4964 H   0  0  0  0  0  0  0  0  0  0  0  0
  140.5289   77.4284  219.6799 H   0  0  0  0  0  0  0  0  0  0  0  0
  142.6793   78.9937  220.2918 H   0  0  0  0  0  0  0  0  0  0  0  0
  141.0724   79.6854  220.3489 H   0  0  0  0  0  0  0  0  0  0  0  0
  142.6922   78.4190  222.6451 H   0  0  0  0  0  0  0  0  0  0  0  0
  142.0186   80.0196  222.6436 H   0  0  0  0  0  0  0  0  0  0  0  0
  140.5184   78.1437  223.7922 H   0  0  0  0  0  0  0  0  0  0  0  0
  139.5975   80.2947  222.9811 H   0  0  0  0  0  0  0  0  0  0  0  0
  139.2239   79.4479  221.4209 H   0  0  0  0  0  0  0  0  0  0  0  0
  138.1610   77.8440  223.0760 H   0  0  0  0  0  0  0  0  0  0  0  0
  139.1906   70.3136  222.1004 H   0  0  0  0  0  0  0  0  0  0  0  0
  138.7345   68.5951  223.7714 H   0  0  0  0  0  0  0  0  0  0  0  0
  138.9544   67.8106  226.0688 H   0  0  0  0  0  0  0  0  0  0  0  0
  139.7662   68.1394  228.3752 H   0  0  0  0  0  0  0  0  0  0  0  0
  141.0328   70.2149  228.9591 H   0  0  0  0  0  0  0  0  0  0  0  0
  141.4545   71.9124  227.1982 H   0  0  0  0  0  0  0  0  0  0  0  0
  1  2  2  0
  2  3  1  0
  3  4  1  0
  4  5  1  0
  5  6  2  0
  5  7  1  0
  7  8  1  0
  8  9  1  0
  9 10  1  0
 10 11  1  0
 11 12  1  0
 12 13  1  0
  2 14  1  0
 14 15  2  0
 15 16  1  0
 16 17  2  0
 17 18  1  0
 18 19  2  0
 19 20  1  0
 20 21  2  0
 21 22  1  0
 22 23  2  0
 11  7  1  0
 23 14  1  0
 22 17  1  0
  3 24  1  0
  4 25  1  0
  4 26  1  0
  8 27  1  0
  8 28  1  0
  9 29  1  0
  9 30  1  0
 10 31  1  0
 10 32  1  0
 11 33  1  1
 12 34  1  0
 12 35  1  0
 13 36  1  0
 15 37  1  0
 16 38  1  0
 18 39  1  0
 19 40  1  0
 20 41  1  0
 21 42  1  0
M  END
>  <smiles>  (16) 
O=C(NCC(=O)N1CCC[C@H]1CO)c1ccc2ccccc2n1

>  <score_type>  (16) 
oracle

>  <origin>  (16) 
autodockgpu

>  <m_score__min__energy>  (16) 
-6.9299999999999997

>  <m_primary>  (16) 
energy

>  <rmsd>  (16) 
2.736154657653632

>  <m_score__min__rmsd>  (16) 
2.736154657653632

>  <meeko>  (16) 
{"free_energy": -6.47, "intermolecular_energy": -8.26, "internal_energy": -1.98, "cluster_size": 35, "cluster_id": 1, "rank_in_cluster": 20}

>  <energy>  (16) 
-6.49

>  <cluster_rmsd>  (16) 
1.46

>  <cluster>  (16) 
1

$$$$

     RDKit          3D

 42 44  0  0  0  0  0  0  0  0999 V2000
  141.5780   72.4120  221.5700 O   0  0  0  0  0  0  0  0  0  0  0  0
  140.6510   72.6710  222.3730 C   0  0  0  0  0  0  0  0  0  0  0  0
  139.8830   73.8640  222.3450 N   0  0  0  0  0  0  0  0  0  0  0  0
  140.1620   74.8870  221.3250 C   0  0  0  0  0  0  0  0  0  0  0  0
  139.8250   76.1790  221.9220 C   0  0  0  0  0  0  0  0  0  0  0  0
  138.7920   76.3130  222.6560 O   0  0  0  0  0  0  0  0  0  0  0  0
  140.5930   77.3770  221.7450 N   0  0  0  0  0  0  0  0  0  0  0  0
  141.1910   77.7310  220.4860 C   0  0  0  0  0  0  0  0  0  0  0  0
  141.8030   79.0850  220.7340 C   0  0  0  0  0  0  0  0  0  0  0  0
  142.1460   79.0370  222.1920 C   0  0  0  0  0  0  0  0  0  0  0  0
  140.8930   78.3970  222.7590 C   0  0  1  0  0  0  0  0  0  0  0  0
  139.7430   79.3510  222.8010 C   0  0  0  0  0  0  0  0  0  0  0  0
  138.6330   78.8040  223.4720 O   0  0  0  0  0  0  0  0  0  0  0  0
  140.3340   71.6810  223.4090 C   0  0  0  0  0  0  0  0  0  0  0  0
  139.6350   70.5220  223.1040 C   0  0  0  0  0  0  0  0  0  0  0  0
  139.3200   69.5790  224.0310 C   0  0  0  0  0  0  0  0  0  0  0  0
  139.7050   69.7670  225.3390 C   0  0  0  0  0  0  0  0  0  0  0  0
  139.4150   68.8460  226.3230 C   0  0  0  0  0  0  0  0  0  0  0  0
  139.8050   69.0440  227.6280 C   0  0  0  0  0  0  0  0  0  0  0  0
  140.5040   70.1920  227.9670 C   0  0  0  0  0  0  0  0  0  0  0  0
  140.7930   71.1170  226.9690 C   0  0  0  0  0  0  0  0  0  0  0  0
  140.4100   70.9320  225.6580 C   0  0  0  0  0  0  0  0  0  0  0  0
  140.6980   71.8410  224.6940 N   0  0  0  0  0  0  0  0  0  0  0  0
  139.1230   74.0090  223.0510 H   0  0  0  0  0  0  0  0  0  0  0  0
  141.2259   74.8642  221.0463 H   0  0  0  0  0  0  0  0  0  0  0  0
  139.5737   74.7071  220.4131 H   0  0  0  0  0  0  0  0  0  0  0  0
  141.9627   77.0004  220.2017 H   0  0  0  0  0  0  0  0  0  0  0  0
  140.4619   77.7431  219.6624 H   0  0  0  0  0  0  0  0  0  0  0  0
  142.7042   79.2301  220.1202 H   0  0  0  0  0  0  0  0  0  0  0  0
  141.1337   79.9180  220.4730 H   0  0  0  0  0  0  0  0  0  0  0  0
  143.0362   78.4182  222.3781 H   0  0  0  0  0  0  0  0  0  0  0  0
  142.3977   80.0130  222.6326 H   0  0  0  0  0  0  0  0  0  0  0  0
  141.0394   78.0339  223.7870 H   0  0  0  0  0  0  0  0  0  0  0  0
  140.0588   80.2663  223.3230 H   0  0  0  0  0  0  0  0  0  0  0  0
  139.4425   79.5694  221.7656 H   0  0  0  0  0  0  0  0  0  0  0  0
  138.4970   77.8570  223.2550 H   0  0  0  0  0  0  0  0  0  0  0  0
  139.3208   70.3584  222.0626 H   0  0  0  0  0  0  0  0  0  0  0  0
  138.7638   68.6760  223.7391 H   0  0  0  0  0  0  0  0  0  0  0  0
  138.8601   67.9335  226.0595 H   0  0  0  0  0  0  0  0  0  0  0  0
  139.5634   68.2958  228.3973 H   0  0  0  0  0  0  0  0  0  0  0  0
  140.8238   70.3681  229.0046 H   0  0  0  0  0  0  0  0  0  0  0  0
  141.3472   72.0290  227.2358 H   0  0  0  0  0  0  0  0  0  0  0  0
  1  2  2  0
  2  3  1  0
  3  4  1  0
  4  5  1  0
  5  6  2  0
  5  7  1  0
  7  8  1  0
  8  9  1  0
  9 10  1  0
 10 11  1  0
 11 12  1  0
 12 13  1  0
  2 14  1  0
 14 15  2  0
 15 16  1  0
 16 17  2  0
 17 18  1  0
 18 19  2  0
 19 20  1  0
 20 21  2  0
 21 22  1  0
 22 23  2  0
 11  7  1  0
 23 14  1  0
 22 17  1  0
  3 24  1  0
  4 25  1  0
  4 26  1  0
  8 27  1  0
  8 28  1  0
  9 29  1  0
  9 30  1  0
 10 31  1  0
 10 32  1  0
 11 33  1  1
 12 34  1  0
 12 35  1  0
 13 36  1  0
 15 37  1  0
 16 38  1  0
 18 39  1  0
 19 40  1  0
 20 41  1  0
 21 42  1  0
M  END
>  <smiles>  (17) 
O=C(NCC(=O)N1CCC[C@H]1CO)c1ccc2ccccc2n1

>  <score_type>  (17) 
oracle

>  <origin>  (17) 
autodockgpu

>  <m_score__min__energy>  (17) 
-6.9299999999999997

>  <m_primary>  (17) 
energy

>  <rmsd>  (17) 
2.7985926081870063

>  <m_score__min__rmsd>  (17) 
2.7985926081870063

>  <meeko>  (17) 
{"free_energy": -6.44, "intermolecular_energy": -8.23, "internal_energy": -2.02, "cluster_size": 35, "cluster_id": 1, "rank_in_cluster": 26}

>  <energy>  (17) 
-6.49

>  <cluster_rmsd>  (17) 
1.53

>  <cluster>  (17) 
1

$$$$

     RDKit          3D

 42 44  0  0  0  0  0  0  0  0999 V2000
  140.2580   71.0740  221.3340 O   0  0  0  0  0  0  0  0  0  0  0  0
  140.0050   71.6900  222.3950 C   0  0  0  0  0  0  0  0  0  0  0  0
  139.7560   73.0850  222.4680 N   0  0  0  0  0  0  0  0  0  0  0  0
  139.7880   73.8950  221.2400 C   0  0  0  0  0  0  0  0  0  0  0  0
  141.0980   74.5450  221.1990 C   0  0  0  0  0  0  0  0  0  0  0  0
  141.3140   75.6240  221.8420 O   0  0  0  0  0  0  0  0  0  0  0  0
  142.2230   74.0530  220.4590 N   0  0  0  0  0  0  0  0  0  0  0  0
  142.1340   72.9140  219.5870 C   0  0  0  0  0  0  0  0  0  0  0  0
  143.5000   72.8200  218.9580 C   0  0  0  0  0  0  0  0  0  0  0  0
  144.3980   73.3840  220.0180 C   0  0  0  0  0  0  0  0  0  0  0  0
  143.5910   74.5910  220.4610 C   0  0  1  0  0  0  0  0  0  0  0  0
  143.6470   75.7030  219.4650 C   0  0  0  0  0  0  0  0  0  0  0  0
  142.9080   76.8240  219.8890 O   0  0  0  0  0  0  0  0  0  0  0  0
  139.9610   70.9250  223.6470 C   0  0  0  0  0  0  0  0  0  0  0  0
  139.4300   69.6440  223.6870 C   0  0  0  0  0  0  0  0  0  0  0  0
  139.3690   68.9000  224.8230 C   0  0  0  0  0  0  0  0  0  0  0  0
  139.8520   69.4280  225.9990 C   0  0  0  0  0  0  0  0  0  0  0  0
  139.8180   68.7200  227.1820 C   0  0  0  0  0  0  0  0  0  0  0  0
  140.3040   69.2580  228.3520 C   0  0  0  0  0  0  0  0  0  0  0  0
  140.8410   70.5360  228.3480 C   0  0  0  0  0  0  0  0  0  0  0  0
  140.8730   71.2430  227.1500 C   0  0  0  0  0  0  0  0  0  0  0  0
  140.3900   70.7190  225.9710 C   0  0  0  0  0  0  0  0  0  0  0  0
  140.4260   71.4170  224.8090 N   0  0  0  0  0  0  0  0  0  0  0  0
  139.5510   73.5290  223.3940 H   0  0  0  0  0  0  0  0  0  0  0  0
  139.6564   73.2513  220.3578 H   0  0  0  0  0  0  0  0  0  0  0  0
  138.9772   74.6384  221.2352 H   0  0  0  0  0  0  0  0  0  0  0  0
  141.9045   72.0026  220.1585 H   0  0  0  0  0  0  0  0  0  0  0  0
  141.3332   73.0178  218.8400 H   0  0  0  0  0  0  0  0  0  0  0  0
  143.7609   71.7753  218.7334 H   0  0  0  0  0  0  0  0  0  0  0  0
  143.5734   73.3530  217.9986 H   0  0  0  0  0  0  0  0  0  0  0  0
  144.5475   72.6719  220.8430 H   0  0  0  0  0  0  0  0  0  0  0  0
  145.4167   73.6179  219.6751 H   0  0  0  0  0  0  0  0  0  0  0  0
  143.9502   75.0051  221.4147 H   0  0  0  0  0  0  0  0  0  0  0  0
  144.6963   76.0013  219.3234 H   0  0  0  0  0  0  0  0  0  0  0  0
  143.2078   75.3407  218.5238 H   0  0  0  0  0  0  0  0  0  0  0  0
  142.6920   76.7860  220.8460 H   0  0  0  0  0  0  0  0  0  0  0  0
  139.0396   69.2096  222.7549 H   0  0  0  0  0  0  0  0  0  0  0  0
  138.9387   67.8878  224.8028 H   0  0  0  0  0  0  0  0  0  0  0  0
  139.3940   67.7050  227.1907 H   0  0  0  0  0  0  0  0  0  0  0  0
  140.2665   68.6769  229.2853 H   0  0  0  0  0  0  0  0  0  0  0  0
  141.2340   70.9823  229.2734 H   0  0  0  0  0  0  0  0  0  0  0  0
  141.2994   72.2570  227.1441 H   0  0  0  0  0  0  0  0  0  0  0  0
  1  2  2  0
  2  3  1  0
  3  4  1  0
  4  5  1  0
  5  6  2  0
  5  7  1  0
  7  8  1  0
  8  9  1  0
  9 10  1  0
 10 11  1  0
 11 12  1  0
 12 13  1  0
  2 14  1  0
 14 15  2  0
 15 16  1  0
 16 17  2  0
 17 18  1  0
 18 19  2  0
 19 20  1  0
 20 21  2  0
 21 22  1  0
 22 23  2  0
 11  7  1  0
 23 14  1  0
 22 17  1  0
  3 24  1  0
  4 25  1  0
  4 26  1  0
  8 27  1  0
  8 28  1  0
  9 29  1  0
  9 30  1  0
 10 31  1  0
 10 32  1  0
 11 33  1  1
 12 34  1  0
 12 35  1  0
 13 36  1  0
 15 37  1  0
 16 38  1  0
 18 39  1  0
 19 40  1  0
 20 41  1  0
 21 42  1  0
M  END
>  <smiles>  (18) 
O=C(NCC(=O)N1CCC[C@H]1CO)c1ccc2ccccc2n1

>  <score_type>  (18) 
oracle

>  <origin>  (18) 
autodockgpu

>  <m_score__min__energy>  (18) 
-6.9299999999999997

>  <m_primary>  (18) 
energy

>  <rmsd>  (18) 
2.7802700195098113

>  <m_score__min__rmsd>  (18) 
2.7802700195098113

>  <meeko>  (18) 
{"free_energy": -6.59, "intermolecular_energy": -8.38, "internal_energy": -1.97, "cluster_size": 35, "cluster_id": 1, "rank_in_cluster": 7}

>  <energy>  (18) 
-6.48

>  <cluster_rmsd>  (18) 
1.34

>  <cluster>  (18) 
1

$$$$

     RDKit          3D

 42 44  0  0  0  0  0  0  0  0999 V2000
  138.7240   70.8760  221.6460 O   0  0  0  0  0  0  0  0  0  0  0  0
  139.2060   71.4530  222.6490 C   0  0  0  0  0  0  0  0  0  0  0  0
  139.5200   72.8360  222.6990 N   0  0  0  0  0  0  0  0  0  0  0  0
  139.2800   73.6800  221.5180 C   0  0  0  0  0  0  0  0  0  0  0  0
  139.8200   75.0040  221.8300 C   0  0  0  0  0  0  0  0  0  0  0  0
  141.0730   75.1820  221.9740 O   0  0  0  0  0  0  0  0  0  0  0  0
  139.0240   76.1830  221.9990 N   0  0  0  0  0  0  0  0  0  0  0  0
  137.7100   76.1500  222.5820 C   0  0  0  0  0  0  0  0  0  0  0  0
  137.2970   77.5980  222.6480 C   0  0  0  0  0  0  0  0  0  0  0  0
  138.0190   78.2070  221.4850 C   0  0  0  0  0  0  0  0  0  0  0  0
  139.3830   77.5590  221.6260 C   0  0  1  0  0  0  0  0  0  0  0  0
  140.1740   78.1450  222.7500 C   0  0  0  0  0  0  0  0  0  0  0  0
  141.5590   78.0710  222.5110 O   0  0  0  0  0  0  0  0  0  0  0  0
  139.4640   70.6530  223.8520 C   0  0  0  0  0  0  0  0  0  0  0  0
  139.1210   69.3090  223.9070 C   0  0  0  0  0  0  0  0  0  0  0  0
  139.3410   68.5310  225.0000 C   0  0  0  0  0  0  0  0  0  0  0  0
  139.9300   69.0860  226.1130 C   0  0  0  0  0  0  0  0  0  0  0  0
  140.1780   68.3460  227.2500 C   0  0  0  0  0  0  0  0  0  0  0  0
  140.7670   68.9110  228.3580 C   0  0  0  0  0  0  0  0  0  0  0  0
  141.1210   70.2510  228.3370 C   0  0  0  0  0  0  0  0  0  0  0  0
  140.8680   70.9910  227.1870 C   0  0  0  0  0  0  0  0  0  0  0  0
  140.2790   70.4400  226.0690 C   0  0  0  0  0  0  0  0  0  0  0  0
  140.0370   71.1700  224.9530 N   0  0  0  0  0  0  0  0  0  0  0  0
  139.9220   73.2460  223.5750 H   0  0  0  0  0  0  0  0  0  0  0  0
  139.7925   73.2587  220.6406 H   0  0  0  0  0  0  0  0  0  0  0  0
  138.2068   73.7359  221.2833 H   0  0  0  0  0  0  0  0  0  0  0  0
  137.0172   75.5754  221.9497 H   0  0  0  0  0  0  0  0  0  0  0  0
  137.6995   75.6640  223.5687 H   0  0  0  0  0  0  0  0  0  0  0  0
  136.2078   77.7040  222.5368 H   0  0  0  0  0  0  0  0  0  0  0  0
  137.5413   78.0754  223.6084 H   0  0  0  0  0  0  0  0  0  0  0  0
  137.5423   77.9431  220.5294 H   0  0  0  0  0  0  0  0  0  0  0  0
  138.0353   79.3069  221.4845 H   0  0  0  0  0  0  0  0  0  0  0  0
  139.9935   77.6748  220.7183 H   0  0  0  0  0  0  0  0  0  0  0  0
  139.8900   79.2007  222.8723 H   0  0  0  0  0  0  0  0  0  0  0  0
  139.9535   77.5673  223.6598 H   0  0  0  0  0  0  0  0  0  0  0  0
  141.8480   77.1630  222.2740 H   0  0  0  0  0  0  0  0  0  0  0  0
  138.6490   68.8520  223.0247 H   0  0  0  0  0  0  0  0  0  0  0  0
  139.0515   67.4698  224.9947 H   0  0  0  0  0  0  0  0  0  0  0  0
  139.8992   67.2821  227.2717 H   0  0  0  0  0  0  0  0  0  0  0  0
  140.9557   68.3029  229.2550 H   0  0  0  0  0  0  0  0  0  0  0  0
  141.5929   70.7200  229.2130 H   0  0  0  0  0  0  0  0  0  0  0  0
  141.1480   72.0546  227.1688 H   0  0  0  0  0  0  0  0  0  0  0  0
  1  2  2  0
  2  3  1  0
  3  4  1  0
  4  5  1  0
  5  6  2  0
  5  7  1  0
  7  8  1  0
  8  9  1  0
  9 10  1  0
 10 11  1  0
 11 12  1  0
 12 13  1  0
  2 14  1  0
 14 15  2  0
 15 16  1  0
 16 17  2  0
 17 18  1  0
 18 19  2  0
 19 20  1  0
 20 21  2  0
 21 22  1  0
 22 23  2  0
 11  7  1  0
 23 14  1  0
 22 17  1  0
  3 24  1  0
  4 25  1  0
  4 26  1  0
  8 27  1  0
  8 28  1  0
  9 29  1  0
  9 30  1  0
 10 31  1  0
 10 32  1  0
 11 33  1  6
 12 34  1  0
 12 35  1  0
 13 36  1  0
 15 37  1  0
 16 38  1  0
 18 39  1  0
 19 40  1  0
 20 41  1  0
 21 42  1  0
M  END
>  <smiles>  (19) 
O=C(NCC(=O)N1CCC[C@H]1CO)c1ccc2ccccc2n1

>  <score_type>  (19) 
oracle

>  <origin>  (19) 
autodockgpu

>  <m_score__min__energy>  (19) 
-6.9299999999999997

>  <m_primary>  (19) 
energy

>  <rmsd>  (19) 
2.646783963895627

>  <m_score__min__rmsd>  (19) 
2.646783963895627

>  <meeko>  (19) 
{"free_energy": -6.47, "intermolecular_energy": -8.26, "internal_energy": -1.96, "cluster_size": 35, "cluster_id": 1, "rank_in_cluster": 19}

>  <energy>  (19) 
-6.47

>  <cluster_rmsd>  (19) 
1.68

>  <cluster>  (19) 
1

$$$$

     RDKit          3D

 42 44  0  0  0  0  0  0  0  0999 V2000
  141.3150   71.8550  221.6310 O   0  0  0  0  0  0  0  0  0  0  0  0
  140.4000   72.1940  222.4180 C   0  0  0  0  0  0  0  0  0  0  0  0
  139.5220   73.2860  222.1970 N   0  0  0  0  0  0  0  0  0  0  0  0
  139.6640   74.0990  220.9780 C   0  0  0  0  0  0  0  0  0  0  0  0
  140.9830   74.7290  221.0440 C   0  0  0  0  0  0  0  0  0  0  0  0
  141.2000   75.7160  221.8200 O   0  0  0  0  0  0  0  0  0  0  0  0
  142.1170   74.3150  220.2710 N   0  0  0  0  0  0  0  0  0  0  0  0
  142.0080   73.3880  219.1780 C   0  0  0  0  0  0  0  0  0  0  0  0
  143.4010   73.3220  218.6070 C   0  0  0  0  0  0  0  0  0  0  0  0
  144.2670   73.5890  219.8010 C   0  0  0  0  0  0  0  0  0  0  0  0
  143.5140   74.7360  220.4470 C   0  0  1  0  0  0  0  0  0  0  0  0
  143.7000   76.0220  219.7070 C   0  0  0  0  0  0  0  0  0  0  0  0
  142.7590   76.9920  220.0970 O   0  0  0  0  0  0  0  0  0  0  0  0
  140.2180   71.4130  223.6480 C   0  0  0  0  0  0  0  0  0  0  0  0
  139.4980   70.2260  223.6440 C   0  0  0  0  0  0  0  0  0  0  0  0
  139.3050   69.4720  224.7590 C   0  0  0  0  0  0  0  0  0  0  0  0
  139.8420   69.8900  225.9550 C   0  0  0  0  0  0  0  0  0  0  0  0
  139.6800   69.1670  227.1180 C   0  0  0  0  0  0  0  0  0  0  0  0
  140.2210   69.5950  228.3090 C   0  0  0  0  0  0  0  0  0  0  0  0
  140.9440   70.7760  228.3480 C   0  0  0  0  0  0  0  0  0  0  0  0
  141.1040   71.5000  227.1700 C   0  0  0  0  0  0  0  0  0  0  0  0
  140.5690   71.0850  225.9700 C   0  0  0  0  0  0  0  0  0  0  0  0
  140.7320   71.7990  224.8290 N   0  0  0  0  0  0  0  0  0  0  0  0
  138.7800   73.5080  222.9020 H   0  0  0  0  0  0  0  0  0  0  0  0
  139.5935   73.4597  220.0856 H   0  0  0  0  0  0  0  0  0  0  0  0
  138.8675   74.8547  220.9114 H   0  0  0  0  0  0  0  0  0  0  0  0
  141.6862   72.3990  219.5362 H   0  0  0  0  0  0  0  0  0  0  0  0
  141.2623   73.7020  218.4328 H   0  0  0  0  0  0  0  0  0  0  0  0
  143.6078   72.3284  218.1827 H   0  0  0  0  0  0  0  0  0  0  0  0
  143.5664   74.0324  217.7836 H   0  0  0  0  0  0  0  0  0  0  0  0
  144.3206   72.7144  220.4660 H   0  0  0  0  0  0  0  0  0  0  0  0
  145.3173   73.8112  219.5614 H   0  0  0  0  0  0  0  0  0  0  0  0
  143.8417   74.9176  221.4812 H   0  0  0  0  0  0  0  0  0  0  0  0
  144.7109   76.4057  219.9091 H   0  0  0  0  0  0  0  0  0  0  0  0
  143.5590   75.8219  218.6346 H   0  0  0  0  0  0  0  0  0  0  0  0
  142.6140   77.0000  221.0680 H   0  0  0  0  0  0  0  0  0  0  0  0
  139.0635   69.8794  222.6948 H   0  0  0  0  0  0  0  0  0  0  0  0
  138.7260   68.5382  224.7055 H   0  0  0  0  0  0  0  0  0  0  0  0
  139.1065   68.2287  227.0933 H   0  0  0  0  0  0  0  0  0  0  0  0
  140.0800   69.0025  229.2250 H   0  0  0  0  0  0  0  0  0  0  0  0
  141.3828   71.1344  229.2909 H   0  0  0  0  0  0  0  0  0  0  0  0
  141.6785   72.4376  227.1981 H   0  0  0  0  0  0  0  0  0  0  0  0
  1  2  2  0
  2  3  1  0
  3  4  1  0
  4  5  1  0
  5  6  2  0
  5  7  1  0
  7  8  1  0
  8  9  1  0
  9 10  1  0
 10 11  1  0
 11 12  1  0
 12 13  1  0
  2 14  1  0
 14 15  2  0
 15 16  1  0
 16 17  2  0
 17 18  1  0
 18 19  2  0
 19 20  1  0
 20 21  2  0
 21 22  1  0
 22 23  2  0
 11  7  1  0
 23 14  1  0
 22 17  1  0
  3 24  1  0
  4 25  1  0
  4 26  1  0
  8 27  1  0
  8 28  1  0
  9 29  1  0
  9 30  1  0
 10 31  1  0
 10 32  1  0
 11 33  1  1
 12 34  1  0
 12 35  1  0
 13 36  1  0
 15 37  1  0
 16 38  1  0
 18 39  1  0
 19 40  1  0
 20 41  1  0
 21 42  1  0
M  END
>  <smiles>  (20) 
O=C(NCC(=O)N1CCC[C@H]1CO)c1ccc2ccccc2n1

>  <score_type>  (20) 
oracle

>  <origin>  (20) 
autodockgpu

>  <m_score__min__energy>  (20) 
-6.9299999999999997

>  <m_primary>  (20) 
energy

>  <rmsd>  (20) 
2.6630007565852925

>  <m_score__min__rmsd>  (20) 
2.6630007565852925

>  <meeko>  (20) 
{"free_energy": -6.72, "intermolecular_energy": -8.51, "internal_energy": -1.81, "cluster_size": 35, "cluster_id": 1, "rank_in_cluster": 3}

>  <energy>  (20) 
-6.47

>  <cluster_rmsd>  (20) 
1.18

>  <cluster>  (20) 
1

$$$$

     RDKit          3D

 42 44  0  0  0  0  0  0  0  0999 V2000
  140.6530   70.9830  221.5990 O   0  0  0  0  0  0  0  0  0  0  0  0
  140.6540   72.0150  222.3110 C   0  0  0  0  0  0  0  0  0  0  0  0
  140.2960   72.0380  223.6840 N   0  0  0  0  0  0  0  0  0  0  0  0
  139.8910   70.7900  224.3510 C   0  0  0  0  0  0  0  0  0  0  0  0
  140.3510   70.8850  225.7360 C   0  0  0  0  0  0  0  0  0  0  0  0
  140.7370   71.9980  226.2240 O   0  0  0  0  0  0  0  0  0  0  0  0
  140.4130   69.7790  226.6460 N   0  0  0  0  0  0  0  0  0  0  0  0
  140.2890   69.9430  228.0690 C   0  0  0  0  0  0  0  0  0  0  0  0
  140.3150   68.5370  228.6090 C   0  0  0  0  0  0  0  0  0  0  0  0
  141.1610   67.8080  227.6090 C   0  0  0  0  0  0  0  0  0  0  0  0
  140.6060   68.3620  226.3100 C   0  0  1  0  0  0  0  0  0  0  0  0
  139.2680   67.7850  225.9760 C   0  0  0  0  0  0  0  0  0  0  0  0
  139.1900   67.3900  224.6280 O   0  0  0  0  0  0  0  0  0  0  0  0
  141.0500   73.2850  221.6910 C   0  0  0  0  0  0  0  0  0  0  0  0
  141.8310   73.3100  220.5430 C   0  0  0  0  0  0  0  0  0  0  0  0
  142.2220   74.4620  219.9360 C   0  0  0  0  0  0  0  0  0  0  0  0
  141.8330   75.6690  220.4700 C   0  0  0  0  0  0  0  0  0  0  0  0
  142.1970   76.8690  219.8980 C   0  0  0  0  0  0  0  0  0  0  0  0
  141.8030   78.0710  220.4410 C   0  0  0  0  0  0  0  0  0  0  0  0
  141.0240   78.0820  221.5870 C   0  0  0  0  0  0  0  0  0  0  0  0
  140.6590   76.8670  222.1580 C   0  0  0  0  0  0  0  0  0  0  0  0
  141.0460   75.6560  221.6270 C   0  0  0  0  0  0  0  0  0  0  0  0
  140.6840   74.4780  222.1930 N   0  0  0  0  0  0  0  0  0  0  0  0
  140.3210   72.9410  224.2130 H   0  0  0  0  0  0  0  0  0  0  0  0
  138.7967   70.6824  224.3216 H   0  0  0  0  0  0  0  0  0  0  0  0
  140.3266   69.9137  223.8487 H   0  0  0  0  0  0  0  0  0  0  0  0
  141.1295   70.5295  228.4684 H   0  0  0  0  0  0  0  0  0  0  0  0
  139.3745   70.4851  228.3516 H   0  0  0  0  0  0  0  0  0  0  0  0
  140.7706   68.5061  229.6097 H   0  0  0  0  0  0  0  0  0  0  0  0
  139.3127   68.1001  228.7297 H   0  0  0  0  0  0  0  0  0  0  0  0
  142.2276   68.0487  227.7289 H   0  0  0  0  0  0  0  0  0  0  0  0
  141.1205   66.7118  227.6909 H   0  0  0  0  0  0  0  0  0  0  0  0
  141.2629   68.1497  225.4536 H   0  0  0  0  0  0  0  0  0  0  0  0
  139.0893   66.9075  226.6148 H   0  0  0  0  0  0  0  0  0  0  0  0
  138.5085   68.5617  226.1487 H   0  0  0  0  0  0  0  0  0  0  0  0
  139.9340   67.7420  224.0930 H   0  0  0  0  0  0  0  0  0  0  0  0
  142.1482   72.3526  220.1041 H   0  0  0  0  0  0  0  0  0  0  0  0
  142.8424   74.4295  219.0282 H   0  0  0  0  0  0  0  0  0  0  0  0
  142.8155   76.8661  218.9883 H   0  0  0  0  0  0  0  0  0  0  0  0
  142.1047   79.0172  219.9680 H   0  0  0  0  0  0  0  0  0  0  0  0
  140.7007   79.0326  222.0363 H   0  0  0  0  0  0  0  0  0  0  0  0
  140.0388   76.8734  223.0665 H   0  0  0  0  0  0  0  0  0  0  0  0
  1  2  2  0
  2  3  1  0
  3  4  1  0
  4  5  1  0
  5  6  2  0
  5  7  1  0
  7  8  1  0
  8  9  1  0
  9 10  1  0
 10 11  1  0
 11 12  1  0
 12 13  1  0
  2 14  1  0
 14 15  2  0
 15 16  1  0
 16 17  2  0
 17 18  1  0
 18 19  2  0
 19 20  1  0
 20 21  2  0
 21 22  1  0
 22 23  2  0
 11  7  1  0
 23 14  1  0
 22 17  1  0
  3 24  1  0
  4 25  1  0
  4 26  1  0
  8 27  1  0
  8 28  1  0
  9 29  1  0
  9 30  1  0
 10 31  1  0
 10 32  1  0
 11 33  1  6
 12 34  1  0
 12 35  1  0
 13 36  1  0
 15 37  1  0
 16 38  1  0
 18 39  1  0
 19 40  1  0
 20 41  1  0
 21 42  1  0
M  END
>  <smiles>  (21) 
O=C(NCC(=O)N1CCC[C@H]1CO)c1ccc2ccccc2n1

>  <score_type>  (21) 
oracle

>  <origin>  (21) 
autodockgpu

>  <m_score__min__energy>  (21) 
-6.9299999999999997

>  <m_primary>  (21) 
energy

>  <rmsd>  (21) 
9.0421270877248

>  <m_score__min__rmsd>  (21) 
9.0421270877248

>  <meeko>  (21) 
{"free_energy": -6.92, "intermolecular_energy": -8.71, "internal_energy": -1.66, "cluster_size": 4, "cluster_id": 2, "rank_in_cluster": 1}

>  <energy>  (21) 
-6.46

>  <cluster_rmsd>  (21) 
1.35

>  <cluster>  (21) 
1

$$$$

     RDKit          3D

 42 44  0  0  0  0  0  0  0  0999 V2000
  139.5300   71.0880  221.2680 O   0  0  0  0  0  0  0  0  0  0  0  0
  139.6230   71.7930  222.3000 C   0  0  0  0  0  0  0  0  0  0  0  0
  139.6150   73.2120  222.2990 N   0  0  0  0  0  0  0  0  0  0  0  0
  139.4940   73.9390  221.0260 C   0  0  0  0  0  0  0  0  0  0  0  0
  140.2900   75.1590  221.1600 C   0  0  0  0  0  0  0  0  0  0  0  0
  140.7370   75.5280  222.2950 O   0  0  0  0  0  0  0  0  0  0  0  0
  140.6300   76.0270  220.0710 N   0  0  0  0  0  0  0  0  0  0  0  0
  140.1840   77.3930  220.0050 C   0  0  0  0  0  0  0  0  0  0  0  0
  140.8460   77.9400  218.7670 C   0  0  0  0  0  0  0  0  0  0  0  0
  140.9700   76.7310  217.8900 C   0  0  0  0  0  0  0  0  0  0  0  0
  141.4450   75.6980  218.8940 C   0  0  1  0  0  0  0  0  0  0  0  0
  142.8810   75.8890  219.2640 C   0  0  0  0  0  0  0  0  0  0  0  0
  143.1890   75.2850  220.4970 O   0  0  0  0  0  0  0  0  0  0  0  0
  139.7450   71.1140  223.5960 C   0  0  0  0  0  0  0  0  0  0  0  0
  139.3160   69.8050  223.7630 C   0  0  0  0  0  0  0  0  0  0  0  0
  139.4100   69.1380  224.9430 C   0  0  0  0  0  0  0  0  0  0  0  0
  139.9540   69.7760  226.0350 C   0  0  0  0  0  0  0  0  0  0  0  0
  140.0760   69.1500  227.2580 C   0  0  0  0  0  0  0  0  0  0  0  0
  140.6220   69.7980  228.3420 C   0  0  0  0  0  0  0  0  0  0  0  0
  141.0590   71.1060  228.2110 C   0  0  0  0  0  0  0  0  0  0  0  0
  140.9340   71.7310  226.9740 C   0  0  0  0  0  0  0  0  0  0  0  0
  140.3900   71.0960  225.8780 C   0  0  0  0  0  0  0  0  0  0  0  0
  140.2730   71.7150  224.6770 N   0  0  0  0  0  0  0  0  0  0  0  0
  139.6970   73.7330  223.2050 H   0  0  0  0  0  0  0  0  0  0  0  0
  139.8800   73.3236  220.2000 H   0  0  0  0  0  0  0  0  0  0  0  0
  138.4428   74.1754  220.8043 H   0  0  0  0  0  0  0  0  0  0  0  0
  139.0887   77.4416  219.9153 H   0  0  0  0  0  0  0  0  0  0  0  0
  140.4435   77.9645  220.9084 H   0  0  0  0  0  0  0  0  0  0  0  0
  140.2212   78.7107  218.2921 H   0  0  0  0  0  0  0  0  0  0  0  0
  141.8100   78.4291  218.9706 H   0  0  0  0  0  0  0  0  0  0  0  0
  140.0025   76.4507  217.4480 H   0  0  0  0  0  0  0  0  0  0  0  0
  141.6351   76.8633  217.0239 H   0  0  0  0  0  0  0  0  0  0  0  0
  141.3531   74.6715  218.5095 H   0  0  0  0  0  0  0  0  0  0  0  0
  143.5124   75.4427  218.4816 H   0  0  0  0  0  0  0  0  0  0  0  0
  143.0689   76.9689  219.3565 H   0  0  0  0  0  0  0  0  0  0  0  0
  142.6400   75.6380  221.2310 H   0  0  0  0  0  0  0  0  0  0  0  0
  138.8791   69.2826  222.8992 H   0  0  0  0  0  0  0  0  0  0  0  0
  139.0555   68.0999  225.0249 H   0  0  0  0  0  0  0  0  0  0  0  0
  139.7298   68.1118  227.3689 H   0  0  0  0  0  0  0  0  0  0  0  0
  140.7111   69.2798  229.3082 H   0  0  0  0  0  0  0  0  0  0  0  0
  141.4961   71.6399  229.0677 H   0  0  0  0  0  0  0  0  0  0  0  0
  141.2818   72.7691  226.8669 H   0  0  0  0  0  0  0  0  0  0  0  0
  1  2  2  0
  2  3  1  0
  3  4  1  0
  4  5  1  0
  5  6  2  0
  5  7  1  0
  7  8  1  0
  8  9  1  0
  9 10  1  0
 10 11  1  0
 11 12  1  0
 12 13  1  0
  2 14  1  0
 14 15  2  0
 15 16  1  0
 16 17  2  0
 17 18  1  0
 18 19  2  0
 19 20  1  0
 20 21  2  0
 21 22  1  0
 22 23  2  0
 11  7  1  0
 23 14  1  0
 22 17  1  0
  3 24  1  0
  4 25  1  0
  4 26  1  0
  8 27  1  0
  8 28  1  0
  9 29  1  0
  9 30  1  0
 10 31  1  0
 10 32  1  0
 11 33  1  6
 12 34  1  0
 12 35  1  0
 13 36  1  0
 15 37  1  0
 16 38  1  0
 18 39  1  0
 19 40  1  0
 20 41  1  0
 21 42  1  0
M  END
>  <smiles>  (22) 
O=C(NCC(=O)N1CCC[C@H]1CO)c1ccc2ccccc2n1

>  <score_type>  (22) 
oracle

>  <origin>  (22) 
autodockgpu

>  <m_score__min__energy>  (22) 
-6.9299999999999997

>  <m_primary>  (22) 
energy

>  <rmsd>  (22) 
1.678442517878517

>  <m_score__min__rmsd>  (22) 
1.678442517878517

>  <meeko>  (22) 
{"free_energy": -6.1, "intermolecular_energy": -7.89, "internal_energy": -2.37, "cluster_size": 35, "cluster_id": 1, "rank_in_cluster": 33}

>  <energy>  (22) 
-6.46

>  <cluster_rmsd>  (22) 
1.18

>  <cluster>  (22) 
1

$$$$

     RDKit          3D

 42 44  0  0  0  0  0  0  0  0999 V2000
  140.2780   71.2970  221.1960 O   0  0  0  0  0  0  0  0  0  0  0  0
  140.0380   71.9860  222.2150 C   0  0  0  0  0  0  0  0  0  0  0  0
  139.7880   73.3820  222.1930 N   0  0  0  0  0  0  0  0  0  0  0  0
  139.8040   74.1050  220.9110 C   0  0  0  0  0  0  0  0  0  0  0  0
  140.3810   75.4230  221.1780 C   0  0  0  0  0  0  0  0  0  0  0  0
  140.6880   75.7760  222.3630 O   0  0  0  0  0  0  0  0  0  0  0  0
  140.6460   76.4090  220.1720 N   0  0  0  0  0  0  0  0  0  0  0  0
  139.7590   76.6370  219.0640 C   0  0  0  0  0  0  0  0  0  0  0  0
  140.3720   77.8030  218.3320 C   0  0  0  0  0  0  0  0  0  0  0  0
  141.8350   77.6460  218.6150 C   0  0  0  0  0  0  0  0  0  0  0  0
  141.8040   77.3090  220.0940 C   0  0  1  0  0  0  0  0  0  0  0  0
  141.5100   78.5070  220.9390 C   0  0  0  0  0  0  0  0  0  0  0  0
  141.4920   78.1880  222.3100 O   0  0  0  0  0  0  0  0  0  0  0  0
  140.0100   71.3100  223.5180 C   0  0  0  0  0  0  0  0  0  0  0  0
  139.4620   70.0430  223.6570 C   0  0  0  0  0  0  0  0  0  0  0  0
  139.4160   69.3810  224.8430 C   0  0  0  0  0  0  0  0  0  0  0  0
  139.9330   69.9800  225.9690 C   0  0  0  0  0  0  0  0  0  0  0  0
  139.9150   69.3570  227.1990 C   0  0  0  0  0  0  0  0  0  0  0  0
  140.4340   69.9670  228.3180 C   0  0  0  0  0  0  0  0  0  0  0  0
  140.9880   71.2330  228.2150 C   0  0  0  0  0  0  0  0  0  0  0  0
  141.0040   71.8550  226.9700 C   0  0  0  0  0  0  0  0  0  0  0  0
  140.4880   71.2580  225.8410 C   0  0  0  0  0  0  0  0  0  0  0  0
  140.5080   71.8740  224.6330 N   0  0  0  0  0  0  0  0  0  0  0  0
  139.5940   73.8900  223.0890 H   0  0  0  0  0  0  0  0  0  0  0  0
  140.4197   73.5632  220.1780 H   0  0  0  0  0  0  0  0  0  0  0  0
  138.7897   74.1944  220.4948 H   0  0  0  0  0  0  0  0  0  0  0  0
  139.7107   75.7506  218.4144 H   0  0  0  0  0  0  0  0  0  0  0  0
  138.7265   76.8379  219.3859 H   0  0  0  0  0  0  0  0  0  0  0  0
  140.1693   77.7430  217.2525 H   0  0  0  0  0  0  0  0  0  0  0  0
  139.9702   78.7758  218.6518 H   0  0  0  0  0  0  0  0  0  0  0  0
  142.2766   76.8307  218.0232 H   0  0  0  0  0  0  0  0  0  0  0  0
  142.4449   78.5255  218.3610 H   0  0  0  0  0  0  0  0  0  0  0  0
  142.7622   76.9012  220.4482 H   0  0  0  0  0  0  0  0  0  0  0  0
  142.2845   79.2674  220.7605 H   0  0  0  0  0  0  0  0  0  0  0  0
  140.5144   78.8844  220.6626 H   0  0  0  0  0  0  0  0  0  0  0  0
  141.8310   77.2840  222.4870 H   0  0  0  0  0  0  0  0  0  0  0  0
  139.0453   69.5513  222.7656 H   0  0  0  0  0  0  0  0  0  0  0  0
  138.9703   68.3771  224.9023 H   0  0  0  0  0  0  0  0  0  0  0  0
  139.4768   68.3519  227.2875 H   0  0  0  0  0  0  0  0  0  0  0  0
  140.4092   69.4521  229.2897 H   0  0  0  0  0  0  0  0  0  0  0  0
  141.4066   71.7361  229.0991 H   0  0  0  0  0  0  0  0  0  0  0  0
  141.4445   72.8593  226.8846 H   0  0  0  0  0  0  0  0  0  0  0  0
  1  2  2  0
  2  3  1  0
  3  4  1  0
  4  5  1  0
  5  6  2  0
  5  7  1  0
  7  8  1  0
  8  9  1  0
  9 10  1  0
 10 11  1  0
 11 12  1  0
 12 13  1  0
  2 14  1  0
 14 15  2  0
 15 16  1  0
 16 17  2  0
 17 18  1  0
 18 19  2  0
 19 20  1  0
 20 21  2  0
 21 22  1  0
 22 23  2  0
 11  7  1  0
 23 14  1  0
 22 17  1  0
  3 24  1  0
  4 25  1  0
  4 26  1  0
  8 27  1  0
  8 28  1  0
  9 29  1  0
  9 30  1  0
 10 31  1  0
 10 32  1  0
 11 33  1  1
 12 34  1  0
 12 35  1  0
 13 36  1  0
 15 37  1  0
 16 38  1  0
 18 39  1  0
 19 40  1  0
 20 41  1  0
 21 42  1  0
M  END
>  <smiles>  (23) 
O=C(NCC(=O)N1CCC[C@H]1CO)c1ccc2ccccc2n1

>  <score_type>  (23) 
oracle

>  <origin>  (23) 
autodockgpu

>  <m_score__min__energy>  (23) 
-6.9299999999999997

>  <m_primary>  (23) 
energy

>  <rmsd>  (23) 
1.3605432059027436

>  <m_score__min__rmsd>  (23) 
1.3605432059027436

>  <meeko>  (23) 
{"free_energy": -6.46, "intermolecular_energy": -8.25, "internal_energy": -2.15, "cluster_size": 35, "cluster_id": 1, "rank_in_cluster": 21}

>  <energy>  (23) 
-6.45

>  <cluster_rmsd>  (23) 
1.16

>  <cluster>  (23) 
1

$$$$

     RDKit          3D

 42 44  0  0  0  0  0  0  0  0999 V2000
  141.4760   72.6600  221.5830 O   0  0  0  0  0  0  0  0  0  0  0  0
  140.5060   72.8280  222.3590 C   0  0  0  0  0  0  0  0  0  0  0  0
  139.6550   73.9620  222.3390 N   0  0  0  0  0  0  0  0  0  0  0  0
  139.8940   75.0340  221.3590 C   0  0  0  0  0  0  0  0  0  0  0  0
  139.5910   76.2960  222.0330 C   0  0  0  0  0  0  0  0  0  0  0  0
  138.5300   76.4310  222.7250 O   0  0  0  0  0  0  0  0  0  0  0  0
  140.4250   77.4610  221.9820 N   0  0  0  0  0  0  0  0  0  0  0  0
  141.2140   77.7950  220.8280 C   0  0  0  0  0  0  0  0  0  0  0  0
  141.8390   79.1210  221.1760 C   0  0  0  0  0  0  0  0  0  0  0  0
  141.9630   79.0530  222.6690 C   0  0  0  0  0  0  0  0  0  0  0  0
  140.6150   78.4650  223.0400 C   0  0  1  0  0  0  0  0  0  0  0  0
  139.5110   79.4660  222.9230 C   0  0  0  0  0  0  0  0  0  0  0  0
  138.3010   78.9760  223.4510 O   0  0  0  0  0  0  0  0  0  0  0  0
  140.2270   71.7860  223.3550 C   0  0  0  0  0  0  0  0  0  0  0  0
  139.4860   70.6590  223.0260 C   0  0  0  0  0  0  0  0  0  0  0  0
  139.2040   69.6700  223.9150 C   0  0  0  0  0  0  0  0  0  0  0  0
  139.6670   69.7760  225.2070 C   0  0  0  0  0  0  0  0  0  0  0  0
  139.4130   68.8050  226.1530 C   0  0  0  0  0  0  0  0  0  0  0  0
  139.8800   68.9200  227.4420 C   0  0  0  0  0  0  0  0  0  0  0  0
  140.6230   70.0330  227.8040 C   0  0  0  0  0  0  0  0  0  0  0  0
  140.8760   71.0090  226.8450 C   0  0  0  0  0  0  0  0  0  0  0  0
  140.4150   70.9070  225.5500 C   0  0  0  0  0  0  0  0  0  0  0  0
  140.6670   71.8640  224.6230 N   0  0  0  0  0  0  0  0  0  0  0  0
  138.8640   74.0310  223.0210 H   0  0  0  0  0  0  0  0  0  0  0  0
  140.9443   75.0215  221.0323 H   0  0  0  0  0  0  0  0  0  0  0  0
  139.2646   74.9014  220.4667 H   0  0  0  0  0  0  0  0  0  0  0  0
  141.9881   77.0336  220.6515 H   0  0  0  0  0  0  0  0  0  0  0  0
  140.6137   77.8418  219.9075 H   0  0  0  0  0  0  0  0  0  0  0  0
  142.8255   79.2299  220.7017 H   0  0  0  0  0  0  0  0  0  0  0  0
  141.2502   79.9827  220.8284 H   0  0  0  0  0  0  0  0  0  0  0  0
  142.7898   78.3960  222.9770 H   0  0  0  0  0  0  0  0  0  0  0  0
  142.1882   80.0156  223.1515 H   0  0  0  0  0  0  0  0  0  0  0  0
  140.5941   78.0929  224.0749 H   0  0  0  0  0  0  0  0  0  0  0  0
  139.7960   80.3758  223.4716 H   0  0  0  0  0  0  0  0  0  0  0  0
  139.3557   79.6797  221.8552 H   0  0  0  0  0  0  0  0  0  0  0  0
  138.1310   78.0450  223.1890 H   0  0  0  0  0  0  0  0  0  0  0  0
  139.1092   70.5617  221.9971 H   0  0  0  0  0  0  0  0  0  0  0  0
  138.6129   68.7954  223.6056 H   0  0  0  0  0  0  0  0  0  0  0  0
  138.8244   67.9196  225.8708 H   0  0  0  0  0  0  0  0  0  0  0  0
  139.6652   68.1338  228.1807 H   0  0  0  0  0  0  0  0  0  0  0  0
  141.0052   70.1425  228.8296 H   0  0  0  0  0  0  0  0  0  0  0  0
  141.4648   71.8932  227.1305 H   0  0  0  0  0  0  0  0  0  0  0  0
  1  2  2  0
  2  3  1  0
  3  4  1  0
  4  5  1  0
  5  6  2  0
  5  7  1  0
  7  8  1  0
  8  9  1  0
  9 10  1  0
 10 11  1  0
 11 12  1  0
 12 13  1  0
  2 14  1  0
 14 15  2  0
 15 16  1  0
 16 17  2  0
 17 18  1  0
 18 19  2  0
 19 20  1  0
 20 21  2  0
 21 22  1  0
 22 23  2  0
 11  7  1  0
 23 14  1  0
 22 17  1  0
  3 24  1  0
  4 25  1  0
  4 26  1  0
  8 27  1  0
  8 28  1  0
  9 29  1  0
  9 30  1  0
 10 31  1  0
 10 32  1  0
 11 33  1  1
 12 34  1  0
 12 35  1  0
 13 36  1  0
 15 37  1  0
 16 38  1  0
 18 39  1  0
 19 40  1  0
 20 41  1  0
 21 42  1  0
M  END
>  <smiles>  (24) 
O=C(NCC(=O)N1CCC[C@H]1CO)c1ccc2ccccc2n1

>  <score_type>  (24) 
oracle

>  <origin>  (24) 
autodockgpu

>  <m_score__min__energy>  (24) 
-6.9299999999999997

>  <m_primary>  (24) 
energy

>  <rmsd>  (24) 
2.9666269525868074

>  <m_score__min__rmsd>  (24) 
2.9666269525868074

>  <meeko>  (24) 
{"free_energy": -6.5, "intermolecular_energy": -8.29, "internal_energy": -1.93, "cluster_size": 35, "cluster_id": 1, "rank_in_cluster": 15}

>  <energy>  (24) 
-6.44

>  <cluster_rmsd>  (24) 
1.39

>  <cluster>  (24) 
1

$$$$

     RDKit          3D

 42 44  0  0  0  0  0  0  0  0999 V2000
  140.4570   71.4040  221.2890 O   0  0  0  0  0  0  0  0  0  0  0  0
  140.1240   72.0150  222.3320 C   0  0  0  0  0  0  0  0  0  0  0  0
  139.8140   73.3980  222.3800 N   0  0  0  0  0  0  0  0  0  0  0  0
  139.8760   74.2020  221.1490 C   0  0  0  0  0  0  0  0  0  0  0  0
  139.8920   75.6060  221.5630 C   0  0  0  0  0  0  0  0  0  0  0  0
  139.4870   75.9520  222.7210 O   0  0  0  0  0  0  0  0  0  0  0  0
  140.3450   76.6870  220.7390 N   0  0  0  0  0  0  0  0  0  0  0  0
  139.5510   77.2260  219.6680 C   0  0  0  0  0  0  0  0  0  0  0  0
  140.3640   78.3850  219.1510 C   0  0  0  0  0  0  0  0  0  0  0  0
  141.7730   77.9590  219.4300 C   0  0  0  0  0  0  0  0  0  0  0  0
  141.6290   77.3970  220.8320 C   0  0  1  0  0  0  0  0  0  0  0  0
  141.4820   78.4740  221.8580 C   0  0  0  0  0  0  0  0  0  0  0  0
  141.4060   77.9480  223.1620 O   0  0  0  0  0  0  0  0  0  0  0  0
  140.0470   71.2560  223.5860 C   0  0  0  0  0  0  0  0  0  0  0  0
  139.5380   69.9650  223.6130 C   0  0  0  0  0  0  0  0  0  0  0  0
  139.4480   69.2260  224.7500 C   0  0  0  0  0  0  0  0  0  0  0  0
  139.8770   69.7690  225.9400 C   0  0  0  0  0  0  0  0  0  0  0  0
  139.8110   69.0670  227.1260 C   0  0  0  0  0  0  0  0  0  0  0  0
  140.2430   69.6200  228.3100 C   0  0  0  0  0  0  0  0  0  0  0  0
  140.7550   70.9080  228.3190 C   0  0  0  0  0  0  0  0  0  0  0  0
  140.8190   71.6090  227.1190 C   0  0  0  0  0  0  0  0  0  0  0  0
  140.3910   71.0700  225.9250 C   0  0  0  0  0  0  0  0  0  0  0  0
  140.4590   71.7630  224.7620 N   0  0  0  0  0  0  0  0  0  0  0  0
  139.5430   73.8390  223.2910 H   0  0  0  0  0  0  0  0  0  0  0  0
  140.7900   73.9626  220.5857 H   0  0  0  0  0  0  0  0  0  0  0  0
  139.0160   73.9922  220.4960 H   0  0  0  0  0  0  0  0  0  0  0  0
  139.3981   76.4744  218.8795 H   0  0  0  0  0  0  0  0  0  0  0  0
  138.5475   77.5305  220.0000 H   0  0  0  0  0  0  0  0  0  0  0  0
  140.2015   78.5323  218.0731 H   0  0  0  0  0  0  0  0  0  0  0  0
  140.0998   79.3438  219.6210 H   0  0  0  0  0  0  0  0  0  0  0  0
  142.1118   77.1910  218.7191 H   0  0  0  0  0  0  0  0  0  0  0  0
  142.5183   78.7626  219.3362 H   0  0  0  0  0  0  0  0  0  0  0  0
  142.4990   76.7937  221.1305 H   0  0  0  0  0  0  0  0  0  0  0  0
  142.3505   79.1462  221.7954 H   0  0  0  0  0  0  0  0  0  0  0  0
  140.5468   79.0157  221.6531 H   0  0  0  0  0  0  0  0  0  0  0  0
  140.9330   77.0880  223.1890 H   0  0  0  0  0  0  0  0  0  0  0  0
  139.1910   69.5188  222.6693 H   0  0  0  0  0  0  0  0  0  0  0  0
  139.0372   68.2060  224.7197 H   0  0  0  0  0  0  0  0  0  0  0  0
  139.4049   68.0447  227.1252 H   0  0  0  0  0  0  0  0  0  0  0  0
  140.1822   69.0427  229.2444 H   0  0  0  0  0  0  0  0  0  0  0  0
  141.1037   71.3667  229.2560 H   0  0  0  0  0  0  0  0  0  0  0  0
  141.2261   72.6309  227.1234 H   0  0  0  0  0  0  0  0  0  0  0  0
  1  2  2  0
  2  3  1  0
  3  4  1  0
  4  5  1  0
  5  6  2  0
  5  7  1  0
  7  8  1  0
  8  9  1  0
  9 10  1  0
 10 11  1  0
 11 12  1  0
 12 13  1  0
  2 14  1  0
 14 15  2  0
 15 16  1  0
 16 17  2  0
 17 18  1  0
 18 19  2  0
 19 20  1  0
 20 21  2  0
 21 22  1  0
 22 23  2  0
 11  7  1  0
 23 14  1  0
 22 17  1  0
  3 24  1  0
  4 25  1  0
  4 26  1  0
  8 27  1  0
  8 28  1  0
  9 29  1  0
  9 30  1  0
 10 31  1  0
 10 32  1  0
 11 33  1  1
 12 34  1  0
 12 35  1  0
 13 36  1  0
 15 37  1  0
 16 38  1  0
 18 39  1  0
 19 40  1  0
 20 41  1  0
 21 42  1  0
M  END
>  <smiles>  (25) 
O=C(NCC(=O)N1CCC[C@H]1CO)c1ccc2ccccc2n1

>  <score_type>  (25) 
oracle

>  <origin>  (25) 
autodockgpu

>  <m_score__min__energy>  (25) 
-6.9299999999999997

>  <m_primary>  (25) 
energy

>  <rmsd>  (25) 
1.6125214563198114

>  <m_score__min__rmsd>  (25) 
1.6125214563198114

>  <meeko>  (25) 
{"free_energy": -6.07, "intermolecular_energy": -7.86, "internal_energy": -2.32, "cluster_size": 35, "cluster_id": 1, "rank_in_cluster": 34}

>  <energy>  (25) 
-6.44

>  <cluster_rmsd>  (25) 
1.17

>  <cluster>  (25) 
1

$$$$

     RDKit          3D

 42 44  0  0  0  0  0  0  0  0999 V2000
  141.5160   72.3830  221.6010 O   0  0  0  0  0  0  0  0  0  0  0  0
  140.5670   72.6030  222.3890 C   0  0  0  0  0  0  0  0  0  0  0  0
  139.7510   73.7630  222.3500 N   0  0  0  0  0  0  0  0  0  0  0  0
  140.0040   74.7980  221.3360 C   0  0  0  0  0  0  0  0  0  0  0  0
  139.6660   76.0820  221.9510 C   0  0  0  0  0  0  0  0  0  0  0  0
  138.6340   76.2030  222.6890 O   0  0  0  0  0  0  0  0  0  0  0  0
  140.4300   77.2830  221.7880 N   0  0  0  0  0  0  0  0  0  0  0  0
  141.1980   77.5550  220.6030 C   0  0  0  0  0  0  0  0  0  0  0  0
  141.7450   78.9410  220.8250 C   0  0  0  0  0  0  0  0  0  0  0  0
  141.8750   79.0170  222.3160 C   0  0  0  0  0  0  0  0  0  0  0  0
  140.5630   78.3880  222.7480 C   0  0  1  0  0  0  0  0  0  0  0  0
  139.4030   79.3090  222.5480 C   0  0  0  0  0  0  0  0  0  0  0  0
  138.2120   78.7710  223.0700 O   0  0  0  0  0  0  0  0  0  0  0  0
  140.2740   71.5990  223.4190 C   0  0  0  0  0  0  0  0  0  0  0  0
  139.5730   70.4410  223.1130 C   0  0  0  0  0  0  0  0  0  0  0  0
  139.2810   69.4850  224.0350 C   0  0  0  0  0  0  0  0  0  0  0  0
  139.6910   69.6590  225.3370 C   0  0  0  0  0  0  0  0  0  0  0  0
  139.4250   68.7240  226.3150 C   0  0  0  0  0  0  0  0  0  0  0  0
  139.8400   68.9070  227.6140 C   0  0  0  0  0  0  0  0  0  0  0  0
  140.5420   70.0530  227.9540 C   0  0  0  0  0  0  0  0  0  0  0  0
  140.8080   70.9920  226.9610 C   0  0  0  0  0  0  0  0  0  0  0  0
  140.3990   70.8220  225.6570 C   0  0  0  0  0  0  0  0  0  0  0  0
  140.6640   71.7440  224.6980 N   0  0  0  0  0  0  0  0  0  0  0  0
  138.9740   73.8750  223.0440 H   0  0  0  0  0  0  0  0  0  0  0  0
  141.0632   74.7870  221.0394 H   0  0  0  0  0  0  0  0  0  0  0  0
  139.4018   74.6218  220.4325 H   0  0  0  0  0  0  0  0  0  0  0  0
  142.0149   76.8267  220.4922 H   0  0  0  0  0  0  0  0  0  0  0  0
  140.5956   77.4825  219.6855 H   0  0  0  0  0  0  0  0  0  0  0  0
  142.7228   79.0632  220.3361 H   0  0  0  0  0  0  0  0  0  0  0  0
  141.1062   79.7317  220.4046 H   0  0  0  0  0  0  0  0  0  0  0  0
  142.7390   78.4398  222.6770 H   0  0  0  0  0  0  0  0  0  0  0  0
  142.0448   80.0309  222.7074 H   0  0  0  0  0  0  0  0  0  0  0  0
  140.5652   78.1110  223.8125 H   0  0  0  0  0  0  0  0  0  0  0  0
  139.6144   80.2628  223.0536 H   0  0  0  0  0  0  0  0  0  0  0  0
  139.2662   79.4564  221.4665 H   0  0  0  0  0  0  0  0  0  0  0  0
  138.2010   77.7900  223.0380 H   0  0  0  0  0  0  0  0  0  0  0  0
  139.2379   70.2894  222.0763 H   0  0  0  0  0  0  0  0  0  0  0  0
  138.7234   68.5828  223.7433 H   0  0  0  0  0  0  0  0  0  0  0  0
  138.8691   67.8123  226.0510 H   0  0  0  0  0  0  0  0  0  0  0  0
  139.6160   68.1483  228.3783 H   0  0  0  0  0  0  0  0  0  0  0  0
  140.8820   70.2171  228.9872 H   0  0  0  0  0  0  0  0  0  0  0  0
  141.3649   71.9024  227.2276 H   0  0  0  0  0  0  0  0  0  0  0  0
  1  2  2  0
  2  3  1  0
  3  4  1  0
  4  5  1  0
  5  6  2  0
  5  7  1  0
  7  8  1  0
  8  9  1  0
  9 10  1  0
 10 11  1  0
 11 12  1  0
 12 13  1  0
  2 14  1  0
 14 15  2  0
 15 16  1  0
 16 17  2  0
 17 18  1  0
 18 19  2  0
 19 20  1  0
 20 21  2  0
 21 22  1  0
 22 23  2  0
 11  7  1  0
 23 14  1  0
 22 17  1  0
  3 24  1  0
  4 25  1  0
  4 26  1  0
  8 27  1  0
  8 28  1  0
  9 29  1  0
  9 30  1  0
 10 31  1  0
 10 32  1  0
 11 33  1  1
 12 34  1  0
 12 35  1  0
 13 36  1  0
 15 37  1  0
 16 38  1  0
 18 39  1  0
 19 40  1  0
 20 41  1  0
 21 42  1  0
M  END
>  <smiles>  (26) 
O=C(NCC(=O)N1CCC[C@H]1CO)c1ccc2ccccc2n1

>  <score_type>  (26) 
oracle

>  <origin>  (26) 
autodockgpu

>  <m_score__min__energy>  (26) 
-6.9299999999999997

>  <m_primary>  (26) 
energy

>  <rmsd>  (26) 
2.775285649786752

>  <m_score__min__rmsd>  (26) 
2.775285649786752

>  <meeko>  (26) 
{"free_energy": -6.44, "intermolecular_energy": -8.23, "internal_energy": -2.0, "cluster_size": 35, "cluster_id": 1, "rank_in_cluster": 25}

>  <energy>  (26) 
-6.44

>  <cluster_rmsd>  (26) 
1.16

>  <cluster>  (26) 
1

$$$$

     RDKit          3D

 42 44  0  0  0  0  0  0  0  0999 V2000
  141.0860   71.4430  221.3620 O   0  0  0  0  0  0  0  0  0  0  0  0
  140.4310   72.0520  222.2400 C   0  0  0  0  0  0  0  0  0  0  0  0
  139.8710   73.3440  222.0650 N   0  0  0  0  0  0  0  0  0  0  0  0
  140.0490   74.0460  220.7850 C   0  0  0  0  0  0  0  0  0  0  0  0
  141.1980   74.9370  220.9490 C   0  0  0  0  0  0  0  0  0  0  0  0
  142.3880   74.4840  220.9090 O   0  0  0  0  0  0  0  0  0  0  0  0
  141.1010   76.3510  221.1630 N   0  0  0  0  0  0  0  0  0  0  0  0
  141.3760   77.3090  220.1260 C   0  0  0  0  0  0  0  0  0  0  0  0
  141.0600   78.6400  220.7570 C   0  0  0  0  0  0  0  0  0  0  0  0
  141.3570   78.4040  222.2070 C   0  0  0  0  0  0  0  0  0  0  0  0
  140.7290   77.0380  222.4080 C   0  0  1  0  0  0  0  0  0  0  0  0
  139.2370   77.1060  222.4640 C   0  0  0  0  0  0  0  0  0  0  0  0
  138.6630   75.8400  222.6860 O   0  0  0  0  0  0  0  0  0  0  0  0
  140.2270   71.3920  223.5350 C   0  0  0  0  0  0  0  0  0  0  0  0
  139.5310   70.1950  223.6290 C   0  0  0  0  0  0  0  0  0  0  0  0
  139.3180   69.5490  224.8060 C   0  0  0  0  0  0  0  0  0  0  0  0
  139.8100   70.0940  225.9700 C   0  0  0  0  0  0  0  0  0  0  0  0
  139.6270   69.4850  227.1930 C   0  0  0  0  0  0  0  0  0  0  0  0
  140.1230   70.0390  228.3510 C   0  0  0  0  0  0  0  0  0  0  0  0
  140.8220   71.2340  228.2940 C   0  0  0  0  0  0  0  0  0  0  0  0
  141.0040   71.8430  227.0560 C   0  0  0  0  0  0  0  0  0  0  0  0
  140.5140   71.3010  225.8880 C   0  0  0  0  0  0  0  0  0  0  0  0
  140.6970   71.9030  224.6870 N   0  0  0  0  0  0  0  0  0  0  0  0
  139.3370   73.7890  222.8480 H   0  0  0  0  0  0  0  0  0  0  0  0
  140.2427   73.3222  219.9797 H   0  0  0  0  0  0  0  0  0  0  0  0
  139.1451   74.6122  220.5158 H   0  0  0  0  0  0  0  0  0  0  0  0
  142.4323   77.2625  219.8224 H   0  0  0  0  0  0  0  0  0  0  0  0
  140.7867   77.1245  219.2157 H   0  0  0  0  0  0  0  0  0  0  0  0
  141.7005   79.4344  220.3463 H   0  0  0  0  0  0  0  0  0  0  0  0
  140.0275   78.9724  220.5743 H   0  0  0  0  0  0  0  0  0  0  0  0
  142.4397   78.3840  222.4003 H   0  0  0  0  0  0  0  0  0  0  0  0
  140.9757   79.1840  222.8825 H   0  0  0  0  0  0  0  0  0  0  0  0
  141.0579   76.5625  223.3438 H   0  0  0  0  0  0  0  0  0  0  0  0
  138.9419   77.7790  223.2825 H   0  0  0  0  0  0  0  0  0  0  0  0
  138.8756   77.4795  221.4945 H   0  0  0  0  0  0  0  0  0  0  0  0
  139.0950   75.3600  223.4250 H   0  0  0  0  0  0  0  0  0  0  0  0
  139.1325   69.7474  222.7066 H   0  0  0  0  0  0  0  0  0  0  0  0
  138.7590   68.6019  224.8278 H   0  0  0  0  0  0  0  0  0  0  0  0
  139.0728   68.5362  227.2444 H   0  0  0  0  0  0  0  0  0  0  0  0
  139.9654   69.5359  229.3164 H   0  0  0  0  0  0  0  0  0  0  0  0
  141.2251   71.6922  229.2092 H   0  0  0  0  0  0  0  0  0  0  0  0
  141.5592   72.7914  227.0083 H   0  0  0  0  0  0  0  0  0  0  0  0
  1  2  2  0
  2  3  1  0
  3  4  1  0
  4  5  1  0
  5  6  2  0
  5  7  1  0
  7  8  1  0
  8  9  1  0
  9 10  1  0
 10 11  1  0
 11 12  1  0
 12 13  1  0
  2 14  1  0
 14 15  2  0
 15 16  1  0
 16 17  2  0
 17 18  1  0
 18 19  2  0
 19 20  1  0
 20 21  2  0
 21 22  1  0
 22 23  2  0
 11  7  1  0
 23 14  1  0
 22 17  1  0
  3 24  1  0
  4 25  1  0
  4 26  1  0
  8 27  1  0
  8 28  1  0
  9 29  1  0
  9 30  1  0
 10 31  1  0
 10 32  1  0
 11 33  1  1
 12 34  1  0
 12 35  1  0
 13 36  1  0
 15 37  1  0
 16 38  1  0
 18 39  1  0
 19 40  1  0
 20 41  1  0
 21 42  1  0
M  END
>  <smiles>  (27) 
O=C(NCC(=O)N1CCC[C@H]1CO)c1ccc2ccccc2n1

>  <score_type>  (27) 
oracle

>  <origin>  (27) 
autodockgpu

>  <m_score__min__energy>  (27) 
-6.9299999999999997

>  <m_primary>  (27) 
energy

>  <rmsd>  (27) 
2.52773913515634

>  <m_score__min__rmsd>  (27) 
2.52773913515634

>  <meeko>  (27) 
{"free_energy": -6.93, "intermolecular_energy": -8.72, "internal_energy": -1.7, "cluster_size": 35, "cluster_id": 1, "rank_in_cluster": 1}

>  <energy>  (27) 
-6.44

>  <cluster_rmsd>  (27) 
1.35

>  <cluster>  (27) 
1

$$$$

     RDKit          3D

 42 44  0  0  0  0  0  0  0  0999 V2000
  139.2850   74.8530  222.0400 O   0  0  0  0  0  0  0  0  0  0  0  0
  140.3480   75.5120  221.9700 C   0  0  0  0  0  0  0  0  0  0  0  0
  141.5800   74.9910  221.4970 N   0  0  0  0  0  0  0  0  0  0  0  0
  141.6550   73.5900  221.0520 C   0  0  0  0  0  0  0  0  0  0  0  0
  142.8880   73.4600  220.2760 C   0  0  0  0  0  0  0  0  0  0  0  0
  143.6850   74.4450  220.1430 O   0  0  0  0  0  0  0  0  0  0  0  0
  143.3050   72.2590  219.6140 N   0  0  0  0  0  0  0  0  0  0  0  0
  142.4460   71.5350  218.7170 C   0  0  0  0  0  0  0  0  0  0  0  0
  143.3130   70.4210  218.1910 C   0  0  0  0  0  0  0  0  0  0  0  0
  144.2590   70.1670  219.3250 C   0  0  0  0  0  0  0  0  0  0  0  0
  144.6070   71.5870  219.7290 C   0  0  1  0  0  0  0  0  0  0  0  0
  145.5430   72.2360  218.7600 C   0  0  0  0  0  0  0  0  0  0  0  0
  146.2170   73.3290  219.3350 O   0  0  0  0  0  0  0  0  0  0  0  0
  140.3240   76.9150  222.4020 C   0  0  0  0  0  0  0  0  0  0  0  0
  139.1260   77.5670  222.6560 C   0  0  0  0  0  0  0  0  0  0  0  0
  139.0570   78.8640  223.0570 C   0  0  0  0  0  0  0  0  0  0  0  0
  140.2210   79.5790  223.2240 C   0  0  0  0  0  0  0  0  0  0  0  0
  140.2140   80.8970  223.6300 C   0  0  0  0  0  0  0  0  0  0  0  0
  141.3840   81.6020  223.7950 C   0  0  0  0  0  0  0  0  0  0  0  0
  142.5990   80.9820  223.5490 C   0  0  0  0  0  0  0  0  0  0  0  0
  142.5980   79.6520  223.1400 C   0  0  0  0  0  0  0  0  0  0  0  0
  141.4350   78.9320  222.9710 C   0  0  0  0  0  0  0  0  0  0  0  0
  141.4470   77.6360  222.5730 N   0  0  0  0  0  0  0  0  0  0  0  0
  142.4280   75.6050  221.4690 H   0  0  0  0  0  0  0  0  0  0  0  0
  141.6819   72.9171  221.9217 H   0  0  0  0  0  0  0  0  0  0  0  0
  140.7769   73.3198  220.4471 H   0  0  0  0  0  0  0  0  0  0  0  0
  141.5745   71.1309  219.2529 H   0  0  0  0  0  0  0  0  0  0  0  0
  142.0447   72.1707  217.9140 H   0  0  0  0  0  0  0  0  0  0  0  0
  142.7142   69.5258  217.9674 H   0  0  0  0  0  0  0  0  0  0  0  0
  143.8224   70.6753  217.2498 H   0  0  0  0  0  0  0  0  0  0  0  0
  143.7701   69.6211  220.1453 H   0  0  0  0  0  0  0  0  0  0  0  0
  145.1261   69.5427  219.0634 H   0  0  0  0  0  0  0  0  0  0  0  0
  145.0930   71.6316  220.7148 H   0  0  0  0  0  0  0  0  0  0  0  0
  146.2850   71.4938  218.4305 H   0  0  0  0  0  0  0  0  0  0  0  0
  144.9512   72.6083  217.9108 H   0  0  0  0  0  0  0  0  0  0  0  0
  145.6740   74.1470  219.3300 H   0  0  0  0  0  0  0  0  0  0  0  0
  138.1875   77.0079  222.5268 H   0  0  0  0  0  0  0  0  0  0  0  0
  138.0819   79.3367  223.2459 H   0  0  0  0  0  0  0  0  0  0  0  0
  139.2530   81.3950  223.8260 H   0  0  0  0  0  0  0  0  0  0  0  0
  141.3553   82.6523  224.1205 H   0  0  0  0  0  0  0  0  0  0  0  0
  143.5445   81.5300  223.6745 H   0  0  0  0  0  0  0  0  0  0  0  0
  143.5607   79.1571  222.9444 H   0  0  0  0  0  0  0  0  0  0  0  0
  1  2  2  0
  2  3  1  0
  3  4  1  0
  4  5  1  0
  5  6  2  0
  5  7  1  0
  7  8  1  0
  8  9  1  0
  9 10  1  0
 10 11  1  0
 11 12  1  0
 12 13  1  0
  2 14  1  0
 14 15  2  0
 15 16  1  0
 16 17  2  0
 17 18  1  0
 18 19  2  0
 19 20  1  0
 20 21  2  0
 21 22  1  0
 22 23  2  0
 11  7  1  0
 23 14  1  0
 22 17  1  0
  3 24  1  0
  4 25  1  0
  4 26  1  0
  8 27  1  0
  8 28  1  0
  9 29  1  0
  9 30  1  0
 10 31  1  0
 10 32  1  0
 11 33  1  1
 12 34  1  0
 12 35  1  0
 13 36  1  0
 15 37  1  0
 16 38  1  0
 18 39  1  0
 19 40  1  0
 20 41  1  0
 21 42  1  0
M  END
>  <smiles>  (28) 
O=C(NCC(=O)N1CCC[C@H]1CO)c1ccc2ccccc2n1

>  <score_type>  (28) 
oracle

>  <origin>  (28) 
autodockgpu

>  <m_score__min__energy>  (28) 
-6.9299999999999997

>  <m_primary>  (28) 
energy

>  <rmsd>  (28) 
7.979809876198463

>  <m_score__min__rmsd>  (28) 
7.979809876198463

>  <meeko>  (28) 
{"free_energy": -6.05, "intermolecular_energy": -7.84, "internal_energy": -2.43, "cluster_size": 10, "cluster_id": 4, "rank_in_cluster": 7}

>  <energy>  (28) 
-6.43

>  <cluster_rmsd>  (28) 
1.15

>  <cluster>  (28) 
1

$$$$

     RDKit          3D

 42 44  0  0  0  0  0  0  0  0999 V2000
  141.5400   72.4240  221.5520 O   0  0  0  0  0  0  0  0  0  0  0  0
  140.6270   72.6950  222.3670 C   0  0  0  0  0  0  0  0  0  0  0  0
  139.8700   73.8950  222.3470 N   0  0  0  0  0  0  0  0  0  0  0  0
  140.1450   74.9120  221.3190 C   0  0  0  0  0  0  0  0  0  0  0  0
  139.8010   76.2070  221.9070 C   0  0  0  0  0  0  0  0  0  0  0  0
  138.7560   76.3460  222.6210 O   0  0  0  0  0  0  0  0  0  0  0  0
  140.5770   77.4010  221.7410 N   0  0  0  0  0  0  0  0  0  0  0  0
  141.1810   77.7610  220.4870 C   0  0  0  0  0  0  0  0  0  0  0  0
  141.8010   79.1100  220.7470 C   0  0  0  0  0  0  0  0  0  0  0  0
  142.1380   79.0490  222.2070 C   0  0  0  0  0  0  0  0  0  0  0  0
  140.8790   78.4130  222.7640 C   0  0  1  0  0  0  0  0  0  0  0  0
  139.7340   79.3730  222.8090 C   0  0  0  0  0  0  0  0  0  0  0  0
  138.6110   78.8190  223.4520 O   0  0  0  0  0  0  0  0  0  0  0  0
  140.3150   71.7110  223.4110 C   0  0  0  0  0  0  0  0  0  0  0  0
  139.6120   70.5520  223.1180 C   0  0  0  0  0  0  0  0  0  0  0  0
  139.3010   69.6150  224.0520 C   0  0  0  0  0  0  0  0  0  0  0  0
  139.6960   69.8090  225.3560 C   0  0  0  0  0  0  0  0  0  0  0  0
  139.4110   68.8940  226.3470 C   0  0  0  0  0  0  0  0  0  0  0  0
  139.8110   69.0980  227.6480 C   0  0  0  0  0  0  0  0  0  0  0  0
  140.5150   70.2460  227.9760 C   0  0  0  0  0  0  0  0  0  0  0  0
  140.8000   71.1650  226.9710 C   0  0  0  0  0  0  0  0  0  0  0  0
  140.4070   70.9750  225.6640 C   0  0  0  0  0  0  0  0  0  0  0  0
  140.6900   71.8770  224.6920 N   0  0  0  0  0  0  0  0  0  0  0  0
  139.1220   74.0490  223.0630 H   0  0  0  0  0  0  0  0  0  0  0  0
  141.2092   74.8923  221.0412 H   0  0  0  0  0  0  0  0  0  0  0  0
  139.5586   74.7226  220.4078 H   0  0  0  0  0  0  0  0  0  0  0  0
  141.9490   77.0279  220.1995 H   0  0  0  0  0  0  0  0  0  0  0  0
  140.4544   77.7841  219.6614 H   0  0  0  0  0  0  0  0  0  0  0  0
  142.7056   79.2537  220.1379 H   0  0  0  0  0  0  0  0  0  0  0  0
  141.1383   79.9492  220.4892 H   0  0  0  0  0  0  0  0  0  0  0  0
  143.0235   78.4231  222.3921 H   0  0  0  0  0  0  0  0  0  0  0  0
  142.3941   80.0201  222.6558 H   0  0  0  0  0  0  0  0  0  0  0  0
  141.0192   78.0422  223.7901 H   0  0  0  0  0  0  0  0  0  0  0  0
  140.0473   80.2753  223.3546 H   0  0  0  0  0  0  0  0  0  0  0  0
  139.4502   79.6147  221.7741 H   0  0  0  0  0  0  0  0  0  0  0  0
  138.4450   77.8920  223.1770 H   0  0  0  0  0  0  0  0  0  0  0  0
  139.2907   70.3830  222.0796 H   0  0  0  0  0  0  0  0  0  0  0  0
  138.7401   68.7121  223.7690 H   0  0  0  0  0  0  0  0  0  0  0  0
  138.8520   67.9814  226.0925 H   0  0  0  0  0  0  0  0  0  0  0  0
  139.5734   68.3543  228.4229 H   0  0  0  0  0  0  0  0  0  0  0  0
  140.8420   70.4270  229.0106 H   0  0  0  0  0  0  0  0  0  0  0  0
  141.3594   72.0763  227.2291 H   0  0  0  0  0  0  0  0  0  0  0  0
  1  2  2  0
  2  3  1  0
  3  4  1  0
  4  5  1  0
  5  6  2  0
  5  7  1  0
  7  8  1  0
  8  9  1  0
  9 10  1  0
 10 11  1  0
 11 12  1  0
 12 13  1  0
  2 14  1  0
 14 15  2  0
 15 16  1  0
 16 17  2  0
 17 18  1  0
 18 19  2  0
 19 20  1  0
 20 21  2  0
 21 22  1  0
 22 23  2  0
 11  7  1  0
 23 14  1  0
 22 17  1  0
  3 24  1  0
  4 25  1  0
  4 26  1  0
  8 27  1  0
  8 28  1  0
  9 29  1  0
  9 30  1  0
 10 31  1  0
 10 32  1  0
 11 33  1  1
 12 34  1  0
 12 35  1  0
 13 36  1  0
 15 37  1  0
 16 38  1  0
 18 39  1  0
 19 40  1  0
 20 41  1  0
 21 42  1  0
M  END
>  <smiles>  (29) 
O=C(NCC(=O)N1CCC[C@H]1CO)c1ccc2ccccc2n1

>  <score_type>  (29) 
oracle

>  <origin>  (29) 
autodockgpu

>  <m_score__min__energy>  (29) 
-6.9299999999999997

>  <m_primary>  (29) 
energy

>  <rmsd>  (29) 
2.808446912353111

>  <m_score__min__rmsd>  (29) 
2.808446912353111

>  <meeko>  (29) 
{"free_energy": -6.45, "intermolecular_energy": -8.24, "internal_energy": -2.01, "cluster_size": 35, "cluster_id": 1, "rank_in_cluster": 23}

>  <energy>  (29) 
-6.4

>  <cluster_rmsd>  (29) 
1.16

>  <cluster>  (29) 
1

$$$$

     RDKit          3D

 42 44  0  0  0  0  0  0  0  0999 V2000
  137.9660   69.6980  221.7210 O   0  0  0  0  0  0  0  0  0  0  0  0
  138.1810   70.6150  222.5480 C   0  0  0  0  0  0  0  0  0  0  0  0
  137.8570   71.9790  222.3280 N   0  0  0  0  0  0  0  0  0  0  0  0
  137.2290   72.3820  221.0600 C   0  0  0  0  0  0  0  0  0  0  0  0
  138.2990   72.4600  220.0660 C   0  0  0  0  0  0  0  0  0  0  0  0
  138.2030   71.8510  218.9510 O   0  0  0  0  0  0  0  0  0  0  0  0
  139.5140   73.2000  220.2410 N   0  0  0  0  0  0  0  0  0  0  0  0
  139.5680   74.6330  220.1260 C   0  0  0  0  0  0  0  0  0  0  0  0
  140.9920   74.9790  220.4780 C   0  0  0  0  0  0  0  0  0  0  0  0
  141.7520   73.7650  220.0380 C   0  0  0  0  0  0  0  0  0  0  0  0
  140.8460   72.6610  220.5490 C   0  0  1  0  0  0  0  0  0  0  0  0
  140.9400   72.4950  222.0320 C   0  0  0  0  0  0  0  0  0  0  0  0
  140.0710   73.3690  222.7120 O   0  0  0  0  0  0  0  0  0  0  0  0
  138.8060   70.2620  223.8280 C   0  0  0  0  0  0  0  0  0  0  0  0
  138.8330   68.9490  224.2750 C   0  0  0  0  0  0  0  0  0  0  0  0
  139.4010   68.5770  225.4530 C   0  0  0  0  0  0  0  0  0  0  0  0
  139.9800   69.5360  226.2520 C   0  0  0  0  0  0  0  0  0  0  0  0
  140.5720   69.2190  227.4570 C   0  0  0  0  0  0  0  0  0  0  0  0
  141.1490   70.1860  228.2480 C   0  0  0  0  0  0  0  0  0  0  0  0
  141.1390   71.5080  227.8320 C   0  0  0  0  0  0  0  0  0  0  0  0
  140.5410   71.8200  226.6150 C   0  0  0  0  0  0  0  0  0  0  0  0
  139.9590   70.8630  225.8120 C   0  0  0  0  0  0  0  0  0  0  0  0
  139.3790   71.1790  224.6280 N   0  0  0  0  0  0  0  0  0  0  0  0
  138.0680   72.6890  223.0680 H   0  0  0  0  0  0  0  0  0  0  0  0
  136.4809   71.6359  220.7537 H   0  0  0  0  0  0  0  0  0  0  0  0
  136.7145   73.3487  221.1635 H   0  0  0  0  0  0  0  0  0  0  0  0
  139.3315   74.9512  219.0999 H   0  0  0  0  0  0  0  0  0  0  0  0
  138.8388   75.1357  220.7783 H   0  0  0  0  0  0  0  0  0  0  0  0
  141.3275   75.8742  219.9339 H   0  0  0  0  0  0  0  0  0  0  0  0
  141.1303   75.2146  221.5435 H   0  0  0  0  0  0  0  0  0  0  0  0
  141.8573   73.7281  218.9437 H   0  0  0  0  0  0  0  0  0  0  0  0
  142.7855   73.7150  220.4112 H   0  0  0  0  0  0  0  0  0  0  0  0
  141.0906   71.6840  220.1066 H   0  0  0  0  0  0  0  0  0  0  0  0
  140.6777   71.4588  222.2916 H   0  0  0  0  0  0  0  0  0  0  0  0
  141.9700   72.7306  222.3378 H   0  0  0  0  0  0  0  0  0  0  0  0
  139.6080   72.9270  223.4570 H   0  0  0  0  0  0  0  0  0  0  0  0
  138.3731   68.1720  223.6466 H   0  0  0  0  0  0  0  0  0  0  0  0
  139.3977   67.5218  225.7636 H   0  0  0  0  0  0  0  0  0  0  0  0
  140.5831   68.1715  227.7925 H   0  0  0  0  0  0  0  0  0  0  0  0
  141.6157   69.9112  229.2054 H   0  0  0  0  0  0  0  0  0  0  0  0
  141.5946   72.2946  228.4514 H   0  0  0  0  0  0  0  0  0  0  0  0
  140.5325   72.8683  226.2818 H   0  0  0  0  0  0  0  0  0  0  0  0
  1  2  2  0
  2  3  1  0
  3  4  1  0
  4  5  1  0
  5  6  2  0
  5  7  1  0
  7  8  1  0
  8  9  1  0
  9 10  1  0
 10 11  1  0
 11 12  1  0
 12 13  1  0
  2 14  1  0
 14 15  2  0
 15 16  1  0
 16 17  2  0
 17 18  1  0
 18 19  2  0
 19 20  1  0
 20 21  2  0
 21 22  1  0
 22 23  2  0
 11  7  1  0
 23 14  1  0
 22 17  1  0
  3 24  1  0
  4 25  1  0
  4 26  1  0
  8 27  1  0
  8 28  1  0
  9 29  1  0
  9 30  1  0
 10 31  1  0
 10 32  1  0
 11 33  1  6
 12 34  1  0
 12 35  1  0
 13 36  1  0
 15 37  1  0
 16 38  1  0
 18 39  1  0
 19 40  1  0
 20 41  1  0
 21 42  1  0
M  END
>  <smiles>  (30) 
O=C(NCC(=O)N1CCC[C@H]1CO)c1ccc2ccccc2n1

>  <score_type>  (30) 
oracle

>  <origin>  (30) 
autodockgpu

>  <m_score__min__energy>  (30) 
-6.9299999999999997

>  <m_primary>  (30) 
energy

>  <rmsd>  (30) 
2.4830035855914234

>  <m_score__min__rmsd>  (30) 
2.4830035855914234

>  <meeko>  (30) 
{"free_energy": -5.63, "intermolecular_energy": -7.42, "internal_energy": -2.88, "cluster_size": 35, "cluster_id": 1, "rank_in_cluster": 35}

>  <energy>  (30) 
-6.39

>  <cluster_rmsd>  (30) 
1.04

>  <cluster>  (30) 
1

$$$$

     RDKit          3D

 42 44  0  0  0  0  0  0  0  0999 V2000
  139.7410   74.7220  221.9950 O   0  0  0  0  0  0  0  0  0  0  0  0
  140.6490   75.5520  221.7540 C   0  0  0  0  0  0  0  0  0  0  0  0
  141.8240   75.2570  221.0170 N   0  0  0  0  0  0  0  0  0  0  0  0
  142.0280   73.9010  220.4850 C   0  0  0  0  0  0  0  0  0  0  0  0
  143.2590   73.9400  219.6940 C   0  0  0  0  0  0  0  0  0  0  0  0
  143.7950   75.0500  219.3710 O   0  0  0  0  0  0  0  0  0  0  0  0
  143.9550   72.7790  219.2220 N   0  0  0  0  0  0  0  0  0  0  0  0
  143.9640   72.3950  217.8370 C   0  0  0  0  0  0  0  0  0  0  0  0
  144.8790   71.1980  217.7890 C   0  0  0  0  0  0  0  0  0  0  0  0
  144.7040   70.5870  219.1470 C   0  0  0  0  0  0  0  0  0  0  0  0
  144.7360   71.8250  220.0230 C   0  0  1  0  0  0  0  0  0  0  0  0
  146.1180   72.3770  220.1690 C   0  0  0  0  0  0  0  0  0  0  0  0
  146.3780   73.3940  219.2320 O   0  0  0  0  0  0  0  0  0  0  0  0
  140.4900   76.9200  222.2640 C   0  0  0  0  0  0  0  0  0  0  0  0
  139.2450   77.4080  222.6330 C   0  0  0  0  0  0  0  0  0  0  0  0
  139.0520   78.6670  223.1100 C   0  0  0  0  0  0  0  0  0  0  0  0
  140.1320   79.5090  223.2380 C   0  0  0  0  0  0  0  0  0  0  0  0
  139.9990   80.7960  223.7160 C   0  0  0  0  0  0  0  0  0  0  0  0
  141.0860   81.6300  223.8410 C   0  0  0  0  0  0  0  0  0  0  0  0
  142.3450   81.1750  223.4800 C   0  0  0  0  0  0  0  0  0  0  0  0
  142.4720   79.8760  223.0000 C   0  0  0  0  0  0  0  0  0  0  0  0
  141.3930   79.0280  222.8690 C   0  0  0  0  0  0  0  0  0  0  0  0
  141.5290   77.7630  222.4000 N   0  0  0  0  0  0  0  0  0  0  0  0
  142.5390   76.0060  220.8570 H   0  0  0  0  0  0  0  0  0  0  0  0
  142.1306   73.1814  221.3106 H   0  0  0  0  0  0  0  0  0  0  0  0
  141.1726   73.5845  219.8701 H   0  0  0  0  0  0  0  0  0  0  0  0
  142.9519   72.1257  217.5006 H   0  0  0  0  0  0  0  0  0  0  0  0
  144.3006   73.2083  217.1773 H   0  0  0  0  0  0  0  0  0  0  0  0
  144.5732   70.4977  216.9977 H   0  0  0  0  0  0  0  0  0  0  0  0
  145.9232   71.4586  217.5615 H   0  0  0  0  0  0  0  0  0  0  0  0
  143.7442   70.0563  219.2313 H   0  0  0  0  0  0  0  0  0  0  0  0
  145.4569   69.8275  219.4048 H   0  0  0  0  0  0  0  0  0  0  0  0
  144.3669   71.6247  221.0397 H   0  0  0  0  0  0  0  0  0  0  0  0
  146.2310   72.7896  221.1824 H   0  0  0  0  0  0  0  0  0  0  0  0
  146.8323   71.5594  219.9921 H   0  0  0  0  0  0  0  0  0  0  0  0
  145.7720   74.1590  219.3350 H   0  0  0  0  0  0  0  0  0  0  0  0
  138.3725   76.7453  222.5352 H   0  0  0  0  0  0  0  0  0  0  0  0
  138.0443   79.0077  223.3900 H   0  0  0  0  0  0  0  0  0  0  0  0
  139.0027   81.1633  224.0033 H   0  0  0  0  0  0  0  0  0  0  0  0
  140.9569   82.6525  224.2254 H   0  0  0  0  0  0  0  0  0  0  0  0
  143.2254   81.8282  223.5714 H   0  0  0  0  0  0  0  0  0  0  0  0
  143.4699   79.5118  222.7144 H   0  0  0  0  0  0  0  0  0  0  0  0
  1  2  2  0
  2  3  1  0
  3  4  1  0
  4  5  1  0
  5  6  2  0
  5  7  1  0
  7  8  1  0
  8  9  1  0
  9 10  1  0
 10 11  1  0
 11 12  1  0
 12 13  1  0
  2 14  1  0
 14 15  2  0
 15 16  1  0
 16 17  2  0
 17 18  1  0
 18 19  2  0
 19 20  1  0
 20 21  2  0
 21 22  1  0
 22 23  2  0
 11  7  1  0
 23 14  1  0
 22 17  1  0
  3 24  1  0
  4 25  1  0
  4 26  1  0
  8 27  1  0
  8 28  1  0
  9 29  1  0
  9 30  1  0
 10 31  1  0
 10 32  1  0
 11 33  1  1
 12 34  1  0
 12 35  1  0
 13 36  1  0
 15 37  1  0
 16 38  1  0
 18 39  1  0
 19 40  1  0
 20 41  1  0
 21 42  1  0
M  END
>  <smiles>  (31) 
O=C(NCC(=O)N1CCC[C@H]1CO)c1ccc2ccccc2n1

>  <score_type>  (31) 
oracle

>  <origin>  (31) 
autodockgpu

>  <m_score__min__energy>  (31) 
-6.9299999999999997

>  <m_primary>  (31) 
energy

>  <rmsd>  (31) 
8.043302991418846

>  <m_score__min__rmsd>  (31) 
8.043302991418846

>  <meeko>  (31) 
{"free_energy": -6.08, "intermolecular_energy": -7.87, "internal_energy": -2.44, "cluster_size": 10, "cluster_id": 4, "rank_in_cluster": 6}

>  <energy>  (31) 
-6.38

>  <cluster_rmsd>  (31) 
1.3

>  <cluster>  (31) 
1

$$$$

     RDKit          3D

 42 44  0  0  0  0  0  0  0  0999 V2000
  141.4710   72.4440  221.6170 O   0  0  0  0  0  0  0  0  0  0  0  0
  140.5050   72.6160  222.3970 C   0  0  0  0  0  0  0  0  0  0  0  0
  139.6290   73.7310  222.3490 N   0  0  0  0  0  0  0  0  0  0  0  0
  139.8360   74.7750  221.3340 C   0  0  0  0  0  0  0  0  0  0  0  0
  139.5710   76.0570  221.9880 C   0  0  0  0  0  0  0  0  0  0  0  0
  138.5960   76.1900  222.7970 O   0  0  0  0  0  0  0  0  0  0  0  0
  140.3520   77.2430  221.7900 N   0  0  0  0  0  0  0  0  0  0  0  0
  141.1130   77.4740  220.5920 C   0  0  0  0  0  0  0  0  0  0  0  0
  141.6820   78.8570  220.7760 C   0  0  0  0  0  0  0  0  0  0  0  0
  141.8250   78.9680  222.2630 C   0  0  0  0  0  0  0  0  0  0  0  0
  140.5080   78.3690  222.7210 C   0  0  1  0  0  0  0  0  0  0  0  0
  139.3600   79.3020  222.5070 C   0  0  0  0  0  0  0  0  0  0  0  0
  138.1640   78.7920  223.0460 O   0  0  0  0  0  0  0  0  0  0  0  0
  140.2570   71.6000  223.4280 C   0  0  0  0  0  0  0  0  0  0  0  0
  139.5600   70.4370  223.1370 C   0  0  0  0  0  0  0  0  0  0  0  0
  139.3080   69.4710  224.0600 C   0  0  0  0  0  0  0  0  0  0  0  0
  139.7590   69.6390  225.3490 C   0  0  0  0  0  0  0  0  0  0  0  0
  139.5350   68.6930  226.3270 C   0  0  0  0  0  0  0  0  0  0  0  0
  139.9910   68.8710  227.6130 C   0  0  0  0  0  0  0  0  0  0  0  0
  140.6910   70.0230  227.9390 C   0  0  0  0  0  0  0  0  0  0  0  0
  140.9140   70.9720  226.9460 C   0  0  0  0  0  0  0  0  0  0  0  0
  140.4640   70.8080  225.6540 C   0  0  0  0  0  0  0  0  0  0  0  0
  140.6880   71.7400  224.6950 N   0  0  0  0  0  0  0  0  0  0  0  0
  138.8420   73.8040  223.0370 H   0  0  0  0  0  0  0  0  0  0  0  0
  140.8718   74.7448  220.9651 H   0  0  0  0  0  0  0  0  0  0  0  0
  139.1694   74.6258  220.4718 H   0  0  0  0  0  0  0  0  0  0  0  0
  141.9181   76.7311  220.4920 H   0  0  0  0  0  0  0  0  0  0  0  0
  140.5018   77.3878  219.6815 H   0  0  0  0  0  0  0  0  0  0  0  0
  142.6576   78.9527  220.2769 H   0  0  0  0  0  0  0  0  0  0  0  0
  141.0513   79.6464  220.3412 H   0  0  0  0  0  0  0  0  0  0  0  0
  142.6836   78.3875  222.6315 H   0  0  0  0  0  0  0  0  0  0  0  0
  142.0122   79.9888  222.6275 H   0  0  0  0  0  0  0  0  0  0  0  0
  140.5143   78.1182  223.7920 H   0  0  0  0  0  0  0  0  0  0  0  0
  139.5874   80.2631  222.9913 H   0  0  0  0  0  0  0  0  0  0  0  0
  139.2199   79.4285  221.4233 H   0  0  0  0  0  0  0  0  0  0  0  0
  138.1580   77.8110  223.0770 H   0  0  0  0  0  0  0  0  0  0  0  0
  139.1935   70.2890  222.1105 H   0  0  0  0  0  0  0  0  0  0  0  0
  138.7500   68.5655  223.7795 H   0  0  0  0  0  0  0  0  0  0  0  0
  138.9804   67.7773  226.0739 H   0  0  0  0  0  0  0  0  0  0  0  0
  139.8014   68.1039  228.3782 H   0  0  0  0  0  0  0  0  0  0  0  0
  141.0624   70.1833  228.9619 H   0  0  0  0  0  0  0  0  0  0  0  0
  141.4697   71.8862  227.2017 H   0  0  0  0  0  0  0  0  0  0  0  0
  1  2  2  0
  2  3  1  0
  3  4  1  0
  4  5  1  0
  5  6  2  0
  5  7  1  0
  7  8  1  0
  8  9  1  0
  9 10  1  0
 10 11  1  0
 11 12  1  0
 12 13  1  0
  2 14  1  0
 14 15  2  0
 15 16  1  0
 16 17  2  0
 17 18  1  0
 18 19  2  0
 19 20  1  0
 20 21  2  0
 21 22  1  0
 22 23  2  0
 11  7  1  0
 23 14  1  0
 22 17  1  0
  3 24  1  0
  4 25  1  0
  4 26  1  0
  8 27  1  0
  8 28  1  0
  9 29  1  0
  9 30  1  0
 10 31  1  0
 10 32  1  0
 11 33  1  1
 12 34  1  0
 12 35  1  0
 13 36  1  0
 15 37  1  0
 16 38  1  0
 18 39  1  0
 19 40  1  0
 20 41  1  0
 21 42  1  0
M  END
>  <smiles>  (32) 
O=C(NCC(=O)N1CCC[C@H]1CO)c1ccc2ccccc2n1

>  <score_type>  (32) 
oracle

>  <origin>  (32) 
autodockgpu

>  <m_score__min__energy>  (32) 
-6.9299999999999997

>  <m_primary>  (32) 
energy

>  <rmsd>  (32) 
2.7149575161110353

>  <m_score__min__rmsd>  (32) 
2.7149575161110353

>  <meeko>  (32) 
{"free_energy": -6.46, "intermolecular_energy": -8.25, "internal_energy": -1.97, "cluster_size": 35, "cluster_id": 1, "rank_in_cluster": 22}

>  <energy>  (32) 
-6.37

>  <cluster_rmsd>  (32) 
1.26

>  <cluster>  (32) 
1

$$$$

     RDKit          3D

 42 44  0  0  0  0  0  0  0  0999 V2000
  140.6720   70.9100  221.6190 O   0  0  0  0  0  0  0  0  0  0  0  0
  140.6590   71.9570  222.3070 C   0  0  0  0  0  0  0  0  0  0  0  0
  140.2870   72.0090  223.6750 N   0  0  0  0  0  0  0  0  0  0  0  0
  139.8820   70.7750  224.3660 C   0  0  0  0  0  0  0  0  0  0  0  0
  140.3400   70.8980  225.7500 C   0  0  0  0  0  0  0  0  0  0  0  0
  140.7370   72.0180  226.2120 O   0  0  0  0  0  0  0  0  0  0  0  0
  140.3880   69.8140  226.6860 N   0  0  0  0  0  0  0  0  0  0  0  0
  140.1750   70.0020  228.0960 C   0  0  0  0  0  0  0  0  0  0  0  0
  140.2180   68.6080  228.6670 C   0  0  0  0  0  0  0  0  0  0  0  0
  141.1460   67.8910  227.7340 C   0  0  0  0  0  0  0  0  0  0  0  0
  140.6490   68.3980  226.3930 C   0  0  1  0  0  0  0  0  0  0  0  0
  139.3540   67.7660  225.9960 C   0  0  0  0  0  0  0  0  0  0  0  0
  139.1910   67.7400  224.5980 O   0  0  0  0  0  0  0  0  0  0  0  0
  141.0560   73.2150  221.6610 C   0  0  0  0  0  0  0  0  0  0  0  0
  141.8030   73.2170  220.4920 C   0  0  0  0  0  0  0  0  0  0  0  0
  142.1920   74.3560  219.8620 C   0  0  0  0  0  0  0  0  0  0  0  0
  141.8360   75.5750  220.3940 C   0  0  0  0  0  0  0  0  0  0  0  0
  142.2000   76.7640  219.7980 C   0  0  0  0  0  0  0  0  0  0  0  0
  141.8380   77.9760  220.3390 C   0  0  0  0  0  0  0  0  0  0  0  0
  141.0920   78.0110  221.5060 C   0  0  0  0  0  0  0  0  0  0  0  0
  140.7270   76.8070  222.1010 C   0  0  0  0  0  0  0  0  0  0  0  0
  141.0820   75.5850  221.5720 C   0  0  0  0  0  0  0  0  0  0  0  0
  140.7210   74.4180  222.1610 N   0  0  0  0  0  0  0  0  0  0  0  0
  140.3010   72.9250  224.1830 H   0  0  0  0  0  0  0  0  0  0  0  0
  138.7878   70.6661  224.3371 H   0  0  0  0  0  0  0  0  0  0  0  0
  140.3190   69.8891  223.8821 H   0  0  0  0  0  0  0  0  0  0  0  0
  140.9698   70.6260  228.5306 H   0  0  0  0  0  0  0  0  0  0  0  0
  139.2275   70.5167  228.3134 H   0  0  0  0  0  0  0  0  0  0  0  0
  140.6146   68.6129  229.6930 H   0  0  0  0  0  0  0  0  0  0  0  0
  139.2262   68.1378  228.7387 H   0  0  0  0  0  0  0  0  0  0  0  0
  142.1946   68.1730  227.9100 H   0  0  0  0  0  0  0  0  0  0  0  0
  141.1394   66.7959  227.8376 H   0  0  0  0  0  0  0  0  0  0  0  0
  141.3612   68.1925  225.5803 H   0  0  0  0  0  0  0  0  0  0  0  0
  139.3302   66.7341  226.3763 H   0  0  0  0  0  0  0  0  0  0  0  0
  138.5364   68.3646  226.4241 H   0  0  0  0  0  0  0  0  0  0  0  0
  139.9160   67.2560  224.1480 H   0  0  0  0  0  0  0  0  0  0  0  0
  142.0941   72.2506  220.0545 H   0  0  0  0  0  0  0  0  0  0  0  0
  142.7850   74.3049  218.9369 H   0  0  0  0  0  0  0  0  0  0  0  0
  142.7919   76.7430  218.8711 H   0  0  0  0  0  0  0  0  0  0  0  0
  142.1394   78.9128  219.8474 H   0  0  0  0  0  0  0  0  0  0  0  0
  140.7943   78.9709  221.9531 H   0  0  0  0  0  0  0  0  0  0  0  0
  140.1337   76.8317  223.0270 H   0  0  0  0  0  0  0  0  0  0  0  0
  1  2  2  0
  2  3  1  0
  3  4  1  0
  4  5  1  0
  5  6  2  0
  5  7  1  0
  7  8  1  0
  8  9  1  0
  9 10  1  0
 10 11  1  0
 11 12  1  0
 12 13  1  0
  2 14  1  0
 14 15  2  0
 15 16  1  0
 16 17  2  0
 17 18  1  0
 18 19  2  0
 19 20  1  0
 20 21  2  0
 21 22  1  0
 22 23  2  0
 11  7  1  0
 23 14  1  0
 22 17  1  0
  3 24  1  0
  4 25  1  0
  4 26  1  0
  8 27  1  0
  8 28  1  0
  9 29  1  0
  9 30  1  0
 10 31  1  0
 10 32  1  0
 11 33  1  6
 12 34  1  0
 12 35  1  0
 13 36  1  0
 15 37  1  0
 16 38  1  0
 18 39  1  0
 19 40  1  0
 20 41  1  0
 21 42  1  0
M  END
>  <smiles>  (33) 
O=C(NCC(=O)N1CCC[C@H]1CO)c1ccc2ccccc2n1

>  <score_type>  (33) 
oracle

>  <origin>  (33) 
autodockgpu

>  <m_score__min__energy>  (33) 
-6.9299999999999997

>  <m_primary>  (33) 
energy

>  <rmsd>  (33) 
9.038418176160544

>  <m_score__min__rmsd>  (33) 
9.038418176160544

>  <meeko>  (33) 
{"free_energy": -6.79, "intermolecular_energy": -8.58, "internal_energy": -1.69, "cluster_size": 4, "cluster_id": 2, "rank_in_cluster": 3}

>  <energy>  (33) 
-6.1

>  <cluster_rmsd>  (33) 
1.41

>  <cluster>  (33) 
1

$$$$

     RDKit          3D

 42 44  0  0  0  0  0  0  0  0999 V2000
  138.8500   75.2120  221.9190 O   0  0  0  0  0  0  0  0  0  0  0  0
  140.0200   75.6390  222.0610 C   0  0  0  0  0  0  0  0  0  0  0  0
  141.1850   74.8540  221.8660 N   0  0  0  0  0  0  0  0  0  0  0  0
  141.0540   73.4420  221.4720 C   0  0  0  0  0  0  0  0  0  0  0  0
  141.5790   73.3340  220.1110 C   0  0  0  0  0  0  0  0  0  0  0  0
  140.8050   73.0990  219.1270 O   0  0  0  0  0  0  0  0  0  0  0  0
  142.9620   73.4770  219.7640 N   0  0  0  0  0  0  0  0  0  0  0  0
  143.5580   72.7700  218.6630 C   0  0  0  0  0  0  0  0  0  0  0  0
  144.9720   73.2880  218.6100 C   0  0  0  0  0  0  0  0  0  0  0  0
  145.2580   73.6320  220.0410 C   0  0  0  0  0  0  0  0  0  0  0  0
  143.9640   74.3200  220.4330 C   0  0  1  0  0  0  0  0  0  0  0  0
  143.8600   75.6960  219.8580 C   0  0  0  0  0  0  0  0  0  0  0  0
  142.6230   76.2960  220.1580 O   0  0  0  0  0  0  0  0  0  0  0  0
  140.2030   77.0420  222.4530 C   0  0  0  0  0  0  0  0  0  0  0  0
  139.1130   77.8680  222.6920 C   0  0  0  0  0  0  0  0  0  0  0  0
  139.2360   79.1720  223.0570 C   0  0  0  0  0  0  0  0  0  0  0  0
  140.4920   79.7150  223.2010 C   0  0  0  0  0  0  0  0  0  0  0  0
  140.6790   81.0300  223.5690 C   0  0  0  0  0  0  0  0  0  0  0  0
  141.9400   81.5620  223.7100 C   0  0  0  0  0  0  0  0  0  0  0  0
  143.0500   80.7660  223.4780 C   0  0  0  0  0  0  0  0  0  0  0  0
  142.8540   79.4390  223.1080 C   0  0  0  0  0  0  0  0  0  0  0  0
  141.5980   78.8910  222.9630 C   0  0  0  0  0  0  0  0  0  0  0  0
  141.4190   77.5970  222.6010 N   0  0  0  0  0  0  0  0  0  0  0  0
  142.1300   75.2830  222.0050 H   0  0  0  0  0  0  0  0  0  0  0  0
  141.6343   72.8029  222.1538 H   0  0  0  0  0  0  0  0  0  0  0  0
  140.0049   73.1144  221.5182 H   0  0  0  0  0  0  0  0  0  0  0  0
  143.5469   71.6852  218.8447 H   0  0  0  0  0  0  0  0  0  0  0  0
  143.0164   72.9289  217.7188 H   0  0  0  0  0  0  0  0  0  0  0  0
  145.6630   72.5147  218.2434 H   0  0  0  0  0  0  0  0  0  0  0  0
  145.0965   74.1402  217.9257 H   0  0  0  0  0  0  0  0  0  0  0  0
  145.4365   72.7308  220.6459 H   0  0  0  0  0  0  0  0  0  0  0  0
  146.1611   74.2419  220.1907 H   0  0  0  0  0  0  0  0  0  0  0  0
  143.8628   74.4256  221.5232 H   0  0  0  0  0  0  0  0  0  0  0  0
  144.6671   76.3173  220.2734 H   0  0  0  0  0  0  0  0  0  0  0  0
  143.9450   75.6166  218.7642 H   0  0  0  0  0  0  0  0  0  0  0  0
  142.6300   76.7490  221.0290 H   0  0  0  0  0  0  0  0  0  0  0  0
  138.1025   77.4478  222.5809 H   0  0  0  0  0  0  0  0  0  0  0  0
  138.3410   79.7862  223.2353 H   0  0  0  0  0  0  0  0  0  0  0  0
  139.8018   81.6675  223.7538 H   0  0  0  0  0  0  0  0  0  0  0  0
  142.0662   82.6140  224.0055 H   0  0  0  0  0  0  0  0  0  0  0  0
  144.0657   81.1748  223.5841 H   0  0  0  0  0  0  0  0  0  0  0  0
  143.7336   78.8044  222.9246 H   0  0  0  0  0  0  0  0  0  0  0  0
  1  2  2  0
  2  3  1  0
  3  4  1  0
  4  5  1  0
  5  6  2  0
  5  7  1  0
  7  8  1  0
  8  9  1  0
  9 10  1  0
 10 11  1  0
 11 12  1  0
 12 13  1  0
  2 14  1  0
 14 15  2  0
 15 16  1  0
 16 17  2  0
 17 18  1  0
 18 19  2  0
 19 20  1  0
 20 21  2  0
 21 22  1  0
 22 23  2  0
 11  7  1  0
 23 14  1  0
 22 17  1  0
  3 24  1  0
  4 25  1  0
  4 26  1  0
  8 27  1  0
  8 28  1  0
  9 29  1  0
  9 30  1  0
 10 31  1  0
 10 32  1  0
 11 33  1  1
 12 34  1  0
 12 35  1  0
 13 36  1  0
 15 37  1  0
 16 38  1  0
 18 39  1  0
 19 40  1  0
 20 41  1  0
 21 42  1  0
M  END
>  <smiles>  (34) 
O=C(NCC(=O)N1CCC[C@H]1CO)c1ccc2ccccc2n1

>  <score_type>  (34) 
oracle

>  <origin>  (34) 
autodockgpu

>  <m_score__min__energy>  (34) 
-6.9299999999999997

>  <m_primary>  (34) 
energy

>  <rmsd>  (34) 
7.670644913933972

>  <m_score__min__rmsd>  (34) 
7.670644913933972

>  <meeko>  (34) 
{"free_energy": -5.82, "intermolecular_energy": -7.61, "internal_energy": -2.79, "cluster_size": 10, "cluster_id": 4, "rank_in_cluster": 10}

>  <energy>  (34) 
-6.07

>  <cluster_rmsd>  (34) 
1.15

>  <cluster>  (34) 
1

$$$$

     RDKit          3D

 42 44  0  0  0  0  0  0  0  0999 V2000
  140.0650   71.1730  221.2040 O   0  0  0  0  0  0  0  0  0  0  0  0
  139.9760   71.8840  222.2320 C   0  0  0  0  0  0  0  0  0  0  0  0
  139.8750   73.2990  222.2170 N   0  0  0  0  0  0  0  0  0  0  0  0
  139.8740   74.0150  220.9310 C   0  0  0  0  0  0  0  0  0  0  0  0
  140.5520   75.2910  221.1590 C   0  0  0  0  0  0  0  0  0  0  0  0
  140.7770   75.7120  222.3410 O   0  0  0  0  0  0  0  0  0  0  0  0
  141.0120   76.1610  220.1160 N   0  0  0  0  0  0  0  0  0  0  0  0
  140.3770   76.2230  218.8280 C   0  0  0  0  0  0  0  0  0  0  0  0
  141.1160   77.3170  218.1020 C   0  0  0  0  0  0  0  0  0  0  0  0
  142.4890   77.2490  218.7000 C   0  0  0  0  0  0  0  0  0  0  0  0
  142.1510   77.0880  220.1710 C   0  0  1  0  0  0  0  0  0  0  0  0
  141.6710   78.3650  220.7820 C   0  0  0  0  0  0  0  0  0  0  0  0
  141.5560   78.2640  222.1810 O   0  0  0  0  0  0  0  0  0  0  0  0
  139.9720   71.2160  223.5400 C   0  0  0  0  0  0  0  0  0  0  0  0
  139.4510   69.9390  223.6910 C   0  0  0  0  0  0  0  0  0  0  0  0
  139.4270   69.2830  224.8820 C   0  0  0  0  0  0  0  0  0  0  0  0
  139.9410   69.9000  226.0000 C   0  0  0  0  0  0  0  0  0  0  0  0
  139.9450   69.2850  227.2330 C   0  0  0  0  0  0  0  0  0  0  0  0
  140.4610   69.9110  228.3450 C   0  0  0  0  0  0  0  0  0  0  0  0
  140.9890   71.1880  228.2290 C   0  0  0  0  0  0  0  0  0  0  0  0
  140.9820   71.8020  226.9810 C   0  0  0  0  0  0  0  0  0  0  0  0
  140.4690   71.1880  225.8590 C   0  0  0  0  0  0  0  0  0  0  0  0
  140.4680   71.7970  224.6470 N   0  0  0  0  0  0  0  0  0  0  0  0
  139.8040   73.8250  223.1200 H   0  0  0  0  0  0  0  0  0  0  0  0
  140.4128   73.4300  220.1711 H   0  0  0  0  0  0  0  0  0  0  0  0
  138.8480   74.1720  220.5667 H   0  0  0  0  0  0  0  0  0  0  0  0
  140.4784   75.2651  218.2968 H   0  0  0  0  0  0  0  0  0  0  0  0
  139.2974   76.4209  218.9003 H   0  0  0  0  0  0  0  0  0  0  0  0
  141.1459   77.1233  217.0196 H   0  0  0  0  0  0  0  0  0  0  0  0
  140.6442   78.3048  218.2096 H   0  0  0  0  0  0  0  0  0  0  0  0
  143.0547   76.3865  218.3179 H   0  0  0  0  0  0  0  0  0  0  0  0
  143.1285   78.1144  218.4717 H   0  0  0  0  0  0  0  0  0  0  0  0
  143.0177   76.7610  220.7642 H   0  0  0  0  0  0  0  0  0  0  0  0
  142.3852   79.1659  220.5403 H   0  0  0  0  0  0  0  0  0  0  0  0
  140.6747   78.5869  220.3721 H   0  0  0  0  0  0  0  0  0  0  0  0
  141.8460   77.3880  222.5160 H   0  0  0  0  0  0  0  0  0  0  0  0
  139.0379   69.4334  222.8057 H   0  0  0  0  0  0  0  0  0  0  0  0
  139.0017   68.2709  224.9512 H   0  0  0  0  0  0  0  0  0  0  0  0
  139.5270   68.2722  227.3308 H   0  0  0  0  0  0  0  0  0  0  0  0
  140.4546   69.4014  229.3198 H   0  0  0  0  0  0  0  0  0  0  0  0
  141.4050   71.7050  229.1063 H   0  0  0  0  0  0  0  0  0  0  0  0
  141.4012   72.8146  226.8862 H   0  0  0  0  0  0  0  0  0  0  0  0
  1  2  2  0
  2  3  1  0
  3  4  1  0
  4  5  1  0
  5  6  2  0
  5  7  1  0
  7  8  1  0
  8  9  1  0
  9 10  1  0
 10 11  1  0
 11 12  1  0
 12 13  1  0
  2 14  1  0
 14 15  2  0
 15 16  1  0
 16 17  2  0
 17 18  1  0
 18 19  2  0
 19 20  1  0
 20 21  2  0
 21 22  1  0
 22 23  2  0
 11  7  1  0
 23 14  1  0
 22 17  1  0
  3 24  1  0
  4 25  1  0
  4 26  1  0
  8 27  1  0
  8 28  1  0
  9 29  1  0
  9 30  1  0
 10 31  1  0
 10 32  1  0
 11 33  1  1
 12 34  1  0
 12 35  1  0
 13 36  1  0
 15 37  1  0
 16 38  1  0
 18 39  1  0
 19 40  1  0
 20 41  1  0
 21 42  1  0
M  END
>  <smiles>  (35) 
O=C(NCC(=O)N1CCC[C@H]1CO)c1ccc2ccccc2n1

>  <score_type>  (35) 
oracle

>  <origin>  (35) 
autodockgpu

>  <m_score__min__energy>  (35) 
-6.9299999999999997

>  <m_primary>  (35) 
energy

>  <rmsd>  (35) 
1.397356912904102

>  <m_score__min__rmsd>  (35) 
1.397356912904102

>  <meeko>  (35) 
{"free_energy": -6.44, "intermolecular_energy": -8.23, "internal_energy": -2.27, "cluster_size": 35, "cluster_id": 1, "rank_in_cluster": 24}

>  <energy>  (35) 
-5.63

>  <cluster_rmsd>  (35) 
1.87

>  <cluster>  (35) 
1

$$$$

     RDKit          3D

 42 44  0  0  0  0  0  0  0  0999 V2000
  141.5330   72.4380  221.4520 O   0  0  0  0  0  0  0  0  0  0  0  0
  140.6330   72.6820  222.2900 C   0  0  0  0  0  0  0  0  0  0  0  0
  139.9080   73.9000  222.3490 N   0  0  0  0  0  0  0  0  0  0  0  0
  140.2010   74.9700  221.3830 C   0  0  0  0  0  0  0  0  0  0  0  0
  139.8330   76.2310  222.0270 C   0  0  0  0  0  0  0  0  0  0  0  0
  138.7580   76.3310  222.7040 O   0  0  0  0  0  0  0  0  0  0  0  0
  140.6130   77.4310  221.9610 N   0  0  0  0  0  0  0  0  0  0  0  0
  141.1900   77.9100  220.7340 C   0  0  0  0  0  0  0  0  0  0  0  0
  141.8260   79.2230  221.1100 C   0  0  0  0  0  0  0  0  0  0  0  0
  142.1990   79.0160  222.5470 C   0  0  0  0  0  0  0  0  0  0  0  0
  140.9490   78.3350  223.0700 C   0  0  1  0  0  0  0  0  0  0  0  0
  139.8130   79.2930  223.2390 C   0  0  0  0  0  0  0  0  0  0  0  0
  138.7530   79.0080  222.3580 O   0  0  0  0  0  0  0  0  0  0  0  0
  140.3040   71.6450  223.2750 C   0  0  0  0  0  0  0  0  0  0  0  0
  139.5900   70.5110  222.9130 C   0  0  0  0  0  0  0  0  0  0  0  0
  139.2630   69.5270  223.7910 C   0  0  0  0  0  0  0  0  0  0  0  0
  139.6500   69.6440  225.1060 C   0  0  0  0  0  0  0  0  0  0  0  0
  139.3490   68.6770  226.0430 C   0  0  0  0  0  0  0  0  0  0  0  0
  139.7410   68.8040  227.3550 C   0  0  0  0  0  0  0  0  0  0  0  0
  140.4550   69.9240  227.7520 C   0  0  0  0  0  0  0  0  0  0  0  0
  140.7570   70.8950  226.8020 C   0  0  0  0  0  0  0  0  0  0  0  0
  140.3710   70.7820  225.4840 C   0  0  0  0  0  0  0  0  0  0  0  0
  140.6700   71.7340  224.5660 N   0  0  0  0  0  0  0  0  0  0  0  0
  139.1690   74.0290  223.0800 H   0  0  0  0  0  0  0  0  0  0  0  0
  141.2720   74.9711  221.1319 H   0  0  0  0  0  0  0  0  0  0  0  0
  139.6387   74.8242  220.4489 H   0  0  0  0  0  0  0  0  0  0  0  0
  141.9454   77.2048  220.3571 H   0  0  0  0  0  0  0  0  0  0  0  0
  140.4442   78.0183  219.9327 H   0  0  0  0  0  0  0  0  0  0  0  0
  142.7160   79.4219  220.4950 H   0  0  0  0  0  0  0  0  0  0  0  0
  141.1632   80.0869  220.9537 H   0  0  0  0  0  0  0  0  0  0  0  0
  143.0837   78.3699  222.6465 H   0  0  0  0  0  0  0  0  0  0  0  0
  142.4744   79.9362  223.0831 H   0  0  0  0  0  0  0  0  0  0  0  0
  141.1119   77.8634  224.0504 H   0  0  0  0  0  0  0  0  0  0  0  0
  139.4436   79.2283  224.2731 H   0  0  0  0  0  0  0  0  0  0  0  0
  140.1824   80.3043  223.0134 H   0  0  0  0  0  0  0  0  0  0  0  0
  138.4150   78.0920  222.4650 H   0  0  0  0  0  0  0  0  0  0  0  0
  139.2737   70.4039  221.8649 H   0  0  0  0  0  0  0  0  0  0  0  0
  138.6954   68.6470  223.4543 H   0  0  0  0  0  0  0  0  0  0  0  0
  138.7835   67.7855  225.7340 H   0  0  0  0  0  0  0  0  0  0  0  0
  139.4893   68.0211  228.0855 H   0  0  0  0  0  0  0  0  0  0  0  0
  140.7765   70.0428  228.7972 H   0  0  0  0  0  0  0  0  0  0  0  0
  141.3240   71.7844  227.1143 H   0  0  0  0  0  0  0  0  0  0  0  0
  1  2  2  0
  2  3  1  0
  3  4  1  0
  4  5  1  0
  5  6  2  0
  5  7  1  0
  7  8  1  0
  8  9  1  0
  9 10  1  0
 10 11  1  0
 11 12  1  0
 12 13  1  0
  2 14  1  0
 14 15  2  0
 15 16  1  0
 16 17  2  0
 17 18  1  0
 18 19  2  0
 19 20  1  0
 20 21  2  0
 21 22  1  0
 22 23  2  0
 11  7  1  0
 23 14  1  0
 22 17  1  0
  3 24  1  0
  4 25  1  0
  4 26  1  0
  8 27  1  0
  8 28  1  0
  9 29  1  0
  9 30  1  0
 10 31  1  0
 10 32  1  0
 11 33  1  1
 12 34  1  0
 12 35  1  0
 13 36  1  0
 15 37  1  0
 16 38  1  0
 18 39  1  0
 19 40  1  0
 20 41  1  0
 21 42  1  0
M  END
>  <smiles>  (36) 
O=C(NCC(=O)N1CCC[C@H]1CO)c1ccc2ccccc2n1

>  <score_type>  (36) 
oracle

>  <origin>  (36) 
autodockgpu

>  <m_score__min__energy>  (36) 
-6.9299999999999997

>  <m_primary>  (36) 
energy

>  <rmsd>  (36) 
2.9546613157228037

>  <m_score__min__rmsd>  (36) 
2.9546613157228037

>  <meeko>  (36) 
{"free_energy": -6.37, "intermolecular_energy": -8.16, "internal_energy": -2.04, "cluster_size": 35, "cluster_id": 1, "rank_in_cluster": 32}

>  <energy>  (36) 
-6.92

>  <cluster_rmsd>  (36) 
0.0

>  <cluster>  (36) 
2

$$$$

     RDKit          3D

 42 44  0  0  0  0  0  0  0  0999 V2000
  140.6940   71.0540  221.5720 O   0  0  0  0  0  0  0  0  0  0  0  0
  140.6750   72.0820  222.2890 C   0  0  0  0  0  0  0  0  0  0  0  0
  140.3050   72.0920  223.6590 N   0  0  0  0  0  0  0  0  0  0  0  0
  139.9110   70.8360  224.3160 C   0  0  0  0  0  0  0  0  0  0  0  0
  140.3380   70.9390  225.7120 C   0  0  0  0  0  0  0  0  0  0  0  0
  140.6980   72.0570  226.2050 O   0  0  0  0  0  0  0  0  0  0  0  0
  140.3930   69.8350  226.6240 N   0  0  0  0  0  0  0  0  0  0  0  0
  140.3110   70.0080  228.0500 C   0  0  0  0  0  0  0  0  0  0  0  0
  140.3110   68.6040  228.5950 C   0  0  0  0  0  0  0  0  0  0  0  0
  141.1090   67.8480  227.5760 C   0  0  0  0  0  0  0  0  0  0  0  0
  140.5360   68.4120  226.2890 C   0  0  1  0  0  0  0  0  0  0  0  0
  139.1740   67.8720  225.9940 C   0  0  0  0  0  0  0  0  0  0  0  0
  138.8900   67.8930  224.6160 O   0  0  0  0  0  0  0  0  0  0  0  0
  141.0600   73.3600  221.6790 C   0  0  0  0  0  0  0  0  0  0  0  0
  141.8200   73.4010  220.5180 C   0  0  0  0  0  0  0  0  0  0  0  0
  142.1990   74.5610  219.9190 C   0  0  0  0  0  0  0  0  0  0  0  0
  141.8210   75.7610  220.4770 C   0  0  0  0  0  0  0  0  0  0  0  0
  142.1750   76.9690  219.9150 C   0  0  0  0  0  0  0  0  0  0  0  0
  141.7910   78.1630  220.4810 C   0  0  0  0  0  0  0  0  0  0  0  0
  141.0330   78.1580  221.6410 C   0  0  0  0  0  0  0  0  0  0  0  0
  140.6790   76.9360  222.2030 C   0  0  0  0  0  0  0  0  0  0  0  0
  141.0550   75.7320  221.6480 C   0  0  0  0  0  0  0  0  0  0  0  0
  140.7040   74.5460  222.2040 N   0  0  0  0  0  0  0  0  0  0  0  0
  140.3140   72.9930  224.1930 H   0  0  0  0  0  0  0  0  0  0  0  0
  138.8200   70.7060  224.2620 H   0  0  0  0  0  0  0  0  0  0  0  0
  140.3758   69.9693  223.8233 H   0  0  0  0  0  0  0  0  0  0  0  0
  141.1781   70.5716  228.4248 H   0  0  0  0  0  0  0  0  0  0  0  0
  139.4202   70.5772  228.3541 H   0  0  0  0  0  0  0  0  0  0  0  0
  140.7919   68.5634  229.5835 H   0  0  0  0  0  0  0  0  0  0  0  0
  139.3002   68.1964  228.7441 H   0  0  0  0  0  0  0  0  0  0  0  0
  142.1847   68.0590  227.6667 H   0  0  0  0  0  0  0  0  0  0  0  0
  141.0393   66.7537  227.6640 H   0  0  0  0  0  0  0  0  0  0  0  0
  141.1629   68.1778  225.4160 H   0  0  0  0  0  0  0  0  0  0  0  0
  139.1172   66.8339  226.3533 H   0  0  0  0  0  0  0  0  0  0  0  0
  138.4362   68.5084  226.5046 H   0  0  0  0  0  0  0  0  0  0  0  0
  137.9520   68.1180  224.4330 H   0  0  0  0  0  0  0  0  0  0  0  0
  142.1303   72.4497  220.0611 H   0  0  0  0  0  0  0  0  0  0  0  0
  142.8011   74.5408  218.9986 H   0  0  0  0  0  0  0  0  0  0  0  0
  142.7772   76.9786  218.9945 H   0  0  0  0  0  0  0  0  0  0  0  0
  142.0839   79.1156  220.0155 H   0  0  0  0  0  0  0  0  0  0  0  0
  140.7173   79.1024  222.1084 H   0  0  0  0  0  0  0  0  0  0  0  0
  140.0772   76.9304  223.1237 H   0  0  0  0  0  0  0  0  0  0  0  0
  1  2  2  0
  2  3  1  0
  3  4  1  0
  4  5  1  0
  5  6  2  0
  5  7  1  0
  7  8  1  0
  8  9  1  0
  9 10  1  0
 10 11  1  0
 11 12  1  0
 12 13  1  0
  2 14  1  0
 14 15  2  0
 15 16  1  0
 16 17  2  0
 17 18  1  0
 18 19  2  0
 19 20  1  0
 20 21  2  0
 21 22  1  0
 22 23  2  0
 11  7  1  0
 23 14  1  0
 22 17  1  0
  3 24  1  0
  4 25  1  0
  4 26  1  0
  8 27  1  0
  8 28  1  0
  9 29  1  0
  9 30  1  0
 10 31  1  0
 10 32  1  0
 11 33  1  6
 12 34  1  0
 12 35  1  0
 13 36  1  0
 15 37  1  0
 16 38  1  0
 18 39  1  0
 19 40  1  0
 20 41  1  0
 21 42  1  0
M  END
>  <smiles>  (37) 
O=C(NCC(=O)N1CCC[C@H]1CO)c1ccc2ccccc2n1

>  <score_type>  (37) 
oracle

>  <origin>  (37) 
autodockgpu

>  <m_score__min__energy>  (37) 
-6.9299999999999997

>  <m_primary>  (37) 
energy

>  <rmsd>  (37) 
9.03619648243551

>  <m_score__min__rmsd>  (37) 
9.03619648243551

>  <meeko>  (37) 
{"free_energy": -6.61, "intermolecular_energy": -8.4, "internal_energy": -1.69, "cluster_size": 4, "cluster_id": 2, "rank_in_cluster": 4}

>  <energy>  (37) 
-6.83

>  <cluster_rmsd>  (37) 
0.18

>  <cluster>  (37) 
2

$$$$

     RDKit          3D

 42 44  0  0  0  0  0  0  0  0999 V2000
  140.3140   71.3380  221.2390 O   0  0  0  0  0  0  0  0  0  0  0  0
  140.0630   72.0100  222.2680 C   0  0  0  0  0  0  0  0  0  0  0  0
  139.8030   73.4040  222.2670 N   0  0  0  0  0  0  0  0  0  0  0  0
  139.8200   74.1470  220.9960 C   0  0  0  0  0  0  0  0  0  0  0  0
  140.7450   75.2660  221.1760 C   0  0  0  0  0  0  0  0  0  0  0  0
  141.0320   75.6990  222.3400 O   0  0  0  0  0  0  0  0  0  0  0  0
  141.3920   75.9610  220.1020 N   0  0  0  0  0  0  0  0  0  0  0  0
  141.3270   77.3900  219.9580 C   0  0  0  0  0  0  0  0  0  0  0  0
  142.2130   77.6850  218.7750 C   0  0  0  0  0  0  0  0  0  0  0  0
  142.0900   76.4420  217.9460 C   0  0  0  0  0  0  0  0  0  0  0  0
  142.1910   75.3730  219.0170 C   0  0  1  0  0  0  0  0  0  0  0  0
  143.5890   75.2060  219.5180 C   0  0  0  0  0  0  0  0  0  0  0  0
  143.6180   74.7470  220.8480 O   0  0  0  0  0  0  0  0  0  0  0  0
  140.0340   71.3130  223.5600 C   0  0  0  0  0  0  0  0  0  0  0  0
  139.4940   70.0400  223.6770 C   0  0  0  0  0  0  0  0  0  0  0  0
  139.4460   69.3590  224.8520 C   0  0  0  0  0  0  0  0  0  0  0  0
  139.9530   69.9450  225.9900 C   0  0  0  0  0  0  0  0  0  0  0  0
  139.9340   69.3020  227.2100 C   0  0  0  0  0  0  0  0  0  0  0  0
  140.4440   69.8970  228.3410 C   0  0  0  0  0  0  0  0  0  0  0  0
  140.9910   71.1680  228.2600 C   0  0  0  0  0  0  0  0  0  0  0  0
  141.0080   71.8100  227.0250 C   0  0  0  0  0  0  0  0  0  0  0  0
  140.5010   71.2280  225.8840 C   0  0  0  0  0  0  0  0  0  0  0  0
  140.5230   71.8630  224.6860 N   0  0  0  0  0  0  0  0  0  0  0  0
  139.6010   73.8960  223.1690 H   0  0  0  0  0  0  0  0  0  0  0  0
  140.1672   73.4955  220.1805 H   0  0  0  0  0  0  0  0  0  0  0  0
  138.8134   74.5040  220.7327 H   0  0  0  0  0  0  0  0  0  0  0  0
  140.2946   77.7155  219.7626 H   0  0  0  0  0  0  0  0  0  0  0  0
  141.6489   77.9194  220.8669 H   0  0  0  0  0  0  0  0  0  0  0  0
  141.8550   78.5662  218.2224 H   0  0  0  0  0  0  0  0  0  0  0  0
  143.2504   77.9182  219.0568 H   0  0  0  0  0  0  0  0  0  0  0  0
  141.1239   76.3994  217.4217 H   0  0  0  0  0  0  0  0  0  0  0  0
  142.8377   76.3544  217.1440 H   0  0  0  0  0  0  0  0  0  0  0  0
  141.8678   74.3868  218.6525 H   0  0  0  0  0  0  0  0  0  0  0  0
  144.1113   74.4786  218.8792 H   0  0  0  0  0  0  0  0  0  0  0  0
  144.0827   76.1884  219.4854 H   0  0  0  0  0  0  0  0  0  0  0  0
  142.9880   75.2340  221.4230 H   0  0  0  0  0  0  0  0  0  0  0  0
  139.0854   69.5594  222.7759 H   0  0  0  0  0  0  0  0  0  0  0  0
  139.0071   68.3512  224.8934 H   0  0  0  0  0  0  0  0  0  0  0  0
  139.5023   68.2927  227.2803 H   0  0  0  0  0  0  0  0  0  0  0  0
  140.4177   69.3668  229.3044 H   0  0  0  0  0  0  0  0  0  0  0  0
  141.4033   71.6594  229.1536 H   0  0  0  0  0  0  0  0  0  0  0  0
  141.4420   72.8185  226.9577 H   0  0  0  0  0  0  0  0  0  0  0  0
  1  2  2  0
  2  3  1  0
  3  4  1  0
  4  5  1  0
  5  6  2  0
  5  7  1  0
  7  8  1  0
  8  9  1  0
  9 10  1  0
 10 11  1  0
 11 12  1  0
 12 13  1  0
  2 14  1  0
 14 15  2  0
 15 16  1  0
 16 17  2  0
 17 18  1  0
 18 19  2  0
 19 20  1  0
 20 21  2  0
 21 22  1  0
 22 23  2  0
 11  7  1  0
 23 14  1  0
 22 17  1  0
  3 24  1  0
  4 25  1  0
  4 26  1  0
  8 27  1  0
  8 28  1  0
  9 29  1  0
  9 30  1  0
 10 31  1  0
 10 32  1  0
 11 33  1  6
 12 34  1  0
 12 35  1  0
 13 36  1  0
 15 37  1  0
 16 38  1  0
 18 39  1  0
 19 40  1  0
 20 41  1  0
 21 42  1  0
M  END
>  <smiles>  (38) 
O=C(NCC(=O)N1CCC[C@H]1CO)c1ccc2ccccc2n1

>  <score_type>  (38) 
oracle

>  <origin>  (38) 
autodockgpu

>  <m_score__min__energy>  (38) 
-6.9299999999999997

>  <m_primary>  (38) 
energy

>  <rmsd>  (38) 
2.0047795121058223

>  <m_score__min__rmsd>  (38) 
2.0047795121058223

>  <meeko>  (38) 
{"free_energy": -6.59, "intermolecular_energy": -8.38, "internal_energy": -2.07, "cluster_size": 35, "cluster_id": 1, "rank_in_cluster": 6}

>  <energy>  (38) 
-6.79

>  <cluster_rmsd>  (38) 
0.15

>  <cluster>  (38) 
2

$$$$

     RDKit          3D

 42 44  0  0  0  0  0  0  0  0999 V2000
  139.2710   74.7400  221.9950 O   0  0  0  0  0  0  0  0  0  0  0  0
  140.3440   75.3860  221.9480 C   0  0  0  0  0  0  0  0  0  0  0  0
  141.5870   74.8390  221.5390 N   0  0  0  0  0  0  0  0  0  0  0  0
  141.6630   73.4260  221.1350 C   0  0  0  0  0  0  0  0  0  0  0  0
  142.9700   73.2380  220.5050 C   0  0  0  0  0  0  0  0  0  0  0  0
  143.8500   74.1590  220.5340 O   0  0  0  0  0  0  0  0  0  0  0  0
  143.3730   72.0460  219.8180 N   0  0  0  0  0  0  0  0  0  0  0  0
  142.4260   71.1270  219.2470 C   0  0  0  0  0  0  0  0  0  0  0  0
  143.2800   70.0960  218.5550 C   0  0  0  0  0  0  0  0  0  0  0  0
  144.5310   70.0870  219.3810 C   0  0  0  0  0  0  0  0  0  0  0  0
  144.7460   71.5740  219.5890 C   0  0  1  0  0  0  0  0  0  0  0  0
  145.2610   72.2470  218.3570 C   0  0  0  0  0  0  0  0  0  0  0  0
  146.0660   73.3600  218.6660 O   0  0  0  0  0  0  0  0  0  0  0  0
  140.3190   76.8000  222.3410 C   0  0  0  0  0  0  0  0  0  0  0  0
  139.1190   77.4710  222.5300 C   0  0  0  0  0  0  0  0  0  0  0  0
  139.0490   78.7790  222.8930 C   0  0  0  0  0  0  0  0  0  0  0  0
  140.2130   79.4870  223.0860 C   0  0  0  0  0  0  0  0  0  0  0  0
  140.2050   80.8150  223.4560 C   0  0  0  0  0  0  0  0  0  0  0  0
  141.3760   81.5130  223.6460 C   0  0  0  0  0  0  0  0  0  0  0  0
  142.5920   80.8740  223.4650 C   0  0  0  0  0  0  0  0  0  0  0  0
  142.5930   79.5330  223.0930 C   0  0  0  0  0  0  0  0  0  0  0  0
  141.4290   78.8210  222.8990 C   0  0  0  0  0  0  0  0  0  0  0  0
  141.4420   77.5140  222.5360 N   0  0  0  0  0  0  0  0  0  0  0  0
  142.4420   75.4440  221.5270 H   0  0  0  0  0  0  0  0  0  0  0  0
  141.5698   72.7743  222.0162 H   0  0  0  0  0  0  0  0  0  0  0  0
  140.8490   73.1687  220.4413 H   0  0  0  0  0  0  0  0  0  0  0  0
  141.8124   70.6615  220.0323 H   0  0  0  0  0  0  0  0  0  0  0  0
  141.7226   71.6204  218.5601 H   0  0  0  0  0  0  0  0  0  0  0  0
  142.7936   69.1094  218.5630 H   0  0  0  0  0  0  0  0  0  0  0  0
  143.4618   70.3240  217.4944 H   0  0  0  0  0  0  0  0  0  0  0  0
  144.3815   69.5622  220.3361 H   0  0  0  0  0  0  0  0  0  0  0  0
  145.3800   69.5652  218.9154 H   0  0  0  0  0  0  0  0  0  0  0  0
  145.4723   71.7817  220.3886 H   0  0  0  0  0  0  0  0  0  0  0  0
  145.8579   71.5252  217.7802 H   0  0  0  0  0  0  0  0  0  0  0  0
  144.3974   72.6011  217.7749 H   0  0  0  0  0  0  0  0  0  0  0  0
  145.5650   74.0640  219.1310 H   0  0  0  0  0  0  0  0  0  0  0  0
  138.1801   76.9182  222.3789 H   0  0  0  0  0  0  0  0  0  0  0  0
  138.0725   79.2662  223.0310 H   0  0  0  0  0  0  0  0  0  0  0  0
  139.2428   81.3275  223.6024 H   0  0  0  0  0  0  0  0  0  0  0  0
  141.3466   82.5726  223.9400 H   0  0  0  0  0  0  0  0  0  0  0  0
  143.5378   81.4159  223.6124 H   0  0  0  0  0  0  0  0  0  0  0  0
  143.5570   79.0232  222.9487 H   0  0  0  0  0  0  0  0  0  0  0  0
  1  2  2  0
  2  3  1  0
  3  4  1  0
  4  5  1  0
  5  6  2  0
  5  7  1  0
  7  8  1  0
  8  9  1  0
  9 10  1  0
 10 11  1  0
 11 12  1  0
 12 13  1  0
  2 14  1  0
 14 15  2  0
 15 16  1  0
 16 17  2  0
 17 18  1  0
 18 19  2  0
 19 20  1  0
 20 21  2  0
 21 22  1  0
 22 23  2  0
 11  7  1  0
 23 14  1  0
 22 17  1  0
  3 24  1  0
  4 25  1  0
  4 26  1  0
  8 27  1  0
  8 28  1  0
  9 29  1  0
  9 30  1  0
 10 31  1  0
 10 32  1  0
 11 33  1  1
 12 34  1  0
 12 35  1  0
 13 36  1  0
 15 37  1  0
 16 38  1  0
 18 39  1  0
 19 40  1  0
 20 41  1  0
 21 42  1  0
M  END
>  <smiles>  (39) 
O=C(NCC(=O)N1CCC[C@H]1CO)c1ccc2ccccc2n1

>  <score_type>  (39) 
oracle

>  <origin>  (39) 
autodockgpu

>  <m_score__min__energy>  (39) 
-6.9299999999999997

>  <m_primary>  (39) 
energy

>  <rmsd>  (39) 
8.003559416947796

>  <m_score__min__rmsd>  (39) 
8.003559416947796

>  <meeko>  (39) 
{"free_energy": -6.21, "intermolecular_energy": -8.0, "internal_energy": -2.39, "cluster_size": 10, "cluster_id": 4, "rank_in_cluster": 1}

>  <energy>  (39) 
-6.61

>  <cluster_rmsd>  (39) 
0.43

>  <cluster>  (39) 
2

$$$$

     RDKit          3D

 42 44  0  0  0  0  0  0  0  0999 V2000
  139.8350   74.3630  222.3370 O   0  0  0  0  0  0  0  0  0  0  0  0
  140.2340   75.2730  221.5730 C   0  0  0  0  0  0  0  0  0  0  0  0
  140.6810   75.0600  220.2440 N   0  0  0  0  0  0  0  0  0  0  0  0
  140.6950   73.6960  219.6910 C   0  0  0  0  0  0  0  0  0  0  0  0
  141.6990   72.9450  220.4450 C   0  0  0  0  0  0  0  0  0  0  0  0
  141.3590   72.1800  221.4050 O   0  0  0  0  0  0  0  0  0  0  0  0
  143.1080   72.9960  220.1890 N   0  0  0  0  0  0  0  0  0  0  0  0
  143.7650   72.0750  219.3020 C   0  0  0  0  0  0  0  0  0  0  0  0
  145.1930   72.5530  219.2610 C   0  0  0  0  0  0  0  0  0  0  0  0
  145.3790   73.1710  220.6140 C   0  0  0  0  0  0  0  0  0  0  0  0
  144.0800   73.9410  220.7560 C   0  0  1  0  0  0  0  0  0  0  0  0
  144.0620   75.1760  219.9140 C   0  0  0  0  0  0  0  0  0  0  0  0
  142.9380   75.9790  220.1870 O   0  0  0  0  0  0  0  0  0  0  0  0
  140.2390   76.6510  222.0800 C   0  0  0  0  0  0  0  0  0  0  0  0
  139.0640   77.2730  222.4790 C   0  0  0  0  0  0  0  0  0  0  0  0
  139.0220   78.5460  222.9540 C   0  0  0  0  0  0  0  0  0  0  0  0
  140.1910   79.2670  223.0490 C   0  0  0  0  0  0  0  0  0  0  0  0
  140.2110   80.5610  223.5240 C   0  0  0  0  0  0  0  0  0  0  0  0
  141.3850   81.2730  223.6150 C   0  0  0  0  0  0  0  0  0  0  0  0
  142.5770   80.6820  223.2230 C   0  0  0  0  0  0  0  0  0  0  0  0
  142.5490   79.3750  222.7460 C   0  0  0  0  0  0  0  0  0  0  0  0
  141.3810   78.6500  222.6490 C   0  0  0  0  0  0  0  0  0  0  0  0
  141.3660   77.3770  222.1830 N   0  0  0  0  0  0  0  0  0  0  0  0
  141.0000   75.8730  219.6660 H   0  0  0  0  0  0  0  0  0  0  0  0
  139.7058   73.2295  219.8085 H   0  0  0  0  0  0  0  0  0  0  0  0
  140.9344   73.7076  218.6174 H   0  0  0  0  0  0  0  0  0  0  0  0
  143.7086   71.0488  219.6941 H   0  0  0  0  0  0  0  0  0  0  0  0
  143.3016   72.0486  218.3047 H   0  0  0  0  0  0  0  0  0  0  0  0
  145.8872   71.7130  219.1109 H   0  0  0  0  0  0  0  0  0  0  0  0
  145.3939   73.2500  218.4341 H   0  0  0  0  0  0  0  0  0  0  0  0
  145.4838   72.4060  221.3975 H   0  0  0  0  0  0  0  0  0  0  0  0
  146.2858   73.7857  220.7131 H   0  0  0  0  0  0  0  0  0  0  0  0
  143.8983   74.2634  221.7919 H   0  0  0  0  0  0  0  0  0  0  0  0
  144.9731   75.7582  220.1164 H   0  0  0  0  0  0  0  0  0  0  0  0
  144.0148   74.8695  218.8586 H   0  0  0  0  0  0  0  0  0  0  0  0
  142.8730   76.2170  221.1370 H   0  0  0  0  0  0  0  0  0  0  0  0
  138.1222   76.7091  222.4075 H   0  0  0  0  0  0  0  0  0  0  0  0
  138.0651   78.9948  223.2589 H   0  0  0  0  0  0  0  0  0  0  0  0
  139.2686   81.0343  223.8369 H   0  0  0  0  0  0  0  0  0  0  0  0
  141.3782   82.3048  223.9964 H   0  0  0  0  0  0  0  0  0  0  0  0
  143.5255   81.2353  223.2879 H   0  0  0  0  0  0  0  0  0  0  0  0
  143.4930   78.9036  222.4352 H   0  0  0  0  0  0  0  0  0  0  0  0
  1  2  2  0
  2  3  1  0
  3  4  1  0
  4  5  1  0
  5  6  2  0
  5  7  1  0
  7  8  1  0
  8  9  1  0
  9 10  1  0
 10 11  1  0
 11 12  1  0
 12 13  1  0
  2 14  1  0
 14 15  2  0
 15 16  1  0
 16 17  2  0
 17 18  1  0
 18 19  2  0
 19 20  1  0
 20 21  2  0
 21 22  1  0
 22 23  2  0
 11  7  1  0
 23 14  1  0
 22 17  1  0
  3 24  1  0
  4 25  1  0
  4 26  1  0
  8 27  1  0
  8 28  1  0
  9 29  1  0
  9 30  1  0
 10 31  1  0
 10 32  1  0
 11 33  1  1
 12 34  1  0
 12 35  1  0
 13 36  1  0
 15 37  1  0
 16 38  1  0
 18 39  1  0
 19 40  1  0
 20 41  1  0
 21 42  1  0
M  END
>  <smiles>  (40) 
O=C(NCC(=O)N1CCC[C@H]1CO)c1ccc2ccccc2n1

>  <score_type>  (40) 
oracle

>  <origin>  (40) 
autodockgpu

>  <m_score__min__energy>  (40) 
-6.9299999999999997

>  <m_primary>  (40) 
energy

>  <rmsd>  (40) 
7.607320230975908

>  <m_score__min__rmsd>  (40) 
7.607320230975908

>  <meeko>  (40) 
{"free_energy": -6.08, "intermolecular_energy": -7.87, "internal_energy": -2.43, "cluster_size": 10, "cluster_id": 4, "rank_in_cluster": 5}

>  <energy>  (40) 
-6.59

>  <cluster_rmsd>  (40) 
0.0

>  <cluster>  (40) 
3

$$$$

     RDKit          3D

 42 44  0  0  0  0  0  0  0  0999 V2000
  140.9820   71.6010  221.3630 O   0  0  0  0  0  0  0  0  0  0  0  0
  140.4440   72.1870  222.3310 C   0  0  0  0  0  0  0  0  0  0  0  0
  140.0000   73.5340  222.3010 N   0  0  0  0  0  0  0  0  0  0  0  0
  140.1640   74.3280  221.0730 C   0  0  0  0  0  0  0  0  0  0  0  0
  140.2070   75.7320  221.4820 C   0  0  0  0  0  0  0  0  0  0  0  0
  139.9270   76.0750  222.6770 O   0  0  0  0  0  0  0  0  0  0  0  0
  140.5550   76.8170  220.6130 N   0  0  0  0  0  0  0  0  0  0  0  0
  139.6480   77.3340  219.6230 C   0  0  0  0  0  0  0  0  0  0  0  0
  140.3820   78.5050  219.0240 C   0  0  0  0  0  0  0  0  0  0  0  0
  141.8200   78.1090  219.1640 C   0  0  0  0  0  0  0  0  0  0  0  0
  141.8270   77.5530  220.5750 C   0  0  1  0  0  0  0  0  0  0  0  0
  141.7600   78.6330  221.6070 C   0  0  0  0  0  0  0  0  0  0  0  0
  141.7160   78.1080  222.9120 O   0  0  0  0  0  0  0  0  0  0  0  0
  140.2590   71.4370  223.5790 C   0  0  0  0  0  0  0  0  0  0  0  0
  139.6050   70.2120  223.5900 C   0  0  0  0  0  0  0  0  0  0  0  0
  139.4110   69.4840  224.7210 C   0  0  0  0  0  0  0  0  0  0  0  0
  139.8780   69.9690  225.9210 C   0  0  0  0  0  0  0  0  0  0  0  0
  139.7120   69.2750  227.1010 C   0  0  0  0  0  0  0  0  0  0  0  0
  140.1820   69.7700  228.2960 C   0  0  0  0  0  0  0  0  0  0  0  0
  140.8390   70.9900  228.3210 C   0  0  0  0  0  0  0  0  0  0  0  0
  141.0040   71.6840  227.1270 C   0  0  0  0  0  0  0  0  0  0  0  0
  140.5380   71.2030  225.9230 C   0  0  0  0  0  0  0  0  0  0  0  0
  140.7050   71.8880  224.7650 N   0  0  0  0  0  0  0  0  0  0  0  0
  139.5590   73.9550  223.1530 H   0  0  0  0  0  0  0  0  0  0  0  0
  141.1002   74.0522  220.5656 H   0  0  0  0  0  0  0  0  0  0  0  0
  139.3370   74.1458  220.3710 H   0  0  0  0  0  0  0  0  0  0  0  0
  139.4333   76.5748  218.8565 H   0  0  0  0  0  0  0  0  0  0  0  0
  138.6761   77.6206  220.0512 H   0  0  0  0  0  0  0  0  0  0  0  0
  140.1110   78.6426  217.9668 H   0  0  0  0  0  0  0  0  0  0  0  0
  140.1461   79.4611  219.5141 H   0  0  0  0  0  0  0  0  0  0  0  0
  142.1026   77.3437  218.4261 H   0  0  0  0  0  0  0  0  0  0  0  0
  142.5357   78.9268  218.9937 H   0  0  0  0  0  0  0  0  0  0  0  0
  142.7347   76.9692  220.7877 H   0  0  0  0  0  0  0  0  0  0  0  0
  142.6494   79.2730  221.5106 H   0  0  0  0  0  0  0  0  0  0  0  0
  140.8379   79.2089  221.4393 H   0  0  0  0  0  0  0  0  0  0  0  0
  141.8140   77.1310  222.9240 H   0  0  0  0  0  0  0  0  0  0  0  0
  139.2260   69.8119  222.6380 H   0  0  0  0  0  0  0  0  0  0  0  0
  138.8866   68.5180  224.6776 H   0  0  0  0  0  0  0  0  0  0  0  0
  139.1930   68.3053  227.0868 H   0  0  0  0  0  0  0  0  0  0  0  0
  140.0370   69.2006  229.2259 H   0  0  0  0  0  0  0  0  0  0  0  0
  141.2224   71.4013  229.2664 H   0  0  0  0  0  0  0  0  0  0  0  0
  141.5256   72.6523  227.1446 H   0  0  0  0  0  0  0  0  0  0  0  0
  1  2  2  0
  2  3  1  0
  3  4  1  0
  4  5  1  0
  5  6  2  0
  5  7  1  0
  7  8  1  0
  8  9  1  0
  9 10  1  0
 10 11  1  0
 11 12  1  0
 12 13  1  0
  2 14  1  0
 14 15  2  0
 15 16  1  0
 16 17  2  0
 17 18  1  0
 18 19  2  0
 19 20  1  0
 20 21  2  0
 21 22  1  0
 22 23  2  0
 11  7  1  0
 23 14  1  0
 22 17  1  0
  3 24  1  0
  4 25  1  0
  4 26  1  0
  8 27  1  0
  8 28  1  0
  9 29  1  0
  9 30  1  0
 10 31  1  0
 10 32  1  0
 11 33  1  1
 12 34  1  0
 12 35  1  0
 13 36  1  0
 15 37  1  0
 16 38  1  0
 18 39  1  0
 19 40  1  0
 20 41  1  0
 21 42  1  0
M  END
>  <smiles>  (41) 
O=C(NCC(=O)N1CCC[C@H]1CO)c1ccc2ccccc2n1

>  <score_type>  (41) 
oracle

>  <origin>  (41) 
autodockgpu

>  <m_score__min__energy>  (41) 
-6.9299999999999997

>  <m_primary>  (41) 
energy

>  <rmsd>  (41) 
1.7447075930736275

>  <m_score__min__rmsd>  (41) 
1.7447075930736275

>  <meeko>  (41) 
{"free_energy": -6.57, "intermolecular_energy": -8.36, "internal_energy": -2.2, "cluster_size": 35, "cluster_id": 1, "rank_in_cluster": 8}

>  <energy>  (41) 
-6.21

>  <cluster_rmsd>  (41) 
0.0

>  <cluster>  (41) 
4

$$$$

     RDKit          3D

 42 44  0  0  0  0  0  0  0  0999 V2000
  139.2440   74.7760  222.4180 O   0  0  0  0  0  0  0  0  0  0  0  0
  140.0280   75.5300  221.7950 C   0  0  0  0  0  0  0  0  0  0  0  0
  140.7840   75.1330  220.6620 N   0  0  0  0  0  0  0  0  0  0  0  0
  140.6690   73.7560  220.1560 C   0  0  0  0  0  0  0  0  0  0  0  0
  141.8200   73.0180  220.6760 C   0  0  0  0  0  0  0  0  0  0  0  0
  141.6690   72.0880  221.5340 O   0  0  0  0  0  0  0  0  0  0  0  0
  143.1780   73.2590  220.2870 N   0  0  0  0  0  0  0  0  0  0  0  0
  143.9380   72.3160  219.5120 C   0  0  0  0  0  0  0  0  0  0  0  0
  145.2500   73.0130  219.2600 C   0  0  0  0  0  0  0  0  0  0  0  0
  145.4000   73.8910  220.4660 C   0  0  0  0  0  0  0  0  0  0  0  0
  143.9930   74.4430  220.5940 C   0  0  1  0  0  0  0  0  0  0  0  0
  143.6980   75.4820  219.5600 C   0  0  0  0  0  0  0  0  0  0  0  0
  142.9300   76.5380  220.0840 O   0  0  0  0  0  0  0  0  0  0  0  0
  140.1780   76.9130  222.2620 C   0  0  0  0  0  0  0  0  0  0  0  0
  139.0770   77.6600  222.6580 C   0  0  0  0  0  0  0  0  0  0  0  0
  139.1690   78.9430  223.0970 C   0  0  0  0  0  0  0  0  0  0  0  0
  140.4050   79.5460  223.1580 C   0  0  0  0  0  0  0  0  0  0  0  0
  140.5610   80.8440  223.5950 C   0  0  0  0  0  0  0  0  0  0  0  0
  141.8020   81.4370  223.6520 C   0  0  0  0  0  0  0  0  0  0  0  0
  142.9220   80.7200  223.2630 C   0  0  0  0  0  0  0  0  0  0  0  0
  142.7570   79.4100  222.8240 C   0  0  0  0  0  0  0  0  0  0  0  0
  141.5220   78.8030  222.7610 C   0  0  0  0  0  0  0  0  0  0  0  0
  141.3740   77.5250  222.3310 N   0  0  0  0  0  0  0  0  0  0  0  0
  141.4200   75.8210  220.1940 H   0  0  0  0  0  0  0  0  0  0  0  0
  139.7338   73.2987  220.5113 H   0  0  0  0  0  0  0  0  0  0  0  0
  140.6531   73.7393  219.0562 H   0  0  0  0  0  0  0  0  0  0  0  0
  144.0937   71.3842  220.0755 H   0  0  0  0  0  0  0  0  0  0  0  0
  143.4282   72.0300  218.5802 H   0  0  0  0  0  0  0  0  0  0  0  0
  146.0758   72.2895  219.1920 H   0  0  0  0  0  0  0  0  0  0  0  0
  145.2707   73.5702  218.3118 H   0  0  0  0  0  0  0  0  0  0  0  0
  145.6897   73.3114  221.3549 H   0  0  0  0  0  0  0  0  0  0  0  0
  146.1832   74.6581  220.3757 H   0  0  0  0  0  0  0  0  0  0  0  0
  143.8183   74.9145  221.5724 H   0  0  0  0  0  0  0  0  0  0  0  0
  144.6480   75.8867  219.1809 H   0  0  0  0  0  0  0  0  0  0  0  0
  143.1204   75.0070  218.7533 H   0  0  0  0  0  0  0  0  0  0  0  0
  142.7620   76.4350  221.0460 H   0  0  0  0  0  0  0  0  0  0  0  0
  138.0828   77.1913  222.6144 H   0  0  0  0  0  0  0  0  0  0  0  0
  138.2661   79.4933  223.4001 H   0  0  0  0  0  0  0  0  0  0  0  0
  139.6752   81.4180  223.9047 H   0  0  0  0  0  0  0  0  0  0  0  0
  141.9039   82.4741  224.0043 H   0  0  0  0  0  0  0  0  0  0  0  0
  143.9217   81.1773  223.3005 H   0  0  0  0  0  0  0  0  0  0  0  0
  143.6449   78.8383  222.5161 H   0  0  0  0  0  0  0  0  0  0  0  0
  1  2  2  0
  2  3  1  0
  3  4  1  0
  4  5  1  0
  5  6  2  0
  5  7  1  0
  7  8  1  0
  8  9  1  0
  9 10  1  0
 10 11  1  0
 11 12  1  0
 12 13  1  0
  2 14  1  0
 14 15  2  0
 15 16  1  0
 16 17  2  0
 17 18  1  0
 18 19  2  0
 19 20  1  0
 20 21  2  0
 21 22  1  0
 22 23  2  0
 11  7  1  0
 23 14  1  0
 22 17  1  0
  3 24  1  0
  4 25  1  0
  4 26  1  0
  8 27  1  0
  8 28  1  0
  9 29  1  0
  9 30  1  0
 10 31  1  0
 10 32  1  0
 11 33  1  1
 12 34  1  0
 12 35  1  0
 13 36  1  0
 15 37  1  0
 16 38  1  0
 18 39  1  0
 19 40  1  0
 20 41  1  0
 21 42  1  0
M  END
>  <smiles>  (42) 
O=C(NCC(=O)N1CCC[C@H]1CO)c1ccc2ccccc2n1

>  <score_type>  (42) 
oracle

>  <origin>  (42) 
autodockgpu

>  <m_score__min__energy>  (42) 
-6.9299999999999997

>  <m_primary>  (42) 
energy

>  <rmsd>  (42) 
7.674024410098982

>  <m_score__min__rmsd>  (42) 
7.674024410098982

>  <meeko>  (42) 
{"free_energy": -6.13, "intermolecular_energy": -7.92, "internal_energy": -2.65, "cluster_size": 10, "cluster_id": 4, "rank_in_cluster": 2}

>  <energy>  (42) 
-6.13

>  <cluster_rmsd>  (42) 
1.35

>  <cluster>  (42) 
4

$$$$

     RDKit          3D

 42 44  0  0  0  0  0  0  0  0999 V2000
  141.0750   71.4680  221.3650 O   0  0  0  0  0  0  0  0  0  0  0  0
  140.4080   72.0590  222.2470 C   0  0  0  0  0  0  0  0  0  0  0  0
  139.8190   73.3380  222.0780 N   0  0  0  0  0  0  0  0  0  0  0  0
  139.9800   74.0500  220.8000 C   0  0  0  0  0  0  0  0  0  0  0  0
  141.1360   74.9340  220.9520 C   0  0  0  0  0  0  0  0  0  0  0  0
  142.3220   74.4700  220.9300 O   0  0  0  0  0  0  0  0  0  0  0  0
  141.0510   76.3530  221.1370 N   0  0  0  0  0  0  0  0  0  0  0  0
  141.2350   77.2830  220.0560 C   0  0  0  0  0  0  0  0  0  0  0  0
  140.9650   78.6300  220.6760 C   0  0  0  0  0  0  0  0  0  0  0  0
  141.3820   78.4330  222.1020 C   0  0  0  0  0  0  0  0  0  0  0  0
  140.7790   77.0710  222.3900 C   0  0  1  0  0  0  0  0  0  0  0  0
  139.2960   77.1370  222.5660 C   0  0  0  0  0  0  0  0  0  0  0  0
  138.7210   75.8540  222.6480 O   0  0  0  0  0  0  0  0  0  0  0  0
  140.2200   71.3880  223.5390 C   0  0  0  0  0  0  0  0  0  0  0  0
  139.5460   70.1790  223.6290 C   0  0  0  0  0  0  0  0  0  0  0  0
  139.3490   69.5240  224.8040 C   0  0  0  0  0  0  0  0  0  0  0  0
  139.8340   70.0720  225.9690 C   0  0  0  0  0  0  0  0  0  0  0  0
  139.6650   69.4540  227.1900 C   0  0  0  0  0  0  0  0  0  0  0  0
  140.1540   70.0120  228.3490 C   0  0  0  0  0  0  0  0  0  0  0  0
  140.8310   71.2200  228.2960 C   0  0  0  0  0  0  0  0  0  0  0  0
  140.9980   71.8380  227.0600 C   0  0  0  0  0  0  0  0  0  0  0  0
  140.5150   71.2920  225.8910 C   0  0  0  0  0  0  0  0  0  0  0  0
  140.6840   71.9030  224.6920 N   0  0  0  0  0  0  0  0  0  0  0  0
  139.2750   73.7680  222.8630 H   0  0  0  0  0  0  0  0  0  0  0  0
  140.1569   73.3317  219.9859 H   0  0  0  0  0  0  0  0  0  0  0  0
  139.0748   74.6229  220.5503 H   0  0  0  0  0  0  0  0  0  0  0  0
  142.2629   77.2313  219.6678 H   0  0  0  0  0  0  0  0  0  0  0  0
  140.5740   77.0724  219.2023 H   0  0  0  0  0  0  0  0  0  0  0  0
  141.5653   79.4152  220.1932 H   0  0  0  0  0  0  0  0  0  0  0  0
  139.9193   78.9546  220.5705 H   0  0  0  0  0  0  0  0  0  0  0  0
  142.4771   78.4208  222.2054 H   0  0  0  0  0  0  0  0  0  0  0  0
  141.0543   79.2296  222.7861 H   0  0  0  0  0  0  0  0  0  0  0  0
  141.1854   76.6211  223.3078 H   0  0  0  0  0  0  0  0  0  0  0  0
  139.0715   77.6875  223.4915 H   0  0  0  0  0  0  0  0  0  0  0  0
  138.8702   77.6469  221.6892 H   0  0  0  0  0  0  0  0  0  0  0  0
  138.9460   75.3990  223.4880 H   0  0  0  0  0  0  0  0  0  0  0  0
  139.1522   69.7288  222.7058 H   0  0  0  0  0  0  0  0  0  0  0  0
  138.8078   68.5665  224.8230 H   0  0  0  0  0  0  0  0  0  0  0  0
  139.1282   68.4951  227.2386 H   0  0  0  0  0  0  0  0  0  0  0  0
  140.0083   69.5018  229.3125 H   0  0  0  0  0  0  0  0  0  0  0  0
  141.2284   71.6812  229.2122 H   0  0  0  0  0  0  0  0  0  0  0  0
  141.5350   72.7969  227.0150 H   0  0  0  0  0  0  0  0  0  0  0  0
  1  2  2  0
  2  3  1  0
  3  4  1  0
  4  5  1  0
  5  6  2  0
  5  7  1  0
  7  8  1  0
  8  9  1  0
  9 10  1  0
 10 11  1  0
 11 12  1  0
 12 13  1  0
  2 14  1  0
 14 15  2  0
 15 16  1  0
 16 17  2  0
 17 18  1  0
 18 19  2  0
 19 20  1  0
 20 21  2  0
 21 22  1  0
 22 23  2  0
 11  7  1  0
 23 14  1  0
 22 17  1  0
  3 24  1  0
  4 25  1  0
  4 26  1  0
  8 27  1  0
  8 28  1  0
  9 29  1  0
  9 30  1  0
 10 31  1  0
 10 32  1  0
 11 33  1  1
 12 34  1  0
 12 35  1  0
 13 36  1  0
 15 37  1  0
 16 38  1  0
 18 39  1  0
 19 40  1  0
 20 41  1  0
 21 42  1  0
M  END
>  <smiles>  (43) 
O=C(NCC(=O)N1CCC[C@H]1CO)c1ccc2ccccc2n1

>  <score_type>  (43) 
oracle

>  <origin>  (43) 
autodockgpu

>  <m_score__min__energy>  (43) 
-6.9299999999999997

>  <m_primary>  (43) 
energy

>  <rmsd>  (43) 
2.463097953527278

>  <m_score__min__rmsd>  (43) 
2.463097953527278

>  <meeko>  (43) 
{"free_energy": -6.89, "intermolecular_energy": -8.68, "internal_energy": -1.67, "cluster_size": 35, "cluster_id": 1, "rank_in_cluster": 2}

>  <energy>  (43) 
-6.11

>  <cluster_rmsd>  (43) 
1.49

>  <cluster>  (43) 
4

$$$$

     RDKit          3D

 42 44  0  0  0  0  0  0  0  0999 V2000
  140.2450   71.3180  221.2190 O   0  0  0  0  0  0  0  0  0  0  0  0
  140.0170   72.0000  222.2460 C   0  0  0  0  0  0  0  0  0  0  0  0
  139.7590   73.3950  222.2370 N   0  0  0  0  0  0  0  0  0  0  0  0
  139.7500   74.1250  220.9590 C   0  0  0  0  0  0  0  0  0  0  0  0
  140.2710   75.4640  221.2360 C   0  0  0  0  0  0  0  0  0  0  0  0
  140.3180   75.9150  222.4270 O   0  0  0  0  0  0  0  0  0  0  0  0
  140.7600   76.3650  220.2340 N   0  0  0  0  0  0  0  0  0  0  0  0
  140.0890   76.5580  218.9770 C   0  0  0  0  0  0  0  0  0  0  0  0
  140.8840   77.6410  218.2950 C   0  0  0  0  0  0  0  0  0  0  0  0
  142.2660   77.4350  218.8360 C   0  0  0  0  0  0  0  0  0  0  0  0
  141.9660   77.2020  220.3050 C   0  0  1  0  0  0  0  0  0  0  0  0
  141.6020   78.4670  221.0130 C   0  0  0  0  0  0  0  0  0  0  0  0
  141.5270   78.2830  222.4070 O   0  0  0  0  0  0  0  0  0  0  0  0
  140.0140   71.3160  223.5450 C   0  0  0  0  0  0  0  0  0  0  0  0
  139.5140   70.0280  223.6770 C   0  0  0  0  0  0  0  0  0  0  0  0
  139.4920   69.3580  224.8600 C   0  0  0  0  0  0  0  0  0  0  0  0
  139.9840   69.9710  225.9890 C   0  0  0  0  0  0  0  0  0  0  0  0
  139.9890   69.3410  227.2160 C   0  0  0  0  0  0  0  0  0  0  0  0
  140.4840   69.9630  228.3390 C   0  0  0  0  0  0  0  0  0  0  0  0
  140.9900   71.2500  228.2430 C   0  0  0  0  0  0  0  0  0  0  0  0
  140.9830   71.8790  227.0020 C   0  0  0  0  0  0  0  0  0  0  0  0
  140.4910   71.2690  225.8680 C   0  0  0  0  0  0  0  0  0  0  0  0
  140.4890   71.8920  224.6640 N   0  0  0  0  0  0  0  0  0  0  0  0
  139.5760   73.8960  223.1380 H   0  0  0  0  0  0  0  0  0  0  0  0
  140.3904   73.6132  220.2256 H   0  0  0  0  0  0  0  0  0  0  0  0
  138.7346   74.1746  220.5388 H   0  0  0  0  0  0  0  0  0  0  0  0
  140.1008   75.6325  218.3826 H   0  0  0  0  0  0  0  0  0  0  0  0
  139.0302   76.8285  219.1022 H   0  0  0  0  0  0  0  0  0  0  0  0
  140.8646   77.5173  217.2022 H   0  0  0  0  0  0  0  0  0  0  0  0
  140.4909   78.6511  218.4824 H   0  0  0  0  0  0  0  0  0  0  0  0
  142.7533   76.5611  218.3790 H   0  0  0  0  0  0  0  0  0  0  0  0
  142.9599   78.2656  218.6396 H   0  0  0  0  0  0  0  0  0  0  0  0
  142.8252   76.7752  220.8432 H   0  0  0  0  0  0  0  0  0  0  0  0
  142.3646   79.2292  220.7950 H   0  0  0  0  0  0  0  0  0  0  0  0
  140.6114   78.7856  220.6564 H   0  0  0  0  0  0  0  0  0  0  0  0
  141.8500   77.3990  222.6830 H   0  0  0  0  0  0  0  0  0  0  0  0
  139.1169   69.5256  222.7826 H   0  0  0  0  0  0  0  0  0  0  0  0
  139.0854   68.3373  224.9137 H   0  0  0  0  0  0  0  0  0  0  0  0
  139.5888   68.3197  227.2985 H   0  0  0  0  0  0  0  0  0  0  0  0
  140.4782   69.4419  229.3077 H   0  0  0  0  0  0  0  0  0  0  0  0
  141.3890   71.7636  229.1301 H   0  0  0  0  0  0  0  0  0  0  0  0
  141.3846   72.9000  226.9229 H   0  0  0  0  0  0  0  0  0  0  0  0
  1  2  2  0
  2  3  1  0
  3  4  1  0
  4  5  1  0
  5  6  2  0
  5  7  1  0
  7  8  1  0
  8  9  1  0
  9 10  1  0
 10 11  1  0
 11 12  1  0
 12 13  1  0
  2 14  1  0
 14 15  2  0
 15 16  1  0
 16 17  2  0
 17 18  1  0
 18 19  2  0
 19 20  1  0
 20 21  2  0
 21 22  1  0
 22 23  2  0
 11  7  1  0
 23 14  1  0
 22 17  1  0
  3 24  1  0
  4 25  1  0
  4 26  1  0
  8 27  1  0
  8 28  1  0
  9 29  1  0
  9 30  1  0
 10 31  1  0
 10 32  1  0
 11 33  1  1
 12 34  1  0
 12 35  1  0
 13 36  1  0
 15 37  1  0
 16 38  1  0
 18 39  1  0
 19 40  1  0
 20 41  1  0
 21 42  1  0
M  END
>  <smiles>  (44) 
O=C(NCC(=O)N1CCC[C@H]1CO)c1ccc2ccccc2n1

>  <score_type>  (44) 
oracle

>  <origin>  (44) 
autodockgpu

>  <m_score__min__energy>  (44) 
-6.9299999999999997

>  <m_primary>  (44) 
energy

>  <rmsd>  (44) 
1.4135853188081549

>  <m_score__min__rmsd>  (44) 
1.4135853188081549

>  <meeko>  (44) 
{"free_energy": -6.55, "intermolecular_energy": -8.34, "internal_energy": -2.2, "cluster_size": 35, "cluster_id": 1, "rank_in_cluster": 10}

>  <energy>  (44) 
-6.08

>  <cluster_rmsd>  (44) 
1.46

>  <cluster>  (44) 
4

$$$$

     RDKit          3D

 42 44  0  0  0  0  0  0  0  0999 V2000
  140.3140   71.2940  221.2070 O   0  0  0  0  0  0  0  0  0  0  0  0
  140.0830   71.9900  222.2240 C   0  0  0  0  0  0  0  0  0  0  0  0
  139.8510   73.3890  222.1970 N   0  0  0  0  0  0  0  0  0  0  0  0
  139.8750   74.1060  220.9130 C   0  0  0  0  0  0  0  0  0  0  0  0
  140.4850   75.4110  221.1700 C   0  0  0  0  0  0  0  0  0  0  0  0
  140.7090   75.8060  222.3610 O   0  0  0  0  0  0  0  0  0  0  0  0
  140.8750   76.3370  220.1490 N   0  0  0  0  0  0  0  0  0  0  0  0
  140.1270   76.5040  218.9320 C   0  0  0  0  0  0  0  0  0  0  0  0
  140.8320   77.6260  218.2140 C   0  0  0  0  0  0  0  0  0  0  0  0
  142.2500   77.4820  218.6760 C   0  0  0  0  0  0  0  0  0  0  0  0
  142.0430   77.2290  220.1570 C   0  0  1  0  0  0  0  0  0  0  0  0
  141.6620   78.4730  220.8940 C   0  0  0  0  0  0  0  0  0  0  0  0
  141.6740   78.2810  222.2880 O   0  0  0  0  0  0  0  0  0  0  0  0
  140.0490   71.3190  223.5300 C   0  0  0  0  0  0  0  0  0  0  0  0
  139.5000   70.0530  223.6720 C   0  0  0  0  0  0  0  0  0  0  0  0
  139.4470   69.3950  224.8600 C   0  0  0  0  0  0  0  0  0  0  0  0
  139.9580   69.9990  225.9860 C   0  0  0  0  0  0  0  0  0  0  0  0
  139.9340   69.3810  227.2190 C   0  0  0  0  0  0  0  0  0  0  0  0
  140.4480   69.9950  228.3380 C   0  0  0  0  0  0  0  0  0  0  0  0
  141.0040   71.2600  228.2320 C   0  0  0  0  0  0  0  0  0  0  0  0
  141.0260   71.8770  226.9850 C   0  0  0  0  0  0  0  0  0  0  0  0
  140.5150   71.2760  225.8550 C   0  0  0  0  0  0  0  0  0  0  0  0
  140.5420   71.8870  224.6450 N   0  0  0  0  0  0  0  0  0  0  0  0
  139.6650   73.9020  223.0910 H   0  0  0  0  0  0  0  0  0  0  0  0
  140.4723   73.5467  220.1779 H   0  0  0  0  0  0  0  0  0  0  0  0
  138.8601   74.2179  220.5039 H   0  0  0  0  0  0  0  0  0  0  0  0
  140.1485   75.5826  218.3316 H   0  0  0  0  0  0  0  0  0  0  0  0
  139.0654   76.7246  219.1175 H   0  0  0  0  0  0  0  0  0  0  0  0
  140.7573   77.5061  217.1231 H   0  0  0  0  0  0  0  0  0  0  0  0
  140.4038   78.6160  218.4298 H   0  0  0  0  0  0  0  0  0  0  0  0
  142.7509   76.6337  218.1867 H   0  0  0  0  0  0  0  0  0  0  0  0
  142.8930   78.3447  218.4472 H   0  0  0  0  0  0  0  0  0  0  0  0
  142.9499   76.8398  220.6428 H   0  0  0  0  0  0  0  0  0  0  0  0
  142.3754   79.2704  220.6386 H   0  0  0  0  0  0  0  0  0  0  0  0
  140.6390   78.7462  220.5961 H   0  0  0  0  0  0  0  0  0  0  0  0
  141.8750   77.3520  222.5330 H   0  0  0  0  0  0  0  0  0  0  0  0
  139.0878   69.5580  222.7804 H   0  0  0  0  0  0  0  0  0  0  0  0
  139.0009   68.3914  224.9208 H   0  0  0  0  0  0  0  0  0  0  0  0
  139.4949   68.3765  227.3096 H   0  0  0  0  0  0  0  0  0  0  0  0
  140.4177   69.4843  229.3118 H   0  0  0  0  0  0  0  0  0  0  0  0
  141.4195   71.7661  229.1158 H   0  0  0  0  0  0  0  0  0  0  0  0
  141.4673   72.8809  226.8980 H   0  0  0  0  0  0  0  0  0  0  0  0
  1  2  2  0
  2  3  1  0
  3  4  1  0
  4  5  1  0
  5  6  2  0
  5  7  1  0
  7  8  1  0
  8  9  1  0
  9 10  1  0
 10 11  1  0
 11 12  1  0
 12 13  1  0
  2 14  1  0
 14 15  2  0
 15 16  1  0
 16 17  2  0
 17 18  1  0
 18 19  2  0
 19 20  1  0
 20 21  2  0
 21 22  1  0
 22 23  2  0
 11  7  1  0
 23 14  1  0
 22 17  1  0
  3 24  1  0
  4 25  1  0
  4 26  1  0
  8 27  1  0
  8 28  1  0
  9 29  1  0
  9 30  1  0
 10 31  1  0
 10 32  1  0
 11 33  1  1
 12 34  1  0
 12 35  1  0
 13 36  1  0
 15 37  1  0
 16 38  1  0
 18 39  1  0
 19 40  1  0
 20 41  1  0
 21 42  1  0
M  END
>  <smiles>  (45) 
O=C(NCC(=O)N1CCC[C@H]1CO)c1ccc2ccccc2n1

>  <score_type>  (45) 
oracle

>  <origin>  (45) 
autodockgpu

>  <m_score__min__energy>  (45) 
-6.9299999999999997

>  <m_primary>  (45) 
energy

>  <rmsd>  (45) 
1.4264435754838436

>  <m_score__min__rmsd>  (45) 
1.4264435754838436

>  <meeko>  (45) 
{"free_energy": -6.51, "intermolecular_energy": -8.3, "internal_energy": -2.2, "cluster_size": 35, "cluster_id": 1, "rank_in_cluster": 13}

>  <energy>  (45) 
-6.08

>  <cluster_rmsd>  (45) 
1.33

>  <cluster>  (45) 
4

$$$$

     RDKit          3D

 42 44  0  0  0  0  0  0  0  0999 V2000
  141.4620   72.1280  221.6190 O   0  0  0  0  0  0  0  0  0  0  0  0
  140.5710   72.4580  222.4370 C   0  0  0  0  0  0  0  0  0  0  0  0
  139.8010   73.6460  222.3410 N   0  0  0  0  0  0  0  0  0  0  0  0
  140.0340   74.5760  221.2250 C   0  0  0  0  0  0  0  0  0  0  0  0
  139.5610   75.8890  221.6660 C   0  0  0  0  0  0  0  0  0  0  0  0
  138.4050   76.0280  222.1830 O   0  0  0  0  0  0  0  0  0  0  0  0
  140.3200   77.1000  221.5620 N   0  0  0  0  0  0  0  0  0  0  0  0
  140.9770   77.4960  220.3460 C   0  0  0  0  0  0  0  0  0  0  0  0
  141.5580   78.8500  220.6620 C   0  0  0  0  0  0  0  0  0  0  0  0
  141.8270   78.7650  222.1340 C   0  0  0  0  0  0  0  0  0  0  0  0
  140.5550   78.0950  222.6180 C   0  0  1  0  0  0  0  0  0  0  0  0
  139.3910   79.0340  222.6270 C   0  0  0  0  0  0  0  0  0  0  0  0
  138.2280   78.4210  223.1300 O   0  0  0  0  0  0  0  0  0  0  0  0
  140.3010   71.5620  223.5680 C   0  0  0  0  0  0  0  0  0  0  0  0
  139.6360   70.3570  223.3860 C   0  0  0  0  0  0  0  0  0  0  0  0
  139.3660   69.4970  224.4040 C   0  0  0  0  0  0  0  0  0  0  0  0
  139.7630   69.8210  225.6810 C   0  0  0  0  0  0  0  0  0  0  0  0
  139.5170   68.9890  226.7520 C   0  0  0  0  0  0  0  0  0  0  0  0
  139.9190   69.3230  228.0260 C   0  0  0  0  0  0  0  0  0  0  0  0
  140.5850   70.5190  228.2430 C   0  0  0  0  0  0  0  0  0  0  0  0
  140.8300   71.3530  227.1570 C   0  0  0  0  0  0  0  0  0  0  0  0
  140.4340   71.0330  225.8760 C   0  0  0  0  0  0  0  0  0  0  0  0
  140.6790   71.8540  224.8250 N   0  0  0  0  0  0  0  0  0  0  0  0
  139.0730   73.8530  223.0650 H   0  0  0  0  0  0  0  0  0  0  0  0
  141.1068   74.6201  220.9860 H   0  0  0  0  0  0  0  0  0  0  0  0
  139.5031   74.2479  220.3191 H   0  0  0  0  0  0  0  0  0  0  0  0
  141.7717   76.7827  220.0821 H   0  0  0  0  0  0  0  0  0  0  0  0
  140.2909   77.5227  219.4866 H   0  0  0  0  0  0  0  0  0  0  0  0
  142.4873   79.0227  220.0994 H   0  0  0  0  0  0  0  0  0  0  0  0
  140.8921   79.6822  220.3899 H   0  0  0  0  0  0  0  0  0  0  0  0
  142.7144   78.1514  222.3485 H   0  0  0  0  0  0  0  0  0  0  0  0
  142.0435   79.7310  222.6136 H   0  0  0  0  0  0  0  0  0  0  0  0
  140.6539   77.7053  223.6419 H   0  0  0  0  0  0  0  0  0  0  0  0
  139.6378   79.9007  223.2578 H   0  0  0  0  0  0  0  0  0  0  0  0
  139.1932   79.3428  221.5899 H   0  0  0  0  0  0  0  0  0  0  0  0
  138.0740   77.5360  222.7350 H   0  0  0  0  0  0  0  0  0  0  0  0
  139.3123   70.0852  222.3705 H   0  0  0  0  0  0  0  0  0  0  0  0
  138.8362   68.5529  224.2089 H   0  0  0  0  0  0  0  0  0  0  0  0
  138.9887   68.0386  226.5856 H   0  0  0  0  0  0  0  0  0  0  0  0
  139.7127   68.6444  228.8668 H   0  0  0  0  0  0  0  0  0  0  0  0
  140.9133   70.8030  229.2537 H   0  0  0  0  0  0  0  0  0  0  0  0
  141.3590   72.3024  227.3266 H   0  0  0  0  0  0  0  0  0  0  0  0
  1  2  2  0
  2  3  1  0
  3  4  1  0
  4  5  1  0
  5  6  2  0
  5  7  1  0
  7  8  1  0
  8  9  1  0
  9 10  1  0
 10 11  1  0
 11 12  1  0
 12 13  1  0
  2 14  1  0
 14 15  2  0
 15 16  1  0
 16 17  2  0
 17 18  1  0
 18 19  2  0
 19 20  1  0
 20 21  2  0
 21 22  1  0
 22 23  2  0
 11  7  1  0
 23 14  1  0
 22 17  1  0
  3 24  1  0
  4 25  1  0
  4 26  1  0
  8 27  1  0
  8 28  1  0
  9 29  1  0
  9 30  1  0
 10 31  1  0
 10 32  1  0
 11 33  1  1
 12 34  1  0
 12 35  1  0
 13 36  1  0
 15 37  1  0
 16 38  1  0
 18 39  1  0
 19 40  1  0
 20 41  1  0
 21 42  1  0
M  END
>  <smiles>  (46) 
O=C(NCC(=O)N1CCC[C@H]1CO)c1ccc2ccccc2n1

>  <score_type>  (46) 
oracle

>  <origin>  (46) 
autodockgpu

>  <m_score__min__energy>  (46) 
-6.9299999999999997

>  <m_primary>  (46) 
energy

>  <rmsd>  (46) 
2.6208697510544474

>  <m_score__min__rmsd>  (46) 
2.6208697510544474

>  <meeko>  (46) 
{"free_energy": -6.39, "intermolecular_energy": -8.18, "internal_energy": -1.93, "cluster_size": 35, "cluster_id": 1, "rank_in_cluster": 30}

>  <energy>  (46) 
-6.08

>  <cluster_rmsd>  (46) 
0.78

>  <cluster>  (46) 
4

$$$$

     RDKit          3D

 42 44  0  0  0  0  0  0  0  0999 V2000
  141.4410   72.7200  221.5910 O   0  0  0  0  0  0  0  0  0  0  0  0
  140.4650   72.8460  222.3680 C   0  0  0  0  0  0  0  0  0  0  0  0
  139.5750   73.9500  222.3580 N   0  0  0  0  0  0  0  0  0  0  0  0
  139.7760   75.0390  221.3880 C   0  0  0  0  0  0  0  0  0  0  0  0
  139.4490   76.2860  222.0820 C   0  0  0  0  0  0  0  0  0  0  0  0
  138.3690   76.4010  222.7470 O   0  0  0  0  0  0  0  0  0  0  0  0
  140.2800   77.4540  222.0790 N   0  0  0  0  0  0  0  0  0  0  0  0
  141.2550   77.7050  221.0530 C   0  0  0  0  0  0  0  0  0  0  0  0
  141.8110   79.0630  221.3940 C   0  0  0  0  0  0  0  0  0  0  0  0
  141.6790   79.1160  222.8860 C   0  0  0  0  0  0  0  0  0  0  0  0
  140.2870   78.5410  223.0690 C   0  0  1  0  0  0  0  0  0  0  0  0
  139.2190   79.5140  222.6850 C   0  0  0  0  0  0  0  0  0  0  0  0
  137.9360   79.0440  223.0220 O   0  0  0  0  0  0  0  0  0  0  0  0
  140.2220   71.7850  223.3540 C   0  0  0  0  0  0  0  0  0  0  0  0
  139.5340   70.6310  223.0100 C   0  0  0  0  0  0  0  0  0  0  0  0
  139.2870   69.6240  223.8900 C   0  0  0  0  0  0  0  0  0  0  0  0
  139.7330   69.7390  225.1860 C   0  0  0  0  0  0  0  0  0  0  0  0
  139.5140   68.7510  226.1220 C   0  0  0  0  0  0  0  0  0  0  0  0
  139.9650   68.8770  227.4160 C   0  0  0  0  0  0  0  0  0  0  0  0
  140.6560   70.0180  227.7930 C   0  0  0  0  0  0  0  0  0  0  0  0
  140.8740   71.0100  226.8430 C   0  0  0  0  0  0  0  0  0  0  0  0
  140.4290   70.8990  225.5440 C   0  0  0  0  0  0  0  0  0  0  0  0
  140.6480   71.8730  224.6270 N   0  0  0  0  0  0  0  0  0  0  0  0
  138.7810   73.9840  223.0400 H   0  0  0  0  0  0  0  0  0  0  0  0
  140.8224   75.0567  221.0493 H   0  0  0  0  0  0  0  0  0  0  0  0
  139.1402   74.9013  220.5010 H   0  0  0  0  0  0  0  0  0  0  0  0
  142.0478   76.9427  221.0736 H   0  0  0  0  0  0  0  0  0  0  0  0
  140.8214   77.6694  220.0427 H   0  0  0  0  0  0  0  0  0  0  0  0
  142.8639   79.1477  221.0869 H   0  0  0  0  0  0  0  0  0  0  0  0
  141.2896   79.8858  220.8830 H   0  0  0  0  0  0  0  0  0  0  0  0
  142.4411   78.4970  223.3820 H   0  0  0  0  0  0  0  0  0  0  0  0
  141.8190   80.1169  223.3203 H   0  0  0  0  0  0  0  0  0  0  0  0
  140.0901   78.2526  224.1121 H   0  0  0  0  0  0  0  0  0  0  0  0
  139.3986   80.4645  223.2088 H   0  0  0  0  0  0  0  0  0  0  0  0
  139.2571   79.6495  221.5940 H   0  0  0  0  0  0  0  0  0  0  0  0
  137.8930   78.0630  223.0420 H   0  0  0  0  0  0  0  0  0  0  0  0
  139.1711   70.5253  221.9770 H   0  0  0  0  0  0  0  0  0  0  0  0
  138.7366   68.7274  223.5688 H   0  0  0  0  0  0  0  0  0  0  0  0
  138.9673   67.8428  225.8284 H   0  0  0  0  0  0  0  0  0  0  0  0
  139.7782   68.0767  228.1472 H   0  0  0  0  0  0  0  0  0  0  0  0
  141.0245   70.1364  228.8227 H   0  0  0  0  0  0  0  0  0  0  0  0
  141.4218   71.9165  227.1397 H   0  0  0  0  0  0  0  0  0  0  0  0
  1  2  2  0
  2  3  1  0
  3  4  1  0
  4  5  1  0
  5  6  2  0
  5  7  1  0
  7  8  1  0
  8  9  1  0
  9 10  1  0
 10 11  1  0
 11 12  1  0
 12 13  1  0
  2 14  1  0
 14 15  2  0
 15 16  1  0
 16 17  2  0
 17 18  1  0
 18 19  2  0
 19 20  1  0
 20 21  2  0
 21 22  1  0
 22 23  2  0
 11  7  1  0
 23 14  1  0
 22 17  1  0
  3 24  1  0
  4 25  1  0
  4 26  1  0
  8 27  1  0
  8 28  1  0
  9 29  1  0
  9 30  1  0
 10 31  1  0
 10 32  1  0
 11 33  1  1
 12 34  1  0
 12 35  1  0
 13 36  1  0
 15 37  1  0
 16 38  1  0
 18 39  1  0
 19 40  1  0
 20 41  1  0
 21 42  1  0
M  END
>  <smiles>  (47) 
O=C(NCC(=O)N1CCC[C@H]1CO)c1ccc2ccccc2n1

>  <score_type>  (47) 
oracle

>  <origin>  (47) 
autodockgpu

>  <m_score__min__energy>  (47) 
-6.9299999999999997

>  <m_primary>  (47) 
energy

>  <rmsd>  (47) 
3.033901623604799

>  <m_score__min__rmsd>  (47) 
3.033901623604799

>  <meeko>  (47) 
{"free_energy": -6.48, "intermolecular_energy": -8.27, "internal_energy": -1.92, "cluster_size": 35, "cluster_id": 1, "rank_in_cluster": 18}

>  <energy>  (47) 
-6.05

>  <cluster_rmsd>  (47) 
0.31

>  <cluster>  (47) 
4

$$$$

     RDKit          3D

 42 44  0  0  0  0  0  0  0  0999 V2000
  140.2370   71.3030  221.2300 O   0  0  0  0  0  0  0  0  0  0  0  0
  140.0160   71.9890  222.2560 C   0  0  0  0  0  0  0  0  0  0  0  0
  139.7660   73.3850  222.2430 N   0  0  0  0  0  0  0  0  0  0  0  0
  139.7570   74.1110  220.9630 C   0  0  0  0  0  0  0  0  0  0  0  0
  140.1920   75.4780  221.2520 C   0  0  0  0  0  0  0  0  0  0  0  0
  140.1180   75.9540  222.4320 O   0  0  0  0  0  0  0  0  0  0  0  0
  140.7230   76.3820  220.2750 N   0  0  0  0  0  0  0  0  0  0  0  0
  140.0480   76.6610  219.0360 C   0  0  0  0  0  0  0  0  0  0  0  0
  140.9000   77.7160  218.3790 C   0  0  0  0  0  0  0  0  0  0  0  0
  142.2740   77.4060  218.8910 C   0  0  0  0  0  0  0  0  0  0  0  0
  141.9790   77.1410  220.3550 C   0  0  1  0  0  0  0  0  0  0  0  0
  141.7050   78.4000  221.1130 C   0  0  0  0  0  0  0  0  0  0  0  0
  141.6420   78.1730  222.5010 O   0  0  0  0  0  0  0  0  0  0  0  0
  140.0140   71.3090  223.5570 C   0  0  0  0  0  0  0  0  0  0  0  0
  139.5140   70.0220  223.6930 C   0  0  0  0  0  0  0  0  0  0  0  0
  139.4920   69.3550  224.8780 C   0  0  0  0  0  0  0  0  0  0  0  0
  139.9860   69.9710  226.0050 C   0  0  0  0  0  0  0  0  0  0  0  0
  139.9910   69.3440  227.2340 C   0  0  0  0  0  0  0  0  0  0  0  0
  140.4870   69.9700  228.3540 C   0  0  0  0  0  0  0  0  0  0  0  0
  140.9940   71.2560  228.2540 C   0  0  0  0  0  0  0  0  0  0  0  0
  140.9860   71.8810  227.0110 C   0  0  0  0  0  0  0  0  0  0  0  0
  140.4930   71.2680  225.8800 C   0  0  0  0  0  0  0  0  0  0  0  0
  140.4910   71.8880  224.6740 N   0  0  0  0  0  0  0  0  0  0  0  0
  139.5900   73.8900  223.1440 H   0  0  0  0  0  0  0  0  0  0  0  0
  140.4489   73.6352  220.2524 H   0  0  0  0  0  0  0  0  0  0  0  0
  138.7546   74.1021  220.5100 H   0  0  0  0  0  0  0  0  0  0  0  0
  139.9934   75.7583  218.4098 H   0  0  0  0  0  0  0  0  0  0  0  0
  139.0101   76.9924  219.1875 H   0  0  0  0  0  0  0  0  0  0  0  0
  140.8581   77.6321  217.2830 H   0  0  0  0  0  0  0  0  0  0  0  0
  140.5733   78.7413  218.6071 H   0  0  0  0  0  0  0  0  0  0  0  0
  142.6997   76.5201  218.3971 H   0  0  0  0  0  0  0  0  0  0  0  0
  143.0160   78.1981  218.7122 H   0  0  0  0  0  0  0  0  0  0  0  0
  142.8174   76.6435  220.8645 H   0  0  0  0  0  0  0  0  0  0  0  0
  142.5091   79.1217  220.9067 H   0  0  0  0  0  0  0  0  0  0  0  0
  140.7296   78.7897  220.7863 H   0  0  0  0  0  0  0  0  0  0  0  0
  141.8160   77.2350  222.7320 H   0  0  0  0  0  0  0  0  0  0  0  0
  139.1166   69.5172  222.8001 H   0  0  0  0  0  0  0  0  0  0  0  0
  139.0841   68.3350  224.9349 H   0  0  0  0  0  0  0  0  0  0  0  0
  139.5904   68.3232  227.3199 H   0  0  0  0  0  0  0  0  0  0  0  0
  140.4812   69.4523  229.3245 H   0  0  0  0  0  0  0  0  0  0  0  0
  141.3945   71.7719  229.1391 H   0  0  0  0  0  0  0  0  0  0  0  0
  141.3879   72.9016  226.9283 H   0  0  0  0  0  0  0  0  0  0  0  0
  1  2  2  0
  2  3  1  0
  3  4  1  0
  4  5  1  0
  5  6  2  0
  5  7  1  0
  7  8  1  0
  8  9  1  0
  9 10  1  0
 10 11  1  0
 11 12  1  0
 12 13  1  0
  2 14  1  0
 14 15  2  0
 15 16  1  0
 16 17  2  0
 17 18  1  0
 18 19  2  0
 19 20  1  0
 20 21  2  0
 21 22  1  0
 22 23  2  0
 11  7  1  0
 23 14  1  0
 22 17  1  0
  3 24  1  0
  4 25  1  0
  4 26  1  0
  8 27  1  0
  8 28  1  0
  9 29  1  0
  9 30  1  0
 10 31  1  0
 10 32  1  0
 11 33  1  1
 12 34  1  0
 12 35  1  0
 13 36  1  0
 15 37  1  0
 16 38  1  0
 18 39  1  0
 19 40  1  0
 20 41  1  0
 21 42  1  0
M  END
>  <smiles>  (48) 
O=C(NCC(=O)N1CCC[C@H]1CO)c1ccc2ccccc2n1

>  <score_type>  (48) 
oracle

>  <origin>  (48) 
autodockgpu

>  <m_score__min__energy>  (48) 
-6.9299999999999997

>  <m_primary>  (48) 
energy

>  <rmsd>  (48) 
1.4408728494421277

>  <m_score__min__rmsd>  (48) 
1.4408728494421277

>  <meeko>  (48) 
{"free_energy": -6.51, "intermolecular_energy": -8.3, "internal_energy": -2.23, "cluster_size": 35, "cluster_id": 1, "rank_in_cluster": 12}

>  <energy>  (48) 
-6.03

>  <cluster_rmsd>  (48) 
1.46

>  <cluster>  (48) 
4

$$$$

     RDKit          3D

 42 44  0  0  0  0  0  0  0  0999 V2000
  141.6020   72.3420  221.6020 O   0  0  0  0  0  0  0  0  0  0  0  0
  140.6440   72.5690  222.3790 C   0  0  0  0  0  0  0  0  0  0  0  0
  139.8480   73.7430  222.3410 N   0  0  0  0  0  0  0  0  0  0  0  0
  140.1330   74.7840  221.3410 C   0  0  0  0  0  0  0  0  0  0  0  0
  139.7810   76.0650  221.9550 C   0  0  0  0  0  0  0  0  0  0  0  0
  138.7610   76.1700  222.7120 O   0  0  0  0  0  0  0  0  0  0  0  0
  140.5190   77.2800  221.7730 N   0  0  0  0  0  0  0  0  0  0  0  0
  141.2800   77.5480  220.5830 C   0  0  0  0  0  0  0  0  0  0  0  0
  141.7970   78.9500  220.7810 C   0  0  0  0  0  0  0  0  0  0  0  0
  141.9250   79.0530  222.2710 C   0  0  0  0  0  0  0  0  0  0  0  0
  140.6280   78.4030  222.7140 C   0  0  1  0  0  0  0  0  0  0  0  0
  139.4470   79.2950  222.4990 C   0  0  0  0  0  0  0  0  0  0  0  0
  138.2700   78.7470  223.0420 O   0  0  0  0  0  0  0  0  0  0  0  0
  140.3210   71.5590  223.3940 C   0  0  0  0  0  0  0  0  0  0  0  0
  139.6030   70.4180  223.0670 C   0  0  0  0  0  0  0  0  0  0  0  0
  139.2810   69.4580  223.9740 C   0  0  0  0  0  0  0  0  0  0  0  0
  139.6780   69.6090  225.2830 C   0  0  0  0  0  0  0  0  0  0  0  0
  139.3820   68.6690  226.2470 C   0  0  0  0  0  0  0  0  0  0  0  0
  139.7840   68.8310  227.5530 C   0  0  0  0  0  0  0  0  0  0  0  0
  140.5010   69.9600  227.9140 C   0  0  0  0  0  0  0  0  0  0  0  0
  140.7970   70.9040  226.9360 C   0  0  0  0  0  0  0  0  0  0  0  0
  140.4020   70.7560  225.6240 C   0  0  0  0  0  0  0  0  0  0  0  0
  140.6960   71.6830  224.6800 N   0  0  0  0  0  0  0  0  0  0  0  0
  139.0640   73.8610  223.0250 H   0  0  0  0  0  0  0  0  0  0  0  0
  141.2002   74.7718  221.0748 H   0  0  0  0  0  0  0  0  0  0  0  0
  139.5567   74.6155  220.4194 H   0  0  0  0  0  0  0  0  0  0  0  0
  142.1125   76.8358  220.4839 H   0  0  0  0  0  0  0  0  0  0  0  0
  140.6789   77.4466  219.6674 H   0  0  0  0  0  0  0  0  0  0  0  0
  142.7719   79.0852  220.2899 H   0  0  0  0  0  0  0  0  0  0  0  0
  141.1417   79.7197  220.3473 H   0  0  0  0  0  0  0  0  0  0  0  0
  142.8015   78.5008  222.6410 H   0  0  0  0  0  0  0  0  0  0  0  0
  142.0722   80.0768  222.6455 H   0  0  0  0  0  0  0  0  0  0  0  0
  140.6368   78.1442  223.7831 H   0  0  0  0  0  0  0  0  0  0  0  0
  139.6420   80.2653  222.9791 H   0  0  0  0  0  0  0  0  0  0  0  0
  139.3004   79.4114  221.4150 H   0  0  0  0  0  0  0  0  0  0  0  0
  138.2720   77.7650  223.0180 H   0  0  0  0  0  0  0  0  0  0  0  0
  139.2789   70.2837  222.0245 H   0  0  0  0  0  0  0  0  0  0  0  0
  138.7095   68.5703  223.6651 H   0  0  0  0  0  0  0  0  0  0  0  0
  138.8126   67.7707  225.9663 H   0  0  0  0  0  0  0  0  0  0  0  0
  139.5374   68.0682  228.3062 H   0  0  0  0  0  0  0  0  0  0  0  0
  140.8298   70.1071  228.9534 H   0  0  0  0  0  0  0  0  0  0  0  0
  141.3669   71.8009  227.2201 H   0  0  0  0  0  0  0  0  0  0  0  0
  1  2  2  0
  2  3  1  0
  3  4  1  0
  4  5  1  0
  5  6  2  0
  5  7  1  0
  7  8  1  0
  8  9  1  0
  9 10  1  0
 10 11  1  0
 11 12  1  0
 12 13  1  0
  2 14  1  0
 14 15  2  0
 15 16  1  0
 16 17  2  0
 17 18  1  0
 18 19  2  0
 19 20  1  0
 20 21  2  0
 21 22  1  0
 22 23  2  0
 11  7  1  0
 23 14  1  0
 22 17  1  0
  3 24  1  0
  4 25  1  0
  4 26  1  0
  8 27  1  0
  8 28  1  0
  9 29  1  0
  9 30  1  0
 10 31  1  0
 10 32  1  0
 11 33  1  1
 12 34  1  0
 12 35  1  0
 13 36  1  0
 15 37  1  0
 16 38  1  0
 18 39  1  0
 19 40  1  0
 20 41  1  0
 21 42  1  0
M  END
>  <smiles>  (49) 
O=C(NCC(=O)N1CCC[C@H]1CO)c1ccc2ccccc2n1

>  <score_type>  (49) 
oracle

>  <origin>  (49) 
autodockgpu

>  <m_score__min__energy>  (49) 
-6.9299999999999997

>  <m_primary>  (49) 
energy

>  <rmsd>  (49) 
2.789507362266987

>  <m_score__min__rmsd>  (49) 
2.789507362266987

>  <meeko>  (49) 
{"free_energy": -6.4, "intermolecular_energy": -8.19, "internal_energy": -2.03, "cluster_size": 35, "cluster_id": 1, "rank_in_cluster": 29}

>  <energy>  (49) 
-5.92

>  <cluster_rmsd>  (49) 
1.38

>  <cluster>  (49) 
4

$$$$

     RDKit          3D

 42 44  0  0  0  0  0  0  0  0999 V2000
  140.4040   71.3760  221.2510 O   0  0  0  0  0  0  0  0  0  0  0  0
  140.1180   72.0350  222.2780 C   0  0  0  0  0  0  0  0  0  0  0  0
  139.8140   73.4210  222.2780 N   0  0  0  0  0  0  0  0  0  0  0  0
  139.8240   74.1680  221.0100 C   0  0  0  0  0  0  0  0  0  0  0  0
  140.8120   75.2370  221.1600 C   0  0  0  0  0  0  0  0  0  0  0  0
  141.0860   75.7190  222.3070 O   0  0  0  0  0  0  0  0  0  0  0  0
  141.5390   75.8240  220.0730 N   0  0  0  0  0  0  0  0  0  0  0  0
  141.5350   77.2390  219.8180 C   0  0  0  0  0  0  0  0  0  0  0  0
  142.4900   77.4110  218.6650 C   0  0  0  0  0  0  0  0  0  0  0  0
  142.3630   76.1130  217.9270 C   0  0  0  0  0  0  0  0  0  0  0  0
  142.3690   75.1270  219.0800 C   0  0  1  0  0  0  0  0  0  0  0  0
  143.7330   74.9520  219.6660 C   0  0  0  0  0  0  0  0  0  0  0  0
  143.6760   74.4870  220.9940 O   0  0  0  0  0  0  0  0  0  0  0  0
  140.0950   71.3340  223.5670 C   0  0  0  0  0  0  0  0  0  0  0  0
  139.5720   70.0530  223.6780 C   0  0  0  0  0  0  0  0  0  0  0  0
  139.5300   69.3660  224.8500 C   0  0  0  0  0  0  0  0  0  0  0  0
  140.0250   69.9550  225.9920 C   0  0  0  0  0  0  0  0  0  0  0  0
  140.0100   69.3080  227.2090 C   0  0  0  0  0  0  0  0  0  0  0  0
  140.5080   69.9050  228.3450 C   0  0  0  0  0  0  0  0  0  0  0  0
  141.0360   71.1850  228.2700 C   0  0  0  0  0  0  0  0  0  0  0  0
  141.0490   71.8310  227.0380 C   0  0  0  0  0  0  0  0  0  0  0  0
  140.5550   71.2460  225.8930 C   0  0  0  0  0  0  0  0  0  0  0  0
  140.5720   71.8860  224.6970 N   0  0  0  0  0  0  0  0  0  0  0  0
  139.5840   73.9030  223.1790 H   0  0  0  0  0  0  0  0  0  0  0  0
  140.1075   73.5034  220.1806 H   0  0  0  0  0  0  0  0  0  0  0  0
  138.8285   74.5779  220.7841 H   0  0  0  0  0  0  0  0  0  0  0  0
  140.5268   77.5829  219.5438 H   0  0  0  0  0  0  0  0  0  0  0  0
  141.8301   77.8263  220.7000 H   0  0  0  0  0  0  0  0  0  0  0  0
  142.1937   78.2582  218.0290 H   0  0  0  0  0  0  0  0  0  0  0  0
  143.5198   77.6301  218.9835 H   0  0  0  0  0  0  0  0  0  0  0  0
  141.4241   76.0623  217.3562 H   0  0  0  0  0  0  0  0  0  0  0  0
  143.1469   75.9386  217.1752 H   0  0  0  0  0  0  0  0  0  0  0  0
  142.0275   74.1270  218.7746 H   0  0  0  0  0  0  0  0  0  0  0  0
  144.2912   74.2250  219.0578 H   0  0  0  0  0  0  0  0  0  0  0  0
  144.2325   75.9320  219.6681 H   0  0  0  0  0  0  0  0  0  0  0  0
  143.0380   74.9960  221.5390 H   0  0  0  0  0  0  0  0  0  0  0  0
  139.1723   69.5706  222.7738 H   0  0  0  0  0  0  0  0  0  0  0  0
  139.1057   68.3517  224.8858 H   0  0  0  0  0  0  0  0  0  0  0  0
  139.5911   68.2929  227.2738 H   0  0  0  0  0  0  0  0  0  0  0  0
  140.4872   69.3702  229.3060 H   0  0  0  0  0  0  0  0  0  0  0  0
  141.4367   71.6798  229.1670 H   0  0  0  0  0  0  0  0  0  0  0  0
  141.4690   72.8458  226.9760 H   0  0  0  0  0  0  0  0  0  0  0  0
  1  2  2  0
  2  3  1  0
  3  4  1  0
  4  5  1  0
  5  6  2  0
  5  7  1  0
  7  8  1  0
  8  9  1  0
  9 10  1  0
 10 11  1  0
 11 12  1  0
 12 13  1  0
  2 14  1  0
 14 15  2  0
 15 16  1  0
 16 17  2  0
 17 18  1  0
 18 19  2  0
 19 20  1  0
 20 21  2  0
 21 22  1  0
 22 23  2  0
 11  7  1  0
 23 14  1  0
 22 17  1  0
  3 24  1  0
  4 25  1  0
  4 26  1  0
  8 27  1  0
  8 28  1  0
  9 29  1  0
  9 30  1  0
 10 31  1  0
 10 32  1  0
 11 33  1  6
 12 34  1  0
 12 35  1  0
 13 36  1  0
 15 37  1  0
 16 38  1  0
 18 39  1  0
 19 40  1  0
 20 41  1  0
 21 42  1  0
M  END
>  <smiles>  (50) 
O=C(NCC(=O)N1CCC[C@H]1CO)c1ccc2ccccc2n1

>  <score_type>  (50) 
oracle

>  <origin>  (50) 
autodockgpu

>  <m_score__min__energy>  (50) 
-6.9299999999999997

>  <m_primary>  (50) 
energy

>  <rmsd>  (50) 
2.0635177132655618

>  <m_score__min__rmsd>  (50) 
2.0635177132655618

>  <meeko>  (50) 
{"free_energy": -6.62, "intermolecular_energy": -8.41, "internal_energy": -2.03, "cluster_size": 35, "cluster_id": 1, "rank_in_cluster": 5}

>  <energy>  (50) 
-5.82

>  <cluster_rmsd>  (50) 
1.35

>  <cluster>  (50) 
4

$$$$
