
     RDKit          3D

 61 64  0  0  0  0  0  0  0  0999 V2000
  142.9710   81.7010  217.5830 C   0  0  0  0  0  0  0  0  0  0  0  0
  142.7770   80.2820  218.1700 C   0  0  0  0  0  0  0  0  0  0  0  0
  141.6170   80.2470  219.0500 C   0  0  0  0  0  0  0  0  0  0  0  0
  140.7150   81.1400  218.8430 O   0  0  0  0  0  0  0  0  0  0  0  0
  141.3420   79.3560  220.1080 N   0  0  0  0  0  0  0  0  0  0  0  0
  141.6690   79.8840  221.4260 C   0  0  0  0  0  0  0  0  0  0  0  0
  141.5630   81.2680  221.5130 C   0  0  0  0  0  0  0  0  0  0  0  0
  141.8630   81.8410  222.7520 C   0  0  0  0  0  0  0  0  0  0  0  0
  142.2420   81.0630  223.8240 C   0  0  0  0  0  0  0  0  0  0  0  0
  142.3350   79.6720  223.6850 C   0  0  0  0  0  0  0  0  0  0  0  0
  142.0410   79.0800  222.4580 C   0  0  0  0  0  0  0  0  0  0  0  0
  140.7930   78.0560  220.0650 C   0  0  0  0  0  0  0  0  0  0  0  0
  139.9350   77.7190  218.8810 C   0  0  0  0  0  0  0  0  0  0  0  0
  138.9870   76.6050  219.3730 C   0  0  0  0  0  0  0  0  0  0  0  0
  139.7510   75.7710  220.2600 N   0  0  0  0  0  0  0  0  0  0  0  0
  139.2440   75.0430  221.3530 C   0  0  0  0  0  0  0  0  0  0  0  0
  140.0880   74.3710  222.0540 O   0  0  0  0  0  0  0  0  0  0  0  0
  137.8540   74.9520  221.7980 C   0  0  1  0  0  0  0  0  0  0  0  0
  137.5140   73.7000  222.4120 N   0  0  0  0  0  0  0  0  0  0  0  0
  137.4900   76.0420  222.7920 C   0  0  0  0  0  0  0  0  0  0  0  0
  136.1870   76.7120  222.5070 C   0  0  0  0  0  0  0  0  0  0  0  0
  136.5700   78.0690  222.0360 C   0  0  0  0  0  0  0  0  0  0  0  0
  135.8530   79.1180  221.4570 C   0  0  0  0  0  0  0  0  0  0  0  0
  136.4520   80.3080  221.1000 C   0  0  0  0  0  0  0  0  0  0  0  0
  137.8190   80.5000  221.3110 C   0  0  0  0  0  0  0  0  0  0  0  0
  138.5410   79.4750  221.8820 C   0  0  0  0  0  0  0  0  0  0  0  0
  137.9180   78.2830  222.2350 C   0  0  0  0  0  0  0  0  0  0  0  0
  138.5520   77.0880  222.8570 C   0  0  0  0  0  0  0  0  0  0  0  0
  141.1840   75.6540  219.9800 C   0  0  0  0  0  0  0  0  0  0  0  0
  141.9010   77.0050  220.0650 C   0  0  0  0  0  0  0  0  0  0  0  0
  143.0702   82.4268  218.4036 H   0  0  0  0  0  0  0  0  0  0  0  0
  143.8802   81.7206  216.9641 H   0  0  0  0  0  0  0  0  0  0  0  0
  142.1004   81.9640  216.9641 H   0  0  0  0  0  0  0  0  0  0  0  0
  142.6285   79.5673  217.3471 H   0  0  0  0  0  0  0  0  0  0  0  0
  143.6716   80.0123  218.7505 H   0  0  0  0  0  0  0  0  0  0  0  0
  141.2587   81.8801  220.6512 H   0  0  0  0  0  0  0  0  0  0  0  0
  141.7953   82.9322  222.8733 H   0  0  0  0  0  0  0  0  0  0  0  0
  142.4720   81.5348  224.7907 H   0  0  0  0  0  0  0  0  0  0  0  0
  142.6386   79.0502  224.5401 H   0  0  0  0  0  0  0  0  0  0  0  0
  142.1081   77.9898  222.3275 H   0  0  0  0  0  0  0  0  0  0  0  0
  140.1531   78.0466  220.9597 H   0  0  0  0  0  0  0  0  0  0  0  0
  139.3605   78.5996  218.5577 H   0  0  0  0  0  0  0  0  0  0  0  0
  140.5346   77.3970  218.0168 H   0  0  0  0  0  0  0  0  0  0  0  0
  138.1324   77.0442  219.9085 H   0  0  0  0  0  0  0  0  0  0  0  0
  138.5901   76.0230  218.5282 H   0  0  0  0  0  0  0  0  0  0  0  0
  137.2844   75.0634  220.8636 H   0  0  0  0  0  0  0  0  0  0  0  0
  136.9220   73.7920  223.2640 H   0  0  0  0  0  0  0  0  0  0  0  0
  138.3570   73.1510  222.6760 H   0  0  0  0  0  0  0  0  0  0  0  0
  137.3957   75.5215  223.7565 H   0  0  0  0  0  0  0  0  0  0  0  0
  135.6323   76.1703  221.7267 H   0  0  0  0  0  0  0  0  0  0  0  0
  135.5273   76.7420  223.3868 H   0  0  0  0  0  0  0  0  0  0  0  0
  134.7748   78.9911  221.2797 H   0  0  0  0  0  0  0  0  0  0  0  0
  135.8501   81.1096  220.6470 H   0  0  0  0  0  0  0  0  0  0  0  0
  138.3065   81.4448  221.0287 H   0  0  0  0  0  0  0  0  0  0  0  0
  139.6192   79.6006  222.0601 H   0  0  0  0  0  0  0  0  0  0  0  0
  139.4419   76.7776  222.2898 H   0  0  0  0  0  0  0  0  0  0  0  0
  138.8974   77.2779  223.8840 H   0  0  0  0  0  0  0  0  0  0  0  0
  141.6334   74.9674  220.7125 H   0  0  0  0  0  0  0  0  0  0  0  0
  141.2983   75.2743  218.9539 H   0  0  0  0  0  0  0  0  0  0  0  0
  142.4916   77.0691  220.9908 H   0  0  0  0  0  0  0  0  0  0  0  0
  142.6001   77.1492  219.2281 H   0  0  0  0  0  0  0  0  0  0  0  0
  1  2  1  0
  2  3  1  0
  3  4  2  0
  3  5  1  0
  5  6  1  0
  6  7  2  0
  7  8  1  0
  8  9  2  0
  9 10  1  0
 10 11  2  0
  5 12  1  0
 12 13  1  0
 13 14  1  0
 14 15  1  0
 15 16  1  0
 16 17  2  0
 16 18  1  0
 18 19  1  0
 18 20  1  0
 20 21  1  0
 21 22  1  0
 22 23  2  0
 23 24  1  0
 24 25  2  0
 25 26  1  0
 26 27  2  0
 27 28  1  0
 15 29  1  0
 29 30  1  0
 11  6  1  0
 30 12  1  0
 28 20  1  0
 27 22  1  0
  1 31  1  0
  1 32  1  0
  1 33  1  0
  2 34  1  0
  2 35  1  0
  7 36  1  0
  8 37  1  0
  9 38  1  0
 10 39  1  0
 11 40  1  0
 12 41  1  0
 13 42  1  0
 13 43  1  0
 14 44  1  0
 14 45  1  0
 18 46  1  6
 19 47  1  0
 19 48  1  0
 20 49  1  0
 21 50  1  0
 21 51  1  0
 23 52  1  0
 24 53  1  0
 25 54  1  0
 26 55  1  0
 28 56  1  0
 28 57  1  0
 29 58  1  0
 29 59  1  0
 30 60  1  0
 30 61  1  0
M  END
>  <smiles>  (1) 
CCC(=O)N(c1ccccc1)C1CCN(C(=O)[C@@H](N)C2Cc3ccccc3C2)CC1

>  <score_type>  (1) 
oracle

>  <origin>  (1) 
autodockgpu

>  <m_score__min__energy>  (1) 
-8.75

>  <m_primary>  (1) 
energy

>  <rmsd>  (1) 
4.571892724060097

>  <m_score__min__rmsd>  (1) 
4.571892724060097

>  <meeko>  (1) 
{"free_energy": -5.93, "intermolecular_energy": -8.02, "internal_energy": -3.64, "cluster_size": 10, "cluster_id": 11, "rank_in_cluster": 8}

>  <energy>  (1) 
-8.75

>  <cluster_rmsd>  (1) 
0.0

>  <cluster>  (1) 
1

$$$$

     RDKit          3D

 61 64  0  0  0  0  0  0  0  0999 V2000
  142.9600   81.8600  217.4590 C   0  0  0  0  0  0  0  0  0  0  0  0
  142.9300   80.4970  218.1900 C   0  0  0  0  0  0  0  0  0  0  0  0
  141.7510   80.3990  219.0410 C   0  0  0  0  0  0  0  0  0  0  0  0
  140.8080   81.2400  218.8080 O   0  0  0  0  0  0  0  0  0  0  0  0
  141.4990   79.4960  220.0950 N   0  0  0  0  0  0  0  0  0  0  0  0
  141.7970   80.0310  221.4160 C   0  0  0  0  0  0  0  0  0  0  0  0
  141.5280   81.3900  221.5410 C   0  0  0  0  0  0  0  0  0  0  0  0
  141.7920   81.9690  222.7850 C   0  0  0  0  0  0  0  0  0  0  0  0
  142.2920   81.2190  223.8270 C   0  0  0  0  0  0  0  0  0  0  0  0
  142.5470   79.8530  223.6520 C   0  0  0  0  0  0  0  0  0  0  0  0
  142.2910   79.2560  222.4190 C   0  0  0  0  0  0  0  0  0  0  0  0
  140.9950   78.1780  220.0430 C   0  0  0  0  0  0  0  0  0  0  0  0
  140.1760   77.8090  218.8410 C   0  0  0  0  0  0  0  0  0  0  0  0
  139.2560   76.6650  219.3160 C   0  0  0  0  0  0  0  0  0  0  0  0
  140.0270   75.8600  220.2230 N   0  0  0  0  0  0  0  0  0  0  0  0
  139.5180   75.1180  221.3070 C   0  0  0  0  0  0  0  0  0  0  0  0
  140.3690   74.4780  222.0290 O   0  0  0  0  0  0  0  0  0  0  0  0
  138.1230   74.9820  221.7200 C   0  0  1  0  0  0  0  0  0  0  0  0
  137.8120   73.7220  222.3330 N   0  0  0  0  0  0  0  0  0  0  0  0
  137.6980   76.0640  222.6980 C   0  0  0  0  0  0  0  0  0  0  0  0
  136.3770   76.6820  222.3830 C   0  0  0  0  0  0  0  0  0  0  0  0
  136.7180   78.0500  221.9100 C   0  0  0  0  0  0  0  0  0  0  0  0
  135.9740   79.0670  221.3100 C   0  0  0  0  0  0  0  0  0  0  0  0
  136.5360   80.2770  220.9550 C   0  0  0  0  0  0  0  0  0  0  0  0
  137.8900   80.5210  221.1920 C   0  0  0  0  0  0  0  0  0  0  0  0
  138.6380   79.5280  221.7860 C   0  0  0  0  0  0  0  0  0  0  0  0
  138.0530   78.3160  222.1340 C   0  0  0  0  0  0  0  0  0  0  0  0
  138.7190   77.1500  222.7770 C   0  0  0  0  0  0  0  0  0  0  0  0
  141.4680   75.7900  219.9770 C   0  0  0  0  0  0  0  0  0  0  0  0
  142.1370   77.1650  220.0740 C   0  0  0  0  0  0  0  0  0  0  0  0
  142.9779   82.6730  218.1997 H   0  0  0  0  0  0  0  0  0  0  0  0
  143.8597   81.9183  216.8287 H   0  0  0  0  0  0  0  0  0  0  0  0
  142.0638   81.9579  216.8287 H   0  0  0  0  0  0  0  0  0  0  0  0
  142.9071   79.6876  217.4455 H   0  0  0  0  0  0  0  0  0  0  0  0
  143.8293   80.4104  218.8175 H   0  0  0  0  0  0  0  0  0  0  0  0
  141.1276   81.9792  220.7028 H   0  0  0  0  0  0  0  0  0  0  0  0
  141.5974   83.0412  222.9349 H   0  0  0  0  0  0  0  0  0  0  0  0
  142.4914   81.6942  224.7988 H   0  0  0  0  0  0  0  0  0  0  0  0
  142.9473   79.2544  224.4835 H   0  0  0  0  0  0  0  0  0  0  0  0
  142.4836   78.1846  222.2607 H   0  0  0  0  0  0  0  0  0  0  0  0
  140.3343   78.1496  220.9220 H   0  0  0  0  0  0  0  0  0  0  0  0
  139.5793   78.6686  218.5018 H   0  0  0  0  0  0  0  0  0  0  0  0
  140.8053   77.5055  217.9914 H   0  0  0  0  0  0  0  0  0  0  0  0
  138.3751   77.0766  219.8304 H   0  0  0  0  0  0  0  0  0  0  0  0
  138.8987   76.0672  218.4646 H   0  0  0  0  0  0  0  0  0  0  0  0
  137.5719   75.0693  220.7720 H   0  0  0  0  0  0  0  0  0  0  0  0
  137.1030   73.7840  223.0950 H   0  0  0  0  0  0  0  0  0  0  0  0
  138.6550   73.2600  222.7290 H   0  0  0  0  0  0  0  0  0  0  0  0
  137.6035   75.5466  223.6641 H   0  0  0  0  0  0  0  0  0  0  0  0
  135.8587   76.1149  221.5958 H   0  0  0  0  0  0  0  0  0  0  0  0
  135.6993   76.6924  223.2494 H   0  0  0  0  0  0  0  0  0  0  0  0
  134.9048   78.8990  221.1135 H   0  0  0  0  0  0  0  0  0  0  0  0
  135.9142   81.0522  220.4834 H   0  0  0  0  0  0  0  0  0  0  0  0
  138.3478   81.4812  220.9118 H   0  0  0  0  0  0  0  0  0  0  0  0
  139.7065   79.6956  221.9864 H   0  0  0  0  0  0  0  0  0  0  0  0
  139.6313   76.8699  222.2300 H   0  0  0  0  0  0  0  0  0  0  0  0
  139.0364   77.3592  223.8092 H   0  0  0  0  0  0  0  0  0  0  0  0
  141.9229   75.1209  220.7222 H   0  0  0  0  0  0  0  0  0  0  0  0
  141.6191   75.4112  218.9554 H   0  0  0  0  0  0  0  0  0  0  0  0
  142.7024   77.2519  221.0136 H   0  0  0  0  0  0  0  0  0  0  0  0
  142.8509   77.3300  219.2536 H   0  0  0  0  0  0  0  0  0  0  0  0
  1  2  1  0
  2  3  1  0
  3  4  2  0
  3  5  1  0
  5  6  1  0
  6  7  2  0
  7  8  1  0
  8  9  2  0
  9 10  1  0
 10 11  2  0
  5 12  1  0
 12 13  1  0
 13 14  1  0
 14 15  1  0
 15 16  1  0
 16 17  2  0
 16 18  1  0
 18 19  1  0
 18 20  1  0
 20 21  1  0
 21 22  1  0
 22 23  2  0
 23 24  1  0
 24 25  2  0
 25 26  1  0
 26 27  2  0
 27 28  1  0
 15 29  1  0
 29 30  1  0
 11  6  1  0
 30 12  1  0
 28 20  1  0
 27 22  1  0
  1 31  1  0
  1 32  1  0
  1 33  1  0
  2 34  1  0
  2 35  1  0
  7 36  1  0
  8 37  1  0
  9 38  1  0
 10 39  1  0
 11 40  1  0
 12 41  1  0
 13 42  1  0
 13 43  1  0
 14 44  1  0
 14 45  1  0
 18 46  1  6
 19 47  1  0
 19 48  1  0
 20 49  1  0
 21 50  1  0
 21 51  1  0
 23 52  1  0
 24 53  1  0
 25 54  1  0
 26 55  1  0
 28 56  1  0
 28 57  1  0
 29 58  1  0
 29 59  1  0
 30 60  1  0
 30 61  1  0
M  END
>  <smiles>  (2) 
CCC(=O)N(c1ccccc1)C1CCN(C(=O)[C@@H](N)C2Cc3ccccc3C2)CC1

>  <score_type>  (2) 
oracle

>  <origin>  (2) 
autodockgpu

>  <m_score__min__energy>  (2) 
-8.75

>  <m_primary>  (2) 
energy

>  <rmsd>  (2) 
4.506954969466205

>  <m_score__min__rmsd>  (2) 
4.506954969466205

>  <meeko>  (2) 
{"free_energy": -6.23, "intermolecular_energy": -8.31, "internal_energy": -3.62, "cluster_size": 10, "cluster_id": 11, "rank_in_cluster": 4}

>  <energy>  (2) 
-8.75

>  <cluster_rmsd>  (2) 
0.48

>  <cluster>  (2) 
1

$$$$

     RDKit          3D

 61 64  0  0  0  0  0  0  0  0999 V2000
  140.2730   72.6380  222.1680 C   0  0  0  0  0  0  0  0  0  0  0  0
  140.5570   71.8770  223.4850 C   0  0  0  0  0  0  0  0  0  0  0  0
  139.7450   70.6700  223.5630 C   0  0  0  0  0  0  0  0  0  0  0  0
  139.8630   69.8380  222.5890 O   0  0  0  0  0  0  0  0  0  0  0  0
  138.8410   70.2810  224.5730 N   0  0  0  0  0  0  0  0  0  0  0  0
  139.4830   69.8150  225.7950 C   0  0  0  0  0  0  0  0  0  0  0  0
  140.0340   70.8380  226.5600 C   0  0  0  0  0  0  0  0  0  0  0  0
  140.6670   70.4600  227.7470 C   0  0  0  0  0  0  0  0  0  0  0  0
  140.7330   69.1380  228.1290 C   0  0  0  0  0  0  0  0  0  0  0  0
  140.1630   68.1440  227.3230 C   0  0  0  0  0  0  0  0  0  0  0  0
  139.5280   68.4990  226.1350 C   0  0  0  0  0  0  0  0  0  0  0  0
  137.4300   70.2940  224.5650 C   0  0  0  0  0  0  0  0  0  0  0  0
  136.7630   71.2120  223.5820 C   0  0  0  0  0  0  0  0  0  0  0  0
  135.3840   71.5280  224.1950 C   0  0  0  0  0  0  0  0  0  0  0  0
  134.9250   70.3240  224.8310 N   0  0  0  0  0  0  0  0  0  0  0  0
  134.0830   70.2520  225.9580 C   0  0  0  0  0  0  0  0  0  0  0  0
  133.8010   69.0800  226.4060 O   0  0  0  0  0  0  0  0  0  0  0  0
  133.4790   71.3610  226.6930 C   0  0  1  0  0  0  0  0  0  0  0  0
  134.3190   71.9170  227.7150 N   0  0  0  0  0  0  0  0  0  0  0  0
  133.0740   72.5090  225.7840 C   0  0  0  0  0  0  0  0  0  0  0  0
  134.0830   73.6050  225.7040 C   0  0  0  0  0  0  0  0  0  0  0  0
  133.4570   74.7320  226.4450 C   0  0  0  0  0  0  0  0  0  0  0  0
  133.9320   75.9700  226.8840 C   0  0  0  0  0  0  0  0  0  0  0  0
  133.1330   76.8620  227.5690 C   0  0  0  0  0  0  0  0  0  0  0  0
  131.8020   76.5460  227.8480 C   0  0  0  0  0  0  0  0  0  0  0  0
  131.3170   75.3290  227.4210 C   0  0  0  0  0  0  0  0  0  0  0  0
  132.1390   74.4430  226.7320 C   0  0  0  0  0  0  0  0  0  0  0  0
  131.7710   73.1000  226.2080 C   0  0  0  0  0  0  0  0  0  0  0  0
  135.3570   69.0590  224.2330 C   0  0  0  0  0  0  0  0  0  0  0  0
  136.8810   68.9050  224.2470 C   0  0  0  0  0  0  0  0  0  0  0  0
  139.8971   73.6453  222.4003 H   0  0  0  0  0  0  0  0  0  0  0  0
  141.2015   72.7189  221.5837 H   0  0  0  0  0  0  0  0  0  0  0  0
  139.5186   72.0908  221.5837 H   0  0  0  0  0  0  0  0  0  0  0  0
  141.6210   71.6002  223.5208 H   0  0  0  0  0  0  0  0  0  0  0  0
  140.3058   72.5298  224.3340 H   0  0  0  0  0  0  0  0  0  0  0  0
  139.9744   71.8907  226.2465 H   0  0  0  0  0  0  0  0  0  0  0  0
  141.1203   71.2311  228.3873 H   0  0  0  0  0  0  0  0  0  0  0  0
  141.2342   68.8624  229.0686 H   0  0  0  0  0  0  0  0  0  0  0  0
  140.2166   67.0881  227.6268 H   0  0  0  0  0  0  0  0  0  0  0  0
  139.0742   67.7339  225.4880 H   0  0  0  0  0  0  0  0  0  0  0  0
  137.1984   70.6569  225.5773 H   0  0  0  0  0  0  0  0  0  0  0  0
  137.3495   72.1340  223.4560 H   0  0  0  0  0  0  0  0  0  0  0  0
  136.6748   70.7535  222.5860 H   0  0  0  0  0  0  0  0  0  0  0  0
  135.4754   72.3361  224.9357 H   0  0  0  0  0  0  0  0  0  0  0  0
  134.6756   71.8598  223.4216 H   0  0  0  0  0  0  0  0  0  0  0  0
  132.5976   70.8987  227.1614 H   0  0  0  0  0  0  0  0  0  0  0  0
  134.7770   71.2050  228.3230 H   0  0  0  0  0  0  0  0  0  0  0  0
  133.8000   72.5700  228.3370 H   0  0  0  0  0  0  0  0  0  0  0  0
  132.9899   72.0568  224.7848 H   0  0  0  0  0  0  0  0  0  0  0  0
  135.0271   73.3016  226.1801 H   0  0  0  0  0  0  0  0  0  0  0  0
  134.3348   73.8710  224.6668 H   0  0  0  0  0  0  0  0  0  0  0  0
  134.9773   76.2427  226.6768 H   0  0  0  0  0  0  0  0  0  0  0  0
  133.5467   77.8270  227.8970 H   0  0  0  0  0  0  0  0  0  0  0  0
  131.1574   77.2502  228.3944 H   0  0  0  0  0  0  0  0  0  0  0  0
  130.2715   75.0558  227.6266 H   0  0  0  0  0  0  0  0  0  0  0  0
  131.3015   72.4891  226.9931 H   0  0  0  0  0  0  0  0  0  0  0  0
  131.0417   73.1513  225.3861 H   0  0  0  0  0  0  0  0  0  0  0  0
  134.9115   68.2283  224.8000 H   0  0  0  0  0  0  0  0  0  0  0  0
  135.0255   69.0498  223.1842 H   0  0  0  0  0  0  0  0  0  0  0  0
  137.1873   68.1846  225.0198 H   0  0  0  0  0  0  0  0  0  0  0  0
  137.2612   68.5266  223.2866 H   0  0  0  0  0  0  0  0  0  0  0  0
  1  2  1  0
  2  3  1  0
  3  4  2  0
  3  5  1  0
  5  6  1  0
  6  7  2  0
  7  8  1  0
  8  9  2  0
  9 10  1  0
 10 11  2  0
  5 12  1  0
 12 13  1  0
 13 14  1  0
 14 15  1  0
 15 16  1  0
 16 17  2  0
 16 18  1  0
 18 19  1  0
 18 20  1  0
 20 21  1  0
 21 22  1  0
 22 23  2  0
 23 24  1  0
 24 25  2  0
 25 26  1  0
 26 27  2  0
 27 28  1  0
 15 29  1  0
 29 30  1  0
 11  6  1  0
 30 12  1  0
 28 20  1  0
 27 22  1  0
  1 31  1  0
  1 32  1  0
  1 33  1  0
  2 34  1  0
  2 35  1  0
  7 36  1  0
  8 37  1  0
  9 38  1  0
 10 39  1  0
 11 40  1  0
 12 41  1  0
 13 42  1  0
 13 43  1  0
 14 44  1  0
 14 45  1  0
 18 46  1  1
 19 47  1  0
 19 48  1  0
 20 49  1  0
 21 50  1  0
 21 51  1  0
 23 52  1  0
 24 53  1  0
 25 54  1  0
 26 55  1  0
 28 56  1  0
 28 57  1  0
 29 58  1  0
 29 59  1  0
 30 60  1  0
 30 61  1  0
M  END
>  <smiles>  (3) 
CCC(=O)N(c1ccccc1)C1CCN(C(=O)[C@@H](N)C2Cc3ccccc3C2)CC1

>  <score_type>  (3) 
oracle

>  <origin>  (3) 
autodockgpu

>  <m_score__min__energy>  (3) 
-8.75

>  <m_primary>  (3) 
energy

>  <rmsd>  (3) 
10.41292582819138

>  <m_score__min__rmsd>  (3) 
10.41292582819138

>  <meeko>  (3) 
{"free_energy": -7.83, "intermolecular_energy": -9.92, "internal_energy": -1.37, "cluster_size": 2, "cluster_id": 4, "rank_in_cluster": 1}

>  <energy>  (3) 
-8.74

>  <cluster_rmsd>  (3) 
0.41

>  <cluster>  (3) 
1

$$$$

     RDKit          3D

 61 64  0  0  0  0  0  0  0  0999 V2000
  142.8680   81.4780  217.5300 C   0  0  0  0  0  0  0  0  0  0  0  0
  142.7060   80.0910  218.1960 C   0  0  0  0  0  0  0  0  0  0  0  0
  141.7010   80.1440  219.2500 C   0  0  0  0  0  0  0  0  0  0  0  0
  140.9450   81.1840  219.2650 O   0  0  0  0  0  0  0  0  0  0  0  0
  141.4380   79.2000  220.2640 N   0  0  0  0  0  0  0  0  0  0  0  0
  141.7750   79.6620  221.6040 C   0  0  0  0  0  0  0  0  0  0  0  0
  141.5930   78.6960  222.5890 C   0  0  0  0  0  0  0  0  0  0  0  0
  141.8980   79.0740  223.8990 C   0  0  0  0  0  0  0  0  0  0  0  0
  142.3560   80.3410  224.1870 C   0  0  0  0  0  0  0  0  0  0  0  0
  142.5220   81.2790  223.1590 C   0  0  0  0  0  0  0  0  0  0  0  0
  142.2230   80.9230  221.8450 C   0  0  0  0  0  0  0  0  0  0  0  0
  140.8930   77.9020  220.1600 C   0  0  0  0  0  0  0  0  0  0  0  0
  140.0470   77.6140  218.9540 C   0  0  0  0  0  0  0  0  0  0  0  0
  139.0970   76.4790  219.3890 C   0  0  0  0  0  0  0  0  0  0  0  0
  139.8540   75.6090  220.2480 N   0  0  0  0  0  0  0  0  0  0  0  0
  139.3370   74.8340  221.3040 C   0  0  0  0  0  0  0  0  0  0  0  0
  140.1760   74.1350  221.9840 O   0  0  0  0  0  0  0  0  0  0  0  0
  137.9440   74.7210  221.7310 C   0  0  1  0  0  0  0  0  0  0  0  0
  137.6200   73.4730  222.3610 N   0  0  0  0  0  0  0  0  0  0  0  0
  137.5430   75.8200  222.7000 C   0  0  0  0  0  0  0  0  0  0  0  0
  136.2180   76.4390  222.4020 C   0  0  0  0  0  0  0  0  0  0  0  0
  136.5550   77.7990  221.9010 C   0  0  0  0  0  0  0  0  0  0  0  0
  135.8040   78.8100  221.3000 C   0  0  0  0  0  0  0  0  0  0  0  0
  136.3630   80.0110  220.9160 C   0  0  0  0  0  0  0  0  0  0  0  0
  137.7230   80.2530  221.1230 C   0  0  0  0  0  0  0  0  0  0  0  0
  138.4790   79.2660  221.7160 C   0  0  0  0  0  0  0  0  0  0  0  0
  137.8950   78.0620  222.0950 C   0  0  0  0  0  0  0  0  0  0  0  0
  138.5690   76.9030  222.7430 C   0  0  0  0  0  0  0  0  0  0  0  0
  141.2900   75.5060  219.9780 C   0  0  0  0  0  0  0  0  0  0  0  0
  142.0030   76.8540  220.1270 C   0  0  0  0  0  0  0  0  0  0  0  0
  142.9582   82.2501  218.3082 H   0  0  0  0  0  0  0  0  0  0  0  0
  143.7726   81.4808  216.9041 H   0  0  0  0  0  0  0  0  0  0  0  0
  141.9884   81.6892  216.9041 H   0  0  0  0  0  0  0  0  0  0  0  0
  142.3951   79.3589  217.4361 H   0  0  0  0  0  0  0  0  0  0  0  0
  143.6688   79.7943  218.6377 H   0  0  0  0  0  0  0  0  0  0  0  0
  141.2278   77.6866  222.3486 H   0  0  0  0  0  0  0  0  0  0  0  0
  141.7702   78.3472  224.7148 H   0  0  0  0  0  0  0  0  0  0  0  0
  142.5918   80.6169  225.2254 H   0  0  0  0  0  0  0  0  0  0  0  0
  142.8865   82.2913  223.3880 H   0  0  0  0  0  0  0  0  0  0  0  0
  142.3464   81.6441  221.0235 H   0  0  0  0  0  0  0  0  0  0  0  0
  140.2444   77.8532  221.0471 H   0  0  0  0  0  0  0  0  0  0  0  0
  139.4739   78.5065  218.6626 H   0  0  0  0  0  0  0  0  0  0  0  0
  140.6556   77.3300  218.0828 H   0  0  0  0  0  0  0  0  0  0  0  0
  138.2362   76.8938  219.9340 H   0  0  0  0  0  0  0  0  0  0  0  0
  138.7099   75.9325  218.5164 H   0  0  0  0  0  0  0  0  0  0  0  0
  137.3862   74.8039  220.7866 H   0  0  0  0  0  0  0  0  0  0  0  0
  136.9430   73.5580  223.1480 H   0  0  0  0  0  0  0  0  0  0  0  0
  138.4650   72.9890  222.7270 H   0  0  0  0  0  0  0  0  0  0  0  0
  137.4662   75.3172  223.6753 H   0  0  0  0  0  0  0  0  0  0  0  0
  135.6817   75.8621  221.6341 H   0  0  0  0  0  0  0  0  0  0  0  0
  135.5579   76.4655  223.2815 H   0  0  0  0  0  0  0  0  0  0  0  0
  134.7306   78.6436  221.1268 H   0  0  0  0  0  0  0  0  0  0  0  0
  135.7351   80.7815  220.4447 H   0  0  0  0  0  0  0  0  0  0  0  0
  138.1786   81.2073  220.8202 H   0  0  0  0  0  0  0  0  0  0  0  0
  139.5523   79.4312  221.8911 H   0  0  0  0  0  0  0  0  0  0  0  0
  139.4697   76.6111  222.1830 H   0  0  0  0  0  0  0  0  0  0  0  0
  138.9067   77.1266  223.7657 H   0  0  0  0  0  0  0  0  0  0  0  0
  141.7334   74.7901  220.6857 H   0  0  0  0  0  0  0  0  0  0  0  0
  141.4157   75.1696  218.9383 H   0  0  0  0  0  0  0  0  0  0  0  0
  142.5842   76.8802  221.0606 H   0  0  0  0  0  0  0  0  0  0  0  0
  142.7100   77.0346  219.3038 H   0  0  0  0  0  0  0  0  0  0  0  0
  1  2  1  0
  2  3  1  0
  3  4  2  0
  3  5  1  0
  5  6  1  0
  6  7  2  0
  7  8  1  0
  8  9  2  0
  9 10  1  0
 10 11  2  0
  5 12  1  0
 12 13  1  0
 13 14  1  0
 14 15  1  0
 15 16  1  0
 16 17  2  0
 16 18  1  0
 18 19  1  0
 18 20  1  0
 20 21  1  0
 21 22  1  0
 22 23  2  0
 23 24  1  0
 24 25  2  0
 25 26  1  0
 26 27  2  0
 27 28  1  0
 15 29  1  0
 29 30  1  0
 11  6  1  0
 30 12  1  0
 28 20  1  0
 27 22  1  0
  1 31  1  0
  1 32  1  0
  1 33  1  0
  2 34  1  0
  2 35  1  0
  7 36  1  0
  8 37  1  0
  9 38  1  0
 10 39  1  0
 11 40  1  0
 12 41  1  0
 13 42  1  0
 13 43  1  0
 14 44  1  0
 14 45  1  0
 18 46  1  6
 19 47  1  0
 19 48  1  0
 20 49  1  0
 21 50  1  0
 21 51  1  0
 23 52  1  0
 24 53  1  0
 25 54  1  0
 26 55  1  0
 28 56  1  0
 28 57  1  0
 29 58  1  0
 29 59  1  0
 30 60  1  0
 30 61  1  0
M  END
>  <smiles>  (4) 
CCC(=O)N(c1ccccc1)C1CCN(C(=O)[C@@H](N)C2Cc3ccccc3C2)CC1

>  <score_type>  (4) 
oracle

>  <origin>  (4) 
autodockgpu

>  <m_score__min__energy>  (4) 
-8.75

>  <m_primary>  (4) 
energy

>  <rmsd>  (4) 
4.682106802210954

>  <m_score__min__rmsd>  (4) 
4.682106802210954

>  <meeko>  (4) 
{"free_energy": -6.05, "intermolecular_energy": -8.13, "internal_energy": -3.62, "cluster_size": 10, "cluster_id": 11, "rank_in_cluster": 6}

>  <energy>  (4) 
-8.73

>  <cluster_rmsd>  (4) 
0.45

>  <cluster>  (4) 
1

$$$$

     RDKit          3D

 61 64  0  0  0  0  0  0  0  0999 V2000
  135.8840   69.7090  224.9890 C   0  0  0  0  0  0  0  0  0  0  0  0
  136.7520   68.9170  223.9830 C   0  0  0  0  0  0  0  0  0  0  0  0
  138.1680   69.1350  224.2470 C   0  0  0  0  0  0  0  0  0  0  0  0
  138.8790   68.0820  224.4490 O   0  0  0  0  0  0  0  0  0  0  0  0
  138.8750   70.3540  224.3100 N   0  0  0  0  0  0  0  0  0  0  0  0
  139.6030   70.5510  225.5550 C   0  0  0  0  0  0  0  0  0  0  0  0
  140.5440   71.5750  225.4950 C   0  0  0  0  0  0  0  0  0  0  0  0
  141.2790   71.8180  226.6580 C   0  0  0  0  0  0  0  0  0  0  0  0
  141.0740   71.0750  227.7990 C   0  0  0  0  0  0  0  0  0  0  0  0
  140.1150   70.0530  227.8100 C   0  0  0  0  0  0  0  0  0  0  0  0
  139.3710   69.7940  226.6610 C   0  0  0  0  0  0  0  0  0  0  0  0
  138.9790   71.3780  223.3450 C   0  0  0  0  0  0  0  0  0  0  0  0
  140.0180   71.2040  222.2770 C   0  0  0  0  0  0  0  0  0  0  0  0
  140.3690   72.6350  221.8170 C   0  0  0  0  0  0  0  0  0  0  0  0
  139.1460   73.3900  221.8380 N   0  0  0  0  0  0  0  0  0  0  0  0
  139.0320   74.7730  222.0750 C   0  0  0  0  0  0  0  0  0  0  0  0
  137.8460   75.2710  222.0830 O   0  0  0  0  0  0  0  0  0  0  0  0
  140.1100   75.7300  222.3160 C   0  0  1  0  0  0  0  0  0  0  0  0
  141.4050   75.2760  221.8960 N   0  0  0  0  0  0  0  0  0  0  0  0
  139.8670   77.0630  221.6270 C   0  0  0  0  0  0  0  0  0  0  0  0
  141.0980   77.6840  221.0550 C   0  0  0  0  0  0  0  0  0  0  0  0
  141.3660   78.8470  221.9430 C   0  0  0  0  0  0  0  0  0  0  0  0
  142.4410   79.7280  222.0650 C   0  0  0  0  0  0  0  0  0  0  0  0
  142.4500   80.7520  222.9910 C   0  0  0  0  0  0  0  0  0  0  0  0
  141.3630   80.9370  223.8470 C   0  0  0  0  0  0  0  0  0  0  0  0
  140.2930   80.0760  223.7380 C   0  0  0  0  0  0  0  0  0  0  0  0
  140.3040   79.0500  222.7990 C   0  0  0  0  0  0  0  0  0  0  0  0
  139.2340   78.0430  222.5570 C   0  0  0  0  0  0  0  0  0  0  0  0
  137.9120   72.6510  221.5630 C   0  0  0  0  0  0  0  0  0  0  0  0
  137.6600   71.5450  222.5940 C   0  0  0  0  0  0  0  0  0  0  0  0
  136.1765   69.4421  226.0153 H   0  0  0  0  0  0  0  0  0  0  0  0
  136.0345   70.7875  224.8336 H   0  0  0  0  0  0  0  0  0  0  0  0
  134.8238   69.4606  224.8336 H   0  0  0  0  0  0  0  0  0  0  0  0
  136.5273   67.8443  224.0774 H   0  0  0  0  0  0  0  0  0  0  0  0
  136.5227   69.2649  222.9650 H   0  0  0  0  0  0  0  0  0  0  0  0
  140.7009   72.1629  224.5786 H   0  0  0  0  0  0  0  0  0  0  0  0
  142.0349   72.6171  226.6623 H   0  0  0  0  0  0  0  0  0  0  0  0
  141.6640   71.2839  228.7036 H   0  0  0  0  0  0  0  0  0  0  0  0
  139.9507   69.4586  228.7209 H   0  0  0  0  0  0  0  0  0  0  0  0
  138.6138   68.9962  226.6485 H   0  0  0  0  0  0  0  0  0  0  0  0
  139.2684   72.2434  223.9592 H   0  0  0  0  0  0  0  0  0  0  0  0
  140.9077   70.7001  222.6827 H   0  0  0  0  0  0  0  0  0  0  0  0
  139.6532   70.5828  221.4457 H   0  0  0  0  0  0  0  0  0  0  0  0
  141.1028   73.0838  222.5026 H   0  0  0  0  0  0  0  0  0  0  0  0
  140.8114   72.6284  220.8099 H   0  0  0  0  0  0  0  0  0  0  0  0
  140.1041   75.8432  223.4101 H   0  0  0  0  0  0  0  0  0  0  0  0
  142.1950   75.8500  222.2590 H   0  0  0  0  0  0  0  0  0  0  0  0
  141.4930   75.2450  220.8610 H   0  0  0  0  0  0  0  0  0  0  0  0
  139.1918   76.8269  220.7913 H   0  0  0  0  0  0  0  0  0  0  0  0
  141.9387   76.9749  221.0763 H   0  0  0  0  0  0  0  0  0  0  0  0
  140.9719   77.9776  220.0024 H   0  0  0  0  0  0  0  0  0  0  0  0
  143.3096   79.6026  221.4018 H   0  0  0  0  0  0  0  0  0  0  0  0
  143.3177   81.4251  223.0545 H   0  0  0  0  0  0  0  0  0  0  0  0
  141.3608   81.7489  224.5891 H   0  0  0  0  0  0  0  0  0  0  0  0
  139.4228   80.2010  224.3991 H   0  0  0  0  0  0  0  0  0  0  0  0
  138.9363   77.5548  223.4967 H   0  0  0  0  0  0  0  0  0  0  0  0
  138.3174   78.4890  222.1436 H   0  0  0  0  0  0  0  0  0  0  0  0
  137.0659   73.3537  221.5827 H   0  0  0  0  0  0  0  0  0  0  0  0
  138.0142   72.1768  220.5758 H   0  0  0  0  0  0  0  0  0  0  0  0
  136.8582   71.8407  223.2866 H   0  0  0  0  0  0  0  0  0  0  0  0
  137.3413   70.6069  222.1160 H   0  0  0  0  0  0  0  0  0  0  0  0
  1  2  1  0
  2  3  1  0
  3  4  2  0
  3  5  1  0
  5  6  1  0
  6  7  2  0
  7  8  1  0
  8  9  2  0
  9 10  1  0
 10 11  2  0
  5 12  1  0
 12 13  1  0
 13 14  1  0
 14 15  1  0
 15 16  1  0
 16 17  2  0
 16 18  1  0
 18 19  1  0
 18 20  1  0
 20 21  1  0
 21 22  1  0
 22 23  2  0
 23 24  1  0
 24 25  2  0
 25 26  1  0
 26 27  2  0
 27 28  1  0
 15 29  1  0
 29 30  1  0
 11  6  1  0
 30 12  1  0
 28 20  1  0
 27 22  1  0
  1 31  1  0
  1 32  1  0
  1 33  1  0
  2 34  1  0
  2 35  1  0
  7 36  1  0
  8 37  1  0
  9 38  1  0
 10 39  1  0
 11 40  1  0
 12 41  1  0
 13 42  1  0
 13 43  1  0
 14 44  1  0
 14 45  1  0
 18 46  1  1
 19 47  1  0
 19 48  1  0
 20 49  1  0
 21 50  1  0
 21 51  1  0
 23 52  1  0
 24 53  1  0
 25 54  1  0
 26 55  1  0
 28 56  1  0
 28 57  1  0
 29 58  1  0
 29 59  1  0
 30 60  1  0
 30 61  1  0
M  END
>  <smiles>  (5) 
CCC(=O)N(c1ccccc1)C1CCN(C(=O)[C@@H](N)C2Cc3ccccc3C2)CC1

>  <score_type>  (5) 
oracle

>  <origin>  (5) 
autodockgpu

>  <m_score__min__energy>  (5) 
-8.75

>  <m_primary>  (5) 
energy

>  <rmsd>  (5) 
5.7736084763670075

>  <m_score__min__rmsd>  (5) 
5.7736084763670075

>  <meeko>  (5) 
{"free_energy": -8.75, "intermolecular_energy": -10.84, "internal_energy": -1.4, "cluster_size": 13, "cluster_id": 1, "rank_in_cluster": 1}

>  <energy>  (5) 
-8.66

>  <cluster_rmsd>  (5) 
0.74

>  <cluster>  (5) 
1

$$$$

     RDKit          3D

 61 64  0  0  0  0  0  0  0  0999 V2000
  143.0640   71.7720  220.7380 C   0  0  0  0  0  0  0  0  0  0  0  0
  141.5200   71.6910  220.7950 C   0  0  0  0  0  0  0  0  0  0  0  0
  140.9730   72.8420  221.5020 C   0  0  0  0  0  0  0  0  0  0  0  0
  140.6930   72.6690  222.7450 O   0  0  0  0  0  0  0  0  0  0  0  0
  140.7090   74.1360  221.0060 N   0  0  0  0  0  0  0  0  0  0  0  0
  139.4850   74.7300  221.5250 C   0  0  0  0  0  0  0  0  0  0  0  0
  139.6740   75.9820  222.1010 C   0  0  0  0  0  0  0  0  0  0  0  0
  138.5380   76.6090  222.6200 C   0  0  0  0  0  0  0  0  0  0  0  0
  137.3000   76.0070  222.5570 C   0  0  0  0  0  0  0  0  0  0  0  0
  137.1620   74.7440  221.9670 C   0  0  0  0  0  0  0  0  0  0  0  0
  138.2810   74.1010  221.4440 C   0  0  0  0  0  0  0  0  0  0  0  0
  141.4610   74.9200  220.1050 C   0  0  0  0  0  0  0  0  0  0  0  0
  142.9360   75.0240  220.3600 C   0  0  0  0  0  0  0  0  0  0  0  0
  143.3630   76.3620  219.7210 C   0  0  0  0  0  0  0  0  0  0  0  0
  142.5960   76.5100  218.5140 N   0  0  0  0  0  0  0  0  0  0  0  0
  142.1950   77.7280  217.9340 C   0  0  0  0  0  0  0  0  0  0  0  0
  141.4850   77.6620  216.8630 O   0  0  0  0  0  0  0  0  0  0  0  0
  142.4910   79.0810  218.4010 C   0  0  1  0  0  0  0  0  0  0  0  0
  142.6790   80.0390  217.3490 N   0  0  0  0  0  0  0  0  0  0  0  0
  141.4040   79.6320  219.3090 C   0  0  0  0  0  0  0  0  0  0  0  0
  141.8110   80.8480  220.0730 C   0  0  0  0  0  0  0  0  0  0  0  0
  141.9380   80.3710  221.4760 C   0  0  0  0  0  0  0  0  0  0  0  0
  142.4430   80.9510  222.6410 C   0  0  0  0  0  0  0  0  0  0  0  0
  142.4490   80.2860  223.8500 C   0  0  0  0  0  0  0  0  0  0  0  0
  141.9420   78.9890  223.9430 C   0  0  0  0  0  0  0  0  0  0  0  0
  141.4390   78.4020  222.8020 C   0  0  0  0  0  0  0  0  0  0  0  0
  141.4420   79.0890  221.5940 C   0  0  0  0  0  0  0  0  0  0  0  0
  140.9390   78.5990  220.2810 C   0  0  0  0  0  0  0  0  0  0  0  0
  142.2210   75.2770  217.8190 C   0  0  0  0  0  0  0  0  0  0  0  0
  141.3410   74.3700  218.6850 C   0  0  0  0  0  0  0  0  0  0  0  0
  143.4681   71.7932  221.7609 H   0  0  0  0  0  0  0  0  0  0  0  0
  143.4579   70.8933  220.2063 H   0  0  0  0  0  0  0  0  0  0  0  0
  143.3638   72.6871  220.2063 H   0  0  0  0  0  0  0  0  0  0  0  0
  141.1206   71.6726  219.7702 H   0  0  0  0  0  0  0  0  0  0  0  0
  141.2319   70.7749  221.3314 H   0  0  0  0  0  0  0  0  0  0  0  0
  140.6665   76.4542  222.1457 H   0  0  0  0  0  0  0  0  0  0  0  0
  138.6337   77.6004  223.0869 H   0  0  0  0  0  0  0  0  0  0  0  0
  136.4187   76.5191  222.9707 H   0  0  0  0  0  0  0  0  0  0  0  0
  136.1743   74.2624  221.9170 H   0  0  0  0  0  0  0  0  0  0  0  0
  138.1938   73.1089  220.9769 H   0  0  0  0  0  0  0  0  0  0  0  0
  141.0224   75.9186  220.2481 H   0  0  0  0  0  0  0  0  0  0  0  0
  143.1413   75.0296  221.4407 H   0  0  0  0  0  0  0  0  0  0  0  0
  143.4877   74.1715  219.9371 H   0  0  0  0  0  0  0  0  0  0  0  0
  143.1516   77.1943  220.4084 H   0  0  0  0  0  0  0  0  0  0  0  0
  144.4418   76.3701  219.5063 H   0  0  0  0  0  0  0  0  0  0  0  0
  143.4370   78.9555  218.9481 H   0  0  0  0  0  0  0  0  0  0  0  0
  142.5570   79.6480  216.3910 H   0  0  0  0  0  0  0  0  0  0  0  0
  143.6180   80.4840  217.3870 H   0  0  0  0  0  0  0  0  0  0  0  0
  140.5897   79.9209  218.6282 H   0  0  0  0  0  0  0  0  0  0  0  0
  142.7717   81.2369  219.7046 H   0  0  0  0  0  0  0  0  0  0  0  0
  141.0885   81.6712  219.9713 H   0  0  0  0  0  0  0  0  0  0  0  0
  142.8496   81.9720  222.5936 H   0  0  0  0  0  0  0  0  0  0  0  0
  142.8553   80.7804  224.7447 H   0  0  0  0  0  0  0  0  0  0  0  0
  141.9438   78.4495  224.9016 H   0  0  0  0  0  0  0  0  0  0  0  0
  141.0317   77.3812  222.8479 H   0  0  0  0  0  0  0  0  0  0  0  0
  141.3673   77.6147  220.0406 H   0  0  0  0  0  0  0  0  0  0  0  0
  139.8471   78.4662  220.2683 H   0  0  0  0  0  0  0  0  0  0  0  0
  141.6679   75.5395  216.9051 H   0  0  0  0  0  0  0  0  0  0  0  0
  143.1444   74.7274  217.5838 H   0  0  0  0  0  0  0  0  0  0  0  0
  140.2958   74.4096  218.3444 H   0  0  0  0  0  0  0  0  0  0  0  0
  141.6574   73.3181  218.6267 H   0  0  0  0  0  0  0  0  0  0  0  0
  1  2  1  0
  2  3  1  0
  3  4  2  0
  3  5  1  0
  5  6  1  0
  6  7  2  0
  7  8  1  0
  8  9  2  0
  9 10  1  0
 10 11  2  0
  5 12  1  0
 12 13  1  0
 13 14  1  0
 14 15  1  0
 15 16  1  0
 16 17  2  0
 16 18  1  0
 18 19  1  0
 18 20  1  0
 20 21  1  0
 21 22  1  0
 22 23  2  0
 23 24  1  0
 24 25  2  0
 25 26  1  0
 26 27  2  0
 27 28  1  0
 15 29  1  0
 29 30  1  0
 11  6  1  0
 30 12  1  0
 28 20  1  0
 27 22  1  0
  1 31  1  0
  1 32  1  0
  1 33  1  0
  2 34  1  0
  2 35  1  0
  7 36  1  0
  8 37  1  0
  9 38  1  0
 10 39  1  0
 11 40  1  0
 12 41  1  0
 13 42  1  0
 13 43  1  0
 14 44  1  0
 14 45  1  0
 18 46  1  1
 19 47  1  0
 19 48  1  0
 20 49  1  0
 21 50  1  0
 21 51  1  0
 23 52  1  0
 24 53  1  0
 25 54  1  0
 26 55  1  0
 28 56  1  0
 28 57  1  0
 29 58  1  0
 29 59  1  0
 30 60  1  0
 30 61  1  0
M  END
>  <smiles>  (6) 
CCC(=O)N(c1ccccc1)C1CCN(C(=O)[C@@H](N)C2Cc3ccccc3C2)CC1

>  <score_type>  (6) 
oracle

>  <origin>  (6) 
autodockgpu

>  <m_score__min__energy>  (6) 
-8.75

>  <m_primary>  (6) 
energy

>  <rmsd>  (6) 
3.9973321362361016

>  <m_score__min__rmsd>  (6) 
3.9973321362361016

>  <meeko>  (6) 
{"free_energy": -7.08, "intermolecular_energy": -9.17, "internal_energy": -3.05, "cluster_size": 10, "cluster_id": 7, "rank_in_cluster": 2}

>  <energy>  (6) 
-8.64

>  <cluster_rmsd>  (6) 
0.72

>  <cluster>  (6) 
1

$$$$

     RDKit          3D

 61 64  0  0  0  0  0  0  0  0999 V2000
  146.3570   73.2730  221.6870 C   0  0  0  0  0  0  0  0  0  0  0  0
  145.4900   73.8880  220.5630 C   0  0  0  0  0  0  0  0  0  0  0  0
  145.0100   72.8490  219.6620 C   0  0  0  0  0  0  0  0  0  0  0  0
  145.6420   72.7210  218.5500 O   0  0  0  0  0  0  0  0  0  0  0  0
  143.9370   71.9510  219.8450 N   0  0  0  0  0  0  0  0  0  0  0  0
  144.2950   70.5530  219.6460 C   0  0  0  0  0  0  0  0  0  0  0  0
  143.2260   69.6770  219.8030 C   0  0  0  0  0  0  0  0  0  0  0  0
  143.5010   68.3180  219.6250 C   0  0  0  0  0  0  0  0  0  0  0  0
  144.7690   67.8830  219.3110 C   0  0  0  0  0  0  0  0  0  0  0  0
  145.8130   68.8060  219.1650 C   0  0  0  0  0  0  0  0  0  0  0  0
  145.5620   70.1650  219.3380 C   0  0  0  0  0  0  0  0  0  0  0  0
  142.5970   72.2180  220.1990 C   0  0  0  0  0  0  0  0  0  0  0  0
  142.3080   73.5570  220.8120 C   0  0  0  0  0  0  0  0  0  0  0  0
  141.0390   73.3460  221.6630 C   0  0  0  0  0  0  0  0  0  0  0  0
  140.1990   72.4330  220.9380 N   0  0  0  0  0  0  0  0  0  0  0  0
  139.2880   71.5200  221.5030 C   0  0  0  0  0  0  0  0  0  0  0  0
  138.6390   70.7600  220.6920 O   0  0  0  0  0  0  0  0  0  0  0  0
  138.9800   71.3260  222.9190 C   0  0  1  0  0  0  0  0  0  0  0  0
  137.7430   70.6400  223.1630 N   0  0  0  0  0  0  0  0  0  0  0  0
  140.0640   70.5500  223.6470 C   0  0  0  0  0  0  0  0  0  0  0  0
  139.5430   69.5200  224.5930 C   0  0  0  0  0  0  0  0  0  0  0  0
  139.8400   70.0770  225.9400 C   0  0  0  0  0  0  0  0  0  0  0  0
  139.4690   69.7030  227.2320 C   0  0  0  0  0  0  0  0  0  0  0  0
  139.8860   70.4010  228.3470 C   0  0  0  0  0  0  0  0  0  0  0  0
  140.7070   71.5220  228.2100 C   0  0  0  0  0  0  0  0  0  0  0  0
  141.0840   71.9040  226.9410 C   0  0  0  0  0  0  0  0  0  0  0  0
  140.6520   71.1870  225.8300 C   0  0  0  0  0  0  0  0  0  0  0  0
  140.9680   71.4670  224.4030 C   0  0  0  0  0  0  0  0  0  0  0  0
  140.2860   72.4790  219.4770 C   0  0  0  0  0  0  0  0  0  0  0  0
  141.6920   72.1390  218.9720 C   0  0  0  0  0  0  0  0  0  0  0  0
  145.9479   73.5632  222.6660 H   0  0  0  0  0  0  0  0  0  0  0  0
  146.3501   72.1767  221.5971 H   0  0  0  0  0  0  0  0  0  0  0  0
  147.3894   73.6418  221.5971 H   0  0  0  0  0  0  0  0  0  0  0  0
  144.6285   74.4042  221.0118 H   0  0  0  0  0  0  0  0  0  0  0  0
  146.1028   74.5999  219.9905 H   0  0  0  0  0  0  0  0  0  0  0  0
  142.2167   70.0350  220.0542 H   0  0  0  0  0  0  0  0  0  0  0  0
  142.6901   67.5833  219.7378 H   0  0  0  0  0  0  0  0  0  0  0  0
  144.9628   66.8088  219.1745 H   0  0  0  0  0  0  0  0  0  0  0  0
  146.8264   68.4588  218.9148 H   0  0  0  0  0  0  0  0  0  0  0  0
  146.3678   70.9058  219.2284 H   0  0  0  0  0  0  0  0  0  0  0  0
  142.4034   71.4492  220.9616 H   0  0  0  0  0  0  0  0  0  0  0  0
  143.1474   73.8810  221.4447 H   0  0  0  0  0  0  0  0  0  0  0  0
  142.1668   74.3368  220.0492 H   0  0  0  0  0  0  0  0  0  0  0  0
  141.3058   72.9195  222.6412 H   0  0  0  0  0  0  0  0  0  0  0  0
  140.5216   74.2999  221.8427 H   0  0  0  0  0  0  0  0  0  0  0  0
  138.9049   72.3543  223.3025 H   0  0  0  0  0  0  0  0  0  0  0  0
  137.3460   70.1670  222.3230 H   0  0  0  0  0  0  0  0  0  0  0  0
  137.0100   71.2750  223.5380 H   0  0  0  0  0  0  0  0  0  0  0  0
  140.6145   70.0266  222.8514 H   0  0  0  0  0  0  0  0  0  0  0  0
  138.4602   69.3796  224.4591 H   0  0  0  0  0  0  0  0  0  0  0  0
  140.0019   68.5328  224.4351 H   0  0  0  0  0  0  0  0  0  0  0  0
  138.8229   68.8229  227.3662 H   0  0  0  0  0  0  0  0  0  0  0  0
  139.5702   70.0727  229.3482 H   0  0  0  0  0  0  0  0  0  0  0  0
  141.0441   72.0857  229.0924 H   0  0  0  0  0  0  0  0  0  0  0  0
  141.7316   72.7828  226.8054 H   0  0  0  0  0  0  0  0  0  0  0  0
  140.7565   72.5174  224.1544 H   0  0  0  0  0  0  0  0  0  0  0  0
  142.0298   71.3065  224.1648 H   0  0  0  0  0  0  0  0  0  0  0  0
  139.5732   71.7544  219.0563 H   0  0  0  0  0  0  0  0  0  0  0  0
  140.0496   73.5042  219.1559 H   0  0  0  0  0  0  0  0  0  0  0  0
  141.7121   71.1258  218.5442 H   0  0  0  0  0  0  0  0  0  0  0  0
  142.0184   72.8284  218.1794 H   0  0  0  0  0  0  0  0  0  0  0  0
  1  2  1  0
  2  3  1  0
  3  4  2  0
  3  5  1  0
  5  6  1  0
  6  7  2  0
  7  8  1  0
  8  9  2  0
  9 10  1  0
 10 11  2  0
  5 12  1  0
 12 13  1  0
 13 14  1  0
 14 15  1  0
 15 16  1  0
 16 17  2  0
 16 18  1  0
 18 19  1  0
 18 20  1  0
 20 21  1  0
 21 22  1  0
 22 23  2  0
 23 24  1  0
 24 25  2  0
 25 26  1  0
 26 27  2  0
 27 28  1  0
 15 29  1  0
 29 30  1  0
 11  6  1  0
 30 12  1  0
 28 20  1  0
 27 22  1  0
  1 31  1  0
  1 32  1  0
  1 33  1  0
  2 34  1  0
  2 35  1  0
  7 36  1  0
  8 37  1  0
  9 38  1  0
 10 39  1  0
 11 40  1  0
 12 41  1  0
 13 42  1  0
 13 43  1  0
 14 44  1  0
 14 45  1  0
 18 46  1  1
 19 47  1  0
 19 48  1  0
 20 49  1  0
 21 50  1  0
 21 51  1  0
 23 52  1  0
 24 53  1  0
 25 54  1  0
 26 55  1  0
 28 56  1  0
 28 57  1  0
 29 58  1  0
 29 59  1  0
 30 60  1  0
 30 61  1  0
M  END
>  <smiles>  (7) 
CCC(=O)N(c1ccccc1)C1CCN(C(=O)[C@@H](N)C2Cc3ccccc3C2)CC1

>  <score_type>  (7) 
oracle

>  <origin>  (7) 
autodockgpu

>  <m_score__min__energy>  (7) 
-8.75

>  <m_primary>  (7) 
energy

>  <rmsd>  (7) 
9.429171897906572

>  <m_score__min__rmsd>  (7) 
9.429171897906572

>  <meeko>  (7) 
{"free_energy": -7.81, "intermolecular_energy": -9.9, "internal_energy": -2.24, "cluster_size": 6, "cluster_id": 3, "rank_in_cluster": 4}

>  <energy>  (7) 
-8.63

>  <cluster_rmsd>  (7) 
0.27

>  <cluster>  (7) 
1

$$$$

     RDKit          3D

 61 64  0  0  0  0  0  0  0  0999 V2000
  138.7370   67.9610  222.4450 C   0  0  0  0  0  0  0  0  0  0  0  0
  138.9860   68.0370  223.9700 C   0  0  0  0  0  0  0  0  0  0  0  0
  138.5580   69.3260  224.4950 C   0  0  0  0  0  0  0  0  0  0  0  0
  137.4100   69.3550  225.0720 O   0  0  0  0  0  0  0  0  0  0  0  0
  139.2390   70.5610  224.4600 N   0  0  0  0  0  0  0  0  0  0  0  0
  139.9560   70.8760  225.6880 C   0  0  0  0  0  0  0  0  0  0  0  0
  139.6640   70.0140  226.7410 C   0  0  0  0  0  0  0  0  0  0  0  0
  140.3180   70.2600  227.9500 C   0  0  0  0  0  0  0  0  0  0  0  0
  141.2050   71.3050  228.0810 C   0  0  0  0  0  0  0  0  0  0  0  0
  141.4660   72.1470  226.9910 C   0  0  0  0  0  0  0  0  0  0  0  0
  140.8240   71.9200  225.7750 C   0  0  0  0  0  0  0  0  0  0  0  0
  139.3280   71.5050  223.4150 C   0  0  0  0  0  0  0  0  0  0  0  0
  140.3180   71.2200  222.3230 C   0  0  0  0  0  0  0  0  0  0  0  0
  140.6840   72.6010  221.7390 C   0  0  0  0  0  0  0  0  0  0  0  0
  139.4810   73.3890  221.7490 N   0  0  0  0  0  0  0  0  0  0  0  0
  139.4110   74.7890  221.8810 C   0  0  0  0  0  0  0  0  0  0  0  0
  138.2380   75.3180  221.8960 O   0  0  0  0  0  0  0  0  0  0  0  0
  140.5200   75.7320  222.0030 C   0  0  1  0  0  0  0  0  0  0  0  0
  141.7420   75.2860  221.3950 N   0  0  0  0  0  0  0  0  0  0  0  0
  140.1980   77.0880  221.3990 C   0  0  0  0  0  0  0  0  0  0  0  0
  141.3910   77.8200  220.8790 C   0  0  0  0  0  0  0  0  0  0  0  0
  141.5820   78.9370  221.8420 C   0  0  0  0  0  0  0  0  0  0  0  0
  142.5990   79.8740  222.0300 C   0  0  0  0  0  0  0  0  0  0  0  0
  142.5400   80.8340  223.0190 C   0  0  0  0  0  0  0  0  0  0  0  0
  141.4400   80.8960  223.8760 C   0  0  0  0  0  0  0  0  0  0  0  0
  140.4260   79.9790  223.7030 C   0  0  0  0  0  0  0  0  0  0  0  0
  140.5050   79.0190  222.7000 C   0  0  0  0  0  0  0  0  0  0  0  0
  139.5010   77.9660  222.3850 C   0  0  0  0  0  0  0  0  0  0  0  0
  138.2200   72.6640  221.5810 C   0  0  0  0  0  0  0  0  0  0  0  0
  137.9840   71.6490  222.7050 C   0  0  0  0  0  0  0  0  0  0  0  0
  137.7002   67.6445  222.2581 H   0  0  0  0  0  0  0  0  0  0  0  0
  138.9047   68.9512  221.9963 H   0  0  0  0  0  0  0  0  0  0  0  0
  139.4291   67.2332  221.9963 H   0  0  0  0  0  0  0  0  0  0  0  0
  138.4195   67.2371  224.4692 H   0  0  0  0  0  0  0  0  0  0  0  0
  140.0627   67.9161  224.1602 H   0  0  0  0  0  0  0  0  0  0  0  0
  138.9543   69.1814  226.6267 H   0  0  0  0  0  0  0  0  0  0  0  0
  140.1210   69.6073  228.8132 H   0  0  0  0  0  0  0  0  0  0  0  0
  141.7097   71.4794  229.0427 H   0  0  0  0  0  0  0  0  0  0  0  0
  142.1739   72.9826  227.0949 H   0  0  0  0  0  0  0  0  0  0  0  0
  141.0143   72.5687  224.9073 H   0  0  0  0  0  0  0  0  0  0  0  0
  139.6630   72.4070  223.9481 H   0  0  0  0  0  0  0  0  0  0  0  0
  141.2112   70.7248  222.7316 H   0  0  0  0  0  0  0  0  0  0  0  0
  139.9042   70.5464  221.5581 H   0  0  0  0  0  0  0  0  0  0  0  0
  141.4563   73.0812  222.3579 H   0  0  0  0  0  0  0  0  0  0  0  0
  141.0839   72.5045  220.7188 H   0  0  0  0  0  0  0  0  0  0  0  0
  140.6645   75.8083  223.0908 H   0  0  0  0  0  0  0  0  0  0  0  0
  142.1010   74.3840  221.7750 H   0  0  0  0  0  0  0  0  0  0  0  0
  142.5030   75.9870  221.4850 H   0  0  0  0  0  0  0  0  0  0  0  0
  139.5427   76.8645  220.5442 H   0  0  0  0  0  0  0  0  0  0  0  0
  142.2741   77.1644  220.8619 H   0  0  0  0  0  0  0  0  0  0  0  0
  141.2517   78.1730  219.8465 H   0  0  0  0  0  0  0  0  0  0  0  0
  143.4768   79.8462  221.3676 H   0  0  0  0  0  0  0  0  0  0  0  0
  143.3638   81.5540  223.1327 H   0  0  0  0  0  0  0  0  0  0  0  0
  141.3840   81.6568  224.6686 H   0  0  0  0  0  0  0  0  0  0  0  0
  139.5469   80.0066  224.3637 H   0  0  0  0  0  0  0  0  0  0  0  0
  139.2299   77.4009  223.2890 H   0  0  0  0  0  0  0  0  0  0  0  0
  138.5605   78.3806  221.9930 H   0  0  0  0  0  0  0  0  0  0  0  0
  137.3922   73.3884  221.5777 H   0  0  0  0  0  0  0  0  0  0  0  0
  138.2710   72.1116  220.6311 H   0  0  0  0  0  0  0  0  0  0  0  0
  137.2186   72.0195  223.4028 H   0  0  0  0  0  0  0  0  0  0  0  0
  137.6236   70.6856  222.3152 H   0  0  0  0  0  0  0  0  0  0  0  0
  1  2  1  0
  2  3  1  0
  3  4  2  0
  3  5  1  0
  5  6  1  0
  6  7  2  0
  7  8  1  0
  8  9  2  0
  9 10  1  0
 10 11  2  0
  5 12  1  0
 12 13  1  0
 13 14  1  0
 14 15  1  0
 15 16  1  0
 16 17  2  0
 16 18  1  0
 18 19  1  0
 18 20  1  0
 20 21  1  0
 21 22  1  0
 22 23  2  0
 23 24  1  0
 24 25  2  0
 25 26  1  0
 26 27  2  0
 27 28  1  0
 15 29  1  0
 29 30  1  0
 11  6  1  0
 30 12  1  0
 28 20  1  0
 27 22  1  0
  1 31  1  0
  1 32  1  0
  1 33  1  0
  2 34  1  0
  2 35  1  0
  7 36  1  0
  8 37  1  0
  9 38  1  0
 10 39  1  0
 11 40  1  0
 12 41  1  0
 13 42  1  0
 13 43  1  0
 14 44  1  0
 14 45  1  0
 18 46  1  1
 19 47  1  0
 19 48  1  0
 20 49  1  0
 21 50  1  0
 21 51  1  0
 23 52  1  0
 24 53  1  0
 25 54  1  0
 26 55  1  0
 28 56  1  0
 28 57  1  0
 29 58  1  0
 29 59  1  0
 30 60  1  0
 30 61  1  0
M  END
>  <smiles>  (8) 
CCC(=O)N(c1ccccc1)C1CCN(C(=O)[C@@H](N)C2Cc3ccccc3C2)CC1

>  <score_type>  (8) 
oracle

>  <origin>  (8) 
autodockgpu

>  <m_score__min__energy>  (8) 
-8.75

>  <m_primary>  (8) 
energy

>  <rmsd>  (8) 
5.703805310714625

>  <m_score__min__rmsd>  (8) 
5.703805310714625

>  <meeko>  (8) 
{"free_energy": -8.66, "intermolecular_energy": -10.74, "internal_energy": -1.42, "cluster_size": 13, "cluster_id": 1, "rank_in_cluster": 5}

>  <energy>  (8) 
-8.62

>  <cluster_rmsd>  (8) 
0.67

>  <cluster>  (8) 
1

$$$$

     RDKit          3D

 61 64  0  0  0  0  0  0  0  0999 V2000
  142.6070   78.2830  218.1030 C   0  0  0  0  0  0  0  0  0  0  0  0
  142.9720   76.8130  218.4200 C   0  0  0  0  0  0  0  0  0  0  0  0
  142.4460   76.4250  219.7220 C   0  0  0  0  0  0  0  0  0  0  0  0
  142.1790   77.3830  220.5380 O   0  0  0  0  0  0  0  0  0  0  0  0
  142.1840   75.1310  220.2160 N   0  0  0  0  0  0  0  0  0  0  0  0
  143.3800   74.3280  220.4340 C   0  0  0  0  0  0  0  0  0  0  0  0
  143.1170   72.9730  220.6130 C   0  0  0  0  0  0  0  0  0  0  0  0
  144.2220   72.1450  220.8270 C   0  0  0  0  0  0  0  0  0  0  0  0
  145.5010   72.6560  220.8570 C   0  0  0  0  0  0  0  0  0  0  0  0
  145.7140   74.0290  220.6730 C   0  0  0  0  0  0  0  0  0  0  0  0
  144.6260   74.8730  220.4580 C   0  0  0  0  0  0  0  0  0  0  0  0
  140.9490   74.5260  220.5320 C   0  0  0  0  0  0  0  0  0  0  0  0
  139.9210   75.3880  221.2040 C   0  0  0  0  0  0  0  0  0  0  0  0
  139.0270   74.4100  221.9940 C   0  0  0  0  0  0  0  0  0  0  0  0
  138.8940   73.2260  221.1890 N   0  0  0  0  0  0  0  0  0  0  0  0
  138.7050   71.9160  221.6700 C   0  0  0  0  0  0  0  0  0  0  0  0
  138.6360   70.9750  220.7960 O   0  0  0  0  0  0  0  0  0  0  0  0
  138.5750   71.4840  223.0600 C   0  0  1  0  0  0  0  0  0  0  0  0
  137.4960   70.5660  223.2930 N   0  0  0  0  0  0  0  0  0  0  0  0
  139.8370   70.8210  223.5830 C   0  0  0  0  0  0  0  0  0  0  0  0
  139.5840   69.6470  224.4690 C   0  0  0  0  0  0  0  0  0  0  0  0
  139.9640   70.1240  225.8260 C   0  0  0  0  0  0  0  0  0  0  0  0
  139.8100   69.5890  227.1050 C   0  0  0  0  0  0  0  0  0  0  0  0
  140.2600   70.2430  228.2340 C   0  0  0  0  0  0  0  0  0  0  0  0
  140.8930   71.4830  228.1250 C   0  0  0  0  0  0  0  0  0  0  0  0
  141.0550   72.0240  226.8680 C   0  0  0  0  0  0  0  0  0  0  0  0
  140.5940   71.3490  225.7430 C   0  0  0  0  0  0  0  0  0  0  0  0
  140.6900   71.7950  224.3260 C   0  0  0  0  0  0  0  0  0  0  0  0
  138.9350   73.4100  219.7370 C   0  0  0  0  0  0  0  0  0  0  0  0
  140.2670   74.0050  219.2690 C   0  0  0  0  0  0  0  0  0  0  0  0
  142.4693   78.8375  219.0430 H   0  0  0  0  0  0  0  0  0  0  0  0
  143.4178   78.7447  217.5203 H   0  0  0  0  0  0  0  0  0  0  0  0
  141.6744   78.3118  217.5203 H   0  0  0  0  0  0  0  0  0  0  0  0
  142.5428   76.1588  217.6468 H   0  0  0  0  0  0  0  0  0  0  0  0
  144.0675   76.7143  218.4356 H   0  0  0  0  0  0  0  0  0  0  0  0
  142.0921   72.5745  220.5873 H   0  0  0  0  0  0  0  0  0  0  0  0
  144.0679   71.0658  220.9741 H   0  0  0  0  0  0  0  0  0  0  0  0
  146.3565   71.9854  221.0256 H   0  0  0  0  0  0  0  0  0  0  0  0
  146.7347   74.4383  220.6982 H   0  0  0  0  0  0  0  0  0  0  0  0
  144.7714   75.9534  220.3113 H   0  0  0  0  0  0  0  0  0  0  0  0
  141.2519   73.7443  221.2442 H   0  0  0  0  0  0  0  0  0  0  0  0
  140.4039   76.1048  221.8845 H   0  0  0  0  0  0  0  0  0  0  0  0
  139.3427   75.9793  220.4788 H   0  0  0  0  0  0  0  0  0  0  0  0
  139.4962   74.1621  222.9575 H   0  0  0  0  0  0  0  0  0  0  0  0
  138.0440   74.8564  222.2049 H   0  0  0  0  0  0  0  0  0  0  0  0
  138.3721   72.4235  223.5950 H   0  0  0  0  0  0  0  0  0  0  0  0
  137.1730   70.0660  222.4380 H   0  0  0  0  0  0  0  0  0  0  0  0
  136.6680   71.0340  223.7130 H   0  0  0  0  0  0  0  0  0  0  0  0
  140.3541   70.4566  222.6831 H   0  0  0  0  0  0  0  0  0  0  0  0
  138.5230   69.3582  224.4401 H   0  0  0  0  0  0  0  0  0  0  0  0
  140.1525   68.7571  224.1611 H   0  0  0  0  0  0  0  0  0  0  0  0
  139.3136   68.6138  227.2175 H   0  0  0  0  0  0  0  0  0  0  0  0
  140.1194   69.7853  229.2243 H   0  0  0  0  0  0  0  0  0  0  0  0
  141.2528   72.0138  229.0188 H   0  0  0  0  0  0  0  0  0  0  0  0
  141.5532   72.9980  226.7535 H   0  0  0  0  0  0  0  0  0  0  0  0
  140.3050   72.8190  224.2113 H   0  0  0  0  0  0  0  0  0  0  0  0
  141.7264   71.8172  223.9582 H   0  0  0  0  0  0  0  0  0  0  0  0
  138.7927   72.4332  219.2515 H   0  0  0  0  0  0  0  0  0  0  0  0
  138.1347   74.1127  219.4618 H   0  0  0  0  0  0  0  0  0  0  0  0
  140.8856   73.2322  218.7893 H   0  0  0  0  0  0  0  0  0  0  0  0
  140.1184   74.8035  218.5272 H   0  0  0  0  0  0  0  0  0  0  0  0
  1  2  1  0
  2  3  1  0
  3  4  2  0
  3  5  1  0
  5  6  1  0
  6  7  2  0
  7  8  1  0
  8  9  2  0
  9 10  1  0
 10 11  2  0
  5 12  1  0
 12 13  1  0
 13 14  1  0
 14 15  1  0
 15 16  1  0
 16 17  2  0
 16 18  1  0
 18 19  1  0
 18 20  1  0
 20 21  1  0
 21 22  1  0
 22 23  2  0
 23 24  1  0
 24 25  2  0
 25 26  1  0
 26 27  2  0
 27 28  1  0
 15 29  1  0
 29 30  1  0
 11  6  1  0
 30 12  1  0
 28 20  1  0
 27 22  1  0
  1 31  1  0
  1 32  1  0
  1 33  1  0
  2 34  1  0
  2 35  1  0
  7 36  1  0
  8 37  1  0
  9 38  1  0
 10 39  1  0
 11 40  1  0
 12 41  1  0
 13 42  1  0
 13 43  1  0
 14 44  1  0
 14 45  1  0
 18 46  1  1
 19 47  1  0
 19 48  1  0
 20 49  1  0
 21 50  1  0
 21 51  1  0
 23 52  1  0
 24 53  1  0
 25 54  1  0
 26 55  1  0
 28 56  1  0
 28 57  1  0
 29 58  1  0
 29 59  1  0
 30 60  1  0
 30 61  1  0
M  END
>  <smiles>  (9) 
CCC(=O)N(c1ccccc1)C1CCN(C(=O)[C@@H](N)C2Cc3ccccc3C2)CC1

>  <score_type>  (9) 
oracle

>  <origin>  (9) 
autodockgpu

>  <m_score__min__energy>  (9) 
-8.75

>  <m_primary>  (9) 
energy

>  <rmsd>  (9) 
9.10016321489943

>  <m_score__min__rmsd>  (9) 
9.10016321489943

>  <meeko>  (9) 
{"free_energy": -7.37, "intermolecular_energy": -9.46, "internal_energy": -2.25, "cluster_size": 1, "cluster_id": 5, "rank_in_cluster": 1}

>  <energy>  (9) 
-8.62

>  <cluster_rmsd>  (9) 
0.72

>  <cluster>  (9) 
1

$$$$

     RDKit          3D

 61 64  0  0  0  0  0  0  0  0999 V2000
  146.3550   73.3180  221.8460 C   0  0  0  0  0  0  0  0  0  0  0  0
  145.6210   74.0020  220.6690 C   0  0  0  0  0  0  0  0  0  0  0  0
  145.1390   73.0080  219.7200 C   0  0  0  0  0  0  0  0  0  0  0  0
  145.7560   72.9480  218.5930 O   0  0  0  0  0  0  0  0  0  0  0  0
  144.0790   72.0890  219.8690 N   0  0  0  0  0  0  0  0  0  0  0  0
  144.4670   70.7000  219.6620 C   0  0  0  0  0  0  0  0  0  0  0  0
  143.4330   69.7950  219.8770 C   0  0  0  0  0  0  0  0  0  0  0  0
  143.7370   68.4430  219.6950 C   0  0  0  0  0  0  0  0  0  0  0  0
  145.0010   68.0420  219.3220 C   0  0  0  0  0  0  0  0  0  0  0  0
  146.0100   68.9930  219.1180 C   0  0  0  0  0  0  0  0  0  0  0  0
  145.7280   70.3460  219.2940 C   0  0  0  0  0  0  0  0  0  0  0  0
  142.7280   72.3270  220.1980 C   0  0  0  0  0  0  0  0  0  0  0  0
  142.3910   73.6780  220.7580 C   0  0  0  0  0  0  0  0  0  0  0  0
  141.1180   73.4600  221.6020 C   0  0  0  0  0  0  0  0  0  0  0  0
  140.3150   72.4950  220.9010 N   0  0  0  0  0  0  0  0  0  0  0  0
  139.4250   71.5760  221.4900 C   0  0  0  0  0  0  0  0  0  0  0  0
  138.8100   70.7670  220.7000 O   0  0  0  0  0  0  0  0  0  0  0  0
  139.1050   71.4240  222.9080 C   0  0  1  0  0  0  0  0  0  0  0  0
  137.8410   70.7940  223.1620 N   0  0  0  0  0  0  0  0  0  0  0  0
  140.1550   70.6210  223.6570 C   0  0  0  0  0  0  0  0  0  0  0  0
  139.5910   69.5690  224.5520 C   0  0  0  0  0  0  0  0  0  0  0  0
  139.8380   70.0860  225.9240 C   0  0  0  0  0  0  0  0  0  0  0  0
  139.4140   69.6800  227.1900 C   0  0  0  0  0  0  0  0  0  0  0  0
  139.7910   70.3430  228.3400 C   0  0  0  0  0  0  0  0  0  0  0  0
  140.6240   71.4620  228.2660 C   0  0  0  0  0  0  0  0  0  0  0  0
  141.0530   71.8760  227.0240 C   0  0  0  0  0  0  0  0  0  0  0  0
  140.6610   71.1930  225.8780 C   0  0  0  0  0  0  0  0  0  0  0  0
  141.0340   71.5100  224.4720 C   0  0  0  0  0  0  0  0  0  0  0  0
  140.4190   72.4900  219.4410 C   0  0  0  0  0  0  0  0  0  0  0  0
  141.8410   72.1750  218.9640 C   0  0  0  0  0  0  0  0  0  0  0  0
  145.9516   73.6939  222.7978 H   0  0  0  0  0  0  0  0  0  0  0  0
  146.2054   72.2297  221.7886 H   0  0  0  0  0  0  0  0  0  0  0  0
  147.4300   73.5439  221.7886 H   0  0  0  0  0  0  0  0  0  0  0  0
  144.7662   74.5740  221.0591 H   0  0  0  0  0  0  0  0  0  0  0  0
  146.3240   74.6732  220.1540 H   0  0  0  0  0  0  0  0  0  0  0  0
  142.4273   70.1264  220.1750 H   0  0  0  0  0  0  0  0  0  0  0  0
  142.9540   67.6866  219.8522 H   0  0  0  0  0  0  0  0  0  0  0  0
  145.2189   66.9727  219.1839 H   0  0  0  0  0  0  0  0  0  0  0  0
  147.0194   68.6728  218.8204 H   0  0  0  0  0  0  0  0  0  0  0  0
  146.5053   71.1088  219.1393 H   0  0  0  0  0  0  0  0  0  0  0  0
  142.5482   71.5812  220.9864 H   0  0  0  0  0  0  0  0  0  0  0  0
  143.2124   74.0503  221.3879 H   0  0  0  0  0  0  0  0  0  0  0  0
  142.2358   74.4246  219.9652 H   0  0  0  0  0  0  0  0  0  0  0  0
  141.3851   73.0782  222.5984 H   0  0  0  0  0  0  0  0  0  0  0  0
  140.5699   74.4036  221.7405 H   0  0  0  0  0  0  0  0  0  0  0  0
  139.0699   72.4625  223.2690 H   0  0  0  0  0  0  0  0  0  0  0  0
  137.4770   70.2340  222.3630 H   0  0  0  0  0  0  0  0  0  0  0  0
  137.1060   71.4820  223.4200 H   0  0  0  0  0  0  0  0  0  0  0  0
  140.7338   70.1158  222.8698 H   0  0  0  0  0  0  0  0  0  0  0  0
  138.5135   69.4402  224.3718 H   0  0  0  0  0  0  0  0  0  0  0  0
  140.0496   68.5833  224.3845 H   0  0  0  0  0  0  0  0  0  0  0  0
  138.7570   68.8017  227.2741 H   0  0  0  0  0  0  0  0  0  0  0  0
  139.4343   69.9891  229.3185 H   0  0  0  0  0  0  0  0  0  0  0  0
  140.9296   71.9989  229.1762 H   0  0  0  0  0  0  0  0  0  0  0  0
  141.7107   72.7536  226.9383 H   0  0  0  0  0  0  0  0  0  0  0  0
  140.8386   72.5683  224.2446 H   0  0  0  0  0  0  0  0  0  0  0  0
  142.1033   71.3486  224.2706 H   0  0  0  0  0  0  0  0  0  0  0  0
  139.7337   71.7290  219.0395 H   0  0  0  0  0  0  0  0  0  0  0  0
  140.1561   73.4952  219.0798 H   0  0  0  0  0  0  0  0  0  0  0  0
  141.8972   71.1479  218.5743 H   0  0  0  0  0  0  0  0  0  0  0  0
  142.1561   72.8442  218.1498 H   0  0  0  0  0  0  0  0  0  0  0  0
  1  2  1  0
  2  3  1  0
  3  4  2  0
  3  5  1  0
  5  6  1  0
  6  7  2  0
  7  8  1  0
  8  9  2  0
  9 10  1  0
 10 11  2  0
  5 12  1  0
 12 13  1  0
 13 14  1  0
 14 15  1  0
 15 16  1  0
 16 17  2  0
 16 18  1  0
 18 19  1  0
 18 20  1  0
 20 21  1  0
 21 22  1  0
 22 23  2  0
 23 24  1  0
 24 25  2  0
 25 26  1  0
 26 27  2  0
 27 28  1  0
 15 29  1  0
 29 30  1  0
 11  6  1  0
 30 12  1  0
 28 20  1  0
 27 22  1  0
  1 31  1  0
  1 32  1  0
  1 33  1  0
  2 34  1  0
  2 35  1  0
  7 36  1  0
  8 37  1  0
  9 38  1  0
 10 39  1  0
 11 40  1  0
 12 41  1  0
 13 42  1  0
 13 43  1  0
 14 44  1  0
 14 45  1  0
 18 46  1  1
 19 47  1  0
 19 48  1  0
 20 49  1  0
 21 50  1  0
 21 51  1  0
 23 52  1  0
 24 53  1  0
 25 54  1  0
 26 55  1  0
 28 56  1  0
 28 57  1  0
 29 58  1  0
 29 59  1  0
 30 60  1  0
 30 61  1  0
M  END
>  <smiles>  (10) 
CCC(=O)N(c1ccccc1)C1CCN(C(=O)[C@@H](N)C2Cc3ccccc3C2)CC1

>  <score_type>  (10) 
oracle

>  <origin>  (10) 
autodockgpu

>  <m_score__min__energy>  (10) 
-8.75

>  <m_primary>  (10) 
energy

>  <rmsd>  (10) 
9.385972135532107

>  <m_score__min__rmsd>  (10) 
9.385972135532107

>  <meeko>  (10) 
{"free_energy": -7.85, "intermolecular_energy": -9.94, "internal_energy": -2.24, "cluster_size": 6, "cluster_id": 3, "rank_in_cluster": 3}

>  <energy>  (10) 
-8.61

>  <cluster_rmsd>  (10) 
0.65

>  <cluster>  (10) 
1

$$$$

     RDKit          3D

 61 64  0  0  0  0  0  0  0  0999 V2000
  138.7510   67.6750  222.5950 C   0  0  0  0  0  0  0  0  0  0  0  0
  139.1480   67.9760  224.0600 C   0  0  0  0  0  0  0  0  0  0  0  0
  138.5900   69.2520  224.4890 C   0  0  0  0  0  0  0  0  0  0  0  0
  137.3840   69.2260  224.9350 O   0  0  0  0  0  0  0  0  0  0  0  0
  139.1980   70.5240  224.4870 N   0  0  0  0  0  0  0  0  0  0  0  0
  139.9180   70.8380  225.7130 C   0  0  0  0  0  0  0  0  0  0  0  0
  139.6120   69.9890  226.7720 C   0  0  0  0  0  0  0  0  0  0  0  0
  140.2690   70.2340  227.9810 C   0  0  0  0  0  0  0  0  0  0  0  0
  141.1720   71.2660  228.1040 C   0  0  0  0  0  0  0  0  0  0  0  0
  141.4460   72.0950  227.0080 C   0  0  0  0  0  0  0  0  0  0  0  0
  140.8020   71.8690  225.7930 C   0  0  0  0  0  0  0  0  0  0  0  0
  139.2130   71.5070  223.4740 C   0  0  0  0  0  0  0  0  0  0  0  0
  140.0870   71.2450  222.2840 C   0  0  0  0  0  0  0  0  0  0  0  0
  140.4330   72.6390  221.7210 C   0  0  0  0  0  0  0  0  0  0  0  0
  139.2580   73.4530  221.8750 N   0  0  0  0  0  0  0  0  0  0  0  0
  139.2370   74.8470  222.0660 C   0  0  0  0  0  0  0  0  0  0  0  0
  138.0850   75.4020  222.2130 O   0  0  0  0  0  0  0  0  0  0  0  0
  140.3770   75.7600  222.1170 C   0  0  1  0  0  0  0  0  0  0  0  0
  141.5570   75.2640  221.4660 N   0  0  0  0  0  0  0  0  0  0  0  0
  140.0680   77.1120  221.4970 C   0  0  0  0  0  0  0  0  0  0  0  0
  141.2570   77.7980  220.9120 C   0  0  0  0  0  0  0  0  0  0  0  0
  141.5190   78.9290  221.8410 C   0  0  0  0  0  0  0  0  0  0  0  0
  142.5690   79.8400  221.9660 C   0  0  0  0  0  0  0  0  0  0  0  0
  142.5780   80.8220  222.9350 C   0  0  0  0  0  0  0  0  0  0  0  0
  141.5170   80.9340  223.8350 C   0  0  0  0  0  0  0  0  0  0  0  0
  140.4720   80.0430  223.7250 C   0  0  0  0  0  0  0  0  0  0  0  0
  140.4820   79.0600  222.7410 C   0  0  0  0  0  0  0  0  0  0  0  0
  139.4370   78.0290  222.4910 C   0  0  0  0  0  0  0  0  0  0  0  0
  137.9680   72.7640  221.8000 C   0  0  0  0  0  0  0  0  0  0  0  0
  137.8120   71.7100  222.9020 C   0  0  0  0  0  0  0  0  0  0  0  0
  137.8745   67.0105  222.5818 H   0  0  0  0  0  0  0  0  0  0  0  0
  138.5055   68.6160  222.0809 H   0  0  0  0  0  0  0  0  0  0  0  0
  139.5908   67.1846  222.0809 H   0  0  0  0  0  0  0  0  0  0  0  0
  138.7642   67.1763  224.7105 H   0  0  0  0  0  0  0  0  0  0  0  0
  140.2447   68.0270  224.1277 H   0  0  0  0  0  0  0  0  0  0  0  0
  138.8896   69.1666  226.6632 H   0  0  0  0  0  0  0  0  0  0  0  0
  140.0611   69.5913  228.8492 H   0  0  0  0  0  0  0  0  0  0  0  0
  141.6793   71.4401  229.0644 H   0  0  0  0  0  0  0  0  0  0  0  0
  142.1663   72.9206  227.1062 H   0  0  0  0  0  0  0  0  0  0  0  0
  141.0034   72.5081  224.9206 H   0  0  0  0  0  0  0  0  0  0  0  0
  139.6210   72.3789  224.0063 H   0  0  0  0  0  0  0  0  0  0  0  0
  141.0013   70.7135  222.5865 H   0  0  0  0  0  0  0  0  0  0  0  0
  139.5851   70.6129  221.5366 H   0  0  0  0  0  0  0  0  0  0  0  0
  141.2725   73.0760  222.2816 H   0  0  0  0  0  0  0  0  0  0  0  0
  140.7326   72.5746  220.6645 H   0  0  0  0  0  0  0  0  0  0  0  0
  140.5716   75.8564  223.1954 H   0  0  0  0  0  0  0  0  0  0  0  0
  141.8950   74.3520  221.8380 H   0  0  0  0  0  0  0  0  0  0  0  0
  142.3480   75.9370  221.5240 H   0  0  0  0  0  0  0  0  0  0  0  0
  139.3719   76.8899  220.6747 H   0  0  0  0  0  0  0  0  0  0  0  0
  142.1202   77.1172  220.8729 H   0  0  0  0  0  0  0  0  0  0  0  0
  141.0842   78.1329  219.8786 H   0  0  0  0  0  0  0  0  0  0  0  0
  143.4173   79.7728  221.2690 H   0  0  0  0  0  0  0  0  0  0  0  0
  143.4256   81.5202  222.9986 H   0  0  0  0  0  0  0  0  0  0  0  0
  141.5153   81.7131  224.6116 H   0  0  0  0  0  0  0  0  0  0  0  0
  139.6228   80.1095  224.4210 H   0  0  0  0  0  0  0  0  0  0  0  0
  139.1888   77.4907  223.4176 H   0  0  0  0  0  0  0  0  0  0  0  0
  138.4924   78.4614  222.1293 H   0  0  0  0  0  0  0  0  0  0  0  0
  137.1629   73.5064  221.9028 H   0  0  0  0  0  0  0  0  0  0  0  0
  137.9149   72.2494  220.8293 H   0  0  0  0  0  0  0  0  0  0  0  0
  137.1262   72.0694  223.6833 H   0  0  0  0  0  0  0  0  0  0  0  0
  137.3905   70.7716  222.5123 H   0  0  0  0  0  0  0  0  0  0  0  0
  1  2  1  0
  2  3  1  0
  3  4  2  0
  3  5  1  0
  5  6  1  0
  6  7  2  0
  7  8  1  0
  8  9  2  0
  9 10  1  0
 10 11  2  0
  5 12  1  0
 12 13  1  0
 13 14  1  0
 14 15  1  0
 15 16  1  0
 16 17  2  0
 16 18  1  0
 18 19  1  0
 18 20  1  0
 20 21  1  0
 21 22  1  0
 22 23  2  0
 23 24  1  0
 24 25  2  0
 25 26  1  0
 26 27  2  0
 27 28  1  0
 15 29  1  0
 29 30  1  0
 11  6  1  0
 30 12  1  0
 28 20  1  0
 27 22  1  0
  1 31  1  0
  1 32  1  0
  1 33  1  0
  2 34  1  0
  2 35  1  0
  7 36  1  0
  8 37  1  0
  9 38  1  0
 10 39  1  0
 11 40  1  0
 12 41  1  0
 13 42  1  0
 13 43  1  0
 14 44  1  0
 14 45  1  0
 18 46  1  1
 19 47  1  0
 19 48  1  0
 20 49  1  0
 21 50  1  0
 21 51  1  0
 23 52  1  0
 24 53  1  0
 25 54  1  0
 26 55  1  0
 28 56  1  0
 28 57  1  0
 29 58  1  0
 29 59  1  0
 30 60  1  0
 30 61  1  0
M  END
>  <smiles>  (11) 
CCC(=O)N(c1ccccc1)C1CCN(C(=O)[C@@H](N)C2Cc3ccccc3C2)CC1

>  <score_type>  (11) 
oracle

>  <origin>  (11) 
autodockgpu

>  <m_score__min__energy>  (11) 
-8.75

>  <m_primary>  (11) 
energy

>  <rmsd>  (11) 
5.703333936126352

>  <m_score__min__rmsd>  (11) 
5.703333936126352

>  <meeko>  (11) 
{"free_energy": -8.64, "intermolecular_energy": -10.73, "internal_energy": -1.41, "cluster_size": 13, "cluster_id": 1, "rank_in_cluster": 6}

>  <energy>  (11) 
-8.6

>  <cluster_rmsd>  (11) 
0.69

>  <cluster>  (11) 
1

$$$$

     RDKit          3D

 61 64  0  0  0  0  0  0  0  0999 V2000
  146.3360   73.0370  221.7790 C   0  0  0  0  0  0  0  0  0  0  0  0
  145.8500   73.8170  220.5350 C   0  0  0  0  0  0  0  0  0  0  0  0
  145.2190   72.9160  219.5800 C   0  0  0  0  0  0  0  0  0  0  0  0
  145.6840   72.9370  218.3810 O   0  0  0  0  0  0  0  0  0  0  0  0
  144.1570   72.0120  219.7920 N   0  0  0  0  0  0  0  0  0  0  0  0
  144.5360   70.6120  219.6530 C   0  0  0  0  0  0  0  0  0  0  0  0
  145.8750   70.4280  219.3220 C   0  0  0  0  0  0  0  0  0  0  0  0
  146.3060   69.1070  219.1730 C   0  0  0  0  0  0  0  0  0  0  0  0
  145.4390   68.0510  219.3470 C   0  0  0  0  0  0  0  0  0  0  0  0
  144.0990   68.2890  219.6790 C   0  0  0  0  0  0  0  0  0  0  0  0
  143.6480   69.5980  219.8320 C   0  0  0  0  0  0  0  0  0  0  0  0
  142.8120   72.2740  220.1270 C   0  0  0  0  0  0  0  0  0  0  0  0
  142.4860   73.6580  220.6040 C   0  0  0  0  0  0  0  0  0  0  0  0
  141.2270   73.4980  221.4810 C   0  0  0  0  0  0  0  0  0  0  0  0
  140.4110   72.4920  220.8570 N   0  0  0  0  0  0  0  0  0  0  0  0
  139.5300   71.6140  221.5180 C   0  0  0  0  0  0  0  0  0  0  0  0
  138.9010   70.7580  220.7930 O   0  0  0  0  0  0  0  0  0  0  0  0
  139.2330   71.5550  222.9480 C   0  0  1  0  0  0  0  0  0  0  0  0
  137.9260   71.0500  223.2580 N   0  0  0  0  0  0  0  0  0  0  0  0
  140.2280   70.6980  223.7120 C   0  0  0  0  0  0  0  0  0  0  0  0
  139.5990   69.6150  224.5240 C   0  0  0  0  0  0  0  0  0  0  0  0
  139.7810   70.0620  225.9310 C   0  0  0  0  0  0  0  0  0  0  0  0
  139.2820   69.6030  227.1510 C   0  0  0  0  0  0  0  0  0  0  0  0
  139.6070   70.2040  228.3500 C   0  0  0  0  0  0  0  0  0  0  0  0
  140.4610   71.3090  228.3750 C   0  0  0  0  0  0  0  0  0  0  0  0
  140.9630   71.7740  227.1790 C   0  0  0  0  0  0  0  0  0  0  0  0
  140.6220   71.1540  225.9820 C   0  0  0  0  0  0  0  0  0  0  0  0
  141.0760   71.5300  224.6150 C   0  0  0  0  0  0  0  0  0  0  0  0
  140.4910   72.3930  219.3990 C   0  0  0  0  0  0  0  0  0  0  0  0
  141.9040   72.0440  218.9200 C   0  0  0  0  0  0  0  0  0  0  0  0
  146.0101   73.5601  222.6902 H   0  0  0  0  0  0  0  0  0  0  0  0
  145.9095   72.0231  221.7658 H   0  0  0  0  0  0  0  0  0  0  0  0
  147.4341   72.9731  221.7658 H   0  0  0  0  0  0  0  0  0  0  0  0
  145.1219   74.5798  220.8481 H   0  0  0  0  0  0  0  0  0  0  0  0
  146.7168   74.2937  220.0539 H   0  0  0  0  0  0  0  0  0  0  0  0
  146.5590   71.2785  219.1847 H   0  0  0  0  0  0  0  0  0  0  0  0
  147.3558   68.9071  218.9123 H   0  0  0  0  0  0  0  0  0  0  0  0
  145.7994   67.0189  219.2250 H   0  0  0  0  0  0  0  0  0  0  0  0
  143.4061   67.4460  219.8182 H   0  0  0  0  0  0  0  0  0  0  0  0
  142.5994   69.8062  220.0912 H   0  0  0  0  0  0  0  0  0  0  0  0
  142.6445   71.5813  220.9649 H   0  0  0  0  0  0  0  0  0  0  0  0
  143.3181   74.0682  221.1950 H   0  0  0  0  0  0  0  0  0  0  0  0
  142.3185   74.3522  219.7673 H   0  0  0  0  0  0  0  0  0  0  0  0
  141.5100   73.1804  222.4954 H   0  0  0  0  0  0  0  0  0  0  0  0
  140.6827   74.4500  221.5674 H   0  0  0  0  0  0  0  0  0  0  0  0
  139.2963   72.6079  223.2599 H   0  0  0  0  0  0  0  0  0  0  0  0
  137.4090   70.6760  222.4340 H   0  0  0  0  0  0  0  0  0  0  0  0
  137.3230   71.7700  223.7030 H   0  0  0  0  0  0  0  0  0  0  0  0
  140.8404   70.2205  222.9329 H   0  0  0  0  0  0  0  0  0  0  0  0
  138.5307   69.5156  224.2812 H   0  0  0  0  0  0  0  0  0  0  0  0
  140.0491   68.6296  224.3332 H   0  0  0  0  0  0  0  0  0  0  0  0
  138.6077   68.7339  227.1570 H   0  0  0  0  0  0  0  0  0  0  0  0
  139.1918   69.8112  229.2899 H   0  0  0  0  0  0  0  0  0  0  0  0
  140.7260   71.7956  229.3252 H   0  0  0  0  0  0  0  0  0  0  0  0
  141.6385   72.6421  227.1711 H   0  0  0  0  0  0  0  0  0  0  0  0
  140.9110   72.6015  224.4290 H   0  0  0  0  0  0  0  0  0  0  0  0
  142.1518   71.3576  224.4636 H   0  0  0  0  0  0  0  0  0  0  0  0
  139.7978   71.6098  219.0584 H   0  0  0  0  0  0  0  0  0  0  0  0
  140.2241   73.3738  218.9785 H   0  0  0  0  0  0  0  0  0  0  0  0
  141.9521   70.9935  218.5972 H   0  0  0  0  0  0  0  0  0  0  0  0
  142.2064   72.6578  218.0587 H   0  0  0  0  0  0  0  0  0  0  0  0
  1  2  1  0
  2  3  1  0
  3  4  2  0
  3  5  1  0
  5  6  1  0
  6  7  2  0
  7  8  1  0
  8  9  2  0
  9 10  1  0
 10 11  2  0
  5 12  1  0
 12 13  1  0
 13 14  1  0
 14 15  1  0
 15 16  1  0
 16 17  2  0
 16 18  1  0
 18 19  1  0
 18 20  1  0
 20 21  1  0
 21 22  1  0
 22 23  2  0
 23 24  1  0
 24 25  2  0
 25 26  1  0
 26 27  2  0
 27 28  1  0
 15 29  1  0
 29 30  1  0
 11  6  1  0
 30 12  1  0
 28 20  1  0
 27 22  1  0
  1 31  1  0
  1 32  1  0
  1 33  1  0
  2 34  1  0
  2 35  1  0
  7 36  1  0
  8 37  1  0
  9 38  1  0
 10 39  1  0
 11 40  1  0
 12 41  1  0
 13 42  1  0
 13 43  1  0
 14 44  1  0
 14 45  1  0
 18 46  1  1
 19 47  1  0
 19 48  1  0
 20 49  1  0
 21 50  1  0
 21 51  1  0
 23 52  1  0
 24 53  1  0
 25 54  1  0
 26 55  1  0
 28 56  1  0
 28 57  1  0
 29 58  1  0
 29 59  1  0
 30 60  1  0
 30 61  1  0
M  END
>  <smiles>  (12) 
CCC(=O)N(c1ccccc1)C1CCN(C(=O)[C@@H](N)C2Cc3ccccc3C2)CC1

>  <score_type>  (12) 
oracle

>  <origin>  (12) 
autodockgpu

>  <m_score__min__energy>  (12) 
-8.75

>  <m_primary>  (12) 
energy

>  <rmsd>  (12) 
9.374196432610074

>  <m_score__min__rmsd>  (12) 
9.374196432610074

>  <meeko>  (12) 
{"free_energy": -7.88, "intermolecular_energy": -9.97, "internal_energy": -2.25, "cluster_size": 6, "cluster_id": 3, "rank_in_cluster": 1}

>  <energy>  (12) 
-8.42

>  <cluster_rmsd>  (12) 
0.68

>  <cluster>  (12) 
1

$$$$

     RDKit          3D

 61 64  0  0  0  0  0  0  0  0999 V2000
  143.0380   71.8860  220.8080 C   0  0  0  0  0  0  0  0  0  0  0  0
  141.4920   71.8320  220.8010 C   0  0  0  0  0  0  0  0  0  0  0  0
  140.9370   72.9940  221.4820 C   0  0  0  0  0  0  0  0  0  0  0  0
  140.6460   72.8420  222.7250 O   0  0  0  0  0  0  0  0  0  0  0  0
  140.6750   74.2780  220.9610 N   0  0  0  0  0  0  0  0  0  0  0  0
  139.4310   74.8670  221.4380 C   0  0  0  0  0  0  0  0  0  0  0  0
  138.2930   74.2920  220.8810 C   0  0  0  0  0  0  0  0  0  0  0  0
  137.0630   74.8100  221.2960 C   0  0  0  0  0  0  0  0  0  0  0  0
  136.9960   75.8380  222.2110 C   0  0  0  0  0  0  0  0  0  0  0  0
  138.1710   76.3840  222.7430 C   0  0  0  0  0  0  0  0  0  0  0  0
  139.4080   75.8820  222.3420 C   0  0  0  0  0  0  0  0  0  0  0  0
  141.4440   75.0570  220.0700 C   0  0  0  0  0  0  0  0  0  0  0  0
  142.9080   75.1880  220.3700 C   0  0  0  0  0  0  0  0  0  0  0  0
  143.3360   76.5200  219.7200 C   0  0  0  0  0  0  0  0  0  0  0  0
  142.6060   76.6350  218.4880 N   0  0  0  0  0  0  0  0  0  0  0  0
  142.2060   77.8370  217.8720 C   0  0  0  0  0  0  0  0  0  0  0  0
  141.5320   77.7410  216.7810 O   0  0  0  0  0  0  0  0  0  0  0  0
  142.4680   79.2020  218.3240 C   0  0  1  0  0  0  0  0  0  0  0  0
  142.6080   80.1570  217.2610 N   0  0  0  0  0  0  0  0  0  0  0  0
  141.3800   79.7260  219.2460 C   0  0  0  0  0  0  0  0  0  0  0  0
  141.7980   80.8950  220.0740 C   0  0  0  0  0  0  0  0  0  0  0  0
  141.9000   80.3470  221.4530 C   0  0  0  0  0  0  0  0  0  0  0  0
  142.4000   80.8590  222.6510 C   0  0  0  0  0  0  0  0  0  0  0  0
  142.3800   80.1350  223.8250 C   0  0  0  0  0  0  0  0  0  0  0  0
  141.8490   78.8440  223.8470 C   0  0  0  0  0  0  0  0  0  0  0  0
  141.3490   78.3230  222.6730 C   0  0  0  0  0  0  0  0  0  0  0  0
  141.3800   79.0700  221.5010 C   0  0  0  0  0  0  0  0  0  0  0  0
  140.8840   78.6550  220.1590 C   0  0  0  0  0  0  0  0  0  0  0  0
  142.2710   75.3850  217.8030 C   0  0  0  0  0  0  0  0  0  0  0  0
  141.3770   74.4800  218.6580 C   0  0  0  0  0  0  0  0  0  0  0  0
  143.3997   71.8986  221.8467 H   0  0  0  0  0  0  0  0  0  0  0  0
  143.4381   71.0013  220.2911 H   0  0  0  0  0  0  0  0  0  0  0  0
  143.3754   72.7965  220.2911 H   0  0  0  0  0  0  0  0  0  0  0  0
  141.1352   71.8177  219.7606 H   0  0  0  0  0  0  0  0  0  0  0  0
  141.1658   70.9225  221.3268 H   0  0  0  0  0  0  0  0  0  0  0  0
  138.3580   73.4715  220.1512 H   0  0  0  0  0  0  0  0  0  0  0  0
  136.1330   74.3900  220.8853 H   0  0  0  0  0  0  0  0  0  0  0  0
  136.0175   76.2308  222.5244 H   0  0  0  0  0  0  0  0  0  0  0  0
  138.1179   77.2047  223.4735 H   0  0  0  0  0  0  0  0  0  0  0  0
  140.3427   76.2970  222.7471 H   0  0  0  0  0  0  0  0  0  0  0  0
  140.9870   76.0515  220.1804 H   0  0  0  0  0  0  0  0  0  0  0  0
  143.0782   75.2166  221.4564 H   0  0  0  0  0  0  0  0  0  0  0  0
  143.4854   74.3363  219.9811 H   0  0  0  0  0  0  0  0  0  0  0  0
  143.0914   77.3615  220.3849 H   0  0  0  0  0  0  0  0  0  0  0  0
  144.4208   76.5398  219.5389 H   0  0  0  0  0  0  0  0  0  0  0  0
  143.4265   79.1106  218.8559 H   0  0  0  0  0  0  0  0  0  0  0  0
  142.4800   79.7540  216.3090 H   0  0  0  0  0  0  0  0  0  0  0  0
  143.5340   80.6290  217.2790 H   0  0  0  0  0  0  0  0  0  0  0  0
  140.5795   80.0627  218.5709 H   0  0  0  0  0  0  0  0  0  0  0  0
  142.7695   81.2850  219.7362 H   0  0  0  0  0  0  0  0  0  0  0  0
  141.0907   81.7346  220.0053 H   0  0  0  0  0  0  0  0  0  0  0  0
  142.8242   81.8739  222.6594 H   0  0  0  0  0  0  0  0  0  0  0  0
  142.7842   80.5767  224.7478 H   0  0  0  0  0  0  0  0  0  0  0  0
  141.8301   78.2576  224.7775 H   0  0  0  0  0  0  0  0  0  0  0  0
  140.9225   77.3091  222.6634 H   0  0  0  0  0  0  0  0  0  0  0  0
  141.2971   77.6760  219.8746 H   0  0  0  0  0  0  0  0  0  0  0  0
  139.7902   78.5433  220.1270 H   0  0  0  0  0  0  0  0  0  0  0  0
  141.7431   75.6236  216.8679 H   0  0  0  0  0  0  0  0  0  0  0  0
  143.2089   74.8453  217.6056 H   0  0  0  0  0  0  0  0  0  0  0  0
  140.3426   74.4976  218.2842 H   0  0  0  0  0  0  0  0  0  0  0  0
  141.7104   73.4322  218.6291 H   0  0  0  0  0  0  0  0  0  0  0  0
  1  2  1  0
  2  3  1  0
  3  4  2  0
  3  5  1  0
  5  6  1  0
  6  7  2  0
  7  8  1  0
  8  9  2  0
  9 10  1  0
 10 11  2  0
  5 12  1  0
 12 13  1  0
 13 14  1  0
 14 15  1  0
 15 16  1  0
 16 17  2  0
 16 18  1  0
 18 19  1  0
 18 20  1  0
 20 21  1  0
 21 22  1  0
 22 23  2  0
 23 24  1  0
 24 25  2  0
 25 26  1  0
 26 27  2  0
 27 28  1  0
 15 29  1  0
 29 30  1  0
 11  6  1  0
 30 12  1  0
 28 20  1  0
 27 22  1  0
  1 31  1  0
  1 32  1  0
  1 33  1  0
  2 34  1  0
  2 35  1  0
  7 36  1  0
  8 37  1  0
  9 38  1  0
 10 39  1  0
 11 40  1  0
 12 41  1  0
 13 42  1  0
 13 43  1  0
 14 44  1  0
 14 45  1  0
 18 46  1  1
 19 47  1  0
 19 48  1  0
 20 49  1  0
 21 50  1  0
 21 51  1  0
 23 52  1  0
 24 53  1  0
 25 54  1  0
 26 55  1  0
 28 56  1  0
 28 57  1  0
 29 58  1  0
 29 59  1  0
 30 60  1  0
 30 61  1  0
M  END
>  <smiles>  (13) 
CCC(=O)N(c1ccccc1)C1CCN(C(=O)[C@@H](N)C2Cc3ccccc3C2)CC1

>  <score_type>  (13) 
oracle

>  <origin>  (13) 
autodockgpu

>  <m_score__min__energy>  (13) 
-8.75

>  <m_primary>  (13) 
energy

>  <rmsd>  (13) 
3.977876750084505

>  <m_score__min__rmsd>  (13) 
3.977876750084505

>  <meeko>  (13) 
{"free_energy": -6.9, "intermolecular_energy": -8.99, "internal_energy": -3.17, "cluster_size": 10, "cluster_id": 7, "rank_in_cluster": 7}

>  <energy>  (13) 
-8.07

>  <cluster_rmsd>  (13) 
0.87

>  <cluster>  (13) 
1

$$$$

     RDKit          3D

 61 64  0  0  0  0  0  0  0  0999 V2000
  138.7450   67.7890  222.6830 C   0  0  0  0  0  0  0  0  0  0  0  0
  137.4050   68.4470  223.0890 C   0  0  0  0  0  0  0  0  0  0  0  0
  137.6360   69.5480  224.0150 C   0  0  0  0  0  0  0  0  0  0  0  0
  136.7820   69.6820  224.9670 O   0  0  0  0  0  0  0  0  0  0  0  0
  138.6810   70.4950  224.0140 N   0  0  0  0  0  0  0  0  0  0  0  0
  139.5340   70.4370  225.1930 C   0  0  0  0  0  0  0  0  0  0  0  0
  139.5010   69.2070  225.8440 C   0  0  0  0  0  0  0  0  0  0  0  0
  140.2980   69.0820  226.9860 C   0  0  0  0  0  0  0  0  0  0  0  0
  141.0710   70.1310  227.4330 C   0  0  0  0  0  0  0  0  0  0  0  0
  141.0690   71.3500  226.7420 C   0  0  0  0  0  0  0  0  0  0  0  0
  140.2820   71.4960  225.6020 C   0  0  0  0  0  0  0  0  0  0  0  0
  139.0130   71.4610  223.0400 C   0  0  0  0  0  0  0  0  0  0  0  0
  140.3410   71.3110  222.3570 C   0  0  0  0  0  0  0  0  0  0  0  0
  140.7240   72.7340  221.9010 C   0  0  0  0  0  0  0  0  0  0  0  0
  139.5080   73.3780  221.4830 N   0  0  0  0  0  0  0  0  0  0  0  0
  139.2380   74.7580  221.5510 C   0  0  0  0  0  0  0  0  0  0  0  0
  138.0780   75.1490  221.1540 O   0  0  0  0  0  0  0  0  0  0  0  0
  140.1250   75.8200  222.0210 C   0  0  1  0  0  0  0  0  0  0  0  0
  141.4920   75.6710  221.6100 N   0  0  0  0  0  0  0  0  0  0  0  0
  139.6760   77.1970  221.5630 C   0  0  0  0  0  0  0  0  0  0  0  0
  140.6980   77.9340  220.7620 C   0  0  0  0  0  0  0  0  0  0  0  0
  141.1580   79.0200  221.6680 C   0  0  0  0  0  0  0  0  0  0  0  0
  142.2050   79.9410  221.6020 C   0  0  0  0  0  0  0  0  0  0  0  0
  142.4280   80.8710  222.5960 C   0  0  0  0  0  0  0  0  0  0  0  0
  141.5980   80.9170  223.7180 C   0  0  0  0  0  0  0  0  0  0  0  0
  140.5600   80.0150  223.7980 C   0  0  0  0  0  0  0  0  0  0  0  0
  140.3520   79.0850  222.7850 C   0  0  0  0  0  0  0  0  0  0  0  0
  139.2830   78.0510  222.7220 C   0  0  0  0  0  0  0  0  0  0  0  0
  138.4710   72.5170  220.9130 C   0  0  0  0  0  0  0  0  0  0  0  0
  137.9830   71.4620  221.9120 C   0  0  0  0  0  0  0  0  0  0  0  0
  139.3069   67.5131  223.5875 H   0  0  0  0  0  0  0  0  0  0  0  0
  138.5446   66.8868  222.0864 H   0  0  0  0  0  0  0  0  0  0  0  0
  139.3363   68.4992  222.0864 H   0  0  0  0  0  0  0  0  0  0  0  0
  136.9029   68.8308  222.1886 H   0  0  0  0  0  0  0  0  0  0  0  0
  136.7744   67.6933  223.5833 H   0  0  0  0  0  0  0  0  0  0  0  0
  138.8798   68.3760  225.4787 H   0  0  0  0  0  0  0  0  0  0  0  0
  140.3079   68.1299  227.5368 H   0  0  0  0  0  0  0  0  0  0  0  0
  141.6908   70.0115  228.3339 H   0  0  0  0  0  0  0  0  0  0  0  0
  141.6862   72.1880  227.0982 H   0  0  0  0  0  0  0  0  0  0  0  0
  140.2661   72.4451  225.0462 H   0  0  0  0  0  0  0  0  0  0  0  0
  139.0422   72.3862  223.6343 H   0  0  0  0  0  0  0  0  0  0  0  0
  141.0919   70.9148  223.0564 H   0  0  0  0  0  0  0  0  0  0  0  0
  140.2920   70.6078  221.5125 H   0  0  0  0  0  0  0  0  0  0  0  0
  141.1792   73.2890  222.7345 H   0  0  0  0  0  0  0  0  0  0  0  0
  141.4557   72.7018  221.0803 H   0  0  0  0  0  0  0  0  0  0  0  0
  140.0649   75.7286  223.1155 H   0  0  0  0  0  0  0  0  0  0  0  0
  141.9600   74.8220  221.9920 H   0  0  0  0  0  0  0  0  0  0  0  0
  142.0730   76.4920  221.8740 H   0  0  0  0  0  0  0  0  0  0  0  0
  138.8119   77.0048  220.9100 H   0  0  0  0  0  0  0  0  0  0  0  0
  141.5335   77.2716  220.4914 H   0  0  0  0  0  0  0  0  0  0  0  0
  140.2932   78.3190  219.8144 H   0  0  0  0  0  0  0  0  0  0  0  0
  142.8739   79.9245  220.7289 H   0  0  0  0  0  0  0  0  0  0  0  0
  143.2640   81.5801  222.5043 H   0  0  0  0  0  0  0  0  0  0  0  0
  141.7686   81.6539  224.5167 H   0  0  0  0  0  0  0  0  0  0  0  0
  139.8900   80.0304  224.6703 H   0  0  0  0  0  0  0  0  0  0  0  0
  139.2539   77.4614  223.6502 H   0  0  0  0  0  0  0  0  0  0  0  0
  138.2792   78.4858  222.6069 H   0  0  0  0  0  0  0  0  0  0  0  0
  137.6173   73.1419  220.6120 H   0  0  0  0  0  0  0  0  0  0  0  0
  138.9048   71.9907  220.0500 H   0  0  0  0  0  0  0  0  0  0  0  0
  136.9889   71.7300  222.2993 H   0  0  0  0  0  0  0  0  0  0  0  0
  137.8883   70.4706  221.4449 H   0  0  0  0  0  0  0  0  0  0  0  0
  1  2  1  0
  2  3  1  0
  3  4  2  0
  3  5  1  0
  5  6  1  0
  6  7  2  0
  7  8  1  0
  8  9  2  0
  9 10  1  0
 10 11  2  0
  5 12  1  0
 12 13  1  0
 13 14  1  0
 14 15  1  0
 15 16  1  0
 16 17  2  0
 16 18  1  0
 18 19  1  0
 18 20  1  0
 20 21  1  0
 21 22  1  0
 22 23  2  0
 23 24  1  0
 24 25  2  0
 25 26  1  0
 26 27  2  0
 27 28  1  0
 15 29  1  0
 29 30  1  0
 11  6  1  0
 30 12  1  0
 28 20  1  0
 27 22  1  0
  1 31  1  0
  1 32  1  0
  1 33  1  0
  2 34  1  0
  2 35  1  0
  7 36  1  0
  8 37  1  0
  9 38  1  0
 10 39  1  0
 11 40  1  0
 12 41  1  0
 13 42  1  0
 13 43  1  0
 14 44  1  0
 14 45  1  0
 18 46  1  1
 19 47  1  0
 19 48  1  0
 20 49  1  0
 21 50  1  0
 21 51  1  0
 23 52  1  0
 24 53  1  0
 25 54  1  0
 26 55  1  0
 28 56  1  0
 28 57  1  0
 29 58  1  0
 29 59  1  0
 30 60  1  0
 30 61  1  0
M  END
>  <smiles>  (14) 
CCC(=O)N(c1ccccc1)C1CCN(C(=O)[C@@H](N)C2Cc3ccccc3C2)CC1

>  <score_type>  (14) 
oracle

>  <origin>  (14) 
autodockgpu

>  <m_score__min__energy>  (14) 
-8.75

>  <m_primary>  (14) 
energy

>  <rmsd>  (14) 
5.628929572230267

>  <m_score__min__rmsd>  (14) 
5.628929572230267

>  <meeko>  (14) 
{"free_energy": -8.07, "intermolecular_energy": -10.16, "internal_energy": -1.5, "cluster_size": 13, "cluster_id": 1, "rank_in_cluster": 13}

>  <energy>  (14) 
-8.13

>  <cluster_rmsd>  (14) 
0.0

>  <cluster>  (14) 
2

$$$$

     RDKit          3D

 61 64  0  0  0  0  0  0  0  0999 V2000
  136.3280   68.9080  223.4450 C   0  0  0  0  0  0  0  0  0  0  0  0
  137.0170   69.1420  224.8100 C   0  0  0  0  0  0  0  0  0  0  0  0
  138.4470   69.3560  224.6310 C   0  0  0  0  0  0  0  0  0  0  0  0
  139.1670   68.3010  224.4820 O   0  0  0  0  0  0  0  0  0  0  0  0
  139.1580   70.5730  224.5950 N   0  0  0  0  0  0  0  0  0  0  0  0
  139.8930   70.8650  225.8180 C   0  0  0  0  0  0  0  0  0  0  0  0
  139.6100   69.9900  226.8610 C   0  0  0  0  0  0  0  0  0  0  0  0
  140.2830   70.2130  228.0650 C   0  0  0  0  0  0  0  0  0  0  0  0
  141.1780   71.2510  228.1990 C   0  0  0  0  0  0  0  0  0  0  0  0
  141.4290   72.1070  227.1180 C   0  0  0  0  0  0  0  0  0  0  0  0
  140.7690   71.9020  225.9080 C   0  0  0  0  0  0  0  0  0  0  0  0
  139.2600   71.5190  223.5520 C   0  0  0  0  0  0  0  0  0  0  0  0
  140.3800   71.3320  222.5710 C   0  0  0  0  0  0  0  0  0  0  0  0
  140.6660   72.7410  222.0110 C   0  0  0  0  0  0  0  0  0  0  0  0
  139.3970   73.4050  221.8880 N   0  0  0  0  0  0  0  0  0  0  0  0
  139.1760   74.7920  221.9950 C   0  0  0  0  0  0  0  0  0  0  0  0
  137.9620   75.2020  221.8840 O   0  0  0  0  0  0  0  0  0  0  0  0
  140.1690   75.8410  222.2180 C   0  0  1  0  0  0  0  0  0  0  0  0
  141.4480   75.5770  221.6220 N   0  0  0  0  0  0  0  0  0  0  0  0
  139.7120   77.1930  221.6980 C   0  0  0  0  0  0  0  0  0  0  0  0
  140.7410   77.9120  220.8910 C   0  0  0  0  0  0  0  0  0  0  0  0
  141.1670   79.0380  221.7640 C   0  0  0  0  0  0  0  0  0  0  0  0
  142.2020   79.9710  221.6850 C   0  0  0  0  0  0  0  0  0  0  0  0
  142.3930   80.9410  222.6470 C   0  0  0  0  0  0  0  0  0  0  0  0
  141.5380   81.0180  223.7490 C   0  0  0  0  0  0  0  0  0  0  0  0
  140.5100   80.1050  223.8420 C   0  0  0  0  0  0  0  0  0  0  0  0
  140.3360   79.1350  222.8610 C   0  0  0  0  0  0  0  0  0  0  0  0
  139.2830   78.0840  222.8150 C   0  0  0  0  0  0  0  0  0  0  0  0
  138.2380   72.5590  221.6020 C   0  0  0  0  0  0  0  0  0  0  0  0
  137.9880   71.5280  222.7080 C   0  0  0  0  0  0  0  0  0  0  0  0
  135.2981   68.5582  223.6093 H   0  0  0  0  0  0  0  0  0  0  0  0
  136.3091   69.8501  222.8775 H   0  0  0  0  0  0  0  0  0  0  0  0
  136.8868   68.1492  222.8775 H   0  0  0  0  0  0  0  0  0  0  0  0
  136.5760   70.0277  225.2907 H   0  0  0  0  0  0  0  0  0  0  0  0
  136.8670   68.2533  225.4407 H   0  0  0  0  0  0  0  0  0  0  0  0
  138.8928   69.1642  226.7441 H   0  0  0  0  0  0  0  0  0  0  0  0
  140.0947   69.5479  228.9207 H   0  0  0  0  0  0  0  0  0  0  0  0
  141.6968   71.4086  229.1561 H   0  0  0  0  0  0  0  0  0  0  0  0
  142.1435   72.9366  227.2242 H   0  0  0  0  0  0  0  0  0  0  0  0
  140.9517   72.5621  225.0472 H   0  0  0  0  0  0  0  0  0  0  0  0
  139.4480   72.4512  224.1049 H   0  0  0  0  0  0  0  0  0  0  0  0
  141.2709   70.9289  223.0748 H   0  0  0  0  0  0  0  0  0  0  0  0
  140.1158   70.6192  221.7760 H   0  0  0  0  0  0  0  0  0  0  0  0
  141.3190   73.2969  222.7000 H   0  0  0  0  0  0  0  0  0  0  0  0
  141.1767   72.6828  221.0385 H   0  0  0  0  0  0  0  0  0  0  0  0
  140.2764   75.8549  223.3127 H   0  0  0  0  0  0  0  0  0  0  0  0
  141.8970   74.6970  221.9530 H   0  0  0  0  0  0  0  0  0  0  0  0
  142.1220   76.3510  221.7840 H   0  0  0  0  0  0  0  0  0  0  0  0
  138.8647   76.9652  221.0345 H   0  0  0  0  0  0  0  0  0  0  0  0
  141.5906   77.2512  220.6640 H   0  0  0  0  0  0  0  0  0  0  0  0
  140.3521   78.2546  219.9207 H   0  0  0  0  0  0  0  0  0  0  0  0
  142.8886   79.9315  220.8265 H   0  0  0  0  0  0  0  0  0  0  0  0
  143.2221   81.6569  222.5459 H   0  0  0  0  0  0  0  0  0  0  0  0
  141.6815   81.7872  224.5222 H   0  0  0  0  0  0  0  0  0  0  0  0
  139.8216   80.1439  224.6991 H   0  0  0  0  0  0  0  0  0  0  0  0
  139.2422   77.5294  223.7641 H   0  0  0  0  0  0  0  0  0  0  0  0
  138.2760   78.4996  222.6626 H   0  0  0  0  0  0  0  0  0  0  0  0
  137.3479   73.1981  221.5055 H   0  0  0  0  0  0  0  0  0  0  0  0
  138.4406   72.0120  220.6694 H   0  0  0  0  0  0  0  0  0  0  0  0
  137.1227   71.8227  223.3199 H   0  0  0  0  0  0  0  0  0  0  0  0
  137.7648   70.5330  222.2956 H   0  0  0  0  0  0  0  0  0  0  0  0
  1  2  1  0
  2  3  1  0
  3  4  2  0
  3  5  1  0
  5  6  1  0
  6  7  2  0
  7  8  1  0
  8  9  2  0
  9 10  1  0
 10 11  2  0
  5 12  1  0
 12 13  1  0
 13 14  1  0
 14 15  1  0
 15 16  1  0
 16 17  2  0
 16 18  1  0
 18 19  1  0
 18 20  1  0
 20 21  1  0
 21 22  1  0
 22 23  2  0
 23 24  1  0
 24 25  2  0
 25 26  1  0
 26 27  2  0
 27 28  1  0
 15 29  1  0
 29 30  1  0
 11  6  1  0
 30 12  1  0
 28 20  1  0
 27 22  1  0
  1 31  1  0
  1 32  1  0
  1 33  1  0
  2 34  1  0
  2 35  1  0
  7 36  1  0
  8 37  1  0
  9 38  1  0
 10 39  1  0
 11 40  1  0
 12 41  1  0
 13 42  1  0
 13 43  1  0
 14 44  1  0
 14 45  1  0
 18 46  1  1
 19 47  1  0
 19 48  1  0
 20 49  1  0
 21 50  1  0
 21 51  1  0
 23 52  1  0
 24 53  1  0
 25 54  1  0
 26 55  1  0
 28 56  1  0
 28 57  1  0
 29 58  1  0
 29 59  1  0
 30 60  1  0
 30 61  1  0
M  END
>  <smiles>  (15) 
CCC(=O)N(c1ccccc1)C1CCN(C(=O)[C@@H](N)C2Cc3ccccc3C2)CC1

>  <score_type>  (15) 
oracle

>  <origin>  (15) 
autodockgpu

>  <m_score__min__energy>  (15) 
-8.75

>  <m_primary>  (15) 
energy

>  <rmsd>  (15) 
5.703710912417487

>  <m_score__min__rmsd>  (15) 
5.703710912417487

>  <meeko>  (15) 
{"free_energy": -8.75, "intermolecular_energy": -10.83, "internal_energy": -1.4, "cluster_size": 13, "cluster_id": 1, "rank_in_cluster": 2}

>  <energy>  (15) 
-7.88

>  <cluster_rmsd>  (15) 
0.0

>  <cluster>  (15) 
3

$$$$

     RDKit          3D

 61 64  0  0  0  0  0  0  0  0999 V2000
  140.3300   71.1300  219.8450 C   0  0  0  0  0  0  0  0  0  0  0  0
  141.4370   71.7080  220.7600 C   0  0  0  0  0  0  0  0  0  0  0  0
  140.9410   72.8640  221.4940 C   0  0  0  0  0  0  0  0  0  0  0  0
  140.6950   72.6840  222.7430 O   0  0  0  0  0  0  0  0  0  0  0  0
  140.6930   74.1690  221.0190 N   0  0  0  0  0  0  0  0  0  0  0  0
  139.4890   74.7790  221.5670 C   0  0  0  0  0  0  0  0  0  0  0  0
  138.3440   74.0070  221.3930 C   0  0  0  0  0  0  0  0  0  0  0  0
  137.1520   74.5340  221.8970 C   0  0  0  0  0  0  0  0  0  0  0  0
  137.1260   75.7570  222.5310 C   0  0  0  0  0  0  0  0  0  0  0  0
  138.3060   76.4970  222.6810 C   0  0  0  0  0  0  0  0  0  0  0  0
  139.5060   75.9900  222.1860 C   0  0  0  0  0  0  0  0  0  0  0  0
  141.4440   74.9500  220.1150 C   0  0  0  0  0  0  0  0  0  0  0  0
  142.9200   75.0480  220.3640 C   0  0  0  0  0  0  0  0  0  0  0  0
  143.3500   76.3840  219.7230 C   0  0  0  0  0  0  0  0  0  0  0  0
  142.5770   76.5360  218.5200 N   0  0  0  0  0  0  0  0  0  0  0  0
  142.1790   77.7570  217.9420 C   0  0  0  0  0  0  0  0  0  0  0  0
  141.4640   77.6940  216.8740 O   0  0  0  0  0  0  0  0  0  0  0  0
  142.4830   79.1080  218.4080 C   0  0  1  0  0  0  0  0  0  0  0  0
  142.6840   80.0630  217.3560 N   0  0  0  0  0  0  0  0  0  0  0  0
  141.3950   79.6690  219.3090 C   0  0  0  0  0  0  0  0  0  0  0  0
  141.8160   80.8650  220.0960 C   0  0  0  0  0  0  0  0  0  0  0  0
  141.9140   80.3660  221.4940 C   0  0  0  0  0  0  0  0  0  0  0  0
  142.4150   80.9190  222.6740 C   0  0  0  0  0  0  0  0  0  0  0  0
  142.3900   80.2360  223.8730 C   0  0  0  0  0  0  0  0  0  0  0  0
  141.8540   78.9490  223.9400 C   0  0  0  0  0  0  0  0  0  0  0  0
  141.3550   78.3890  222.7850 C   0  0  0  0  0  0  0  0  0  0  0  0
  141.3890   79.0930  221.5860 C   0  0  0  0  0  0  0  0  0  0  0  0
  140.8950   78.6330  220.2600 C   0  0  0  0  0  0  0  0  0  0  0  0
  142.1940   75.3060  217.8260 C   0  0  0  0  0  0  0  0  0  0  0  0
  141.3140   74.4020  218.6960 C   0  0  0  0  0  0  0  0  0  0  0  0
  139.5245   70.7094  220.4649 H   0  0  0  0  0  0  0  0  0  0  0  0
  139.9238   71.9311  219.2100 H   0  0  0  0  0  0  0  0  0  0  0  0
  140.7552   70.3388  219.2100 H   0  0  0  0  0  0  0  0  0  0  0  0
  141.7558   70.9351  221.4748 H   0  0  0  0  0  0  0  0  0  0  0  0
  142.2867   72.0212  220.1356 H   0  0  0  0  0  0  0  0  0  0  0  0
  138.3758   73.0320  220.8848 H   0  0  0  0  0  0  0  0  0  0  0  0
  136.2186   73.9628  221.7857 H   0  0  0  0  0  0  0  0  0  0  0  0
  136.1766   76.1532  222.9203 H   0  0  0  0  0  0  0  0  0  0  0  0
  138.2855   77.4735  223.1870 H   0  0  0  0  0  0  0  0  0  0  0  0
  140.4436   76.5551  222.2932 H   0  0  0  0  0  0  0  0  0  0  0  0
  141.0109   75.9507  220.2601 H   0  0  0  0  0  0  0  0  0  0  0  0
  143.1296   75.0530  221.4438 H   0  0  0  0  0  0  0  0  0  0  0  0
  143.4665   74.1932  219.9390 H   0  0  0  0  0  0  0  0  0  0  0  0
  143.1464   77.2172  220.4117 H   0  0  0  0  0  0  0  0  0  0  0  0
  144.4277   76.3869  219.5025 H   0  0  0  0  0  0  0  0  0  0  0  0
  143.4252   78.9758  218.9601 H   0  0  0  0  0  0  0  0  0  0  0  0
  142.5760   79.6680  216.3980 H   0  0  0  0  0  0  0  0  0  0  0  0
  143.6210   80.5090  217.4060 H   0  0  0  0  0  0  0  0  0  0  0  0
  140.5969   79.9841  218.6207 H   0  0  0  0  0  0  0  0  0  0  0  0
  142.7894   81.2393  219.7462 H   0  0  0  0  0  0  0  0  0  0  0  0
  141.1117   81.7041  219.9965 H   0  0  0  0  0  0  0  0  0  0  0  0
  142.8435   81.9318  222.6472 H   0  0  0  0  0  0  0  0  0  0  0  0
  142.7945   80.7083  224.7804 H   0  0  0  0  0  0  0  0  0  0  0  0
  141.8308   78.3963  224.8908 H   0  0  0  0  0  0  0  0  0  0  0  0
  140.9259   77.3765  222.8110 H   0  0  0  0  0  0  0  0  0  0  0  0
  141.3059   77.6433  220.0115 H   0  0  0  0  0  0  0  0  0  0  0  0
  139.8008   78.5241  220.2304 H   0  0  0  0  0  0  0  0  0  0  0  0
  141.6378   75.5715  216.9149 H   0  0  0  0  0  0  0  0  0  0  0  0
  143.1139   74.7527  217.5857 H   0  0  0  0  0  0  0  0  0  0  0  0
  140.2672   74.4468  218.3610 H   0  0  0  0  0  0  0  0  0  0  0  0
  141.6251   73.3487  218.6351 H   0  0  0  0  0  0  0  0  0  0  0  0
  1  2  1  0
  2  3  1  0
  3  4  2  0
  3  5  1  0
  5  6  1  0
  6  7  2  0
  7  8  1  0
  8  9  2  0
  9 10  1  0
 10 11  2  0
  5 12  1  0
 12 13  1  0
 13 14  1  0
 14 15  1  0
 15 16  1  0
 16 17  2  0
 16 18  1  0
 18 19  1  0
 18 20  1  0
 20 21  1  0
 21 22  1  0
 22 23  2  0
 23 24  1  0
 24 25  2  0
 25 26  1  0
 26 27  2  0
 27 28  1  0
 15 29  1  0
 29 30  1  0
 11  6  1  0
 30 12  1  0
 28 20  1  0
 27 22  1  0
  1 31  1  0
  1 32  1  0
  1 33  1  0
  2 34  1  0
  2 35  1  0
  7 36  1  0
  8 37  1  0
  9 38  1  0
 10 39  1  0
 11 40  1  0
 12 41  1  0
 13 42  1  0
 13 43  1  0
 14 44  1  0
 14 45  1  0
 18 46  1  1
 19 47  1  0
 19 48  1  0
 20 49  1  0
 21 50  1  0
 21 51  1  0
 23 52  1  0
 24 53  1  0
 25 54  1  0
 26 55  1  0
 28 56  1  0
 28 57  1  0
 29 58  1  0
 29 59  1  0
 30 60  1  0
 30 61  1  0
M  END
>  <smiles>  (16) 
CCC(=O)N(c1ccccc1)C1CCN(C(=O)[C@@H](N)C2Cc3ccccc3C2)CC1

>  <score_type>  (16) 
oracle

>  <origin>  (16) 
autodockgpu

>  <m_score__min__energy>  (16) 
-8.75

>  <m_primary>  (16) 
energy

>  <rmsd>  (16) 
3.985088830486984

>  <m_score__min__rmsd>  (16) 
3.985088830486984

>  <meeko>  (16) 
{"free_energy": -6.9, "intermolecular_energy": -8.99, "internal_energy": -3.05, "cluster_size": 10, "cluster_id": 7, "rank_in_cluster": 6}

>  <energy>  (16) 
-7.87

>  <cluster_rmsd>  (16) 
0.08

>  <cluster>  (16) 
3

$$$$

     RDKit          3D

 61 64  0  0  0  0  0  0  0  0999 V2000
  138.6640   68.0140  222.3080 C   0  0  0  0  0  0  0  0  0  0  0  0
  138.8780   68.0050  223.8400 C   0  0  0  0  0  0  0  0  0  0  0  0
  138.4340   69.2630  224.4260 C   0  0  0  0  0  0  0  0  0  0  0  0
  137.2890   69.2480  225.0110 O   0  0  0  0  0  0  0  0  0  0  0  0
  139.0960   70.5090  224.4430 N   0  0  0  0  0  0  0  0  0  0  0  0
  139.8420   70.7650  225.6680 C   0  0  0  0  0  0  0  0  0  0  0  0
  139.5760   69.8510  226.6840 C   0  0  0  0  0  0  0  0  0  0  0  0
  140.2600   70.0390  227.8880 C   0  0  0  0  0  0  0  0  0  0  0  0
  141.1480   71.0790  228.0480 C   0  0  0  0  0  0  0  0  0  0  0  0
  141.3800   71.9740  226.9950 C   0  0  0  0  0  0  0  0  0  0  0  0
  140.7100   71.8050  225.7860 C   0  0  0  0  0  0  0  0  0  0  0  0
  139.1430   71.5120  223.4520 C   0  0  0  0  0  0  0  0  0  0  0  0
  140.1230   71.3170  222.3330 C   0  0  0  0  0  0  0  0  0  0  0  0
  140.4410   72.7380  221.8220 C   0  0  0  0  0  0  0  0  0  0  0  0
  139.2170   73.4890  221.8930 N   0  0  0  0  0  0  0  0  0  0  0  0
  139.1100   74.8770  222.1040 C   0  0  0  0  0  0  0  0  0  0  0  0
  137.9230   75.3700  222.1650 O   0  0  0  0  0  0  0  0  0  0  0  0
  140.1940   75.8430  222.2640 C   0  0  1  0  0  0  0  0  0  0  0  0
  141.4420   75.4280  221.6890 N   0  0  0  0  0  0  0  0  0  0  0  0
  139.8600   77.1960  221.6580 C   0  0  0  0  0  0  0  0  0  0  0  0
  141.0150   77.8630  220.9880 C   0  0  0  0  0  0  0  0  0  0  0  0
  141.3550   78.9960  221.8900 C   0  0  0  0  0  0  0  0  0  0  0  0
  142.4230   79.8940  221.9370 C   0  0  0  0  0  0  0  0  0  0  0  0
  142.5120   80.8800  222.8970 C   0  0  0  0  0  0  0  0  0  0  0  0
  141.5170   81.0110  223.8670 C   0  0  0  0  0  0  0  0  0  0  0  0
  140.4550   80.1330  223.8350 C   0  0  0  0  0  0  0  0  0  0  0  0
  140.3840   79.1450  222.8590 C   0  0  0  0  0  0  0  0  0  0  0  0
  139.3120   78.1270  222.6880 C   0  0  0  0  0  0  0  0  0  0  0  0
  137.9750   72.7390  221.7020 C   0  0  0  0  0  0  0  0  0  0  0  0
  137.7840   71.6560  222.7700 C   0  0  0  0  0  0  0  0  0  0  0  0
  137.5871   68.0593  222.0885 H   0  0  0  0  0  0  0  0  0  0  0  0
  139.1641   68.8919  221.8731 H   0  0  0  0  0  0  0  0  0  0  0  0
  139.0886   67.0972  221.8731 H   0  0  0  0  0  0  0  0  0  0  0  0
  138.3026   67.1776  224.2808 H   0  0  0  0  0  0  0  0  0  0  0  0
  139.9503   67.8751  224.0481 H   0  0  0  0  0  0  0  0  0  0  0  0
  138.8643   69.0237  226.5461 H   0  0  0  0  0  0  0  0  0  0  0  0
  140.0859   69.3439  228.7226 H   0  0  0  0  0  0  0  0  0  0  0  0
  141.6763   71.2076  229.0042 H   0  0  0  0  0  0  0  0  0  0  0  0
  142.0880   72.8061  227.1228 H   0  0  0  0  0  0  0  0  0  0  0  0
  140.8788   72.4960  224.9469 H   0  0  0  0  0  0  0  0  0  0  0  0
  139.4612   72.3923  224.0297 H   0  0  0  0  0  0  0  0  0  0  0  0
  141.0360   70.8260  222.7009 H   0  0  0  0  0  0  0  0  0  0  0  0
  139.7165   70.6752  221.5374 H   0  0  0  0  0  0  0  0  0  0  0  0
  141.2091   73.2052  222.4558 H   0  0  0  0  0  0  0  0  0  0  0  0
  140.8274   72.7098  220.7925 H   0  0  0  0  0  0  0  0  0  0  0  0
  140.3050   75.9152  223.3560 H   0  0  0  0  0  0  0  0  0  0  0  0
  141.7950   74.5170  222.0530 H   0  0  0  0  0  0  0  0  0  0  0  0
  142.1930   76.1330  221.8320 H   0  0  0  0  0  0  0  0  0  0  0  0
  139.1056   76.9789  220.8874 H   0  0  0  0  0  0  0  0  0  0  0  0
  141.8646   77.1706  220.8940 H   0  0  0  0  0  0  0  0  0  0  0  0
  140.7759   78.1944  219.9667 H   0  0  0  0  0  0  0  0  0  0  0  0
  143.2200   79.8123  221.1832 H   0  0  0  0  0  0  0  0  0  0  0  0
  143.3714   81.5666  222.8983 H   0  0  0  0  0  0  0  0  0  0  0  0
  141.5788   81.7944  224.6368 H   0  0  0  0  0  0  0  0  0  0  0  0
  139.6570   80.2145  224.5877 H   0  0  0  0  0  0  0  0  0  0  0  0
  139.1218   77.5968  223.6328 H   0  0  0  0  0  0  0  0  0  0  0  0
  138.3505   78.5703  222.3897 H   0  0  0  0  0  0  0  0  0  0  0  0
  137.1274   73.4384  221.7509 H   0  0  0  0  0  0  0  0  0  0  0  0
  138.0272   72.2422  220.7220 H   0  0  0  0  0  0  0  0  0  0  0  0
  137.0192   71.9645  223.4980 H   0  0  0  0  0  0  0  0  0  0  0  0
  137.4443   70.7059  222.3319 H   0  0  0  0  0  0  0  0  0  0  0  0
  1  2  1  0
  2  3  1  0
  3  4  2  0
  3  5  1  0
  5  6  1  0
  6  7  2  0
  7  8  1  0
  8  9  2  0
  9 10  1  0
 10 11  2  0
  5 12  1  0
 12 13  1  0
 13 14  1  0
 14 15  1  0
 15 16  1  0
 16 17  2  0
 16 18  1  0
 18 19  1  0
 18 20  1  0
 20 21  1  0
 21 22  1  0
 22 23  2  0
 23 24  1  0
 24 25  2  0
 25 26  1  0
 26 27  2  0
 27 28  1  0
 15 29  1  0
 29 30  1  0
 11  6  1  0
 30 12  1  0
 28 20  1  0
 27 22  1  0
  1 31  1  0
  1 32  1  0
  1 33  1  0
  2 34  1  0
  2 35  1  0
  7 36  1  0
  8 37  1  0
  9 38  1  0
 10 39  1  0
 11 40  1  0
 12 41  1  0
 13 42  1  0
 13 43  1  0
 14 44  1  0
 14 45  1  0
 18 46  1  1
 19 47  1  0
 19 48  1  0
 20 49  1  0
 21 50  1  0
 21 51  1  0
 23 52  1  0
 24 53  1  0
 25 54  1  0
 26 55  1  0
 28 56  1  0
 28 57  1  0
 29 58  1  0
 29 59  1  0
 30 60  1  0
 30 61  1  0
M  END
>  <smiles>  (17) 
CCC(=O)N(c1ccccc1)C1CCN(C(=O)[C@@H](N)C2Cc3ccccc3C2)CC1

>  <score_type>  (17) 
oracle

>  <origin>  (17) 
autodockgpu

>  <m_score__min__energy>  (17) 
-8.75

>  <m_primary>  (17) 
energy

>  <rmsd>  (17) 
5.682797681740945

>  <m_score__min__rmsd>  (17) 
5.682797681740945

>  <meeko>  (17) 
{"free_energy": -8.6, "intermolecular_energy": -10.68, "internal_energy": -1.43, "cluster_size": 13, "cluster_id": 1, "rank_in_cluster": 11}

>  <energy>  (17) 
-7.85

>  <cluster_rmsd>  (17) 
0.24

>  <cluster>  (17) 
3

$$$$

     RDKit          3D

 61 64  0  0  0  0  0  0  0  0999 V2000
  143.1810   81.9390  217.4450 C   0  0  0  0  0  0  0  0  0  0  0  0
  142.9500   80.5280  218.0370 C   0  0  0  0  0  0  0  0  0  0  0  0
  141.8210   80.5380  218.9570 C   0  0  0  0  0  0  0  0  0  0  0  0
  140.9530   81.4720  218.7850 O   0  0  0  0  0  0  0  0  0  0  0  0
  141.5420   79.6530  220.0190 N   0  0  0  0  0  0  0  0  0  0  0  0
  141.7900   80.2170  221.3390 C   0  0  0  0  0  0  0  0  0  0  0  0
  142.2680   79.2900  222.2600 C   0  0  0  0  0  0  0  0  0  0  0  0
  142.5270   79.7660  223.5480 C   0  0  0  0  0  0  0  0  0  0  0  0
  142.3160   81.0860  223.8760 C   0  0  0  0  0  0  0  0  0  0  0  0
  141.8320   81.9810  222.9120 C   0  0  0  0  0  0  0  0  0  0  0  0
  141.5670   81.5280  221.6220 C   0  0  0  0  0  0  0  0  0  0  0  0
  141.0550   78.3290  219.9760 C   0  0  0  0  0  0  0  0  0  0  0  0
  140.2040   77.9540  218.7980 C   0  0  0  0  0  0  0  0  0  0  0  0
  139.3140   76.7960  219.2950 C   0  0  0  0  0  0  0  0  0  0  0  0
  140.1230   75.9970  220.1750 N   0  0  0  0  0  0  0  0  0  0  0  0
  139.6580   75.2440  221.2700 C   0  0  0  0  0  0  0  0  0  0  0  0
  140.5380   74.6120  221.9630 O   0  0  0  0  0  0  0  0  0  0  0  0
  138.2780   75.0870  221.7240 C   0  0  1  0  0  0  0  0  0  0  0  0
  138.0010   73.8190  222.3380 N   0  0  0  0  0  0  0  0  0  0  0  0
  137.8700   76.1570  222.7220 C   0  0  0  0  0  0  0  0  0  0  0  0
  136.5220   76.7450  222.4650 C   0  0  0  0  0  0  0  0  0  0  0  0
  136.8100   78.1210  221.9810 C   0  0  0  0  0  0  0  0  0  0  0  0
  136.0180   79.1220  221.4160 C   0  0  0  0  0  0  0  0  0  0  0  0
  136.5350   80.3440  221.0410 C   0  0  0  0  0  0  0  0  0  0  0  0
  137.8920   80.6200  221.2210 C   0  0  0  0  0  0  0  0  0  0  0  0
  138.6880   79.6440  221.7790 C   0  0  0  0  0  0  0  0  0  0  0  0
  138.1470   78.4180  222.1500 C   0  0  0  0  0  0  0  0  0  0  0  0
  138.8670   77.2670  222.7610 C   0  0  0  0  0  0  0  0  0  0  0  0
  141.5570   75.9480  219.8850 C   0  0  0  0  0  0  0  0  0  0  0  0
  142.2100   77.3320  219.9670 C   0  0  0  0  0  0  0  0  0  0  0  0
  143.2998   82.6649  218.2629 H   0  0  0  0  0  0  0  0  0  0  0  0
  144.0900   81.9325  216.8256 H   0  0  0  0  0  0  0  0  0  0  0  0
  142.3173   82.2227  216.8256 H   0  0  0  0  0  0  0  0  0  0  0  0
  142.7439   79.8219  217.2191 H   0  0  0  0  0  0  0  0  0  0  0  0
  143.8526   80.2209  218.5857 H   0  0  0  0  0  0  0  0  0  0  0  0
  142.4335   78.2370  221.9883 H   0  0  0  0  0  0  0  0  0  0  0  0
  142.9064   79.0733  224.3136 H   0  0  0  0  0  0  0  0  0  0  0  0
  142.5275   81.4390  224.8961 H   0  0  0  0  0  0  0  0  0  0  0  0
  141.6623   83.0360  223.1731 H   0  0  0  0  0  0  0  0  0  0  0  0
  141.1866   82.2141  220.8509 H   0  0  0  0  0  0  0  0  0  0  0  0
  140.4224   78.2878  220.8750 H   0  0  0  0  0  0  0  0  0  0  0  0
  139.5860   78.8071  218.4813 H   0  0  0  0  0  0  0  0  0  0  0  0
  140.8110   77.6622  217.9283 H   0  0  0  0  0  0  0  0  0  0  0  0
  138.4437   77.1936  219.8377 H   0  0  0  0  0  0  0  0  0  0  0  0
  138.9390   76.1972  218.4519 H   0  0  0  0  0  0  0  0  0  0  0  0
  137.6975   75.1727  220.7936 H   0  0  0  0  0  0  0  0  0  0  0  0
  137.2800   73.8600  223.0900 H   0  0  0  0  0  0  0  0  0  0  0  0
  138.8540   73.3880  222.7470 H   0  0  0  0  0  0  0  0  0  0  0  0
  137.8294   75.6351  223.6895 H   0  0  0  0  0  0  0  0  0  0  0  0
  135.9838   76.1669  221.6994 H   0  0  0  0  0  0  0  0  0  0  0  0
  135.8822   76.7386  223.3598 H   0  0  0  0  0  0  0  0  0  0  0  0
  134.9456   78.9295  221.2649 H   0  0  0  0  0  0  0  0  0  0  0  0
  135.8756   81.1049  220.5981 H   0  0  0  0  0  0  0  0  0  0  0  0
  138.3143   81.5916  220.9249 H   0  0  0  0  0  0  0  0  0  0  0  0
  139.7602   79.8361  221.9323 H   0  0  0  0  0  0  0  0  0  0  0  0
  139.7619   77.0098  222.1752 H   0  0  0  0  0  0  0  0  0  0  0  0
  139.2224   77.4818  223.7796 H   0  0  0  0  0  0  0  0  0  0  0  0
  142.0435   75.2827  220.6134 H   0  0  0  0  0  0  0  0  0  0  0  0
  141.6820   75.5751  218.8577 H   0  0  0  0  0  0  0  0  0  0  0  0
  142.8033   77.4229  220.8888 H   0  0  0  0  0  0  0  0  0  0  0  0
  142.8955   77.5098  219.1253 H   0  0  0  0  0  0  0  0  0  0  0  0
  1  2  1  0
  2  3  1  0
  3  4  2  0
  3  5  1  0
  5  6  1  0
  6  7  2  0
  7  8  1  0
  8  9  2  0
  9 10  1  0
 10 11  2  0
  5 12  1  0
 12 13  1  0
 13 14  1  0
 14 15  1  0
 15 16  1  0
 16 17  2  0
 16 18  1  0
 18 19  1  0
 18 20  1  0
 20 21  1  0
 21 22  1  0
 22 23  2  0
 23 24  1  0
 24 25  2  0
 25 26  1  0
 26 27  2  0
 27 28  1  0
 15 29  1  0
 29 30  1  0
 11  6  1  0
 30 12  1  0
 28 20  1  0
 27 22  1  0
  1 31  1  0
  1 32  1  0
  1 33  1  0
  2 34  1  0
  2 35  1  0
  7 36  1  0
  8 37  1  0
  9 38  1  0
 10 39  1  0
 11 40  1  0
 12 41  1  0
 13 42  1  0
 13 43  1  0
 14 44  1  0
 14 45  1  0
 18 46  1  6
 19 47  1  0
 19 48  1  0
 20 49  1  0
 21 50  1  0
 21 51  1  0
 23 52  1  0
 24 53  1  0
 25 54  1  0
 26 55  1  0
 28 56  1  0
 28 57  1  0
 29 58  1  0
 29 59  1  0
 30 60  1  0
 30 61  1  0
M  END
>  <smiles>  (18) 
CCC(=O)N(c1ccccc1)C1CCN(C(=O)[C@@H](N)C2Cc3ccccc3C2)CC1

>  <score_type>  (18) 
oracle

>  <origin>  (18) 
autodockgpu

>  <m_score__min__energy>  (18) 
-8.75

>  <m_primary>  (18) 
energy

>  <rmsd>  (18) 
4.4497649077243295

>  <m_score__min__rmsd>  (18) 
4.4497649077243295

>  <meeko>  (18) 
{"free_energy": -6.25, "intermolecular_energy": -8.34, "internal_energy": -3.59, "cluster_size": 10, "cluster_id": 11, "rank_in_cluster": 2}

>  <energy>  (18) 
-7.81

>  <cluster_rmsd>  (18) 
0.36

>  <cluster>  (18) 
3

$$$$

     RDKit          3D

 61 64  0  0  0  0  0  0  0  0999 V2000
  138.6110   67.6620  222.5250 C   0  0  0  0  0  0  0  0  0  0  0  0
  139.1040   67.9930  223.9530 C   0  0  0  0  0  0  0  0  0  0  0  0
  138.5410   69.2580  224.4080 C   0  0  0  0  0  0  0  0  0  0  0  0
  137.3380   69.2170  224.8610 O   0  0  0  0  0  0  0  0  0  0  0  0
  139.1410   70.5340  224.4240 N   0  0  0  0  0  0  0  0  0  0  0  0
  139.8750   70.8270  225.6470 C   0  0  0  0  0  0  0  0  0  0  0  0
  139.5570   69.9800  226.7040 C   0  0  0  0  0  0  0  0  0  0  0  0
  140.2260   70.2060  227.9100 C   0  0  0  0  0  0  0  0  0  0  0  0
  141.1510   71.2200  228.0320 C   0  0  0  0  0  0  0  0  0  0  0  0
  141.4360   72.0470  226.9380 C   0  0  0  0  0  0  0  0  0  0  0  0
  140.7800   71.8390  225.7270 C   0  0  0  0  0  0  0  0  0  0  0  0
  139.1370   71.5370  223.4310 C   0  0  0  0  0  0  0  0  0  0  0  0
  139.9790   71.2930  222.2130 C   0  0  0  0  0  0  0  0  0  0  0  0
  140.3200   72.6960  221.6700 C   0  0  0  0  0  0  0  0  0  0  0  0
  139.1550   73.5140  221.8700 N   0  0  0  0  0  0  0  0  0  0  0  0
  139.1500   74.9050  222.0900 C   0  0  0  0  0  0  0  0  0  0  0  0
  138.0070   75.4640  222.2780 O   0  0  0  0  0  0  0  0  0  0  0  0
  140.2980   75.8080  222.1300 C   0  0  1  0  0  0  0  0  0  0  0  0
  141.4640   75.3090  221.4580 N   0  0  0  0  0  0  0  0  0  0  0  0
  139.9890   77.1670  221.5250 C   0  0  0  0  0  0  0  0  0  0  0  0
  141.1710   77.8410  220.9110 C   0  0  0  0  0  0  0  0  0  0  0  0
  141.4730   78.9640  221.8380 C   0  0  0  0  0  0  0  0  0  0  0  0
  142.5380   79.8610  221.9390 C   0  0  0  0  0  0  0  0  0  0  0  0
  142.5860   80.8380  222.9120 C   0  0  0  0  0  0  0  0  0  0  0  0
  141.5500   80.9590  223.8410 C   0  0  0  0  0  0  0  0  0  0  0  0
  140.4910   80.0820  223.7540 C   0  0  0  0  0  0  0  0  0  0  0  0
  140.4620   79.1040  222.7660 C   0  0  0  0  0  0  0  0  0  0  0  0
  139.3980   78.0880  222.5400 C   0  0  0  0  0  0  0  0  0  0  0  0
  137.8590   72.8360  221.8160 C   0  0  0  0  0  0  0  0  0  0  0  0
  137.7240   71.7610  222.9000 C   0  0  0  0  0  0  0  0  0  0  0  0
  137.6991   67.0498  222.5846 H   0  0  0  0  0  0  0  0  0  0  0  0
  138.3910   68.5961  221.9873 H   0  0  0  0  0  0  0  0  0  0  0  0
  139.3923   67.1047  221.9873 H   0  0  0  0  0  0  0  0  0  0  0  0
  138.7924   67.1910  224.6383 H   0  0  0  0  0  0  0  0  0  0  0  0
  140.2008   68.0764  223.9399 H   0  0  0  0  0  0  0  0  0  0  0  0
  138.8168   69.1736  226.5959 H   0  0  0  0  0  0  0  0  0  0  0  0
  140.0105   69.5636  228.7765 H   0  0  0  0  0  0  0  0  0  0  0  0
  141.6666   71.3803  228.9904 H   0  0  0  0  0  0  0  0  0  0  0  0
  142.1742   72.8567  227.0348 H   0  0  0  0  0  0  0  0  0  0  0  0
  140.9889   72.4779  224.8563 H   0  0  0  0  0  0  0  0  0  0  0  0
  139.5647   72.3953  223.9698 H   0  0  0  0  0  0  0  0  0  0  0  0
  140.8970   70.7494  222.4811 H   0  0  0  0  0  0  0  0  0  0  0  0
  139.4540   70.6793  221.4662 H   0  0  0  0  0  0  0  0  0  0  0  0
  141.1762   73.1162  222.2180 H   0  0  0  0  0  0  0  0  0  0  0  0
  140.5924   72.6513  220.6052 H   0  0  0  0  0  0  0  0  0  0  0  0
  140.5107   75.8937  223.2058 H   0  0  0  0  0  0  0  0  0  0  0  0
  141.3290   74.3780  221.0090 H   0  0  0  0  0  0  0  0  0  0  0  0
  142.2810   75.2310  222.0960 H   0  0  0  0  0  0  0  0  0  0  0  0
  139.2673   76.9573  220.7218 H   0  0  0  0  0  0  0  0  0  0  0  0
  142.0238   77.1494  220.8451 H   0  0  0  0  0  0  0  0  0  0  0  0
  140.9745   78.1834  219.8843 H   0  0  0  0  0  0  0  0  0  0  0  0
  143.3663   79.7864  221.2190 H   0  0  0  0  0  0  0  0  0  0  0  0
  143.4441   81.5248  222.9563 H   0  0  0  0  0  0  0  0  0  0  0  0
  141.5789   81.7338  224.6213 H   0  0  0  0  0  0  0  0  0  0  0  0
  139.6612   80.1561  224.4723 H   0  0  0  0  0  0  0  0  0  0  0  0
  139.1682   77.5486  223.4707 H   0  0  0  0  0  0  0  0  0  0  0  0
  138.4499   78.5346  222.2058 H   0  0  0  0  0  0  0  0  0  0  0  0
  137.0626   73.5819  221.9553 H   0  0  0  0  0  0  0  0  0  0  0  0
  137.7765   72.3414  220.8369 H   0  0  0  0  0  0  0  0  0  0  0  0
  137.0612   72.1090  223.7060 H   0  0  0  0  0  0  0  0  0  0  0  0
  137.2859   70.8336  222.5024 H   0  0  0  0  0  0  0  0  0  0  0  0
  1  2  1  0
  2  3  1  0
  3  4  2  0
  3  5  1  0
  5  6  1  0
  6  7  2  0
  7  8  1  0
  8  9  2  0
  9 10  1  0
 10 11  2  0
  5 12  1  0
 12 13  1  0
 13 14  1  0
 14 15  1  0
 15 16  1  0
 16 17  2  0
 16 18  1  0
 18 19  1  0
 18 20  1  0
 20 21  1  0
 21 22  1  0
 22 23  2  0
 23 24  1  0
 24 25  2  0
 25 26  1  0
 26 27  2  0
 27 28  1  0
 15 29  1  0
 29 30  1  0
 11  6  1  0
 30 12  1  0
 28 20  1  0
 27 22  1  0
  1 31  1  0
  1 32  1  0
  1 33  1  0
  2 34  1  0
  2 35  1  0
  7 36  1  0
  8 37  1  0
  9 38  1  0
 10 39  1  0
 11 40  1  0
 12 41  1  0
 13 42  1  0
 13 43  1  0
 14 44  1  0
 14 45  1  0
 18 46  1  1
 19 47  1  0
 19 48  1  0
 20 49  1  0
 21 50  1  0
 21 51  1  0
 23 52  1  0
 24 53  1  0
 25 54  1  0
 26 55  1  0
 28 56  1  0
 28 57  1  0
 29 58  1  0
 29 59  1  0
 30 60  1  0
 30 61  1  0
M  END
>  <smiles>  (19) 
CCC(=O)N(c1ccccc1)C1CCN(C(=O)[C@@H](N)C2Cc3ccccc3C2)CC1

>  <score_type>  (19) 
oracle

>  <origin>  (19) 
autodockgpu

>  <m_score__min__energy>  (19) 
-8.75

>  <m_primary>  (19) 
energy

>  <rmsd>  (19) 
5.660011842225804

>  <m_score__min__rmsd>  (19) 
5.660011842225804

>  <meeko>  (19) 
{"free_energy": -8.42, "intermolecular_energy": -10.51, "internal_energy": -1.37, "cluster_size": 13, "cluster_id": 1, "rank_in_cluster": 12}

>  <energy>  (19) 
-7.56

>  <cluster_rmsd>  (19) 
0.59

>  <cluster>  (19) 
3

$$$$

     RDKit          3D

 61 64  0  0  0  0  0  0  0  0999 V2000
  139.9320   70.3870  220.6980 C   0  0  0  0  0  0  0  0  0  0  0  0
  140.7820   71.2320  221.6760 C   0  0  0  0  0  0  0  0  0  0  0  0
  139.9370   71.8350  222.6980 C   0  0  0  0  0  0  0  0  0  0  0  0
  139.9280   73.1200  222.7470 O   0  0  0  0  0  0  0  0  0  0  0  0
  139.1160   71.1960  223.6500 N   0  0  0  0  0  0  0  0  0  0  0  0
  139.7370   71.0420  224.9590 C   0  0  0  0  0  0  0  0  0  0  0  0
  139.2320   69.9750  225.6940 C   0  0  0  0  0  0  0  0  0  0  0  0
  139.7850   69.7700  226.9610 C   0  0  0  0  0  0  0  0  0  0  0  0
  140.7800   70.5910  227.4450 C   0  0  0  0  0  0  0  0  0  0  0  0
  141.2550   71.6550  226.6660 C   0  0  0  0  0  0  0  0  0  0  0  0
  140.7170   71.8770  225.4000 C   0  0  0  0  0  0  0  0  0  0  0  0
  137.7990   70.7080  223.5130 C   0  0  0  0  0  0  0  0  0  0  0  0
  136.9200   71.3930  222.5080 C   0  0  0  0  0  0  0  0  0  0  0  0
  135.4790   71.1570  223.0040 C   0  0  0  0  0  0  0  0  0  0  0  0
  135.4390   69.8280  223.5510 N   0  0  0  0  0  0  0  0  0  0  0  0
  134.6000   69.3870  224.5920 C   0  0  0  0  0  0  0  0  0  0  0  0
  134.7270   68.1630  224.9680 O   0  0  0  0  0  0  0  0  0  0  0  0
  133.5860   70.1570  225.3090 C   0  0  1  0  0  0  0  0  0  0  0  0
  132.6850   69.3580  226.0920 N   0  0  0  0  0  0  0  0  0  0  0  0
  134.1940   71.1830  226.2500 C   0  0  0  0  0  0  0  0  0  0  0  0
  133.3300   71.5230  227.4180 C   0  0  0  0  0  0  0  0  0  0  0  0
  132.8640   72.9080  227.1370 C   0  0  0  0  0  0  0  0  0  0  0  0
  131.9110   73.7350  227.7320 C   0  0  0  0  0  0  0  0  0  0  0  0
  131.6570   75.0110  227.2730 C   0  0  0  0  0  0  0  0  0  0  0  0
  132.3600   75.5200  226.1790 C   0  0  0  0  0  0  0  0  0  0  0  0
  133.3060   74.7160  225.5810 C   0  0  0  0  0  0  0  0  0  0  0  0
  133.5460   73.4320  226.0590 C   0  0  0  0  0  0  0  0  0  0  0  0
  134.5270   72.4460  225.5280 C   0  0  0  0  0  0  0  0  0  0  0  0
  136.3380   68.8430  222.9470 C   0  0  0  0  0  0  0  0  0  0  0  0
  137.8110   69.2390  223.0960 C   0  0  0  0  0  0  0  0  0  0  0  0
  139.2655   69.7245  221.2697 H   0  0  0  0  0  0  0  0  0  0  0  0
  139.3298   71.0548  220.0644 H   0  0  0  0  0  0  0  0  0  0  0  0
  140.5962   69.7809  220.0644 H   0  0  0  0  0  0  0  0  0  0  0  0
  141.5282   70.5843  222.1594 H   0  0  0  0  0  0  0  0  0  0  0  0
  141.2827   72.0323  221.1114 H   0  0  0  0  0  0  0  0  0  0  0  0
  138.4375   69.3253  225.2982 H   0  0  0  0  0  0  0  0  0  0  0  0
  139.4197   68.9391  227.5824 H   0  0  0  0  0  0  0  0  0  0  0  0
  141.2024   70.4111  228.4446 H   0  0  0  0  0  0  0  0  0  0  0  0
  142.0486   72.3115  227.0522 H   0  0  0  0  0  0  0  0  0  0  0  0
  141.0754   72.7065  224.7727 H   0  0  0  0  0  0  0  0  0  0  0  0
  137.3792   70.8966  224.5121 H   0  0  0  0  0  0  0  0  0  0  0  0
  137.1435   72.4694  222.4701 H   0  0  0  0  0  0  0  0  0  0  0  0
  137.0745   71.0011  221.4918 H   0  0  0  0  0  0  0  0  0  0  0  0
  135.2203   71.8933  223.7792 H   0  0  0  0  0  0  0  0  0  0  0  0
  134.7563   71.2668  222.1820 H   0  0  0  0  0  0  0  0  0  0  0  0
  133.0251   70.6469  224.4995 H   0  0  0  0  0  0  0  0  0  0  0  0
  133.0130   68.3820  226.2520 H   0  0  0  0  0  0  0  0  0  0  0  0
  131.7390   69.3040  225.6650 H   0  0  0  0  0  0  0  0  0  0  0  0
  135.1051   70.7025  226.6361 H   0  0  0  0  0  0  0  0  0  0  0  0
  132.4776   70.8312  227.4871 H   0  0  0  0  0  0  0  0  0  0  0  0
  133.8662   71.4451  228.3753 H   0  0  0  0  0  0  0  0  0  0  0  0
  131.3435   73.3574  228.5953 H   0  0  0  0  0  0  0  0  0  0  0  0
  130.8969   75.6306  227.7713 H   0  0  0  0  0  0  0  0  0  0  0  0
  132.1639   76.5356  225.8046 H   0  0  0  0  0  0  0  0  0  0  0  0
  133.8759   75.0926  224.7188 H   0  0  0  0  0  0  0  0  0  0  0  0
  134.4058   72.3195  224.4420 H   0  0  0  0  0  0  0  0  0  0  0  0
  135.5698   72.7602  225.6823 H   0  0  0  0  0  0  0  0  0  0  0  0
  136.1806   67.8712  223.4378 H   0  0  0  0  0  0  0  0  0  0  0  0
  136.1088   68.7893  221.8725 H   0  0  0  0  0  0  0  0  0  0  0  0
  138.2981   68.6245  223.8674 H   0  0  0  0  0  0  0  0  0  0  0  0
  138.3713   69.0847  222.1620 H   0  0  0  0  0  0  0  0  0  0  0  0
  1  2  1  0
  2  3  1  0
  3  4  2  0
  3  5  1  0
  5  6  1  0
  6  7  2  0
  7  8  1  0
  8  9  2  0
  9 10  1  0
 10 11  2  0
  5 12  1  0
 12 13  1  0
 13 14  1  0
 14 15  1  0
 15 16  1  0
 16 17  2  0
 16 18  1  0
 18 19  1  0
 18 20  1  0
 20 21  1  0
 21 22  1  0
 22 23  2  0
 23 24  1  0
 24 25  2  0
 25 26  1  0
 26 27  2  0
 27 28  1  0
 15 29  1  0
 29 30  1  0
 11  6  1  0
 30 12  1  0
 28 20  1  0
 27 22  1  0
  1 31  1  0
  1 32  1  0
  1 33  1  0
  2 34  1  0
  2 35  1  0
  7 36  1  0
  8 37  1  0
  9 38  1  0
 10 39  1  0
 11 40  1  0
 12 41  1  0
 13 42  1  0
 13 43  1  0
 14 44  1  0
 14 45  1  0
 18 46  1  6
 19 47  1  0
 19 48  1  0
 20 49  1  0
 21 50  1  0
 21 51  1  0
 23 52  1  0
 24 53  1  0
 25 54  1  0
 26 55  1  0
 28 56  1  0
 28 57  1  0
 29 58  1  0
 29 59  1  0
 30 60  1  0
 30 61  1  0
M  END
>  <smiles>  (20) 
CCC(=O)N(c1ccccc1)C1CCN(C(=O)[C@@H](N)C2Cc3ccccc3C2)CC1

>  <score_type>  (20) 
oracle

>  <origin>  (20) 
autodockgpu

>  <m_score__min__energy>  (20) 
-8.75

>  <m_primary>  (20) 
energy

>  <rmsd>  (20) 
11.103248142765686

>  <m_score__min__rmsd>  (20) 
11.103248142765686

>  <meeko>  (20) 
{"free_energy": -7.4, "intermolecular_energy": -9.49, "internal_energy": -2.38, "cluster_size": 2, "cluster_id": 4, "rank_in_cluster": 2}

>  <energy>  (20) 
-7.33

>  <cluster_rmsd>  (20) 
0.5

>  <cluster>  (20) 
3

$$$$

     RDKit          3D

 61 64  0  0  0  0  0  0  0  0999 V2000
  136.8220   81.2560  225.7970 C   0  0  0  0  0  0  0  0  0  0  0  0
  137.8360   81.2590  224.6280 C   0  0  0  0  0  0  0  0  0  0  0  0
  137.6640   80.0740  223.7980 C   0  0  0  0  0  0  0  0  0  0  0  0
  136.4770   79.5800  223.7480 O   0  0  0  0  0  0  0  0  0  0  0  0
  138.6280   79.3890  223.0310 N   0  0  0  0  0  0  0  0  0  0  0  0
  139.9750   79.9310  223.1520 C   0  0  0  0  0  0  0  0  0  0  0  0
  140.8860   79.0410  223.7120 C   0  0  0  0  0  0  0  0  0  0  0  0
  142.1980   79.4990  223.8570 C   0  0  0  0  0  0  0  0  0  0  0  0
  142.5580   80.7680  223.4620 C   0  0  0  0  0  0  0  0  0  0  0  0
  141.6030   81.6280  222.9030 C   0  0  0  0  0  0  0  0  0  0  0  0
  140.2890   81.1920  222.7490 C   0  0  0  0  0  0  0  0  0  0  0  0
  138.4710   78.2650  222.1910 C   0  0  0  0  0  0  0  0  0  0  0  0
  138.0770   76.9750  222.8470 C   0  0  0  0  0  0  0  0  0  0  0  0
  138.6060   75.8680  221.9110 C   0  0  0  0  0  0  0  0  0  0  0  0
  138.4300   76.3420  220.5650 N   0  0  0  0  0  0  0  0  0  0  0  0
  139.2340   76.0080  219.4590 C   0  0  0  0  0  0  0  0  0  0  0  0
  138.9390   76.5550  218.3320 O   0  0  0  0  0  0  0  0  0  0  0  0
  140.3810   75.1030  219.4290 C   0  0  1  0  0  0  0  0  0  0  0  0
  140.6440   74.5280  218.1400 N   0  0  0  0  0  0  0  0  0  0  0  0
  141.6660   75.7780  219.8790 C   0  0  0  0  0  0  0  0  0  0  0  0
  141.4560   76.9090  220.8290 C   0  0  0  0  0  0  0  0  0  0  0  0
  141.7780   78.1220  220.0300 C   0  0  0  0  0  0  0  0  0  0  0  0
  141.6230   79.4890  220.2630 C   0  0  0  0  0  0  0  0  0  0  0  0
  142.0100   80.4400  219.3410 C   0  0  0  0  0  0  0  0  0  0  0  0
  142.5780   80.0520  218.1250 C   0  0  0  0  0  0  0  0  0  0  0  0
  142.7390   78.7060  217.8800 C   0  0  0  0  0  0  0  0  0  0  0  0
  142.3420   77.7640  218.8230 C   0  0  0  0  0  0  0  0  0  0  0  0
  142.4470   76.2830  218.7120 C   0  0  0  0  0  0  0  0  0  0  0  0
  137.2930   77.2330  220.3260 C   0  0  0  0  0  0  0  0  0  0  0  0
  137.3910   78.5260  221.1430 C   0  0  0  0  0  0  0  0  0  0  0  0
  137.3652   81.2576  226.7535 H   0  0  0  0  0  0  0  0  0  0  0  0
  136.1874   82.1523  225.7342 H   0  0  0  0  0  0  0  0  0  0  0  0
  136.1927   80.3560  225.7342 H   0  0  0  0  0  0  0  0  0  0  0  0
  137.6767   82.1573  224.0134 H   0  0  0  0  0  0  0  0  0  0  0  0
  138.8551   81.2575  225.0421 H   0  0  0  0  0  0  0  0  0  0  0  0
  140.5887   78.0291  224.0245 H   0  0  0  0  0  0  0  0  0  0  0  0
  142.9570   78.8338  224.2946 H   0  0  0  0  0  0  0  0  0  0  0  0
  143.5970   81.1074  223.5854 H   0  0  0  0  0  0  0  0  0  0  0  0
  141.8896   82.6421  222.5875 H   0  0  0  0  0  0  0  0  0  0  0  0
  139.5241   81.8510  222.3123 H   0  0  0  0  0  0  0  0  0  0  0  0
  139.4845   78.1388  221.7824 H   0  0  0  0  0  0  0  0  0  0  0  0
  138.5380   76.8917  223.8423 H   0  0  0  0  0  0  0  0  0  0  0  0
  136.9893   76.9039  222.9947 H   0  0  0  0  0  0  0  0  0  0  0  0
  139.6715   75.6810  222.1102 H   0  0  0  0  0  0  0  0  0  0  0  0
  138.0642   74.9241  222.0708 H   0  0  0  0  0  0  0  0  0  0  0  0
  140.0877   74.3058  220.1279 H   0  0  0  0  0  0  0  0  0  0  0  0
  140.1940   75.0360  217.3490 H   0  0  0  0  0  0  0  0  0  0  0  0
  140.3400   73.5350  218.0850 H   0  0  0  0  0  0  0  0  0  0  0  0
  142.2234   74.9926  220.4104 H   0  0  0  0  0  0  0  0  0  0  0  0
  140.4131   76.9371  221.1776 H   0  0  0  0  0  0  0  0  0  0  0  0
  142.0785   76.8218  221.7317 H   0  0  0  0  0  0  0  0  0  0  0  0
  141.1776   79.8195  221.2130 H   0  0  0  0  0  0  0  0  0  0  0  0
  141.8707   81.5080  219.5644 H   0  0  0  0  0  0  0  0  0  0  0  0
  142.8886   80.8018  217.3825 H   0  0  0  0  0  0  0  0  0  0  0  0
  143.1851   78.3736  216.9310 H   0  0  0  0  0  0  0  0  0  0  0  0
  142.0099   75.9297  217.7664 H   0  0  0  0  0  0  0  0  0  0  0  0
  143.4891   75.9307  218.7152 H   0  0  0  0  0  0  0  0  0  0  0  0
  137.2630   77.4905  219.2570 H   0  0  0  0  0  0  0  0  0  0  0  0
  136.3788   76.7055  220.6358 H   0  0  0  0  0  0  0  0  0  0  0  0
  137.6781   79.3685  220.4966 H   0  0  0  0  0  0  0  0  0  0  0  0
  136.4287   78.7907  221.6055 H   0  0  0  0  0  0  0  0  0  0  0  0
  1  2  1  0
  2  3  1  0
  3  4  2  0
  3  5  1  0
  5  6  1  0
  6  7  2  0
  7  8  1  0
  8  9  2  0
  9 10  1  0
 10 11  2  0
  5 12  1  0
 12 13  1  0
 13 14  1  0
 14 15  1  0
 15 16  1  0
 16 17  2  0
 16 18  1  0
 18 19  1  0
 18 20  1  0
 20 21  1  0
 21 22  1  0
 22 23  2  0
 23 24  1  0
 24 25  2  0
 25 26  1  0
 26 27  2  0
 27 28  1  0
 15 29  1  0
 29 30  1  0
 11  6  1  0
 30 12  1  0
 28 20  1  0
 27 22  1  0
  1 31  1  0
  1 32  1  0
  1 33  1  0
  2 34  1  0
  2 35  1  0
  7 36  1  0
  8 37  1  0
  9 38  1  0
 10 39  1  0
 11 40  1  0
 12 41  1  0
 13 42  1  0
 13 43  1  0
 14 44  1  0
 14 45  1  0
 18 46  1  1
 19 47  1  0
 19 48  1  0
 20 49  1  0
 21 50  1  0
 21 51  1  0
 23 52  1  0
 24 53  1  0
 25 54  1  0
 26 55  1  0
 28 56  1  0
 28 57  1  0
 29 58  1  0
 29 59  1  0
 30 60  1  0
 30 61  1  0
M  END
>  <smiles>  (21) 
CCC(=O)N(c1ccccc1)C1CCN(C(=O)[C@@H](N)C2Cc3ccccc3C2)CC1

>  <score_type>  (21) 
oracle

>  <origin>  (21) 
autodockgpu

>  <m_score__min__energy>  (21) 
-8.75

>  <m_primary>  (21) 
energy

>  <rmsd>  (21) 
4.949555074398939

>  <m_score__min__rmsd>  (21) 
4.949555074398939

>  <meeko>  (21) 
{"free_energy": -5.56, "intermolecular_energy": -7.65, "internal_energy": -3.57, "cluster_size": 1, "cluster_id": 13, "rank_in_cluster": 1}

>  <energy>  (21) 
-7.83

>  <cluster_rmsd>  (21) 
0.0

>  <cluster>  (21) 
4

$$$$

     RDKit          3D

 61 64  0  0  0  0  0  0  0  0999 V2000
  139.7860   81.3160  218.4850 C   0  0  0  0  0  0  0  0  0  0  0  0
  141.3130   81.5510  218.5670 C   0  0  0  0  0  0  0  0  0  0  0  0
  141.9890   80.3540  219.0490 C   0  0  0  0  0  0  0  0  0  0  0  0
  143.0730   80.0260  218.4390 O   0  0  0  0  0  0  0  0  0  0  0  0
  141.6170   79.4980  220.1060 N   0  0  0  0  0  0  0  0  0  0  0  0
  141.8690   80.0500  221.4300 C   0  0  0  0  0  0  0  0  0  0  0  0
  141.5460   81.3990  221.5430 C   0  0  0  0  0  0  0  0  0  0  0  0
  141.7640   81.9920  222.7890 C   0  0  0  0  0  0  0  0  0  0  0  0
  142.2720   81.2670  223.8440 C   0  0  0  0  0  0  0  0  0  0  0  0
  142.5830   79.9110  223.6810 C   0  0  0  0  0  0  0  0  0  0  0  0
  142.3730   79.2990  222.4460 C   0  0  0  0  0  0  0  0  0  0  0  0
  141.0340   78.2140  220.0560 C   0  0  0  0  0  0  0  0  0  0  0  0
  140.1550   77.9110  218.8780 C   0  0  0  0  0  0  0  0  0  0  0  0
  139.1840   76.8170  219.3690 C   0  0  0  0  0  0  0  0  0  0  0  0
  139.9360   75.9540  220.2400 N   0  0  0  0  0  0  0  0  0  0  0  0
  139.4210   75.2280  221.3310 C   0  0  0  0  0  0  0  0  0  0  0  0
  140.2550   74.5280  222.0150 O   0  0  0  0  0  0  0  0  0  0  0  0
  138.0340   75.1680  221.7890 C   0  0  1  0  0  0  0  0  0  0  0  0
  137.6670   73.9170  222.3900 N   0  0  0  0  0  0  0  0  0  0  0  0
  137.7100   76.2540  222.8020 C   0  0  0  0  0  0  0  0  0  0  0  0
  136.3890   76.9120  222.5840 C   0  0  0  0  0  0  0  0  0  0  0  0
  136.7350   78.2740  222.0960 C   0  0  0  0  0  0  0  0  0  0  0  0
  135.9810   79.3170  221.5550 C   0  0  0  0  0  0  0  0  0  0  0  0
  136.5510   80.5130  221.1700 C   0  0  0  0  0  0  0  0  0  0  0  0
  137.9250   80.7170  221.3130 C   0  0  0  0  0  0  0  0  0  0  0  0
  138.6840   79.6980  221.8470 C   0  0  0  0  0  0  0  0  0  0  0  0
  138.0900   78.5000  222.2280 C   0  0  0  0  0  0  0  0  0  0  0  0
  138.7650   77.3100  222.8160 C   0  0  0  0  0  0  0  0  0  0  0  0
  141.3610   75.8030  219.9430 C   0  0  0  0  0  0  0  0  0  0  0  0
  142.1140   77.1350  220.0340 C   0  0  0  0  0  0  0  0  0  0  0  0
  139.3698   81.2519  219.5012 H   0  0  0  0  0  0  0  0  0  0  0  0
  139.3147   82.1522  217.9478 H   0  0  0  0  0  0  0  0  0  0  0  0
  139.5879   80.3768  217.9478 H   0  0  0  0  0  0  0  0  0  0  0  0
  141.6944   81.8040  217.5667 H   0  0  0  0  0  0  0  0  0  0  0  0
  141.5085   82.3761  219.2677 H   0  0  0  0  0  0  0  0  0  0  0  0
  141.1398   81.9692  220.6946 H   0  0  0  0  0  0  0  0  0  0  0  0
  141.5257   83.0566  222.9299 H   0  0  0  0  0  0  0  0  0  0  0  0
  142.4339   81.7540  224.8170 H   0  0  0  0  0  0  0  0  0  0  0  0
  142.9907   79.3321  224.5228 H   0  0  0  0  0  0  0  0  0  0  0  0
  142.6091   78.2350  222.2969 H   0  0  0  0  0  0  0  0  0  0  0  0
  140.4031   78.2124  220.9571 H   0  0  0  0  0  0  0  0  0  0  0  0
  139.6000   78.8093  218.5696 H   0  0  0  0  0  0  0  0  0  0  0  0
  140.7370   77.5824  218.0043 H   0  0  0  0  0  0  0  0  0  0  0  0
  138.3467   77.2725  219.9180 H   0  0  0  0  0  0  0  0  0  0  0  0
  138.7634   76.2540  218.5228 H   0  0  0  0  0  0  0  0  0  0  0  0
  137.4577   75.3072  220.8624 H   0  0  0  0  0  0  0  0  0  0  0  0
  137.0290   74.0110  223.2080 H   0  0  0  0  0  0  0  0  0  0  0  0
  138.4960   73.3740  222.7020 H   0  0  0  0  0  0  0  0  0  0  0  0
  137.6686   75.7314  223.7691 H   0  0  0  0  0  0  0  0  0  0  0  0
  135.8007   76.3660  221.8318 H   0  0  0  0  0  0  0  0  0  0  0  0
  135.7745   76.9351  223.4961 H   0  0  0  0  0  0  0  0  0  0  0  0
  134.8965   79.1807  221.4316 H   0  0  0  0  0  0  0  0  0  0  0  0
  135.9202   81.3095  220.7485 H   0  0  0  0  0  0  0  0  0  0  0  0
  138.3895   81.6662  221.0075 H   0  0  0  0  0  0  0  0  0  0  0  0
  139.7683   79.8336  221.9728 H   0  0  0  0  0  0  0  0  0  0  0  0
  139.6285   77.0084  222.2049 H   0  0  0  0  0  0  0  0  0  0  0  0
  139.1592   77.5018  223.8249 H   0  0  0  0  0  0  0  0  0  0  0  0
  141.8005   75.0973  220.6633 H   0  0  0  0  0  0  0  0  0  0  0  0
  141.4542   75.4313  218.9119 H   0  0  0  0  0  0  0  0  0  0  0  0
  142.7155   77.1744  220.9541 H   0  0  0  0  0  0  0  0  0  0  0  0
  142.8080   77.2696  219.1912 H   0  0  0  0  0  0  0  0  0  0  0  0
  1  2  1  0
  2  3  1  0
  3  4  2  0
  3  5  1  0
  5  6  1  0
  6  7  2  0
  7  8  1  0
  8  9  2  0
  9 10  1  0
 10 11  2  0
  5 12  1  0
 12 13  1  0
 13 14  1  0
 14 15  1  0
 15 16  1  0
 16 17  2  0
 16 18  1  0
 18 19  1  0
 18 20  1  0
 20 21  1  0
 21 22  1  0
 22 23  2  0
 23 24  1  0
 24 25  2  0
 25 26  1  0
 26 27  2  0
 27 28  1  0
 15 29  1  0
 29 30  1  0
 11  6  1  0
 30 12  1  0
 28 20  1  0
 27 22  1  0
  1 31  1  0
  1 32  1  0
  1 33  1  0
  2 34  1  0
  2 35  1  0
  7 36  1  0
  8 37  1  0
  9 38  1  0
 10 39  1  0
 11 40  1  0
 12 41  1  0
 13 42  1  0
 13 43  1  0
 14 44  1  0
 14 45  1  0
 18 46  1  6
 19 47  1  0
 19 48  1  0
 20 49  1  0
 21 50  1  0
 21 51  1  0
 23 52  1  0
 24 53  1  0
 25 54  1  0
 26 55  1  0
 28 56  1  0
 28 57  1  0
 29 58  1  0
 29 59  1  0
 30 60  1  0
 30 61  1  0
M  END
>  <smiles>  (22) 
CCC(=O)N(c1ccccc1)C1CCN(C(=O)[C@@H](N)C2Cc3ccccc3C2)CC1

>  <score_type>  (22) 
oracle

>  <origin>  (22) 
autodockgpu

>  <m_score__min__energy>  (22) 
-8.75

>  <m_primary>  (22) 
energy

>  <rmsd>  (22) 
4.443550488840838

>  <m_score__min__rmsd>  (22) 
4.443550488840838

>  <meeko>  (22) 
{"free_energy": -5.78, "intermolecular_energy": -7.86, "internal_energy": -3.74, "cluster_size": 10, "cluster_id": 11, "rank_in_cluster": 10}

>  <energy>  (22) 
-7.4

>  <cluster_rmsd>  (22) 
1.83

>  <cluster>  (22) 
4

$$$$

     RDKit          3D

 61 64  0  0  0  0  0  0  0  0999 V2000
  146.3350   73.3500  221.6020 C   0  0  0  0  0  0  0  0  0  0  0  0
  145.3070   73.9060  220.5890 C   0  0  0  0  0  0  0  0  0  0  0  0
  145.0530   72.9350  219.5320 C   0  0  0  0  0  0  0  0  0  0  0  0
  145.9580   72.8290  218.6250 O   0  0  0  0  0  0  0  0  0  0  0  0
  143.9400   72.0840  219.3680 N   0  0  0  0  0  0  0  0  0  0  0  0
  144.2670   70.7910  218.7820 C   0  0  0  0  0  0  0  0  0  0  0  0
  144.8180   69.8910  219.6890 C   0  0  0  0  0  0  0  0  0  0  0  0
  145.1540   68.6300  219.1910 C   0  0  0  0  0  0  0  0  0  0  0  0
  144.9460   68.3060  217.8690 C   0  0  0  0  0  0  0  0  0  0  0  0
  144.3880   69.2480  216.9940 C   0  0  0  0  0  0  0  0  0  0  0  0
  144.0450   70.5120  217.4690 C   0  0  0  0  0  0  0  0  0  0  0  0
  142.5860   72.3060  219.6990 C   0  0  0  0  0  0  0  0  0  0  0  0
  141.6330   72.5150  218.5590 C   0  0  0  0  0  0  0  0  0  0  0  0
  140.4760   73.3490  219.1480 C   0  0  0  0  0  0  0  0  0  0  0  0
  140.2640   72.8770  220.4900 N   0  0  0  0  0  0  0  0  0  0  0  0
  139.7840   73.6430  221.5700 C   0  0  0  0  0  0  0  0  0  0  0  0
  139.6860   73.0530  222.7090 O   0  0  0  0  0  0  0  0  0  0  0  0
  139.3740   75.0460  221.5580 C   0  0  1  0  0  0  0  0  0  0  0  0
  138.3980   75.3820  222.5550 N   0  0  0  0  0  0  0  0  0  0  0  0
  140.5460   75.9940  221.7530 C   0  0  0  0  0  0  0  0  0  0  0  0
  140.3670   77.3220  221.0960 C   0  0  0  0  0  0  0  0  0  0  0  0
  141.3220   77.2970  219.9560 C   0  0  0  0  0  0  0  0  0  0  0  0
  141.5290   78.1400  218.8630 C   0  0  0  0  0  0  0  0  0  0  0  0
  142.5050   77.8930  217.9190 C   0  0  0  0  0  0  0  0  0  0  0  0
  143.3270   76.7700  218.0330 C   0  0  0  0  0  0  0  0  0  0  0  0
  143.1370   75.9280  219.1070 C   0  0  0  0  0  0  0  0  0  0  0  0
  142.1480   76.1950  220.0470 C   0  0  0  0  0  0  0  0  0  0  0  0
  141.8170   75.3910  221.2550 C   0  0  0  0  0  0  0  0  0  0  0  0
  140.5530   71.4640  220.7430 C   0  0  0  0  0  0  0  0  0  0  0  0
  142.0230   71.1200  220.4780 C   0  0  0  0  0  0  0  0  0  0  0  0
  145.9812   73.5413  222.6258 H   0  0  0  0  0  0  0  0  0  0  0  0
  146.4502   72.2666  221.4503 H   0  0  0  0  0  0  0  0  0  0  0  0
  147.3047   73.8466  221.4503 H   0  0  0  0  0  0  0  0  0  0  0  0
  144.3649   74.1250  221.1130 H   0  0  0  0  0  0  0  0  0  0  0  0
  145.7133   74.8234  220.1382 H   0  0  0  0  0  0  0  0  0  0  0  0
  144.9805   70.1587  220.7435 H   0  0  0  0  0  0  0  0  0  0  0  0
  145.5929   67.8819  219.8675 H   0  0  0  0  0  0  0  0  0  0  0  0
  145.2181   67.3064  217.4991 H   0  0  0  0  0  0  0  0  0  0  0  0
  144.2217   68.9906  215.9375 H   0  0  0  0  0  0  0  0  0  0  0  0
  143.6056   71.2657  216.7991 H   0  0  0  0  0  0  0  0  0  0  0  0
  142.6387   73.2445  220.2704 H   0  0  0  0  0  0  0  0  0  0  0  0
  142.1245   73.0610  217.7403 H   0  0  0  0  0  0  0  0  0  0  0  0
  141.2804   71.5622  218.1374 H   0  0  0  0  0  0  0  0  0  0  0  0
  140.7458   74.4153  219.1599 H   0  0  0  0  0  0  0  0  0  0  0  0
  139.5637   73.2406  218.5430 H   0  0  0  0  0  0  0  0  0  0  0  0
  138.9280   75.1685  220.5600 H   0  0  0  0  0  0  0  0  0  0  0  0
  138.7210   76.0960  223.2420 H   0  0  0  0  0  0  0  0  0  0  0  0
  138.0850   74.5500  223.0930 H   0  0  0  0  0  0  0  0  0  0  0  0
  140.5934   76.1601  222.8394 H   0  0  0  0  0  0  0  0  0  0  0  0
  139.3343   77.4437  220.7372 H   0  0  0  0  0  0  0  0  0  0  0  0
  140.5532   78.1605  221.7832 H   0  0  0  0  0  0  0  0  0  0  0  0
  140.8933   79.0306  218.7503 H   0  0  0  0  0  0  0  0  0  0  0  0
  142.6359   78.5838  217.0731 H   0  0  0  0  0  0  0  0  0  0  0  0
  144.1062   76.5629  217.2847 H   0  0  0  0  0  0  0  0  0  0  0  0
  143.7727   75.0377  219.2216 H   0  0  0  0  0  0  0  0  0  0  0  0
  141.6712   74.3328  220.9925 H   0  0  0  0  0  0  0  0  0  0  0  0
  142.6182   75.4097  222.0085 H   0  0  0  0  0  0  0  0  0  0  0  0
  140.3193   71.2367  221.7936 H   0  0  0  0  0  0  0  0  0  0  0  0
  139.9358   70.8640  220.0581 H   0  0  0  0  0  0  0  0  0  0  0  0
  142.5647   70.9913  221.4267 H   0  0  0  0  0  0  0  0  0  0  0  0
  142.1271   70.1784  219.9189 H   0  0  0  0  0  0  0  0  0  0  0  0
  1  2  1  0
  2  3  1  0
  3  4  2  0
  3  5  1  0
  5  6  1  0
  6  7  2  0
  7  8  1  0
  8  9  2  0
  9 10  1  0
 10 11  2  0
  5 12  1  0
 12 13  1  0
 13 14  1  0
 14 15  1  0
 15 16  1  0
 16 17  2  0
 16 18  1  0
 18 19  1  0
 18 20  1  0
 20 21  1  0
 21 22  1  0
 22 23  2  0
 23 24  1  0
 24 25  2  0
 25 26  1  0
 26 27  2  0
 27 28  1  0
 15 29  1  0
 29 30  1  0
 11  6  1  0
 30 12  1  0
 28 20  1  0
 27 22  1  0
  1 31  1  0
  1 32  1  0
  1 33  1  0
  2 34  1  0
  2 35  1  0
  7 36  1  0
  8 37  1  0
  9 38  1  0
 10 39  1  0
 11 40  1  0
 12 41  1  0
 13 42  1  0
 13 43  1  0
 14 44  1  0
 14 45  1  0
 18 46  1  6
 19 47  1  0
 19 48  1  0
 20 49  1  0
 21 50  1  0
 21 51  1  0
 23 52  1  0
 24 53  1  0
 25 54  1  0
 26 55  1  0
 28 56  1  0
 28 57  1  0
 29 58  1  0
 29 59  1  0
 30 60  1  0
 30 61  1  0
M  END
>  <smiles>  (23) 
CCC(=O)N(c1ccccc1)C1CCN(C(=O)[C@@H](N)C2Cc3ccccc3C2)CC1

>  <score_type>  (23) 
oracle

>  <origin>  (23) 
autodockgpu

>  <m_score__min__energy>  (23) 
-8.75

>  <m_primary>  (23) 
energy

>  <rmsd>  (23) 
5.1872222405501205

>  <m_score__min__rmsd>  (23) 
5.1872222405501205

>  <meeko>  (23) 
{"free_energy": -6.29, "intermolecular_energy": -8.38, "internal_energy": -3.22, "cluster_size": 2, "cluster_id": 10, "rank_in_cluster": 2}

>  <energy>  (23) 
-7.37

>  <cluster_rmsd>  (23) 
0.0

>  <cluster>  (23) 
5

$$$$

     RDKit          3D

 61 64  0  0  0  0  0  0  0  0999 V2000
  143.0460   71.7850  220.7040 C   0  0  0  0  0  0  0  0  0  0  0  0
  141.5020   71.7080  220.7740 C   0  0  0  0  0  0  0  0  0  0  0  0
  140.9650   72.8600  221.4870 C   0  0  0  0  0  0  0  0  0  0  0  0
  140.6880   72.6840  222.7300 O   0  0  0  0  0  0  0  0  0  0  0  0
  140.7080   74.1570  220.9970 N   0  0  0  0  0  0  0  0  0  0  0  0
  139.4860   74.7540  221.5170 C   0  0  0  0  0  0  0  0  0  0  0  0
  139.6770   76.0090  222.0870 C   0  0  0  0  0  0  0  0  0  0  0  0
  138.5430   76.6400  222.6060 C   0  0  0  0  0  0  0  0  0  0  0  0
  137.3050   76.0380  222.5500 C   0  0  0  0  0  0  0  0  0  0  0  0
  137.1640   74.7720  221.9670 C   0  0  0  0  0  0  0  0  0  0  0  0
  138.2820   74.1260  221.4430 C   0  0  0  0  0  0  0  0  0  0  0  0
  141.4650   74.9420  220.1010 C   0  0  0  0  0  0  0  0  0  0  0  0
  142.9390   75.0440  220.3620 C   0  0  0  0  0  0  0  0  0  0  0  0
  143.3710   76.3820  219.7280 C   0  0  0  0  0  0  0  0  0  0  0  0
  142.6080   76.5340  218.5180 N   0  0  0  0  0  0  0  0  0  0  0  0
  142.2120   77.7540  217.9390 C   0  0  0  0  0  0  0  0  0  0  0  0
  141.5060   77.6910  216.8650 O   0  0  0  0  0  0  0  0  0  0  0  0
  142.5080   79.1060  218.4100 C   0  0  1  0  0  0  0  0  0  0  0  0
  142.6980   80.0670  217.3610 N   0  0  0  0  0  0  0  0  0  0  0  0
  141.4200   79.6550  219.3180 C   0  0  0  0  0  0  0  0  0  0  0  0
  141.8250   80.8700  220.0830 C   0  0  0  0  0  0  0  0  0  0  0  0
  141.9520   80.3930  221.4860 C   0  0  0  0  0  0  0  0  0  0  0  0
  142.4560   80.9740  222.6510 C   0  0  0  0  0  0  0  0  0  0  0  0
  142.4630   80.3080  223.8600 C   0  0  0  0  0  0  0  0  0  0  0  0
  141.9570   79.0100  223.9520 C   0  0  0  0  0  0  0  0  0  0  0  0
  141.4540   78.4230  222.8110 C   0  0  0  0  0  0  0  0  0  0  0  0
  141.4570   79.1110  221.6020 C   0  0  0  0  0  0  0  0  0  0  0  0
  140.9560   78.6210  220.2890 C   0  0  0  0  0  0  0  0  0  0  0  0
  142.2350   75.3030  217.8190 C   0  0  0  0  0  0  0  0  0  0  0  0
  141.3500   74.3960  218.6800 C   0  0  0  0  0  0  0  0  0  0  0  0
  143.4587   71.8056  221.7234 H   0  0  0  0  0  0  0  0  0  0  0  0
  143.4332   70.9051  220.1694 H   0  0  0  0  0  0  0  0  0  0  0  0
  143.3437   72.6991  220.1694 H   0  0  0  0  0  0  0  0  0  0  0  0
  141.0937   71.6919  219.7527 H   0  0  0  0  0  0  0  0  0  0  0  0
  141.2156   70.7920  221.3115 H   0  0  0  0  0  0  0  0  0  0  0  0
  140.6700   76.4805  222.1271 H   0  0  0  0  0  0  0  0  0  0  0  0
  138.6406   77.6340  223.0669 H   0  0  0  0  0  0  0  0  0  0  0  0
  136.4253   76.5526  222.9640 H   0  0  0  0  0  0  0  0  0  0  0  0
  136.1760   74.2904  221.9231 H   0  0  0  0  0  0  0  0  0  0  0  0
  138.1928   73.1319  220.9806 H   0  0  0  0  0  0  0  0  0  0  0  0
  141.0272   75.9408  220.2451 H   0  0  0  0  0  0  0  0  0  0  0  0
  143.1398   75.0471  221.4435 H   0  0  0  0  0  0  0  0  0  0  0  0
  143.4911   74.1917  219.9391 H   0  0  0  0  0  0  0  0  0  0  0  0
  143.1588   77.2133  220.4164 H   0  0  0  0  0  0  0  0  0  0  0  0
  144.4506   76.3886  219.5173 H   0  0  0  0  0  0  0  0  0  0  0  0
  143.4533   78.9785  218.9579 H   0  0  0  0  0  0  0  0  0  0  0  0
  142.5770   79.6780  216.4020 H   0  0  0  0  0  0  0  0  0  0  0  0
  143.6380   80.5090  217.4010 H   0  0  0  0  0  0  0  0  0  0  0  0
  140.6058   79.9434  218.6368 H   0  0  0  0  0  0  0  0  0  0  0  0
  142.7855   81.2603  219.7153 H   0  0  0  0  0  0  0  0  0  0  0  0
  141.1012   81.6921  219.9816 H   0  0  0  0  0  0  0  0  0  0  0  0
  142.8607   81.9958  222.6040 H   0  0  0  0  0  0  0  0  0  0  0  0
  142.8690   80.8021  224.7550 H   0  0  0  0  0  0  0  0  0  0  0  0
  141.9597   78.4699  224.9103 H   0  0  0  0  0  0  0  0  0  0  0  0
  141.0468   77.4021  222.8567 H   0  0  0  0  0  0  0  0  0  0  0  0
  141.3861   77.6375  220.0485 H   0  0  0  0  0  0  0  0  0  0  0  0
  139.8643   78.4864  220.2754 H   0  0  0  0  0  0  0  0  0  0  0  0
  141.6864   75.5677  216.9031 H   0  0  0  0  0  0  0  0  0  0  0  0
  143.1586   74.7527  217.5865 H   0  0  0  0  0  0  0  0  0  0  0  0
  140.3062   74.4383  218.3354 H   0  0  0  0  0  0  0  0  0  0  0  0
  141.6651   73.3438  218.6208 H   0  0  0  0  0  0  0  0  0  0  0  0
  1  2  1  0
  2  3  1  0
  3  4  2  0
  3  5  1  0
  5  6  1  0
  6  7  2  0
  7  8  1  0
  8  9  2  0
  9 10  1  0
 10 11  2  0
  5 12  1  0
 12 13  1  0
 13 14  1  0
 14 15  1  0
 15 16  1  0
 16 17  2  0
 16 18  1  0
 18 19  1  0
 18 20  1  0
 20 21  1  0
 21 22  1  0
 22 23  2  0
 23 24  1  0
 24 25  2  0
 25 26  1  0
 26 27  2  0
 27 28  1  0
 15 29  1  0
 29 30  1  0
 11  6  1  0
 30 12  1  0
 28 20  1  0
 27 22  1  0
  1 31  1  0
  1 32  1  0
  1 33  1  0
  2 34  1  0
  2 35  1  0
  7 36  1  0
  8 37  1  0
  9 38  1  0
 10 39  1  0
 11 40  1  0
 12 41  1  0
 13 42  1  0
 13 43  1  0
 14 44  1  0
 14 45  1  0
 18 46  1  1
 19 47  1  0
 19 48  1  0
 20 49  1  0
 21 50  1  0
 21 51  1  0
 23 52  1  0
 24 53  1  0
 25 54  1  0
 26 55  1  0
 28 56  1  0
 28 57  1  0
 29 58  1  0
 29 59  1  0
 30 60  1  0
 30 61  1  0
M  END
>  <smiles>  (24) 
CCC(=O)N(c1ccccc1)C1CCN(C(=O)[C@@H](N)C2Cc3ccccc3C2)CC1

>  <score_type>  (24) 
oracle

>  <origin>  (24) 
autodockgpu

>  <m_score__min__energy>  (24) 
-8.75

>  <m_primary>  (24) 
energy

>  <rmsd>  (24) 
3.9963601838422975

>  <m_score__min__rmsd>  (24) 
3.9963601838422975

>  <meeko>  (24) 
{"free_energy": -7.08, "intermolecular_energy": -9.17, "internal_energy": -3.06, "cluster_size": 10, "cluster_id": 7, "rank_in_cluster": 3}

>  <energy>  (24) 
-7.19

>  <cluster_rmsd>  (24) 
0.0

>  <cluster>  (24) 
6

$$$$

     RDKit          3D

 61 64  0  0  0  0  0  0  0  0999 V2000
  141.8500   82.8030  218.2490 C   0  0  0  0  0  0  0  0  0  0  0  0
  141.0770   81.4630  218.2550 C   0  0  0  0  0  0  0  0  0  0  0  0
  141.8810   80.4110  218.8630 C   0  0  0  0  0  0  0  0  0  0  0  0
  143.0490   80.2210  218.3580 O   0  0  0  0  0  0  0  0  0  0  0  0
  141.5530   79.5650  219.9420 N   0  0  0  0  0  0  0  0  0  0  0  0
  141.7630   80.1690  221.2510 C   0  0  0  0  0  0  0  0  0  0  0  0
  142.2060   79.2690  222.2160 C   0  0  0  0  0  0  0  0  0  0  0  0
  142.4270   79.7830  223.4960 C   0  0  0  0  0  0  0  0  0  0  0  0
  142.2140   81.1150  223.7750 C   0  0  0  0  0  0  0  0  0  0  0  0
  141.7670   81.9820  222.7690 C   0  0  0  0  0  0  0  0  0  0  0  0
  141.5400   81.4900  221.4860 C   0  0  0  0  0  0  0  0  0  0  0  0
  141.0490   78.2470  219.9260 C   0  0  0  0  0  0  0  0  0  0  0  0
  140.2090   77.8550  218.7460 C   0  0  0  0  0  0  0  0  0  0  0  0
  139.2960   76.7210  219.2590 C   0  0  0  0  0  0  0  0  0  0  0  0
  140.0830   75.9330  220.1690 N   0  0  0  0  0  0  0  0  0  0  0  0
  139.5940   75.2140  221.2760 C   0  0  0  0  0  0  0  0  0  0  0  0
  140.4560   74.5870  221.9960 O   0  0  0  0  0  0  0  0  0  0  0  0
  138.2060   75.0860  221.7150 C   0  0  1  0  0  0  0  0  0  0  0  0
  137.9000   73.8310  222.3410 N   0  0  0  0  0  0  0  0  0  0  0  0
  137.8050   76.1750  222.6960 C   0  0  0  0  0  0  0  0  0  0  0  0
  136.4640   76.7720  222.4240 C   0  0  0  0  0  0  0  0  0  0  0  0
  136.7680   78.1380  221.9210 C   0  0  0  0  0  0  0  0  0  0  0  0
  135.9890   79.1380  221.3370 C   0  0  0  0  0  0  0  0  0  0  0  0
  136.5200   80.3500  220.9460 C   0  0  0  0  0  0  0  0  0  0  0  0
  137.8790   80.6150  221.1270 C   0  0  0  0  0  0  0  0  0  0  0  0
  138.6630   79.6390  221.7040 C   0  0  0  0  0  0  0  0  0  0  0  0
  138.1070   78.4240  222.0900 C   0  0  0  0  0  0  0  0  0  0  0  0
  138.8130   77.2750  222.7220 C   0  0  0  0  0  0  0  0  0  0  0  0
  141.5200   75.8580  219.8990 C   0  0  0  0  0  0  0  0  0  0  0  0
  142.1910   77.2350  219.9560 C   0  0  0  0  0  0  0  0  0  0  0  0
  142.0352   83.1241  219.2847 H   0  0  0  0  0  0  0  0  0  0  0  0
  142.8102   82.6701  217.7290 H   0  0  0  0  0  0  0  0  0  0  0  0
  141.2542   83.5677  217.7290 H   0  0  0  0  0  0  0  0  0  0  0  0
  140.1466   81.5847  218.8291 H   0  0  0  0  0  0  0  0  0  0  0  0
  140.8486   81.1802  217.2168 H   0  0  0  0  0  0  0  0  0  0  0  0
  142.3735   78.2072  221.9826 H   0  0  0  0  0  0  0  0  0  0  0  0
  142.7771   79.1126  224.2948 H   0  0  0  0  0  0  0  0  0  0  0  0
  142.3952   81.4989  224.7898 H   0  0  0  0  0  0  0  0  0  0  0  0
  141.5963   83.0457  222.9915 H   0  0  0  0  0  0  0  0  0  0  0  0
  141.1888   82.1537  220.6821 H   0  0  0  0  0  0  0  0  0  0  0  0
  140.4049   78.2356  220.8176 H   0  0  0  0  0  0  0  0  0  0  0  0
  139.6072   78.7084  218.4002 H   0  0  0  0  0  0  0  0  0  0  0  0
  140.8235   77.5340  217.8920 H   0  0  0  0  0  0  0  0  0  0  0  0
  138.4242   77.1433  219.7802 H   0  0  0  0  0  0  0  0  0  0  0  0
  138.9235   76.1069  218.4258 H   0  0  0  0  0  0  0  0  0  0  0  0
  137.6382   75.1701  220.7766 H   0  0  0  0  0  0  0  0  0  0  0  0
  137.1880   73.8970  223.0990 H   0  0  0  0  0  0  0  0  0  0  0  0
  138.7440   73.3790  222.7460 H   0  0  0  0  0  0  0  0  0  0  0  0
  137.7555   75.6690  223.6714 H   0  0  0  0  0  0  0  0  0  0  0  0
  135.9237   76.1879  221.6645 H   0  0  0  0  0  0  0  0  0  0  0  0
  135.8199   76.7850  223.3156 H   0  0  0  0  0  0  0  0  0  0  0  0
  134.9155   78.9537  221.1833 H   0  0  0  0  0  0  0  0  0  0  0  0
  135.8698   81.1109  220.4896 H   0  0  0  0  0  0  0  0  0  0  0  0
  138.3126   81.5773  220.8173 H   0  0  0  0  0  0  0  0  0  0  0  0
  139.7363   79.8225  221.8603 H   0  0  0  0  0  0  0  0  0  0  0  0
  139.7075   76.9997  222.1441 H   0  0  0  0  0  0  0  0  0  0  0  0
  139.1665   77.5020  223.7386 H   0  0  0  0  0  0  0  0  0  0  0  0
  141.9881   75.2042  220.6496 H   0  0  0  0  0  0  0  0  0  0  0  0
  141.6529   75.4587  218.8827 H   0  0  0  0  0  0  0  0  0  0  0  0
  142.7738   77.3405  220.8829 H   0  0  0  0  0  0  0  0  0  0  0  0
  142.8896   77.3833  219.1194 H   0  0  0  0  0  0  0  0  0  0  0  0
  1  2  1  0
  2  3  1  0
  3  4  2  0
  3  5  1  0
  5  6  1  0
  6  7  2  0
  7  8  1  0
  8  9  2  0
  9 10  1  0
 10 11  2  0
  5 12  1  0
 12 13  1  0
 13 14  1  0
 14 15  1  0
 15 16  1  0
 16 17  2  0
 16 18  1  0
 18 19  1  0
 18 20  1  0
 20 21  1  0
 21 22  1  0
 22 23  2  0
 23 24  1  0
 24 25  2  0
 25 26  1  0
 26 27  2  0
 27 28  1  0
 15 29  1  0
 29 30  1  0
 11  6  1  0
 30 12  1  0
 28 20  1  0
 27 22  1  0
  1 31  1  0
  1 32  1  0
  1 33  1  0
  2 34  1  0
  2 35  1  0
  7 36  1  0
  8 37  1  0
  9 38  1  0
 10 39  1  0
 11 40  1  0
 12 41  1  0
 13 42  1  0
 13 43  1  0
 14 44  1  0
 14 45  1  0
 18 46  1  6
 19 47  1  0
 19 48  1  0
 20 49  1  0
 21 50  1  0
 21 51  1  0
 23 52  1  0
 24 53  1  0
 25 54  1  0
 26 55  1  0
 28 56  1  0
 28 57  1  0
 29 58  1  0
 29 59  1  0
 30 60  1  0
 30 61  1  0
M  END
>  <smiles>  (25) 
CCC(=O)N(c1ccccc1)C1CCN(C(=O)[C@@H](N)C2Cc3ccccc3C2)CC1

>  <score_type>  (25) 
oracle

>  <origin>  (25) 
autodockgpu

>  <m_score__min__energy>  (25) 
-8.75

>  <m_primary>  (25) 
energy

>  <rmsd>  (25) 
4.442117815943144

>  <m_score__min__rmsd>  (25) 
4.442117815943144

>  <meeko>  (25) 
{"free_energy": -6.01, "intermolecular_energy": -8.1, "internal_energy": -3.65, "cluster_size": 10, "cluster_id": 11, "rank_in_cluster": 7}

>  <energy>  (25) 
-7.09

>  <cluster_rmsd>  (25) 
0.0

>  <cluster>  (25) 
7

$$$$

     RDKit          3D

 61 64  0  0  0  0  0  0  0  0999 V2000
  145.7090   73.8420  221.2150 C   0  0  0  0  0  0  0  0  0  0  0  0
  146.2780   72.7380  220.2910 C   0  0  0  0  0  0  0  0  0  0  0  0
  145.2590   72.2770  219.3580 C   0  0  0  0  0  0  0  0  0  0  0  0
  145.4370   72.5810  218.1220 O   0  0  0  0  0  0  0  0  0  0  0  0
  144.0920   71.5310  219.6270 N   0  0  0  0  0  0  0  0  0  0  0  0
  144.2670   70.0910  219.4930 C   0  0  0  0  0  0  0  0  0  0  0  0
  143.0930   69.3680  219.6790 C   0  0  0  0  0  0  0  0  0  0  0  0
  143.1900   67.9780  219.5630 C   0  0  0  0  0  0  0  0  0  0  0  0
  144.3920   67.3690  219.2790 C   0  0  0  0  0  0  0  0  0  0  0  0
  145.5470   68.1420  219.1010 C   0  0  0  0  0  0  0  0  0  0  0  0
  145.4730   69.5290  219.2120 C   0  0  0  0  0  0  0  0  0  0  0  0
  142.8110   71.9810  220.0120 C   0  0  0  0  0  0  0  0  0  0  0  0
  142.7060   73.3930  220.5090 C   0  0  0  0  0  0  0  0  0  0  0  0
  141.4690   73.4060  221.4310 C   0  0  0  0  0  0  0  0  0  0  0  0
  140.4940   72.5350  220.8320 N   0  0  0  0  0  0  0  0  0  0  0  0
  139.5200   71.7870  221.5200 C   0  0  0  0  0  0  0  0  0  0  0  0
  138.7490   71.0380  220.8130 O   0  0  0  0  0  0  0  0  0  0  0  0
  139.2690   71.7560  222.9590 C   0  0  1  0  0  0  0  0  0  0  0  0
  137.9200   71.4170  223.3140 N   0  0  0  0  0  0  0  0  0  0  0  0
  140.1740   70.7750  223.6850 C   0  0  0  0  0  0  0  0  0  0  0  0
  139.4410   69.7150  224.4370 C   0  0  0  0  0  0  0  0  0  0  0  0
  139.6470   70.0720  225.8660 C   0  0  0  0  0  0  0  0  0  0  0  0
  139.0970   69.6010  227.0590 C   0  0  0  0  0  0  0  0  0  0  0  0
  139.4620   70.1100  228.2880 C   0  0  0  0  0  0  0  0  0  0  0  0
  140.4120   71.1300  228.3740 C   0  0  0  0  0  0  0  0  0  0  0  0
  140.9670   71.6050  227.2060 C   0  0  0  0  0  0  0  0  0  0  0  0
  140.5840   71.0790  225.9770 C   0  0  0  0  0  0  0  0  0  0  0  0
  141.0840   71.4810  224.6340 C   0  0  0  0  0  0  0  0  0  0  0  0
  140.5070   72.4410  219.3710 C   0  0  0  0  0  0  0  0  0  0  0  0
  141.8370   71.8980  218.8390 C   0  0  0  0  0  0  0  0  0  0  0  0
  145.8578   73.5533  222.2659 H   0  0  0  0  0  0  0  0  0  0  0  0
  146.2308   74.7901  221.0178 H   0  0  0  0  0  0  0  0  0  0  0  0
  144.6341   73.9672  221.0178 H   0  0  0  0  0  0  0  0  0  0  0  0
  147.1298   73.1433  219.7252 H   0  0  0  0  0  0  0  0  0  0  0  0
  146.6029   71.8889  220.9103 H   0  0  0  0  0  0  0  0  0  0  0  0
  142.1378   69.8643  219.9056 H   0  0  0  0  0  0  0  0  0  0  0  0
  142.2905   67.3601  219.7010 H   0  0  0  0  0  0  0  0  0  0  0  0
  144.4455   66.2738  219.1917 H   0  0  0  0  0  0  0  0  0  0  0  0
  146.5076   67.6562  218.8747 H   0  0  0  0  0  0  0  0  0  0  0  0
  146.3680   70.1539  219.0757 H   0  0  0  0  0  0  0  0  0  0  0  0
  142.5748   71.3099  220.8510 H   0  0  0  0  0  0  0  0  0  0  0  0
  143.6092   73.6722  221.0713 H   0  0  0  0  0  0  0  0  0  0  0  0
  142.6111   74.1136  219.6834 H   0  0  0  0  0  0  0  0  0  0  0  0
  141.7394   73.0396  222.4323 H   0  0  0  0  0  0  0  0  0  0  0  0
  141.0712   74.4254  221.5427 H   0  0  0  0  0  0  0  0  0  0  0  0
  139.4760   72.7902  223.2712 H   0  0  0  0  0  0  0  0  0  0  0  0
  137.3250   71.1380  222.5060 H   0  0  0  0  0  0  0  0  0  0  0  0
  137.4360   72.1980  223.8020 H   0  0  0  0  0  0  0  0  0  0  0  0
  140.7491   70.2828  222.8869 H   0  0  0  0  0  0  0  0  0  0  0  0
  138.3708   69.7256  224.1827 H   0  0  0  0  0  0  0  0  0  0  0  0
  139.8024   68.7036  224.1993 H   0  0  0  0  0  0  0  0  0  0  0  0
  138.3474   68.7970  227.0179 H   0  0  0  0  0  0  0  0  0  0  0  0
  139.0028   69.7107  229.2043 H   0  0  0  0  0  0  0  0  0  0  0  0
  140.7094   71.5434  229.3490 H   0  0  0  0  0  0  0  0  0  0  0  0
  141.7191   72.4067  227.2459 H   0  0  0  0  0  0  0  0  0  0  0  0
  141.0175   72.5710  224.5020 H   0  0  0  0  0  0  0  0  0  0  0  0
  142.1416   71.2206  224.4801 H   0  0  0  0  0  0  0  0  0  0  0  0
  139.6967   71.7690  219.0518 H   0  0  0  0  0  0  0  0  0  0  0  0
  140.3690   73.4543  218.9657 H   0  0  0  0  0  0  0  0  0  0  0  0
  141.7216   70.8552  218.5084 H   0  0  0  0  0  0  0  0  0  0  0  0
  142.1939   72.4721  217.9713 H   0  0  0  0  0  0  0  0  0  0  0  0
  1  2  1  0
  2  3  1  0
  3  4  2  0
  3  5  1  0
  5  6  1  0
  6  7  2  0
  7  8  1  0
  8  9  2  0
  9 10  1  0
 10 11  2  0
  5 12  1  0
 12 13  1  0
 13 14  1  0
 14 15  1  0
 15 16  1  0
 16 17  2  0
 16 18  1  0
 18 19  1  0
 18 20  1  0
 20 21  1  0
 21 22  1  0
 22 23  2  0
 23 24  1  0
 24 25  2  0
 25 26  1  0
 26 27  2  0
 27 28  1  0
 15 29  1  0
 29 30  1  0
 11  6  1  0
 30 12  1  0
 28 20  1  0
 27 22  1  0
  1 31  1  0
  1 32  1  0
  1 33  1  0
  2 34  1  0
  2 35  1  0
  7 36  1  0
  8 37  1  0
  9 38  1  0
 10 39  1  0
 11 40  1  0
 12 41  1  0
 13 42  1  0
 13 43  1  0
 14 44  1  0
 14 45  1  0
 18 46  1  1
 19 47  1  0
 19 48  1  0
 20 49  1  0
 21 50  1  0
 21 51  1  0
 23 52  1  0
 24 53  1  0
 25 54  1  0
 26 55  1  0
 28 56  1  0
 28 57  1  0
 29 58  1  0
 29 59  1  0
 30 60  1  0
 30 61  1  0
M  END
>  <smiles>  (26) 
CCC(=O)N(c1ccccc1)C1CCN(C(=O)[C@@H](N)C2Cc3ccccc3C2)CC1

>  <score_type>  (26) 
oracle

>  <origin>  (26) 
autodockgpu

>  <m_score__min__energy>  (26) 
-8.75

>  <m_primary>  (26) 
energy

>  <rmsd>  (26) 
9.353698015651332

>  <m_score__min__rmsd>  (26) 
9.353698015651332

>  <meeko>  (26) 
{"free_energy": -7.33, "intermolecular_energy": -9.41, "internal_energy": -2.23, "cluster_size": 6, "cluster_id": 3, "rank_in_cluster": 6}

>  <energy>  (26) 
-7.08

>  <cluster_rmsd>  (26) 
0.13

>  <cluster>  (26) 
7

$$$$

     RDKit          3D

 61 64  0  0  0  0  0  0  0  0999 V2000
  146.3170   73.0730  221.7310 C   0  0  0  0  0  0  0  0  0  0  0  0
  145.6620   74.1640  220.8510 C   0  0  0  0  0  0  0  0  0  0  0  0
  145.1810   73.5910  219.6010 C   0  0  0  0  0  0  0  0  0  0  0  0
  145.9490   72.7290  219.0350 O   0  0  0  0  0  0  0  0  0  0  0  0
  143.9740   73.8520  218.9200 N   0  0  0  0  0  0  0  0  0  0  0  0
  144.1560   74.3430  217.5600 C   0  0  0  0  0  0  0  0  0  0  0  0
  144.5670   73.3610  216.6640 C   0  0  0  0  0  0  0  0  0  0  0  0
  144.7610   73.7640  215.3400 C   0  0  0  0  0  0  0  0  0  0  0  0
  144.5520   75.0700  214.9550 C   0  0  0  0  0  0  0  0  0  0  0  0
  144.1390   76.0220  215.8960 C   0  0  0  0  0  0  0  0  0  0  0  0
  143.9400   75.6420  217.2210 C   0  0  0  0  0  0  0  0  0  0  0  0
  142.6430   73.6940  219.3630 C   0  0  0  0  0  0  0  0  0  0  0  0
  141.5850   73.5630  218.3070 C   0  0  0  0  0  0  0  0  0  0  0  0
  140.2850   74.0600  218.9730 C   0  0  0  0  0  0  0  0  0  0  0  0
  140.3230   73.6170  220.3400 N   0  0  0  0  0  0  0  0  0  0  0  0
  139.7260   74.2680  221.4370 C   0  0  0  0  0  0  0  0  0  0  0  0
  139.8900   73.7350  222.5960 O   0  0  0  0  0  0  0  0  0  0  0  0
  138.9280   75.4930  221.4230 C   0  0  1  0  0  0  0  0  0  0  0  0
  138.4520   75.8990  222.7150 N   0  0  0  0  0  0  0  0  0  0  0  0
  139.6880   76.6740  220.8430 C   0  0  0  0  0  0  0  0  0  0  0  0
  141.0690   76.8330  221.3860 C   0  0  0  0  0  0  0  0  0  0  0  0
  140.9860   78.0460  222.2430 C   0  0  0  0  0  0  0  0  0  0  0  0
  141.8630   78.6330  223.1570 C   0  0  0  0  0  0  0  0  0  0  0  0
  141.5460   79.7870  223.8420 C   0  0  0  0  0  0  0  0  0  0  0  0
  140.3140   80.4120  223.6380 C   0  0  0  0  0  0  0  0  0  0  0  0
  139.4370   79.8460  222.7380 C   0  0  0  0  0  0  0  0  0  0  0  0
  139.7770   78.6820  222.0570 C   0  0  0  0  0  0  0  0  0  0  0  0
  138.9470   77.9510  221.0600 C   0  0  0  0  0  0  0  0  0  0  0  0
  141.0270   72.3610  220.6050 C   0  0  0  0  0  0  0  0  0  0  0  0
  142.5080   72.4380  220.2200 C   0  0  0  0  0  0  0  0  0  0  0  0
  146.1686   73.3202  222.7925 H   0  0  0  0  0  0  0  0  0  0  0  0
  145.8540   72.0993  221.5131 H   0  0  0  0  0  0  0  0  0  0  0  0
  147.3941   73.0239  221.5131 H   0  0  0  0  0  0  0  0  0  0  0  0
  144.8153   74.6078  221.3952 H   0  0  0  0  0  0  0  0  0  0  0  0
  146.4126   74.9351  220.6231 H   0  0  0  0  0  0  0  0  0  0  0  0
  144.7308   72.3207  216.9816 H   0  0  0  0  0  0  0  0  0  0  0  0
  145.0862   73.0256  214.5924 H   0  0  0  0  0  0  0  0  0  0  0  0
  144.7096   75.3657  213.9073 H   0  0  0  0  0  0  0  0  0  0  0  0
  143.9726   77.0653  215.5897 H   0  0  0  0  0  0  0  0  0  0  0  0
  143.6160   76.3747  217.9748 H   0  0  0  0  0  0  0  0  0  0  0  0
  142.4666   74.6367  219.9017 H   0  0  0  0  0  0  0  0  0  0  0  0
  141.8328   74.1841  217.4336 H   0  0  0  0  0  0  0  0  0  0  0  0
  141.4918   72.5286  217.9445 H   0  0  0  0  0  0  0  0  0  0  0  0
  140.2344   75.1581  218.9321 H   0  0  0  0  0  0  0  0  0  0  0  0
  139.3995   73.6641  218.4543 H   0  0  0  0  0  0  0  0  0  0  0  0
  138.0698   75.2260  220.7888 H   0  0  0  0  0  0  0  0  0  0  0  0
  139.0310   76.6370  223.1680 H   0  0  0  0  0  0  0  0  0  0  0  0
  138.3890   75.1010  223.3780 H   0  0  0  0  0  0  0  0  0  0  0  0
  139.7740   76.4510  219.7693 H   0  0  0  0  0  0  0  0  0  0  0  0
  141.3581   75.9540  221.9808 H   0  0  0  0  0  0  0  0  0  0  0  0
  141.8255   76.9280  220.5931 H   0  0  0  0  0  0  0  0  0  0  0  0
  142.8393   78.1592  223.3367 H   0  0  0  0  0  0  0  0  0  0  0  0
  142.2671   80.2173  224.5525 H   0  0  0  0  0  0  0  0  0  0  0  0
  140.0505   81.3316  224.1811 H   0  0  0  0  0  0  0  0  0  0  0  0
  138.4604   80.3186  222.5569 H   0  0  0  0  0  0  0  0  0  0  0  0
  137.9397   77.7564  221.4568 H   0  0  0  0  0  0  0  0  0  0  0  0
  138.8017   78.5203  220.1301 H   0  0  0  0  0  0  0  0  0  0  0  0
  140.9510   72.1314  221.6781 H   0  0  0  0  0  0  0  0  0  0  0  0
  140.5587   71.5749  219.9944 H   0  0  0  0  0  0  0  0  0  0  0  0
  143.1353   72.5177  221.1201 H   0  0  0  0  0  0  0  0  0  0  0  0
  142.8358   71.5381  219.6789 H   0  0  0  0  0  0  0  0  0  0  0  0
  1  2  1  0
  2  3  1  0
  3  4  2  0
  3  5  1  0
  5  6  1  0
  6  7  2  0
  7  8  1  0
  8  9  2  0
  9 10  1  0
 10 11  2  0
  5 12  1  0
 12 13  1  0
 13 14  1  0
 14 15  1  0
 15 16  1  0
 16 17  2  0
 16 18  1  0
 18 19  1  0
 18 20  1  0
 20 21  1  0
 21 22  1  0
 22 23  2  0
 23 24  1  0
 24 25  2  0
 25 26  1  0
 26 27  2  0
 27 28  1  0
 15 29  1  0
 29 30  1  0
 11  6  1  0
 30 12  1  0
 28 20  1  0
 27 22  1  0
  1 31  1  0
  1 32  1  0
  1 33  1  0
  2 34  1  0
  2 35  1  0
  7 36  1  0
  8 37  1  0
  9 38  1  0
 10 39  1  0
 11 40  1  0
 12 41  1  0
 13 42  1  0
 13 43  1  0
 14 44  1  0
 14 45  1  0
 18 46  1  6
 19 47  1  0
 19 48  1  0
 20 49  1  0
 21 50  1  0
 21 51  1  0
 23 52  1  0
 24 53  1  0
 25 54  1  0
 26 55  1  0
 28 56  1  0
 28 57  1  0
 29 58  1  0
 29 59  1  0
 30 60  1  0
 30 61  1  0
M  END
>  <smiles>  (27) 
CCC(=O)N(c1ccccc1)C1CCN(C(=O)[C@@H](N)C2Cc3ccccc3C2)CC1

>  <score_type>  (27) 
oracle

>  <origin>  (27) 
autodockgpu

>  <m_score__min__energy>  (27) 
-8.75

>  <m_primary>  (27) 
energy

>  <rmsd>  (27) 
4.645138046314025

>  <m_score__min__rmsd>  (27) 
4.645138046314025

>  <meeko>  (27) 
{"free_energy": -6.92, "intermolecular_energy": -9.01, "internal_energy": -2.54, "cluster_size": 1, "cluster_id": 9, "rank_in_cluster": 1}

>  <energy>  (27) 
-7.08

>  <cluster_rmsd>  (27) 
0.14

>  <cluster>  (27) 
7

$$$$

     RDKit          3D

 61 64  0  0  0  0  0  0  0  0999 V2000
  144.0880   82.7590  216.2080 C   0  0  0  0  0  0  0  0  0  0  0  0
  143.2670   83.3500  217.3790 C   0  0  0  0  0  0  0  0  0  0  0  0
  141.9170   82.8020  217.3850 C   0  0  0  0  0  0  0  0  0  0  0  0
  141.1190   83.2410  216.4770 O   0  0  0  0  0  0  0  0  0  0  0  0
  141.3600   81.8430  218.2560 N   0  0  0  0  0  0  0  0  0  0  0  0
  140.5060   82.4100  219.2910 C   0  0  0  0  0  0  0  0  0  0  0  0
  141.0730   83.4990  219.9460 C   0  0  0  0  0  0  0  0  0  0  0  0
  140.3060   84.0920  220.9520 C   0  0  0  0  0  0  0  0  0  0  0  0
  139.0540   83.6140  221.2690 C   0  0  0  0  0  0  0  0  0  0  0  0
  138.5270   82.5130  220.5810 C   0  0  0  0  0  0  0  0  0  0  0  0
  139.2750   81.9060  219.5740 C   0  0  0  0  0  0  0  0  0  0  0  0
  141.5040   80.4390  218.2520 C   0  0  0  0  0  0  0  0  0  0  0  0
  140.6470   79.6700  217.2900 C   0  0  0  0  0  0  0  0  0  0  0  0
  140.4990   78.2670  217.9150 C   0  0  0  0  0  0  0  0  0  0  0  0
  141.7600   77.9490  218.5280 N   0  0  0  0  0  0  0  0  0  0  0  0
  141.9470   77.1260  219.6560 C   0  0  0  0  0  0  0  0  0  0  0  0
  143.1520   76.9790  220.0800 O   0  0  0  0  0  0  0  0  0  0  0  0
  140.9270   76.4060  220.4160 C   0  0  1  0  0  0  0  0  0  0  0  0
  141.4400   75.3350  221.2210 N   0  0  0  0  0  0  0  0  0  0  0  0
  140.1430   77.3180  221.3440 C   0  0  0  0  0  0  0  0  0  0  0  0
  140.0620   78.7330  220.8790 C   0  0  0  0  0  0  0  0  0  0  0  0
  140.9350   79.4790  221.8230 C   0  0  0  0  0  0  0  0  0  0  0  0
  141.4240   80.7870  221.8450 C   0  0  0  0  0  0  0  0  0  0  0  0
  142.2390   81.2500  222.8580 C   0  0  0  0  0  0  0  0  0  0  0  0
  142.6040   80.4070  223.9090 C   0  0  0  0  0  0  0  0  0  0  0  0
  142.1290   79.1130  223.9040 C   0  0  0  0  0  0  0  0  0  0  0  0
  141.3090   78.6660  222.8730 C   0  0  0  0  0  0  0  0  0  0  0  0
  140.7180   77.3080  222.7210 C   0  0  0  0  0  0  0  0  0  0  0  0
  142.9560   78.5150  217.9020 C   0  0  0  0  0  0  0  0  0  0  0  0
  142.9390   80.0480  217.9090 C   0  0  0  0  0  0  0  0  0  0  0  0
  144.9195   82.1605  216.6085 H   0  0  0  0  0  0  0  0  0  0  0  0
  143.4393   82.1193  215.5915 H   0  0  0  0  0  0  0  0  0  0  0  0
  144.4888   83.5771  215.5915 H   0  0  0  0  0  0  0  0  0  0  0  0
  143.7623   83.1021  218.3294 H   0  0  0  0  0  0  0  0  0  0  0  0
  143.2068   84.4414  217.2554 H   0  0  0  0  0  0  0  0  0  0  0  0
  142.0738   83.8737  219.6851 H   0  0  0  0  0  0  0  0  0  0  0  0
  140.7093   84.9560  221.5005 H   0  0  0  0  0  0  0  0  0  0  0  0
  138.4667   84.0973  222.0636 H   0  0  0  0  0  0  0  0  0  0  0  0
  137.5276   82.1296  220.8345 H   0  0  0  0  0  0  0  0  0  0  0  0
  138.8796   81.0407  219.0218 H   0  0  0  0  0  0  0  0  0  0  0  0
  141.1887   80.1720  219.2714 H   0  0  0  0  0  0  0  0  0  0  0  0
  139.6632   80.1497  217.1809 H   0  0  0  0  0  0  0  0  0  0  0  0
  141.0919   79.6282  216.2848 H   0  0  0  0  0  0  0  0  0  0  0  0
  139.7008   78.2721  218.6719 H   0  0  0  0  0  0  0  0  0  0  0  0
  140.2327   77.5214  217.1514 H   0  0  0  0  0  0  0  0  0  0  0  0
  140.2782   75.9892  219.6316 H   0  0  0  0  0  0  0  0  0  0  0  0
  142.3980   75.5050  221.5950 H   0  0  0  0  0  0  0  0  0  0  0  0
  141.4640   74.4330  220.7040 H   0  0  0  0  0  0  0  0  0  0  0  0
  139.1228   76.9067  221.3438 H   0  0  0  0  0  0  0  0  0  0  0  0
  140.4333   78.8264  219.8478 H   0  0  0  0  0  0  0  0  0  0  0  0
  139.0302   79.1143  220.8692 H   0  0  0  0  0  0  0  0  0  0  0  0
  141.1505   81.4708  221.0279 H   0  0  0  0  0  0  0  0  0  0  0  0
  142.6026   82.2880  222.8371 H   0  0  0  0  0  0  0  0  0  0  0  0
  143.2541   80.7661  224.7204 H   0  0  0  0  0  0  0  0  0  0  0  0
  142.4004   78.4287  224.7214 H   0  0  0  0  0  0  0  0  0  0  0  0
  141.4916   76.5318  222.8163 H   0  0  0  0  0  0  0  0  0  0  0  0
  139.9666   77.0839  223.4925 H   0  0  0  0  0  0  0  0  0  0  0  0
  143.8428   78.1674  218.4523 H   0  0  0  0  0  0  0  0  0  0  0  0
  142.9807   78.1809  216.8542 H   0  0  0  0  0  0  0  0  0  0  0  0
  143.6349   80.4366  218.6671 H   0  0  0  0  0  0  0  0  0  0  0  0
  143.2546   80.4638  216.9408 H   0  0  0  0  0  0  0  0  0  0  0  0
  1  2  1  0
  2  3  1  0
  3  4  2  0
  3  5  1  0
  5  6  1  0
  6  7  2  0
  7  8  1  0
  8  9  2  0
  9 10  1  0
 10 11  2  0
  5 12  1  0
 12 13  1  0
 13 14  1  0
 14 15  1  0
 15 16  1  0
 16 17  2  0
 16 18  1  0
 18 19  1  0
 18 20  1  0
 20 21  1  0
 21 22  1  0
 22 23  2  0
 23 24  1  0
 24 25  2  0
 25 26  1  0
 26 27  2  0
 27 28  1  0
 15 29  1  0
 29 30  1  0
 11  6  1  0
 30 12  1  0
 28 20  1  0
 27 22  1  0
  1 31  1  0
  1 32  1  0
  1 33  1  0
  2 34  1  0
  2 35  1  0
  7 36  1  0
  8 37  1  0
  9 38  1  0
 10 39  1  0
 11 40  1  0
 12 41  1  0
 13 42  1  0
 13 43  1  0
 14 44  1  0
 14 45  1  0
 18 46  1  6
 19 47  1  0
 19 48  1  0
 20 49  1  0
 21 50  1  0
 21 51  1  0
 23 52  1  0
 24 53  1  0
 25 54  1  0
 26 55  1  0
 28 56  1  0
 28 57  1  0
 29 58  1  0
 29 59  1  0
 30 60  1  0
 30 61  1  0
M  END
>  <smiles>  (28) 
CCC(=O)N(c1ccccc1)C1CCN(C(=O)[C@@H](N)C2Cc3ccccc3C2)CC1

>  <score_type>  (28) 
oracle

>  <origin>  (28) 
autodockgpu

>  <m_score__min__energy>  (28) 
-8.75

>  <m_primary>  (28) 
energy

>  <rmsd>  (28) 
3.8879355712265835

>  <m_score__min__rmsd>  (28) 
3.8879355712265835

>  <meeko>  (28) 
{"free_energy": -5.64, "intermolecular_energy": -7.72, "internal_energy": -3.58, "cluster_size": 1, "cluster_id": 12, "rank_in_cluster": 1}

>  <energy>  (28) 
-7.05

>  <cluster_rmsd>  (28) 
0.1

>  <cluster>  (28) 
7

$$$$

     RDKit          3D

 61 64  0  0  0  0  0  0  0  0999 V2000
  146.3120   73.0800  221.2890 C   0  0  0  0  0  0  0  0  0  0  0  0
  145.2330   74.1000  220.8520 C   0  0  0  0  0  0  0  0  0  0  0  0
  143.9310   73.4560  220.7510 C   0  0  0  0  0  0  0  0  0  0  0  0
  143.8690   72.2300  221.1360 O   0  0  0  0  0  0  0  0  0  0  0  0
  142.7140   73.9970  220.2870 N   0  0  0  0  0  0  0  0  0  0  0  0
  142.8760   75.0520  219.2960 C   0  0  0  0  0  0  0  0  0  0  0  0
  142.6290   76.3280  219.7930 C   0  0  0  0  0  0  0  0  0  0  0  0
  142.7670   77.3870  218.8930 C   0  0  0  0  0  0  0  0  0  0  0  0
  143.1300   77.1660  217.5830 C   0  0  0  0  0  0  0  0  0  0  0  0
  143.3670   75.8620  217.1290 C   0  0  0  0  0  0  0  0  0  0  0  0
  143.2350   74.7910  218.0100 C   0  0  0  0  0  0  0  0  0  0  0  0
  141.3900   73.6550  220.6370 C   0  0  0  0  0  0  0  0  0  0  0  0
  140.6090   74.6690  221.4190 C   0  0  0  0  0  0  0  0  0  0  0  0
  139.5550   73.8540  222.1980 C   0  0  0  0  0  0  0  0  0  0  0  0
  139.1290   72.7890  221.3310 N   0  0  0  0  0  0  0  0  0  0  0  0
  138.6760   71.5200  221.7410 C   0  0  0  0  0  0  0  0  0  0  0  0
  138.3620   70.6830  220.8160 O   0  0  0  0  0  0  0  0  0  0  0  0
  138.5140   71.0280  223.1070 C   0  0  1  0  0  0  0  0  0  0  0  0
  137.5150   70.0070  223.2500 N   0  0  0  0  0  0  0  0  0  0  0  0
  139.8040   70.4640  223.6780 C   0  0  0  0  0  0  0  0  0  0  0  0
  139.5990   69.4540  224.7570 C   0  0  0  0  0  0  0  0  0  0  0  0
  140.0310   70.1510  225.9980 C   0  0  0  0  0  0  0  0  0  0  0  0
  139.9360   69.8370  227.3540 C   0  0  0  0  0  0  0  0  0  0  0  0
  140.4270   70.6720  228.3380 C   0  0  0  0  0  0  0  0  0  0  0  0
  141.0440   71.8770  227.9960 C   0  0  0  0  0  0  0  0  0  0  0  0
  141.1470   72.2010  226.6610 C   0  0  0  0  0  0  0  0  0  0  0  0
  140.6460   71.3460  225.6850 C   0  0  0  0  0  0  0  0  0  0  0  0
  140.6780   71.5500  224.2110 C   0  0  0  0  0  0  0  0  0  0  0  0
  139.1470   73.0660  219.8940 C   0  0  0  0  0  0  0  0  0  0  0  0
  140.5570   73.3880  219.3860 C   0  0  0  0  0  0  0  0  0  0  0  0
  146.3548   73.0395  222.3874 H   0  0  0  0  0  0  0  0  0  0  0  0
  146.0570   72.0851  220.8951 H   0  0  0  0  0  0  0  0  0  0  0  0
  147.2910   73.3905  220.8951 H   0  0  0  0  0  0  0  0  0  0  0  0
  145.1792   74.9099  221.5944 H   0  0  0  0  0  0  0  0  0  0  0  0
  145.5060   74.5051  219.8664 H   0  0  0  0  0  0  0  0  0  0  0  0
  142.3398   76.4941  220.8412 H   0  0  0  0  0  0  0  0  0  0  0  0
  142.5825   78.4156  219.2365 H   0  0  0  0  0  0  0  0  0  0  0  0
  143.2341   78.0152  216.8916 H   0  0  0  0  0  0  0  0  0  0  0  0
  143.6558   75.6848  216.0825 H   0  0  0  0  0  0  0  0  0  0  0  0
  143.4166   73.7594  217.6740 H   0  0  0  0  0  0  0  0  0  0  0  0
  141.5417   72.7769  221.2820 H   0  0  0  0  0  0  0  0  0  0  0  0
  141.2675   75.2116  222.1132 H   0  0  0  0  0  0  0  0  0  0  0  0
  140.1456   75.4237  220.7666 H   0  0  0  0  0  0  0  0  0  0  0  0
  139.9986   73.4406  223.1158 H   0  0  0  0  0  0  0  0  0  0  0  0
  138.7050   74.4872  222.4922 H   0  0  0  0  0  0  0  0  0  0  0  0
  138.1965   71.9246  223.6596 H   0  0  0  0  0  0  0  0  0  0  0  0
  137.8910   69.0840  223.5540 H   0  0  0  0  0  0  0  0  0  0  0  0
  136.9850   69.8520  222.3690 H   0  0  0  0  0  0  0  0  0  0  0  0
  140.2865   69.9560  222.8300 H   0  0  0  0  0  0  0  0  0  0  0  0
  138.5404   69.1624  224.8220 H   0  0  0  0  0  0  0  0  0  0  0  0
  140.1623   68.5264  224.5776 H   0  0  0  0  0  0  0  0  0  0  0  0
  139.4541   68.8932  227.6490 H   0  0  0  0  0  0  0  0  0  0  0  0
  140.3317   70.3866  229.3961 H   0  0  0  0  0  0  0  0  0  0  0  0
  141.4375   72.5499  228.7721 H   0  0  0  0  0  0  0  0  0  0  0  0
  141.6296   73.1439  226.3644 H   0  0  0  0  0  0  0  0  0  0  0  0
  140.2788   72.5397  223.9443 H   0  0  0  0  0  0  0  0  0  0  0  0
  141.6977   71.5132  223.8002 H   0  0  0  0  0  0  0  0  0  0  0  0
  138.7700   72.1826  219.3578 H   0  0  0  0  0  0  0  0  0  0  0  0
  138.5121   73.9454  219.7107 H   0  0  0  0  0  0  0  0  0  0  0  0
  140.9677   72.5353  218.8254 H   0  0  0  0  0  0  0  0  0  0  0  0
  140.5578   74.2506  218.7034 H   0  0  0  0  0  0  0  0  0  0  0  0
  1  2  1  0
  2  3  1  0
  3  4  2  0
  3  5  1  0
  5  6  1  0
  6  7  2  0
  7  8  1  0
  8  9  2  0
  9 10  1  0
 10 11  2  0
  5 12  1  0
 12 13  1  0
 13 14  1  0
 14 15  1  0
 15 16  1  0
 16 17  2  0
 16 18  1  0
 18 19  1  0
 18 20  1  0
 20 21  1  0
 21 22  1  0
 22 23  2  0
 23 24  1  0
 24 25  2  0
 25 26  1  0
 26 27  2  0
 27 28  1  0
 15 29  1  0
 29 30  1  0
 11  6  1  0
 30 12  1  0
 28 20  1  0
 27 22  1  0
  1 31  1  0
  1 32  1  0
  1 33  1  0
  2 34  1  0
  2 35  1  0
  7 36  1  0
  8 37  1  0
  9 38  1  0
 10 39  1  0
 11 40  1  0
 12 41  1  0
 13 42  1  0
 13 43  1  0
 14 44  1  0
 14 45  1  0
 18 46  1  1
 19 47  1  0
 19 48  1  0
 20 49  1  0
 21 50  1  0
 21 51  1  0
 23 52  1  0
 24 53  1  0
 25 54  1  0
 26 55  1  0
 28 56  1  0
 28 57  1  0
 29 58  1  0
 29 59  1  0
 30 60  1  0
 30 61  1  0
M  END
>  <smiles>  (29) 
CCC(=O)N(c1ccccc1)C1CCN(C(=O)[C@@H](N)C2Cc3ccccc3C2)CC1

>  <score_type>  (29) 
oracle

>  <origin>  (29) 
autodockgpu

>  <m_score__min__energy>  (29) 
-8.75

>  <m_primary>  (29) 
energy

>  <rmsd>  (29) 
9.31581847758496

>  <m_score__min__rmsd>  (29) 
9.31581847758496

>  <meeko>  (29) 
{"free_energy": -7.03, "intermolecular_energy": -9.12, "internal_energy": -2.27, "cluster_size": 1, "cluster_id": 8, "rank_in_cluster": 1}

>  <energy>  (29) 
-6.99

>  <cluster_rmsd>  (29) 
0.15

>  <cluster>  (29) 
7

$$$$

     RDKit          3D

 61 64  0  0  0  0  0  0  0  0999 V2000
  136.1890   70.0150  224.9300 C   0  0  0  0  0  0  0  0  0  0  0  0
  137.0340   68.9230  224.2310 C   0  0  0  0  0  0  0  0  0  0  0  0
  138.4560   69.1700  224.4330 C   0  0  0  0  0  0  0  0  0  0  0  0
  139.1930   68.1340  224.6250 O   0  0  0  0  0  0  0  0  0  0  0  0
  139.1430   70.4010  224.4440 N   0  0  0  0  0  0  0  0  0  0  0  0
  139.8220   70.6880  225.7000 C   0  0  0  0  0  0  0  0  0  0  0  0
  140.6970   71.7680  225.6270 C   0  0  0  0  0  0  0  0  0  0  0  0
  141.3820   72.0980  226.7990 C   0  0  0  0  0  0  0  0  0  0  0  0
  141.1920   71.3830  227.9610 C   0  0  0  0  0  0  0  0  0  0  0  0
  140.3010   70.3030  227.9840 C   0  0  0  0  0  0  0  0  0  0  0  0
  139.6070   69.9560  226.8260 C   0  0  0  0  0  0  0  0  0  0  0  0
  139.2690   71.3650  223.4210 C   0  0  0  0  0  0  0  0  0  0  0  0
  140.4220   71.2060  222.4740 C   0  0  0  0  0  0  0  0  0  0  0  0
  140.7110   72.6270  221.9470 C   0  0  0  0  0  0  0  0  0  0  0  0
  139.4390   73.2800  221.7930 N   0  0  0  0  0  0  0  0  0  0  0  0
  139.1990   74.6620  221.9150 C   0  0  0  0  0  0  0  0  0  0  0  0
  137.9840   75.0610  221.7710 O   0  0  0  0  0  0  0  0  0  0  0  0
  140.1720   75.7170  222.1870 C   0  0  1  0  0  0  0  0  0  0  0  0
  141.4780   75.4680  221.6440 N   0  0  0  0  0  0  0  0  0  0  0  0
  139.7260   77.0690  221.6560 C   0  0  0  0  0  0  0  0  0  0  0  0
  140.7740   77.7920  220.8770 C   0  0  0  0  0  0  0  0  0  0  0  0
  141.1760   78.9170  221.7620 C   0  0  0  0  0  0  0  0  0  0  0  0
  142.2110   79.8520  221.7110 C   0  0  0  0  0  0  0  0  0  0  0  0
  142.3740   80.8220  222.6790 C   0  0  0  0  0  0  0  0  0  0  0  0
  141.4920   80.8960  223.7580 C   0  0  0  0  0  0  0  0  0  0  0  0
  140.4630   79.9810  223.8230 C   0  0  0  0  0  0  0  0  0  0  0  0
  140.3160   79.0110  222.8370 C   0  0  0  0  0  0  0  0  0  0  0  0
  139.2670   77.9580  222.7630 C   0  0  0  0  0  0  0  0  0  0  0  0
  138.2990   72.4260  221.4550 C   0  0  0  0  0  0  0  0  0  0  0  0
  138.0250   71.3740  222.5360 C   0  0  0  0  0  0  0  0  0  0  0  0
  136.2755   69.9033  226.0209 H   0  0  0  0  0  0  0  0  0  0  0  0
  136.5558   71.0086  224.6330 H   0  0  0  0  0  0  0  0  0  0  0  0
  135.1351   69.9093  224.6330 H   0  0  0  0  0  0  0  0  0  0  0  0
  136.7741   67.9401  224.6511 H   0  0  0  0  0  0  0  0  0  0  0  0
  136.8193   68.9434  223.1524 H   0  0  0  0  0  0  0  0  0  0  0  0
  140.8418   72.3328  224.6942 H   0  0  0  0  0  0  0  0  0  0  0  0
  142.0855   72.9437  226.7938 H   0  0  0  0  0  0  0  0  0  0  0  0
  141.7413   71.6610  228.8726 H   0  0  0  0  0  0  0  0  0  0  0  0
  140.1495   69.7312  228.9114 H   0  0  0  0  0  0  0  0  0  0  0  0
  138.9028   69.1110  226.8229 H   0  0  0  0  0  0  0  0  0  0  0  0
  139.4292   72.2897  223.9948 H   0  0  0  0  0  0  0  0  0  0  0  0
  141.3004   70.8034  222.9997 H   0  0  0  0  0  0  0  0  0  0  0  0
  140.1911   70.5042  221.6591 H   0  0  0  0  0  0  0  0  0  0  0  0
  141.3348   73.1780  222.6662 H   0  0  0  0  0  0  0  0  0  0  0  0
  141.2541   72.5905  220.9911 H   0  0  0  0  0  0  0  0  0  0  0  0
  140.2324   75.7240  223.2853 H   0  0  0  0  0  0  0  0  0  0  0  0
  141.8930   74.5590  221.9380 H   0  0  0  0  0  0  0  0  0  0  0  0
  142.1550   76.2160  221.8960 H   0  0  0  0  0  0  0  0  0  0  0  0
  138.8972   76.8397  220.9701 H   0  0  0  0  0  0  0  0  0  0  0  0
  141.6303   77.1332  220.6703 H   0  0  0  0  0  0  0  0  0  0  0  0
  140.4088   78.1361  219.8981 H   0  0  0  0  0  0  0  0  0  0  0  0
  142.9205   79.8145  220.8712 H   0  0  0  0  0  0  0  0  0  0  0  0
  143.2032   81.5404  222.5997 H   0  0  0  0  0  0  0  0  0  0  0  0
  141.6147   81.6640  224.5359 H   0  0  0  0  0  0  0  0  0  0  0  0
  139.7522   80.0183  224.6617 H   0  0  0  0  0  0  0  0  0  0  0  0
  139.2033   77.4022  223.7101 H   0  0  0  0  0  0  0  0  0  0  0  0
  138.2633   78.3717  222.5855 H   0  0  0  0  0  0  0  0  0  0  0  0
  137.4053   73.0569  221.3396 H   0  0  0  0  0  0  0  0  0  0  0  0
  138.5378   71.8969  220.5207 H   0  0  0  0  0  0  0  0  0  0  0  0
  137.1369   71.6492  223.1239 H   0  0  0  0  0  0  0  0  0  0  0  0
  137.8268   70.3835  222.1006 H   0  0  0  0  0  0  0  0  0  0  0  0
  1  2  1  0
  2  3  1  0
  3  4  2  0
  3  5  1  0
  5  6  1  0
  6  7  2  0
  7  8  1  0
  8  9  2  0
  9 10  1  0
 10 11  2  0
  5 12  1  0
 12 13  1  0
 13 14  1  0
 14 15  1  0
 15 16  1  0
 16 17  2  0
 16 18  1  0
 18 19  1  0
 18 20  1  0
 20 21  1  0
 21 22  1  0
 22 23  2  0
 23 24  1  0
 24 25  2  0
 25 26  1  0
 26 27  2  0
 27 28  1  0
 15 29  1  0
 29 30  1  0
 11  6  1  0
 30 12  1  0
 28 20  1  0
 27 22  1  0
  1 31  1  0
  1 32  1  0
  1 33  1  0
  2 34  1  0
  2 35  1  0
  7 36  1  0
  8 37  1  0
  9 38  1  0
 10 39  1  0
 11 40  1  0
 12 41  1  0
 13 42  1  0
 13 43  1  0
 14 44  1  0
 14 45  1  0
 18 46  1  1
 19 47  1  0
 19 48  1  0
 20 49  1  0
 21 50  1  0
 21 51  1  0
 23 52  1  0
 24 53  1  0
 25 54  1  0
 26 55  1  0
 28 56  1  0
 28 57  1  0
 29 58  1  0
 29 59  1  0
 30 60  1  0
 30 61  1  0
M  END
>  <smiles>  (30) 
CCC(=O)N(c1ccccc1)C1CCN(C(=O)[C@@H](N)C2Cc3ccccc3C2)CC1

>  <score_type>  (30) 
oracle

>  <origin>  (30) 
autodockgpu

>  <m_score__min__energy>  (30) 
-8.75

>  <m_primary>  (30) 
energy

>  <rmsd>  (30) 
5.760665037823128

>  <m_score__min__rmsd>  (30) 
5.760665037823128

>  <meeko>  (30) 
{"free_energy": -8.74, "intermolecular_energy": -10.82, "internal_energy": -1.42, "cluster_size": 13, "cluster_id": 1, "rank_in_cluster": 3}

>  <energy>  (30) 
-6.9

>  <cluster_rmsd>  (30) 
0.3

>  <cluster>  (30) 
7

$$$$

     RDKit          3D

 61 64  0  0  0  0  0  0  0  0999 V2000
  146.3870   73.3580  221.9100 C   0  0  0  0  0  0  0  0  0  0  0  0
  145.4670   74.0050  220.8480 C   0  0  0  0  0  0  0  0  0  0  0  0
  145.3310   73.1320  219.6890 C   0  0  0  0  0  0  0  0  0  0  0  0
  146.3010   73.1460  218.8460 O   0  0  0  0  0  0  0  0  0  0  0  0
  144.2700   72.2610  219.3630 N   0  0  0  0  0  0  0  0  0  0  0  0
  144.6770   71.1000  218.5840 C   0  0  0  0  0  0  0  0  0  0  0  0
  145.2380   70.0830  219.3500 C   0  0  0  0  0  0  0  0  0  0  0  0
  145.6500   68.9370  218.6630 C   0  0  0  0  0  0  0  0  0  0  0  0
  145.5040   68.8340  217.2980 C   0  0  0  0  0  0  0  0  0  0  0  0
  144.9330   69.8870  216.5700 C   0  0  0  0  0  0  0  0  0  0  0  0
  144.5150   71.0380  217.2350 C   0  0  0  0  0  0  0  0  0  0  0  0
  142.9020   72.3540  219.6940 C   0  0  0  0  0  0  0  0  0  0  0  0
  141.9250   72.3590  218.5550 C   0  0  0  0  0  0  0  0  0  0  0  0
  140.6830   73.1020  219.0910 C   0  0  0  0  0  0  0  0  0  0  0  0
  140.5330   72.7200  220.4690 N   0  0  0  0  0  0  0  0  0  0  0  0
  139.9730   73.5110  221.4910 C   0  0  0  0  0  0  0  0  0  0  0  0
  139.9490   73.0100  222.6750 O   0  0  0  0  0  0  0  0  0  0  0  0
  139.4060   74.8530  221.3720 C   0  0  1  0  0  0  0  0  0  0  0  0
  138.3860   75.1490  222.3380 N   0  0  0  0  0  0  0  0  0  0  0  0
  140.4580   75.9420  221.4970 C   0  0  0  0  0  0  0  0  0  0  0  0
  140.2240   77.1170  220.6080 C   0  0  0  0  0  0  0  0  0  0  0  0
  141.2870   77.0100  219.5730 C   0  0  0  0  0  0  0  0  0  0  0  0
  141.5240   77.6810  218.3730 C   0  0  0  0  0  0  0  0  0  0  0  0
  142.6080   77.3900  217.5700 C   0  0  0  0  0  0  0  0  0  0  0  0
  143.5150   76.3970  217.9440 C   0  0  0  0  0  0  0  0  0  0  0  0
  143.2970   75.7260  219.1280 C   0  0  0  0  0  0  0  0  0  0  0  0
  142.1980   76.0340  219.9220 C   0  0  0  0  0  0  0  0  0  0  0  0
  141.8230   75.4070  221.2190 C   0  0  0  0  0  0  0  0  0  0  0  0
  140.9830   71.3740  220.8310 C   0  0  0  0  0  0  0  0  0  0  0  0
  142.4810   71.1790  220.5740 C   0  0  0  0  0  0  0  0  0  0  0  0
  146.0227   73.6142  222.9158 H   0  0  0  0  0  0  0  0  0  0  0  0
  146.3796   72.2652  221.7847 H   0  0  0  0  0  0  0  0  0  0  0  0
  147.4129   73.7345  221.7847 H   0  0  0  0  0  0  0  0  0  0  0  0
  144.4740   74.1798  221.2878 H   0  0  0  0  0  0  0  0  0  0  0  0
  145.9123   74.9575  220.5250 H   0  0  0  0  0  0  0  0  0  0  0  0
  145.3516   70.1758  220.4402 H   0  0  0  0  0  0  0  0  0  0  0  0
  146.0986   68.1032  219.2230 H   0  0  0  0  0  0  0  0  0  0  0  0
  145.8361   67.9236  216.7776 H   0  0  0  0  0  0  0  0  0  0  0  0
  144.8155   69.8052  215.4794 H   0  0  0  0  0  0  0  0  0  0  0  0
  144.0650   71.8760  216.6824 H   0  0  0  0  0  0  0  0  0  0  0  0
  142.8511   73.3361  220.1868 H   0  0  0  0  0  0  0  0  0  0  0  0
  142.3465   72.8880  217.6875 H   0  0  0  0  0  0  0  0  0  0  0  0
  141.6813   71.3407  218.2177 H   0  0  0  0  0  0  0  0  0  0  0  0
  140.8294   74.1894  219.0133 H   0  0  0  0  0  0  0  0  0  0  0  0
  139.7861   72.8422  218.5095 H   0  0  0  0  0  0  0  0  0  0  0  0
  138.9612   74.8471  220.3660 H   0  0  0  0  0  0  0  0  0  0  0  0
  138.5530   76.0240  222.8770 H   0  0  0  0  0  0  0  0  0  0  0  0
  138.2620   74.3780  223.0240 H   0  0  0  0  0  0  0  0  0  0  0  0
  140.3791   76.2885  222.5380 H   0  0  0  0  0  0  0  0  0  0  0  0
  139.2258   77.0658  220.1486 H   0  0  0  0  0  0  0  0  0  0  0  0
  140.2619   78.0716  221.1533 H   0  0  0  0  0  0  0  0  0  0  0  0
  140.8237   78.4680  218.0564 H   0  0  0  0  0  0  0  0  0  0  0  0
  142.7580   77.9430  216.6310 H   0  0  0  0  0  0  0  0  0  0  0  0
  144.3812   76.1563  217.3102 H   0  0  0  0  0  0  0  0  0  0  0  0
  143.9980   74.9407  219.4473 H   0  0  0  0  0  0  0  0  0  0  0  0
  141.8031   74.3106  221.1320 H   0  0  0  0  0  0  0  0  0  0  0  0
  142.5390   75.6351  222.0223 H   0  0  0  0  0  0  0  0  0  0  0  0
  140.7818   71.2081  221.8996 H   0  0  0  0  0  0  0  0  0  0  0  0
  140.4352   70.6538  220.2055 H   0  0  0  0  0  0  0  0  0  0  0  0
  143.0381   71.1904  221.5224 H   0  0  0  0  0  0  0  0  0  0  0  0
  142.6891   70.2130  220.0908 H   0  0  0  0  0  0  0  0  0  0  0  0
  1  2  1  0
  2  3  1  0
  3  4  2  0
  3  5  1  0
  5  6  1  0
  6  7  2  0
  7  8  1  0
  8  9  2  0
  9 10  1  0
 10 11  2  0
  5 12  1  0
 12 13  1  0
 13 14  1  0
 14 15  1  0
 15 16  1  0
 16 17  2  0
 16 18  1  0
 18 19  1  0
 18 20  1  0
 20 21  1  0
 21 22  1  0
 22 23  2  0
 23 24  1  0
 24 25  2  0
 25 26  1  0
 26 27  2  0
 27 28  1  0
 15 29  1  0
 29 30  1  0
 11  6  1  0
 30 12  1  0
 28 20  1  0
 27 22  1  0
  1 31  1  0
  1 32  1  0
  1 33  1  0
  2 34  1  0
  2 35  1  0
  7 36  1  0
  8 37  1  0
  9 38  1  0
 10 39  1  0
 11 40  1  0
 12 41  1  0
 13 42  1  0
 13 43  1  0
 14 44  1  0
 14 45  1  0
 18 46  1  6
 19 47  1  0
 19 48  1  0
 20 49  1  0
 21 50  1  0
 21 51  1  0
 23 52  1  0
 24 53  1  0
 25 54  1  0
 26 55  1  0
 28 56  1  0
 28 57  1  0
 29 58  1  0
 29 59  1  0
 30 60  1  0
 30 61  1  0
M  END
>  <smiles>  (31) 
CCC(=O)N(c1ccccc1)C1CCN(C(=O)[C@@H](N)C2Cc3ccccc3C2)CC1

>  <score_type>  (31) 
oracle

>  <origin>  (31) 
autodockgpu

>  <m_score__min__energy>  (31) 
-8.75

>  <m_primary>  (31) 
energy

>  <rmsd>  (31) 
5.382832729082852

>  <m_score__min__rmsd>  (31) 
5.382832729082852

>  <meeko>  (31) 
{"free_energy": -6.31, "intermolecular_energy": -8.4, "internal_energy": -3.36, "cluster_size": 2, "cluster_id": 10, "rank_in_cluster": 1}

>  <energy>  (31) 
-6.9

>  <cluster_rmsd>  (31) 
0.24

>  <cluster>  (31) 
7

$$$$

     RDKit          3D

 61 64  0  0  0  0  0  0  0  0999 V2000
  143.1370   81.9410  217.4360 C   0  0  0  0  0  0  0  0  0  0  0  0
  142.9470   80.5400  218.0640 C   0  0  0  0  0  0  0  0  0  0  0  0
  141.8030   80.5350  218.9660 C   0  0  0  0  0  0  0  0  0  0  0  0
  140.9230   81.4540  218.7770 O   0  0  0  0  0  0  0  0  0  0  0  0
  141.5220   79.6490  220.0270 N   0  0  0  0  0  0  0  0  0  0  0  0
  141.7640   80.2140  221.3480 C   0  0  0  0  0  0  0  0  0  0  0  0
  142.2060   79.2810  222.2810 C   0  0  0  0  0  0  0  0  0  0  0  0
  142.4580   79.7570  223.5700 C   0  0  0  0  0  0  0  0  0  0  0  0
  142.2740   81.0850  223.8880 C   0  0  0  0  0  0  0  0  0  0  0  0
  141.8260   81.9860  222.9130 C   0  0  0  0  0  0  0  0  0  0  0  0
  141.5690   81.5330  221.6210 C   0  0  0  0  0  0  0  0  0  0  0  0
  141.0370   78.3250  219.9840 C   0  0  0  0  0  0  0  0  0  0  0  0
  140.2020   77.9440  218.7970 C   0  0  0  0  0  0  0  0  0  0  0  0
  139.3070   76.7870  219.2870 C   0  0  0  0  0  0  0  0  0  0  0  0
  140.1070   75.9920  220.1790 N   0  0  0  0  0  0  0  0  0  0  0  0
  139.6300   75.2420  221.2720 C   0  0  0  0  0  0  0  0  0  0  0  0
  140.5030   74.6140  221.9770 O   0  0  0  0  0  0  0  0  0  0  0  0
  138.2450   75.0840  221.7100 C   0  0  1  0  0  0  0  0  0  0  0  0
  137.9640   73.8200  222.3300 N   0  0  0  0  0  0  0  0  0  0  0  0
  137.8220   76.1610  222.6950 C   0  0  0  0  0  0  0  0  0  0  0  0
  136.4770   76.7440  222.4160 C   0  0  0  0  0  0  0  0  0  0  0  0
  136.7700   78.1180  221.9270 C   0  0  0  0  0  0  0  0  0  0  0  0
  135.9840   79.1130  221.3440 C   0  0  0  0  0  0  0  0  0  0  0  0
  136.5050   80.3340  220.9680 C   0  0  0  0  0  0  0  0  0  0  0  0
  137.8590   80.6130  221.1640 C   0  0  0  0  0  0  0  0  0  0  0  0
  138.6480   79.6420  221.7400 C   0  0  0  0  0  0  0  0  0  0  0  0
  138.1040   78.4180  222.1110 C   0  0  0  0  0  0  0  0  0  0  0  0
  138.8170   77.2720  222.7400 C   0  0  0  0  0  0  0  0  0  0  0  0
  141.5450   75.9440  219.9060 C   0  0  0  0  0  0  0  0  0  0  0  0
  142.1950   77.3290  219.9920 C   0  0  0  0  0  0  0  0  0  0  0  0
  143.2386   82.6902  218.2350 H   0  0  0  0  0  0  0  0  0  0  0  0
  144.0437   81.9438  216.8133 H   0  0  0  0  0  0  0  0  0  0  0  0
  142.2637   82.1852  216.8133 H   0  0  0  0  0  0  0  0  0  0  0  0
  142.7798   79.8043  217.2635 H   0  0  0  0  0  0  0  0  0  0  0  0
  143.8508   80.2810  218.6350 H   0  0  0  0  0  0  0  0  0  0  0  0
  142.3496   78.2228  222.0171 H   0  0  0  0  0  0  0  0  0  0  0  0
  142.8094   79.0595  224.3446 H   0  0  0  0  0  0  0  0  0  0  0  0
  142.4792   81.4385  224.9092 H   0  0  0  0  0  0  0  0  0  0  0  0
  141.6779   83.0461  223.1666 H   0  0  0  0  0  0  0  0  0  0  0  0
  141.2172   82.2241  220.8409 H   0  0  0  0  0  0  0  0  0  0  0  0
  140.3934   78.2866  220.8753 H   0  0  0  0  0  0  0  0  0  0  0  0
  139.5871   78.7950  218.4687 H   0  0  0  0  0  0  0  0  0  0  0  0
  140.8207   77.6493  217.9365 H   0  0  0  0  0  0  0  0  0  0  0  0
  138.4300   77.1854  219.8182 H   0  0  0  0  0  0  0  0  0  0  0  0
  138.9420   76.1851  218.4417 H   0  0  0  0  0  0  0  0  0  0  0  0
  137.6755   75.1604  220.7720 H   0  0  0  0  0  0  0  0  0  0  0  0
  137.2460   73.8670  223.0830 H   0  0  0  0  0  0  0  0  0  0  0  0
  138.8160   73.3870  222.7390 H   0  0  0  0  0  0  0  0  0  0  0  0
  137.7691   75.6466  223.6659 H   0  0  0  0  0  0  0  0  0  0  0  0
  135.9505   76.1600  221.6468 H   0  0  0  0  0  0  0  0  0  0  0  0
  135.8246   76.7418  223.3016 H   0  0  0  0  0  0  0  0  0  0  0  0
  134.9142   78.9174  221.1789 H   0  0  0  0  0  0  0  0  0  0  0  0
  135.8506   81.0913  220.5117 H   0  0  0  0  0  0  0  0  0  0  0  0
  138.2844   81.5827  220.8662 H   0  0  0  0  0  0  0  0  0  0  0  0
  139.7175   79.8369  221.9078 H   0  0  0  0  0  0  0  0  0  0  0  0
  139.7201   77.0118  222.1684 H   0  0  0  0  0  0  0  0  0  0  0  0
  139.1582   77.4943  223.7618 H   0  0  0  0  0  0  0  0  0  0  0  0
  142.0237   75.2813  220.6419 H   0  0  0  0  0  0  0  0  0  0  0  0
  141.6827   75.5684  218.8813 H   0  0  0  0  0  0  0  0  0  0  0  0
  142.7768   77.4235  220.9207 H   0  0  0  0  0  0  0  0  0  0  0  0
  142.8907   77.5056  219.1584 H   0  0  0  0  0  0  0  0  0  0  0  0
  1  2  1  0
  2  3  1  0
  3  4  2  0
  3  5  1  0
  5  6  1  0
  6  7  2  0
  7  8  1  0
  8  9  2  0
  9 10  1  0
 10 11  2  0
  5 12  1  0
 12 13  1  0
 13 14  1  0
 14 15  1  0
 15 16  1  0
 16 17  2  0
 16 18  1  0
 18 19  1  0
 18 20  1  0
 20 21  1  0
 21 22  1  0
 22 23  2  0
 23 24  1  0
 24 25  2  0
 25 26  1  0
 26 27  2  0
 27 28  1  0
 15 29  1  0
 29 30  1  0
 11  6  1  0
 30 12  1  0
 28 20  1  0
 27 22  1  0
  1 31  1  0
  1 32  1  0
  1 33  1  0
  2 34  1  0
  2 35  1  0
  7 36  1  0
  8 37  1  0
  9 38  1  0
 10 39  1  0
 11 40  1  0
 12 41  1  0
 13 42  1  0
 13 43  1  0
 14 44  1  0
 14 45  1  0
 18 46  1  6
 19 47  1  0
 19 48  1  0
 20 49  1  0
 21 50  1  0
 21 51  1  0
 23 52  1  0
 24 53  1  0
 25 54  1  0
 26 55  1  0
 28 56  1  0
 28 57  1  0
 29 58  1  0
 29 59  1  0
 30 60  1  0
 30 61  1  0
M  END
>  <smiles>  (32) 
CCC(=O)N(c1ccccc1)C1CCN(C(=O)[C@@H](N)C2Cc3ccccc3C2)CC1

>  <score_type>  (32) 
oracle

>  <origin>  (32) 
autodockgpu

>  <m_score__min__energy>  (32) 
-8.75

>  <m_primary>  (32) 
energy

>  <rmsd>  (32) 
4.458260770104617

>  <m_score__min__rmsd>  (32) 
4.458260770104617

>  <meeko>  (32) 
{"free_energy": -6.26, "intermolecular_energy": -8.35, "internal_energy": -3.59, "cluster_size": 10, "cluster_id": 11, "rank_in_cluster": 1}

>  <energy>  (32) 
-6.79

>  <cluster_rmsd>  (32) 
0.82

>  <cluster>  (32) 
7

$$$$

     RDKit          3D

 61 64  0  0  0  0  0  0  0  0999 V2000
  136.1360   69.6650  224.9580 C   0  0  0  0  0  0  0  0  0  0  0  0
  137.0030   68.8740  223.9490 C   0  0  0  0  0  0  0  0  0  0  0  0
  138.4150   69.1760  224.1420 C   0  0  0  0  0  0  0  0  0  0  0  0
  139.2040   68.1670  224.2590 O   0  0  0  0  0  0  0  0  0  0  0  0
  139.0440   70.4360  224.2150 N   0  0  0  0  0  0  0  0  0  0  0  0
  139.7750   70.6610  225.4550 C   0  0  0  0  0  0  0  0  0  0  0  0
  139.4520   69.7590  226.4630 C   0  0  0  0  0  0  0  0  0  0  0  0
  140.1180   69.9190  227.6820 C   0  0  0  0  0  0  0  0  0  0  0  0
  141.0450   70.9220  227.8610 C   0  0  0  0  0  0  0  0  0  0  0  0
  141.3350   71.8060  226.8140 C   0  0  0  0  0  0  0  0  0  0  0  0
  140.6820   71.6650  225.5910 C   0  0  0  0  0  0  0  0  0  0  0  0
  139.0710   71.4800  223.2650 C   0  0  0  0  0  0  0  0  0  0  0  0
  139.8940   71.2550  222.0300 C   0  0  0  0  0  0  0  0  0  0  0  0
  140.2840   72.6660  221.5430 C   0  0  0  0  0  0  0  0  0  0  0  0
  139.1520   73.5180  221.7880 N   0  0  0  0  0  0  0  0  0  0  0  0
  139.2010   74.8980  222.0650 C   0  0  0  0  0  0  0  0  0  0  0  0
  138.0820   75.4920  222.2870 O   0  0  0  0  0  0  0  0  0  0  0  0
  140.3830   75.7550  222.1330 C   0  0  1  0  0  0  0  0  0  0  0  0
  141.5610   75.1800  221.5460 N   0  0  0  0  0  0  0  0  0  0  0  0
  140.1660   77.0980  221.4570 C   0  0  0  0  0  0  0  0  0  0  0  0
  141.4260   77.7790  221.0390 C   0  0  0  0  0  0  0  0  0  0  0  0
  141.5540   78.9230  221.9810 C   0  0  0  0  0  0  0  0  0  0  0  0
  142.5750   79.8370  222.2430 C   0  0  0  0  0  0  0  0  0  0  0  0
  142.4460   80.8310  223.1910 C   0  0  0  0  0  0  0  0  0  0  0  0
  141.2670   80.9520  223.9290 C   0  0  0  0  0  0  0  0  0  0  0  0
  140.2480   80.0590  223.6820 C   0  0  0  0  0  0  0  0  0  0  0  0
  140.3980   79.0630  222.7220 C   0  0  0  0  0  0  0  0  0  0  0  0
  139.4000   78.0270  222.3390 C   0  0  0  0  0  0  0  0  0  0  0  0
  137.8310   72.8920  221.7170 C   0  0  0  0  0  0  0  0  0  0  0  0
  137.6630   71.7790  222.7560 C   0  0  0  0  0  0  0  0  0  0  0  0
  136.4301   69.3967  225.9834 H   0  0  0  0  0  0  0  0  0  0  0  0
  136.2862   70.7437  224.8038 H   0  0  0  0  0  0  0  0  0  0  0  0
  135.0755   69.4167  224.8038 H   0  0  0  0  0  0  0  0  0  0  0  0
  136.8397   67.7965  224.0983 H   0  0  0  0  0  0  0  0  0  0  0  0
  136.7138   69.1638  222.9280 H   0  0  0  0  0  0  0  0  0  0  0  0
  138.7108   68.9609  226.3093 H   0  0  0  0  0  0  0  0  0  0  0  0
  139.8978   69.2320  228.5124 H   0  0  0  0  0  0  0  0  0  0  0  0
  141.5584   71.0289  228.8279 H   0  0  0  0  0  0  0  0  0  0  0  0
  142.0746   72.6077  226.9564 H   0  0  0  0  0  0  0  0  0  0  0  0
  140.8950   72.3490  224.7563 H   0  0  0  0  0  0  0  0  0  0  0  0
  139.5348   72.2984  223.8352 H   0  0  0  0  0  0  0  0  0  0  0  0
  140.7925   70.6664  222.2669 H   0  0  0  0  0  0  0  0  0  0  0  0
  139.3406   70.6931  221.2632 H   0  0  0  0  0  0  0  0  0  0  0  0
  141.1597   73.0303  222.1002 H   0  0  0  0  0  0  0  0  0  0  0  0
  140.5466   72.6562  220.4748 H   0  0  0  0  0  0  0  0  0  0  0  0
  140.5408   75.8783  223.2146 H   0  0  0  0  0  0  0  0  0  0  0  0
  142.4510   75.6160  221.8670 H   0  0  0  0  0  0  0  0  0  0  0  0
  141.5460   75.2320  220.5080 H   0  0  0  0  0  0  0  0  0  0  0  0
  139.5949   76.8634  220.5466 H   0  0  0  0  0  0  0  0  0  0  0  0
  142.2859   77.0993  221.1320 H   0  0  0  0  0  0  0  0  0  0  0  0
  141.4015   78.1006  219.9874 H   0  0  0  0  0  0  0  0  0  0  0  0
  143.5140   79.7626  221.6749 H   0  0  0  0  0  0  0  0  0  0  0  0
  143.2759   81.5314  223.3662 H   0  0  0  0  0  0  0  0  0  0  0  0
  141.1549   81.7402  224.6881 H   0  0  0  0  0  0  0  0  0  0  0  0
  139.3079   80.1337  224.2483 H   0  0  0  0  0  0  0  0  0  0  0  0
  139.0222   77.5003  223.2277 H   0  0  0  0  0  0  0  0  0  0  0  0
  138.5168   78.4530  221.8405 H   0  0  0  0  0  0  0  0  0  0  0  0
  137.0644   73.6608  221.8940 H   0  0  0  0  0  0  0  0  0  0  0  0
  137.7230   72.4422  220.7190 H   0  0  0  0  0  0  0  0  0  0  0  0
  137.0197   72.1177  223.5815 H   0  0  0  0  0  0  0  0  0  0  0  0
  137.1871   70.8862  222.3242 H   0  0  0  0  0  0  0  0  0  0  0  0
  1  2  1  0
  2  3  1  0
  3  4  2  0
  3  5  1  0
  5  6  1  0
  6  7  2  0
  7  8  1  0
  8  9  2  0
  9 10  1  0
 10 11  2  0
  5 12  1  0
 12 13  1  0
 13 14  1  0
 14 15  1  0
 15 16  1  0
 16 17  2  0
 16 18  1  0
 18 19  1  0
 18 20  1  0
 20 21  1  0
 21 22  1  0
 22 23  2  0
 23 24  1  0
 24 25  2  0
 25 26  1  0
 26 27  2  0
 27 28  1  0
 15 29  1  0
 29 30  1  0
 11  6  1  0
 30 12  1  0
 28 20  1  0
 27 22  1  0
  1 31  1  0
  1 32  1  0
  1 33  1  0
  2 34  1  0
  2 35  1  0
  7 36  1  0
  8 37  1  0
  9 38  1  0
 10 39  1  0
 11 40  1  0
 12 41  1  0
 13 42  1  0
 13 43  1  0
 14 44  1  0
 14 45  1  0
 18 46  1  1
 19 47  1  0
 19 48  1  0
 20 49  1  0
 21 50  1  0
 21 51  1  0
 23 52  1  0
 24 53  1  0
 25 54  1  0
 26 55  1  0
 28 56  1  0
 28 57  1  0
 29 58  1  0
 29 59  1  0
 30 60  1  0
 30 61  1  0
M  END
>  <smiles>  (33) 
CCC(=O)N(c1ccccc1)C1CCN(C(=O)[C@@H](N)C2Cc3ccccc3C2)CC1

>  <score_type>  (33) 
oracle

>  <origin>  (33) 
autodockgpu

>  <m_score__min__energy>  (33) 
-8.75

>  <m_primary>  (33) 
energy

>  <rmsd>  (33) 
5.649594604514039

>  <m_score__min__rmsd>  (33) 
5.649594604514039

>  <meeko>  (33) 
{"free_energy": -8.63, "intermolecular_energy": -10.71, "internal_energy": -1.33, "cluster_size": 13, "cluster_id": 1, "rank_in_cluster": 7}

>  <energy>  (33) 
-6.77

>  <cluster_rmsd>  (33) 
0.54

>  <cluster>  (33) 
7

$$$$

     RDKit          3D

 61 64  0  0  0  0  0  0  0  0999 V2000
  142.1700   79.9030  216.8750 C   0  0  0  0  0  0  0  0  0  0  0  0
  142.6390   80.5960  218.1770 C   0  0  0  0  0  0  0  0  0  0  0  0
  141.5900   80.5520  219.1860 C   0  0  0  0  0  0  0  0  0  0  0  0
  140.7160   81.4940  219.1420 O   0  0  0  0  0  0  0  0  0  0  0  0
  141.3970   79.6070  220.2150 N   0  0  0  0  0  0  0  0  0  0  0  0
  141.7340   80.1020  221.5430 C   0  0  0  0  0  0  0  0  0  0  0  0
  141.5070   81.4650  221.7050 C   0  0  0  0  0  0  0  0  0  0  0  0
  141.8090   82.0050  222.9580 C   0  0  0  0  0  0  0  0  0  0  0  0
  142.3070   81.2170  223.9720 C   0  0  0  0  0  0  0  0  0  0  0  0
  142.5200   79.8490  223.7590 C   0  0  0  0  0  0  0  0  0  0  0  0
  142.2250   79.2890  222.5180 C   0  0  0  0  0  0  0  0  0  0  0  0
  140.9200   78.2810  220.1350 C   0  0  0  0  0  0  0  0  0  0  0  0
  140.1060   77.9230  218.9260 C   0  0  0  0  0  0  0  0  0  0  0  0
  139.2090   76.7500  219.3760 C   0  0  0  0  0  0  0  0  0  0  0  0
  139.9980   75.9410  220.2650 N   0  0  0  0  0  0  0  0  0  0  0  0
  139.5060   75.1650  221.3320 C   0  0  0  0  0  0  0  0  0  0  0  0
  140.3700   74.5260  222.0390 O   0  0  0  0  0  0  0  0  0  0  0  0
  138.1150   74.9910  221.7440 C   0  0  1  0  0  0  0  0  0  0  0  0
  137.8330   73.7170  222.3420 N   0  0  0  0  0  0  0  0  0  0  0  0
  137.6660   76.0520  222.7350 C   0  0  0  0  0  0  0  0  0  0  0  0
  136.3480   76.6690  222.4080 C   0  0  0  0  0  0  0  0  0  0  0  0
  136.6900   78.0480  221.9680 C   0  0  0  0  0  0  0  0  0  0  0  0
  135.9520   79.0740  221.3740 C   0  0  0  0  0  0  0  0  0  0  0  0
  136.5140   80.2930  221.0550 C   0  0  0  0  0  0  0  0  0  0  0  0
  137.8620   80.5390  221.3220 C   0  0  0  0  0  0  0  0  0  0  0  0
  138.6040   79.5380  221.9090 C   0  0  0  0  0  0  0  0  0  0  0  0
  138.0190   78.3160  222.2230 C   0  0  0  0  0  0  0  0  0  0  0  0
  138.6790   77.1410  222.8550 C   0  0  0  0  0  0  0  0  0  0  0  0
  141.4400   75.9050  220.0150 C   0  0  0  0  0  0  0  0  0  0  0  0
  142.0820   77.2910  220.1410 C   0  0  0  0  0  0  0  0  0  0  0  0
  141.5699   79.0163  217.1273 H   0  0  0  0  0  0  0  0  0  0  0  0
  141.5596   80.6035  216.2862 H   0  0  0  0  0  0  0  0  0  0  0  0
  143.0472   79.5967  216.2862 H   0  0  0  0  0  0  0  0  0  0  0  0
  143.5315   80.0798  218.5603 H   0  0  0  0  0  0  0  0  0  0  0  0
  142.8743   81.6473  217.9549 H   0  0  0  0  0  0  0  0  0  0  0  0
  141.1100   82.0860  220.8884 H   0  0  0  0  0  0  0  0  0  0  0  0
  141.6462   83.0780  223.1376 H   0  0  0  0  0  0  0  0  0  0  0  0
  142.5379   81.6627  224.9508 H   0  0  0  0  0  0  0  0  0  0  0  0
  142.9185   79.2195  224.5683 H   0  0  0  0  0  0  0  0  0  0  0  0
  142.3848   78.2169  222.3308 H   0  0  0  0  0  0  0  0  0  0  0  0
  140.2625   78.2191  221.0147 H   0  0  0  0  0  0  0  0  0  0  0  0
  139.4919   78.7781  218.6072 H   0  0  0  0  0  0  0  0  0  0  0  0
  140.7397   77.6511  218.0690 H   0  0  0  0  0  0  0  0  0  0  0  0
  138.3204   77.1321  219.8999 H   0  0  0  0  0  0  0  0  0  0  0  0
  138.8625   76.1640  218.5120 H   0  0  0  0  0  0  0  0  0  0  0  0
  137.5614   75.0756  220.7972 H   0  0  0  0  0  0  0  0  0  0  0  0
  137.1360   73.7570  223.1160 H   0  0  0  0  0  0  0  0  0  0  0  0
  138.6890   73.2620  222.7160 H   0  0  0  0  0  0  0  0  0  0  0  0
  137.5566   75.5150  223.6888 H   0  0  0  0  0  0  0  0  0  0  0  0
  135.8473   76.1147  221.6005 H   0  0  0  0  0  0  0  0  0  0  0  0
  135.6546   76.6589  223.2618 H   0  0  0  0  0  0  0  0  0  0  0  0
  134.8878   78.9048  221.1532 H   0  0  0  0  0  0  0  0  0  0  0  0
  135.8970   81.0748  220.5880 H   0  0  0  0  0  0  0  0  0  0  0  0
  138.3196   81.5071  221.0702 H   0  0  0  0  0  0  0  0  0  0  0  0
  139.6681   79.7065  222.1312 H   0  0  0  0  0  0  0  0  0  0  0  0
  139.6030   76.8766  222.3199 H   0  0  0  0  0  0  0  0  0  0  0  0
  138.9757   77.3311  223.8970 H   0  0  0  0  0  0  0  0  0  0  0  0
  141.9097   75.2289  220.7446 H   0  0  0  0  0  0  0  0  0  0  0  0
  141.5964   75.5517  218.9851 H   0  0  0  0  0  0  0  0  0  0  0  0
  142.6481   77.3684  221.0810 H   0  0  0  0  0  0  0  0  0  0  0  0
  142.7904   77.4884  219.3230 H   0  0  0  0  0  0  0  0  0  0  0  0
  1  2  1  0
  2  3  1  0
  3  4  2  0
  3  5  1  0
  5  6  1  0
  6  7  2  0
  7  8  1  0
  8  9  2  0
  9 10  1  0
 10 11  2  0
  5 12  1  0
 12 13  1  0
 13 14  1  0
 14 15  1  0
 15 16  1  0
 16 17  2  0
 16 18  1  0
 18 19  1  0
 18 20  1  0
 20 21  1  0
 21 22  1  0
 22 23  2  0
 23 24  1  0
 24 25  2  0
 25 26  1  0
 26 27  2  0
 27 28  1  0
 15 29  1  0
 29 30  1  0
 11  6  1  0
 30 12  1  0
 28 20  1  0
 27 22  1  0
  1 31  1  0
  1 32  1  0
  1 33  1  0
  2 34  1  0
  2 35  1  0
  7 36  1  0
  8 37  1  0
  9 38  1  0
 10 39  1  0
 11 40  1  0
 12 41  1  0
 13 42  1  0
 13 43  1  0
 14 44  1  0
 14 45  1  0
 18 46  1  6
 19 47  1  0
 19 48  1  0
 20 49  1  0
 21 50  1  0
 21 51  1  0
 23 52  1  0
 24 53  1  0
 25 54  1  0
 26 55  1  0
 28 56  1  0
 28 57  1  0
 29 58  1  0
 29 59  1  0
 30 60  1  0
 30 61  1  0
M  END
>  <smiles>  (34) 
CCC(=O)N(c1ccccc1)C1CCN(C(=O)[C@@H](N)C2Cc3ccccc3C2)CC1

>  <score_type>  (34) 
oracle

>  <origin>  (34) 
autodockgpu

>  <m_score__min__energy>  (34) 
-8.75

>  <m_primary>  (34) 
energy

>  <rmsd>  (34) 
4.53342741269709

>  <m_score__min__rmsd>  (34) 
4.53342741269709

>  <meeko>  (34) 
{"free_energy": -6.05, "intermolecular_energy": -8.14, "internal_energy": -3.57, "cluster_size": 10, "cluster_id": 11, "rank_in_cluster": 5}

>  <energy>  (34) 
-6.74

>  <cluster_rmsd>  (34) 
0.85

>  <cluster>  (34) 
7

$$$$

     RDKit          3D

 61 64  0  0  0  0  0  0  0  0999 V2000
  139.4160   71.1960  223.4270 C   0  0  0  0  0  0  0  0  0  0  0  0
  140.6570   72.0100  222.9910 C   0  0  0  0  0  0  0  0  0  0  0  0
  140.4930   72.5020  221.6300 C   0  0  0  0  0  0  0  0  0  0  0  0
  140.4230   71.6110  220.7050 O   0  0  0  0  0  0  0  0  0  0  0  0
  140.3980   73.8360  221.1810 N   0  0  0  0  0  0  0  0  0  0  0  0
  139.2600   74.5630  221.7270 C   0  0  0  0  0  0  0  0  0  0  0  0
  138.0580   73.8690  221.6340 C   0  0  0  0  0  0  0  0  0  0  0  0
  136.9240   74.5100  222.1410 C   0  0  0  0  0  0  0  0  0  0  0  0
  137.0070   75.7650  222.7010 C   0  0  0  0  0  0  0  0  0  0  0  0
  138.2410   76.4250  222.7710 C   0  0  0  0  0  0  0  0  0  0  0  0
  139.3840   75.8030  222.2720 C   0  0  0  0  0  0  0  0  0  0  0  0
  141.2430   74.5490  220.3050 C   0  0  0  0  0  0  0  0  0  0  0  0
  142.7040   74.5850  220.6470 C   0  0  0  0  0  0  0  0  0  0  0  0
  143.2400   75.8760  219.9950 C   0  0  0  0  0  0  0  0  0  0  0  0
  142.5550   76.0220  218.7390 N   0  0  0  0  0  0  0  0  0  0  0  0
  142.2570   77.2400  218.0970 C   0  0  0  0  0  0  0  0  0  0  0  0
  141.6100   77.1740  216.9870 O   0  0  0  0  0  0  0  0  0  0  0  0
  142.5970   78.5900  218.5400 C   0  0  1  0  0  0  0  0  0  0  0  0
  142.9080   79.4990  217.4730 N   0  0  0  0  0  0  0  0  0  0  0  0
  141.4850   79.2310  219.3530 C   0  0  0  0  0  0  0  0  0  0  0  0
  141.8780   80.5070  220.0200 C   0  0  0  0  0  0  0  0  0  0  0  0
  141.9480   80.1580  221.4640 C   0  0  0  0  0  0  0  0  0  0  0  0
  142.4170   80.8360  222.5900 C   0  0  0  0  0  0  0  0  0  0  0  0
  142.3710   80.2820  223.8530 C   0  0  0  0  0  0  0  0  0  0  0  0
  141.8430   79.0040  224.0430 C   0  0  0  0  0  0  0  0  0  0  0  0
  141.3740   78.3210  222.9420 C   0  0  0  0  0  0  0  0  0  0  0  0
  141.4310   78.8970  221.6770 C   0  0  0  0  0  0  0  0  0  0  0  0
  140.9700   78.2950  220.3960 C   0  0  0  0  0  0  0  0  0  0  0  0
  142.1570   74.7880  218.0600 C   0  0  0  0  0  0  0  0  0  0  0  0
  141.1790   73.9580  218.8980 C   0  0  0  0  0  0  0  0  0  0  0  0
  139.3663   71.1634  224.5254 H   0  0  0  0  0  0  0  0  0  0  0  0
  138.5070   71.6739  223.0328 H   0  0  0  0  0  0  0  0  0  0  0  0
  139.4922   70.1719  223.0328 H   0  0  0  0  0  0  0  0  0  0  0  0
  140.7866   72.8645  223.6715 H   0  0  0  0  0  0  0  0  0  0  0  0
  141.5415   71.3571  223.0287 H   0  0  0  0  0  0  0  0  0  0  0  0
  138.0027   72.8667  221.1843 H   0  0  0  0  0  0  0  0  0  0  0  0
  135.9489   74.0032  222.0917 H   0  0  0  0  0  0  0  0  0  0  0  0
  136.1020   76.2509  223.0946 H   0  0  0  0  0  0  0  0  0  0  0  0
  138.3072   77.4283  223.2172 H   0  0  0  0  0  0  0  0  0  0  0  0
  140.3628   76.3028  222.3178 H   0  0  0  0  0  0  0  0  0  0  0  0
  140.8509   75.5732  220.3902 H   0  0  0  0  0  0  0  0  0  0  0  0
  142.8442   74.6166  221.7376 H   0  0  0  0  0  0  0  0  0  0  0  0
  143.2332   73.6912  220.2851 H   0  0  0  0  0  0  0  0  0  0  0  0
  143.0332   76.7412  220.6420 H   0  0  0  0  0  0  0  0  0  0  0  0
  144.3286   75.8211  219.8470 H   0  0  0  0  0  0  0  0  0  0  0  0
  143.4958   78.4327  219.1543 H   0  0  0  0  0  0  0  0  0  0  0  0
  142.9290   79.0550  216.5310 H   0  0  0  0  0  0  0  0  0  0  0  0
  143.8230   79.9710  217.6160 H   0  0  0  0  0  0  0  0  0  0  0  0
  140.7013   79.4646  218.6174 H   0  0  0  0  0  0  0  0  0  0  0  0
  142.8561   80.8530  219.6545 H   0  0  0  0  0  0  0  0  0  0  0  0
  141.1691   81.3235  219.8180 H   0  0  0  0  0  0  0  0  0  0  0  0
  142.8371   81.8451  222.4667 H   0  0  0  0  0  0  0  0  0  0  0  0
  142.7523   80.8503  224.7142 H   0  0  0  0  0  0  0  0  0  0  0  0
  141.8024   78.5537  225.0458 H   0  0  0  0  0  0  0  0  0  0  0  0
  140.9514   77.3128  223.0642 H   0  0  0  0  0  0  0  0  0  0  0  0
  141.3933   77.2886  220.2619 H   0  0  0  0  0  0  0  0  0  0  0  0
  139.8776   78.1727  220.3538 H   0  0  0  0  0  0  0  0  0  0  0  0
  141.6747   75.0479  217.1061 H   0  0  0  0  0  0  0  0  0  0  0  0
  143.0618   74.1836  217.8985 H   0  0  0  0  0  0  0  0  0  0  0  0
  140.1597   74.0402  218.4926 H   0  0  0  0  0  0  0  0  0  0  0  0
  141.4413   72.8898  218.8919 H   0  0  0  0  0  0  0  0  0  0  0  0
  1  2  1  0
  2  3  1  0
  3  4  2  0
  3  5  1  0
  5  6  1  0
  6  7  2  0
  7  8  1  0
  8  9  2  0
  9 10  1  0
 10 11  2  0
  5 12  1  0
 12 13  1  0
 13 14  1  0
 14 15  1  0
 15 16  1  0
 16 17  2  0
 16 18  1  0
 18 19  1  0
 18 20  1  0
 20 21  1  0
 21 22  1  0
 22 23  2  0
 23 24  1  0
 24 25  2  0
 25 26  1  0
 26 27  2  0
 27 28  1  0
 15 29  1  0
 29 30  1  0
 11  6  1  0
 30 12  1  0
 28 20  1  0
 27 22  1  0
  1 31  1  0
  1 32  1  0
  1 33  1  0
  2 34  1  0
  2 35  1  0
  7 36  1  0
  8 37  1  0
  9 38  1  0
 10 39  1  0
 11 40  1  0
 12 41  1  0
 13 42  1  0
 13 43  1  0
 14 44  1  0
 14 45  1  0
 18 46  1  1
 19 47  1  0
 19 48  1  0
 20 49  1  0
 21 50  1  0
 21 51  1  0
 23 52  1  0
 24 53  1  0
 25 54  1  0
 26 55  1  0
 28 56  1  0
 28 57  1  0
 29 58  1  0
 29 59  1  0
 30 60  1  0
 30 61  1  0
M  END
>  <smiles>  (35) 
CCC(=O)N(c1ccccc1)C1CCN(C(=O)[C@@H](N)C2Cc3ccccc3C2)CC1

>  <score_type>  (35) 
oracle

>  <origin>  (35) 
autodockgpu

>  <m_score__min__energy>  (35) 
-8.75

>  <m_primary>  (35) 
energy

>  <rmsd>  (35) 
4.079440158238689

>  <m_score__min__rmsd>  (35) 
4.079440158238689

>  <meeko>  (35) 
{"free_energy": -6.74, "intermolecular_energy": -8.82, "internal_energy": -2.98, "cluster_size": 10, "cluster_id": 7, "rank_in_cluster": 10}

>  <energy>  (35) 
-7.03

>  <cluster_rmsd>  (35) 
0.0

>  <cluster>  (35) 
8

$$$$

     RDKit          3D

 61 64  0  0  0  0  0  0  0  0999 V2000
  138.7100   67.6990  222.5980 C   0  0  0  0  0  0  0  0  0  0  0  0
  139.1430   67.9870  224.0550 C   0  0  0  0  0  0  0  0  0  0  0  0
  138.5850   69.2520  224.5140 C   0  0  0  0  0  0  0  0  0  0  0  0
  137.3880   69.2110  224.9820 O   0  0  0  0  0  0  0  0  0  0  0  0
  139.1830   70.5290  224.5180 N   0  0  0  0  0  0  0  0  0  0  0  0
  139.8900   70.8460  225.7520 C   0  0  0  0  0  0  0  0  0  0  0  0
  139.5980   69.9790  226.8000 C   0  0  0  0  0  0  0  0  0  0  0  0
  140.2430   70.2270  228.0150 C   0  0  0  0  0  0  0  0  0  0  0  0
  141.1210   71.2790  228.1540 C   0  0  0  0  0  0  0  0  0  0  0  0
  141.3820   72.1250  227.0680 C   0  0  0  0  0  0  0  0  0  0  0  0
  140.7490   71.8960  225.8480 C   0  0  0  0  0  0  0  0  0  0  0  0
  139.2010   71.5130  223.5070 C   0  0  0  0  0  0  0  0  0  0  0  0
  140.0480   71.2340  222.3010 C   0  0  0  0  0  0  0  0  0  0  0  0
  140.4130   72.6220  221.7330 C   0  0  0  0  0  0  0  0  0  0  0  0
  139.2580   73.4600  221.9100 N   0  0  0  0  0  0  0  0  0  0  0  0
  139.2700   74.8550  222.1030 C   0  0  0  0  0  0  0  0  0  0  0  0
  138.1330   75.4330  222.2710 O   0  0  0  0  0  0  0  0  0  0  0  0
  140.4300   75.7430  222.1350 C   0  0  1  0  0  0  0  0  0  0  0  0
  141.6030   75.2020  221.5080 N   0  0  0  0  0  0  0  0  0  0  0  0
  140.1550   77.0820  221.4730 C   0  0  0  0  0  0  0  0  0  0  0  0
  141.3790   77.7740  220.9720 C   0  0  0  0  0  0  0  0  0  0  0  0
  141.5550   78.9220  221.9010 C   0  0  0  0  0  0  0  0  0  0  0  0
  142.5820   79.8470  222.0930 C   0  0  0  0  0  0  0  0  0  0  0  0
  142.5040   80.8430  223.0450 C   0  0  0  0  0  0  0  0  0  0  0  0
  141.3750   80.9540  223.8580 C   0  0  0  0  0  0  0  0  0  0  0  0
  140.3510   80.0490  223.6800 C   0  0  0  0  0  0  0  0  0  0  0  0
  140.4490   79.0530  222.7150 C   0  0  0  0  0  0  0  0  0  0  0  0
  139.4390   78.0060  222.4000 C   0  0  0  0  0  0  0  0  0  0  0  0
  137.9530   72.7990  221.8580 C   0  0  0  0  0  0  0  0  0  0  0  0
  137.7950   71.7470  222.9610 C   0  0  0  0  0  0  0  0  0  0  0  0
  137.7941   67.0898  222.6013 H   0  0  0  0  0  0  0  0  0  0  0  0
  138.5166   68.6490  222.0784 H   0  0  0  0  0  0  0  0  0  0  0  0
  139.5114   67.1534  222.0784 H   0  0  0  0  0  0  0  0  0  0  0  0
  138.7844   67.1760  224.7059 H   0  0  0  0  0  0  0  0  0  0  0  0
  140.2406   68.0481  224.0938 H   0  0  0  0  0  0  0  0  0  0  0  0
  138.8956   69.1412  226.6787 H   0  0  0  0  0  0  0  0  0  0  0  0
  140.0459   69.5704  228.8753 H   0  0  0  0  0  0  0  0  0  0  0  0
  141.6182   71.4553  229.1193 H   0  0  0  0  0  0  0  0  0  0  0  0
  142.0830   72.9656  227.1779 H   0  0  0  0  0  0  0  0  0  0  0  0
  140.9395   72.5488  224.9834 H   0  0  0  0  0  0  0  0  0  0  0  0
  139.6370   72.3752  224.0328 H   0  0  0  0  0  0  0  0  0  0  0  0
  140.9563   70.6831  222.5866 H   0  0  0  0  0  0  0  0  0  0  0  0
  139.5197   70.6134  221.5622 H   0  0  0  0  0  0  0  0  0  0  0  0
  141.2717   73.0405  222.2784 H   0  0  0  0  0  0  0  0  0  0  0  0
  140.6917   72.5531  220.6711 H   0  0  0  0  0  0  0  0  0  0  0  0
  140.6201   75.8668  223.2113 H   0  0  0  0  0  0  0  0  0  0  0  0
  142.4950   75.6300  221.8350 H   0  0  0  0  0  0  0  0  0  0  0  0
  141.5730   75.2970  220.4730 H   0  0  0  0  0  0  0  0  0  0  0  0
  139.5268   76.8393  220.6032 H   0  0  0  0  0  0  0  0  0  0  0  0
  142.2500   77.1033  221.0112 H   0  0  0  0  0  0  0  0  0  0  0  0
  141.2841   78.0915  219.9231 H   0  0  0  0  0  0  0  0  0  0  0  0
  143.4828   79.7801  221.4653 H   0  0  0  0  0  0  0  0  0  0  0  0
  143.3358   81.5530  223.1637 H   0  0  0  0  0  0  0  0  0  0  0  0
  141.3044   81.7433  224.6210 H   0  0  0  0  0  0  0  0  0  0  0  0
  139.4491   80.1152  224.3063 H   0  0  0  0  0  0  0  0  0  0  0  0
  139.1249   77.4784  223.3127 H   0  0  0  0  0  0  0  0  0  0  0  0
  138.5213   78.4218  221.9585 H   0  0  0  0  0  0  0  0  0  0  0  0
  137.1659   73.5582  221.9767 H   0  0  0  0  0  0  0  0  0  0  0  0
  137.8711   72.2873  220.8877 H   0  0  0  0  0  0  0  0  0  0  0  0
  137.1314   72.1196  223.7552 H   0  0  0  0  0  0  0  0  0  0  0  0
  137.3467   70.8185  222.5777 H   0  0  0  0  0  0  0  0  0  0  0  0
  1  2  1  0
  2  3  1  0
  3  4  2  0
  3  5  1  0
  5  6  1  0
  6  7  2  0
  7  8  1  0
  8  9  2  0
  9 10  1  0
 10 11  2  0
  5 12  1  0
 12 13  1  0
 13 14  1  0
 14 15  1  0
 15 16  1  0
 16 17  2  0
 16 18  1  0
 18 19  1  0
 18 20  1  0
 20 21  1  0
 21 22  1  0
 22 23  2  0
 23 24  1  0
 24 25  2  0
 25 26  1  0
 26 27  2  0
 27 28  1  0
 15 29  1  0
 29 30  1  0
 11  6  1  0
 30 12  1  0
 28 20  1  0
 27 22  1  0
  1 31  1  0
  1 32  1  0
  1 33  1  0
  2 34  1  0
  2 35  1  0
  7 36  1  0
  8 37  1  0
  9 38  1  0
 10 39  1  0
 11 40  1  0
 12 41  1  0
 13 42  1  0
 13 43  1  0
 14 44  1  0
 14 45  1  0
 18 46  1  1
 19 47  1  0
 19 48  1  0
 20 49  1  0
 21 50  1  0
 21 51  1  0
 23 52  1  0
 24 53  1  0
 25 54  1  0
 26 55  1  0
 28 56  1  0
 28 57  1  0
 29 58  1  0
 29 59  1  0
 30 60  1  0
 30 61  1  0
M  END
>  <smiles>  (36) 
CCC(=O)N(c1ccccc1)C1CCN(C(=O)[C@@H](N)C2Cc3ccccc3C2)CC1

>  <score_type>  (36) 
oracle

>  <origin>  (36) 
autodockgpu

>  <m_score__min__energy>  (36) 
-8.75

>  <m_primary>  (36) 
energy

>  <rmsd>  (36) 
5.716465420536562

>  <m_score__min__rmsd>  (36) 
5.716465420536562

>  <meeko>  (36) 
{"free_energy": -8.62, "intermolecular_energy": -10.71, "internal_energy": -1.46, "cluster_size": 13, "cluster_id": 1, "rank_in_cluster": 8}

>  <energy>  (36) 
-6.92

>  <cluster_rmsd>  (36) 
0.0

>  <cluster>  (36) 
9

$$$$

     RDKit          3D

 61 64  0  0  0  0  0  0  0  0999 V2000
  141.1090   68.0280  228.3440 C   0  0  0  0  0  0  0  0  0  0  0  0
  141.0580   67.6030  226.8570 C   0  0  0  0  0  0  0  0  0  0  0  0
  139.8440   68.1000  226.2250 C   0  0  0  0  0  0  0  0  0  0  0  0
  138.8800   67.2580  226.0990 O   0  0  0  0  0  0  0  0  0  0  0  0
  139.5750   69.3930  225.7290 N   0  0  0  0  0  0  0  0  0  0  0  0
  140.1930   70.4620  226.5000 C   0  0  0  0  0  0  0  0  0  0  0  0
  141.1730   71.1600  225.8010 C   0  0  0  0  0  0  0  0  0  0  0  0
  141.8080   72.2010  226.4840 C   0  0  0  0  0  0  0  0  0  0  0  0
  141.4700   72.5110  227.7830 C   0  0  0  0  0  0  0  0  0  0  0  0
  140.4760   71.7780  228.4450 C   0  0  0  0  0  0  0  0  0  0  0  0
  139.8310   70.7360  227.7830 C   0  0  0  0  0  0  0  0  0  0  0  0
  138.8160   69.7810  224.6040 C   0  0  0  0  0  0  0  0  0  0  0  0
  139.0490   69.0200  223.3310 C   0  0  0  0  0  0  0  0  0  0  0  0
  138.6580   69.9950  222.2010 C   0  0  0  0  0  0  0  0  0  0  0  0
  137.5200   70.7390  222.6680 N   0  0  0  0  0  0  0  0  0  0  0  0
  137.1860   72.0570  222.3010 C   0  0  0  0  0  0  0  0  0  0  0  0
  136.1400   72.5700  222.8460 O   0  0  0  0  0  0  0  0  0  0  0  0
  137.8890   72.9280  221.3610 C   0  0  1  0  0  0  0  0  0  0  0  0
  137.0660   73.9500  220.7790 N   0  0  0  0  0  0  0  0  0  0  0  0
  139.0770   73.6290  221.9970 C   0  0  0  0  0  0  0  0  0  0  0  0
  139.7150   74.6560  221.1230 C   0  0  0  0  0  0  0  0  0  0  0  0
  141.0160   74.0480  220.7350 C   0  0  0  0  0  0  0  0  0  0  0  0
  142.0000   74.4030  219.8110 C   0  0  0  0  0  0  0  0  0  0  0  0
  143.1450   73.6540  219.6340 C   0  0  0  0  0  0  0  0  0  0  0  0
  143.3560   72.4990  220.3890 C   0  0  0  0  0  0  0  0  0  0  0  0
  142.3950   72.1360  221.3080 C   0  0  0  0  0  0  0  0  0  0  0  0
  141.2470   72.9040  221.4700 C   0  0  0  0  0  0  0  0  0  0  0  0
  140.1230   72.6490  222.4120 C   0  0  0  0  0  0  0  0  0  0  0  0
  136.6180   70.0480  223.5910 C   0  0  0  0  0  0  0  0  0  0  0  0
  137.3230   69.6350  224.8870 C   0  0  0  0  0  0  0  0  0  0  0  0
  141.0023   67.1392  228.9832 H   0  0  0  0  0  0  0  0  0  0  0  0
  142.0722   68.5165  228.5529 H   0  0  0  0  0  0  0  0  0  0  0  0
  140.2887   68.7305  228.5529 H   0  0  0  0  0  0  0  0  0  0  0  0
  141.9332   68.0144  226.3329 H   0  0  0  0  0  0  0  0  0  0  0  0
  141.0637   66.5044  226.8010 H   0  0  0  0  0  0  0  0  0  0  0  0
  141.4347   70.9054  224.7634 H   0  0  0  0  0  0  0  0  0  0  0  0
  142.5910   72.7827  225.9756 H   0  0  0  0  0  0  0  0  0  0  0  0
  141.9813   73.3354  228.3015 H   0  0  0  0  0  0  0  0  0  0  0  0
  140.2064   72.0244  229.4826 H   0  0  0  0  0  0  0  0  0  0  0  0
  139.0480   70.1488  228.2850 H   0  0  0  0  0  0  0  0  0  0  0  0
  139.1523   70.8162  224.4453 H   0  0  0  0  0  0  0  0  0  0  0  0
  140.1065   68.7306  223.2424 H   0  0  0  0  0  0  0  0  0  0  0  0
  138.4622   68.0903  223.2939 H   0  0  0  0  0  0  0  0  0  0  0  0
  139.4931   70.6773  221.9840 H   0  0  0  0  0  0  0  0  0  0  0  0
  138.4201   69.4505  221.2753 H   0  0  0  0  0  0  0  0  0  0  0  0
  138.2160   72.2342  220.5725 H   0  0  0  0  0  0  0  0  0  0  0  0
  137.4240   74.9180  220.9250 H   0  0  0  0  0  0  0  0  0  0  0  0
  136.0910   73.9210  221.1380 H   0  0  0  0  0  0  0  0  0  0  0  0
  138.6593   74.1472  222.8728 H   0  0  0  0  0  0  0  0  0  0  0  0
  139.0957   74.8518  220.2352 H   0  0  0  0  0  0  0  0  0  0  0  0
  139.8372   75.6241  221.6308 H   0  0  0  0  0  0  0  0  0  0  0  0
  141.8580   75.3094  219.2042 H   0  0  0  0  0  0  0  0  0  0  0  0
  143.8956   73.9686  218.8940 H   0  0  0  0  0  0  0  0  0  0  0  0
  144.2651   71.8946  220.2541 H   0  0  0  0  0  0  0  0  0  0  0  0
  142.5372   71.2318  221.9180 H   0  0  0  0  0  0  0  0  0  0  0  0
  139.7546   71.6174  222.3115 H   0  0  0  0  0  0  0  0  0  0  0  0
  140.4181   72.7644  223.4654 H   0  0  0  0  0  0  0  0  0  0  0  0
  135.7832   70.7196  223.8401 H   0  0  0  0  0  0  0  0  0  0  0  0
  136.2611   69.1338  223.0941 H   0  0  0  0  0  0  0  0  0  0  0  0
  137.0225   70.2940  225.7149 H   0  0  0  0  0  0  0  0  0  0  0  0
  137.0625   68.6083  225.1837 H   0  0  0  0  0  0  0  0  0  0  0  0
  1  2  1  0
  2  3  1  0
  3  4  2  0
  3  5  1  0
  5  6  1  0
  6  7  2  0
  7  8  1  0
  8  9  2  0
  9 10  1  0
 10 11  2  0
  5 12  1  0
 12 13  1  0
 13 14  1  0
 14 15  1  0
 15 16  1  0
 16 17  2  0
 16 18  1  0
 18 19  1  0
 18 20  1  0
 20 21  1  0
 21 22  1  0
 22 23  2  0
 23 24  1  0
 24 25  2  0
 25 26  1  0
 26 27  2  0
 27 28  1  0
 15 29  1  0
 29 30  1  0
 11  6  1  0
 30 12  1  0
 28 20  1  0
 27 22  1  0
  1 31  1  0
  1 32  1  0
  1 33  1  0
  2 34  1  0
  2 35  1  0
  7 36  1  0
  8 37  1  0
  9 38  1  0
 10 39  1  0
 11 40  1  0
 12 41  1  0
 13 42  1  0
 13 43  1  0
 14 44  1  0
 14 45  1  0
 18 46  1  6
 19 47  1  0
 19 48  1  0
 20 49  1  0
 21 50  1  0
 21 51  1  0
 23 52  1  0
 24 53  1  0
 25 54  1  0
 26 55  1  0
 28 56  1  0
 28 57  1  0
 29 58  1  0
 29 59  1  0
 30 60  1  0
 30 61  1  0
M  END
>  <smiles>  (37) 
CCC(=O)N(c1ccccc1)C1CCN(C(=O)[C@@H](N)C2Cc3ccccc3C2)CC1

>  <score_type>  (37) 
oracle

>  <origin>  (37) 
autodockgpu

>  <m_score__min__energy>  (37) 
-8.75

>  <m_primary>  (37) 
energy

>  <rmsd>  (37) 
8.44346212710754

>  <m_score__min__rmsd>  (37) 
8.44346212710754

>  <meeko>  (37) 
{"free_energy": -7.19, "intermolecular_energy": -9.28, "internal_energy": -2.63, "cluster_size": 1, "cluster_id": 6, "rank_in_cluster": 1}

>  <energy>  (37) 
-6.31

>  <cluster_rmsd>  (37) 
0.0

>  <cluster>  (37) 
10

$$$$

     RDKit          3D

 61 64  0  0  0  0  0  0  0  0999 V2000
  140.3450   71.8730  223.8320 C   0  0  0  0  0  0  0  0  0  0  0  0
  139.6650   71.7630  222.4470 C   0  0  0  0  0  0  0  0  0  0  0  0
  140.4540   72.4490  221.4330 C   0  0  0  0  0  0  0  0  0  0  0  0
  141.3470   71.7460  220.8310 O   0  0  0  0  0  0  0  0  0  0  0  0
  140.3700   73.7930  221.0130 N   0  0  0  0  0  0  0  0  0  0  0  0
  139.2160   74.5070  221.5420 C   0  0  0  0  0  0  0  0  0  0  0  0
  139.5400   75.7110  222.1600 C   0  0  0  0  0  0  0  0  0  0  0  0
  138.4780   76.4480  222.6900 C   0  0  0  0  0  0  0  0  0  0  0  0
  137.1810   75.9940  222.5980 C   0  0  0  0  0  0  0  0  0  0  0  0
  136.9050   74.7740  221.9660 C   0  0  0  0  0  0  0  0  0  0  0  0
  137.9500   74.0240  221.4310 C   0  0  0  0  0  0  0  0  0  0  0  0
  141.2410   74.5270  220.1790 C   0  0  0  0  0  0  0  0  0  0  0  0
  142.6860   74.5790  220.5820 C   0  0  0  0  0  0  0  0  0  0  0  0
  143.2310   75.8840  219.9650 C   0  0  0  0  0  0  0  0  0  0  0  0
  142.5960   76.0340  218.6840 N   0  0  0  0  0  0  0  0  0  0  0  0
  142.3070   77.2540  218.0420 C   0  0  0  0  0  0  0  0  0  0  0  0
  141.7070   77.1920  216.9060 O   0  0  0  0  0  0  0  0  0  0  0  0
  142.6100   78.6050  218.5120 C   0  0  1  0  0  0  0  0  0  0  0  0
  142.9140   79.5380  217.4650 N   0  0  0  0  0  0  0  0  0  0  0  0
  141.4720   79.2060  219.3210 C   0  0  0  0  0  0  0  0  0  0  0  0
  141.8180   80.4940  219.9900 C   0  0  0  0  0  0  0  0  0  0  0  0
  141.8940   80.1470  221.4340 C   0  0  0  0  0  0  0  0  0  0  0  0
  142.3330   80.8400  222.5630 C   0  0  0  0  0  0  0  0  0  0  0  0
  142.3000   80.2840  223.8250 C   0  0  0  0  0  0  0  0  0  0  0  0
  141.8160   78.9880  224.0120 C   0  0  0  0  0  0  0  0  0  0  0  0
  141.3770   78.2900  222.9080 C   0  0  0  0  0  0  0  0  0  0  0  0
  141.4190   78.8690  221.6440 C   0  0  0  0  0  0  0  0  0  0  0  0
  140.9860   78.2520  220.3600 C   0  0  0  0  0  0  0  0  0  0  0  0
  142.2430   74.8020  217.9760 C   0  0  0  0  0  0  0  0  0  0  0  0
  141.2430   73.9500  218.7650 C   0  0  0  0  0  0  0  0  0  0  0  0
  139.5895   71.7508  224.6221 H   0  0  0  0  0  0  0  0  0  0  0  0
  141.1079   71.0866  223.9294 H   0  0  0  0  0  0  0  0  0  0  0  0
  140.8211   72.8598  223.9294 H   0  0  0  0  0  0  0  0  0  0  0  0
  139.5698   70.7016  222.1742 H   0  0  0  0  0  0  0  0  0  0  0  0
  138.6716   72.2324  222.5012 H   0  0  0  0  0  0  0  0  0  0  0  0
  140.5794   76.0645  222.2278 H   0  0  0  0  0  0  0  0  0  0  0  0
  138.6812   77.4070  223.1891 H   0  0  0  0  0  0  0  0  0  0  0  0
  136.3596   76.5905  223.0217 H   0  0  0  0  0  0  0  0  0  0  0  0
  135.8693   74.4107  221.8928 H   0  0  0  0  0  0  0  0  0  0  0  0
  137.7555   73.0639  220.9307 H   0  0  0  0  0  0  0  0  0  0  0  0
  140.8317   75.5450  220.2576 H   0  0  0  0  0  0  0  0  0  0  0  0
  142.7804   74.6015  221.6777 H   0  0  0  0  0  0  0  0  0  0  0  0
  143.2420   73.6960  220.2340 H   0  0  0  0  0  0  0  0  0  0  0  0
  142.9864   76.7397  220.6115 H   0  0  0  0  0  0  0  0  0  0  0  0
  144.3254   75.8448  219.8611 H   0  0  0  0  0  0  0  0  0  0  0  0
  143.5043   78.4589  219.1356 H   0  0  0  0  0  0  0  0  0  0  0  0
  142.9220   79.1180  216.5120 H   0  0  0  0  0  0  0  0  0  0  0  0
  143.8330   80.0020  217.6100 H   0  0  0  0  0  0  0  0  0  0  0  0
  140.6831   79.4127  218.5829 H   0  0  0  0  0  0  0  0  0  0  0  0
  142.7851   80.8736  219.6287 H   0  0  0  0  0  0  0  0  0  0  0  0
  141.0822   81.2857  219.7854 H   0  0  0  0  0  0  0  0  0  0  0  0
  142.7180   81.8633  222.4426 H   0  0  0  0  0  0  0  0  0  0  0  0
  142.6569   80.8647  224.6883 H   0  0  0  0  0  0  0  0  0  0  0  0
  141.7859   78.5359  225.0143 H   0  0  0  0  0  0  0  0  0  0  0  0
  140.9904   77.2671  223.0272 H   0  0  0  0  0  0  0  0  0  0  0  0
  141.4456   77.2614  220.2273 H   0  0  0  0  0  0  0  0  0  0  0  0
  139.8989   78.0908  220.3124 H   0  0  0  0  0  0  0  0  0  0  0  0
  141.7964   75.0659  217.0060 H   0  0  0  0  0  0  0  0  0  0  0  0
  143.1618   74.2115  217.8449 H   0  0  0  0  0  0  0  0  0  0  0  0
  140.2402   74.0226  218.3189 H   0  0  0  0  0  0  0  0  0  0  0  0
  141.5203   72.8855  218.7592 H   0  0  0  0  0  0  0  0  0  0  0  0
  1  2  1  0
  2  3  1  0
  3  4  2  0
  3  5  1  0
  5  6  1  0
  6  7  2  0
  7  8  1  0
  8  9  2  0
  9 10  1  0
 10 11  2  0
  5 12  1  0
 12 13  1  0
 13 14  1  0
 14 15  1  0
 15 16  1  0
 16 17  2  0
 16 18  1  0
 18 19  1  0
 18 20  1  0
 20 21  1  0
 21 22  1  0
 22 23  2  0
 23 24  1  0
 24 25  2  0
 25 26  1  0
 26 27  2  0
 27 28  1  0
 15 29  1  0
 29 30  1  0
 11  6  1  0
 30 12  1  0
 28 20  1  0
 27 22  1  0
  1 31  1  0
  1 32  1  0
  1 33  1  0
  2 34  1  0
  2 35  1  0
  7 36  1  0
  8 37  1  0
  9 38  1  0
 10 39  1  0
 11 40  1  0
 12 41  1  0
 13 42  1  0
 13 43  1  0
 14 44  1  0
 14 45  1  0
 18 46  1  1
 19 47  1  0
 19 48  1  0
 20 49  1  0
 21 50  1  0
 21 51  1  0
 23 52  1  0
 24 53  1  0
 25 54  1  0
 26 55  1  0
 28 56  1  0
 28 57  1  0
 29 58  1  0
 29 59  1  0
 30 60  1  0
 30 61  1  0
M  END
>  <smiles>  (38) 
CCC(=O)N(c1ccccc1)C1CCN(C(=O)[C@@H](N)C2Cc3ccccc3C2)CC1

>  <score_type>  (38) 
oracle

>  <origin>  (38) 
autodockgpu

>  <m_score__min__energy>  (38) 
-8.75

>  <m_primary>  (38) 
energy

>  <rmsd>  (38) 
4.060568873398841

>  <m_score__min__rmsd>  (38) 
4.060568873398841

>  <meeko>  (38) 
{"free_energy": -6.79, "intermolecular_energy": -8.88, "internal_energy": -2.93, "cluster_size": 10, "cluster_id": 7, "rank_in_cluster": 8}

>  <energy>  (38) 
-6.29

>  <cluster_rmsd>  (38) 
0.48

>  <cluster>  (38) 
10

$$$$

     RDKit          3D

 61 64  0  0  0  0  0  0  0  0999 V2000
  145.6060   74.1880  220.8460 C   0  0  0  0  0  0  0  0  0  0  0  0
  145.9710   72.6900  220.7140 C   0  0  0  0  0  0  0  0  0  0  0  0
  145.1710   72.0580  219.6730 C   0  0  0  0  0  0  0  0  0  0  0  0
  145.5750   72.2260  218.4640 O   0  0  0  0  0  0  0  0  0  0  0  0
  144.0050   71.2770  219.8110 N   0  0  0  0  0  0  0  0  0  0  0  0
  144.2140   69.8560  219.5720 C   0  0  0  0  0  0  0  0  0  0  0  0
  145.5410   69.5220  219.3180 C   0  0  0  0  0  0  0  0  0  0  0  0
  145.8120   68.1720  219.0810 C   0  0  0  0  0  0  0  0  0  0  0  0
  144.8080   67.2300  219.1000 C   0  0  0  0  0  0  0  0  0  0  0  0
  143.4860   67.6160  219.3590 C   0  0  0  0  0  0  0  0  0  0  0  0
  143.1930   68.9570  219.5990 C   0  0  0  0  0  0  0  0  0  0  0  0
  142.6950   71.6760  220.1530 C   0  0  0  0  0  0  0  0  0  0  0  0
  142.5310   73.0550  220.7220 C   0  0  0  0  0  0  0  0  0  0  0  0
  141.2480   72.9890  221.5770 C   0  0  0  0  0  0  0  0  0  0  0  0
  140.3270   72.1330  220.8800 N   0  0  0  0  0  0  0  0  0  0  0  0
  139.3370   71.3260  221.4730 C   0  0  0  0  0  0  0  0  0  0  0  0
  138.6220   70.6020  220.6860 O   0  0  0  0  0  0  0  0  0  0  0  0
  139.0140   71.2070  222.8930 C   0  0  1  0  0  0  0  0  0  0  0  0
  137.7580   70.5660  223.1590 N   0  0  0  0  0  0  0  0  0  0  0  0
  140.0720   70.4380  223.6660 C   0  0  0  0  0  0  0  0  0  0  0  0
  139.5170   69.4370  224.6240 C   0  0  0  0  0  0  0  0  0  0  0  0
  139.7890   70.0230  225.9640 C   0  0  0  0  0  0  0  0  0  0  0  0
  139.3830   69.6860  227.2560 C   0  0  0  0  0  0  0  0  0  0  0  0
  139.7820   70.4060  228.3630 C   0  0  0  0  0  0  0  0  0  0  0  0
  140.6190   71.5140  228.2180 C   0  0  0  0  0  0  0  0  0  0  0  0
  141.0300   71.8600  226.9490 C   0  0  0  0  0  0  0  0  0  0  0  0
  140.6160   71.1210  225.8460 C   0  0  0  0  0  0  0  0  0  0  0  0
  140.9680   71.3630  224.4200 C   0  0  0  0  0  0  0  0  0  0  0  0
  140.4170   72.1240  219.4180 C   0  0  0  0  0  0  0  0  0  0  0  0
  141.7850   71.6400  218.9270 C   0  0  0  0  0  0  0  0  0  0  0  0
  145.5405   74.4570  221.9106 H   0  0  0  0  0  0  0  0  0  0  0  0
  146.3817   74.7985  220.3606 H   0  0  0  0  0  0  0  0  0  0  0  0
  144.6364   74.3733  220.3606 H   0  0  0  0  0  0  0  0  0  0  0  0
  147.0366   72.5987  220.4568 H   0  0  0  0  0  0  0  0  0  0  0  0
  145.7669   72.1891  221.6719 H   0  0  0  0  0  0  0  0  0  0  0  0
  146.3360   70.2822  219.3045 H   0  0  0  0  0  0  0  0  0  0  0  0
  146.8455   67.8562  218.8756 H   0  0  0  0  0  0  0  0  0  0  0  0
  145.0441   66.1723  218.9115 H   0  0  0  0  0  0  0  0  0  0  0  0
  142.6834   66.8639  219.3728 H   0  0  0  0  0  0  0  0  0  0  0  0
  142.1621   69.2807  219.8051 H   0  0  0  0  0  0  0  0  0  0  0  0
  142.4318   70.9529  220.9390 H   0  0  0  0  0  0  0  0  0  0  0  0
  143.3972   73.3206  221.3458 H   0  0  0  0  0  0  0  0  0  0  0  0
  142.4616   73.8196  219.9342 H   0  0  0  0  0  0  0  0  0  0  0  0
  141.4754   72.5722  222.5692 H   0  0  0  0  0  0  0  0  0  0  0  0
  140.8202   73.9917  221.7243 H   0  0  0  0  0  0  0  0  0  0  0  0
  138.9634   72.2540  223.2267 H   0  0  0  0  0  0  0  0  0  0  0  0
  137.3760   70.0290  222.3520 H   0  0  0  0  0  0  0  0  0  0  0  0
  137.0280   71.2450  223.4560 H   0  0  0  0  0  0  0  0  0  0  0  0
  140.6356   69.8894  222.8970 H   0  0  0  0  0  0  0  0  0  0  0  0
  138.4361   69.3056  224.4680 H   0  0  0  0  0  0  0  0  0  0  0  0
  139.9679   68.4413  224.5006 H   0  0  0  0  0  0  0  0  0  0  0  0
  138.7229   68.8174  227.3963 H   0  0  0  0  0  0  0  0  0  0  0  0
  139.4392   70.1059  229.3642 H   0  0  0  0  0  0  0  0  0  0  0  0
  140.9420   72.0957  229.0940 H   0  0  0  0  0  0  0  0  0  0  0  0
  141.6909   72.7278  226.8073 H   0  0  0  0  0  0  0  0  0  0  0  0
  140.7739   72.4093  224.1413 H   0  0  0  0  0  0  0  0  0  0  0  0
  142.0332   71.1856  224.2105 H   0  0  0  0  0  0  0  0  0  0  0  0
  139.6402   71.4551  219.0191 H   0  0  0  0  0  0  0  0  0  0  0  0
  140.2761   73.1559  219.0640 H   0  0  0  0  0  0  0  0  0  0  0  0
  141.7115   70.6157  218.5328 H   0  0  0  0  0  0  0  0  0  0  0  0
  142.1725   72.2699  218.1127 H   0  0  0  0  0  0  0  0  0  0  0  0
  1  2  1  0
  2  3  1  0
  3  4  2  0
  3  5  1  0
  5  6  1  0
  6  7  2  0
  7  8  1  0
  8  9  2  0
  9 10  1  0
 10 11  2  0
  5 12  1  0
 12 13  1  0
 13 14  1  0
 14 15  1  0
 15 16  1  0
 16 17  2  0
 16 18  1  0
 18 19  1  0
 18 20  1  0
 20 21  1  0
 21 22  1  0
 22 23  2  0
 23 24  1  0
 24 25  2  0
 25 26  1  0
 26 27  2  0
 27 28  1  0
 15 29  1  0
 29 30  1  0
 11  6  1  0
 30 12  1  0
 28 20  1  0
 27 22  1  0
  1 31  1  0
  1 32  1  0
  1 33  1  0
  2 34  1  0
  2 35  1  0
  7 36  1  0
  8 37  1  0
  9 38  1  0
 10 39  1  0
 11 40  1  0
 12 41  1  0
 13 42  1  0
 13 43  1  0
 14 44  1  0
 14 45  1  0
 18 46  1  1
 19 47  1  0
 19 48  1  0
 20 49  1  0
 21 50  1  0
 21 51  1  0
 23 52  1  0
 24 53  1  0
 25 54  1  0
 26 55  1  0
 28 56  1  0
 28 57  1  0
 29 58  1  0
 29 59  1  0
 30 60  1  0
 30 61  1  0
M  END
>  <smiles>  (39) 
CCC(=O)N(c1ccccc1)C1CCN(C(=O)[C@@H](N)C2Cc3ccccc3C2)CC1

>  <score_type>  (39) 
oracle

>  <origin>  (39) 
autodockgpu

>  <m_score__min__energy>  (39) 
-8.75

>  <m_primary>  (39) 
energy

>  <rmsd>  (39) 
9.574090258856087

>  <m_score__min__rmsd>  (39) 
9.574090258856087

>  <meeko>  (39) 
{"free_energy": -7.56, "intermolecular_energy": -9.65, "internal_energy": -2.33, "cluster_size": 6, "cluster_id": 3, "rank_in_cluster": 5}

>  <energy>  (39) 
-6.26

>  <cluster_rmsd>  (39) 
0.0

>  <cluster>  (39) 
11

$$$$

     RDKit          3D

 61 64  0  0  0  0  0  0  0  0999 V2000
  138.7100   67.6650  222.6170 C   0  0  0  0  0  0  0  0  0  0  0  0
  139.1320   67.9770  224.0730 C   0  0  0  0  0  0  0  0  0  0  0  0
  138.5780   69.2530  224.5040 C   0  0  0  0  0  0  0  0  0  0  0  0
  137.3730   69.2300  224.9540 O   0  0  0  0  0  0  0  0  0  0  0  0
  139.1880   70.5250  224.4990 N   0  0  0  0  0  0  0  0  0  0  0  0
  139.9120   70.8380  225.7240 C   0  0  0  0  0  0  0  0  0  0  0  0
  139.6140   69.9840  226.7810 C   0  0  0  0  0  0  0  0  0  0  0  0
  140.2750   70.2280  227.9880 C   0  0  0  0  0  0  0  0  0  0  0  0
  141.1730   71.2650  228.1110 C   0  0  0  0  0  0  0  0  0  0  0  0
  141.4390   72.0990  227.0160 C   0  0  0  0  0  0  0  0  0  0  0  0
  140.7910   71.8730  225.8040 C   0  0  0  0  0  0  0  0  0  0  0  0
  139.2030   71.5070  223.4860 C   0  0  0  0  0  0  0  0  0  0  0  0
  140.0490   71.2270  222.2790 C   0  0  0  0  0  0  0  0  0  0  0  0
  140.4110   72.6140  221.7080 C   0  0  0  0  0  0  0  0  0  0  0  0
  139.2550   73.4500  221.8840 N   0  0  0  0  0  0  0  0  0  0  0  0
  139.2640   74.8450  222.0740 C   0  0  0  0  0  0  0  0  0  0  0  0
  138.1270   75.4220  222.2430 O   0  0  0  0  0  0  0  0  0  0  0  0
  140.4240   75.7350  222.1030 C   0  0  1  0  0  0  0  0  0  0  0  0
  141.5840   75.2120  221.4400 N   0  0  0  0  0  0  0  0  0  0  0  0
  140.1320   77.0880  221.4770 C   0  0  0  0  0  0  0  0  0  0  0  0
  141.3420   77.7900  220.9570 C   0  0  0  0  0  0  0  0  0  0  0  0
  141.5460   78.9170  221.9050 C   0  0  0  0  0  0  0  0  0  0  0  0
  142.5800   79.8370  222.0880 C   0  0  0  0  0  0  0  0  0  0  0  0
  142.5310   80.8130  223.0630 C   0  0  0  0  0  0  0  0  0  0  0  0
  141.4250   80.9080  223.9090 C   0  0  0  0  0  0  0  0  0  0  0  0
  140.3950   80.0080  223.7410 C   0  0  0  0  0  0  0  0  0  0  0  0
  140.4640   79.0320  222.7530 C   0  0  0  0  0  0  0  0  0  0  0  0
  139.4440   77.9930  222.4440 C   0  0  0  0  0  0  0  0  0  0  0  0
  137.9510   72.7860  221.8350 C   0  0  0  0  0  0  0  0  0  0  0  0
  137.7950   71.7370  222.9400 C   0  0  0  0  0  0  0  0  0  0  0  0
  137.8255   67.0111  222.6237 H   0  0  0  0  0  0  0  0  0  0  0  0
  138.4683   68.6033  222.0962 H   0  0  0  0  0  0  0  0  0  0  0  0
  139.5362   67.1589  222.0962 H   0  0  0  0  0  0  0  0  0  0  0  0
  138.7627   67.1801  224.7353 H   0  0  0  0  0  0  0  0  0  0  0  0
  140.2296   68.0323  224.1204 H   0  0  0  0  0  0  0  0  0  0  0  0
  138.8948   69.1588  226.6723 H   0  0  0  0  0  0  0  0  0  0  0  0
  140.0746   69.5808  228.8546 H   0  0  0  0  0  0  0  0  0  0  0  0
  141.6825   71.4392  229.0702 H   0  0  0  0  0  0  0  0  0  0  0  0
  142.1558   72.9277  227.1135 H   0  0  0  0  0  0  0  0  0  0  0  0
  140.9853   72.5158  224.9328 H   0  0  0  0  0  0  0  0  0  0  0  0
  139.6379   72.3709  224.0099 H   0  0  0  0  0  0  0  0  0  0  0  0
  140.9585   70.6780  222.5644 H   0  0  0  0  0  0  0  0  0  0  0  0
  139.5206   70.6042  221.5421 H   0  0  0  0  0  0  0  0  0  0  0  0
  141.2693   73.0352  222.2519 H   0  0  0  0  0  0  0  0  0  0  0  0
  140.6891   72.5434  220.6461 H   0  0  0  0  0  0  0  0  0  0  0  0
  140.6367   75.8341  223.1777 H   0  0  0  0  0  0  0  0  0  0  0  0
  141.8750   74.2690  221.7740 H   0  0  0  0  0  0  0  0  0  0  0  0
  142.4050   75.8420  221.5320 H   0  0  0  0  0  0  0  0  0  0  0  0
  139.4795   76.8639  220.6203 H   0  0  0  0  0  0  0  0  0  0  0  0
  142.2129   77.1180  220.9568 H   0  0  0  0  0  0  0  0  0  0  0  0
  141.2175   78.1305  219.9185 H   0  0  0  0  0  0  0  0  0  0  0  0
  143.4627   79.7824  221.4338 H   0  0  0  0  0  0  0  0  0  0  0  0
  143.3673   81.5189  223.1737 H   0  0  0  0  0  0  0  0  0  0  0  0
  141.3767   81.6813  224.6898 H   0  0  0  0  0  0  0  0  0  0  0  0
  139.5112   80.0622  224.3937 H   0  0  0  0  0  0  0  0  0  0  0  0
  139.1549   77.4461  223.3536 H   0  0  0  0  0  0  0  0  0  0  0  0
  138.5150   78.4193  222.0375 H   0  0  0  0  0  0  0  0  0  0  0  0
  137.1626   73.5441  221.9522 H   0  0  0  0  0  0  0  0  0  0  0  0
  137.8700   72.2712  220.8663 H   0  0  0  0  0  0  0  0  0  0  0  0
  137.1311   72.1104  223.7336 H   0  0  0  0  0  0  0  0  0  0  0  0
  137.3478   70.8068  222.5595 H   0  0  0  0  0  0  0  0  0  0  0  0
  1  2  1  0
  2  3  1  0
  3  4  2  0
  3  5  1  0
  5  6  1  0
  6  7  2  0
  7  8  1  0
  8  9  2  0
  9 10  1  0
 10 11  2  0
  5 12  1  0
 12 13  1  0
 13 14  1  0
 14 15  1  0
 15 16  1  0
 16 17  2  0
 16 18  1  0
 18 19  1  0
 18 20  1  0
 20 21  1  0
 21 22  1  0
 22 23  2  0
 23 24  1  0
 24 25  2  0
 25 26  1  0
 26 27  2  0
 27 28  1  0
 15 29  1  0
 29 30  1  0
 11  6  1  0
 30 12  1  0
 28 20  1  0
 27 22  1  0
  1 31  1  0
  1 32  1  0
  1 33  1  0
  2 34  1  0
  2 35  1  0
  7 36  1  0
  8 37  1  0
  9 38  1  0
 10 39  1  0
 11 40  1  0
 12 41  1  0
 13 42  1  0
 13 43  1  0
 14 44  1  0
 14 45  1  0
 18 46  1  1
 19 47  1  0
 19 48  1  0
 20 49  1  0
 21 50  1  0
 21 51  1  0
 23 52  1  0
 24 53  1  0
 25 54  1  0
 26 55  1  0
 28 56  1  0
 28 57  1  0
 29 58  1  0
 29 59  1  0
 30 60  1  0
 30 61  1  0
M  END
>  <smiles>  (40) 
CCC(=O)N(c1ccccc1)C1CCN(C(=O)[C@@H](N)C2Cc3ccccc3C2)CC1

>  <score_type>  (40) 
oracle

>  <origin>  (40) 
autodockgpu

>  <m_score__min__energy>  (40) 
-8.75

>  <m_primary>  (40) 
energy

>  <rmsd>  (40) 
5.710052547496867

>  <m_score__min__rmsd>  (40) 
5.710052547496867

>  <meeko>  (40) 
{"free_energy": -8.62, "intermolecular_energy": -10.7, "internal_energy": -1.39, "cluster_size": 13, "cluster_id": 1, "rank_in_cluster": 9}

>  <energy>  (40) 
-6.25

>  <cluster_rmsd>  (40) 
0.05

>  <cluster>  (40) 
11

$$$$

     RDKit          3D

 61 64  0  0  0  0  0  0  0  0999 V2000
  143.0790   71.8710  220.7990 C   0  0  0  0  0  0  0  0  0  0  0  0
  141.5350   71.7850  220.8190 C   0  0  0  0  0  0  0  0  0  0  0  0
  140.9670   72.9410  221.4990 C   0  0  0  0  0  0  0  0  0  0  0  0
  140.6860   72.7900  222.7450 O   0  0  0  0  0  0  0  0  0  0  0  0
  140.6830   74.2190  220.9750 N   0  0  0  0  0  0  0  0  0  0  0  0
  139.4250   74.7840  221.4430 C   0  0  0  0  0  0  0  0  0  0  0  0
  139.5830   75.9170  222.2360 C   0  0  0  0  0  0  0  0  0  0  0  0
  138.4130   76.5100  222.7190 C   0  0  0  0  0  0  0  0  0  0  0  0
  137.1740   75.9900  222.4180 C   0  0  0  0  0  0  0  0  0  0  0  0
  137.0670   74.8470  221.6160 C   0  0  0  0  0  0  0  0  0  0  0  0
  138.2200   74.2390  221.1230 C   0  0  0  0  0  0  0  0  0  0  0  0
  141.4420   75.0120  220.0880 C   0  0  0  0  0  0  0  0  0  0  0  0
  142.9150   75.1140  220.3570 C   0  0  0  0  0  0  0  0  0  0  0  0
  143.3480   76.4580  219.7350 C   0  0  0  0  0  0  0  0  0  0  0  0
  142.5900   76.6180  218.5230 N   0  0  0  0  0  0  0  0  0  0  0  0
  142.1940   77.8420  217.9510 C   0  0  0  0  0  0  0  0  0  0  0  0
  141.4930   77.7860  216.8730 O   0  0  0  0  0  0  0  0  0  0  0  0
  142.4860   79.1900  218.4340 C   0  0  1  0  0  0  0  0  0  0  0  0
  142.6780   80.1600  217.3930 N   0  0  0  0  0  0  0  0  0  0  0  0
  141.3940   79.7300  219.3420 C   0  0  0  0  0  0  0  0  0  0  0  0
  141.8040   80.9190  220.1440 C   0  0  0  0  0  0  0  0  0  0  0  0
  141.9070   80.4040  221.5350 C   0  0  0  0  0  0  0  0  0  0  0  0
  142.4020   80.9460  222.7220 C   0  0  0  0  0  0  0  0  0  0  0  0
  142.3840   80.2490  223.9120 C   0  0  0  0  0  0  0  0  0  0  0  0
  141.8590   78.9560  223.9630 C   0  0  0  0  0  0  0  0  0  0  0  0
  141.3640   78.4060  222.8010 C   0  0  0  0  0  0  0  0  0  0  0  0
  141.3930   79.1260  221.6110 C   0  0  0  0  0  0  0  0  0  0  0  0
  140.9020   78.6780  220.2790 C   0  0  0  0  0  0  0  0  0  0  0  0
  142.2220   75.3920  217.8120 C   0  0  0  0  0  0  0  0  0  0  0  0
  141.3340   74.4770  218.6620 C   0  0  0  0  0  0  0  0  0  0  0  0
  143.4585   71.8921  221.8313 H   0  0  0  0  0  0  0  0  0  0  0  0
  143.4883   70.9943  220.2758 H   0  0  0  0  0  0  0  0  0  0  0  0
  143.3884   72.7878  220.2758 H   0  0  0  0  0  0  0  0  0  0  0  0
  141.1610   71.7538  219.7850 H   0  0  0  0  0  0  0  0  0  0  0  0
  141.2371   70.8739  221.3585 H   0  0  0  0  0  0  0  0  0  0  0  0
  140.5774   76.3247  222.4705 H   0  0  0  0  0  0  0  0  0  0  0  0
  138.4833   77.4078  223.3506 H   0  0  0  0  0  0  0  0  0  0  0  0
  136.2663   76.4735  222.8084 H   0  0  0  0  0  0  0  0  0  0  0  0
  136.0773   74.4310  221.3762 H   0  0  0  0  0  0  0  0  0  0  0  0
  138.1575   73.3409  220.4909 H   0  0  0  0  0  0  0  0  0  0  0  0
  141.0017   76.0090  220.2370 H   0  0  0  0  0  0  0  0  0  0  0  0
  143.1106   75.1091  221.4394 H   0  0  0  0  0  0  0  0  0  0  0  0
  143.4704   74.2658  219.9304 H   0  0  0  0  0  0  0  0  0  0  0  0
  143.1316   77.2837  220.4289 H   0  0  0  0  0  0  0  0  0  0  0  0
  144.4285   76.4679  219.5292 H   0  0  0  0  0  0  0  0  0  0  0  0
  143.4294   79.0595  218.9845 H   0  0  0  0  0  0  0  0  0  0  0  0
  142.5560   79.7790  216.4310 H   0  0  0  0  0  0  0  0  0  0  0  0
  143.6190   80.5990  217.4370 H   0  0  0  0  0  0  0  0  0  0  0  0
  140.5937   80.0474  218.6573 H   0  0  0  0  0  0  0  0  0  0  0  0
  142.7739   81.3066  219.7989 H   0  0  0  0  0  0  0  0  0  0  0  0
  141.0917   81.7525  220.0554 H   0  0  0  0  0  0  0  0  0  0  0  0
  142.8205   81.9632  222.7080 H   0  0  0  0  0  0  0  0  0  0  0  0
  142.7849   80.7136  224.8249 H   0  0  0  0  0  0  0  0  0  0  0  0
  141.8411   78.3912  224.9067 H   0  0  0  0  0  0  0  0  0  0  0  0
  140.9427   77.3900  222.8142 H   0  0  0  0  0  0  0  0  0  0  0  0
  141.3207   77.6948  220.0181 H   0  0  0  0  0  0  0  0  0  0  0  0
  139.8088   78.5601  220.2478 H   0  0  0  0  0  0  0  0  0  0  0  0
  141.6773   75.6633  216.8956 H   0  0  0  0  0  0  0  0  0  0  0  0
  143.1474   74.8448  217.5791 H   0  0  0  0  0  0  0  0  0  0  0  0
  140.2917   74.5208  218.3131 H   0  0  0  0  0  0  0  0  0  0  0  0
  141.6506   73.4256  218.5960 H   0  0  0  0  0  0  0  0  0  0  0  0
  1  2  1  0
  2  3  1  0
  3  4  2  0
  3  5  1  0
  5  6  1  0
  6  7  2  0
  7  8  1  0
  8  9  2  0
  9 10  1  0
 10 11  2  0
  5 12  1  0
 12 13  1  0
 13 14  1  0
 14 15  1  0
 15 16  1  0
 16 17  2  0
 16 18  1  0
 18 19  1  0
 18 20  1  0
 20 21  1  0
 21 22  1  0
 22 23  2  0
 23 24  1  0
 24 25  2  0
 25 26  1  0
 26 27  2  0
 27 28  1  0
 15 29  1  0
 29 30  1  0
 11  6  1  0
 30 12  1  0
 28 20  1  0
 27 22  1  0
  1 31  1  0
  1 32  1  0
  1 33  1  0
  2 34  1  0
  2 35  1  0
  7 36  1  0
  8 37  1  0
  9 38  1  0
 10 39  1  0
 11 40  1  0
 12 41  1  0
 13 42  1  0
 13 43  1  0
 14 44  1  0
 14 45  1  0
 18 46  1  1
 19 47  1  0
 19 48  1  0
 20 49  1  0
 21 50  1  0
 21 51  1  0
 23 52  1  0
 24 53  1  0
 25 54  1  0
 26 55  1  0
 28 56  1  0
 28 57  1  0
 29 58  1  0
 29 59  1  0
 30 60  1  0
 30 61  1  0
M  END
>  <smiles>  (41) 
CCC(=O)N(c1ccccc1)C1CCN(C(=O)[C@@H](N)C2Cc3ccccc3C2)CC1

>  <score_type>  (41) 
oracle

>  <origin>  (41) 
autodockgpu

>  <m_score__min__energy>  (41) 
-8.75

>  <m_primary>  (41) 
energy

>  <rmsd>  (41) 
3.96682380485581

>  <m_score__min__rmsd>  (41) 
3.96682380485581

>  <meeko>  (41) 
{"free_energy": -6.99, "intermolecular_energy": -9.08, "internal_energy": -3.1, "cluster_size": 10, "cluster_id": 7, "rank_in_cluster": 5}

>  <energy>  (41) 
-6.23

>  <cluster_rmsd>  (41) 
0.58

>  <cluster>  (41) 
11

$$$$

     RDKit          3D

 61 64  0  0  0  0  0  0  0  0999 V2000
  139.5660   80.9940  218.2370 C   0  0  0  0  0  0  0  0  0  0  0  0
  141.0030   81.4760  218.5500 C   0  0  0  0  0  0  0  0  0  0  0  0
  141.8140   80.3750  219.0510 C   0  0  0  0  0  0  0  0  0  0  0  0
  142.9460   80.1890  218.4690 O   0  0  0  0  0  0  0  0  0  0  0  0
  141.5280   79.4770  220.1010 N   0  0  0  0  0  0  0  0  0  0  0  0
  141.7910   80.0160  221.4280 C   0  0  0  0  0  0  0  0  0  0  0  0
  141.5420   81.3810  221.5350 C   0  0  0  0  0  0  0  0  0  0  0  0
  141.7740   81.9630  222.7840 C   0  0  0  0  0  0  0  0  0  0  0  0
  142.2260   81.2130  223.8470 C   0  0  0  0  0  0  0  0  0  0  0  0
  142.4640   79.8410  223.6880 C   0  0  0  0  0  0  0  0  0  0  0  0
  142.2390   79.2400  222.4510 C   0  0  0  0  0  0  0  0  0  0  0  0
  141.0200   78.1620  220.0400 C   0  0  0  0  0  0  0  0  0  0  0  0
  140.1870   77.8080  218.8430 C   0  0  0  0  0  0  0  0  0  0  0  0
  139.2690   76.6620  219.3150 C   0  0  0  0  0  0  0  0  0  0  0  0
  140.0470   75.8440  220.2050 N   0  0  0  0  0  0  0  0  0  0  0  0
  139.5490   75.0920  221.2860 C   0  0  0  0  0  0  0  0  0  0  0  0
  140.4050   74.4410  221.9920 O   0  0  0  0  0  0  0  0  0  0  0  0
  138.1570   74.9550  221.7130 C   0  0  1  0  0  0  0  0  0  0  0  0
  137.8540   73.6970  222.3360 N   0  0  0  0  0  0  0  0  0  0  0  0
  137.7390   76.0410  222.6890 C   0  0  0  0  0  0  0  0  0  0  0  0
  136.4030   76.6370  222.3970 C   0  0  0  0  0  0  0  0  0  0  0  0
  136.7130   78.0050  221.9020 C   0  0  0  0  0  0  0  0  0  0  0  0
  135.9420   79.0050  221.3080 C   0  0  0  0  0  0  0  0  0  0  0  0
  136.4780   80.2180  220.9280 C   0  0  0  0  0  0  0  0  0  0  0  0
  137.8330   80.4840  221.1320 C   0  0  0  0  0  0  0  0  0  0  0  0
  138.6090   79.5080  221.7190 C   0  0  0  0  0  0  0  0  0  0  0  0
  138.0490   78.2920  222.0930 C   0  0  0  0  0  0  0  0  0  0  0  0
  138.7450   77.1420  222.7340 C   0  0  0  0  0  0  0  0  0  0  0  0
  141.4860   75.7740  219.9430 C   0  0  0  0  0  0  0  0  0  0  0  0
  142.1600   77.1460  220.0470 C   0  0  0  0  0  0  0  0  0  0  0  0
  139.0267   80.8131  219.1785 H   0  0  0  0  0  0  0  0  0  0  0  0
  139.0394   81.7647  217.6550 H   0  0  0  0  0  0  0  0  0  0  0  0
  139.6106   80.0616  217.6550 H   0  0  0  0  0  0  0  0  0  0  0  0
  141.4596   81.8728  217.6313 H   0  0  0  0  0  0  0  0  0  0  0  0
  140.9547   82.2604  219.3197 H   0  0  0  0  0  0  0  0  0  0  0  0
  141.1810   81.9716  220.6801 H   0  0  0  0  0  0  0  0  0  0  0  0
  141.5924   83.0393  222.9206 H   0  0  0  0  0  0  0  0  0  0  0  0
  142.4004   81.6914  224.8220 H   0  0  0  0  0  0  0  0  0  0  0  0
  142.8268   79.2413  224.5358 H   0  0  0  0  0  0  0  0  0  0  0  0
  142.4193   78.1646  222.3057 H   0  0  0  0  0  0  0  0  0  0  0  0
  140.3686   78.1257  220.9257 H   0  0  0  0  0  0  0  0  0  0  0  0
  139.5893   78.6729  218.5194 H   0  0  0  0  0  0  0  0  0  0  0  0
  140.8064   77.5117  217.9837 H   0  0  0  0  0  0  0  0  0  0  0  0
  138.3950   77.0705  219.8434 H   0  0  0  0  0  0  0  0  0  0  0  0
  138.9010   76.0748  218.4608 H   0  0  0  0  0  0  0  0  0  0  0  0
  137.5970   75.0359  220.7696 H   0  0  0  0  0  0  0  0  0  0  0  0
  137.1440   73.7600  223.0950 H   0  0  0  0  0  0  0  0  0  0  0  0
  138.7000   73.2460  222.7370 H   0  0  0  0  0  0  0  0  0  0  0  0
  137.6741   75.5324  223.6622 H   0  0  0  0  0  0  0  0  0  0  0  0
  135.8757   76.0540  221.6275 H   0  0  0  0  0  0  0  0  0  0  0  0
  135.7449   76.6473  223.2784 H   0  0  0  0  0  0  0  0  0  0  0  0
  134.8712   78.8199  221.1371 H   0  0  0  0  0  0  0  0  0  0  0  0
  135.8347   80.9790  220.4621 H   0  0  0  0  0  0  0  0  0  0  0  0
  138.2701   81.4478  220.8320 H   0  0  0  0  0  0  0  0  0  0  0  0
  139.6794   79.6926  221.8928 H   0  0  0  0  0  0  0  0  0  0  0  0
  139.6493   76.8687  222.1704 H   0  0  0  0  0  0  0  0  0  0  0  0
  139.0810   77.3671  223.7570 H   0  0  0  0  0  0  0  0  0  0  0  0
  141.9471   75.0961  220.6764 H   0  0  0  0  0  0  0  0  0  0  0  0
  141.6249   75.4062  218.9157 H   0  0  0  0  0  0  0  0  0  0  0  0
  142.7364   77.2214  220.9808 H   0  0  0  0  0  0  0  0  0  0  0  0
  142.8651   77.3180  219.2204 H   0  0  0  0  0  0  0  0  0  0  0  0
  1  2  1  0
  2  3  1  0
  3  4  2  0
  3  5  1  0
  5  6  1  0
  6  7  2  0
  7  8  1  0
  8  9  2  0
  9 10  1  0
 10 11  2  0
  5 12  1  0
 12 13  1  0
 13 14  1  0
 14 15  1  0
 15 16  1  0
 16 17  2  0
 16 18  1  0
 18 19  1  0
 18 20  1  0
 20 21  1  0
 21 22  1  0
 22 23  2  0
 23 24  1  0
 24 25  2  0
 25 26  1  0
 26 27  2  0
 27 28  1  0
 15 29  1  0
 29 30  1  0
 11  6  1  0
 30 12  1  0
 28 20  1  0
 27 22  1  0
  1 31  1  0
  1 32  1  0
  1 33  1  0
  2 34  1  0
  2 35  1  0
  7 36  1  0
  8 37  1  0
  9 38  1  0
 10 39  1  0
 11 40  1  0
 12 41  1  0
 13 42  1  0
 13 43  1  0
 14 44  1  0
 14 45  1  0
 18 46  1  6
 19 47  1  0
 19 48  1  0
 20 49  1  0
 21 50  1  0
 21 51  1  0
 23 52  1  0
 24 53  1  0
 25 54  1  0
 26 55  1  0
 28 56  1  0
 28 57  1  0
 29 58  1  0
 29 59  1  0
 30 60  1  0
 30 61  1  0
M  END
>  <smiles>  (42) 
CCC(=O)N(c1ccccc1)C1CCN(C(=O)[C@@H](N)C2Cc3ccccc3C2)CC1

>  <score_type>  (42) 
oracle

>  <origin>  (42) 
autodockgpu

>  <m_score__min__energy>  (42) 
-8.75

>  <m_primary>  (42) 
energy

>  <rmsd>  (42) 
4.525100114477112

>  <m_score__min__rmsd>  (42) 
4.525100114477112

>  <meeko>  (42) 
{"free_energy": -5.89, "intermolecular_energy": -7.98, "internal_energy": -3.75, "cluster_size": 10, "cluster_id": 11, "rank_in_cluster": 9}

>  <energy>  (42) 
-6.23

>  <cluster_rmsd>  (42) 
0.16

>  <cluster>  (42) 
11

$$$$

     RDKit          3D

 61 64  0  0  0  0  0  0  0  0999 V2000
  139.6630   70.5530  221.5900 C   0  0  0  0  0  0  0  0  0  0  0  0
  140.3110   71.6720  220.7400 C   0  0  0  0  0  0  0  0  0  0  0  0
  140.4400   72.8960  221.5210 C   0  0  0  0  0  0  0  0  0  0  0  0
  140.7030   72.7510  222.7710 O   0  0  0  0  0  0  0  0  0  0  0  0
  140.3190   74.2330  221.0880 N   0  0  0  0  0  0  0  0  0  0  0  0
  139.1980   74.9480  221.6820 C   0  0  0  0  0  0  0  0  0  0  0  0
  138.0150   74.2150  221.6960 C   0  0  0  0  0  0  0  0  0  0  0  0
  136.8970   74.8430  222.2540 C   0  0  0  0  0  0  0  0  0  0  0  0
  136.9770   76.1210  222.7600 C   0  0  0  0  0  0  0  0  0  0  0  0
  138.1920   76.8180  222.7220 C   0  0  0  0  0  0  0  0  0  0  0  0
  139.3190   76.2110  222.1710 C   0  0  0  0  0  0  0  0  0  0  0  0
  141.1280   74.9590  220.1870 C   0  0  0  0  0  0  0  0  0  0  0  0
  142.6010   74.9890  220.4670 C   0  0  0  0  0  0  0  0  0  0  0  0
  143.1110   76.2900  219.8130 C   0  0  0  0  0  0  0  0  0  0  0  0
  142.3730   76.4570  218.5900 N   0  0  0  0  0  0  0  0  0  0  0  0
  142.0490   77.6850  217.9820 C   0  0  0  0  0  0  0  0  0  0  0  0
  141.3540   77.6370  216.9000 O   0  0  0  0  0  0  0  0  0  0  0  0
  142.4090   79.0280  218.4310 C   0  0  1  0  0  0  0  0  0  0  0  0
  142.6230   79.9670  217.3670 N   0  0  0  0  0  0  0  0  0  0  0  0
  141.3600   79.6340  219.3480 C   0  0  0  0  0  0  0  0  0  0  0  0
  141.8330   80.8300  220.1050 C   0  0  0  0  0  0  0  0  0  0  0  0
  141.9500   80.3500  221.5080 C   0  0  0  0  0  0  0  0  0  0  0  0
  142.4940   80.9070  222.6670 C   0  0  0  0  0  0  0  0  0  0  0  0
  142.4790   80.2450  223.8770 C   0  0  0  0  0  0  0  0  0  0  0  0
  141.9090   78.9750  223.9780 C   0  0  0  0  0  0  0  0  0  0  0  0
  141.3660   78.4110  222.8440 C   0  0  0  0  0  0  0  0  0  0  0  0
  141.3920   79.0950  221.6330 C   0  0  0  0  0  0  0  0  0  0  0  0
  140.8530   78.6280  220.3270 C   0  0  0  0  0  0  0  0  0  0  0  0
  141.9440   75.2340  217.9090 C   0  0  0  0  0  0  0  0  0  0  0  0
  141.0020   74.3910  218.7750 C   0  0  0  0  0  0  0  0  0  0  0  0
  139.7949   70.7808  222.6580 H   0  0  0  0  0  0  0  0  0  0  0  0
  138.5895   70.4915  221.3581 H   0  0  0  0  0  0  0  0  0  0  0  0
  140.1439   69.5913  221.3581 H   0  0  0  0  0  0  0  0  0  0  0  0
  141.3087   71.3453  220.4114 H   0  0  0  0  0  0  0  0  0  0  0  0
  139.6713   71.8721  219.8678 H   0  0  0  0  0  0  0  0  0  0  0  0
  137.9621   73.1944  221.2892 H   0  0  0  0  0  0  0  0  0  0  0  0
  135.9372   74.3068  222.2893 H   0  0  0  0  0  0  0  0  0  0  0  0
  136.0852   76.5959  223.1950 H   0  0  0  0  0  0  0  0  0  0  0  0
  138.2559   77.8395  223.1252 H   0  0  0  0  0  0  0  0  0  0  0  0
  140.2824   76.7404  222.1326 H   0  0  0  0  0  0  0  0  0  0  0  0
  140.7420   75.9823  220.3048 H   0  0  0  0  0  0  0  0  0  0  0  0
  142.7873   75.0035  221.5510 H   0  0  0  0  0  0  0  0  0  0  0  0
  143.1132   74.1007  220.0689 H   0  0  0  0  0  0  0  0  0  0  0  0
  142.9337   77.1449  220.4821 H   0  0  0  0  0  0  0  0  0  0  0  0
  144.1921   76.2361  219.6175 H   0  0  0  0  0  0  0  0  0  0  0  0
  143.3563   78.8669  218.9664 H   0  0  0  0  0  0  0  0  0  0  0  0
  142.3100   79.6280  216.4330 H   0  0  0  0  0  0  0  0  0  0  0  0
  143.6230   80.2400  217.2810 H   0  0  0  0  0  0  0  0  0  0  0  0
  140.5552   79.9613  218.6734 H   0  0  0  0  0  0  0  0  0  0  0  0
  142.8080   81.1709  219.7266 H   0  0  0  0  0  0  0  0  0  0  0  0
  141.1506   81.6873  220.0082 H   0  0  0  0  0  0  0  0  0  0  0  0
  142.9496   81.9068  222.6134 H   0  0  0  0  0  0  0  0  0  0  0  0
  142.9183   80.7202  224.7665 H   0  0  0  0  0  0  0  0  0  0  0  0
  141.8936   78.4382  224.9380 H   0  0  0  0  0  0  0  0  0  0  0  0
  140.9084   77.4121  222.8968 H   0  0  0  0  0  0  0  0  0  0  0  0
  141.2291   77.6229  220.0854 H   0  0  0  0  0  0  0  0  0  0  0  0
  139.7558   78.5500  220.3248 H   0  0  0  0  0  0  0  0  0  0  0  0
  141.4212   75.5096  216.9813 H   0  0  0  0  0  0  0  0  0  0  0  0
  142.8401   74.6317  217.6989 H   0  0  0  0  0  0  0  0  0  0  0  0
  139.9662   74.4805  218.4156 H   0  0  0  0  0  0  0  0  0  0  0  0
  141.2621   73.3228  218.7401 H   0  0  0  0  0  0  0  0  0  0  0  0
  1  2  1  0
  2  3  1  0
  3  4  2  0
  3  5  1  0
  5  6  1  0
  6  7  2  0
  7  8  1  0
  8  9  2  0
  9 10  1  0
 10 11  2  0
  5 12  1  0
 12 13  1  0
 13 14  1  0
 14 15  1  0
 15 16  1  0
 16 17  2  0
 16 18  1  0
 18 19  1  0
 18 20  1  0
 20 21  1  0
 21 22  1  0
 22 23  2  0
 23 24  1  0
 24 25  2  0
 25 26  1  0
 26 27  2  0
 27 28  1  0
 15 29  1  0
 29 30  1  0
 11  6  1  0
 30 12  1  0
 28 20  1  0
 27 22  1  0
  1 31  1  0
  1 32  1  0
  1 33  1  0
  2 34  1  0
  2 35  1  0
  7 36  1  0
  8 37  1  0
  9 38  1  0
 10 39  1  0
 11 40  1  0
 12 41  1  0
 13 42  1  0
 13 43  1  0
 14 44  1  0
 14 45  1  0
 18 46  1  1
 19 47  1  0
 19 48  1  0
 20 49  1  0
 21 50  1  0
 21 51  1  0
 23 52  1  0
 24 53  1  0
 25 54  1  0
 26 55  1  0
 28 56  1  0
 28 57  1  0
 29 58  1  0
 29 59  1  0
 30 60  1  0
 30 61  1  0
M  END
>  <smiles>  (43) 
CCC(=O)N(c1ccccc1)C1CCN(C(=O)[C@@H](N)C2Cc3ccccc3C2)CC1

>  <score_type>  (43) 
oracle

>  <origin>  (43) 
autodockgpu

>  <m_score__min__energy>  (43) 
-8.75

>  <m_primary>  (43) 
energy

>  <rmsd>  (43) 
3.9396177475924175

>  <m_score__min__rmsd>  (43) 
3.9396177475924175

>  <meeko>  (43) 
{"free_energy": -6.77, "intermolecular_energy": -8.86, "internal_energy": -3.07, "cluster_size": 10, "cluster_id": 7, "rank_in_cluster": 9}

>  <energy>  (43) 
-6.05

>  <cluster_rmsd>  (43) 
0.34

>  <cluster>  (43) 
11

$$$$

     RDKit          3D

 61 64  0  0  0  0  0  0  0  0999 V2000
  141.1120   68.1790  228.7950 C   0  0  0  0  0  0  0  0  0  0  0  0
  141.1730   67.6900  227.3280 C   0  0  0  0  0  0  0  0  0  0  0  0
  139.9140   67.9580  226.6460 C   0  0  0  0  0  0  0  0  0  0  0  0
  139.1180   66.9590  226.5020 O   0  0  0  0  0  0  0  0  0  0  0  0
  139.4410   69.1780  226.1190 N   0  0  0  0  0  0  0  0  0  0  0  0
  140.0780   70.3560  226.6920 C   0  0  0  0  0  0  0  0  0  0  0  0
  141.0850   70.8890  225.8930 C   0  0  0  0  0  0  0  0  0  0  0  0
  141.7380   72.0230  226.3840 C   0  0  0  0  0  0  0  0  0  0  0  0
  141.3930   72.5740  227.5990 C   0  0  0  0  0  0  0  0  0  0  0  0
  140.3720   71.9990  228.3670 C   0  0  0  0  0  0  0  0  0  0  0  0
  139.7080   70.8690  227.8960 C   0  0  0  0  0  0  0  0  0  0  0  0
  138.4660   69.4060  225.1250 C   0  0  0  0  0  0  0  0  0  0  0  0
  138.4440   70.7660  224.4920 C   0  0  0  0  0  0  0  0  0  0  0  0
  136.9940   70.9600  224.0020 C   0  0  0  0  0  0  0  0  0  0  0  0
  136.5430   69.6820  223.5220 N   0  0  0  0  0  0  0  0  0  0  0  0
  135.2140   69.2160  223.5340 C   0  0  0  0  0  0  0  0  0  0  0  0
  135.0060   68.0280  223.0860 O   0  0  0  0  0  0  0  0  0  0  0  0
  134.0230   69.9240  223.9980 C   0  0  1  0  0  0  0  0  0  0  0  0
  132.7910   69.4180  223.4610 N   0  0  0  0  0  0  0  0  0  0  0  0
  133.8860   69.8990  225.5110 C   0  0  0  0  0  0  0  0  0  0  0  0
  132.5040   69.6010  225.9900 C   0  0  0  0  0  0  0  0  0  0  0  0
  132.0230   70.8950  226.5440 C   0  0  0  0  0  0  0  0  0  0  0  0
  130.7770   71.3420  226.9860 C   0  0  0  0  0  0  0  0  0  0  0  0
  130.5830   72.6200  227.4680 C   0  0  0  0  0  0  0  0  0  0  0  0
  131.6490   73.5200  227.5270 C   0  0  0  0  0  0  0  0  0  0  0  0
  132.8870   73.0950  227.0950 C   0  0  0  0  0  0  0  0  0  0  0  0
  133.0610   71.8020  226.6130 C   0  0  0  0  0  0  0  0  0  0  0  0
  134.3240   71.1930  226.1130 C   0  0  0  0  0  0  0  0  0  0  0  0
  137.5600   68.8000  222.9460 C   0  0  0  0  0  0  0  0  0  0  0  0
  138.6450   68.4300  223.9640 C   0  0  0  0  0  0  0  0  0  0  0  0
  141.2192   67.3193  229.4728 H   0  0  0  0  0  0  0  0  0  0  0  0
  141.9279   68.8938  228.9775 H   0  0  0  0  0  0  0  0  0  0  0  0
  140.1455   68.6714  228.9775 H   0  0  0  0  0  0  0  0  0  0  0  0
  141.9862   68.2149  226.8054 H   0  0  0  0  0  0  0  0  0  0  0  0
  141.3555   66.6053  227.3228 H   0  0  0  0  0  0  0  0  0  0  0  0
  141.3533   70.4409  224.9249 H   0  0  0  0  0  0  0  0  0  0  0  0
  142.5413   72.4836  225.7902 H   0  0  0  0  0  0  0  0  0  0  0  0
  141.9201   73.4668  227.9665 H   0  0  0  0  0  0  0  0  0  0  0  0
  140.0962   72.4379  229.3372 H   0  0  0  0  0  0  0  0  0  0  0  0
  138.9036   70.4026  228.4837 H   0  0  0  0  0  0  0  0  0  0  0  0
  137.5296   69.2811  225.6885 H   0  0  0  0  0  0  0  0  0  0  0  0
  138.7090   71.5388  225.2286 H   0  0  0  0  0  0  0  0  0  0  0  0
  139.1705   70.8491  223.6703 H   0  0  0  0  0  0  0  0  0  0  0  0
  136.3562   71.2995  224.8315 H   0  0  0  0  0  0  0  0  0  0  0  0
  136.9441   71.7197  223.2081 H   0  0  0  0  0  0  0  0  0  0  0  0
  134.1827   70.9491  223.6325 H   0  0  0  0  0  0  0  0  0  0  0  0
  132.8770   68.4820  223.0110 H   0  0  0  0  0  0  0  0  0  0  0  0
  132.3760   70.0640  222.7600 H   0  0  0  0  0  0  0  0  0  0  0  0
  134.5387   69.0762  225.8380 H   0  0  0  0  0  0  0  0  0  0  0  0
  131.8651   69.2715  225.1574 H   0  0  0  0  0  0  0  0  0  0  0  0
  132.4812   68.7901  226.7329 H   0  0  0  0  0  0  0  0  0  0  0  0
  129.9209   70.6522  226.9488 H   0  0  0  0  0  0  0  0  0  0  0  0
  129.5841   72.9314  227.8074 H   0  0  0  0  0  0  0  0  0  0  0  0
  131.5045   74.5416  227.9083 H   0  0  0  0  0  0  0  0  0  0  0  0
  133.7439   73.7837  227.1317 H   0  0  0  0  0  0  0  0  0  0  0  0
  134.7959   71.8368  225.3561 H   0  0  0  0  0  0  0  0  0  0  0  0
  135.0733   71.0589  226.9071 H   0  0  0  0  0  0  0  0  0  0  0  0
  137.0729   67.8780  222.5957 H   0  0  0  0  0  0  0  0  0  0  0  0
  138.0428   69.3361  222.1157 H   0  0  0  0  0  0  0  0  0  0  0  0
  138.5113   67.3940  224.3087 H   0  0  0  0  0  0  0  0  0  0  0  0
  139.6527   68.4954  223.5279 H   0  0  0  0  0  0  0  0  0  0  0  0
  1  2  1  0
  2  3  1  0
  3  4  2  0
  3  5  1  0
  5  6  1  0
  6  7  2  0
  7  8  1  0
  8  9  2  0
  9 10  1  0
 10 11  2  0
  5 12  1  0
 12 13  1  0
 13 14  1  0
 14 15  1  0
 15 16  1  0
 16 17  2  0
 16 18  1  0
 18 19  1  0
 18 20  1  0
 20 21  1  0
 21 22  1  0
 22 23  2  0
 23 24  1  0
 24 25  2  0
 25 26  1  0
 26 27  2  0
 27 28  1  0
 15 29  1  0
 29 30  1  0
 11  6  1  0
 30 12  1  0
 28 20  1  0
 27 22  1  0
  1 31  1  0
  1 32  1  0
  1 33  1  0
  2 34  1  0
  2 35  1  0
  7 36  1  0
  8 37  1  0
  9 38  1  0
 10 39  1  0
 11 40  1  0
 12 41  1  0
 13 42  1  0
 13 43  1  0
 14 44  1  0
 14 45  1  0
 18 46  1  6
 19 47  1  0
 19 48  1  0
 20 49  1  0
 21 50  1  0
 21 51  1  0
 23 52  1  0
 24 53  1  0
 25 54  1  0
 26 55  1  0
 28 56  1  0
 28 57  1  0
 29 58  1  0
 29 59  1  0
 30 60  1  0
 30 61  1  0
M  END
>  <smiles>  (44) 
CCC(=O)N(c1ccccc1)C1CCN(C(=O)[C@@H](N)C2Cc3ccccc3C2)CC1

>  <score_type>  (44) 
oracle

>  <origin>  (44) 
autodockgpu

>  <m_score__min__energy>  (44) 
-8.75

>  <m_primary>  (44) 
energy

>  <rmsd>  (44) 
12.06701764808598

>  <m_score__min__rmsd>  (44) 
12.06701764808598

>  <meeko>  (44) 
{"free_energy": -8.13, "intermolecular_energy": -10.22, "internal_energy": -2.22, "cluster_size": 1, "cluster_id": 2, "rank_in_cluster": 1}

>  <energy>  (44) 
-6.05

>  <cluster_rmsd>  (44) 
0.55

>  <cluster>  (44) 
11

$$$$

     RDKit          3D

 61 64  0  0  0  0  0  0  0  0999 V2000
  146.3160   73.0870  221.8150 C   0  0  0  0  0  0  0  0  0  0  0  0
  145.7890   73.8720  220.5910 C   0  0  0  0  0  0  0  0  0  0  0  0
  145.1720   72.9680  219.6300 C   0  0  0  0  0  0  0  0  0  0  0  0
  145.6560   72.9830  218.4390 O   0  0  0  0  0  0  0  0  0  0  0  0
  144.1060   72.0650  219.8290 N   0  0  0  0  0  0  0  0  0  0  0  0
  144.4800   70.6660  219.6720 C   0  0  0  0  0  0  0  0  0  0  0  0
  145.8140   70.4810  219.3210 C   0  0  0  0  0  0  0  0  0  0  0  0
  146.2390   69.1610  219.1540 C   0  0  0  0  0  0  0  0  0  0  0  0
  145.3720   68.1050  219.3300 C   0  0  0  0  0  0  0  0  0  0  0  0
  144.0370   68.3430  219.6830 C   0  0  0  0  0  0  0  0  0  0  0  0
  143.5920   69.6520  219.8540 C   0  0  0  0  0  0  0  0  0  0  0  0
  142.7610   72.3280  220.1660 C   0  0  0  0  0  0  0  0  0  0  0  0
  142.4450   73.7000  220.6840 C   0  0  0  0  0  0  0  0  0  0  0  0
  141.1810   73.5230  221.5510 C   0  0  0  0  0  0  0  0  0  0  0  0
  140.3590   72.5440  220.8920 N   0  0  0  0  0  0  0  0  0  0  0  0
  139.4680   71.6540  221.5220 C   0  0  0  0  0  0  0  0  0  0  0  0
  138.8360   70.8260  220.7680 O   0  0  0  0  0  0  0  0  0  0  0  0
  139.1640   71.5530  222.9480 C   0  0  1  0  0  0  0  0  0  0  0  0
  137.8630   71.0210  223.2370 N   0  0  0  0  0  0  0  0  0  0  0  0
  140.1680   70.6910  223.6960 C   0  0  0  0  0  0  0  0  0  0  0  0
  139.5460   69.6210  224.5290 C   0  0  0  0  0  0  0  0  0  0  0  0
  139.7640   70.0750  225.9290 C   0  0  0  0  0  0  0  0  0  0  0  0
  139.2890   69.6300  227.1630 C   0  0  0  0  0  0  0  0  0  0  0  0
  139.6470   70.2360  228.3500 C   0  0  0  0  0  0  0  0  0  0  0  0
  140.5120   71.3320  228.3480 C   0  0  0  0  0  0  0  0  0  0  0  0
  140.9920   71.7830  227.1380 C   0  0  0  0  0  0  0  0  0  0  0  0
  140.6180   71.1580  225.9530 C   0  0  0  0  0  0  0  0  0  0  0  0
  141.0440   71.5210  224.5730 C   0  0  0  0  0  0  0  0  0  0  0  0
  140.4450   72.4890  219.4320 C   0  0  0  0  0  0  0  0  0  0  0  0
  141.8580   72.1440  218.9490 C   0  0  0  0  0  0  0  0  0  0  0  0
  145.9835   73.5823  222.7392 H   0  0  0  0  0  0  0  0  0  0  0  0
  145.9240   72.0596  221.7882 H   0  0  0  0  0  0  0  0  0  0  0  0
  147.4154   73.0608  221.7882 H   0  0  0  0  0  0  0  0  0  0  0  0
  145.0427   74.6071  220.9268 H   0  0  0  0  0  0  0  0  0  0  0  0
  146.6341   74.3826  220.1061 H   0  0  0  0  0  0  0  0  0  0  0  0
  146.4985   71.3308  219.1822 H   0  0  0  0  0  0  0  0  0  0  0  0
  147.2846   68.9611  218.8770 H   0  0  0  0  0  0  0  0  0  0  0  0
  145.7283   67.0733  219.1932 H   0  0  0  0  0  0  0  0  0  0  0  0
  143.3439   67.5006  219.8244 H   0  0  0  0  0  0  0  0  0  0  0  0
  142.5477   69.8605  220.1296 H   0  0  0  0  0  0  0  0  0  0  0  0
  142.5830   71.6110  220.9810 H   0  0  0  0  0  0  0  0  0  0  0  0
  143.2781   74.0848  221.2905 H   0  0  0  0  0  0  0  0  0  0  0  0
  142.2870   74.4213  219.8687 H   0  0  0  0  0  0  0  0  0  0  0  0
  141.4573   73.1710  222.5559 H   0  0  0  0  0  0  0  0  0  0  0  0
  140.6443   74.4763  221.6657 H   0  0  0  0  0  0  0  0  0  0  0  0
  139.2099   72.5983  223.2875 H   0  0  0  0  0  0  0  0  0  0  0  0
  137.3700   70.6300  222.4060 H   0  0  0  0  0  0  0  0  0  0  0  0
  137.2360   71.7310  223.6660 H   0  0  0  0  0  0  0  0  0  0  0  0
  140.7587   70.2015  222.9077 H   0  0  0  0  0  0  0  0  0  0  0  0
  138.4716   69.5317  224.3107 H   0  0  0  0  0  0  0  0  0  0  0  0
  139.9813   68.6296  224.3350 H   0  0  0  0  0  0  0  0  0  0  0  0
  138.6066   68.7677  227.1907 H   0  0  0  0  0  0  0  0  0  0  0  0
  139.2492   69.8540  229.3018 H   0  0  0  0  0  0  0  0  0  0  0  0
  140.8028   71.8228  229.2885 H   0  0  0  0  0  0  0  0  0  0  0  0
  141.6762   72.6438  227.1088 H   0  0  0  0  0  0  0  0  0  0  0  0
  140.8844   72.5927  224.3835 H   0  0  0  0  0  0  0  0  0  0  0  0
  142.1144   71.3379  224.3979 H   0  0  0  0  0  0  0  0  0  0  0  0
  139.7476   71.7218  219.0645 H   0  0  0  0  0  0  0  0  0  0  0  0
  140.1873   73.4841  219.0403 H   0  0  0  0  0  0  0  0  0  0  0  0
  141.8995   71.1040  218.5932 H   0  0  0  0  0  0  0  0  0  0  0  0
  142.1696   72.7825  218.1092 H   0  0  0  0  0  0  0  0  0  0  0  0
  1  2  1  0
  2  3  1  0
  3  4  2  0
  3  5  1  0
  5  6  1  0
  6  7  2  0
  7  8  1  0
  8  9  2  0
  9 10  1  0
 10 11  2  0
  5 12  1  0
 12 13  1  0
 13 14  1  0
 14 15  1  0
 15 16  1  0
 16 17  2  0
 16 18  1  0
 18 19  1  0
 18 20  1  0
 20 21  1  0
 21 22  1  0
 22 23  2  0
 23 24  1  0
 24 25  2  0
 25 26  1  0
 26 27  2  0
 27 28  1  0
 15 29  1  0
 29 30  1  0
 11  6  1  0
 30 12  1  0
 28 20  1  0
 27 22  1  0
  1 31  1  0
  1 32  1  0
  1 33  1  0
  2 34  1  0
  2 35  1  0
  7 36  1  0
  8 37  1  0
  9 38  1  0
 10 39  1  0
 11 40  1  0
 12 41  1  0
 13 42  1  0
 13 43  1  0
 14 44  1  0
 14 45  1  0
 18 46  1  1
 19 47  1  0
 19 48  1  0
 20 49  1  0
 21 50  1  0
 21 51  1  0
 23 52  1  0
 24 53  1  0
 25 54  1  0
 26 55  1  0
 28 56  1  0
 28 57  1  0
 29 58  1  0
 29 59  1  0
 30 60  1  0
 30 61  1  0
M  END
>  <smiles>  (45) 
CCC(=O)N(c1ccccc1)C1CCN(C(=O)[C@@H](N)C2Cc3ccccc3C2)CC1

>  <score_type>  (45) 
oracle

>  <origin>  (45) 
autodockgpu

>  <m_score__min__energy>  (45) 
-8.75

>  <m_primary>  (45) 
energy

>  <rmsd>  (45) 
9.36085882078229

>  <m_score__min__rmsd>  (45) 
9.36085882078229

>  <meeko>  (45) 
{"free_energy": -7.87, "intermolecular_energy": -9.96, "internal_energy": -2.25, "cluster_size": 6, "cluster_id": 3, "rank_in_cluster": 2}

>  <energy>  (45) 
-6.01

>  <cluster_rmsd>  (45) 
0.6

>  <cluster>  (45) 
11

$$$$

     RDKit          3D

 61 64  0  0  0  0  0  0  0  0999 V2000
  136.5550   68.6230  223.1450 C   0  0  0  0  0  0  0  0  0  0  0  0
  137.0460   69.0220  224.5570 C   0  0  0  0  0  0  0  0  0  0  0  0
  138.4830   69.2620  224.5490 C   0  0  0  0  0  0  0  0  0  0  0  0
  139.2360   68.2190  224.5620 O   0  0  0  0  0  0  0  0  0  0  0  0
  139.1700   70.4940  224.5270 N   0  0  0  0  0  0  0  0  0  0  0  0
  139.8900   70.7910  225.7570 C   0  0  0  0  0  0  0  0  0  0  0  0
  139.5750   69.9360  226.8080 C   0  0  0  0  0  0  0  0  0  0  0  0
  140.2320   70.1660  228.0200 C   0  0  0  0  0  0  0  0  0  0  0  0
  141.1420   71.1910  228.1530 C   0  0  0  0  0  0  0  0  0  0  0  0
  141.4250   72.0270  227.0650 C   0  0  0  0  0  0  0  0  0  0  0  0
  140.7810   71.8150  225.8470 C   0  0  0  0  0  0  0  0  0  0  0  0
  139.2620   71.4480  223.4920 C   0  0  0  0  0  0  0  0  0  0  0  0
  140.3670   71.2660  222.4940 C   0  0  0  0  0  0  0  0  0  0  0  0
  140.6510   72.6790  221.9420 C   0  0  0  0  0  0  0  0  0  0  0  0
  139.3830   73.3490  221.8430 N   0  0  0  0  0  0  0  0  0  0  0  0
  139.1680   74.7350  221.9650 C   0  0  0  0  0  0  0  0  0  0  0  0
  137.9540   75.1510  221.8750 O   0  0  0  0  0  0  0  0  0  0  0  0
  140.1680   75.7780  222.1840 C   0  0  1  0  0  0  0  0  0  0  0  0
  141.4500   75.4950  221.6050 N   0  0  0  0  0  0  0  0  0  0  0  0
  139.7280   77.1270  221.6400 C   0  0  0  0  0  0  0  0  0  0  0  0
  140.7860   77.8470  220.8740 C   0  0  0  0  0  0  0  0  0  0  0  0
  141.1740   78.9780  221.7590 C   0  0  0  0  0  0  0  0  0  0  0  0
  142.2080   79.9140  221.7180 C   0  0  0  0  0  0  0  0  0  0  0  0
  142.3560   80.8880  222.6840 C   0  0  0  0  0  0  0  0  0  0  0  0
  141.4570   80.9660  223.7500 C   0  0  0  0  0  0  0  0  0  0  0  0
  140.4290   80.0500  223.8040 C   0  0  0  0  0  0  0  0  0  0  0  0
  140.2980   79.0750  222.8210 C   0  0  0  0  0  0  0  0  0  0  0  0
  139.2510   78.0210  222.7360 C   0  0  0  0  0  0  0  0  0  0  0  0
  138.2160   72.5090  221.5650 C   0  0  0  0  0  0  0  0  0  0  0  0
  137.9780   71.4690  222.6650 C   0  0  0  0  0  0  0  0  0  0  0  0
  135.7041   67.9316  223.2345 H   0  0  0  0  0  0  0  0  0  0  0  0
  136.2395   69.5239  222.5984 H   0  0  0  0  0  0  0  0  0  0  0  0
  137.3723   68.1299  222.5984 H   0  0  0  0  0  0  0  0  0  0  0  0
  136.5277   69.9387  224.8748 H   0  0  0  0  0  0  0  0  0  0  0  0
  136.8265   68.2007  225.2551 H   0  0  0  0  0  0  0  0  0  0  0  0
  138.8461   69.1205  226.6912 H   0  0  0  0  0  0  0  0  0  0  0  0
  140.0185   69.5172  228.8823 H   0  0  0  0  0  0  0  0  0  0  0  0
  141.6480   71.3538  229.1160 H   0  0  0  0  0  0  0  0  0  0  0  0
  142.1514   72.8462  227.1713 H   0  0  0  0  0  0  0  0  0  0  0  0
  140.9882   72.4597  224.9802 H   0  0  0  0  0  0  0  0  0  0  0  0
  139.4619   72.3741  224.0509 H   0  0  0  0  0  0  0  0  0  0  0  0
  141.2633   70.8551  222.9817 H   0  0  0  0  0  0  0  0  0  0  0  0
  140.0885   70.5615  221.6964 H   0  0  0  0  0  0  0  0  0  0  0  0
  141.3160   73.2263  222.6263 H   0  0  0  0  0  0  0  0  0  0  0  0
  141.1476   72.6273  220.9618 H   0  0  0  0  0  0  0  0  0  0  0  0
  140.2646   75.8059  223.2794 H   0  0  0  0  0  0  0  0  0  0  0  0
  141.8840   74.6110  221.9450 H   0  0  0  0  0  0  0  0  0  0  0  0
  142.1330   76.2620  221.7710 H   0  0  0  0  0  0  0  0  0  0  0  0
  138.9097   76.8933  220.9430 H   0  0  0  0  0  0  0  0  0  0  0  0
  141.6461   77.1882  220.6836 H   0  0  0  0  0  0  0  0  0  0  0  0
  140.4347   78.1857  219.8882 H   0  0  0  0  0  0  0  0  0  0  0  0
  142.9289   79.8741  220.8882 H   0  0  0  0  0  0  0  0  0  0  0  0
  143.1860   81.6065  222.6142 H   0  0  0  0  0  0  0  0  0  0  0  0
  141.5667   81.7381  224.5258 H   0  0  0  0  0  0  0  0  0  0  0  0
  139.7057   80.0903  224.6318 H   0  0  0  0  0  0  0  0  0  0  0  0
  139.1732   77.4696  223.6846 H   0  0  0  0  0  0  0  0  0  0  0  0
  138.2498   78.4330  222.5413 H   0  0  0  0  0  0  0  0  0  0  0  0
  137.3269   73.1520  221.4867 H   0  0  0  0  0  0  0  0  0  0  0  0
  138.4034   71.9700  220.6246 H   0  0  0  0  0  0  0  0  0  0  0  0
  137.1221   71.7610  223.2913 H   0  0  0  0  0  0  0  0  0  0  0  0
  137.7460   70.4785  222.2466 H   0  0  0  0  0  0  0  0  0  0  0  0
  1  2  1  0
  2  3  1  0
  3  4  2  0
  3  5  1  0
  5  6  1  0
  6  7  2  0
  7  8  1  0
  8  9  2  0
  9 10  1  0
 10 11  2  0
  5 12  1  0
 12 13  1  0
 13 14  1  0
 14 15  1  0
 15 16  1  0
 16 17  2  0
 16 18  1  0
 18 19  1  0
 18 20  1  0
 20 21  1  0
 21 22  1  0
 22 23  2  0
 23 24  1  0
 24 25  2  0
 25 26  1  0
 26 27  2  0
 27 28  1  0
 15 29  1  0
 29 30  1  0
 11  6  1  0
 30 12  1  0
 28 20  1  0
 27 22  1  0
  1 31  1  0
  1 32  1  0
  1 33  1  0
  2 34  1  0
  2 35  1  0
  7 36  1  0
  8 37  1  0
  9 38  1  0
 10 39  1  0
 11 40  1  0
 12 41  1  0
 13 42  1  0
 13 43  1  0
 14 44  1  0
 14 45  1  0
 18 46  1  1
 19 47  1  0
 19 48  1  0
 20 49  1  0
 21 50  1  0
 21 51  1  0
 23 52  1  0
 24 53  1  0
 25 54  1  0
 26 55  1  0
 28 56  1  0
 28 57  1  0
 29 58  1  0
 29 59  1  0
 30 60  1  0
 30 61  1  0
M  END
>  <smiles>  (46) 
CCC(=O)N(c1ccccc1)C1CCN(C(=O)[C@@H](N)C2Cc3ccccc3C2)CC1

>  <score_type>  (46) 
oracle

>  <origin>  (46) 
autodockgpu

>  <m_score__min__energy>  (46) 
-8.75

>  <m_primary>  (46) 
energy

>  <rmsd>  (46) 
5.724359632428775

>  <m_score__min__rmsd>  (46) 
5.724359632428775

>  <meeko>  (46) 
{"free_energy": -8.73, "intermolecular_energy": -10.82, "internal_energy": -1.36, "cluster_size": 13, "cluster_id": 1, "rank_in_cluster": 4}

>  <energy>  (46) 
-5.93

>  <cluster_rmsd>  (46) 
0.35

>  <cluster>  (46) 
11

$$$$

     RDKit          3D

 61 64  0  0  0  0  0  0  0  0999 V2000
  138.4930   67.7960  222.5080 C   0  0  0  0  0  0  0  0  0  0  0  0
  138.9840   67.9930  223.9620 C   0  0  0  0  0  0  0  0  0  0  0  0
  138.4970   69.2570  224.4990 C   0  0  0  0  0  0  0  0  0  0  0  0
  137.3350   69.2330  225.0500 O   0  0  0  0  0  0  0  0  0  0  0  0
  139.1330   70.5150  224.5020 N   0  0  0  0  0  0  0  0  0  0  0  0
  139.8570   70.8090  225.7310 C   0  0  0  0  0  0  0  0  0  0  0  0
  139.5810   69.9210  226.7660 C   0  0  0  0  0  0  0  0  0  0  0  0
  140.2440   70.1460  227.9760 C   0  0  0  0  0  0  0  0  0  0  0  0
  141.1220   71.1960  228.1230 C   0  0  0  0  0  0  0  0  0  0  0  0
  141.3660   72.0640  227.0500 C   0  0  0  0  0  0  0  0  0  0  0  0
  140.7160   71.8580  225.8350 C   0  0  0  0  0  0  0  0  0  0  0  0
  139.1730   71.5010  223.4920 C   0  0  0  0  0  0  0  0  0  0  0  0
  140.0730   71.2390  222.3210 C   0  0  0  0  0  0  0  0  0  0  0  0
  140.4340   72.6330  221.7690 C   0  0  0  0  0  0  0  0  0  0  0  0
  139.2570   73.4500  221.8990 N   0  0  0  0  0  0  0  0  0  0  0  0
  139.2360   74.8440  222.0930 C   0  0  0  0  0  0  0  0  0  0  0  0
  138.0820   75.4010  222.2160 O   0  0  0  0  0  0  0  0  0  0  0  0
  140.3770   75.7530  222.1710 C   0  0  1  0  0  0  0  0  0  0  0  0
  141.5710   75.2550  221.5480 N   0  0  0  0  0  0  0  0  0  0  0  0
  140.0860   77.1060  221.5450 C   0  0  0  0  0  0  0  0  0  0  0  0
  141.2890   77.7870  220.9820 C   0  0  0  0  0  0  0  0  0  0  0  0
  141.5390   78.9180  221.9150 C   0  0  0  0  0  0  0  0  0  0  0  0
  142.5900   79.8240  222.0600 C   0  0  0  0  0  0  0  0  0  0  0  0
  142.5850   80.8060  223.0280 C   0  0  0  0  0  0  0  0  0  0  0  0
  141.5070   80.9230  223.9080 C   0  0  0  0  0  0  0  0  0  0  0  0
  140.4600   80.0370  223.7780 C   0  0  0  0  0  0  0  0  0  0  0  0
  140.4850   79.0540  222.7950 C   0  0  0  0  0  0  0  0  0  0  0  0
  139.4410   78.0270  222.5260 C   0  0  0  0  0  0  0  0  0  0  0  0
  137.9680   72.7640  221.7950 C   0  0  0  0  0  0  0  0  0  0  0  0
  137.7850   71.7090  222.8900 C   0  0  0  0  0  0  0  0  0  0  0  0
  137.4721   67.3864  222.5180 H   0  0  0  0  0  0  0  0  0  0  0  0
  138.4944   68.7643  221.9861 H   0  0  0  0  0  0  0  0  0  0  0  0
  139.1633   67.0972  221.9861 H   0  0  0  0  0  0  0  0  0  0  0  0
  138.6103   67.1671  224.5852 H   0  0  0  0  0  0  0  0  0  0  0  0
  140.0839   68.0048  223.9672 H   0  0  0  0  0  0  0  0  0  0  0  0
  138.8774   69.0851  226.6387 H   0  0  0  0  0  0  0  0  0  0  0  0
  140.0608   69.4720  228.8258 H   0  0  0  0  0  0  0  0  0  0  0  0
  141.6329   71.3540  229.0842 H   0  0  0  0  0  0  0  0  0  0  0  0
  142.0671   72.9036  227.1665 H   0  0  0  0  0  0  0  0  0  0  0  0
  140.8934   72.5277  224.9806 H   0  0  0  0  0  0  0  0  0  0  0  0
  139.5712   72.3710  224.0347 H   0  0  0  0  0  0  0  0  0  0  0  0
  140.9792   70.7050  222.6428 H   0  0  0  0  0  0  0  0  0  0  0  0
  139.5868   70.6092  221.5614 H   0  0  0  0  0  0  0  0  0  0  0  0
  141.2620   73.0670  222.3488 H   0  0  0  0  0  0  0  0  0  0  0  0
  140.7564   72.5701  220.7192 H   0  0  0  0  0  0  0  0  0  0  0  0
  140.5468   75.8472  223.2537 H   0  0  0  0  0  0  0  0  0  0  0  0
  142.4510   75.6410  221.9490 H   0  0  0  0  0  0  0  0  0  0  0  0
  141.5850   75.4420  220.5260 H   0  0  0  0  0  0  0  0  0  0  0  0
  139.4044   76.8857  220.7102 H   0  0  0  0  0  0  0  0  0  0  0  0
  142.1498   77.1025  220.9594 H   0  0  0  0  0  0  0  0  0  0  0  0
  141.1366   78.1221  219.9454 H   0  0  0  0  0  0  0  0  0  0  0  0
  143.4513   79.7526  221.3795 H   0  0  0  0  0  0  0  0  0  0  0  0
  143.4343   81.5006  223.1074 H   0  0  0  0  0  0  0  0  0  0  0  0
  141.4942   81.7020  224.6845 H   0  0  0  0  0  0  0  0  0  0  0  0
  139.5976   80.1078  224.4572 H   0  0  0  0  0  0  0  0  0  0  0  0
  139.1731   77.4907  223.4483 H   0  0  0  0  0  0  0  0  0  0  0  0
  138.5055   78.4633  222.1458 H   0  0  0  0  0  0  0  0  0  0  0  0
  137.1625   73.5081  221.8817 H   0  0  0  0  0  0  0  0  0  0  0  0
  137.9356   72.2510  220.8225 H   0  0  0  0  0  0  0  0  0  0  0  0
  137.0833   72.0686  223.6569 H   0  0  0  0  0  0  0  0  0  0  0  0
  137.3694   70.7727  222.4893 H   0  0  0  0  0  0  0  0  0  0  0  0
  1  2  1  0
  2  3  1  0
  3  4  2  0
  3  5  1  0
  5  6  1  0
  6  7  2  0
  7  8  1  0
  8  9  2  0
  9 10  1  0
 10 11  2  0
  5 12  1  0
 12 13  1  0
 13 14  1  0
 14 15  1  0
 15 16  1  0
 16 17  2  0
 16 18  1  0
 18 19  1  0
 18 20  1  0
 20 21  1  0
 21 22  1  0
 22 23  2  0
 23 24  1  0
 24 25  2  0
 25 26  1  0
 26 27  2  0
 27 28  1  0
 15 29  1  0
 29 30  1  0
 11  6  1  0
 30 12  1  0
 28 20  1  0
 27 22  1  0
  1 31  1  0
  1 32  1  0
  1 33  1  0
  2 34  1  0
  2 35  1  0
  7 36  1  0
  8 37  1  0
  9 38  1  0
 10 39  1  0
 11 40  1  0
 12 41  1  0
 13 42  1  0
 13 43  1  0
 14 44  1  0
 14 45  1  0
 18 46  1  1
 19 47  1  0
 19 48  1  0
 20 49  1  0
 21 50  1  0
 21 51  1  0
 23 52  1  0
 24 53  1  0
 25 54  1  0
 26 55  1  0
 28 56  1  0
 28 57  1  0
 29 58  1  0
 29 59  1  0
 30 60  1  0
 30 61  1  0
M  END
>  <smiles>  (47) 
CCC(=O)N(c1ccccc1)C1CCN(C(=O)[C@@H](N)C2Cc3ccccc3C2)CC1

>  <score_type>  (47) 
oracle

>  <origin>  (47) 
autodockgpu

>  <m_score__min__energy>  (47) 
-8.75

>  <m_primary>  (47) 
energy

>  <rmsd>  (47) 
5.727333563246661

>  <m_score__min__rmsd>  (47) 
5.727333563246661

>  <meeko>  (47) 
{"free_energy": -8.61, "intermolecular_energy": -10.7, "internal_energy": -1.47, "cluster_size": 13, "cluster_id": 1, "rank_in_cluster": 10}

>  <energy>  (47) 
-5.89

>  <cluster_rmsd>  (47) 
0.66

>  <cluster>  (47) 
11

$$$$

     RDKit          3D

 61 64  0  0  0  0  0  0  0  0999 V2000
  142.7110   82.2670  217.5220 C   0  0  0  0  0  0  0  0  0  0  0  0
  141.7030   81.5940  218.4850 C   0  0  0  0  0  0  0  0  0  0  0  0
  142.2000   80.2950  218.9190 C   0  0  0  0  0  0  0  0  0  0  0  0
  143.1850   79.8080  218.2510 O   0  0  0  0  0  0  0  0  0  0  0  0
  141.7460   79.4910  219.9850 N   0  0  0  0  0  0  0  0  0  0  0  0
  141.8850   80.1120  221.2950 C   0  0  0  0  0  0  0  0  0  0  0  0
  142.2650   79.2230  222.2960 C   0  0  0  0  0  0  0  0  0  0  0  0
  142.4170   79.7540  223.5800 C   0  0  0  0  0  0  0  0  0  0  0  0
  142.1990   81.0910  223.8270 C   0  0  0  0  0  0  0  0  0  0  0  0
  141.8170   81.9470  222.7850 C   0  0  0  0  0  0  0  0  0  0  0  0
  141.6600   81.4380  221.4980 C   0  0  0  0  0  0  0  0  0  0  0  0
  141.1760   78.2000  219.9530 C   0  0  0  0  0  0  0  0  0  0  0  0
  140.2990   77.8720  218.7810 C   0  0  0  0  0  0  0  0  0  0  0  0
  139.3400   76.7750  219.2890 C   0  0  0  0  0  0  0  0  0  0  0  0
  140.1020   75.9320  220.1700 N   0  0  0  0  0  0  0  0  0  0  0  0
  139.5960   75.2160  221.2720 C   0  0  0  0  0  0  0  0  0  0  0  0
  140.4380   74.5340  221.9650 O   0  0  0  0  0  0  0  0  0  0  0  0
  138.2110   75.1480  221.7340 C   0  0  1  0  0  0  0  0  0  0  0  0
  137.8520   73.8960  222.3360 N   0  0  0  0  0  0  0  0  0  0  0  0
  137.8830   76.2330  222.7460 C   0  0  0  0  0  0  0  0  0  0  0  0
  136.5470   76.8680  222.5440 C   0  0  0  0  0  0  0  0  0  0  0  0
  136.8640   78.2330  222.0460 C   0  0  0  0  0  0  0  0  0  0  0  0
  136.0850   79.2610  221.5120 C   0  0  0  0  0  0  0  0  0  0  0  0
  136.6300   80.4640  221.1140 C   0  0  0  0  0  0  0  0  0  0  0  0
  138.0020   80.6920  221.2370 C   0  0  0  0  0  0  0  0  0  0  0  0
  138.7850   79.6880  221.7640 C   0  0  0  0  0  0  0  0  0  0  0  0
  138.2160   78.4820  222.1590 C   0  0  0  0  0  0  0  0  0  0  0  0
  138.9190   77.3060  222.7420 C   0  0  0  0  0  0  0  0  0  0  0  0
  141.5280   75.7910  219.8730 C   0  0  0  0  0  0  0  0  0  0  0  0
  142.2670   77.1320  219.9440 C   0  0  0  0  0  0  0  0  0  0  0  0
  143.4863   82.7846  218.1059 H   0  0  0  0  0  0  0  0  0  0  0  0
  143.1802   81.5003  216.8879 H   0  0  0  0  0  0  0  0  0  0  0  0
  142.1828   82.9942  216.8879 H   0  0  0  0  0  0  0  0  0  0  0  0
  141.5577   82.2382  219.3647 H   0  0  0  0  0  0  0  0  0  0  0  0
  140.7485   81.4511  217.9573 H   0  0  0  0  0  0  0  0  0  0  0  0
  142.4370   78.1567  222.0874 H   0  0  0  0  0  0  0  0  0  0  0  0
  142.7157   79.0929  224.4069 H   0  0  0  0  0  0  0  0  0  0  0  0
  142.3250   81.4884  224.8449 H   0  0  0  0  0  0  0  0  0  0  0  0
  141.6421   83.0149  222.9825 H   0  0  0  0  0  0  0  0  0  0  0  0
  141.3613   82.0925  220.6659 H   0  0  0  0  0  0  0  0  0  0  0  0
  140.5463   78.2042  220.8549 H   0  0  0  0  0  0  0  0  0  0  0  0
  139.7344   78.7602  218.4610 H   0  0  0  0  0  0  0  0  0  0  0  0
  140.8830   77.5374  217.9109 H   0  0  0  0  0  0  0  0  0  0  0  0
  138.4991   77.2296  219.8333 H   0  0  0  0  0  0  0  0  0  0  0  0
  138.9235   76.1962  218.4514 H   0  0  0  0  0  0  0  0  0  0  0  0
  137.6319   75.2827  220.8085 H   0  0  0  0  0  0  0  0  0  0  0  0
  137.1490   73.9780  223.1000 H   0  0  0  0  0  0  0  0  0  0  0  0
  138.6770   73.3970  222.7240 H   0  0  0  0  0  0  0  0  0  0  0  0
  137.8642   75.7137  223.7155 H   0  0  0  0  0  0  0  0  0  0  0  0
  135.9575   76.3092  221.8023 H   0  0  0  0  0  0  0  0  0  0  0  0
  135.9446   76.8843  223.4642 H   0  0  0  0  0  0  0  0  0  0  0  0
  135.0011   79.1066  221.4051 H   0  0  0  0  0  0  0  0  0  0  0  0
  135.9803   81.2479  220.6975 H   0  0  0  0  0  0  0  0  0  0  0  0
  138.4460   81.6477  220.9216 H   0  0  0  0  0  0  0  0  0  0  0  0
  139.8687   79.8416  221.8732 H   0  0  0  0  0  0  0  0  0  0  0  0
  139.7793   77.0168  222.1204 H   0  0  0  0  0  0  0  0  0  0  0  0
  139.3234   77.5083  223.7448 H   0  0  0  0  0  0  0  0  0  0  0  0
  141.9757   75.1002  220.6027 H   0  0  0  0  0  0  0  0  0  0  0  0
  141.6239   75.4052  218.8473 H   0  0  0  0  0  0  0  0  0  0  0  0
  142.8696   77.1905  220.8624 H   0  0  0  0  0  0  0  0  0  0  0  0
  142.9579   77.2621  219.0980 H   0  0  0  0  0  0  0  0  0  0  0  0
  1  2  1  0
  2  3  1  0
  3  4  2  0
  3  5  1  0
  5  6  1  0
  6  7  2  0
  7  8  1  0
  8  9  2  0
  9 10  1  0
 10 11  2  0
  5 12  1  0
 12 13  1  0
 13 14  1  0
 14 15  1  0
 15 16  1  0
 16 17  2  0
 16 18  1  0
 18 19  1  0
 18 20  1  0
 20 21  1  0
 21 22  1  0
 22 23  2  0
 23 24  1  0
 24 25  2  0
 25 26  1  0
 26 27  2  0
 27 28  1  0
 15 29  1  0
 29 30  1  0
 11  6  1  0
 30 12  1  0
 28 20  1  0
 27 22  1  0
  1 31  1  0
  1 32  1  0
  1 33  1  0
  2 34  1  0
  2 35  1  0
  7 36  1  0
  8 37  1  0
  9 38  1  0
 10 39  1  0
 11 40  1  0
 12 41  1  0
 13 42  1  0
 13 43  1  0
 14 44  1  0
 14 45  1  0
 18 46  1  6
 19 47  1  0
 19 48  1  0
 20 49  1  0
 21 50  1  0
 21 51  1  0
 23 52  1  0
 24 53  1  0
 25 54  1  0
 26 55  1  0
 28 56  1  0
 28 57  1  0
 29 58  1  0
 29 59  1  0
 30 60  1  0
 30 61  1  0
M  END
>  <smiles>  (48) 
CCC(=O)N(c1ccccc1)C1CCN(C(=O)[C@@H](N)C2Cc3ccccc3C2)CC1

>  <score_type>  (48) 
oracle

>  <origin>  (48) 
autodockgpu

>  <m_score__min__energy>  (48) 
-8.75

>  <m_primary>  (48) 
energy

>  <rmsd>  (48) 
4.398480956269022

>  <m_score__min__rmsd>  (48) 
4.398480956269022

>  <meeko>  (48) 
{"free_energy": -6.23, "intermolecular_energy": -8.32, "internal_energy": -3.54, "cluster_size": 10, "cluster_id": 11, "rank_in_cluster": 3}

>  <energy>  (48) 
-5.78

>  <cluster_rmsd>  (48) 
0.67

>  <cluster>  (48) 
11

$$$$

     RDKit          3D

 61 64  0  0  0  0  0  0  0  0999 V2000
  143.0470   71.8250  220.7050 C   0  0  0  0  0  0  0  0  0  0  0  0
  141.5030   71.7570  220.7760 C   0  0  0  0  0  0  0  0  0  0  0  0
  140.9730   72.9060  221.4980 C   0  0  0  0  0  0  0  0  0  0  0  0
  140.6970   72.7210  222.7400 O   0  0  0  0  0  0  0  0  0  0  0  0
  140.7230   74.2080  221.0170 N   0  0  0  0  0  0  0  0  0  0  0  0
  139.5200   74.8190  221.5660 C   0  0  0  0  0  0  0  0  0  0  0  0
  138.3740   74.0480  221.3930 C   0  0  0  0  0  0  0  0  0  0  0  0
  137.1830   74.5760  221.8980 C   0  0  0  0  0  0  0  0  0  0  0  0
  137.1580   75.7990  222.5320 C   0  0  0  0  0  0  0  0  0  0  0  0
  138.3390   76.5380  222.6810 C   0  0  0  0  0  0  0  0  0  0  0  0
  139.5380   76.0300  222.1850 C   0  0  0  0  0  0  0  0  0  0  0  0
  141.4690   74.9860  220.1070 C   0  0  0  0  0  0  0  0  0  0  0  0
  142.9450   75.0940  220.3560 C   0  0  0  0  0  0  0  0  0  0  0  0
  143.3680   76.4270  219.7040 C   0  0  0  0  0  0  0  0  0  0  0  0
  142.5950   76.5650  218.5000 N   0  0  0  0  0  0  0  0  0  0  0  0
  142.1900   77.7780  217.9110 C   0  0  0  0  0  0  0  0  0  0  0  0
  141.4760   77.7030  216.8440 O   0  0  0  0  0  0  0  0  0  0  0  0
  142.4860   79.1350  218.3670 C   0  0  1  0  0  0  0  0  0  0  0  0
  142.6620   80.0870  217.3070 N   0  0  0  0  0  0  0  0  0  0  0  0
  141.4060   79.6890  219.2800 C   0  0  0  0  0  0  0  0  0  0  0  0
  141.8290   80.8860  220.0640 C   0  0  0  0  0  0  0  0  0  0  0  0
  141.9450   80.3870  221.4600 C   0  0  0  0  0  0  0  0  0  0  0  0
  142.4550   80.9410  222.6350 C   0  0  0  0  0  0  0  0  0  0  0  0
  142.4470   80.2580  223.8330 C   0  0  0  0  0  0  0  0  0  0  0  0
  141.9190   78.9670  223.9050 C   0  0  0  0  0  0  0  0  0  0  0  0
  141.4100   78.4060  222.7540 C   0  0  0  0  0  0  0  0  0  0  0  0
  141.4280   79.1110  221.5560 C   0  0  0  0  0  0  0  0  0  0  0  0
  140.9210   78.6490  220.2350 C   0  0  0  0  0  0  0  0  0  0  0  0
  142.2190   75.3260  217.8150 C   0  0  0  0  0  0  0  0  0  0  0  0
  141.3440   74.4250  218.6920 C   0  0  0  0  0  0  0  0  0  0  0  0
  143.4605   71.8432  221.7242 H   0  0  0  0  0  0  0  0  0  0  0  0
  143.4287   70.9428  220.1702 H   0  0  0  0  0  0  0  0  0  0  0  0
  143.3496   72.7373  220.1702 H   0  0  0  0  0  0  0  0  0  0  0  0
  141.0938   71.7512  219.7549 H   0  0  0  0  0  0  0  0  0  0  0  0
  141.2120   70.8387  221.3071 H   0  0  0  0  0  0  0  0  0  0  0  0
  138.4045   73.0729  220.8847 H   0  0  0  0  0  0  0  0  0  0  0  0
  136.2491   74.0054  221.7875 H   0  0  0  0  0  0  0  0  0  0  0  0
  136.2091   76.1960  222.9219 H   0  0  0  0  0  0  0  0  0  0  0  0
  138.3198   77.5145  223.1871 H   0  0  0  0  0  0  0  0  0  0  0  0
  140.4761   76.5945  222.2914 H   0  0  0  0  0  0  0  0  0  0  0  0
  141.0292   75.9850  220.2432 H   0  0  0  0  0  0  0  0  0  0  0  0
  143.1541   75.1092  221.4358 H   0  0  0  0  0  0  0  0  0  0  0  0
  143.4964   74.2386  219.9385 H   0  0  0  0  0  0  0  0  0  0  0  0
  143.1596   77.2648  220.3857 H   0  0  0  0  0  0  0  0  0  0  0  0
  144.4457   76.4338  219.4837 H   0  0  0  0  0  0  0  0  0  0  0  0
  143.4368   79.0152  218.9070 H   0  0  0  0  0  0  0  0  0  0  0  0
  142.5220   79.6910  216.3530 H   0  0  0  0  0  0  0  0  0  0  0  0
  143.6050   80.5250  217.3260 H   0  0  0  0  0  0  0  0  0  0  0  0
  140.5992   80.0012  218.6006 H   0  0  0  0  0  0  0  0  0  0  0  0
  142.7965   81.2659  219.7040 H   0  0  0  0  0  0  0  0  0  0  0  0
  141.1187   81.7210  219.9732 H   0  0  0  0  0  0  0  0  0  0  0  0
  142.8774   81.9562  222.6045 H   0  0  0  0  0  0  0  0  0  0  0  0
  142.8585   80.7323  224.7362 H   0  0  0  0  0  0  0  0  0  0  0  0
  141.9097   78.4129  224.8552 H   0  0  0  0  0  0  0  0  0  0  0  0
  140.9858   77.3915  222.7833 H   0  0  0  0  0  0  0  0  0  0  0  0
  141.3339   77.6616  219.9810 H   0  0  0  0  0  0  0  0  0  0  0  0
  139.8272   78.5341  220.2172 H   0  0  0  0  0  0  0  0  0  0  0  0
  141.6618   75.5809  216.9015 H   0  0  0  0  0  0  0  0  0  0  0  0
  143.1420   74.7759  217.5793 H   0  0  0  0  0  0  0  0  0  0  0  0
  140.2973   74.4606  218.3555 H   0  0  0  0  0  0  0  0  0  0  0  0
  141.6618   73.3732  218.6408 H   0  0  0  0  0  0  0  0  0  0  0  0
  1  2  1  0
  2  3  1  0
  3  4  2  0
  3  5  1  0
  5  6  1  0
  6  7  2  0
  7  8  1  0
  8  9  2  0
  9 10  1  0
 10 11  2  0
  5 12  1  0
 12 13  1  0
 13 14  1  0
 14 15  1  0
 15 16  1  0
 16 17  2  0
 16 18  1  0
 18 19  1  0
 18 20  1  0
 20 21  1  0
 21 22  1  0
 22 23  2  0
 23 24  1  0
 24 25  2  0
 25 26  1  0
 26 27  2  0
 27 28  1  0
 15 29  1  0
 29 30  1  0
 11  6  1  0
 30 12  1  0
 28 20  1  0
 27 22  1  0
  1 31  1  0
  1 32  1  0
  1 33  1  0
  2 34  1  0
  2 35  1  0
  7 36  1  0
  8 37  1  0
  9 38  1  0
 10 39  1  0
 11 40  1  0
 12 41  1  0
 13 42  1  0
 13 43  1  0
 14 44  1  0
 14 45  1  0
 18 46  1  1
 19 47  1  0
 19 48  1  0
 20 49  1  0
 21 50  1  0
 21 51  1  0
 23 52  1  0
 24 53  1  0
 25 54  1  0
 26 55  1  0
 28 56  1  0
 28 57  1  0
 29 58  1  0
 29 59  1  0
 30 60  1  0
 30 61  1  0
M  END
>  <smiles>  (49) 
CCC(=O)N(c1ccccc1)C1CCN(C(=O)[C@@H](N)C2Cc3ccccc3C2)CC1

>  <score_type>  (49) 
oracle

>  <origin>  (49) 
autodockgpu

>  <m_score__min__energy>  (49) 
-8.75

>  <m_primary>  (49) 
energy

>  <rmsd>  (49) 
3.9939969865835137

>  <m_score__min__rmsd>  (49) 
3.9939969865835137

>  <meeko>  (49) 
{"free_energy": -7.05, "intermolecular_energy": -9.14, "internal_energy": -3.05, "cluster_size": 10, "cluster_id": 7, "rank_in_cluster": 4}

>  <energy>  (49) 
-5.64

>  <cluster_rmsd>  (49) 
0.0

>  <cluster>  (49) 
12

$$$$

     RDKit          3D

 61 64  0  0  0  0  0  0  0  0999 V2000
  143.0710   71.7830  220.7920 C   0  0  0  0  0  0  0  0  0  0  0  0
  141.5250   71.7220  220.7980 C   0  0  0  0  0  0  0  0  0  0  0  0
  140.9720   72.8600  221.5200 C   0  0  0  0  0  0  0  0  0  0  0  0
  140.6810   72.6640  222.7570 O   0  0  0  0  0  0  0  0  0  0  0  0
  140.7110   74.1620  221.0450 N   0  0  0  0  0  0  0  0  0  0  0  0
  139.5010   74.7600  221.5930 C   0  0  0  0  0  0  0  0  0  0  0  0
  138.3620   73.9820  221.4090 C   0  0  0  0  0  0  0  0  0  0  0  0
  137.1650   74.4980  221.9120 C   0  0  0  0  0  0  0  0  0  0  0  0
  137.1280   75.7160  222.5540 C   0  0  0  0  0  0  0  0  0  0  0  0
  138.3030   76.4630  222.7140 C   0  0  0  0  0  0  0  0  0  0  0  0
  139.5080   75.9670  222.2200 C   0  0  0  0  0  0  0  0  0  0  0  0
  141.4540   74.9500  220.1400 C   0  0  0  0  0  0  0  0  0  0  0  0
  142.9350   75.0310  220.3660 C   0  0  0  0  0  0  0  0  0  0  0  0
  143.3670   76.3730  219.7390 C   0  0  0  0  0  0  0  0  0  0  0  0
  142.5760   76.5500  218.5510 N   0  0  0  0  0  0  0  0  0  0  0  0
  142.1800   77.7830  217.9980 C   0  0  0  0  0  0  0  0  0  0  0  0
  141.4470   77.7430  216.9420 O   0  0  0  0  0  0  0  0  0  0  0  0
  142.5030   79.1240  218.4800 C   0  0  1  0  0  0  0  0  0  0  0  0
  142.7270   80.0860  217.4390 N   0  0  0  0  0  0  0  0  0  0  0  0
  141.4200   79.6940  219.3810 C   0  0  0  0  0  0  0  0  0  0  0  0
  141.8580   80.8730  220.1840 C   0  0  0  0  0  0  0  0  0  0  0  0
  141.9380   80.3570  221.5770 C   0  0  0  0  0  0  0  0  0  0  0  0
  142.4400   80.8870  222.7660 C   0  0  0  0  0  0  0  0  0  0  0  0
  142.3960   80.1920  223.9570 C   0  0  0  0  0  0  0  0  0  0  0  0
  141.8360   78.9140  224.0060 C   0  0  0  0  0  0  0  0  0  0  0  0
  141.3340   78.3760  222.8410 C   0  0  0  0  0  0  0  0  0  0  0  0
  141.3890   79.0930  221.6510 C   0  0  0  0  0  0  0  0  0  0  0  0
  140.8950   78.6570  220.3160 C   0  0  0  0  0  0  0  0  0  0  0  0
  142.1710   75.3340  217.8450 C   0  0  0  0  0  0  0  0  0  0  0  0
  141.2970   74.4250  218.7150 C   0  0  0  0  0  0  0  0  0  0  0  0
  143.4414   71.7976  221.8277 H   0  0  0  0  0  0  0  0  0  0  0  0
  143.4708   70.8999  220.2720 H   0  0  0  0  0  0  0  0  0  0  0  0
  143.4000   72.6948  220.2720 H   0  0  0  0  0  0  0  0  0  0  0  0
  141.1581   71.7383  219.7611 H   0  0  0  0  0  0  0  0  0  0  0  0
  141.2076   70.7952  221.2982 H   0  0  0  0  0  0  0  0  0  0  0  0
  138.4020   73.0108  220.8941 H   0  0  0  0  0  0  0  0  0  0  0  0
  136.2358   73.9214  221.7932 H   0  0  0  0  0  0  0  0  0  0  0  0
  136.1743   76.1032  222.9419 H   0  0  0  0  0  0  0  0  0  0  0  0
  138.2742   77.4357  223.2268 H   0  0  0  0  0  0  0  0  0  0  0  0
  140.4416   76.5374  222.3343 H   0  0  0  0  0  0  0  0  0  0  0  0
  141.0314   75.9517  220.3071 H   0  0  0  0  0  0  0  0  0  0  0  0
  143.1623   75.0171  221.4422 H   0  0  0  0  0  0  0  0  0  0  0  0
  143.4665   74.1781  219.9186 H   0  0  0  0  0  0  0  0  0  0  0  0
  143.1819   77.1972  220.4436 H   0  0  0  0  0  0  0  0  0  0  0  0
  144.4410   76.3702  219.5014 H   0  0  0  0  0  0  0  0  0  0  0  0
  143.4392   78.9703  219.0367 H   0  0  0  0  0  0  0  0  0  0  0  0
  142.5840   79.7120  216.4770 H   0  0  0  0  0  0  0  0  0  0  0  0
  143.6840   80.4900  217.4770 H   0  0  0  0  0  0  0  0  0  0  0  0
  140.6319   80.0315  218.6918 H   0  0  0  0  0  0  0  0  0  0  0  0
  142.8404   81.2330  219.8444 H   0  0  0  0  0  0  0  0  0  0  0  0
  141.1698   81.7259  220.0897 H   0  0  0  0  0  0  0  0  0  0  0  0
  142.8858   81.8926  222.7534 H   0  0  0  0  0  0  0  0  0  0  0  0
  142.8038   80.6467  224.8718 H   0  0  0  0  0  0  0  0  0  0  0  0
  141.7966   78.3511  224.9502 H   0  0  0  0  0  0  0  0  0  0  0  0
  140.8862   77.3713  222.8525 H   0  0  0  0  0  0  0  0  0  0  0  0
  141.2893   77.6629  220.0587 H   0  0  0  0  0  0  0  0  0  0  0  0
  139.7992   78.5684  220.2781 H   0  0  0  0  0  0  0  0  0  0  0  0
  141.6029   75.6181  216.9469 H   0  0  0  0  0  0  0  0  0  0  0  0
  143.0820   74.7763  217.5820 H   0  0  0  0  0  0  0  0  0  0  0  0
  140.2455   74.4840  218.3973 H   0  0  0  0  0  0  0  0  0  0  0  0
  141.5978   73.3701  218.6334 H   0  0  0  0  0  0  0  0  0  0  0  0
  1  2  1  0
  2  3  1  0
  3  4  2  0
  3  5  1  0
  5  6  1  0
  6  7  2  0
  7  8  1  0
  8  9  2  0
  9 10  1  0
 10 11  2  0
  5 12  1  0
 12 13  1  0
 13 14  1  0
 14 15  1  0
 15 16  1  0
 16 17  2  0
 16 18  1  0
 18 19  1  0
 18 20  1  0
 20 21  1  0
 21 22  1  0
 22 23  2  0
 23 24  1  0
 24 25  2  0
 25 26  1  0
 26 27  2  0
 27 28  1  0
 15 29  1  0
 29 30  1  0
 11  6  1  0
 30 12  1  0
 28 20  1  0
 27 22  1  0
  1 31  1  0
  1 32  1  0
  1 33  1  0
  2 34  1  0
  2 35  1  0
  7 36  1  0
  8 37  1  0
  9 38  1  0
 10 39  1  0
 11 40  1  0
 12 41  1  0
 13 42  1  0
 13 43  1  0
 14 44  1  0
 14 45  1  0
 18 46  1  1
 19 47  1  0
 19 48  1  0
 20 49  1  0
 21 50  1  0
 21 51  1  0
 23 52  1  0
 24 53  1  0
 25 54  1  0
 26 55  1  0
 28 56  1  0
 28 57  1  0
 29 58  1  0
 29 59  1  0
 30 60  1  0
 30 61  1  0
M  END
>  <smiles>  (50) 
CCC(=O)N(c1ccccc1)C1CCN(C(=O)[C@@H](N)C2Cc3ccccc3C2)CC1

>  <score_type>  (50) 
oracle

>  <origin>  (50) 
autodockgpu

>  <m_score__min__energy>  (50) 
-8.75

>  <m_primary>  (50) 
energy

>  <rmsd>  (50) 
3.9915996211072637

>  <m_score__min__rmsd>  (50) 
3.9915996211072637

>  <meeko>  (50) 
{"free_energy": -7.09, "intermolecular_energy": -9.17, "internal_energy": -3.01, "cluster_size": 10, "cluster_id": 7, "rank_in_cluster": 1}

>  <energy>  (50) 
-5.56

>  <cluster_rmsd>  (50) 
0.0

>  <cluster>  (50) 
13

$$$$
