
     RDKit          3D

 51 54  0  0  0  0  0  0  0  0999 V2000
  140.3880   71.9130  221.0370 O   0  0  0  0  0  0  0  0  0  0  0  0
  140.0390   72.3640  222.1710 C   0  0  0  0  0  0  0  0  0  0  0  0
  139.6780   73.7390  222.3460 N   0  0  0  0  0  0  0  0  0  0  0  0
  139.6970   74.6740  221.2360 C   0  0  0  0  0  0  0  0  0  0  0  0
  139.4580   76.0330  221.7430 C   0  0  0  0  0  0  0  0  0  0  0  0
  138.7560   76.2270  222.7580 O   0  0  0  0  0  0  0  0  0  0  0  0
  140.0380   77.1210  221.0600 N   0  0  0  0  0  0  0  0  0  0  0  0
  139.2580   78.0590  220.2670 C   0  0  0  0  0  0  0  0  0  0  0  0
  139.7210   77.9240  218.8500 C   0  0  0  0  0  0  0  0  0  0  0  0
  141.1860   77.8970  218.6350 C   0  0  0  0  0  0  0  0  0  0  0  0
  141.6290   79.1580  218.2840 F   0  0  0  0  0  0  0  0  0  0  0  0
  141.4150   77.1180  217.4890 F   0  0  0  0  0  0  0  0  0  0  0  0
  142.0130   77.2980  219.7240 C   0  0  0  0  0  0  0  0  0  0  0  0
  141.4870   77.3900  221.0990 C   0  0  1  0  0  0  0  0  0  0  0  0
  141.6520   78.6880  221.7810 C   0  0  0  0  0  0  0  0  0  0  0  0
  141.8260   79.8940  221.1470 C   0  0  0  0  0  0  0  0  0  0  0  0
  141.9670   81.0440  221.9280 C   0  0  0  0  0  0  0  0  0  0  0  0
  141.9400   81.0160  223.2930 C   0  0  0  0  0  0  0  0  0  0  0  0
  141.7670   79.8100  223.9180 C   0  0  0  0  0  0  0  0  0  0  0  0
  141.6260   78.6720  223.1730 C   0  0  0  0  0  0  0  0  0  0  0  0
  139.9980   71.4680  223.3450 C   0  0  0  0  0  0  0  0  0  0  0  0
  139.5690   70.1790  223.2120 C   0  0  0  0  0  0  0  0  0  0  0  0
  139.5160   69.3030  224.3000 C   0  0  0  0  0  0  0  0  0  0  0  0
  139.9230   69.8060  225.5320 C   0  0  0  0  0  0  0  0  0  0  0  0
  139.8900   68.9770  226.6450 C   0  0  0  0  0  0  0  0  0  0  0  0
  140.2960   69.4920  227.8570 C   0  0  0  0  0  0  0  0  0  0  0  0
  140.2670   68.6870  228.9500 F   0  0  0  0  0  0  0  0  0  0  0  0
  140.7280   70.7910  227.9850 C   0  0  0  0  0  0  0  0  0  0  0  0
  140.7670   71.6340  226.8830 C   0  0  0  0  0  0  0  0  0  0  0  0
  140.3600   71.1260  225.6590 C   0  0  0  0  0  0  0  0  0  0  0  0
  140.3870   71.9220  224.5670 N   0  0  0  0  0  0  0  0  0  0  0  0
  139.3980   74.0360  223.3280 H   0  0  0  0  0  0  0  0  0  0  0  0
  140.6773   74.6343  220.7385 H   0  0  0  0  0  0  0  0  0  0  0  0
  138.9114   74.4059  220.5142 H   0  0  0  0  0  0  0  0  0  0  0  0
  138.1876   77.8163  220.3395 H   0  0  0  0  0  0  0  0  0  0  0  0
  139.3956   79.0886  220.6288 H   0  0  0  0  0  0  0  0  0  0  0  0
  139.3069   76.9864  218.4507 H   0  0  0  0  0  0  0  0  0  0  0  0
  139.3678   78.8322  218.3397 H   0  0  0  0  0  0  0  0  0  0  0  0
  142.1444   76.2311  219.4908 H   0  0  0  0  0  0  0  0  0  0  0  0
  142.9394   77.8909  219.7349 H   0  0  0  0  0  0  0  0  0  0  0  0
  142.0789   76.6596  221.6701 H   0  0  0  0  0  0  0  0  0  0  0  0
  141.8537   79.9531  220.0489 H   0  0  0  0  0  0  0  0  0  0  0  0
  142.1054   82.0112  221.4227 H   0  0  0  0  0  0  0  0  0  0  0  0
  142.0546   81.9410  223.8771 H   0  0  0  0  0  0  0  0  0  0  0  0
  141.7415   79.7567  225.0164 H   0  0  0  0  0  0  0  0  0  0  0  0
  141.4874   77.7115  223.6909 H   0  0  0  0  0  0  0  0  0  0  0  0
  139.2561   69.8194  222.2206 H   0  0  0  0  0  0  0  0  0  0  0  0
  139.1690   68.2652  224.1877 H   0  0  0  0  0  0  0  0  0  0  0  0
  139.5482   67.9348  226.5615 H   0  0  0  0  0  0  0  0  0  0  0  0
  141.0455   71.1655  228.9694 H   0  0  0  0  0  0  0  0  0  0  0  0
  141.1107   72.6746  226.9781 H   0  0  0  0  0  0  0  0  0  0  0  0
  1  2  2  0
  2  3  1  0
  3  4  1  0
  4  5  1  0
  5  6  2  0
  5  7  1  0
  7  8  1  0
  8  9  1  0
  9 10  1  0
 10 11  1  0
 10 12  1  0
 10 13  1  0
 13 14  1  0
 14 15  1  0
 15 16  2  0
 16 17  1  0
 17 18  2  0
 18 19  1  0
 19 20  2  0
  2 21  1  0
 21 22  2  0
 22 23  1  0
 23 24  2  0
 24 25  1  0
 25 26  2  0
 26 27  1  0
 26 28  1  0
 28 29  2  0
 29 30  1  0
 30 31  2  0
 14  7  1  0
 20 15  1  0
 31 21  1  0
 30 24  1  0
  3 32  1  0
  4 33  1  0
  4 34  1  0
  8 35  1  0
  8 36  1  0
  9 37  1  0
  9 38  1  0
 13 39  1  0
 13 40  1  0
 14 41  1  1
 16 42  1  0
 17 43  1  0
 18 44  1  0
 19 45  1  0
 20 46  1  0
 22 47  1  0
 23 48  1  0
 25 49  1  0
 28 50  1  0
 29 51  1  0
M  END
>  <smiles>  (1) 
O=C(NCC(=O)N1CCC(F)(F)C[C@H]1c1ccccc1)c1ccc2cc(F)ccc2n1

>  <score_type>  (1) 
oracle

>  <origin>  (1) 
autodockgpu

>  <m_score__min__energy>  (1) 
-9.0099999999999998

>  <m_primary>  (1) 
energy

>  <rmsd>  (1) 
1.9436064508119604

>  <m_score__min__rmsd>  (1) 
1.9436064508119604

>  <meeko>  (1) 
{"free_energy": -8.54, "intermolecular_energy": -10.03, "internal_energy": -1.86, "cluster_size": 45, "cluster_id": 1, "rank_in_cluster": 38}

>  <energy>  (1) 
-9.01

>  <cluster_rmsd>  (1) 
0.0

>  <cluster>  (1) 
1

$$$$

     RDKit          3D

 51 54  0  0  0  0  0  0  0  0999 V2000
  141.4230   72.6770  221.8530 O   0  0  0  0  0  0  0  0  0  0  0  0
  140.3630   72.6880  222.5500 C   0  0  0  0  0  0  0  0  0  0  0  0
  139.3440   73.6720  222.3410 N   0  0  0  0  0  0  0  0  0  0  0  0
  139.4810   74.6990  221.3240 C   0  0  0  0  0  0  0  0  0  0  0  0
  138.9500   75.9680  221.8420 C   0  0  0  0  0  0  0  0  0  0  0  0
  138.0290   75.9840  222.6860 O   0  0  0  0  0  0  0  0  0  0  0  0
  139.5010   77.1760  221.3670 N   0  0  0  0  0  0  0  0  0  0  0  0
  138.6930   78.3530  221.0870 C   0  0  0  0  0  0  0  0  0  0  0  0
  138.8100   78.6250  219.6190 C   0  0  0  0  0  0  0  0  0  0  0  0
  140.1760   78.5770  219.0480 C   0  0  0  0  0  0  0  0  0  0  0  0
  140.6890   79.8570  218.9630 F   0  0  0  0  0  0  0  0  0  0  0  0
  140.0440   78.1680  217.7110 F   0  0  0  0  0  0  0  0  0  0  0  0
  141.1380   77.6310  219.6860 C   0  0  0  0  0  0  0  0  0  0  0  0
  140.9450   77.3350  221.1180 C   0  0  1  0  0  0  0  0  0  0  0  0
  141.4220   78.3550  222.0700 C   0  0  0  0  0  0  0  0  0  0  0  0
  141.3220   78.2640  223.4370 C   0  0  0  0  0  0  0  0  0  0  0  0
  141.8220   79.3130  224.2140 C   0  0  0  0  0  0  0  0  0  0  0  0
  142.4050   80.4210  223.6700 C   0  0  0  0  0  0  0  0  0  0  0  0
  142.5010   80.5050  222.3060 C   0  0  0  0  0  0  0  0  0  0  0  0
  142.0180   79.4910  221.5270 C   0  0  0  0  0  0  0  0  0  0  0  0
  140.1570   71.6720  223.6030 C   0  0  0  0  0  0  0  0  0  0  0  0
  139.4200   70.5530  223.3450 C   0  0  0  0  0  0  0  0  0  0  0  0
  139.2040   69.5710  224.3170 C   0  0  0  0  0  0  0  0  0  0  0  0
  139.7780   69.7860  225.5660 C   0  0  0  0  0  0  0  0  0  0  0  0
  139.5940   68.8410  226.5660 C   0  0  0  0  0  0  0  0  0  0  0  0
  140.1690   69.0720  227.7980 C   0  0  0  0  0  0  0  0  0  0  0  0
  139.9940   68.1520  228.7810 F   0  0  0  0  0  0  0  0  0  0  0  0
  140.9100   70.2010  228.0520 C   0  0  0  0  0  0  0  0  0  0  0  0
  141.1050   71.1560  227.0630 C   0  0  0  0  0  0  0  0  0  0  0  0
  140.5300   70.9340  225.8220 C   0  0  0  0  0  0  0  0  0  0  0  0
  140.7010   71.8460  224.8380 N   0  0  0  0  0  0  0  0  0  0  0  0
  138.4870   73.6100  222.9670 H   0  0  0  0  0  0  0  0  0  0  0  0
  140.5434   74.8226  221.0671 H   0  0  0  0  0  0  0  0  0  0  0  0
  138.9208   74.4044  220.4244 H   0  0  0  0  0  0  0  0  0  0  0  0
  137.6429   78.1625  221.3534 H   0  0  0  0  0  0  0  0  0  0  0  0
  139.0391   79.2158  221.6750 H   0  0  0  0  0  0  0  0  0  0  0  0
  138.1997   77.8780  219.0904 H   0  0  0  0  0  0  0  0  0  0  0  0
  138.4736   79.6639  219.4862 H   0  0  0  0  0  0  0  0  0  0  0  0
  141.0759   76.6780  219.1401 H   0  0  0  0  0  0  0  0  0  0  0  0
  142.1124   78.1384  219.6308 H   0  0  0  0  0  0  0  0  0  0  0  0
  141.5488   76.4333  221.2976 H   0  0  0  0  0  0  0  0  0  0  0  0
  140.8588   77.3853  223.9097 H   0  0  0  0  0  0  0  0  0  0  0  0
  141.7424   79.2427  225.3089 H   0  0  0  0  0  0  0  0  0  0  0  0
  142.7888   81.2276  224.3119 H   0  0  0  0  0  0  0  0  0  0  0  0
  142.9655   81.3860  221.8390 H   0  0  0  0  0  0  0  0  0  0  0  0
  142.1029   79.5749  220.4335 H   0  0  0  0  0  0  0  0  0  0  0  0
  138.9834   70.4196  222.3442 H   0  0  0  0  0  0  0  0  0  0  0  0
  138.6084   68.6711  224.1041 H   0  0  0  0  0  0  0  0  0  0  0  0
  139.0045   67.9310  226.3804 H   0  0  0  0  0  0  0  0  0  0  0  0
  141.3528   70.3496  229.0479 H   0  0  0  0  0  0  0  0  0  0  0  0
  141.6981   72.0615  227.2588 H   0  0  0  0  0  0  0  0  0  0  0  0
  1  2  2  0
  2  3  1  0
  3  4  1  0
  4  5  1  0
  5  6  2  0
  5  7  1  0
  7  8  1  0
  8  9  1  0
  9 10  1  0
 10 11  1  0
 10 12  1  0
 10 13  1  0
 13 14  1  0
 14 15  1  0
 15 16  2  0
 16 17  1  0
 17 18  2  0
 18 19  1  0
 19 20  2  0
  2 21  1  0
 21 22  2  0
 22 23  1  0
 23 24  2  0
 24 25  1  0
 25 26  2  0
 26 27  1  0
 26 28  1  0
 28 29  2  0
 29 30  1  0
 30 31  2  0
 14  7  1  0
 20 15  1  0
 31 21  1  0
 30 24  1  0
  3 32  1  0
  4 33  1  0
  4 34  1  0
  8 35  1  0
  8 36  1  0
  9 37  1  0
  9 38  1  0
 13 39  1  0
 13 40  1  0
 14 41  1  1
 16 42  1  0
 17 43  1  0
 18 44  1  0
 19 45  1  0
 20 46  1  0
 22 47  1  0
 23 48  1  0
 25 49  1  0
 28 50  1  0
 29 51  1  0
M  END
>  <smiles>  (2) 
O=C(NCC(=O)N1CCC(F)(F)C[C@H]1c1ccccc1)c1ccc2cc(F)ccc2n1

>  <score_type>  (2) 
oracle

>  <origin>  (2) 
autodockgpu

>  <m_score__min__energy>  (2) 
-9.0099999999999998

>  <m_primary>  (2) 
energy

>  <rmsd>  (2) 
2.2621434575408506

>  <m_score__min__rmsd>  (2) 
2.2621434575408506

>  <meeko>  (2) 
{"free_energy": -8.63, "intermolecular_energy": -10.13, "internal_energy": -1.65, "cluster_size": 45, "cluster_id": 1, "rank_in_cluster": 33}

>  <energy>  (2) 
-8.98

>  <cluster_rmsd>  (2) 
0.42

>  <cluster>  (2) 
1

$$$$

     RDKit          3D

 51 54  0  0  0  0  0  0  0  0999 V2000
  141.1170   72.3990  221.6430 O   0  0  0  0  0  0  0  0  0  0  0  0
  140.1660   72.5180  222.4750 C   0  0  0  0  0  0  0  0  0  0  0  0
  139.1940   73.5630  222.3490 N   0  0  0  0  0  0  0  0  0  0  0  0
  139.2550   74.5270  221.2670 C   0  0  0  0  0  0  0  0  0  0  0  0
  140.3410   75.4830  221.5290 C   0  0  0  0  0  0  0  0  0  0  0  0
  141.4450   75.0970  221.9690 O   0  0  0  0  0  0  0  0  0  0  0  0
  140.1150   76.8510  221.2730 N   0  0  0  0  0  0  0  0  0  0  0  0
  138.8500   77.5070  221.5660 C   0  0  0  0  0  0  0  0  0  0  0  0
  138.2830   77.9660  220.2580 C   0  0  0  0  0  0  0  0  0  0  0  0
  139.2200   78.6560  219.3410 C   0  0  0  0  0  0  0  0  0  0  0  0
  139.0790   80.0240  219.4740 F   0  0  0  0  0  0  0  0  0  0  0  0
  138.7810   78.3890  218.0330 F   0  0  0  0  0  0  0  0  0  0  0  0
  140.6510   78.2340  219.3990 C   0  0  0  0  0  0  0  0  0  0  0  0
  141.1510   77.7210  220.6880 C   0  0  1  0  0  0  0  0  0  0  0  0
  141.4770   78.7290  221.7150 C   0  0  0  0  0  0  0  0  0  0  0  0
  141.7770   80.0440  221.4600 C   0  0  0  0  0  0  0  0  0  0  0  0
  142.0650   80.8850  222.5380 C   0  0  0  0  0  0  0  0  0  0  0  0
  142.0610   80.4500  223.8330 C   0  0  0  0  0  0  0  0  0  0  0  0
  141.7620   79.1360  224.0800 C   0  0  0  0  0  0  0  0  0  0  0  0
  141.4770   78.2970  223.0380 C   0  0  0  0  0  0  0  0  0  0  0  0
  140.0430   71.5710  223.6020 C   0  0  0  0  0  0  0  0  0  0  0  0
  139.3950   70.3820  223.4340 C   0  0  0  0  0  0  0  0  0  0  0  0
  139.2590   69.4620  224.4780 C   0  0  0  0  0  0  0  0  0  0  0  0
  139.8170   69.8140  225.7030 C   0  0  0  0  0  0  0  0  0  0  0  0
  139.7100   68.9340  226.7720 C   0  0  0  0  0  0  0  0  0  0  0  0
  140.2690   69.3000  227.9780 C   0  0  0  0  0  0  0  0  0  0  0  0
  140.1680   68.4450  229.0280 F   0  0  0  0  0  0  0  0  0  0  0  0
  140.9210   70.4990  228.1410 C   0  0  0  0  0  0  0  0  0  0  0  0
  141.0370   71.3890  227.0830 C   0  0  0  0  0  0  0  0  0  0  0  0
  140.4790   71.0320  225.8660 C   0  0  0  0  0  0  0  0  0  0  0  0
  140.5750   71.8790  224.8160 N   0  0  0  0  0  0  0  0  0  0  0  0
  138.4300   73.5920  223.0880 H   0  0  0  0  0  0  0  0  0  0  0  0
  139.4470   74.0035  220.3188 H   0  0  0  0  0  0  0  0  0  0  0  0
  138.2983   75.0655  221.1987 H   0  0  0  0  0  0  0  0  0  0  0  0
  138.1604   76.7994  222.0495 H   0  0  0  0  0  0  0  0  0  0  0  0
  138.9965   78.3556  222.2504 H   0  0  0  0  0  0  0  0  0  0  0  0
  137.8917   77.0816  219.7338 H   0  0  0  0  0  0  0  0  0  0  0  0
  137.5208   78.7159  220.5164 H   0  0  0  0  0  0  0  0  0  0  0  0
  140.7927   77.4410  218.6499 H   0  0  0  0  0  0  0  0  0  0  0  0
  141.2254   79.1545  219.2183 H   0  0  0  0  0  0  0  0  0  0  0  0
  142.0945   77.2145  220.4365 H   0  0  0  0  0  0  0  0  0  0  0  0
  141.7904   80.4275  220.4291 H   0  0  0  0  0  0  0  0  0  0  0  0
  142.3045   81.9394  222.3359 H   0  0  0  0  0  0  0  0  0  0  0  0
  142.2926   81.1390  224.6586 H   0  0  0  0  0  0  0  0  0  0  0  0
  141.7511   78.7571  225.1126 H   0  0  0  0  0  0  0  0  0  0  0  0
  141.2397   77.2447  223.2531 H   0  0  0  0  0  0  0  0  0  0  0  0
  138.9676   70.1405  222.4496 H   0  0  0  0  0  0  0  0  0  0  0  0
  138.7354   68.5048  224.3375 H   0  0  0  0  0  0  0  0  0  0  0  0
  139.1926   67.9698  226.6594 H   0  0  0  0  0  0  0  0  0  0  0  0
  141.3547   70.7552  229.1189 H   0  0  0  0  0  0  0  0  0  0  0  0
  141.5570   72.3504  227.2068 H   0  0  0  0  0  0  0  0  0  0  0  0
  1  2  2  0
  2  3  1  0
  3  4  1  0
  4  5  1  0
  5  6  2  0
  5  7  1  0
  7  8  1  0
  8  9  1  0
  9 10  1  0
 10 11  1  0
 10 12  1  0
 10 13  1  0
 13 14  1  0
 14 15  1  0
 15 16  2  0
 16 17  1  0
 17 18  2  0
 18 19  1  0
 19 20  2  0
  2 21  1  0
 21 22  2  0
 22 23  1  0
 23 24  2  0
 24 25  1  0
 25 26  2  0
 26 27  1  0
 26 28  1  0
 28 29  2  0
 29 30  1  0
 30 31  2  0
 14  7  1  0
 20 15  1  0
 31 21  1  0
 30 24  1  0
  3 32  1  0
  4 33  1  0
  4 34  1  0
  8 35  1  0
  8 36  1  0
  9 37  1  0
  9 38  1  0
 13 39  1  0
 13 40  1  0
 14 41  1  6
 16 42  1  0
 17 43  1  0
 18 44  1  0
 19 45  1  0
 20 46  1  0
 22 47  1  0
 23 48  1  0
 25 49  1  0
 28 50  1  0
 29 51  1  0
M  END
>  <smiles>  (3) 
O=C(NCC(=O)N1CCC(F)(F)C[C@H]1c1ccccc1)c1ccc2cc(F)ccc2n1

>  <score_type>  (3) 
oracle

>  <origin>  (3) 
autodockgpu

>  <m_score__min__energy>  (3) 
-9.0099999999999998

>  <m_primary>  (3) 
energy

>  <rmsd>  (3) 
2.0973630527548965

>  <m_score__min__rmsd>  (3) 
2.0973630527548965

>  <meeko>  (3) 
{"free_energy": -8.96, "intermolecular_energy": -10.46, "internal_energy": -1.26, "cluster_size": 45, "cluster_id": 1, "rank_in_cluster": 3}

>  <energy>  (3) 
-8.96

>  <cluster_rmsd>  (3) 
0.21

>  <cluster>  (3) 
1

$$$$

     RDKit          3D

 51 54  0  0  0  0  0  0  0  0999 V2000
  140.0680   71.8110  220.9910 O   0  0  0  0  0  0  0  0  0  0  0  0
  139.8890   72.2980  222.1490 C   0  0  0  0  0  0  0  0  0  0  0  0
  139.6530   73.6980  222.3400 N   0  0  0  0  0  0  0  0  0  0  0  0
  139.6100   74.6170  221.2180 C   0  0  0  0  0  0  0  0  0  0  0  0
  139.2460   75.9570  221.7030 C   0  0  0  0  0  0  0  0  0  0  0  0
  138.3140   76.1150  222.5200 O   0  0  0  0  0  0  0  0  0  0  0  0
  139.9720   77.0690  221.2270 N   0  0  0  0  0  0  0  0  0  0  0  0
  139.3990   78.0530  220.3210 C   0  0  0  0  0  0  0  0  0  0  0  0
  140.1790   77.9780  219.0460 C   0  0  0  0  0  0  0  0  0  0  0  0
  141.6550   77.9420  219.1780 C   0  0  0  0  0  0  0  0  0  0  0  0
  142.1700   79.2120  219.0010 F   0  0  0  0  0  0  0  0  0  0  0  0
  142.1440   77.2140  218.0800 F   0  0  0  0  0  0  0  0  0  0  0  0
  142.2040   77.2820  220.3990 C   0  0  0  0  0  0  0  0  0  0  0  0
  141.3720   77.3160  221.6160 C   0  0  1  0  0  0  0  0  0  0  0  0
  141.3750   78.5780  222.3800 C   0  0  0  0  0  0  0  0  0  0  0  0
  140.3140   79.0640  223.1030 C   0  0  0  0  0  0  0  0  0  0  0  0
  140.4650   80.2780  223.7790 C   0  0  0  0  0  0  0  0  0  0  0  0
  141.6250   80.9980  223.7490 C   0  0  0  0  0  0  0  0  0  0  0  0
  142.6800   80.5080  223.0260 C   0  0  0  0  0  0  0  0  0  0  0  0
  142.5530   79.3220  222.3560 C   0  0  0  0  0  0  0  0  0  0  0  0
  139.9210   71.4200  223.3370 C   0  0  0  0  0  0  0  0  0  0  0  0
  139.5080   70.1220  223.2440 C   0  0  0  0  0  0  0  0  0  0  0  0
  139.5240   69.2620  224.3460 C   0  0  0  0  0  0  0  0  0  0  0  0
  139.9810   69.7900  225.5490 C   0  0  0  0  0  0  0  0  0  0  0  0
  140.0170   68.9770  226.6740 C   0  0  0  0  0  0  0  0  0  0  0  0
  140.4720   69.5180  227.8580 C   0  0  0  0  0  0  0  0  0  0  0  0
  140.5100   68.7290  228.9620 F   0  0  0  0  0  0  0  0  0  0  0  0
  140.8860   70.8260  227.9450 C   0  0  0  0  0  0  0  0  0  0  0  0
  140.8570   71.6520  226.8300 C   0  0  0  0  0  0  0  0  0  0  0  0
  140.4010   71.1190  225.6360 C   0  0  0  0  0  0  0  0  0  0  0  0
  140.3600   71.8990  224.5320 N   0  0  0  0  0  0  0  0  0  0  0  0
  139.5130   74.0250  223.3420 H   0  0  0  0  0  0  0  0  0  0  0  0
  140.5983   74.6561  220.7365 H   0  0  0  0  0  0  0  0  0  0  0  0
  138.8628   74.2732  220.4876 H   0  0  0  0  0  0  0  0  0  0  0  0
  138.3407   77.8208  220.1310 H   0  0  0  0  0  0  0  0  0  0  0  0
  139.4497   79.0628  220.7542 H   0  0  0  0  0  0  0  0  0  0  0  0
  139.8679   77.0654  218.5165 H   0  0  0  0  0  0  0  0  0  0  0  0
  139.9560   78.9131  218.5113 H   0  0  0  0  0  0  0  0  0  0  0  0
  142.3846   76.2256  220.1512 H   0  0  0  0  0  0  0  0  0  0  0  0
  143.1032   77.8618  220.6544 H   0  0  0  0  0  0  0  0  0  0  0  0
  141.8130   76.5517  222.2728 H   0  0  0  0  0  0  0  0  0  0  0  0
  139.3650   78.5097  223.1493 H   0  0  0  0  0  0  0  0  0  0  0  0
  139.6156   80.6691  224.3583 H   0  0  0  0  0  0  0  0  0  0  0  0
  141.7101   81.9501  224.2933 H   0  0  0  0  0  0  0  0  0  0  0  0
  143.6267   81.0665  222.9842 H   0  0  0  0  0  0  0  0  0  0  0  0
  143.4094   78.9430  221.7790 H   0  0  0  0  0  0  0  0  0  0  0  0
  139.1527   69.7423  222.2747 H   0  0  0  0  0  0  0  0  0  0  0  0
  139.1908   68.2168  224.2655 H   0  0  0  0  0  0  0  0  0  0  0  0
  139.6908   67.9278  226.6221 H   0  0  0  0  0  0  0  0  0  0  0  0
  141.2435   71.2216  228.9071 H   0  0  0  0  0  0  0  0  0  0  0  0
  141.1866   72.6996  226.8929 H   0  0  0  0  0  0  0  0  0  0  0  0
  1  2  2  0
  2  3  1  0
  3  4  1  0
  4  5  1  0
  5  6  2  0
  5  7  1  0
  7  8  1  0
  8  9  1  0
  9 10  1  0
 10 11  1  0
 10 12  1  0
 10 13  1  0
 13 14  1  0
 14 15  1  0
 15 16  2  0
 16 17  1  0
 17 18  2  0
 18 19  1  0
 19 20  2  0
  2 21  1  0
 21 22  2  0
 22 23  1  0
 23 24  2  0
 24 25  1  0
 25 26  2  0
 26 27  1  0
 26 28  1  0
 28 29  2  0
 29 30  1  0
 30 31  2  0
 14  7  1  0
 20 15  1  0
 31 21  1  0
 30 24  1  0
  3 32  1  0
  4 33  1  0
  4 34  1  0
  8 35  1  0
  8 36  1  0
  9 37  1  0
  9 38  1  0
 13 39  1  0
 13 40  1  0
 14 41  1  1
 16 42  1  0
 17 43  1  0
 18 44  1  0
 19 45  1  0
 20 46  1  0
 22 47  1  0
 23 48  1  0
 25 49  1  0
 28 50  1  0
 29 51  1  0
M  END
>  <smiles>  (4) 
O=C(NCC(=O)N1CCC(F)(F)C[C@H]1c1ccccc1)c1ccc2cc(F)ccc2n1

>  <score_type>  (4) 
oracle

>  <origin>  (4) 
autodockgpu

>  <m_score__min__energy>  (4) 
-9.0099999999999998

>  <m_primary>  (4) 
energy

>  <rmsd>  (4) 
2.037427092852897

>  <m_score__min__rmsd>  (4) 
2.037427092852897

>  <meeko>  (4) 
{"free_energy": -8.6, "intermolecular_energy": -10.09, "internal_energy": -1.69, "cluster_size": 45, "cluster_id": 1, "rank_in_cluster": 35}

>  <energy>  (4) 
-8.94

>  <cluster_rmsd>  (4) 
0.17

>  <cluster>  (4) 
1

$$$$

     RDKit          3D

 51 54  0  0  0  0  0  0  0  0999 V2000
  140.6230   71.9700  221.0960 O   0  0  0  0  0  0  0  0  0  0  0  0
  140.1230   72.3700  222.1920 C   0  0  0  0  0  0  0  0  0  0  0  0
  139.6270   73.7050  222.3400 N   0  0  0  0  0  0  0  0  0  0  0  0
  139.6740   74.6560  221.2450 C   0  0  0  0  0  0  0  0  0  0  0  0
  139.3010   75.9880  221.7430 C   0  0  0  0  0  0  0  0  0  0  0  0
  138.3870   76.1270  222.5850 O   0  0  0  0  0  0  0  0  0  0  0  0
  139.9940   77.1130  221.2530 N   0  0  0  0  0  0  0  0  0  0  0  0
  139.3790   78.0950  220.3740 C   0  0  0  0  0  0  0  0  0  0  0  0
  140.1180   78.0410  219.0730 C   0  0  0  0  0  0  0  0  0  0  0  0
  141.5970   78.0250  219.1560 C   0  0  0  0  0  0  0  0  0  0  0  0
  142.0880   79.3030  218.9720 F   0  0  0  0  0  0  0  0  0  0  0  0
  142.0590   77.3120  218.0370 F   0  0  0  0  0  0  0  0  0  0  0  0
  142.1950   77.3630  220.3530 C   0  0  0  0  0  0  0  0  0  0  0  0
  141.4030   77.3780  221.5980 C   0  0  1  0  0  0  0  0  0  0  0  0
  141.4140   78.6340  222.3700 C   0  0  0  0  0  0  0  0  0  0  0  0
  140.3560   79.1190  223.0990 C   0  0  0  0  0  0  0  0  0  0  0  0
  140.5150   80.3280  223.7830 C   0  0  0  0  0  0  0  0  0  0  0  0
  141.6780   81.0430  223.7560 C   0  0  0  0  0  0  0  0  0  0  0  0
  142.7290   80.5530  223.0270 C   0  0  0  0  0  0  0  0  0  0  0  0
  142.5940   79.3730  222.3490 C   0  0  0  0  0  0  0  0  0  0  0  0
  140.0440   71.4540  223.3490 C   0  0  0  0  0  0  0  0  0  0  0  0
  139.5440   70.1930  223.1960 C   0  0  0  0  0  0  0  0  0  0  0  0
  139.4530   69.3000  224.2670 C   0  0  0  0  0  0  0  0  0  0  0  0
  139.8980   69.7560  225.5050 C   0  0  0  0  0  0  0  0  0  0  0  0
  139.8300   68.9070  226.6010 C   0  0  0  0  0  0  0  0  0  0  0  0
  140.2740   69.3760  227.8200 C   0  0  0  0  0  0  0  0  0  0  0  0
  140.2100   68.5520  228.8960 F   0  0  0  0  0  0  0  0  0  0  0  0
  140.7760   70.6470  227.9680 C   0  0  0  0  0  0  0  0  0  0  0  0
  140.8510   71.5080  226.8820 C   0  0  0  0  0  0  0  0  0  0  0  0
  140.4070   71.0470  225.6530 C   0  0  0  0  0  0  0  0  0  0  0  0
  140.4670   71.8620  224.5760 N   0  0  0  0  0  0  0  0  0  0  0  0
  139.2240   73.9600  223.2910 H   0  0  0  0  0  0  0  0  0  0  0  0
  140.6927   74.6902  220.8313 H   0  0  0  0  0  0  0  0  0  0  0  0
  138.9712   74.3466  220.4573 H   0  0  0  0  0  0  0  0  0  0  0  0
  138.3184   77.8494  220.2165 H   0  0  0  0  0  0  0  0  0  0  0  0
  139.4305   79.1021  220.8134 H   0  0  0  0  0  0  0  0  0  0  0  0
  139.8024   77.1282  218.5464 H   0  0  0  0  0  0  0  0  0  0  0  0
  139.8645   78.9770  218.5538 H   0  0  0  0  0  0  0  0  0  0  0  0
  142.3802   76.3108  220.0913 H   0  0  0  0  0  0  0  0  0  0  0  0
  143.0953   77.9519  220.5825 H   0  0  0  0  0  0  0  0  0  0  0  0
  141.8761   76.6164  222.2353 H   0  0  0  0  0  0  0  0  0  0  0  0
  139.4047   78.5686  223.1438 H   0  0  0  0  0  0  0  0  0  0  0  0
  139.6687   80.7192  224.3667 H   0  0  0  0  0  0  0  0  0  0  0  0
  141.7688   81.9907  224.3070 H   0  0  0  0  0  0  0  0  0  0  0  0
  143.6786   81.1068  222.9870 H   0  0  0  0  0  0  0  0  0  0  0  0
  143.4472   78.9945  221.7669 H   0  0  0  0  0  0  0  0  0  0  0  0
  139.2030   69.8706  222.2011 H   0  0  0  0  0  0  0  0  0  0  0  0
  139.0490   68.2850  224.1381 H   0  0  0  0  0  0  0  0  0  0  0  0
  139.4323   67.8864  226.5001 H   0  0  0  0  0  0  0  0  0  0  0  0
  141.1215   70.9849  228.9562 H   0  0  0  0  0  0  0  0  0  0  0  0
  141.2512   72.5265  226.9937 H   0  0  0  0  0  0  0  0  0  0  0  0
  1  2  2  0
  2  3  1  0
  3  4  1  0
  4  5  1  0
  5  6  2  0
  5  7  1  0
  7  8  1  0
  8  9  1  0
  9 10  1  0
 10 11  1  0
 10 12  1  0
 10 13  1  0
 13 14  1  0
 14 15  1  0
 15 16  2  0
 16 17  1  0
 17 18  2  0
 18 19  1  0
 19 20  2  0
  2 21  1  0
 21 22  2  0
 22 23  1  0
 23 24  2  0
 24 25  1  0
 25 26  2  0
 26 27  1  0
 26 28  1  0
 28 29  2  0
 29 30  1  0
 30 31  2  0
 14  7  1  0
 20 15  1  0
 31 21  1  0
 30 24  1  0
  3 32  1  0
  4 33  1  0
  4 34  1  0
  8 35  1  0
  8 36  1  0
  9 37  1  0
  9 38  1  0
 13 39  1  0
 13 40  1  0
 14 41  1  1
 16 42  1  0
 17 43  1  0
 18 44  1  0
 19 45  1  0
 20 46  1  0
 22 47  1  0
 23 48  1  0
 25 49  1  0
 28 50  1  0
 29 51  1  0
M  END
>  <smiles>  (5) 
O=C(NCC(=O)N1CCC(F)(F)C[C@H]1c1ccccc1)c1ccc2cc(F)ccc2n1

>  <score_type>  (5) 
oracle

>  <origin>  (5) 
autodockgpu

>  <m_score__min__energy>  (5) 
-9.0099999999999998

>  <m_primary>  (5) 
energy

>  <rmsd>  (5) 
2.0746951738653996

>  <m_score__min__rmsd>  (5) 
2.0746951738653996

>  <meeko>  (5) 
{"free_energy": -8.71, "intermolecular_energy": -10.2, "internal_energy": -1.68, "cluster_size": 45, "cluster_id": 1, "rank_in_cluster": 23}

>  <energy>  (5) 
-8.94

>  <cluster_rmsd>  (5) 
1.28

>  <cluster>  (5) 
1

$$$$

     RDKit          3D

 51 54  0  0  0  0  0  0  0  0999 V2000
  141.3880   72.3860  221.5130 O   0  0  0  0  0  0  0  0  0  0  0  0
  140.4770   72.5990  222.3720 C   0  0  0  0  0  0  0  0  0  0  0  0
  139.6540   73.7700  222.3090 N   0  0  0  0  0  0  0  0  0  0  0  0
  139.8250   74.7600  221.2620 C   0  0  0  0  0  0  0  0  0  0  0  0
  139.4220   76.0790  221.7720 C   0  0  0  0  0  0  0  0  0  0  0  0
  138.5960   76.1830  222.7030 O   0  0  0  0  0  0  0  0  0  0  0  0
  139.9860   77.2310  221.1880 N   0  0  0  0  0  0  0  0  0  0  0  0
  139.1800   78.2910  220.6000 C   0  0  0  0  0  0  0  0  0  0  0  0
  139.5140   78.3340  219.1410 C   0  0  0  0  0  0  0  0  0  0  0  0
  140.9530   78.2920  218.7930 C   0  0  0  0  0  0  0  0  0  0  0  0
  141.4170   79.5750  218.5720 F   0  0  0  0  0  0  0  0  0  0  0  0
  141.0510   77.6680  217.5380 F   0  0  0  0  0  0  0  0  0  0  0  0
  141.8450   77.5270  219.7150 C   0  0  0  0  0  0  0  0  0  0  0  0
  141.4430   77.4490  221.1310 C   0  0  1  0  0  0  0  0  0  0  0  0
  141.7200   78.6380  221.9600 C   0  0  0  0  0  0  0  0  0  0  0  0
  142.1110   79.8620  221.4760 C   0  0  0  0  0  0  0  0  0  0  0  0
  142.3360   80.8990  222.3860 C   0  0  0  0  0  0  0  0  0  0  0  0
  142.1820   80.7440  223.7330 C   0  0  0  0  0  0  0  0  0  0  0  0
  141.7910   79.5200  224.2090 C   0  0  0  0  0  0  0  0  0  0  0  0
  141.5660   78.4910  223.3370 C   0  0  0  0  0  0  0  0  0  0  0  0
  140.2480   71.6330  223.4650 C   0  0  0  0  0  0  0  0  0  0  0  0
  139.5790   70.4670  223.2240 C   0  0  0  0  0  0  0  0  0  0  0  0
  139.3430   69.5290  224.2340 C   0  0  0  0  0  0  0  0  0  0  0  0
  139.8230   69.8380  225.5030 C   0  0  0  0  0  0  0  0  0  0  0  0
  139.6150   68.9400  226.5410 C   0  0  0  0  0  0  0  0  0  0  0  0
  140.0960   69.2630  227.7920 C   0  0  0  0  0  0  0  0  0  0  0  0
  139.8970   68.3890  228.8110 F   0  0  0  0  0  0  0  0  0  0  0  0
  140.7690   70.4380  228.0280 C   0  0  0  0  0  0  0  0  0  0  0  0
  140.9860   71.3470  227.0020 C   0  0  0  0  0  0  0  0  0  0  0  0
  140.5050   71.0320  225.7410 C   0  0  0  0  0  0  0  0  0  0  0  0
  140.7000   71.8980  224.7210 N   0  0  0  0  0  0  0  0  0  0  0  0
  138.9150   73.8720  223.0660 H   0  0  0  0  0  0  0  0  0  0  0  0
  140.8807   74.7915  220.9545 H   0  0  0  0  0  0  0  0  0  0  0  0
  139.2016   74.4928  220.3959 H   0  0  0  0  0  0  0  0  0  0  0  0
  138.1105   78.0730  220.7368 H   0  0  0  0  0  0  0  0  0  0  0  0
  139.3905   79.2579  221.0805 H   0  0  0  0  0  0  0  0  0  0  0  0
  139.0284   77.4716  218.6610 H   0  0  0  0  0  0  0  0  0  0  0  0
  139.1567   79.3128  218.7883 H   0  0  0  0  0  0  0  0  0  0  0  0
  141.9114   76.4977  219.3327 H   0  0  0  0  0  0  0  0  0  0  0  0
  142.7930   78.0849  219.7199 H   0  0  0  0  0  0  0  0  0  0  0  0
  142.0504   76.6310  221.5455 H   0  0  0  0  0  0  0  0  0  0  0  0
  142.2442   80.0230  220.3960 H   0  0  0  0  0  0  0  0  0  0  0  0
  142.6501   81.8802  222.0005 H   0  0  0  0  0  0  0  0  0  0  0  0
  142.3675   81.5822  224.4208 H   0  0  0  0  0  0  0  0  0  0  0  0
  141.6584   79.3655  225.2900 H   0  0  0  0  0  0  0  0  0  0  0  0
  141.2530   77.5148  223.7359 H   0  0  0  0  0  0  0  0  0  0  0  0
  139.2155   70.2598  222.2067 H   0  0  0  0  0  0  0  0  0  0  0  0
  138.8035   68.5913  224.0347 H   0  0  0  0  0  0  0  0  0  0  0  0
  139.0798   67.9944  226.3696 H   0  0  0  0  0  0  0  0  0  0  0  0
  141.1392   70.6600  229.0398 H   0  0  0  0  0  0  0  0  0  0  0  0
  141.5236   72.2892  227.1842 H   0  0  0  0  0  0  0  0  0  0  0  0
  1  2  2  0
  2  3  1  0
  3  4  1  0
  4  5  1  0
  5  6  2  0
  5  7  1  0
  7  8  1  0
  8  9  1  0
  9 10  1  0
 10 11  1  0
 10 12  1  0
 10 13  1  0
 13 14  1  0
 14 15  1  0
 15 16  2  0
 16 17  1  0
 17 18  2  0
 18 19  1  0
 19 20  2  0
  2 21  1  0
 21 22  2  0
 22 23  1  0
 23 24  2  0
 24 25  1  0
 25 26  2  0
 26 27  1  0
 26 28  1  0
 28 29  2  0
 29 30  1  0
 30 31  2  0
 14  7  1  0
 20 15  1  0
 31 21  1  0
 30 24  1  0
  3 32  1  0
  4 33  1  0
  4 34  1  0
  8 35  1  0
  8 36  1  0
  9 37  1  0
  9 38  1  0
 13 39  1  0
 13 40  1  0
 14 41  1  1
 16 42  1  0
 17 43  1  0
 18 44  1  0
 19 45  1  0
 20 46  1  0
 22 47  1  0
 23 48  1  0
 25 49  1  0
 28 50  1  0
 29 51  1  0
M  END
>  <smiles>  (6) 
O=C(NCC(=O)N1CCC(F)(F)C[C@H]1c1ccccc1)c1ccc2cc(F)ccc2n1

>  <score_type>  (6) 
oracle

>  <origin>  (6) 
autodockgpu

>  <m_score__min__energy>  (6) 
-9.0099999999999998

>  <m_primary>  (6) 
energy

>  <rmsd>  (6) 
2.152889039764351

>  <m_score__min__rmsd>  (6) 
2.152889039764351

>  <meeko>  (6) 
{"free_energy": -8.84, "intermolecular_energy": -10.33, "internal_energy": -1.75, "cluster_size": 45, "cluster_id": 1, "rank_in_cluster": 13}

>  <energy>  (6) 
-8.94

>  <cluster_rmsd>  (6) 
1.28

>  <cluster>  (6) 
1

$$$$

     RDKit          3D

 51 54  0  0  0  0  0  0  0  0999 V2000
  141.2640   72.1120  221.3680 O   0  0  0  0  0  0  0  0  0  0  0  0
  140.5070   72.4520  222.3280 C   0  0  0  0  0  0  0  0  0  0  0  0
  139.8570   73.7280  222.3480 N   0  0  0  0  0  0  0  0  0  0  0  0
  140.0380   74.6860  221.2720 C   0  0  0  0  0  0  0  0  0  0  0  0
  139.3960   75.9560  221.6420 C   0  0  0  0  0  0  0  0  0  0  0  0
  138.3690   75.9750  222.3530 O   0  0  0  0  0  0  0  0  0  0  0  0
  139.9630   77.1610  221.1770 N   0  0  0  0  0  0  0  0  0  0  0  0
  139.1590   78.2720  220.6910 C   0  0  0  0  0  0  0  0  0  0  0  0
  139.5010   78.4580  219.2450 C   0  0  0  0  0  0  0  0  0  0  0  0
  140.9420   78.4510  218.9030 C   0  0  0  0  0  0  0  0  0  0  0  0
  141.4060   79.7490  218.8110 F   0  0  0  0  0  0  0  0  0  0  0  0
  141.0470   77.9530  217.5940 F   0  0  0  0  0  0  0  0  0  0  0  0
  141.8290   77.6000  219.7500 C   0  0  0  0  0  0  0  0  0  0  0  0
  141.4200   77.3830  221.1500 C   0  0  1  0  0  0  0  0  0  0  0  0
  141.6910   78.4850  222.0930 C   0  0  0  0  0  0  0  0  0  0  0  0
  141.4950   78.4250  223.4510 C   0  0  0  0  0  0  0  0  0  0  0  0
  141.7980   79.5520  224.2190 C   0  0  0  0  0  0  0  0  0  0  0  0
  142.2810   80.7070  223.6750 C   0  0  0  0  0  0  0  0  0  0  0  0
  142.4740   80.7600  222.3200 C   0  0  0  0  0  0  0  0  0  0  0  0
  142.1830   79.6680  221.5490 C   0  0  0  0  0  0  0  0  0  0  0  0
  140.2780   71.5260  223.4570 C   0  0  0  0  0  0  0  0  0  0  0  0
  139.6600   70.3270  223.2480 C   0  0  0  0  0  0  0  0  0  0  0  0
  139.4260   69.4260  224.2910 C   0  0  0  0  0  0  0  0  0  0  0  0
  139.8550   69.8080  225.5590 C   0  0  0  0  0  0  0  0  0  0  0  0
  139.6480   68.9490  226.6300 C   0  0  0  0  0  0  0  0  0  0  0  0
  140.0780   69.3430  227.8790 C   0  0  0  0  0  0  0  0  0  0  0  0
  139.8790   68.5090  228.9300 F   0  0  0  0  0  0  0  0  0  0  0  0
  140.7000   70.5520  228.0820 C   0  0  0  0  0  0  0  0  0  0  0  0
  140.9160   71.4230  227.0230 C   0  0  0  0  0  0  0  0  0  0  0  0
  140.4860   71.0360  225.7640 C   0  0  0  0  0  0  0  0  0  0  0  0
  140.6810   71.8630  224.7110 N   0  0  0  0  0  0  0  0  0  0  0  0
  139.2390   73.9340  223.1880 H   0  0  0  0  0  0  0  0  0  0  0  0
  141.1124   74.8521  221.1042 H   0  0  0  0  0  0  0  0  0  0  0  0
  139.5820   74.2964  220.3499 H   0  0  0  0  0  0  0  0  0  0  0  0
  138.0891   78.0405  220.7997 H   0  0  0  0  0  0  0  0  0  0  0  0
  139.3654   79.1875  221.2649 H   0  0  0  0  0  0  0  0  0  0  0  0
  139.0190   77.6465  218.6800 H   0  0  0  0  0  0  0  0  0  0  0  0
  139.1445   79.4663  218.9878 H   0  0  0  0  0  0  0  0  0  0  0  0
  141.8981   76.6132  219.2689 H   0  0  0  0  0  0  0  0  0  0  0  0
  142.7763   78.1554  219.8148 H   0  0  0  0  0  0  0  0  0  0  0  0
  142.0261   76.5286  221.4856 H   0  0  0  0  0  0  0  0  0  0  0  0
  141.1081   77.5101  223.9234 H   0  0  0  0  0  0  0  0  0  0  0  0
  141.6409   79.5067  225.3068 H   0  0  0  0  0  0  0  0  0  0  0  0
  142.5100   81.5753  224.3103 H   0  0  0  0  0  0  0  0  0  0  0  0
  142.8617   81.6775  221.8533 H   0  0  0  0  0  0  0  0  0  0  0  0
  142.3433   79.7268  220.4623 H   0  0  0  0  0  0  0  0  0  0  0  0
  139.3370   70.0623  222.2303 H   0  0  0  0  0  0  0  0  0  0  0  0
  138.9267   68.4612  224.1179 H   0  0  0  0  0  0  0  0  0  0  0  0
  139.1528   67.9775  226.4853 H   0  0  0  0  0  0  0  0  0  0  0  0
  141.0297   70.8319  229.0934 H   0  0  0  0  0  0  0  0  0  0  0  0
  141.4137   72.3915  227.1787 H   0  0  0  0  0  0  0  0  0  0  0  0
  1  2  2  0
  2  3  1  0
  3  4  1  0
  4  5  1  0
  5  6  2  0
  5  7  1  0
  7  8  1  0
  8  9  1  0
  9 10  1  0
 10 11  1  0
 10 12  1  0
 10 13  1  0
 13 14  1  0
 14 15  1  0
 15 16  2  0
 16 17  1  0
 17 18  2  0
 18 19  1  0
 19 20  2  0
  2 21  1  0
 21 22  2  0
 22 23  1  0
 23 24  2  0
 24 25  1  0
 25 26  2  0
 26 27  1  0
 26 28  1  0
 28 29  2  0
 29 30  1  0
 30 31  2  0
 14  7  1  0
 20 15  1  0
 31 21  1  0
 30 24  1  0
  3 32  1  0
  4 33  1  0
  4 34  1  0
  8 35  1  0
  8 36  1  0
  9 37  1  0
  9 38  1  0
 13 39  1  0
 13 40  1  0
 14 41  1  1
 16 42  1  0
 17 43  1  0
 18 44  1  0
 19 45  1  0
 20 46  1  0
 22 47  1  0
 23 48  1  0
 25 49  1  0
 28 50  1  0
 29 51  1  0
M  END
>  <smiles>  (7) 
O=C(NCC(=O)N1CCC(F)(F)C[C@H]1c1ccccc1)c1ccc2cc(F)ccc2n1

>  <score_type>  (7) 
oracle

>  <origin>  (7) 
autodockgpu

>  <m_score__min__energy>  (7) 
-9.0099999999999998

>  <m_primary>  (7) 
energy

>  <rmsd>  (7) 
2.176229685521918

>  <m_score__min__rmsd>  (7) 
2.176229685521918

>  <meeko>  (7) 
{"free_energy": -8.68, "intermolecular_energy": -10.17, "internal_energy": -1.71, "cluster_size": 45, "cluster_id": 1, "rank_in_cluster": 30}

>  <energy>  (7) 
-8.92

>  <cluster_rmsd>  (7) 
1.27

>  <cluster>  (7) 
1

$$$$

     RDKit          3D

 51 54  0  0  0  0  0  0  0  0999 V2000
  140.9950   72.0950  221.2380 O   0  0  0  0  0  0  0  0  0  0  0  0
  140.3480   72.4650  222.2660 C   0  0  0  0  0  0  0  0  0  0  0  0
  139.7640   73.7700  222.3470 N   0  0  0  0  0  0  0  0  0  0  0  0
  139.8850   74.7230  221.2600 C   0  0  0  0  0  0  0  0  0  0  0  0
  139.4280   76.0430  221.7190 C   0  0  0  0  0  0  0  0  0  0  0  0
  138.5500   76.1490  222.6020 O   0  0  0  0  0  0  0  0  0  0  0  0
  139.9990   77.1960  221.1430 N   0  0  0  0  0  0  0  0  0  0  0  0
  139.2020   78.2400  220.5160 C   0  0  0  0  0  0  0  0  0  0  0  0
  139.5850   78.2720  219.0690 C   0  0  0  0  0  0  0  0  0  0  0  0
  141.0350   78.2420  218.7700 C   0  0  0  0  0  0  0  0  0  0  0  0
  141.4920   79.5270  218.5510 F   0  0  0  0  0  0  0  0  0  0  0  0
  141.1820   77.6060  217.5260 F   0  0  0  0  0  0  0  0  0  0  0  0
  141.9040   77.4960  219.7290 C   0  0  0  0  0  0  0  0  0  0  0  0
  141.4550   77.4290  221.1330 C   0  0  1  0  0  0  0  0  0  0  0  0
  141.6900   78.6290  221.9580 C   0  0  0  0  0  0  0  0  0  0  0  0
  142.0410   79.8630  221.4690 C   0  0  0  0  0  0  0  0  0  0  0  0
  142.2300   80.9110  222.3750 C   0  0  0  0  0  0  0  0  0  0  0  0
  142.0800   80.7550  223.7230 C   0  0  0  0  0  0  0  0  0  0  0  0
  141.7300   79.5210  224.2030 C   0  0  0  0  0  0  0  0  0  0  0  0
  141.5400   78.4820  223.3340 C   0  0  0  0  0  0  0  0  0  0  0  0
  140.1850   71.5450  223.4100 C   0  0  0  0  0  0  0  0  0  0  0  0
  139.5830   70.3330  223.2380 C   0  0  0  0  0  0  0  0  0  0  0  0
  139.4110   69.4370  224.2970 C   0  0  0  0  0  0  0  0  0  0  0  0
  139.8840   69.8380  225.5430 C   0  0  0  0  0  0  0  0  0  0  0  0
  139.7390   68.9850  226.6280 C   0  0  0  0  0  0  0  0  0  0  0  0
  140.2120   69.4000  227.8550 C   0  0  0  0  0  0  0  0  0  0  0  0
  140.0740   68.5710  228.9210 F   0  0  0  0  0  0  0  0  0  0  0  0
  140.8180   70.6220  228.0220 C   0  0  0  0  0  0  0  0  0  0  0  0
  140.9720   71.4880  226.9480 C   0  0  0  0  0  0  0  0  0  0  0  0
  140.4990   71.0800  225.7110 C   0  0  0  0  0  0  0  0  0  0  0  0
  140.6330   71.9010  224.6440 N   0  0  0  0  0  0  0  0  0  0  0  0
  139.2380   74.0000  223.2430 H   0  0  0  0  0  0  0  0  0  0  0  0
  140.9364   74.7877  220.9432 H   0  0  0  0  0  0  0  0  0  0  0  0
  139.2683   74.3940  220.4106 H   0  0  0  0  0  0  0  0  0  0  0  0
  138.1310   78.0109  220.6185 H   0  0  0  0  0  0  0  0  0  0  0  0
  139.3854   79.2142  220.9927 H   0  0  0  0  0  0  0  0  0  0  0  0
  139.1249   77.3997  218.5818 H   0  0  0  0  0  0  0  0  0  0  0  0
  139.2299   79.2435  218.6946 H   0  0  0  0  0  0  0  0  0  0  0  0
  141.9935   76.4635  219.3604 H   0  0  0  0  0  0  0  0  0  0  0  0
  142.8459   78.0633  219.7590 H   0  0  0  0  0  0  0  0  0  0  0  0
  142.0576   76.6226  221.5764 H   0  0  0  0  0  0  0  0  0  0  0  0
  142.1706   80.0236  220.3885 H   0  0  0  0  0  0  0  0  0  0  0  0
  142.5108   81.9009  221.9861 H   0  0  0  0  0  0  0  0  0  0  0  0
  142.2367   81.6013  224.4080 H   0  0  0  0  0  0  0  0  0  0  0  0
  141.6020   79.3659  225.2845 H   0  0  0  0  0  0  0  0  0  0  0  0
  141.2593   77.4973  223.7360 H   0  0  0  0  0  0  0  0  0  0  0  0
  139.2226   70.0528  222.2372 H   0  0  0  0  0  0  0  0  0  0  0  0
  138.9247   68.4610  224.1524 H   0  0  0  0  0  0  0  0  0  0  0  0
  139.2587   68.0022  226.5121 H   0  0  0  0  0  0  0  0  0  0  0  0
  141.1846   70.9168  229.0163 H   0  0  0  0  0  0  0  0  0  0  0  0
  141.4548   72.4682  227.0750 H   0  0  0  0  0  0  0  0  0  0  0  0
  1  2  2  0
  2  3  1  0
  3  4  1  0
  4  5  1  0
  5  6  2  0
  5  7  1  0
  7  8  1  0
  8  9  1  0
  9 10  1  0
 10 11  1  0
 10 12  1  0
 10 13  1  0
 13 14  1  0
 14 15  1  0
 15 16  2  0
 16 17  1  0
 17 18  2  0
 18 19  1  0
 19 20  2  0
  2 21  1  0
 21 22  2  0
 22 23  1  0
 23 24  2  0
 24 25  1  0
 25 26  2  0
 26 27  1  0
 26 28  1  0
 28 29  2  0
 29 30  1  0
 30 31  2  0
 14  7  1  0
 20 15  1  0
 31 21  1  0
 30 24  1  0
  3 32  1  0
  4 33  1  0
  4 34  1  0
  8 35  1  0
  8 36  1  0
  9 37  1  0
  9 38  1  0
 13 39  1  0
 13 40  1  0
 14 41  1  1
 16 42  1  0
 17 43  1  0
 18 44  1  0
 19 45  1  0
 20 46  1  0
 22 47  1  0
 23 48  1  0
 25 49  1  0
 28 50  1  0
 29 51  1  0
M  END
>  <smiles>  (8) 
O=C(NCC(=O)N1CCC(F)(F)C[C@H]1c1ccccc1)c1ccc2cc(F)ccc2n1

>  <score_type>  (8) 
oracle

>  <origin>  (8) 
autodockgpu

>  <m_score__min__energy>  (8) 
-9.0099999999999998

>  <m_primary>  (8) 
energy

>  <rmsd>  (8) 
2.097540223989635

>  <m_score__min__rmsd>  (8) 
2.097540223989635

>  <meeko>  (8) 
{"free_energy": -8.73, "intermolecular_energy": -10.22, "internal_energy": -1.8, "cluster_size": 45, "cluster_id": 1, "rank_in_cluster": 22}

>  <energy>  (8) 
-8.89

>  <cluster_rmsd>  (8) 
0.35

>  <cluster>  (8) 
1

$$$$

     RDKit          3D

 51 54  0  0  0  0  0  0  0  0999 V2000
  138.6040   71.2630  221.5060 O   0  0  0  0  0  0  0  0  0  0  0  0
  139.1390   71.7110  222.5670 C   0  0  0  0  0  0  0  0  0  0  0  0
  139.5080   73.0890  222.6900 N   0  0  0  0  0  0  0  0  0  0  0  0
  139.2850   74.0320  221.6090 C   0  0  0  0  0  0  0  0  0  0  0  0
  140.4110   74.9750  221.5490 C   0  0  0  0  0  0  0  0  0  0  0  0
  141.5920   74.5730  221.6250 O   0  0  0  0  0  0  0  0  0  0  0  0
  140.1350   76.3500  221.4020 N   0  0  0  0  0  0  0  0  0  0  0  0
  138.8650   76.9440  221.7930 C   0  0  0  0  0  0  0  0  0  0  0  0
  138.2300   77.4760  220.5460 C   0  0  0  0  0  0  0  0  0  0  0  0
  139.1060   78.2590  219.6430 C   0  0  0  0  0  0  0  0  0  0  0  0
  138.9310   79.6090  219.8810 F   0  0  0  0  0  0  0  0  0  0  0  0
  138.6180   78.0710  218.3390 F   0  0  0  0  0  0  0  0  0  0  0  0
  140.5490   77.8790  219.6120 C   0  0  0  0  0  0  0  0  0  0  0  0
  141.1190   77.2920  220.8390 C   0  0  1  0  0  0  0  0  0  0  0  0
  141.4610   78.2340  221.9220 C   0  0  0  0  0  0  0  0  0  0  0  0
  141.4610   77.9280  223.2600 C   0  0  0  0  0  0  0  0  0  0  0  0
  141.8090   78.9270  224.1740 C   0  0  0  0  0  0  0  0  0  0  0  0
  142.1480   80.1920  223.7880 C   0  0  0  0  0  0  0  0  0  0  0  0
  142.1450   80.4910  222.4510 C   0  0  0  0  0  0  0  0  0  0  0  0
  141.8070   79.5280  221.5410 C   0  0  0  0  0  0  0  0  0  0  0  0
  139.3950   70.8070  223.7060 C   0  0  0  0  0  0  0  0  0  0  0  0
  139.0310   69.4930  223.6380 C   0  0  0  0  0  0  0  0  0  0  0  0
  139.2570   68.6080  224.6970 C   0  0  0  0  0  0  0  0  0  0  0  0
  139.8740   69.1290  225.8300 C   0  0  0  0  0  0  0  0  0  0  0  0
  140.1210   68.2920  226.9100 C   0  0  0  0  0  0  0  0  0  0  0  0
  140.7320   68.8250  228.0240 C   0  0  0  0  0  0  0  0  0  0  0  0
  140.9780   68.0130  229.0840 F   0  0  0  0  0  0  0  0  0  0  0  0
  141.0970   70.1490  228.0870 C   0  0  0  0  0  0  0  0  0  0  0  0
  140.8580   71.0000  227.0170 C   0  0  0  0  0  0  0  0  0  0  0  0
  140.2430   70.4740  225.8920 C   0  0  0  0  0  0  0  0  0  0  0  0
  139.9950   71.2770  224.8330 N   0  0  0  0  0  0  0  0  0  0  0  0
  139.9500   73.3820  223.6110 H   0  0  0  0  0  0  0  0  0  0  0  0
  139.2099   73.4879  220.6560 H   0  0  0  0  0  0  0  0  0  0  0  0
  138.3504   74.5839  221.7875 H   0  0  0  0  0  0  0  0  0  0  0  0
  138.2171   76.1828  222.2521 H   0  0  0  0  0  0  0  0  0  0  0  0
  139.0166   77.7463  222.5301 H   0  0  0  0  0  0  0  0  0  0  0  0
  137.8424   76.6188  219.9759 H   0  0  0  0  0  0  0  0  0  0  0  0
  137.4587   78.1813  220.8889 H   0  0  0  0  0  0  0  0  0  0  0  0
  140.6806   77.1458  218.8026 H   0  0  0  0  0  0  0  0  0  0  0  0
  141.0886   78.8277  219.4750 H   0  0  0  0  0  0  0  0  0  0  0  0
  142.0648   76.8350  220.5124 H   0  0  0  0  0  0  0  0  0  0  0  0
  141.1930   76.9187  223.6056 H   0  0  0  0  0  0  0  0  0  0  0  0
  141.8097   78.6842  225.2469 H   0  0  0  0  0  0  0  0  0  0  0  0
  142.4175   80.9542  224.5339 H   0  0  0  0  0  0  0  0  0  0  0  0
  142.4135   81.5020  222.1108 H   0  0  0  0  0  0  0  0  0  0  0  0
  141.8085   79.7842  220.4713 H   0  0  0  0  0  0  0  0  0  0  0  0
  138.5460   69.1196  222.7240 H   0  0  0  0  0  0  0  0  0  0  0  0
  138.9610   67.5503  224.6371 H   0  0  0  0  0  0  0  0  0  0  0  0
  139.8360   67.2301  226.8770 H   0  0  0  0  0  0  0  0  0  0  0  0
  141.5831   70.5375  228.9941 H   0  0  0  0  0  0  0  0  0  0  0  0
  141.1480   72.0602  227.0606 H   0  0  0  0  0  0  0  0  0  0  0  0
  1  2  2  0
  2  3  1  0
  3  4  1  0
  4  5  1  0
  5  6  2  0
  5  7  1  0
  7  8  1  0
  8  9  1  0
  9 10  1  0
 10 11  1  0
 10 12  1  0
 10 13  1  0
 13 14  1  0
 14 15  1  0
 15 16  2  0
 16 17  1  0
 17 18  2  0
 18 19  1  0
 19 20  2  0
  2 21  1  0
 21 22  2  0
 22 23  1  0
 23 24  2  0
 24 25  1  0
 25 26  2  0
 26 27  1  0
 26 28  1  0
 28 29  2  0
 29 30  1  0
 30 31  2  0
 14  7  1  0
 20 15  1  0
 31 21  1  0
 30 24  1  0
  3 32  1  0
  4 33  1  0
  4 34  1  0
  8 35  1  0
  8 36  1  0
  9 37  1  0
  9 38  1  0
 13 39  1  0
 13 40  1  0
 14 41  1  6
 16 42  1  0
 17 43  1  0
 18 44  1  0
 19 45  1  0
 20 46  1  0
 22 47  1  0
 23 48  1  0
 25 49  1  0
 28 50  1  0
 29 51  1  0
M  END
>  <smiles>  (9) 
O=C(NCC(=O)N1CCC(F)(F)C[C@H]1c1ccccc1)c1ccc2cc(F)ccc2n1

>  <score_type>  (9) 
oracle

>  <origin>  (9) 
autodockgpu

>  <m_score__min__energy>  (9) 
-9.0099999999999998

>  <m_primary>  (9) 
energy

>  <rmsd>  (9) 
1.943597921198576

>  <m_score__min__rmsd>  (9) 
1.943597921198576

>  <meeko>  (9) 
{"free_energy": -8.36, "intermolecular_energy": -9.85, "internal_energy": -1.7, "cluster_size": 45, "cluster_id": 1, "rank_in_cluster": 44}

>  <energy>  (9) 
-8.88

>  <cluster_rmsd>  (9) 
1.28

>  <cluster>  (9) 
1

$$$$

     RDKit          3D

 51 54  0  0  0  0  0  0  0  0999 V2000
  137.1100   75.8450  222.1370 O   0  0  0  0  0  0  0  0  0  0  0  0
  138.3610   75.9870  222.3040 C   0  0  0  0  0  0  0  0  0  0  0  0
  139.2570   74.8760  222.1960 N   0  0  0  0  0  0  0  0  0  0  0  0
  138.7750   73.5420  221.8910 C   0  0  0  0  0  0  0  0  0  0  0  0
  139.7470   72.5520  222.3780 C   0  0  0  0  0  0  0  0  0  0  0  0
  140.9670   72.8160  222.4210 O   0  0  0  0  0  0  0  0  0  0  0  0
  139.2760   71.2910  222.7980 N   0  0  0  0  0  0  0  0  0  0  0  0
  139.5900   70.0580  222.0910 C   0  0  0  0  0  0  0  0  0  0  0  0
  138.2960   69.5070  221.5790 C   0  0  0  0  0  0  0  0  0  0  0  0
  137.1660   69.4810  222.5370 C   0  0  0  0  0  0  0  0  0  0  0  0
  137.0650   68.2250  223.1040 F   0  0  0  0  0  0  0  0  0  0  0  0
  135.9890   69.6150  221.7820 F   0  0  0  0  0  0  0  0  0  0  0  0
  137.1320   70.5630  223.5650 C   0  0  0  0  0  0  0  0  0  0  0  0
  138.4260   71.1290  223.9910 C   0  0  1  0  0  0  0  0  0  0  0  0
  139.2080   70.3310  224.9550 C   0  0  0  0  0  0  0  0  0  0  0  0
  138.9170   69.0420  225.3290 C   0  0  0  0  0  0  0  0  0  0  0  0
  139.7530   68.4110  226.2550 C   0  0  0  0  0  0  0  0  0  0  0  0
  140.8450   69.0240  226.7990 C   0  0  0  0  0  0  0  0  0  0  0  0
  141.1290   70.3090  226.4210 C   0  0  0  0  0  0  0  0  0  0  0  0
  140.3240   70.9460  225.5170 C   0  0  0  0  0  0  0  0  0  0  0  0
  138.9200   77.3180  222.6180 C   0  0  0  0  0  0  0  0  0  0  0  0
  138.0940   78.3950  222.7670 C   0  0  0  0  0  0  0  0  0  0  0  0
  138.5880   79.6680  223.0630 C   0  0  0  0  0  0  0  0  0  0  0  0
  139.9670   79.7920  223.2000 C   0  0  0  0  0  0  0  0  0  0  0  0
  140.5080   81.0360  223.4950 C   0  0  0  0  0  0  0  0  0  0  0  0
  141.8770   81.1390  223.6270 C   0  0  0  0  0  0  0  0  0  0  0  0
  142.4140   82.3520  223.9140 F   0  0  0  0  0  0  0  0  0  0  0  0
  142.7040   80.0520  223.4750 C   0  0  0  0  0  0  0  0  0  0  0  0
  142.1790   78.8010  223.1810 C   0  0  0  0  0  0  0  0  0  0  0  0
  140.8050   78.6860  223.0460 C   0  0  0  0  0  0  0  0  0  0  0  0
  140.2640   77.4800  222.7590 N   0  0  0  0  0  0  0  0  0  0  0  0
  140.2890   75.0810  222.3500 H   0  0  0  0  0  0  0  0  0  0  0  0
  137.8057   73.3794  222.3851 H   0  0  0  0  0  0  0  0  0  0  0  0
  138.6519   73.4340  220.8033 H   0  0  0  0  0  0  0  0  0  0  0  0
  140.2705   70.2660  221.2522 H   0  0  0  0  0  0  0  0  0  0  0  0
  140.0873   69.3382  222.7578 H   0  0  0  0  0  0  0  0  0  0  0  0
  137.9899   70.1179  220.7169 H   0  0  0  0  0  0  0  0  0  0  0  0
  138.5012   68.4530  221.3405 H   0  0  0  0  0  0  0  0  0  0  0  0
  136.5282   71.3874  223.1579 H   0  0  0  0  0  0  0  0  0  0  0  0
  136.7211   70.0849  224.4664 H   0  0  0  0  0  0  0  0  0  0  0  0
  138.1619   72.0661  224.5030 H   0  0  0  0  0  0  0  0  0  0  0  0
  138.0457   68.5178  224.9094 H   0  0  0  0  0  0  0  0  0  0  0  0
  139.5217   67.3790  226.5575 H   0  0  0  0  0  0  0  0  0  0  0  0
  141.4823   68.4974  227.5246 H   0  0  0  0  0  0  0  0  0  0  0  0
  142.0023   70.8277  226.8432 H   0  0  0  0  0  0  0  0  0  0  0  0
  140.5662   71.9783  225.2242 H   0  0  0  0  0  0  0  0  0  0  0  0
  137.0090   78.2565  222.6507 H   0  0  0  0  0  0  0  0  0  0  0  0
  137.9178   80.5321  223.1822 H   0  0  0  0  0  0  0  0  0  0  0  0
  139.8614   81.9170  223.6203 H   0  0  0  0  0  0  0  0  0  0  0  0
  143.7914   80.1743  223.5873 H   0  0  0  0  0  0  0  0  0  0  0  0
  142.8349   77.9264  223.0588 H   0  0  0  0  0  0  0  0  0  0  0  0
  1  2  2  0
  2  3  1  0
  3  4  1  0
  4  5  1  0
  5  6  2  0
  5  7  1  0
  7  8  1  0
  8  9  1  0
  9 10  1  0
 10 11  1  0
 10 12  1  0
 10 13  1  0
 13 14  1  0
 14 15  1  0
 15 16  2  0
 16 17  1  0
 17 18  2  0
 18 19  1  0
 19 20  2  0
  2 21  1  0
 21 22  2  0
 22 23  1  0
 23 24  2  0
 24 25  1  0
 25 26  2  0
 26 27  1  0
 26 28  1  0
 28 29  2  0
 29 30  1  0
 30 31  2  0
 14  7  1  0
 20 15  1  0
 31 21  1  0
 30 24  1  0
  3 32  1  0
  4 33  1  0
  4 34  1  0
  8 35  1  0
  8 36  1  0
  9 37  1  0
  9 38  1  0
 13 39  1  0
 13 40  1  0
 14 41  1  1
 16 42  1  0
 17 43  1  0
 18 44  1  0
 19 45  1  0
 20 46  1  0
 22 47  1  0
 23 48  1  0
 25 49  1  0
 28 50  1  0
 29 51  1  0
M  END
>  <smiles>  (10) 
O=C(NCC(=O)N1CCC(F)(F)C[C@H]1c1ccccc1)c1ccc2cc(F)ccc2n1

>  <score_type>  (10) 
oracle

>  <origin>  (10) 
autodockgpu

>  <m_score__min__energy>  (10) 
-9.0099999999999998

>  <m_primary>  (10) 
energy

>  <rmsd>  (10) 
8.493254919899137

>  <m_score__min__rmsd>  (10) 
8.493254919899137

>  <meeko>  (10) 
{"free_energy": -7.68, "intermolecular_energy": -9.17, "internal_energy": -2.07, "cluster_size": 2, "cluster_id": 4, "rank_in_cluster": 2}

>  <energy>  (10) 
-8.87

>  <cluster_rmsd>  (10) 
1.28

>  <cluster>  (10) 
1

$$$$

     RDKit          3D

 51 54  0  0  0  0  0  0  0  0999 V2000
  138.6390   71.2470  221.4430 O   0  0  0  0  0  0  0  0  0  0  0  0
  139.1510   71.7090  222.5090 C   0  0  0  0  0  0  0  0  0  0  0  0
  139.5120   73.0900  222.6240 N   0  0  0  0  0  0  0  0  0  0  0  0
  139.3090   74.0190  221.5280 C   0  0  0  0  0  0  0  0  0  0  0  0
  140.3370   75.0690  221.5850 C   0  0  0  0  0  0  0  0  0  0  0  0
  141.5510   74.7780  221.6190 O   0  0  0  0  0  0  0  0  0  0  0  0
  139.9260   76.4170  221.6010 N   0  0  0  0  0  0  0  0  0  0  0  0
  138.7350   76.8690  222.3040 C   0  0  0  0  0  0  0  0  0  0  0  0
  137.7940   77.4030  221.2690 C   0  0  0  0  0  0  0  0  0  0  0  0
  138.3780   78.3100  220.2530 C   0  0  0  0  0  0  0  0  0  0  0  0
  138.1550   79.6240  220.6190 F   0  0  0  0  0  0  0  0  0  0  0  0
  137.6240   78.1450  219.0790 F   0  0  0  0  0  0  0  0  0  0  0  0
  139.8030   78.0680  219.8770 C   0  0  0  0  0  0  0  0  0  0  0  0
  140.6800   77.4750  220.9040 C   0  0  1  0  0  0  0  0  0  0  0  0
  141.1810   78.3880  221.9480 C   0  0  0  0  0  0  0  0  0  0  0  0
  141.4390   78.0300  223.2490 C   0  0  0  0  0  0  0  0  0  0  0  0
  141.9140   79.0070  224.1280 C   0  0  0  0  0  0  0  0  0  0  0  0
  142.1310   80.3000  223.7470 C   0  0  0  0  0  0  0  0  0  0  0  0
  141.8710   80.6500  222.4480 C   0  0  0  0  0  0  0  0  0  0  0  0
  141.4060   79.7090  221.5710 C   0  0  0  0  0  0  0  0  0  0  0  0
  139.3870   70.8180  223.6640 C   0  0  0  0  0  0  0  0  0  0  0  0
  139.0130   69.5070  223.6100 C   0  0  0  0  0  0  0  0  0  0  0  0
  139.2190   68.6350  224.6830 C   0  0  0  0  0  0  0  0  0  0  0  0
  139.8260   69.1670  225.8170 C   0  0  0  0  0  0  0  0  0  0  0  0
  140.0550   68.3430  226.9100 C   0  0  0  0  0  0  0  0  0  0  0  0
  140.6570   68.8870  228.0250 C   0  0  0  0  0  0  0  0  0  0  0  0
  140.8830   68.0880  229.0980 F   0  0  0  0  0  0  0  0  0  0  0  0
  141.0310   70.2090  228.0740 C   0  0  0  0  0  0  0  0  0  0  0  0
  140.8110   71.0460  226.9890 C   0  0  0  0  0  0  0  0  0  0  0  0
  140.2060   70.5090  225.8640 C   0  0  0  0  0  0  0  0  0  0  0  0
  139.9770   71.3000  224.7910 N   0  0  0  0  0  0  0  0  0  0  0  0
  139.9350   73.3950  223.5510 H   0  0  0  0  0  0  0  0  0  0  0  0
  139.3855   73.4813  220.5714 H   0  0  0  0  0  0  0  0  0  0  0  0
  138.3113   74.4748  221.6109 H   0  0  0  0  0  0  0  0  0  0  0  0
  138.2702   76.0282  222.8397 H   0  0  0  0  0  0  0  0  0  0  0  0
  138.9854   77.6429  223.0445 H   0  0  0  0  0  0  0  0  0  0  0  0
  137.3569   76.5439  220.7390 H   0  0  0  0  0  0  0  0  0  0  0  0
  137.0666   78.0145  221.8230 H   0  0  0  0  0  0  0  0  0  0  0  0
  139.8060   77.3922  219.0091 H   0  0  0  0  0  0  0  0  0  0  0  0
  140.2208   79.0684  219.6908 H   0  0  0  0  0  0  0  0  0  0  0  0
  141.5616   77.1257  220.3466 H   0  0  0  0  0  0  0  0  0  0  0  0
  141.2753   76.9974  223.5911 H   0  0  0  0  0  0  0  0  0  0  0  0
  142.1217   78.7225  225.1701 H   0  0  0  0  0  0  0  0  0  0  0  0
  142.5058   81.0433  224.4660 H   0  0  0  0  0  0  0  0  0  0  0  0
  142.0357   81.6843  222.1116 H   0  0  0  0  0  0  0  0  0  0  0  0
  141.2028   80.0064  220.5317 H   0  0  0  0  0  0  0  0  0  0  0  0
  138.5355   69.1251  222.6956 H   0  0  0  0  0  0  0  0  0  0  0  0
  138.9158   67.5788  224.6335 H   0  0  0  0  0  0  0  0  0  0  0  0
  139.7636   67.2825  226.8875 H   0  0  0  0  0  0  0  0  0  0  0  0
  141.5089   70.6070  228.9813 H   0  0  0  0  0  0  0  0  0  0  0  0
  141.1082   72.1046  227.0212 H   0  0  0  0  0  0  0  0  0  0  0  0
  1  2  2  0
  2  3  1  0
  3  4  1  0
  4  5  1  0
  5  6  2  0
  5  7  1  0
  7  8  1  0
  8  9  1  0
  9 10  1  0
 10 11  1  0
 10 12  1  0
 10 13  1  0
 13 14  1  0
 14 15  1  0
 15 16  2  0
 16 17  1  0
 17 18  2  0
 18 19  1  0
 19 20  2  0
  2 21  1  0
 21 22  2  0
 22 23  1  0
 23 24  2  0
 24 25  1  0
 25 26  2  0
 26 27  1  0
 26 28  1  0
 28 29  2  0
 29 30  1  0
 30 31  2  0
 14  7  1  0
 20 15  1  0
 31 21  1  0
 30 24  1  0
  3 32  1  0
  4 33  1  0
  4 34  1  0
  8 35  1  0
  8 36  1  0
  9 37  1  0
  9 38  1  0
 13 39  1  0
 13 40  1  0
 14 41  1  6
 16 42  1  0
 17 43  1  0
 18 44  1  0
 19 45  1  0
 20 46  1  0
 22 47  1  0
 23 48  1  0
 25 49  1  0
 28 50  1  0
 29 51  1  0
M  END
>  <smiles>  (11) 
O=C(NCC(=O)N1CCC(F)(F)C[C@H]1c1ccccc1)c1ccc2cc(F)ccc2n1

>  <score_type>  (11) 
oracle

>  <origin>  (11) 
autodockgpu

>  <m_score__min__energy>  (11) 
-9.0099999999999998

>  <m_primary>  (11) 
energy

>  <rmsd>  (11) 
2.1848685932872858

>  <m_score__min__rmsd>  (11) 
2.1848685932872858

>  <meeko>  (11) 
{"free_energy": -8.4, "intermolecular_energy": -9.89, "internal_energy": -1.66, "cluster_size": 45, "cluster_id": 1, "rank_in_cluster": 42}

>  <energy>  (11) 
-8.85

>  <cluster_rmsd>  (11) 
1.05

>  <cluster>  (11) 
1

$$$$

     RDKit          3D

 51 54  0  0  0  0  0  0  0  0999 V2000
  141.1940   72.4070  221.7200 O   0  0  0  0  0  0  0  0  0  0  0  0
  140.2120   72.5150  222.5180 C   0  0  0  0  0  0  0  0  0  0  0  0
  139.2230   73.5360  222.3470 N   0  0  0  0  0  0  0  0  0  0  0  0
  139.3010   74.4900  221.2560 C   0  0  0  0  0  0  0  0  0  0  0  0
  140.3810   75.4500  221.5280 C   0  0  0  0  0  0  0  0  0  0  0  0
  141.5220   75.0590  221.8550 O   0  0  0  0  0  0  0  0  0  0  0  0
  140.1080   76.8280  221.4120 N   0  0  0  0  0  0  0  0  0  0  0  0
  138.8460   77.4180  221.8350 C   0  0  0  0  0  0  0  0  0  0  0  0
  138.1920   77.9760  220.6100 C   0  0  0  0  0  0  0  0  0  0  0  0
  139.0550   78.7730  219.7080 C   0  0  0  0  0  0  0  0  0  0  0  0
  138.8890   80.1190  219.9740 F   0  0  0  0  0  0  0  0  0  0  0  0
  138.5450   78.6120  218.4090 F   0  0  0  0  0  0  0  0  0  0  0  0
  140.4970   78.3900  219.6450 C   0  0  0  0  0  0  0  0  0  0  0  0
  141.0850   77.7780  220.8510 C   0  0  1  0  0  0  0  0  0  0  0  0
  141.4480   78.6980  221.9450 C   0  0  0  0  0  0  0  0  0  0  0  0
  141.4700   78.3660  223.2770 C   0  0  0  0  0  0  0  0  0  0  0  0
  141.8370   79.3470  224.2040 C   0  0  0  0  0  0  0  0  0  0  0  0
  142.1730   80.6180  223.8370 C   0  0  0  0  0  0  0  0  0  0  0  0
  142.1490   80.9420  222.5060 C   0  0  0  0  0  0  0  0  0  0  0  0
  141.7920   79.9980  221.5830 C   0  0  0  0  0  0  0  0  0  0  0  0
  140.0700   71.5770  223.6510 C   0  0  0  0  0  0  0  0  0  0  0  0
  139.3990   70.4000  223.4890 C   0  0  0  0  0  0  0  0  0  0  0  0
  139.2440   69.4880  224.5380 C   0  0  0  0  0  0  0  0  0  0  0  0
  139.8090   69.8360  225.7610 C   0  0  0  0  0  0  0  0  0  0  0  0
  139.6840   68.9660  226.8350 C   0  0  0  0  0  0  0  0  0  0  0  0
  140.2490   69.3270  228.0400 C   0  0  0  0  0  0  0  0  0  0  0  0
  140.1310   68.4810  229.0940 F   0  0  0  0  0  0  0  0  0  0  0  0
  140.9240   70.5140  228.1960 C   0  0  0  0  0  0  0  0  0  0  0  0
  141.0590   71.3960  227.1330 C   0  0  0  0  0  0  0  0  0  0  0  0
  140.4940   71.0430  225.9180 C   0  0  0  0  0  0  0  0  0  0  0  0
  140.6070   71.8810  224.8630 N   0  0  0  0  0  0  0  0  0  0  0  0
  138.4330   73.5570  223.0580 H   0  0  0  0  0  0  0  0  0  0  0  0
  139.5102   73.9577  220.3164 H   0  0  0  0  0  0  0  0  0  0  0  0
  138.3448   75.0261  221.1654 H   0  0  0  0  0  0  0  0  0  0  0  0
  138.2034   76.6497  222.2898 H   0  0  0  0  0  0  0  0  0  0  0  0
  139.0124   78.2056  222.5847 H   0  0  0  0  0  0  0  0  0  0  0  0
  137.7916   77.1314  220.0301 H   0  0  0  0  0  0  0  0  0  0  0  0
  137.4292   78.6771  220.9795 H   0  0  0  0  0  0  0  0  0  0  0  0
  140.6130   77.6722  218.8196 H   0  0  0  0  0  0  0  0  0  0  0  0
  141.0372   79.3396  219.5167 H   0  0  0  0  0  0  0  0  0  0  0  0
  142.0237   77.3243  220.5003 H   0  0  0  0  0  0  0  0  0  0  0  0
  141.2049   77.3510  223.6078 H   0  0  0  0  0  0  0  0  0  0  0  0
  141.8556   79.0836  225.2718 H   0  0  0  0  0  0  0  0  0  0  0  0
  142.4566   81.3652  224.5928 H   0  0  0  0  0  0  0  0  0  0  0  0
  142.4161   81.9583  222.1807 H   0  0  0  0  0  0  0  0  0  0  0  0
  141.7761   80.2750  220.5186 H   0  0  0  0  0  0  0  0  0  0  0  0
  138.9678   70.1617  222.5055 H   0  0  0  0  0  0  0  0  0  0  0  0
  138.7013   68.5408  224.4026 H   0  0  0  0  0  0  0  0  0  0  0  0
  139.1474   68.0118  226.7277 H   0  0  0  0  0  0  0  0  0  0  0  0
  141.3615   70.7674  229.1729 H   0  0  0  0  0  0  0  0  0  0  0  0
  141.5986   72.3472  227.2515 H   0  0  0  0  0  0  0  0  0  0  0  0
  1  2  2  0
  2  3  1  0
  3  4  1  0
  4  5  1  0
  5  6  2  0
  5  7  1  0
  7  8  1  0
  8  9  1  0
  9 10  1  0
 10 11  1  0
 10 12  1  0
 10 13  1  0
 13 14  1  0
 14 15  1  0
 15 16  2  0
 16 17  1  0
 17 18  2  0
 18 19  1  0
 19 20  2  0
  2 21  1  0
 21 22  2  0
 22 23  1  0
 23 24  2  0
 24 25  1  0
 25 26  2  0
 26 27  1  0
 26 28  1  0
 28 29  2  0
 29 30  1  0
 30 31  2  0
 14  7  1  0
 20 15  1  0
 31 21  1  0
 30 24  1  0
  3 32  1  0
  4 33  1  0
  4 34  1  0
  8 35  1  0
  8 36  1  0
  9 37  1  0
  9 38  1  0
 13 39  1  0
 13 40  1  0
 14 41  1  6
 16 42  1  0
 17 43  1  0
 18 44  1  0
 19 45  1  0
 20 46  1  0
 22 47  1  0
 23 48  1  0
 25 49  1  0
 28 50  1  0
 29 51  1  0
M  END
>  <smiles>  (12) 
O=C(NCC(=O)N1CCC(F)(F)C[C@H]1c1ccccc1)c1ccc2cc(F)ccc2n1

>  <score_type>  (12) 
oracle

>  <origin>  (12) 
autodockgpu

>  <m_score__min__energy>  (12) 
-9.0099999999999998

>  <m_primary>  (12) 
energy

>  <rmsd>  (12) 
2.206522941964281

>  <m_score__min__rmsd>  (12) 
2.206522941964281

>  <meeko>  (12) 
{"free_energy": -9.01, "intermolecular_energy": -10.5, "internal_energy": -1.26, "cluster_size": 45, "cluster_id": 1, "rank_in_cluster": 1}

>  <energy>  (12) 
-8.85

>  <cluster_rmsd>  (12) 
1.09

>  <cluster>  (12) 
1

$$$$

     RDKit          3D

 51 54  0  0  0  0  0  0  0  0999 V2000
  141.3330   72.5050  221.8140 O   0  0  0  0  0  0  0  0  0  0  0  0
  140.3120   72.5370  222.5690 C   0  0  0  0  0  0  0  0  0  0  0  0
  139.2660   73.4930  222.3650 N   0  0  0  0  0  0  0  0  0  0  0  0
  139.3260   74.4630  221.2870 C   0  0  0  0  0  0  0  0  0  0  0  0
  140.3240   75.4920  221.6160 C   0  0  0  0  0  0  0  0  0  0  0  0
  141.5090   75.1820  221.8670 O   0  0  0  0  0  0  0  0  0  0  0  0
  139.9200   76.8420  221.6450 N   0  0  0  0  0  0  0  0  0  0  0  0
  138.7300   77.2930  222.3510 C   0  0  0  0  0  0  0  0  0  0  0  0
  137.7920   77.8410  221.3200 C   0  0  0  0  0  0  0  0  0  0  0  0
  138.3810   78.7540  220.3130 C   0  0  0  0  0  0  0  0  0  0  0  0
  138.1640   80.0650  220.6900 F   0  0  0  0  0  0  0  0  0  0  0  0
  137.6270   78.6030  219.1370 F   0  0  0  0  0  0  0  0  0  0  0  0
  139.8050   78.5100  219.9360 C   0  0  0  0  0  0  0  0  0  0  0  0
  140.6790   77.9030  220.9570 C   0  0  1  0  0  0  0  0  0  0  0  0
  141.1840   78.8040  222.0100 C   0  0  0  0  0  0  0  0  0  0  0  0
  141.4610   78.4280  223.3020 C   0  0  0  0  0  0  0  0  0  0  0  0
  141.9370   79.3950  224.1910 C   0  0  0  0  0  0  0  0  0  0  0  0
  142.1360   80.6960  223.8280 C   0  0  0  0  0  0  0  0  0  0  0  0
  141.8580   81.0640  222.5380 C   0  0  0  0  0  0  0  0  0  0  0  0
  141.3910   80.1330  221.6510 C   0  0  0  0  0  0  0  0  0  0  0  0
  140.1850   71.5790  223.6860 C   0  0  0  0  0  0  0  0  0  0  0  0
  139.5740   70.3740  223.4930 C   0  0  0  0  0  0  0  0  0  0  0  0
  139.4350   69.4420  224.5250 C   0  0  0  0  0  0  0  0  0  0  0  0
  139.9500   69.8000  225.7680 C   0  0  0  0  0  0  0  0  0  0  0  0
  139.8380   68.9100  226.8270 C   0  0  0  0  0  0  0  0  0  0  0  0
  140.3540   69.2810  228.0510 C   0  0  0  0  0  0  0  0  0  0  0  0
  140.2480   68.4170  229.0920 F   0  0  0  0  0  0  0  0  0  0  0  0
  140.9680   70.4960  228.2400 C   0  0  0  0  0  0  0  0  0  0  0  0
  141.0880   71.3980  227.1920 C   0  0  0  0  0  0  0  0  0  0  0  0
  140.5730   71.0340  225.9580 C   0  0  0  0  0  0  0  0  0  0  0  0
  140.6750   71.8910  224.9160 N   0  0  0  0  0  0  0  0  0  0  0  0
  138.4460   73.4530  223.0410 H   0  0  0  0  0  0  0  0  0  0  0  0
  139.6131   73.9576  220.3531 H   0  0  0  0  0  0  0  0  0  0  0  0
  138.3399   74.9330  221.1581 H   0  0  0  0  0  0  0  0  0  0  0  0
  138.2609   76.4493  222.8784 H   0  0  0  0  0  0  0  0  0  0  0  0
  138.9832   78.0590  223.0987 H   0  0  0  0  0  0  0  0  0  0  0  0
  137.3511   76.9889  220.7820 H   0  0  0  0  0  0  0  0  0  0  0  0
  137.0671   78.4509  221.8790 H   0  0  0  0  0  0  0  0  0  0  0  0
  139.8059   77.8432  219.0611 H   0  0  0  0  0  0  0  0  0  0  0  0
  140.2269   79.5107  219.7609 H   0  0  0  0  0  0  0  0  0  0  0  0
  141.5586   77.5545  220.3958 H   0  0  0  0  0  0  0  0  0  0  0  0
  141.3113   77.3886  223.6293 H   0  0  0  0  0  0  0  0  0  0  0  0
  142.1606   79.0959  225.2257 H   0  0  0  0  0  0  0  0  0  0  0  0
  142.5109   81.4318  224.5546 H   0  0  0  0  0  0  0  0  0  0  0  0
  142.0098   82.1049  222.2164 H   0  0  0  0  0  0  0  0  0  0  0  0
  141.1717   80.4451  220.6193 H   0  0  0  0  0  0  0  0  0  0  0  0
  139.1794   70.1292  222.4958 H   0  0  0  0  0  0  0  0  0  0  0  0
  138.9423   68.4720  224.3630 H   0  0  0  0  0  0  0  0  0  0  0  0
  139.3500   67.9333  226.6935 H   0  0  0  0  0  0  0  0  0  0  0  0
  141.3681   70.7560  229.2311 H   0  0  0  0  0  0  0  0  0  0  0  0
  141.5772   72.3726  227.3366 H   0  0  0  0  0  0  0  0  0  0  0  0
  1  2  2  0
  2  3  1  0
  3  4  1  0
  4  5  1  0
  5  6  2  0
  5  7  1  0
  7  8  1  0
  8  9  1  0
  9 10  1  0
 10 11  1  0
 10 12  1  0
 10 13  1  0
 13 14  1  0
 14 15  1  0
 15 16  2  0
 16 17  1  0
 17 18  2  0
 18 19  1  0
 19 20  2  0
  2 21  1  0
 21 22  2  0
 22 23  1  0
 23 24  2  0
 24 25  1  0
 25 26  2  0
 26 27  1  0
 26 28  1  0
 28 29  2  0
 29 30  1  0
 30 31  2  0
 14  7  1  0
 20 15  1  0
 31 21  1  0
 30 24  1  0
  3 32  1  0
  4 33  1  0
  4 34  1  0
  8 35  1  0
  8 36  1  0
  9 37  1  0
  9 38  1  0
 13 39  1  0
 13 40  1  0
 14 41  1  6
 16 42  1  0
 17 43  1  0
 18 44  1  0
 19 45  1  0
 20 46  1  0
 22 47  1  0
 23 48  1  0
 25 49  1  0
 28 50  1  0
 29 51  1  0
M  END
>  <smiles>  (13) 
O=C(NCC(=O)N1CCC(F)(F)C[C@H]1c1ccccc1)c1ccc2cc(F)ccc2n1

>  <score_type>  (13) 
oracle

>  <origin>  (13) 
autodockgpu

>  <m_score__min__energy>  (13) 
-9.0099999999999998

>  <m_primary>  (13) 
energy

>  <rmsd>  (13) 
2.431743520130131

>  <m_score__min__rmsd>  (13) 
2.431743520130131

>  <meeko>  (13) 
{"free_energy": -8.98, "intermolecular_energy": -10.47, "internal_energy": -1.26, "cluster_size": 45, "cluster_id": 1, "rank_in_cluster": 2}

>  <energy>  (13) 
-8.84

>  <cluster_rmsd>  (13) 
1.06

>  <cluster>  (13) 
1

$$$$

     RDKit          3D

 51 54  0  0  0  0  0  0  0  0999 V2000
  141.6570   72.5070  221.2920 O   0  0  0  0  0  0  0  0  0  0  0  0
  140.6680   72.6490  222.0750 C   0  0  0  0  0  0  0  0  0  0  0  0
  139.9270   73.8740  222.1230 N   0  0  0  0  0  0  0  0  0  0  0  0
  140.2750   75.0030  221.2800 C   0  0  0  0  0  0  0  0  0  0  0  0
  139.6460   76.2190  221.8150 C   0  0  0  0  0  0  0  0  0  0  0  0
  138.7970   76.1560  222.7300 O   0  0  0  0  0  0  0  0  0  0  0  0
  140.0180   77.4670  221.2740 N   0  0  0  0  0  0  0  0  0  0  0  0
  139.0480   78.4910  220.9170 C   0  0  0  0  0  0  0  0  0  0  0  0
  139.1510   78.6920  219.4370 C   0  0  0  0  0  0  0  0  0  0  0  0
  140.5190   78.8200  218.8840 C   0  0  0  0  0  0  0  0  0  0  0  0
  140.8360   80.1550  218.7270 F   0  0  0  0  0  0  0  0  0  0  0  0
  140.4750   78.3190  217.5720 F   0  0  0  0  0  0  0  0  0  0  0  0
  141.6000   78.0670  219.5860 C   0  0  0  0  0  0  0  0  0  0  0  0
  141.4270   77.8280  221.0310 C   0  0  1  0  0  0  0  0  0  0  0  0
  141.7270   78.9610  221.9260 C   0  0  0  0  0  0  0  0  0  0  0  0
  141.9170   80.2580  221.5180 C   0  0  0  0  0  0  0  0  0  0  0  0
  142.1940   81.2290  222.4840 C   0  0  0  0  0  0  0  0  0  0  0  0
  142.2840   80.9390  223.8150 C   0  0  0  0  0  0  0  0  0  0  0  0
  142.0930   79.6430  224.2160 C   0  0  0  0  0  0  0  0  0  0  0  0
  141.8210   78.6770  223.2860 C   0  0  0  0  0  0  0  0  0  0  0  0
  140.2580   71.5410  222.9610 C   0  0  0  0  0  0  0  0  0  0  0  0
  139.4330   70.5580  222.4970 C   0  0  0  0  0  0  0  0  0  0  0  0
  139.0240   69.4940  223.3070 C   0  0  0  0  0  0  0  0  0  0  0  0
  139.4980   69.4810  224.6150 C   0  0  0  0  0  0  0  0  0  0  0  0
  139.1220   68.4460  225.4600 C   0  0  0  0  0  0  0  0  0  0  0  0
  139.6010   68.4500  226.7530 C   0  0  0  0  0  0  0  0  0  0  0  0
  139.2380   67.4420  227.5850 F   0  0  0  0  0  0  0  0  0  0  0  0
  140.4320   69.4430  227.2150 C   0  0  0  0  0  0  0  0  0  0  0  0
  140.8180   70.4850  226.3830 C   0  0  0  0  0  0  0  0  0  0  0  0
  140.3420   70.4910  225.0820 C   0  0  0  0  0  0  0  0  0  0  0  0
  140.7000   71.4930  224.2470 N   0  0  0  0  0  0  0  0  0  0  0  0
  139.1130   73.9100  222.8060 H   0  0  0  0  0  0  0  0  0  0  0  0
  141.3676   75.1293  221.2672 H   0  0  0  0  0  0  0  0  0  0  0  0
  139.9175   74.8227  220.2555 H   0  0  0  0  0  0  0  0  0  0  0  0
  138.0334   78.1602  221.1839 H   0  0  0  0  0  0  0  0  0  0  0  0
  139.2493   79.4284  221.4562 H   0  0  0  0  0  0  0  0  0  0  0  0
  138.6714   77.8312  218.9481 H   0  0  0  0  0  0  0  0  0  0  0  0
  138.6637   79.6580  219.2384 H   0  0  0  0  0  0  0  0  0  0  0  0
  141.6908   77.0859  219.0970 H   0  0  0  0  0  0  0  0  0  0  0  0
  142.4888   78.7106  219.5099 H   0  0  0  0  0  0  0  0  0  0  0  0
  142.1564   77.0401  221.2702 H   0  0  0  0  0  0  0  0  0  0  0  0
  141.8526   80.5271  220.4534 H   0  0  0  0  0  0  0  0  0  0  0  0
  142.3456   82.2689  222.1589 H   0  0  0  0  0  0  0  0  0  0  0  0
  142.5049   81.7281  224.5489 H   0  0  0  0  0  0  0  0  0  0  0  0
  142.1581   79.3799  225.2821 H   0  0  0  0  0  0  0  0  0  0  0  0
  141.6715   77.6410  223.6241 H   0  0  0  0  0  0  0  0  0  0  0  0
  139.0797   70.6039  221.4563 H   0  0  0  0  0  0  0  0  0  0  0  0
  138.3587   68.7043  222.9278 H   0  0  0  0  0  0  0  0  0  0  0  0
  138.4585   67.6427  225.1070 H   0  0  0  0  0  0  0  0  0  0  0  0
  140.7943   69.4115  228.2532 H   0  0  0  0  0  0  0  0  0  0  0  0
  141.4825   71.2828  226.7462 H   0  0  0  0  0  0  0  0  0  0  0  0
  1  2  2  0
  2  3  1  0
  3  4  1  0
  4  5  1  0
  5  6  2  0
  5  7  1  0
  7  8  1  0
  8  9  1  0
  9 10  1  0
 10 11  1  0
 10 12  1  0
 10 13  1  0
 13 14  1  0
 14 15  1  0
 15 16  2  0
 16 17  1  0
 17 18  2  0
 18 19  1  0
 19 20  2  0
  2 21  1  0
 21 22  2  0
 22 23  1  0
 23 24  2  0
 24 25  1  0
 25 26  2  0
 26 27  1  0
 26 28  1  0
 28 29  2  0
 29 30  1  0
 30 31  2  0
 14  7  1  0
 20 15  1  0
 31 21  1  0
 30 24  1  0
  3 32  1  0
  4 33  1  0
  4 34  1  0
  8 35  1  0
  8 36  1  0
  9 37  1  0
  9 38  1  0
 13 39  1  0
 13 40  1  0
 14 41  1  1
 16 42  1  0
 17 43  1  0
 18 44  1  0
 19 45  1  0
 20 46  1  0
 22 47  1  0
 23 48  1  0
 25 49  1  0
 28 50  1  0
 29 51  1  0
M  END
>  <smiles>  (14) 
O=C(NCC(=O)N1CCC(F)(F)C[C@H]1c1ccccc1)c1ccc2cc(F)ccc2n1

>  <score_type>  (14) 
oracle

>  <origin>  (14) 
autodockgpu

>  <m_score__min__energy>  (14) 
-9.0099999999999998

>  <m_primary>  (14) 
energy

>  <rmsd>  (14) 
2.469149642892257

>  <m_score__min__rmsd>  (14) 
2.469149642892257

>  <meeko>  (14) 
{"free_energy": -8.16, "intermolecular_energy": -9.65, "internal_energy": -1.81, "cluster_size": 45, "cluster_id": 1, "rank_in_cluster": 45}

>  <energy>  (14) 
-8.83

>  <cluster_rmsd>  (14) 
1.08

>  <cluster>  (14) 
1

$$$$

     RDKit          3D

 51 54  0  0  0  0  0  0  0  0999 V2000
  141.2450   72.1330  221.3280 O   0  0  0  0  0  0  0  0  0  0  0  0
  140.4930   72.4740  222.2920 C   0  0  0  0  0  0  0  0  0  0  0  0
  139.8450   73.7510  222.3160 N   0  0  0  0  0  0  0  0  0  0  0  0
  140.0210   74.7090  221.2400 C   0  0  0  0  0  0  0  0  0  0  0  0
  139.4440   76.0000  221.6410 C   0  0  0  0  0  0  0  0  0  0  0  0
  138.4820   76.0550  222.4370 O   0  0  0  0  0  0  0  0  0  0  0  0
  139.9960   77.1830  221.1100 N   0  0  0  0  0  0  0  0  0  0  0  0
  139.1780   78.2680  220.5890 C   0  0  0  0  0  0  0  0  0  0  0  0
  139.4890   78.3880  219.1290 C   0  0  0  0  0  0  0  0  0  0  0  0
  140.9230   78.3690  218.7580 C   0  0  0  0  0  0  0  0  0  0  0  0
  141.3800   79.6630  218.5960 F   0  0  0  0  0  0  0  0  0  0  0  0
  141.0020   77.8100  217.4710 F   0  0  0  0  0  0  0  0  0  0  0  0
  141.8310   77.5600  219.6250 C   0  0  0  0  0  0  0  0  0  0  0  0
  141.4510   77.4080  221.0410 C   0  0  1  0  0  0  0  0  0  0  0  0
  141.7380   78.5530  221.9260 C   0  0  0  0  0  0  0  0  0  0  0  0
  142.1940   79.7780  221.5060 C   0  0  0  0  0  0  0  0  0  0  0  0
  142.4200   80.7710  222.4630 C   0  0  0  0  0  0  0  0  0  0  0  0
  142.2050   80.5710  223.7970 C   0  0  0  0  0  0  0  0  0  0  0  0
  141.7500   79.3470  224.2090 C   0  0  0  0  0  0  0  0  0  0  0  0
  141.5230   78.3610  223.2890 C   0  0  0  0  0  0  0  0  0  0  0  0
  140.2690   71.5480  223.4220 C   0  0  0  0  0  0  0  0  0  0  0  0
  139.6130   70.3670  223.2240 C   0  0  0  0  0  0  0  0  0  0  0  0
  139.3830   69.4670  224.2680 C   0  0  0  0  0  0  0  0  0  0  0  0
  139.8560   69.8290  225.5260 C   0  0  0  0  0  0  0  0  0  0  0  0
  139.6540   68.9690  226.5970 C   0  0  0  0  0  0  0  0  0  0  0  0
  140.1280   69.3440  227.8360 C   0  0  0  0  0  0  0  0  0  0  0  0
  139.9340   68.5090  228.8880 F   0  0  0  0  0  0  0  0  0  0  0  0
  140.7890   70.5340  228.0290 C   0  0  0  0  0  0  0  0  0  0  0  0
  141.0000   71.4050  226.9690 C   0  0  0  0  0  0  0  0  0  0  0  0
  140.5260   71.0380  225.7190 C   0  0  0  0  0  0  0  0  0  0  0  0
  140.7150   71.8650  224.6670 N   0  0  0  0  0  0  0  0  0  0  0  0
  139.2320   73.9570  223.1600 H   0  0  0  0  0  0  0  0  0  0  0  0
  141.0937   74.8347  221.0315 H   0  0  0  0  0  0  0  0  0  0  0  0
  139.5143   74.3439  220.3345 H   0  0  0  0  0  0  0  0  0  0  0  0
  138.1115   78.0387  220.7306 H   0  0  0  0  0  0  0  0  0  0  0  0
  139.3933   79.2097  221.1151 H   0  0  0  0  0  0  0  0  0  0  0  0
  138.9983   77.5501  218.6122 H   0  0  0  0  0  0  0  0  0  0  0  0
  139.1234   79.3823  218.8328 H   0  0  0  0  0  0  0  0  0  0  0  0
  141.8936   76.5520  219.1891 H   0  0  0  0  0  0  0  0  0  0  0  0
  142.7780   78.1194  219.6439 H   0  0  0  0  0  0  0  0  0  0  0  0
  142.0669   76.5714  221.4026 H   0  0  0  0  0  0  0  0  0  0  0  0
  142.3775   79.9736  220.4392 H   0  0  0  0  0  0  0  0  0  0  0  0
  142.7857   81.7531  222.1286 H   0  0  0  0  0  0  0  0  0  0  0  0
  142.3931   81.3750  224.5238 H   0  0  0  0  0  0  0  0  0  0  0  0
  141.5676   79.1573  225.2771 H   0  0  0  0  0  0  0  0  0  0  0  0
  141.1583   77.3833  223.6369 H   0  0  0  0  0  0  0  0  0  0  0  0
  139.2555   70.1169  222.2142 H   0  0  0  0  0  0  0  0  0  0  0  0
  138.8531   68.5172  224.1034 H   0  0  0  0  0  0  0  0  0  0  0  0
  139.1288   68.0122  226.4603 H   0  0  0  0  0  0  0  0  0  0  0  0
  141.1539   70.7982  229.0325 H   0  0  0  0  0  0  0  0  0  0  0  0
  141.5279   72.3587  227.1165 H   0  0  0  0  0  0  0  0  0  0  0  0
  1  2  2  0
  2  3  1  0
  3  4  1  0
  4  5  1  0
  5  6  2  0
  5  7  1  0
  7  8  1  0
  8  9  1  0
  9 10  1  0
 10 11  1  0
 10 12  1  0
 10 13  1  0
 13 14  1  0
 14 15  1  0
 15 16  2  0
 16 17  1  0
 17 18  2  0
 18 19  1  0
 19 20  2  0
  2 21  1  0
 21 22  2  0
 22 23  1  0
 23 24  2  0
 24 25  1  0
 25 26  2  0
 26 27  1  0
 26 28  1  0
 28 29  2  0
 29 30  1  0
 30 31  2  0
 14  7  1  0
 20 15  1  0
 31 21  1  0
 30 24  1  0
  3 32  1  0
  4 33  1  0
  4 34  1  0
  8 35  1  0
  8 36  1  0
  9 37  1  0
  9 38  1  0
 13 39  1  0
 13 40  1  0
 14 41  1  1
 16 42  1  0
 17 43  1  0
 18 44  1  0
 19 45  1  0
 20 46  1  0
 22 47  1  0
 23 48  1  0
 25 49  1  0
 28 50  1  0
 29 51  1  0
M  END
>  <smiles>  (15) 
O=C(NCC(=O)N1CCC(F)(F)C[C@H]1c1ccccc1)c1ccc2cc(F)ccc2n1

>  <score_type>  (15) 
oracle

>  <origin>  (15) 
autodockgpu

>  <m_score__min__energy>  (15) 
-9.0099999999999998

>  <m_primary>  (15) 
energy

>  <rmsd>  (15) 
2.140336431758383

>  <m_score__min__rmsd>  (15) 
2.140336431758383

>  <meeko>  (15) 
{"free_energy": -8.74, "intermolecular_energy": -10.23, "internal_energy": -1.8, "cluster_size": 45, "cluster_id": 1, "rank_in_cluster": 21}

>  <energy>  (15) 
-8.83

>  <cluster_rmsd>  (15) 
1.06

>  <cluster>  (15) 
1

$$$$

     RDKit          3D

 51 54  0  0  0  0  0  0  0  0999 V2000
  141.4820   72.5350  221.5970 O   0  0  0  0  0  0  0  0  0  0  0  0
  140.5170   72.6560  222.4130 C   0  0  0  0  0  0  0  0  0  0  0  0
  139.6190   73.7700  222.3440 N   0  0  0  0  0  0  0  0  0  0  0  0
  139.7740   74.8050  221.3390 C   0  0  0  0  0  0  0  0  0  0  0  0
  139.1370   76.0420  221.8150 C   0  0  0  0  0  0  0  0  0  0  0  0
  138.1740   76.0050  222.6100 O   0  0  0  0  0  0  0  0  0  0  0  0
  139.6330   77.2790  221.3550 N   0  0  0  0  0  0  0  0  0  0  0  0
  138.7750   78.4290  221.1110 C   0  0  0  0  0  0  0  0  0  0  0  0
  138.8580   78.7330  219.6470 C   0  0  0  0  0  0  0  0  0  0  0  0
  140.2160   78.7500  219.0540 C   0  0  0  0  0  0  0  0  0  0  0  0
  140.6780   80.0500  218.9860 F   0  0  0  0  0  0  0  0  0  0  0  0
  140.0790   78.3610  217.7120 F   0  0  0  0  0  0  0  0  0  0  0  0
  141.2240   77.8300  219.6590 C   0  0  0  0  0  0  0  0  0  0  0  0
  141.0660   77.4990  221.0870 C   0  0  1  0  0  0  0  0  0  0  0  0
  141.5180   78.5190  222.0520 C   0  0  0  0  0  0  0  0  0  0  0  0
  141.4160   78.4110  223.4180 C   0  0  0  0  0  0  0  0  0  0  0  0
  141.8910   79.4610  224.2080 C   0  0  0  0  0  0  0  0  0  0  0  0
  142.4520   80.5870  223.6780 C   0  0  0  0  0  0  0  0  0  0  0  0
  142.5500   80.6880  222.3150 C   0  0  0  0  0  0  0  0  0  0  0  0
  142.0910   79.6720  221.5230 C   0  0  0  0  0  0  0  0  0  0  0  0
  140.3000   71.6390  223.4630 C   0  0  0  0  0  0  0  0  0  0  0  0
  139.6740   70.4640  223.1630 C   0  0  0  0  0  0  0  0  0  0  0  0
  139.4510   69.4790  224.1290 C   0  0  0  0  0  0  0  0  0  0  0  0
  139.8990   69.7500  225.4180 C   0  0  0  0  0  0  0  0  0  0  0  0
  139.7030   68.8050  226.4150 C   0  0  0  0  0  0  0  0  0  0  0  0
  140.1520   69.0910  227.6870 C   0  0  0  0  0  0  0  0  0  0  0  0
  139.9640   68.1710  228.6670 F   0  0  0  0  0  0  0  0  0  0  0  0
  140.7830   70.2760  227.9830 C   0  0  0  0  0  0  0  0  0  0  0  0
  140.9880   71.2320  226.9980 C   0  0  0  0  0  0  0  0  0  0  0  0
  140.5390   70.9550  225.7170 C   0  0  0  0  0  0  0  0  0  0  0  0
  140.7230   71.8670  224.7350 N   0  0  0  0  0  0  0  0  0  0  0  0
  138.8380   73.7960  223.0640 H   0  0  0  0  0  0  0  0  0  0  0  0
  140.8441   74.9874  221.1610 H   0  0  0  0  0  0  0  0  0  0  0  0
  139.2988   74.4826  220.4008 H   0  0  0  0  0  0  0  0  0  0  0  0
  137.7375   78.1924  221.3897 H   0  0  0  0  0  0  0  0  0  0  0  0
  139.0963   79.2934  221.7107 H   0  0  0  0  0  0  0  0  0  0  0  0
  138.2691   77.9725  219.1133 H   0  0  0  0  0  0  0  0  0  0  0  0
  138.4792   79.7601  219.5397 H   0  0  0  0  0  0  0  0  0  0  0  0
  141.1902   76.8860  219.0953 H   0  0  0  0  0  0  0  0  0  0  0  0
  142.1768   78.3765  219.5995 H   0  0  0  0  0  0  0  0  0  0  0  0
  141.7073   76.6183  221.2393 H   0  0  0  0  0  0  0  0  0  0  0  0
  140.9702   77.5175  223.8795 H   0  0  0  0  0  0  0  0  0  0  0  0
  141.8096   79.3769  225.3017 H   0  0  0  0  0  0  0  0  0  0  0  0
  142.8169   81.3944  224.3299 H   0  0  0  0  0  0  0  0  0  0  0  0
  142.9967   81.5839  221.8591 H   0  0  0  0  0  0  0  0  0  0  0  0
  142.1776   79.7692  220.4307 H   0  0  0  0  0  0  0  0  0  0  0  0
  139.3353   70.2872  222.1315 H   0  0  0  0  0  0  0  0  0  0  0  0
  138.9451   68.5340  223.8819 H   0  0  0  0  0  0  0  0  0  0  0  0
  139.2016   67.8508  226.1959 H   0  0  0  0  0  0  0  0  0  0  0  0
  141.1284   70.4681  229.0095 H   0  0  0  0  0  0  0  0  0  0  0  0
  141.4924   72.1822  227.2278 H   0  0  0  0  0  0  0  0  0  0  0  0
  1  2  2  0
  2  3  1  0
  3  4  1  0
  4  5  1  0
  5  6  2  0
  5  7  1  0
  7  8  1  0
  8  9  1  0
  9 10  1  0
 10 11  1  0
 10 12  1  0
 10 13  1  0
 13 14  1  0
 14 15  1  0
 15 16  2  0
 16 17  1  0
 17 18  2  0
 18 19  1  0
 19 20  2  0
  2 21  1  0
 21 22  2  0
 22 23  1  0
 23 24  2  0
 24 25  1  0
 25 26  2  0
 26 27  1  0
 26 28  1  0
 28 29  2  0
 29 30  1  0
 30 31  2  0
 14  7  1  0
 20 15  1  0
 31 21  1  0
 30 24  1  0
  3 32  1  0
  4 33  1  0
  4 34  1  0
  8 35  1  0
  8 36  1  0
  9 37  1  0
  9 38  1  0
 13 39  1  0
 13 40  1  0
 14 41  1  1
 16 42  1  0
 17 43  1  0
 18 44  1  0
 19 45  1  0
 20 46  1  0
 22 47  1  0
 23 48  1  0
 25 49  1  0
 28 50  1  0
 29 51  1  0
M  END
>  <smiles>  (16) 
O=C(NCC(=O)N1CCC(F)(F)C[C@H]1c1ccccc1)c1ccc2cc(F)ccc2n1

>  <score_type>  (16) 
oracle

>  <origin>  (16) 
autodockgpu

>  <m_score__min__energy>  (16) 
-9.0099999999999998

>  <m_primary>  (16) 
energy

>  <rmsd>  (16) 
2.3097457333345197

>  <m_score__min__rmsd>  (16) 
2.3097457333345197

>  <meeko>  (16) 
{"free_energy": -8.68, "intermolecular_energy": -10.17, "internal_energy": -1.74, "cluster_size": 45, "cluster_id": 1, "rank_in_cluster": 31}

>  <energy>  (16) 
-8.82

>  <cluster_rmsd>  (16) 
1.13

>  <cluster>  (16) 
1

$$$$

     RDKit          3D

 51 54  0  0  0  0  0  0  0  0999 V2000
  140.9180   73.2560  222.0150 O   0  0  0  0  0  0  0  0  0  0  0  0
  139.8620   72.8520  222.5920 C   0  0  0  0  0  0  0  0  0  0  0  0
  138.5880   73.4470  222.3150 N   0  0  0  0  0  0  0  0  0  0  0  0
  138.4520   74.5350  221.3650 C   0  0  0  0  0  0  0  0  0  0  0  0
  138.6700   75.8130  222.0570 C   0  0  0  0  0  0  0  0  0  0  0  0
  138.1110   76.0580  223.1480 O   0  0  0  0  0  0  0  0  0  0  0  0
  139.5250   76.7660  221.4660 N   0  0  0  0  0  0  0  0  0  0  0  0
  139.0910   77.6600  220.4040 C   0  0  0  0  0  0  0  0  0  0  0  0
  139.9020   77.3240  219.1910 C   0  0  0  0  0  0  0  0  0  0  0  0
  141.3600   77.1590  219.3990 C   0  0  0  0  0  0  0  0  0  0  0  0
  142.0120   78.3320  219.0700 F   0  0  0  0  0  0  0  0  0  0  0  0
  141.8060   76.2350  218.4400 F   0  0  0  0  0  0  0  0  0  0  0  0
  141.7940   76.6320  220.7270 C   0  0  0  0  0  0  0  0  0  0  0  0
  140.9290   76.9260  221.8840 C   0  0  1  0  0  0  0  0  0  0  0  0
  141.0400   78.2790  222.4620 C   0  0  0  0  0  0  0  0  0  0  0  0
  140.0950   78.8740  223.2600 C   0  0  0  0  0  0  0  0  0  0  0  0
  140.3400   80.1650  223.7360 C   0  0  0  0  0  0  0  0  0  0  0  0
  141.4800   80.8560  223.4400 C   0  0  0  0  0  0  0  0  0  0  0  0
  142.4180   80.2560  222.6430 C   0  0  0  0  0  0  0  0  0  0  0  0
  142.1980   78.9930  222.1660 C   0  0  0  0  0  0  0  0  0  0  0  0
  139.9270   71.7480  223.5710 C   0  0  0  0  0  0  0  0  0  0  0  0
  139.4870   70.5010  223.2330 C   0  0  0  0  0  0  0  0  0  0  0  0
  139.5330   69.4320  224.1330 C   0  0  0  0  0  0  0  0  0  0  0  0
  140.0510   69.6970  225.3970 C   0  0  0  0  0  0  0  0  0  0  0  0
  140.1200   68.6700  226.3280 C   0  0  0  0  0  0  0  0  0  0  0  0
  140.6350   68.9510  227.5760 C   0  0  0  0  0  0  0  0  0  0  0  0
  140.7060   67.9520  228.4920 F   0  0  0  0  0  0  0  0  0  0  0  0
  141.0780   70.2090  227.9110 C   0  0  0  0  0  0  0  0  0  0  0  0
  141.0170   71.2470  226.9920 C   0  0  0  0  0  0  0  0  0  0  0  0
  140.5000   70.9750  225.7350 C   0  0  0  0  0  0  0  0  0  0  0  0
  140.4260   71.9660  224.8180 N   0  0  0  0  0  0  0  0  0  0  0  0
  137.7540   73.0490  222.8410 H   0  0  0  0  0  0  0  0  0  0  0  0
  139.1970   74.4189  220.5640 H   0  0  0  0  0  0  0  0  0  0  0  0
  137.4425   74.5195  220.9284 H   0  0  0  0  0  0  0  0  0  0  0  0
  138.0212   77.5094  220.1969 H   0  0  0  0  0  0  0  0  0  0  0  0
  139.2338   78.7117  220.6930 H   0  0  0  0  0  0  0  0  0  0  0  0
  139.5137   76.3807  218.7794 H   0  0  0  0  0  0  0  0  0  0  0  0
  139.7983   78.1900  218.5207 H   0  0  0  0  0  0  0  0  0  0  0  0
  141.8700   75.5381  220.6401 H   0  0  0  0  0  0  0  0  0  0  0  0
  142.7405   77.1497  220.9419 H   0  0  0  0  0  0  0  0  0  0  0  0
  141.2637   76.2251  222.6629 H   0  0  0  0  0  0  0  0  0  0  0  0
  139.1653   78.3464  223.5192 H   0  0  0  0  0  0  0  0  0  0  0  0
  139.5837   80.6440  224.3751 H   0  0  0  0  0  0  0  0  0  0  0  0
  141.6410   81.8709  223.8326 H   0  0  0  0  0  0  0  0  0  0  0  0
  143.3460   80.7883  222.3870 H   0  0  0  0  0  0  0  0  0  0  0  0
  142.9617   78.5257  221.5270 H   0  0  0  0  0  0  0  0  0  0  0  0
  139.0845   70.3321  222.2233 H   0  0  0  0  0  0  0  0  0  0  0  0
  139.1766   68.4291  223.8550 H   0  0  0  0  0  0  0  0  0  0  0  0
  139.7725   67.6570  226.0766 H   0  0  0  0  0  0  0  0  0  0  0  0
  141.4843   70.3941  228.9163 H   0  0  0  0  0  0  0  0  0  0  0  0
  141.3686   72.2560  227.2534 H   0  0  0  0  0  0  0  0  0  0  0  0
  1  2  2  0
  2  3  1  0
  3  4  1  0
  4  5  1  0
  5  6  2  0
  5  7  1  0
  7  8  1  0
  8  9  1  0
  9 10  1  0
 10 11  1  0
 10 12  1  0
 10 13  1  0
 13 14  1  0
 14 15  1  0
 15 16  2  0
 16 17  1  0
 17 18  2  0
 18 19  1  0
 19 20  2  0
  2 21  1  0
 21 22  2  0
 22 23  1  0
 23 24  2  0
 24 25  1  0
 25 26  2  0
 26 27  1  0
 26 28  1  0
 28 29  2  0
 29 30  1  0
 30 31  2  0
 14  7  1  0
 20 15  1  0
 31 21  1  0
 30 24  1  0
  3 32  1  0
  4 33  1  0
  4 34  1  0
  8 35  1  0
  8 36  1  0
  9 37  1  0
  9 38  1  0
 13 39  1  0
 13 40  1  0
 14 41  1  1
 16 42  1  0
 17 43  1  0
 18 44  1  0
 19 45  1  0
 20 46  1  0
 22 47  1  0
 23 48  1  0
 25 49  1  0
 28 50  1  0
 29 51  1  0
M  END
>  <smiles>  (17) 
O=C(NCC(=O)N1CCC(F)(F)C[C@H]1c1ccccc1)c1ccc2cc(F)ccc2n1

>  <score_type>  (17) 
oracle

>  <origin>  (17) 
autodockgpu

>  <m_score__min__energy>  (17) 
-9.0099999999999998

>  <m_primary>  (17) 
energy

>  <rmsd>  (17) 
2.0412877040810127

>  <m_score__min__rmsd>  (17) 
2.0412877040810127

>  <meeko>  (17) 
{"free_energy": -8.41, "intermolecular_energy": -9.9, "internal_energy": -1.56, "cluster_size": 45, "cluster_id": 1, "rank_in_cluster": 41}

>  <energy>  (17) 
-8.79

>  <cluster_rmsd>  (17) 
1.26

>  <cluster>  (17) 
1

$$$$

     RDKit          3D

 51 54  0  0  0  0  0  0  0  0999 V2000
  138.8620   71.2070  221.3510 O   0  0  0  0  0  0  0  0  0  0  0  0
  139.2850   71.6930  222.4450 C   0  0  0  0  0  0  0  0  0  0  0  0
  139.5860   73.0870  222.5730 N   0  0  0  0  0  0  0  0  0  0  0  0
  139.4200   74.0030  221.4600 C   0  0  0  0  0  0  0  0  0  0  0  0
  140.4660   75.0350  221.5210 C   0  0  0  0  0  0  0  0  0  0  0  0
  141.6730   74.7230  221.5960 O   0  0  0  0  0  0  0  0  0  0  0  0
  140.0810   76.3910  221.4940 N   0  0  0  0  0  0  0  0  0  0  0  0
  138.8420   76.8690  222.0900 C   0  0  0  0  0  0  0  0  0  0  0  0
  138.0020   77.4110  220.9750 C   0  0  0  0  0  0  0  0  0  0  0  0
  138.6870   78.2990  220.0070 C   0  0  0  0  0  0  0  0  0  0  0  0
  138.4580   79.6200  220.3430 F   0  0  0  0  0  0  0  0  0  0  0  0
  138.0330   78.1390  218.7740 F   0  0  0  0  0  0  0  0  0  0  0  0
  140.1330   78.0300  219.7540 C   0  0  0  0  0  0  0  0  0  0  0  0
  140.9100   77.4290  220.8550 C   0  0  1  0  0  0  0  0  0  0  0  0
  141.3380   78.3410  221.9330 C   0  0  0  0  0  0  0  0  0  0  0  0
  141.3960   78.0130  223.2650 C   0  0  0  0  0  0  0  0  0  0  0  0
  141.8240   78.9850  224.1740 C   0  0  0  0  0  0  0  0  0  0  0  0
  142.1850   80.2440  223.7900 C   0  0  0  0  0  0  0  0  0  0  0  0
  142.1240   80.5650  222.4600 C   0  0  0  0  0  0  0  0  0  0  0  0
  141.7080   79.6290  221.5540 C   0  0  0  0  0  0  0  0  0  0  0  0
  139.4770   70.8180  223.6200 C   0  0  0  0  0  0  0  0  0  0  0  0
  139.0480   69.5220  223.5910 C   0  0  0  0  0  0  0  0  0  0  0  0
  139.2120   68.6660  224.6830 C   0  0  0  0  0  0  0  0  0  0  0  0
  139.8360   69.1950  225.8090 C   0  0  0  0  0  0  0  0  0  0  0  0
  140.0230   68.3860  226.9210 C   0  0  0  0  0  0  0  0  0  0  0  0
  140.6430   68.9270  228.0270 C   0  0  0  0  0  0  0  0  0  0  0  0
  140.8300   68.1420  229.1180 F   0  0  0  0  0  0  0  0  0  0  0  0
  141.0720   70.2320  228.0510 C   0  0  0  0  0  0  0  0  0  0  0  0
  140.8930   71.0560  226.9480 C   0  0  0  0  0  0  0  0  0  0  0  0
  140.2710   70.5210  225.8310 C   0  0  0  0  0  0  0  0  0  0  0  0
  140.0810   71.2980  224.7400 N   0  0  0  0  0  0  0  0  0  0  0  0
  139.9350   73.4130  223.5240 H   0  0  0  0  0  0  0  0  0  0  0  0
  139.5041   73.4498  220.5129 H   0  0  0  0  0  0  0  0  0  0  0  0
  138.4294   74.4779  221.5176 H   0  0  0  0  0  0  0  0  0  0  0  0
  138.3184   76.0404  222.5894 H   0  0  0  0  0  0  0  0  0  0  0  0
  139.0421   77.6444  222.8442 H   0  0  0  0  0  0  0  0  0  0  0  0
  137.5960   76.5555  220.4153 H   0  0  0  0  0  0  0  0  0  0  0  0
  137.2410   78.0394  221.4608 H   0  0  0  0  0  0  0  0  0  0  0  0
  140.1970   77.3482  218.8932 H   0  0  0  0  0  0  0  0  0  0  0  0
  140.5827   79.0217  219.5981 H   0  0  0  0  0  0  0  0  0  0  0  0
  141.8281   77.0598  220.3747 H   0  0  0  0  0  0  0  0  0  0  0  0
  141.1120   77.0076  223.6093 H   0  0  0  0  0  0  0  0  0  0  0  0
  141.8718   78.7247  225.2417 H   0  0  0  0  0  0  0  0  0  0  0  0
  142.5176   80.9845  224.5323 H   0  0  0  0  0  0  0  0  0  0  0  0
  142.4086   81.5723  222.1217 H   0  0  0  0  0  0  0  0  0  0  0  0
  141.6641   79.9028  220.4895 H   0  0  0  0  0  0  0  0  0  0  0  0
  138.5594   69.1411  222.6821 H   0  0  0  0  0  0  0  0  0  0  0  0
  138.8642   67.6228  224.6541 H   0  0  0  0  0  0  0  0  0  0  0  0
  139.6849   67.3392  226.9199 H   0  0  0  0  0  0  0  0  0  0  0  0
  141.5620   70.6278  228.9528 H   0  0  0  0  0  0  0  0  0  0  0  0
  141.2345   72.1016  226.9603 H   0  0  0  0  0  0  0  0  0  0  0  0
  1  2  2  0
  2  3  1  0
  3  4  1  0
  4  5  1  0
  5  6  2  0
  5  7  1  0
  7  8  1  0
  8  9  1  0
  9 10  1  0
 10 11  1  0
 10 12  1  0
 10 13  1  0
 13 14  1  0
 14 15  1  0
 15 16  2  0
 16 17  1  0
 17 18  2  0
 18 19  1  0
 19 20  2  0
  2 21  1  0
 21 22  2  0
 22 23  1  0
 23 24  2  0
 24 25  1  0
 25 26  2  0
 26 27  1  0
 26 28  1  0
 28 29  2  0
 29 30  1  0
 30 31  2  0
 14  7  1  0
 20 15  1  0
 31 21  1  0
 30 24  1  0
  3 32  1  0
  4 33  1  0
  4 34  1  0
  8 35  1  0
  8 36  1  0
  9 37  1  0
  9 38  1  0
 13 39  1  0
 13 40  1  0
 14 41  1  6
 16 42  1  0
 17 43  1  0
 18 44  1  0
 19 45  1  0
 20 46  1  0
 22 47  1  0
 23 48  1  0
 25 49  1  0
 28 50  1  0
 29 51  1  0
M  END
>  <smiles>  (18) 
O=C(NCC(=O)N1CCC(F)(F)C[C@H]1c1ccccc1)c1ccc2cc(F)ccc2n1

>  <score_type>  (18) 
oracle

>  <origin>  (18) 
autodockgpu

>  <m_score__min__energy>  (18) 
-9.0099999999999998

>  <m_primary>  (18) 
energy

>  <rmsd>  (18) 
2.073567408516523

>  <m_score__min__rmsd>  (18) 
2.073567408516523

>  <meeko>  (18) 
{"free_energy": -8.47, "intermolecular_energy": -9.96, "internal_energy": -1.61, "cluster_size": 45, "cluster_id": 1, "rank_in_cluster": 39}

>  <energy>  (18) 
-8.75

>  <cluster_rmsd>  (18) 
1.25

>  <cluster>  (18) 
1

$$$$

     RDKit          3D

 51 54  0  0  0  0  0  0  0  0999 V2000
  141.3070   72.3110  221.4470 O   0  0  0  0  0  0  0  0  0  0  0  0
  140.4410   72.5570  222.3420 C   0  0  0  0  0  0  0  0  0  0  0  0
  139.6400   73.7440  222.2960 N   0  0  0  0  0  0  0  0  0  0  0  0
  139.7840   74.7130  221.2260 C   0  0  0  0  0  0  0  0  0  0  0  0
  139.3930   76.0420  221.7190 C   0  0  0  0  0  0  0  0  0  0  0  0
  138.5470   76.1660  222.6310 O   0  0  0  0  0  0  0  0  0  0  0  0
  139.9920   77.1810  221.1440 N   0  0  0  0  0  0  0  0  0  0  0  0
  139.2200   78.2420  220.5140 C   0  0  0  0  0  0  0  0  0  0  0  0
  139.6070   78.2640  219.0680 C   0  0  0  0  0  0  0  0  0  0  0  0
  141.0570   78.2010  218.7730 C   0  0  0  0  0  0  0  0  0  0  0  0
  141.5440   79.4760  218.5540 F   0  0  0  0  0  0  0  0  0  0  0  0
  141.1920   77.5610  217.5300 F   0  0  0  0  0  0  0  0  0  0  0  0
  141.9060   77.4370  219.7350 C   0  0  0  0  0  0  0  0  0  0  0  0
  141.4520   77.3810  221.1370 C   0  0  1  0  0  0  0  0  0  0  0  0
  141.7130   78.5760  221.9620 C   0  0  0  0  0  0  0  0  0  0  0  0
  142.0810   79.8050  221.4720 C   0  0  0  0  0  0  0  0  0  0  0  0
  142.2930   80.8480  222.3780 C   0  0  0  0  0  0  0  0  0  0  0  0
  142.1480   80.6930  223.7270 C   0  0  0  0  0  0  0  0  0  0  0  0
  141.7810   79.4650  224.2080 C   0  0  0  0  0  0  0  0  0  0  0  0
  141.5690   78.4300  223.3390 C   0  0  0  0  0  0  0  0  0  0  0  0
  140.2420   71.6140  223.4610 C   0  0  0  0  0  0  0  0  0  0  0  0
  139.5850   70.4350  223.2590 C   0  0  0  0  0  0  0  0  0  0  0  0
  139.3770   69.5180  224.2930 C   0  0  0  0  0  0  0  0  0  0  0  0
  139.8740   69.8620  225.5470 C   0  0  0  0  0  0  0  0  0  0  0  0
  139.6950   68.9860  226.6080 C   0  0  0  0  0  0  0  0  0  0  0  0
  140.1940   69.3440  227.8430 C   0  0  0  0  0  0  0  0  0  0  0  0
  140.0230   68.4920  228.8860 F   0  0  0  0  0  0  0  0  0  0  0  0
  140.8550   70.5320  228.0410 C   0  0  0  0  0  0  0  0  0  0  0  0
  141.0430   71.4200  226.9910 C   0  0  0  0  0  0  0  0  0  0  0  0
  140.5460   71.0700  225.7460 C   0  0  0  0  0  0  0  0  0  0  0  0
  140.7120   71.9140  224.7020 N   0  0  0  0  0  0  0  0  0  0  0  0
  138.9390   73.8740  223.0850 H   0  0  0  0  0  0  0  0  0  0  0  0
  140.8317   74.7385  220.8917 H   0  0  0  0  0  0  0  0  0  0  0  0
  139.1391   74.4285  220.3815 H   0  0  0  0  0  0  0  0  0  0  0  0
  138.1439   78.0370  220.6142 H   0  0  0  0  0  0  0  0  0  0  0  0
  139.4240   79.2123  220.9902 H   0  0  0  0  0  0  0  0  0  0  0  0
  139.1286   77.4018  218.5804 H   0  0  0  0  0  0  0  0  0  0  0  0
  139.2746   79.2427  218.6916 H   0  0  0  0  0  0  0  0  0  0  0  0
  141.9736   76.4024  219.3674 H   0  0  0  0  0  0  0  0  0  0  0  0
  142.8601   77.9836  219.7674 H   0  0  0  0  0  0  0  0  0  0  0  0
  142.0345   76.5610  221.5823 H   0  0  0  0  0  0  0  0  0  0  0  0
  142.2061   79.9650  220.3909 H   0  0  0  0  0  0  0  0  0  0  0  0
  142.5886   81.8334  221.9887 H   0  0  0  0  0  0  0  0  0  0  0  0
  142.3222   81.5360  224.4118 H   0  0  0  0  0  0  0  0  0  0  0  0
  141.6570   79.3110  225.2901 H   0  0  0  0  0  0  0  0  0  0  0  0
  141.2749   77.4495  223.7417 H   0  0  0  0  0  0  0  0  0  0  0  0
  139.2081   70.1995  222.2528 H   0  0  0  0  0  0  0  0  0  0  0  0
  138.8459   68.5697  224.1240 H   0  0  0  0  0  0  0  0  0  0  0  0
  139.1686   68.0304  226.4678 H   0  0  0  0  0  0  0  0  0  0  0  0
  141.2389   70.7818  229.0411 H   0  0  0  0  0  0  0  0  0  0  0  0
  141.5708   72.3731  227.1428 H   0  0  0  0  0  0  0  0  0  0  0  0
  1  2  2  0
  2  3  1  0
  3  4  1  0
  4  5  1  0
  5  6  2  0
  5  7  1  0
  7  8  1  0
  8  9  1  0
  9 10  1  0
 10 11  1  0
 10 12  1  0
 10 13  1  0
 13 14  1  0
 14 15  1  0
 15 16  2  0
 16 17  1  0
 17 18  2  0
 18 19  1  0
 19 20  2  0
  2 21  1  0
 21 22  2  0
 22 23  1  0
 23 24  2  0
 24 25  1  0
 25 26  2  0
 26 27  1  0
 26 28  1  0
 28 29  2  0
 29 30  1  0
 30 31  2  0
 14  7  1  0
 20 15  1  0
 31 21  1  0
 30 24  1  0
  3 32  1  0
  4 33  1  0
  4 34  1  0
  8 35  1  0
  8 36  1  0
  9 37  1  0
  9 38  1  0
 13 39  1  0
 13 40  1  0
 14 41  1  1
 16 42  1  0
 17 43  1  0
 18 44  1  0
 19 45  1  0
 20 46  1  0
 22 47  1  0
 23 48  1  0
 25 49  1  0
 28 50  1  0
 29 51  1  0
M  END
>  <smiles>  (19) 
O=C(NCC(=O)N1CCC(F)(F)C[C@H]1c1ccccc1)c1ccc2cc(F)ccc2n1

>  <score_type>  (19) 
oracle

>  <origin>  (19) 
autodockgpu

>  <m_score__min__energy>  (19) 
-9.0099999999999998

>  <m_primary>  (19) 
energy

>  <rmsd>  (19) 
2.1103790027847165

>  <m_score__min__rmsd>  (19) 
2.1103790027847165

>  <meeko>  (19) 
{"free_energy": -8.85, "intermolecular_energy": -10.34, "internal_energy": -1.74, "cluster_size": 45, "cluster_id": 1, "rank_in_cluster": 12}

>  <energy>  (19) 
-8.75

>  <cluster_rmsd>  (19) 
1.0

>  <cluster>  (19) 
1

$$$$

     RDKit          3D

 51 54  0  0  0  0  0  0  0  0999 V2000
  138.7290   71.1690  221.4330 O   0  0  0  0  0  0  0  0  0  0  0  0
  139.2150   71.6530  222.5010 C   0  0  0  0  0  0  0  0  0  0  0  0
  139.5500   73.0420  222.6040 N   0  0  0  0  0  0  0  0  0  0  0  0
  139.3470   73.9530  221.4940 C   0  0  0  0  0  0  0  0  0  0  0  0
  140.6540   74.4090  220.9960 C   0  0  0  0  0  0  0  0  0  0  0  0
  141.0610   75.5680  221.2260 O   0  0  0  0  0  0  0  0  0  0  0  0
  141.4450   73.5110  220.2510 N   0  0  0  0  0  0  0  0  0  0  0  0
  141.5500   73.5730  218.8010 C   0  0  0  0  0  0  0  0  0  0  0  0
  140.9770   72.2980  218.2660 C   0  0  0  0  0  0  0  0  0  0  0  0
  141.4120   71.0490  218.9340 C   0  0  0  0  0  0  0  0  0  0  0  0
  142.4390   70.4700  218.2150 F   0  0  0  0  0  0  0  0  0  0  0  0
  140.3510   70.1350  218.8190 F   0  0  0  0  0  0  0  0  0  0  0  0
  141.7310   71.1420  220.3900 C   0  0  0  0  0  0  0  0  0  0  0  0
  142.2270   72.4370  220.8900 C   0  0  1  0  0  0  0  0  0  0  0  0
  143.6460   72.7440  220.6280 C   0  0  0  0  0  0  0  0  0  0  0  0
  144.5860   71.8320  220.2140 C   0  0  0  0  0  0  0  0  0  0  0  0
  145.8960   72.2710  220.0050 C   0  0  0  0  0  0  0  0  0  0  0  0
  146.2780   73.5680  220.1950 C   0  0  0  0  0  0  0  0  0  0  0  0
  145.3360   74.4720  220.6080 C   0  0  0  0  0  0  0  0  0  0  0  0
  144.0480   74.0640  220.8190 C   0  0  0  0  0  0  0  0  0  0  0  0
  139.4470   70.7820  223.6720 C   0  0  0  0  0  0  0  0  0  0  0  0
  139.0790   69.4680  223.6350 C   0  0  0  0  0  0  0  0  0  0  0  0
  139.2820   68.6140  224.7230 C   0  0  0  0  0  0  0  0  0  0  0  0
  139.8810   69.1650  225.8520 C   0  0  0  0  0  0  0  0  0  0  0  0
  140.1060   68.3590  226.9590 C   0  0  0  0  0  0  0  0  0  0  0  0
  140.7000   68.9230  228.0690 C   0  0  0  0  0  0  0  0  0  0  0  0
  140.9230   68.1410  229.1560 F   0  0  0  0  0  0  0  0  0  0  0  0
  141.0690   70.2470  228.1000 C   0  0  0  0  0  0  0  0  0  0  0  0
  140.8520   71.0670  227.0010 C   0  0  0  0  0  0  0  0  0  0  0  0
  140.2550   70.5100  225.8810 C   0  0  0  0  0  0  0  0  0  0  0  0
  140.0290   71.2830  224.7940 N   0  0  0  0  0  0  0  0  0  0  0  0
  139.9520   73.3660  223.5340 H   0  0  0  0  0  0  0  0  0  0  0  0
  138.8064   73.4356  220.6878 H   0  0  0  0  0  0  0  0  0  0  0  0
  138.7575   74.8188  221.8300 H   0  0  0  0  0  0  0  0  0  0  0  0
  140.9814   74.4330  218.4175 H   0  0  0  0  0  0  0  0  0  0  0  0
  142.5975   73.6944  218.4880 H   0  0  0  0  0  0  0  0  0  0  0  0
  139.8823   72.3605  218.3533 H   0  0  0  0  0  0  0  0  0  0  0  0
  141.3479   72.2216  217.2333 H   0  0  0  0  0  0  0  0  0  0  0  0
  140.8125   70.9026  220.9459 H   0  0  0  0  0  0  0  0  0  0  0  0
  142.5649   70.4411  220.5427 H   0  0  0  0  0  0  0  0  0  0  0  0
  142.1179   72.3701  221.9825 H   0  0  0  0  0  0  0  0  0  0  0  0
  144.3134   70.7789  220.0505 H   0  0  0  0  0  0  0  0  0  0  0  0
  146.6502   71.5420  219.6739 H   0  0  0  0  0  0  0  0  0  0  0  0
  147.3184   73.8795  220.0204 H   0  0  0  0  0  0  0  0  0  0  0  0
  145.6147   75.5238  220.7696 H   0  0  0  0  0  0  0  0  0  0  0  0
  143.3041   74.8033  221.1508 H   0  0  0  0  0  0  0  0  0  0  0  0
  138.6095   69.0699  222.7234 H   0  0  0  0  0  0  0  0  0  0  0  0
  138.9824   67.5562  224.6884 H   0  0  0  0  0  0  0  0  0  0  0  0
  139.8180   67.2974  226.9516 H   0  0  0  0  0  0  0  0  0  0  0  0
  141.5405   70.6604  229.0038 H   0  0  0  0  0  0  0  0  0  0  0  0
  141.1451   72.1271  227.0186 H   0  0  0  0  0  0  0  0  0  0  0  0
  1  2  2  0
  2  3  1  0
  3  4  1  0
  4  5  1  0
  5  6  2  0
  5  7  1  0
  7  8  1  0
  8  9  1  0
  9 10  1  0
 10 11  1  0
 10 12  1  0
 10 13  1  0
 13 14  1  0
 14 15  1  0
 15 16  2  0
 16 17  1  0
 17 18  2  0
 18 19  1  0
 19 20  2  0
  2 21  1  0
 21 22  2  0
 22 23  1  0
 23 24  2  0
 24 25  1  0
 25 26  2  0
 26 27  1  0
 26 28  1  0
 28 29  2  0
 29 30  1  0
 30 31  2  0
 14  7  1  0
 20 15  1  0
 31 21  1  0
 30 24  1  0
  3 32  1  0
  4 33  1  0
  4 34  1  0
  8 35  1  0
  8 36  1  0
  9 37  1  0
  9 38  1  0
 13 39  1  0
 13 40  1  0
 14 41  1  1
 16 42  1  0
 17 43  1  0
 18 44  1  0
 19 45  1  0
 20 46  1  0
 22 47  1  0
 23 48  1  0
 25 49  1  0
 28 50  1  0
 29 51  1  0
M  END
>  <smiles>  (20) 
O=C(NCC(=O)N1CCC(F)(F)C[C@H]1c1ccccc1)c1ccc2cc(F)ccc2n1

>  <score_type>  (20) 
oracle

>  <origin>  (20) 
autodockgpu

>  <m_score__min__energy>  (20) 
-9.0099999999999998

>  <m_primary>  (20) 
energy

>  <rmsd>  (20) 
2.909964796665662

>  <m_score__min__rmsd>  (20) 
2.909964796665662

>  <meeko>  (20) 
{"free_energy": -7.37, "intermolecular_energy": -8.86, "internal_energy": -2.21, "cluster_size": 1, "cluster_id": 5, "rank_in_cluster": 1}

>  <energy>  (20) 
-8.75

>  <cluster_rmsd>  (20) 
0.96

>  <cluster>  (20) 
1

$$$$

     RDKit          3D

 51 54  0  0  0  0  0  0  0  0999 V2000
  141.3590   72.2970  221.5970 O   0  0  0  0  0  0  0  0  0  0  0  0
  140.4430   72.5240  222.4460 C   0  0  0  0  0  0  0  0  0  0  0  0
  139.6050   73.6810  222.3450 N   0  0  0  0  0  0  0  0  0  0  0  0
  139.7650   74.6400  221.2680 C   0  0  0  0  0  0  0  0  0  0  0  0
  139.3140   75.9620  221.7260 C   0  0  0  0  0  0  0  0  0  0  0  0
  138.3550   76.0760  222.5190 O   0  0  0  0  0  0  0  0  0  0  0  0
  139.9840   77.1080  221.2510 N   0  0  0  0  0  0  0  0  0  0  0  0
  139.3450   78.0960  220.3950 C   0  0  0  0  0  0  0  0  0  0  0  0
  140.0750   78.0790  219.0880 C   0  0  0  0  0  0  0  0  0  0  0  0
  141.5550   78.0860  219.1600 C   0  0  0  0  0  0  0  0  0  0  0  0
  142.0220   79.3760  218.9960 F   0  0  0  0  0  0  0  0  0  0  0  0
  142.0210   77.4030  218.0250 F   0  0  0  0  0  0  0  0  0  0  0  0
  142.1730   77.4140  220.3410 C   0  0  0  0  0  0  0  0  0  0  0  0
  141.3910   77.3910  221.5900 C   0  0  1  0  0  0  0  0  0  0  0  0
  141.3860   78.6330  222.3860 C   0  0  0  0  0  0  0  0  0  0  0  0
  140.3230   79.0900  223.1260 C   0  0  0  0  0  0  0  0  0  0  0  0
  140.4670   80.2870  223.8330 C   0  0  0  0  0  0  0  0  0  0  0  0
  141.6190   81.0180  223.8170 C   0  0  0  0  0  0  0  0  0  0  0  0
  142.6760   80.5570  223.0770 C   0  0  0  0  0  0  0  0  0  0  0  0
  142.5560   79.3880  222.3770 C   0  0  0  0  0  0  0  0  0  0  0  0
  140.2240   71.5890  223.5690 C   0  0  0  0  0  0  0  0  0  0  0  0
  139.5510   70.4180  223.3670 C   0  0  0  0  0  0  0  0  0  0  0  0
  139.3240   69.5100  224.4050 C   0  0  0  0  0  0  0  0  0  0  0  0
  139.8170   69.8530  225.6600 C   0  0  0  0  0  0  0  0  0  0  0  0
  139.6190   68.9840  226.7240 C   0  0  0  0  0  0  0  0  0  0  0  0
  140.1140   69.3410  227.9610 C   0  0  0  0  0  0  0  0  0  0  0  0
  139.9250   68.4970  229.0070 F   0  0  0  0  0  0  0  0  0  0  0  0
  140.7910   70.5210  228.1580 C   0  0  0  0  0  0  0  0  0  0  0  0
  140.9990   71.4010  227.1040 C   0  0  0  0  0  0  0  0  0  0  0  0
  140.5040   71.0520  225.8570 C   0  0  0  0  0  0  0  0  0  0  0  0
  140.6900   71.8880  224.8110 N   0  0  0  0  0  0  0  0  0  0  0  0
  138.8620   73.7960  223.0970 H   0  0  0  0  0  0  0  0  0  0  0  0
  140.8246   74.6932  220.9774 H   0  0  0  0  0  0  0  0  0  0  0  0
  139.1654   74.3252  220.4012 H   0  0  0  0  0  0  0  0  0  0  0  0
  138.2876   77.8350  220.2407 H   0  0  0  0  0  0  0  0  0  0  0  0
  139.3822   79.0955  220.8529 H   0  0  0  0  0  0  0  0  0  0  0  0
  139.7705   77.1713  218.5464 H   0  0  0  0  0  0  0  0  0  0  0  0
  139.8022   79.0204  218.5886 H   0  0  0  0  0  0  0  0  0  0  0  0
  142.3762   76.3704  220.0588 H   0  0  0  0  0  0  0  0  0  0  0  0
  143.0631   78.0162  220.5755 H   0  0  0  0  0  0  0  0  0  0  0  0
  141.8821   76.6253  222.2086 H   0  0  0  0  0  0  0  0  0  0  0  0
  139.3791   78.5263  223.1615 H   0  0  0  0  0  0  0  0  0  0  0  0
  139.6170   80.6548  224.4265 H   0  0  0  0  0  0  0  0  0  0  0  0
  141.6974   81.9564  224.3855 H   0  0  0  0  0  0  0  0  0  0  0  0
  143.6176   81.1249  223.0460 H   0  0  0  0  0  0  0  0  0  0  0  0
  143.4132   79.0321  221.7867 H   0  0  0  0  0  0  0  0  0  0  0  0
  139.1772   70.1829  222.3595 H   0  0  0  0  0  0  0  0  0  0  0  0
  138.7809   68.5682  224.2375 H   0  0  0  0  0  0  0  0  0  0  0  0
  139.0810   68.0348  226.5843 H   0  0  0  0  0  0  0  0  0  0  0  0
  141.1714   70.7705  229.1595 H   0  0  0  0  0  0  0  0  0  0  0  0
  141.5403   72.3467  227.2541 H   0  0  0  0  0  0  0  0  0  0  0  0
  1  2  2  0
  2  3  1  0
  3  4  1  0
  4  5  1  0
  5  6  2  0
  5  7  1  0
  7  8  1  0
  8  9  1  0
  9 10  1  0
 10 11  1  0
 10 12  1  0
 10 13  1  0
 13 14  1  0
 14 15  1  0
 15 16  2  0
 16 17  1  0
 17 18  2  0
 18 19  1  0
 19 20  2  0
  2 21  1  0
 21 22  2  0
 22 23  1  0
 23 24  2  0
 24 25  1  0
 25 26  2  0
 26 27  1  0
 26 28  1  0
 28 29  2  0
 29 30  1  0
 30 31  2  0
 14  7  1  0
 20 15  1  0
 31 21  1  0
 30 24  1  0
  3 32  1  0
  4 33  1  0
  4 34  1  0
  8 35  1  0
  8 36  1  0
  9 37  1  0
  9 38  1  0
 13 39  1  0
 13 40  1  0
 14 41  1  1
 16 42  1  0
 17 43  1  0
 18 44  1  0
 19 45  1  0
 20 46  1  0
 22 47  1  0
 23 48  1  0
 25 49  1  0
 28 50  1  0
 29 51  1  0
M  END
>  <smiles>  (21) 
O=C(NCC(=O)N1CCC(F)(F)C[C@H]1c1ccccc1)c1ccc2cc(F)ccc2n1

>  <score_type>  (21) 
oracle

>  <origin>  (21) 
autodockgpu

>  <m_score__min__energy>  (21) 
-9.0099999999999998

>  <m_primary>  (21) 
energy

>  <rmsd>  (21) 
2.152802831320228

>  <m_score__min__rmsd>  (21) 
2.152802831320228

>  <meeko>  (21) 
{"free_energy": -8.94, "intermolecular_energy": -10.43, "internal_energy": -1.62, "cluster_size": 45, "cluster_id": 1, "rank_in_cluster": 6}

>  <energy>  (21) 
-8.74

>  <cluster_rmsd>  (21) 
1.07

>  <cluster>  (21) 
1

$$$$

     RDKit          3D

 51 54  0  0  0  0  0  0  0  0999 V2000
  141.3450   72.2090  221.5650 O   0  0  0  0  0  0  0  0  0  0  0  0
  140.4460   72.4660  222.4240 C   0  0  0  0  0  0  0  0  0  0  0  0
  139.6400   73.6460  222.3260 N   0  0  0  0  0  0  0  0  0  0  0  0
  139.8160   74.5950  221.2430 C   0  0  0  0  0  0  0  0  0  0  0  0
  139.3320   75.9160  221.6720 C   0  0  0  0  0  0  0  0  0  0  0  0
  138.3600   76.0230  222.4490 O   0  0  0  0  0  0  0  0  0  0  0  0
  139.9880   77.0660  221.1890 N   0  0  0  0  0  0  0  0  0  0  0  0
  139.3340   78.0420  220.3300 C   0  0  0  0  0  0  0  0  0  0  0  0
  140.0580   78.0270  219.0200 C   0  0  0  0  0  0  0  0  0  0  0  0
  141.5380   78.0510  219.0850 C   0  0  0  0  0  0  0  0  0  0  0  0
  141.9900   79.3450  218.9130 F   0  0  0  0  0  0  0  0  0  0  0  0
  142.0070   77.3670  217.9520 F   0  0  0  0  0  0  0  0  0  0  0  0
  142.1690   77.3910  220.2670 C   0  0  0  0  0  0  0  0  0  0  0  0
  141.3920   77.3670  221.5200 C   0  0  1  0  0  0  0  0  0  0  0  0
  141.3770   78.6120  222.3100 C   0  0  0  0  0  0  0  0  0  0  0  0
  140.3650   78.9970  223.1540 C   0  0  0  0  0  0  0  0  0  0  0  0
  140.4910   80.2080  223.8400 C   0  0  0  0  0  0  0  0  0  0  0  0
  141.5780   81.0230  223.7030 C   0  0  0  0  0  0  0  0  0  0  0  0
  142.5840   80.6330  222.8590 C   0  0  0  0  0  0  0  0  0  0  0  0
  142.4810   79.4510  222.1780 C   0  0  0  0  0  0  0  0  0  0  0  0
  140.2130   71.5430  223.5530 C   0  0  0  0  0  0  0  0  0  0  0  0
  139.5390   70.3720  223.3570 C   0  0  0  0  0  0  0  0  0  0  0  0
  139.3000   69.4740  224.4010 C   0  0  0  0  0  0  0  0  0  0  0  0
  139.7800   69.8290  225.6580 C   0  0  0  0  0  0  0  0  0  0  0  0
  139.5690   68.9730  226.7290 C   0  0  0  0  0  0  0  0  0  0  0  0
  140.0520   69.3410  227.9670 C   0  0  0  0  0  0  0  0  0  0  0  0
  139.8490   68.5080  229.0200 F   0  0  0  0  0  0  0  0  0  0  0  0
  140.7290   70.5220  228.1590 C   0  0  0  0  0  0  0  0  0  0  0  0
  140.9490   71.3900  227.0990 C   0  0  0  0  0  0  0  0  0  0  0  0
  140.4680   71.0290  225.8510 C   0  0  0  0  0  0  0  0  0  0  0  0
  140.6660   71.8540  224.7980 N   0  0  0  0  0  0  0  0  0  0  0  0
  138.9090   73.7870  223.0860 H   0  0  0  0  0  0  0  0  0  0  0  0
  140.8825   74.6612  220.9819 H   0  0  0  0  0  0  0  0  0  0  0  0
  139.2459   74.2610  220.3636 H   0  0  0  0  0  0  0  0  0  0  0  0
  138.2791   77.7679  220.1817 H   0  0  0  0  0  0  0  0  0  0  0  0
  139.3620   79.0442  220.7825 H   0  0  0  0  0  0  0  0  0  0  0  0
  139.7613   77.1133  218.4841 H   0  0  0  0  0  0  0  0  0  0  0  0
  139.7724   78.9629  218.5175 H   0  0  0  0  0  0  0  0  0  0  0  0
  142.3815   76.3480  219.9894 H   0  0  0  0  0  0  0  0  0  0  0  0
  143.0545   78.0028  220.4942 H   0  0  0  0  0  0  0  0  0  0  0  0
  141.8945   76.6106  222.1408 H   0  0  0  0  0  0  0  0  0  0  0  0
  139.4741   78.3658  223.2875 H   0  0  0  0  0  0  0  0  0  0  0  0
  139.6817   80.5172  224.5178 H   0  0  0  0  0  0  0  0  0  0  0  0
  141.6443   81.9707  224.2575 H   0  0  0  0  0  0  0  0  0  0  0  0
  143.4723   81.2686  222.7292 H   0  0  0  0  0  0  0  0  0  0  0  0
  143.2974   79.1532  221.5036 H   0  0  0  0  0  0  0  0  0  0  0  0
  139.1736   70.1283  222.3485 H   0  0  0  0  0  0  0  0  0  0  0  0
  138.7580   68.5310  224.2368 H   0  0  0  0  0  0  0  0  0  0  0  0
  139.0296   68.0239  226.5940 H   0  0  0  0  0  0  0  0  0  0  0  0
  141.0996   70.7812  229.1618 H   0  0  0  0  0  0  0  0  0  0  0  0
  141.4894   72.3369  227.2453 H   0  0  0  0  0  0  0  0  0  0  0  0
  1  2  2  0
  2  3  1  0
  3  4  1  0
  4  5  1  0
  5  6  2  0
  5  7  1  0
  7  8  1  0
  8  9  1  0
  9 10  1  0
 10 11  1  0
 10 12  1  0
 10 13  1  0
 13 14  1  0
 14 15  1  0
 15 16  2  0
 16 17  1  0
 17 18  2  0
 18 19  1  0
 19 20  2  0
  2 21  1  0
 21 22  2  0
 22 23  1  0
 23 24  2  0
 24 25  1  0
 25 26  2  0
 26 27  1  0
 26 28  1  0
 28 29  2  0
 29 30  1  0
 30 31  2  0
 14  7  1  0
 20 15  1  0
 31 21  1  0
 30 24  1  0
  3 32  1  0
  4 33  1  0
  4 34  1  0
  8 35  1  0
  8 36  1  0
  9 37  1  0
  9 38  1  0
 13 39  1  0
 13 40  1  0
 14 41  1  1
 16 42  1  0
 17 43  1  0
 18 44  1  0
 19 45  1  0
 20 46  1  0
 22 47  1  0
 23 48  1  0
 25 49  1  0
 28 50  1  0
 29 51  1  0
M  END
>  <smiles>  (22) 
O=C(NCC(=O)N1CCC(F)(F)C[C@H]1c1ccccc1)c1ccc2cc(F)ccc2n1

>  <score_type>  (22) 
oracle

>  <origin>  (22) 
autodockgpu

>  <m_score__min__energy>  (22) 
-9.0099999999999998

>  <m_primary>  (22) 
energy

>  <rmsd>  (22) 
2.1143081151053504

>  <m_score__min__rmsd>  (22) 
2.1143081151053504

>  <meeko>  (22) 
{"free_energy": -8.79, "intermolecular_energy": -10.29, "internal_energy": -1.68, "cluster_size": 45, "cluster_id": 1, "rank_in_cluster": 17}

>  <energy>  (22) 
-8.73

>  <cluster_rmsd>  (22) 
1.09

>  <cluster>  (22) 
1

$$$$

     RDKit          3D

 51 54  0  0  0  0  0  0  0  0999 V2000
  141.3480   72.7440  221.9130 O   0  0  0  0  0  0  0  0  0  0  0  0
  140.2720   72.6330  222.5780 C   0  0  0  0  0  0  0  0  0  0  0  0
  139.1450   73.4770  222.3160 N   0  0  0  0  0  0  0  0  0  0  0  0
  139.1850   74.4930  221.2810 C   0  0  0  0  0  0  0  0  0  0  0  0
  139.2560   75.8220  221.9080 C   0  0  0  0  0  0  0  0  0  0  0  0
  138.7050   76.0450  223.0070 O   0  0  0  0  0  0  0  0  0  0  0  0
  139.9610   76.8460  221.2440 N   0  0  0  0  0  0  0  0  0  0  0  0
  139.3070   77.8220  220.3850 C   0  0  0  0  0  0  0  0  0  0  0  0
  139.8460   77.6190  219.0030 C   0  0  0  0  0  0  0  0  0  0  0  0
  141.3160   77.4750  218.8850 C   0  0  0  0  0  0  0  0  0  0  0  0
  141.8770   78.6900  218.5390 F   0  0  0  0  0  0  0  0  0  0  0  0
  141.5560   76.6540  217.7710 F   0  0  0  0  0  0  0  0  0  0  0  0
  142.0240   76.8410  220.0360 C   0  0  0  0  0  0  0  0  0  0  0  0
  141.4210   77.0050  221.3720 C   0  0  1  0  0  0  0  0  0  0  0  0
  141.6420   78.3020  222.0390 C   0  0  0  0  0  0  0  0  0  0  0  0
  141.9190   79.4820  221.3930 C   0  0  0  0  0  0  0  0  0  0  0  0
  142.1040   80.6360  222.1610 C   0  0  0  0  0  0  0  0  0  0  0  0
  142.0190   80.6360  223.5230 C   0  0  0  0  0  0  0  0  0  0  0  0
  141.7430   79.4550  224.1610 C   0  0  0  0  0  0  0  0  0  0  0  0
  141.5590   78.3140  223.4290 C   0  0  0  0  0  0  0  0  0  0  0  0
  140.1620   71.6200  223.6470 C   0  0  0  0  0  0  0  0  0  0  0  0
  139.5660   70.4170  223.3960 C   0  0  0  0  0  0  0  0  0  0  0  0
  139.4440   69.4340  224.3830 C   0  0  0  0  0  0  0  0  0  0  0  0
  139.9590   69.7370  225.6390 C   0  0  0  0  0  0  0  0  0  0  0  0
  139.8630   68.7960  226.6540 C   0  0  0  0  0  0  0  0  0  0  0  0
  140.3780   69.1130  227.8930 C   0  0  0  0  0  0  0  0  0  0  0  0
  140.2890   68.1970  228.8900 F   0  0  0  0  0  0  0  0  0  0  0  0
  140.9770   70.3260  228.1390 C   0  0  0  0  0  0  0  0  0  0  0  0
  141.0820   71.2790  227.1360 C   0  0  0  0  0  0  0  0  0  0  0  0
  140.5660   70.9700  225.8870 C   0  0  0  0  0  0  0  0  0  0  0  0
  140.6520   71.8780  224.8890 N   0  0  0  0  0  0  0  0  0  0  0  0
  138.2830   73.3190  222.9180 H   0  0  0  0  0  0  0  0  0  0  0  0
  140.0707   74.3377  220.6474 H   0  0  0  0  0  0  0  0  0  0  0  0
  138.2781   74.4251  220.6622 H   0  0  0  0  0  0  0  0  0  0  0  0
  138.2186   77.6632  220.3931 H   0  0  0  0  0  0  0  0  0  0  0  0
  139.5012   78.8464  220.7357 H   0  0  0  0  0  0  0  0  0  0  0  0
  139.3863   76.7068  218.5949 H   0  0  0  0  0  0  0  0  0  0  0  0
  139.5969   78.5388  218.4536 H   0  0  0  0  0  0  0  0  0  0  0  0
  142.0872   75.7620  219.8318 H   0  0  0  0  0  0  0  0  0  0  0  0
  142.9909   77.3621  220.0957 H   0  0  0  0  0  0  0  0  0  0  0  0
  141.9176   76.2455  221.9937 H   0  0  0  0  0  0  0  0  0  0  0  0
  141.9937   79.5185  220.2962 H   0  0  0  0  0  0  0  0  0  0  0  0
  142.3271   81.5822  221.6463 H   0  0  0  0  0  0  0  0  0  0  0  0
  142.1686   81.5631  224.0958 H   0  0  0  0  0  0  0  0  0  0  0  0
  141.6696   79.4246  225.2581 H   0  0  0  0  0  0  0  0  0  0  0  0
  141.3380   77.3742  223.9563 H   0  0  0  0  0  0  0  0  0  0  0  0
  139.1709   70.2158  222.3893 H   0  0  0  0  0  0  0  0  0  0  0  0
  138.9633   68.4665  224.1758 H   0  0  0  0  0  0  0  0  0  0  0  0
  139.3874   67.8205  226.4745 H   0  0  0  0  0  0  0  0  0  0  0  0
  141.3768   70.5429  229.1406 H   0  0  0  0  0  0  0  0  0  0  0  0
  141.5606   72.2510  227.3263 H   0  0  0  0  0  0  0  0  0  0  0  0
  1  2  2  0
  2  3  1  0
  3  4  1  0
  4  5  1  0
  5  6  2  0
  5  7  1  0
  7  8  1  0
  8  9  1  0
  9 10  1  0
 10 11  1  0
 10 12  1  0
 10 13  1  0
 13 14  1  0
 14 15  1  0
 15 16  2  0
 16 17  1  0
 17 18  2  0
 18 19  1  0
 19 20  2  0
  2 21  1  0
 21 22  2  0
 22 23  1  0
 23 24  2  0
 24 25  1  0
 25 26  2  0
 26 27  1  0
 26 28  1  0
 28 29  2  0
 29 30  1  0
 30 31  2  0
 14  7  1  0
 20 15  1  0
 31 21  1  0
 30 24  1  0
  3 32  1  0
  4 33  1  0
  4 34  1  0
  8 35  1  0
  8 36  1  0
  9 37  1  0
  9 38  1  0
 13 39  1  0
 13 40  1  0
 14 41  1  1
 16 42  1  0
 17 43  1  0
 18 44  1  0
 19 45  1  0
 20 46  1  0
 22 47  1  0
 23 48  1  0
 25 49  1  0
 28 50  1  0
 29 51  1  0
M  END
>  <smiles>  (23) 
O=C(NCC(=O)N1CCC(F)(F)C[C@H]1c1ccccc1)c1ccc2cc(F)ccc2n1

>  <score_type>  (23) 
oracle

>  <origin>  (23) 
autodockgpu

>  <m_score__min__energy>  (23) 
-9.0099999999999998

>  <m_primary>  (23) 
energy

>  <rmsd>  (23) 
1.9628085506446875

>  <m_score__min__rmsd>  (23) 
1.9628085506446875

>  <meeko>  (23) 
{"free_energy": -8.7, "intermolecular_energy": -10.19, "internal_energy": -1.47, "cluster_size": 45, "cluster_id": 1, "rank_in_cluster": 24}

>  <energy>  (23) 
-8.71

>  <cluster_rmsd>  (23) 
1.32

>  <cluster>  (23) 
1

$$$$

     RDKit          3D

 51 54  0  0  0  0  0  0  0  0999 V2000
  141.3190   72.2820  221.6190 O   0  0  0  0  0  0  0  0  0  0  0  0
  140.3860   72.4870  222.4560 C   0  0  0  0  0  0  0  0  0  0  0  0
  139.5040   73.6080  222.3290 N   0  0  0  0  0  0  0  0  0  0  0  0
  139.6380   74.5560  221.2390 C   0  0  0  0  0  0  0  0  0  0  0  0
  139.2570   75.8950  221.7120 C   0  0  0  0  0  0  0  0  0  0  0  0
  138.3640   76.0430  222.5730 O   0  0  0  0  0  0  0  0  0  0  0  0
  139.9190   77.0170  221.1740 N   0  0  0  0  0  0  0  0  0  0  0  0
  139.2580   77.9810  220.3060 C   0  0  0  0  0  0  0  0  0  0  0  0
  139.9410   77.9100  218.9760 C   0  0  0  0  0  0  0  0  0  0  0  0
  141.4220   77.9070  218.9950 C   0  0  0  0  0  0  0  0  0  0  0  0
  141.8940   79.1850  218.7690 F   0  0  0  0  0  0  0  0  0  0  0  0
  141.8420   77.1790  217.8690 F   0  0  0  0  0  0  0  0  0  0  0  0
  142.0770   77.2700  220.1760 C   0  0  0  0  0  0  0  0  0  0  0  0
  141.3390   77.2990  221.4530 C   0  0  1  0  0  0  0  0  0  0  0  0
  141.3730   78.5680  222.2040 C   0  0  0  0  0  0  0  0  0  0  0  0
  142.3300   79.5420  222.0620 C   0  0  0  0  0  0  0  0  0  0  0  0
  142.2300   80.6960  222.8440 C   0  0  0  0  0  0  0  0  0  0  0  0
  141.2200   80.8930  223.7410 C   0  0  0  0  0  0  0  0  0  0  0  0
  140.2690   79.9170  223.8780 C   0  0  0  0  0  0  0  0  0  0  0  0
  140.3480   78.7790  223.1230 C   0  0  0  0  0  0  0  0  0  0  0  0
  140.1920   71.5610  223.5910 C   0  0  0  0  0  0  0  0  0  0  0  0
  139.5060   70.3930  223.4170 C   0  0  0  0  0  0  0  0  0  0  0  0
  139.3020   69.4940  224.4670 C   0  0  0  0  0  0  0  0  0  0  0  0
  139.8330   69.8420  225.7050 C   0  0  0  0  0  0  0  0  0  0  0  0
  139.6590   68.9820  226.7810 C   0  0  0  0  0  0  0  0  0  0  0  0
  140.1920   69.3440  228.0000 C   0  0  0  0  0  0  0  0  0  0  0  0
  140.0260   68.5080  229.0570 F   0  0  0  0  0  0  0  0  0  0  0  0
  140.8820   70.5200  228.1690 C   0  0  0  0  0  0  0  0  0  0  0  0
  141.0650   71.3910  227.1040 C   0  0  0  0  0  0  0  0  0  0  0  0
  140.5340   71.0370  225.8740 C   0  0  0  0  0  0  0  0  0  0  0  0
  140.6950   71.8650  224.8170 N   0  0  0  0  0  0  0  0  0  0  0  0
  138.7500   73.7060  223.0720 H   0  0  0  0  0  0  0  0  0  0  0  0
  140.6816   74.5719  220.8916 H   0  0  0  0  0  0  0  0  0  0  0  0
  138.9823   74.2578  220.4077 H   0  0  0  0  0  0  0  0  0  0  0  0
  138.1935   77.7253  220.1985 H   0  0  0  0  0  0  0  0  0  0  0  0
  139.3198   78.9957  220.7262 H   0  0  0  0  0  0  0  0  0  0  0  0
  139.6109   76.9857  218.4793 H   0  0  0  0  0  0  0  0  0  0  0  0
  139.6576   78.8350  218.4525 H   0  0  0  0  0  0  0  0  0  0  0  0
  142.2605   76.2152  219.9237 H   0  0  0  0  0  0  0  0  0  0  0  0
  142.9809   77.8702  220.3570 H   0  0  0  0  0  0  0  0  0  0  0  0
  141.8453   76.5514  222.0813 H   0  0  0  0  0  0  0  0  0  0  0  0
  143.1576   79.4169  221.3482 H   0  0  0  0  0  0  0  0  0  0  0  0
  142.9962   81.4773  222.7321 H   0  0  0  0  0  0  0  0  0  0  0  0
  141.1711   81.8143  224.3399 H   0  0  0  0  0  0  0  0  0  0  0  0
  139.4437   80.0479  224.5934 H   0  0  0  0  0  0  0  0  0  0  0  0
  139.5763   78.0048  223.2458 H   0  0  0  0  0  0  0  0  0  0  0  0
  139.1026   70.1532  222.4221 H   0  0  0  0  0  0  0  0  0  0  0  0
  138.7476   68.5551  224.3216 H   0  0  0  0  0  0  0  0  0  0  0  0
  139.1100   68.0360  226.6640 H   0  0  0  0  0  0  0  0  0  0  0  0
  141.2931   70.7735  229.1573 H   0  0  0  0  0  0  0  0  0  0  0  0
  141.6154   72.3347  227.2326 H   0  0  0  0  0  0  0  0  0  0  0  0
  1  2  2  0
  2  3  1  0
  3  4  1  0
  4  5  1  0
  5  6  2  0
  5  7  1  0
  7  8  1  0
  8  9  1  0
  9 10  1  0
 10 11  1  0
 10 12  1  0
 10 13  1  0
 13 14  1  0
 14 15  1  0
 15 16  2  0
 16 17  1  0
 17 18  2  0
 18 19  1  0
 19 20  2  0
  2 21  1  0
 21 22  2  0
 22 23  1  0
 23 24  2  0
 24 25  1  0
 25 26  2  0
 26 27  1  0
 26 28  1  0
 28 29  2  0
 29 30  1  0
 30 31  2  0
 14  7  1  0
 20 15  1  0
 31 21  1  0
 30 24  1  0
  3 32  1  0
  4 33  1  0
  4 34  1  0
  8 35  1  0
  8 36  1  0
  9 37  1  0
  9 38  1  0
 13 39  1  0
 13 40  1  0
 14 41  1  1
 16 42  1  0
 17 43  1  0
 18 44  1  0
 19 45  1  0
 20 46  1  0
 22 47  1  0
 23 48  1  0
 25 49  1  0
 28 50  1  0
 29 51  1  0
M  END
>  <smiles>  (24) 
O=C(NCC(=O)N1CCC(F)(F)C[C@H]1c1ccccc1)c1ccc2cc(F)ccc2n1

>  <score_type>  (24) 
oracle

>  <origin>  (24) 
autodockgpu

>  <m_score__min__energy>  (24) 
-9.0099999999999998

>  <m_primary>  (24) 
energy

>  <rmsd>  (24) 
2.0532833959458463

>  <m_score__min__rmsd>  (24) 
2.0532833959458463

>  <meeko>  (24) 
{"free_energy": -8.75, "intermolecular_energy": -10.24, "internal_energy": -1.64, "cluster_size": 45, "cluster_id": 1, "rank_in_cluster": 18}

>  <energy>  (24) 
-8.7

>  <cluster_rmsd>  (24) 
1.2

>  <cluster>  (24) 
1

$$$$

     RDKit          3D

 51 54  0  0  0  0  0  0  0  0999 V2000
  141.3330   72.3140  221.5780 O   0  0  0  0  0  0  0  0  0  0  0  0
  140.4120   72.5030  222.4310 C   0  0  0  0  0  0  0  0  0  0  0  0
  139.5280   73.6260  222.3350 N   0  0  0  0  0  0  0  0  0  0  0  0
  139.6470   74.5930  221.2600 C   0  0  0  0  0  0  0  0  0  0  0  0
  139.4390   75.9450  221.7990 C   0  0  0  0  0  0  0  0  0  0  0  0
  138.7440   76.1310  222.8210 O   0  0  0  0  0  0  0  0  0  0  0  0
  140.0400   77.0370  221.1400 N   0  0  0  0  0  0  0  0  0  0  0  0
  139.2780   78.0040  220.3640 C   0  0  0  0  0  0  0  0  0  0  0  0
  139.7430   77.8890  218.9460 C   0  0  0  0  0  0  0  0  0  0  0  0
  141.2090   77.8410  218.7350 C   0  0  0  0  0  0  0  0  0  0  0  0
  141.6750   79.1000  218.4100 F   0  0  0  0  0  0  0  0  0  0  0  0
  141.4290   77.0810  217.5740 F   0  0  0  0  0  0  0  0  0  0  0  0
  142.0220   77.2060  219.8150 C   0  0  0  0  0  0  0  0  0  0  0  0
  141.4930   77.2800  221.1890 C   0  0  1  0  0  0  0  0  0  0  0  0
  141.6780   78.5610  221.8970 C   0  0  0  0  0  0  0  0  0  0  0  0
  141.8850   79.7740  221.2890 C   0  0  0  0  0  0  0  0  0  0  0  0
  142.0420   80.9060  222.0930 C   0  0  0  0  0  0  0  0  0  0  0  0
  141.9980   80.8530  223.4570 C   0  0  0  0  0  0  0  0  0  0  0  0
  141.7920   79.6400  224.0570 C   0  0  0  0  0  0  0  0  0  0  0  0
  141.6360   78.5190  223.2890 C   0  0  0  0  0  0  0  0  0  0  0  0
  140.2340   71.5580  223.5520 C   0  0  0  0  0  0  0  0  0  0  0  0
  139.5800   70.3750  223.3580 C   0  0  0  0  0  0  0  0  0  0  0  0
  139.3920   69.4570  224.3940 C   0  0  0  0  0  0  0  0  0  0  0  0
  139.9040   69.8020  225.6410 C   0  0  0  0  0  0  0  0  0  0  0  0
  139.7450   68.9250  226.7040 C   0  0  0  0  0  0  0  0  0  0  0  0
  140.2580   69.2840  227.9320 C   0  0  0  0  0  0  0  0  0  0  0  0
  140.1060   68.4310  228.9770 F   0  0  0  0  0  0  0  0  0  0  0  0
  140.9150   70.4760  228.1220 C   0  0  0  0  0  0  0  0  0  0  0  0
  141.0840   71.3650  227.0700 C   0  0  0  0  0  0  0  0  0  0  0  0
  140.5720   71.0140  225.8320 C   0  0  0  0  0  0  0  0  0  0  0  0
  140.7190   71.8590  224.7870 N   0  0  0  0  0  0  0  0  0  0  0  0
  138.7840   73.7110  223.0900 H   0  0  0  0  0  0  0  0  0  0  0  0
  140.6502   74.5253  220.8140 H   0  0  0  0  0  0  0  0  0  0  0  0
  138.8910   74.3827  220.4891 H   0  0  0  0  0  0  0  0  0  0  0  0
  138.2034   77.7782  220.4289 H   0  0  0  0  0  0  0  0  0  0  0  0
  139.4317   79.0238  220.7466 H   0  0  0  0  0  0  0  0  0  0  0  0
  139.3142   76.9667  218.5270 H   0  0  0  0  0  0  0  0  0  0  0  0
  139.4069   78.8129  218.4525 H   0  0  0  0  0  0  0  0  0  0  0  0
  142.1357   76.1418  219.5612 H   0  0  0  0  0  0  0  0  0  0  0  0
  142.9586   77.7823  219.8406 H   0  0  0  0  0  0  0  0  0  0  0  0
  142.0701   76.5283  221.7475 H   0  0  0  0  0  0  0  0  0  0  0  0
  141.9264   79.8533  220.1926 H   0  0  0  0  0  0  0  0  0  0  0  0
  142.2078   81.8792  221.6077 H   0  0  0  0  0  0  0  0  0  0  0  0
  142.1252   81.7643  224.0597 H   0  0  0  0  0  0  0  0  0  0  0  0
  141.7520   79.5670  225.1539 H   0  0  0  0  0  0  0  0  0  0  0  0
  141.4719   77.5520  223.7870 H   0  0  0  0  0  0  0  0  0  0  0  0
  139.1900   70.1381  222.3571 H   0  0  0  0  0  0  0  0  0  0  0  0
  138.8639   68.5058  224.2316 H   0  0  0  0  0  0  0  0  0  0  0  0
  139.2223   67.9664  226.5702 H   0  0  0  0  0  0  0  0  0  0  0  0
  141.3105   70.7277  229.1171 H   0  0  0  0  0  0  0  0  0  0  0  0
  141.6093   72.3205  227.2152 H   0  0  0  0  0  0  0  0  0  0  0  0
  1  2  2  0
  2  3  1  0
  3  4  1  0
  4  5  1  0
  5  6  2  0
  5  7  1  0
  7  8  1  0
  8  9  1  0
  9 10  1  0
 10 11  1  0
 10 12  1  0
 10 13  1  0
 13 14  1  0
 14 15  1  0
 15 16  2  0
 16 17  1  0
 17 18  2  0
 18 19  1  0
 19 20  2  0
  2 21  1  0
 21 22  2  0
 22 23  1  0
 23 24  2  0
 24 25  1  0
 25 26  2  0
 26 27  1  0
 26 28  1  0
 28 29  2  0
 29 30  1  0
 30 31  2  0
 14  7  1  0
 20 15  1  0
 31 21  1  0
 30 24  1  0
  3 32  1  0
  4 33  1  0
  4 34  1  0
  8 35  1  0
  8 36  1  0
  9 37  1  0
  9 38  1  0
 13 39  1  0
 13 40  1  0
 14 41  1  1
 16 42  1  0
 17 43  1  0
 18 44  1  0
 19 45  1  0
 20 46  1  0
 22 47  1  0
 23 48  1  0
 25 49  1  0
 28 50  1  0
 29 51  1  0
M  END
>  <smiles>  (25) 
O=C(NCC(=O)N1CCC(F)(F)C[C@H]1c1ccccc1)c1ccc2cc(F)ccc2n1

>  <score_type>  (25) 
oracle

>  <origin>  (25) 
autodockgpu

>  <m_score__min__energy>  (25) 
-9.0099999999999998

>  <m_primary>  (25) 
energy

>  <rmsd>  (25) 
2.005896971121194

>  <m_score__min__rmsd>  (25) 
2.005896971121194

>  <meeko>  (25) 
{"free_energy": -8.82, "intermolecular_energy": -10.31, "internal_energy": -1.64, "cluster_size": 45, "cluster_id": 1, "rank_in_cluster": 16}

>  <energy>  (25) 
-8.7

>  <cluster_rmsd>  (25) 
0.94

>  <cluster>  (25) 
1

$$$$

     RDKit          3D

 51 54  0  0  0  0  0  0  0  0999 V2000
  140.8900   72.1750  221.3390 O   0  0  0  0  0  0  0  0  0  0  0  0
  140.0830   72.4420  222.2820 C   0  0  0  0  0  0  0  0  0  0  0  0
  139.2930   73.6370  222.2680 N   0  0  0  0  0  0  0  0  0  0  0  0
  139.3810   74.5900  221.1780 C   0  0  0  0  0  0  0  0  0  0  0  0
  140.5260   75.4850  221.4080 C   0  0  0  0  0  0  0  0  0  0  0  0
  141.5630   75.0710  221.9690 O   0  0  0  0  0  0  0  0  0  0  0  0
  140.4330   76.8260  220.9830 N   0  0  0  0  0  0  0  0  0  0  0  0
  139.1610   77.5100  220.8090 C   0  0  0  0  0  0  0  0  0  0  0  0
  139.0440   77.8530  219.3560 C   0  0  0  0  0  0  0  0  0  0  0  0
  140.2410   78.4570  218.7250 C   0  0  0  0  0  0  0  0  0  0  0  0
  140.1080   79.8320  218.6940 F   0  0  0  0  0  0  0  0  0  0  0  0
  140.2230   78.0770  217.3730 F   0  0  0  0  0  0  0  0  0  0  0  0
  141.5690   78.0360  219.2630 C   0  0  0  0  0  0  0  0  0  0  0  0
  141.6260   77.6380  220.6810 C   0  0  1  0  0  0  0  0  0  0  0  0
  141.6470   78.7300  221.6720 C   0  0  0  0  0  0  0  0  0  0  0  0
  141.8300   80.0590  221.3750 C   0  0  0  0  0  0  0  0  0  0  0  0
  141.8250   80.9840  222.4230 C   0  0  0  0  0  0  0  0  0  0  0  0
  141.6450   80.6200  223.7260 C   0  0  0  0  0  0  0  0  0  0  0  0
  141.4630   79.2930  224.0150 C   0  0  0  0  0  0  0  0  0  0  0  0
  141.4660   78.3710  223.0050 C   0  0  0  0  0  0  0  0  0  0  0  0
  139.9420   71.5150  223.4230 C   0  0  0  0  0  0  0  0  0  0  0  0
  139.3110   70.3160  223.2620 C   0  0  0  0  0  0  0  0  0  0  0  0
  139.1580   69.4140  224.3190 C   0  0  0  0  0  0  0  0  0  0  0  0
  139.6820   69.7950  225.5510 C   0  0  0  0  0  0  0  0  0  0  0  0
  139.5580   68.9350  226.6330 C   0  0  0  0  0  0  0  0  0  0  0  0
  140.0820   69.3290  227.8460 C   0  0  0  0  0  0  0  0  0  0  0  0
  139.9640   68.4930  228.9090 F   0  0  0  0  0  0  0  0  0  0  0  0
  140.7160   70.5380  228.0020 C   0  0  0  0  0  0  0  0  0  0  0  0
  140.8500   71.4100  226.9300 C   0  0  0  0  0  0  0  0  0  0  0  0
  140.3260   71.0230  225.7070 C   0  0  0  0  0  0  0  0  0  0  0  0
  140.4390   71.8510  224.6440 N   0  0  0  0  0  0  0  0  0  0  0  0
  138.6410   73.7850  223.0960 H   0  0  0  0  0  0  0  0  0  0  0  0
  139.5200   74.0514  220.2290 H   0  0  0  0  0  0  0  0  0  0  0  0
  138.4545   75.1810  221.1286 H   0  0  0  0  0  0  0  0  0  0  0  0
  138.3333   76.8507  221.1094 H   0  0  0  0  0  0  0  0  0  0  0  0
  139.1138   78.4158  221.4314 H   0  0  0  0  0  0  0  0  0  0  0  0
  138.8093   76.9268  218.8110 H   0  0  0  0  0  0  0  0  0  0  0  0
  138.2619   78.6245  219.2991 H   0  0  0  0  0  0  0  0  0  0  0  0
  141.9118   77.1789  218.6647 H   0  0  0  0  0  0  0  0  0  0  0  0
  142.2001   78.9344  219.1952 H   0  0  0  0  0  0  0  0  0  0  0  0
  142.5854   77.1089  220.7791 H   0  0  0  0  0  0  0  0  0  0  0  0
  141.9772   80.3877  220.3356 H   0  0  0  0  0  0  0  0  0  0  0  0
  141.9721   82.0485  222.1880 H   0  0  0  0  0  0  0  0  0  0  0  0
  141.6460   81.3749  224.5261 H   0  0  0  0  0  0  0  0  0  0  0  0
  141.3149   78.9703  225.0561 H   0  0  0  0  0  0  0  0  0  0  0  0
  141.3205   77.3095  223.2542 H   0  0  0  0  0  0  0  0  0  0  0  0
  138.9112   70.0515  222.2720 H   0  0  0  0  0  0  0  0  0  0  0  0
  138.6477   68.4490  224.1836 H   0  0  0  0  0  0  0  0  0  0  0  0
  139.0542   67.9631  226.5256 H   0  0  0  0  0  0  0  0  0  0  0  0
  141.1213   70.8177  228.9856 H   0  0  0  0  0  0  0  0  0  0  0  0
  141.3570   72.3791  227.0480 H   0  0  0  0  0  0  0  0  0  0  0  0
  1  2  2  0
  2  3  1  0
  3  4  1  0
  4  5  1  0
  5  6  2  0
  5  7  1  0
  7  8  1  0
  8  9  1  0
  9 10  1  0
 10 11  1  0
 10 12  1  0
 10 13  1  0
 13 14  1  0
 14 15  1  0
 15 16  2  0
 16 17  1  0
 17 18  2  0
 18 19  1  0
 19 20  2  0
  2 21  1  0
 21 22  2  0
 22 23  1  0
 23 24  2  0
 24 25  1  0
 25 26  2  0
 26 27  1  0
 26 28  1  0
 28 29  2  0
 29 30  1  0
 30 31  2  0
 14  7  1  0
 20 15  1  0
 31 21  1  0
 30 24  1  0
  3 32  1  0
  4 33  1  0
  4 34  1  0
  8 35  1  0
  8 36  1  0
  9 37  1  0
  9 38  1  0
 13 39  1  0
 13 40  1  0
 14 41  1  6
 16 42  1  0
 17 43  1  0
 18 44  1  0
 19 45  1  0
 20 46  1  0
 22 47  1  0
 23 48  1  0
 25 49  1  0
 28 50  1  0
 29 51  1  0
M  END
>  <smiles>  (26) 
O=C(NCC(=O)N1CCC(F)(F)C[C@H]1c1ccccc1)c1ccc2cc(F)ccc2n1

>  <score_type>  (26) 
oracle

>  <origin>  (26) 
autodockgpu

>  <m_score__min__energy>  (26) 
-9.0099999999999998

>  <m_primary>  (26) 
energy

>  <rmsd>  (26) 
1.8564638288230753

>  <m_score__min__rmsd>  (26) 
1.8564638288230753

>  <meeko>  (26) 
{"free_energy": -8.7, "intermolecular_energy": -10.19, "internal_energy": -1.38, "cluster_size": 45, "cluster_id": 1, "rank_in_cluster": 26}

>  <energy>  (26) 
-8.7

>  <cluster_rmsd>  (26) 
0.68

>  <cluster>  (26) 
1

$$$$

     RDKit          3D

 51 54  0  0  0  0  0  0  0  0999 V2000
  141.3650   72.5280  221.8440 O   0  0  0  0  0  0  0  0  0  0  0  0
  140.3270   72.5420  222.5750 C   0  0  0  0  0  0  0  0  0  0  0  0
  139.2720   73.4840  222.3520 N   0  0  0  0  0  0  0  0  0  0  0  0
  139.3430   74.4600  221.2810 C   0  0  0  0  0  0  0  0  0  0  0  0
  140.1930   75.5830  221.7040 C   0  0  0  0  0  0  0  0  0  0  0  0
  141.4070   75.4150  221.9460 O   0  0  0  0  0  0  0  0  0  0  0  0
  139.6120   76.8610  221.8320 N   0  0  0  0  0  0  0  0  0  0  0  0
  138.5200   77.1400  222.7540 C   0  0  0  0  0  0  0  0  0  0  0  0
  137.3400   77.5390  221.9240 C   0  0  0  0  0  0  0  0  0  0  0  0
  137.5950   78.5210  220.8440 C   0  0  0  0  0  0  0  0  0  0  0  0
  137.2660   79.7900  221.2800 F   0  0  0  0  0  0  0  0  0  0  0  0
  136.6670   78.2540  219.8240 F   0  0  0  0  0  0  0  0  0  0  0  0
  138.9450   78.4820  220.2060 C   0  0  0  0  0  0  0  0  0  0  0  0
  140.0700   78.0150  221.0380 C   0  0  1  0  0  0  0  0  0  0  0  0
  140.6270   78.9870  221.9980 C   0  0  0  0  0  0  0  0  0  0  0  0
  140.0400   80.1800  222.3400 C   0  0  0  0  0  0  0  0  0  0  0  0
  140.6860   81.0010  223.2680 C   0  0  0  0  0  0  0  0  0  0  0  0
  141.8760   80.6630  223.8470 C   0  0  0  0  0  0  0  0  0  0  0  0
  142.4560   79.4710  223.5020 C   0  0  0  0  0  0  0  0  0  0  0  0
  141.8400   78.6540  222.5940 C   0  0  0  0  0  0  0  0  0  0  0  0
  140.1890   71.5760  223.6840 C   0  0  0  0  0  0  0  0  0  0  0  0
  139.5760   70.3730  223.4770 C   0  0  0  0  0  0  0  0  0  0  0  0
  139.4270   69.4350  224.5020 C   0  0  0  0  0  0  0  0  0  0  0  0
  139.9320   69.7820  225.7510 C   0  0  0  0  0  0  0  0  0  0  0  0
  139.8100   68.8850  226.8030 C   0  0  0  0  0  0  0  0  0  0  0  0
  140.3160   69.2460  228.0330 C   0  0  0  0  0  0  0  0  0  0  0  0
  140.2000   68.3740  229.0670 F   0  0  0  0  0  0  0  0  0  0  0  0
  140.9310   70.4580  228.2360 C   0  0  0  0  0  0  0  0  0  0  0  0
  141.0630   71.3670  227.1950 C   0  0  0  0  0  0  0  0  0  0  0  0
  140.5570   71.0140  225.9550 C   0  0  0  0  0  0  0  0  0  0  0  0
  140.6690   71.8780  224.9200 N   0  0  0  0  0  0  0  0  0  0  0  0
  138.4380   73.4280  223.0090 H   0  0  0  0  0  0  0  0  0  0  0  0
  139.7732   73.9908  220.3839 H   0  0  0  0  0  0  0  0  0  0  0  0
  138.3326   74.8285  221.0500 H   0  0  0  0  0  0  0  0  0  0  0  0
  138.2823   76.2410  223.3416 H   0  0  0  0  0  0  0  0  0  0  0  0
  138.7942   77.9396  223.4579 H   0  0  0  0  0  0  0  0  0  0  0  0
  136.9347   76.6282  221.4591 H   0  0  0  0  0  0  0  0  0  0  0  0
  136.6510   78.0416  222.6188 H   0  0  0  0  0  0  0  0  0  0  0  0
  138.8796   77.8155  219.3334 H   0  0  0  0  0  0  0  0  0  0  0  0
  139.1798   79.5314  219.9743 H   0  0  0  0  0  0  0  0  0  0  0  0
  140.8714   77.7935  220.3178 H   0  0  0  0  0  0  0  0  0  0  0  0
  139.0817   80.4831  221.8931 H   0  0  0  0  0  0  0  0  0  0  0  0
  140.2176   81.9575  223.5432 H   0  0  0  0  0  0  0  0  0  0  0  0
  142.3579   81.3331  224.5742 H   0  0  0  0  0  0  0  0  0  0  0  0
  143.4135   79.1718  223.9534 H   0  0  0  0  0  0  0  0  0  0  0  0
  142.3197   77.7012  222.3257 H   0  0  0  0  0  0  0  0  0  0  0  0
  139.1887   70.1359  222.4751 H   0  0  0  0  0  0  0  0  0  0  0  0
  138.9334   68.4673  224.3293 H   0  0  0  0  0  0  0  0  0  0  0  0
  139.3215   67.9100  226.6586 H   0  0  0  0  0  0  0  0  0  0  0  0
  141.3224   70.7103  229.2326 H   0  0  0  0  0  0  0  0  0  0  0  0
  141.5548   72.3386  227.3504 H   0  0  0  0  0  0  0  0  0  0  0  0
  1  2  2  0
  2  3  1  0
  3  4  1  0
  4  5  1  0
  5  6  2  0
  5  7  1  0
  7  8  1  0
  8  9  1  0
  9 10  1  0
 10 11  1  0
 10 12  1  0
 10 13  1  0
 13 14  1  0
 14 15  1  0
 15 16  2  0
 16 17  1  0
 17 18  2  0
 18 19  1  0
 19 20  2  0
  2 21  1  0
 21 22  2  0
 22 23  1  0
 23 24  2  0
 24 25  1  0
 25 26  2  0
 26 27  1  0
 26 28  1  0
 28 29  2  0
 29 30  1  0
 30 31  2  0
 14  7  1  0
 20 15  1  0
 31 21  1  0
 30 24  1  0
  3 32  1  0
  4 33  1  0
  4 34  1  0
  8 35  1  0
  8 36  1  0
  9 37  1  0
  9 38  1  0
 13 39  1  0
 13 40  1  0
 14 41  1  6
 16 42  1  0
 17 43  1  0
 18 44  1  0
 19 45  1  0
 20 46  1  0
 22 47  1  0
 23 48  1  0
 25 49  1  0
 28 50  1  0
 29 51  1  0
M  END
>  <smiles>  (27) 
O=C(NCC(=O)N1CCC(F)(F)C[C@H]1c1ccccc1)c1ccc2cc(F)ccc2n1

>  <score_type>  (27) 
oracle

>  <origin>  (27) 
autodockgpu

>  <m_score__min__energy>  (27) 
-9.0099999999999998

>  <m_primary>  (27) 
energy

>  <rmsd>  (27) 
2.659258250254357

>  <m_score__min__rmsd>  (27) 
2.659258250254357

>  <meeko>  (27) 
{"free_energy": -8.69, "intermolecular_energy": -10.18, "internal_energy": -1.33, "cluster_size": 45, "cluster_id": 1, "rank_in_cluster": 28}

>  <energy>  (27) 
-8.69

>  <cluster_rmsd>  (27) 
1.07

>  <cluster>  (27) 
1

$$$$

     RDKit          3D

 51 54  0  0  0  0  0  0  0  0999 V2000
  141.3500   72.3510  221.5580 O   0  0  0  0  0  0  0  0  0  0  0  0
  140.4280   72.5430  222.4090 C   0  0  0  0  0  0  0  0  0  0  0  0
  139.5570   73.6760  222.3190 N   0  0  0  0  0  0  0  0  0  0  0  0
  139.6910   74.6510  221.2530 C   0  0  0  0  0  0  0  0  0  0  0  0
  139.2890   75.9740  221.7520 C   0  0  0  0  0  0  0  0  0  0  0  0
  138.3650   76.0940  222.5850 O   0  0  0  0  0  0  0  0  0  0  0  0
  139.9660   77.1130  221.2720 N   0  0  0  0  0  0  0  0  0  0  0  0
  139.3330   78.1010  220.4110 C   0  0  0  0  0  0  0  0  0  0  0  0
  140.0620   78.0720  219.1030 C   0  0  0  0  0  0  0  0  0  0  0  0
  141.5420   78.0710  219.1750 C   0  0  0  0  0  0  0  0  0  0  0  0
  142.0180   79.3570  219.0050 F   0  0  0  0  0  0  0  0  0  0  0  0
  142.0040   77.3790  218.0430 F   0  0  0  0  0  0  0  0  0  0  0  0
  142.1570   77.4010  220.3590 C   0  0  0  0  0  0  0  0  0  0  0  0
  141.3750   77.3890  221.6090 C   0  0  1  0  0  0  0  0  0  0  0  0
  141.3780   78.6350  222.3990 C   0  0  0  0  0  0  0  0  0  0  0  0
  140.3220   79.0960  223.1470 C   0  0  0  0  0  0  0  0  0  0  0  0
  140.4730   80.2970  223.8460 C   0  0  0  0  0  0  0  0  0  0  0  0
  141.6250   81.0280  223.8140 C   0  0  0  0  0  0  0  0  0  0  0  0
  142.6740   80.5630  223.0660 C   0  0  0  0  0  0  0  0  0  0  0  0
  142.5480   79.3900  222.3740 C   0  0  0  0  0  0  0  0  0  0  0  0
  140.2350   71.5900  223.5220 C   0  0  0  0  0  0  0  0  0  0  0  0
  139.5770   70.4130  223.3130 C   0  0  0  0  0  0  0  0  0  0  0  0
  139.3750   69.4870  224.3410 C   0  0  0  0  0  0  0  0  0  0  0  0
  139.8770   69.8220  225.5950 C   0  0  0  0  0  0  0  0  0  0  0  0
  139.7030   68.9370  226.6500 C   0  0  0  0  0  0  0  0  0  0  0  0
  140.2070   69.2850  227.8860 C   0  0  0  0  0  0  0  0  0  0  0  0
  140.0410   68.4250  228.9230 F   0  0  0  0  0  0  0  0  0  0  0  0
  140.8680   70.4730  228.0900 C   0  0  0  0  0  0  0  0  0  0  0  0
  141.0510   71.3690  227.0460 C   0  0  0  0  0  0  0  0  0  0  0  0
  140.5480   71.0280  225.8000 C   0  0  0  0  0  0  0  0  0  0  0  0
  140.7100   71.8810  224.7630 N   0  0  0  0  0  0  0  0  0  0  0  0
  138.8110   73.7630  223.0720 H   0  0  0  0  0  0  0  0  0  0  0  0
  140.7380   74.6873  220.9175 H   0  0  0  0  0  0  0  0  0  0  0  0
  139.0474   74.3644  220.4082 H   0  0  0  0  0  0  0  0  0  0  0  0
  138.2737   77.8465  220.2590 H   0  0  0  0  0  0  0  0  0  0  0  0
  139.3775   79.1026  220.8635 H   0  0  0  0  0  0  0  0  0  0  0  0
  139.7521   77.1628  218.5669 H   0  0  0  0  0  0  0  0  0  0  0  0
  139.7941   79.0115  218.5975 H   0  0  0  0  0  0  0  0  0  0  0  0
  142.3538   76.3548  220.0819 H   0  0  0  0  0  0  0  0  0  0  0  0
  143.0510   77.9988  220.5900 H   0  0  0  0  0  0  0  0  0  0  0  0
  141.8616   76.6234  222.2311 H   0  0  0  0  0  0  0  0  0  0  0  0
  139.3785   78.5325  223.1948 H   0  0  0  0  0  0  0  0  0  0  0  0
  139.6291   80.6680  224.4462 H   0  0  0  0  0  0  0  0  0  0  0  0
  141.7092   81.9696  224.3764 H   0  0  0  0  0  0  0  0  0  0  0  0
  143.6149   81.1312  223.0220 H   0  0  0  0  0  0  0  0  0  0  0  0
  143.3996   79.0308  221.7775 H   0  0  0  0  0  0  0  0  0  0  0  0
  139.1945   70.1862  222.3069 H   0  0  0  0  0  0  0  0  0  0  0  0
  138.8447   68.5391  224.1669 H   0  0  0  0  0  0  0  0  0  0  0  0
  139.1765   67.9822  226.5041 H   0  0  0  0  0  0  0  0  0  0  0  0
  141.2556   70.7158  229.0904 H   0  0  0  0  0  0  0  0  0  0  0  0
  141.5793   72.3211  227.2025 H   0  0  0  0  0  0  0  0  0  0  0  0
  1  2  2  0
  2  3  1  0
  3  4  1  0
  4  5  1  0
  5  6  2  0
  5  7  1  0
  7  8  1  0
  8  9  1  0
  9 10  1  0
 10 11  1  0
 10 12  1  0
 10 13  1  0
 13 14  1  0
 14 15  1  0
 15 16  2  0
 16 17  1  0
 17 18  2  0
 18 19  1  0
 19 20  2  0
  2 21  1  0
 21 22  2  0
 22 23  1  0
 23 24  2  0
 24 25  1  0
 25 26  2  0
 26 27  1  0
 26 28  1  0
 28 29  2  0
 29 30  1  0
 30 31  2  0
 14  7  1  0
 20 15  1  0
 31 21  1  0
 30 24  1  0
  3 32  1  0
  4 33  1  0
  4 34  1  0
  8 35  1  0
  8 36  1  0
  9 37  1  0
  9 38  1  0
 13 39  1  0
 13 40  1  0
 14 41  1  1
 16 42  1  0
 17 43  1  0
 18 44  1  0
 19 45  1  0
 20 46  1  0
 22 47  1  0
 23 48  1  0
 25 49  1  0
 28 50  1  0
 29 51  1  0
M  END
>  <smiles>  (28) 
O=C(NCC(=O)N1CCC(F)(F)C[C@H]1c1ccccc1)c1ccc2cc(F)ccc2n1

>  <score_type>  (28) 
oracle

>  <origin>  (28) 
autodockgpu

>  <m_score__min__energy>  (28) 
-9.0099999999999998

>  <m_primary>  (28) 
energy

>  <rmsd>  (28) 
2.145006850680862

>  <m_score__min__rmsd>  (28) 
2.145006850680862

>  <meeko>  (28) 
{"free_energy": -8.94, "intermolecular_energy": -10.43, "internal_energy": -1.61, "cluster_size": 45, "cluster_id": 1, "rank_in_cluster": 5}

>  <energy>  (28) 
-8.69

>  <cluster_rmsd>  (28) 
0.89

>  <cluster>  (28) 
1

$$$$

     RDKit          3D

 51 54  0  0  0  0  0  0  0  0999 V2000
  141.1820   72.4740  221.5690 O   0  0  0  0  0  0  0  0  0  0  0  0
  140.2430   72.5900  222.4160 C   0  0  0  0  0  0  0  0  0  0  0  0
  139.2960   73.6610  222.3350 N   0  0  0  0  0  0  0  0  0  0  0  0
  139.3680   74.6570  221.2830 C   0  0  0  0  0  0  0  0  0  0  0  0
  140.3860   75.6590  221.6330 C   0  0  0  0  0  0  0  0  0  0  0  0
  141.5410   75.3150  221.9630 O   0  0  0  0  0  0  0  0  0  0  0  0
  140.0350   77.0240  221.5910 N   0  0  0  0  0  0  0  0  0  0  0  0
  138.8250   77.5450  222.2090 C   0  0  0  0  0  0  0  0  0  0  0  0
  137.9710   78.0890  221.1060 C   0  0  0  0  0  0  0  0  0  0  0  0
  138.6530   78.9420  220.1050 C   0  0  0  0  0  0  0  0  0  0  0  0
  138.4670   80.2740  220.4230 F   0  0  0  0  0  0  0  0  0  0  0  0
  137.9640   78.7770  218.8920 F   0  0  0  0  0  0  0  0  0  0  0  0
  140.0860   78.6310  219.8220 C   0  0  0  0  0  0  0  0  0  0  0  0
  140.8740   78.0290  220.9130 C   0  0  1  0  0  0  0  0  0  0  0  0
  141.3520   78.9480  221.9630 C   0  0  0  0  0  0  0  0  0  0  0  0
  141.7360   78.5700  223.2260 C   0  0  0  0  0  0  0  0  0  0  0  0
  142.1700   79.5560  224.1160 C   0  0  0  0  0  0  0  0  0  0  0  0
  142.2270   80.8780  223.7810 C   0  0  0  0  0  0  0  0  0  0  0  0
  141.8420   81.2490  222.5190 C   0  0  0  0  0  0  0  0  0  0  0  0
  141.4140   80.3000  221.6330 C   0  0  0  0  0  0  0  0  0  0  0  0
  140.1090   71.6100  223.5140 C   0  0  0  0  0  0  0  0  0  0  0  0
  139.4720   70.4220  223.3020 C   0  0  0  0  0  0  0  0  0  0  0  0
  139.3260   69.4710  224.3160 C   0  0  0  0  0  0  0  0  0  0  0  0
  139.8620   69.7920  225.5600 C   0  0  0  0  0  0  0  0  0  0  0  0
  139.7440   68.8820  226.6010 C   0  0  0  0  0  0  0  0  0  0  0  0
  140.2810   69.2160  227.8260 C   0  0  0  0  0  0  0  0  0  0  0  0
  140.1700   68.3320  228.8490 F   0  0  0  0  0  0  0  0  0  0  0  0
  140.9220   70.4150  228.0340 C   0  0  0  0  0  0  0  0  0  0  0  0
  141.0490   71.3360  227.0030 C   0  0  0  0  0  0  0  0  0  0  0  0
  140.5120   71.0090  225.7680 C   0  0  0  0  0  0  0  0  0  0  0  0
  140.6190   71.8860  224.7440 N   0  0  0  0  0  0  0  0  0  0  0  0
  138.5400   73.6850  223.0830 H   0  0  0  0  0  0  0  0  0  0  0  0
  139.6411   74.1711  220.3347 H   0  0  0  0  0  0  0  0  0  0  0  0
  138.3899   75.1479  221.1719 H   0  0  0  0  0  0  0  0  0  0  0  0
  138.2931   76.7396  222.7367 H   0  0  0  0  0  0  0  0  0  0  0  0
  139.0645   78.3281  222.9434 H   0  0  0  0  0  0  0  0  0  0  0  0
  137.5291   77.2346  220.5723 H   0  0  0  0  0  0  0  0  0  0  0  0
  137.2392   78.7454  221.5995 H   0  0  0  0  0  0  0  0  0  0  0  0
  140.1114   77.9334  218.9719 H   0  0  0  0  0  0  0  0  0  0  0  0
  140.5568   79.6081  219.6386 H   0  0  0  0  0  0  0  0  0  0  0  0
  141.7697   77.6271  220.4168 H   0  0  0  0  0  0  0  0  0  0  0  0
  141.7027   77.5136  223.5307 H   0  0  0  0  0  0  0  0  0  0  0  0
  142.4783   79.2545  225.1279 H   0  0  0  0  0  0  0  0  0  0  0  0
  142.5739   81.6281  224.5070 H   0  0  0  0  0  0  0  0  0  0  0  0
  141.8773   82.3070  222.2200 H   0  0  0  0  0  0  0  0  0  0  0  0
  141.1079   80.6149  220.6244 H   0  0  0  0  0  0  0  0  0  0  0  0
  139.0616   70.2065  222.3044 H   0  0  0  0  0  0  0  0  0  0  0  0
  138.8121   68.5146  224.1394 H   0  0  0  0  0  0  0  0  0  0  0  0
  139.2348   67.9184  226.4525 H   0  0  0  0  0  0  0  0  0  0  0  0
  141.3376   70.6462  229.0259 H   0  0  0  0  0  0  0  0  0  0  0  0
  141.5607   72.2967  227.1617 H   0  0  0  0  0  0  0  0  0  0  0  0
  1  2  2  0
  2  3  1  0
  3  4  1  0
  4  5  1  0
  5  6  2  0
  5  7  1  0
  7  8  1  0
  8  9  1  0
  9 10  1  0
 10 11  1  0
 10 12  1  0
 10 13  1  0
 13 14  1  0
 14 15  1  0
 15 16  2  0
 16 17  1  0
 17 18  2  0
 18 19  1  0
 19 20  2  0
  2 21  1  0
 21 22  2  0
 22 23  1  0
 23 24  2  0
 24 25  1  0
 25 26  2  0
 26 27  1  0
 26 28  1  0
 28 29  2  0
 29 30  1  0
 30 31  2  0
 14  7  1  0
 20 15  1  0
 31 21  1  0
 30 24  1  0
  3 32  1  0
  4 33  1  0
  4 34  1  0
  8 35  1  0
  8 36  1  0
  9 37  1  0
  9 38  1  0
 13 39  1  0
 13 40  1  0
 14 41  1  6
 16 42  1  0
 17 43  1  0
 18 44  1  0
 19 45  1  0
 20 46  1  0
 22 47  1  0
 23 48  1  0
 25 49  1  0
 28 50  1  0
 29 51  1  0
M  END
>  <smiles>  (29) 
O=C(NCC(=O)N1CCC(F)(F)C[C@H]1c1ccccc1)c1ccc2cc(F)ccc2n1

>  <score_type>  (29) 
oracle

>  <origin>  (29) 
autodockgpu

>  <m_score__min__energy>  (29) 
-9.0099999999999998

>  <m_primary>  (29) 
energy

>  <rmsd>  (29) 
2.4059725409284045

>  <m_score__min__rmsd>  (29) 
2.4059725409284045

>  <meeko>  (29) 
{"free_energy": -8.89, "intermolecular_energy": -10.38, "internal_energy": -1.33, "cluster_size": 45, "cluster_id": 1, "rank_in_cluster": 8}

>  <energy>  (29) 
-8.68

>  <cluster_rmsd>  (29) 
0.57

>  <cluster>  (29) 
1

$$$$

     RDKit          3D

 51 54  0  0  0  0  0  0  0  0999 V2000
  141.4210   72.4410  221.5570 O   0  0  0  0  0  0  0  0  0  0  0  0
  140.4870   72.6180  222.3990 C   0  0  0  0  0  0  0  0  0  0  0  0
  139.6380   73.7700  222.3380 N   0  0  0  0  0  0  0  0  0  0  0  0
  139.8090   74.7810  221.3120 C   0  0  0  0  0  0  0  0  0  0  0  0
  139.2620   76.0580  221.7940 C   0  0  0  0  0  0  0  0  0  0  0  0
  138.3670   76.0870  222.6650 O   0  0  0  0  0  0  0  0  0  0  0  0
  139.7690   77.2580  221.2550 N   0  0  0  0  0  0  0  0  0  0  0  0
  138.9150   78.3780  220.8870 C   0  0  0  0  0  0  0  0  0  0  0  0
  139.0520   78.5630  219.4080 C   0  0  0  0  0  0  0  0  0  0  0  0
  140.4310   78.5440  218.8660 C   0  0  0  0  0  0  0  0  0  0  0  0
  140.8880   79.8380  218.7110 F   0  0  0  0  0  0  0  0  0  0  0  0
  140.3460   78.0470  217.5550 F   0  0  0  0  0  0  0  0  0  0  0  0
  141.4210   77.6830  219.5800 C   0  0  0  0  0  0  0  0  0  0  0  0
  141.2100   77.4680  221.0240 C   0  0  1  0  0  0  0  0  0  0  0  0
  141.6200   78.5660  221.9190 C   0  0  0  0  0  0  0  0  0  0  0  0
  142.1450   79.7650  221.5060 C   0  0  0  0  0  0  0  0  0  0  0  0
  142.4870   80.7140  222.4730 C   0  0  0  0  0  0  0  0  0  0  0  0
  142.3220   80.4950  223.8110 C   0  0  0  0  0  0  0  0  0  0  0  0
  141.7990   79.2960  224.2160 C   0  0  0  0  0  0  0  0  0  0  0  0
  141.4570   78.3540  223.2860 C   0  0  0  0  0  0  0  0  0  0  0  0
  140.2570   71.6270  223.4710 C   0  0  0  0  0  0  0  0  0  0  0  0
  139.5750   70.4750  223.2070 C   0  0  0  0  0  0  0  0  0  0  0  0
  139.3370   69.5150  224.1960 C   0  0  0  0  0  0  0  0  0  0  0  0
  139.8300   69.7880  225.4680 C   0  0  0  0  0  0  0  0  0  0  0  0
  139.6220   68.8670  226.4860 C   0  0  0  0  0  0  0  0  0  0  0  0
  140.1170   69.1550  227.7400 C   0  0  0  0  0  0  0  0  0  0  0  0
  139.9170   68.2590  228.7400 F   0  0  0  0  0  0  0  0  0  0  0  0
  140.8030   70.3170  227.9990 C   0  0  0  0  0  0  0  0  0  0  0  0
  141.0210   71.2490  226.9930 C   0  0  0  0  0  0  0  0  0  0  0  0
  140.5270   70.9690  225.7290 C   0  0  0  0  0  0  0  0  0  0  0  0
  140.7220   71.8580  224.7280 N   0  0  0  0  0  0  0  0  0  0  0  0
  138.8800   73.8420  223.0800 H   0  0  0  0  0  0  0  0  0  0  0  0
  140.8794   74.9005  221.0883 H   0  0  0  0  0  0  0  0  0  0  0  0
  139.2785   74.4735  220.3988 H   0  0  0  0  0  0  0  0  0  0  0  0
  137.8689   78.1565  221.1450 H   0  0  0  0  0  0  0  0  0  0  0  0
  139.2089   79.2905  221.4264 H   0  0  0  0  0  0  0  0  0  0  0  0
  138.4881   77.7566  218.9163 H   0  0  0  0  0  0  0  0  0  0  0  0
  138.6721   79.5749  219.2039 H   0  0  0  0  0  0  0  0  0  0  0  0
  141.4127   76.6963  219.0939 H   0  0  0  0  0  0  0  0  0  0  0  0
  142.3734   78.2291  219.5109 H   0  0  0  0  0  0  0  0  0  0  0  0
  141.8496   76.6080  221.2716 H   0  0  0  0  0  0  0  0  0  0  0  0
  142.2934   79.9745  220.4364 H   0  0  0  0  0  0  0  0  0  0  0  0
  142.9060   81.6762  222.1433 H   0  0  0  0  0  0  0  0  0  0  0  0
  142.6027   81.2637  224.5460 H   0  0  0  0  0  0  0  0  0  0  0  0
  141.6544   79.0912  225.2871 H   0  0  0  0  0  0  0  0  0  0  0  0
  141.0389   77.3961  223.6289 H   0  0  0  0  0  0  0  0  0  0  0  0
  139.2019   70.2963  222.1878 H   0  0  0  0  0  0  0  0  0  0  0  0
  138.7861   68.5881  223.9784 H   0  0  0  0  0  0  0  0  0  0  0  0
  139.0759   67.9311  226.2967 H   0  0  0  0  0  0  0  0  0  0  0  0
  141.1831   70.5108  229.0129 H   0  0  0  0  0  0  0  0  0  0  0  0
  141.5692   72.1813  227.1934 H   0  0  0  0  0  0  0  0  0  0  0  0
  1  2  2  0
  2  3  1  0
  3  4  1  0
  4  5  1  0
  5  6  2  0
  5  7  1  0
  7  8  1  0
  8  9  1  0
  9 10  1  0
 10 11  1  0
 10 12  1  0
 10 13  1  0
 13 14  1  0
 14 15  1  0
 15 16  2  0
 16 17  1  0
 17 18  2  0
 18 19  1  0
 19 20  2  0
  2 21  1  0
 21 22  2  0
 22 23  1  0
 23 24  2  0
 24 25  1  0
 25 26  2  0
 26 27  1  0
 26 28  1  0
 28 29  2  0
 29 30  1  0
 30 31  2  0
 14  7  1  0
 20 15  1  0
 31 21  1  0
 30 24  1  0
  3 32  1  0
  4 33  1  0
  4 34  1  0
  8 35  1  0
  8 36  1  0
  9 37  1  0
  9 38  1  0
 13 39  1  0
 13 40  1  0
 14 41  1  1
 16 42  1  0
 17 43  1  0
 18 44  1  0
 19 45  1  0
 20 46  1  0
 22 47  1  0
 23 48  1  0
 25 49  1  0
 28 50  1  0
 29 51  1  0
M  END
>  <smiles>  (30) 
O=C(NCC(=O)N1CCC(F)(F)C[C@H]1c1ccccc1)c1ccc2cc(F)ccc2n1

>  <score_type>  (30) 
oracle

>  <origin>  (30) 
autodockgpu

>  <m_score__min__energy>  (30) 
-9.0099999999999998

>  <m_primary>  (30) 
energy

>  <rmsd>  (30) 
2.225427533222418

>  <m_score__min__rmsd>  (30) 
2.225427533222418

>  <meeko>  (30) 
{"free_energy": -8.75, "intermolecular_energy": -10.24, "internal_energy": -1.78, "cluster_size": 45, "cluster_id": 1, "rank_in_cluster": 20}

>  <energy>  (30) 
-8.68

>  <cluster_rmsd>  (30) 
1.06

>  <cluster>  (30) 
1

$$$$

     RDKit          3D

 51 54  0  0  0  0  0  0  0  0999 V2000
  141.3150   72.1450  221.5220 O   0  0  0  0  0  0  0  0  0  0  0  0
  140.4470   72.4340  222.4020 C   0  0  0  0  0  0  0  0  0  0  0  0
  139.6690   73.6330  222.3150 N   0  0  0  0  0  0  0  0  0  0  0  0
  139.8390   74.5680  221.2190 C   0  0  0  0  0  0  0  0  0  0  0  0
  139.3240   75.8850  221.6200 C   0  0  0  0  0  0  0  0  0  0  0  0
  138.3100   75.9860  222.3440 O   0  0  0  0  0  0  0  0  0  0  0  0
  139.9960   77.0400  221.1710 N   0  0  0  0  0  0  0  0  0  0  0  0
  139.3610   78.0420  220.3280 C   0  0  0  0  0  0  0  0  0  0  0  0
  140.1010   78.0490  219.0260 C   0  0  0  0  0  0  0  0  0  0  0  0
  141.5800   78.0580  219.1090 C   0  0  0  0  0  0  0  0  0  0  0  0
  142.0470   79.3510  218.9720 F   0  0  0  0  0  0  0  0  0  0  0  0
  142.0560   77.3950  217.9650 F   0  0  0  0  0  0  0  0  0  0  0  0
  142.1910   77.3650  220.2820 C   0  0  0  0  0  0  0  0  0  0  0  0
  141.3990   77.3190  221.5260 C   0  0  1  0  0  0  0  0  0  0  0  0
  141.3860   78.5460  222.3440 C   0  0  0  0  0  0  0  0  0  0  0  0
  140.3290   78.9710  223.1100 C   0  0  0  0  0  0  0  0  0  0  0  0
  140.4630   80.1580  223.8350 C   0  0  0  0  0  0  0  0  0  0  0  0
  141.6020   80.9110  223.8120 C   0  0  0  0  0  0  0  0  0  0  0  0
  142.6530   80.4820  223.0450 C   0  0  0  0  0  0  0  0  0  0  0  0
  142.5420   79.3230  222.3270 C   0  0  0  0  0  0  0  0  0  0  0  0
  140.2210   71.5270  223.5470 C   0  0  0  0  0  0  0  0  0  0  0  0
  139.5370   70.3580  223.3740 C   0  0  0  0  0  0  0  0  0  0  0  0
  139.3040   69.4760  224.4330 C   0  0  0  0  0  0  0  0  0  0  0  0
  139.8020   69.8440  225.6790 C   0  0  0  0  0  0  0  0  0  0  0  0
  139.5980   69.0030  226.7640 C   0  0  0  0  0  0  0  0  0  0  0  0
  140.0990   69.3840  227.9910 C   0  0  0  0  0  0  0  0  0  0  0  0
  139.9030   68.5660  229.0560 F   0  0  0  0  0  0  0  0  0  0  0  0
  140.7860   70.5620  228.1590 C   0  0  0  0  0  0  0  0  0  0  0  0
  141.0000   71.4150  227.0850 C   0  0  0  0  0  0  0  0  0  0  0  0
  140.5000   71.0410  225.8470 C   0  0  0  0  0  0  0  0  0  0  0  0
  140.6910   71.8510  224.7810 N   0  0  0  0  0  0  0  0  0  0  0  0
  138.9630   73.7990  223.0930 H   0  0  0  0  0  0  0  0  0  0  0  0
  140.9071   74.6515  220.9695 H   0  0  0  0  0  0  0  0  0  0  0  0
  139.2861   74.2085  220.3387 H   0  0  0  0  0  0  0  0  0  0  0  0
  138.3052   77.7819  220.1614 H   0  0  0  0  0  0  0  0  0  0  0  0
  139.3926   79.0334  220.8036 H   0  0  0  0  0  0  0  0  0  0  0  0
  139.8027   77.1500  218.4667 H   0  0  0  0  0  0  0  0  0  0  0  0
  139.8298   78.9983  218.5409 H   0  0  0  0  0  0  0  0  0  0  0  0
  142.3971   76.3268  219.9824 H   0  0  0  0  0  0  0  0  0  0  0  0
  143.0792   77.9632  220.5335 H   0  0  0  0  0  0  0  0  0  0  0  0
  141.8868   76.5436  222.1350 H   0  0  0  0  0  0  0  0  0  0  0  0
  139.3963   78.3894  223.1522 H   0  0  0  0  0  0  0  0  0  0  0  0
  139.6168   80.4997  224.4491 H   0  0  0  0  0  0  0  0  0  0  0  0
  141.6740   81.8405  224.3958 H   0  0  0  0  0  0  0  0  0  0  0  0
  143.5833   81.0678  223.0067 H   0  0  0  0  0  0  0  0  0  0  0  0
  143.3947   78.9933  221.7153 H   0  0  0  0  0  0  0  0  0  0  0  0
  139.1587   70.1032  222.3730 H   0  0  0  0  0  0  0  0  0  0  0  0
  138.7528   68.5351  224.2882 H   0  0  0  0  0  0  0  0  0  0  0  0
  139.0503   68.0561  226.6481 H   0  0  0  0  0  0  0  0  0  0  0  0
  141.1700   70.8317  229.1539 H   0  0  0  0  0  0  0  0  0  0  0  0
  141.5497   72.3593  227.2123 H   0  0  0  0  0  0  0  0  0  0  0  0
  1  2  2  0
  2  3  1  0
  3  4  1  0
  4  5  1  0
  5  6  2  0
  5  7  1  0
  7  8  1  0
  8  9  1  0
  9 10  1  0
 10 11  1  0
 10 12  1  0
 10 13  1  0
 13 14  1  0
 14 15  1  0
 15 16  2  0
 16 17  1  0
 17 18  2  0
 18 19  1  0
 19 20  2  0
  2 21  1  0
 21 22  2  0
 22 23  1  0
 23 24  2  0
 24 25  1  0
 25 26  2  0
 26 27  1  0
 26 28  1  0
 28 29  2  0
 29 30  1  0
 30 31  2  0
 14  7  1  0
 20 15  1  0
 31 21  1  0
 30 24  1  0
  3 32  1  0
  4 33  1  0
  4 34  1  0
  8 35  1  0
  8 36  1  0
  9 37  1  0
  9 38  1  0
 13 39  1  0
 13 40  1  0
 14 41  1  1
 16 42  1  0
 17 43  1  0
 18 44  1  0
 19 45  1  0
 20 46  1  0
 22 47  1  0
 23 48  1  0
 25 49  1  0
 28 50  1  0
 29 51  1  0
M  END
>  <smiles>  (31) 
O=C(NCC(=O)N1CCC(F)(F)C[C@H]1c1ccccc1)c1ccc2cc(F)ccc2n1

>  <score_type>  (31) 
oracle

>  <origin>  (31) 
autodockgpu

>  <m_score__min__energy>  (31) 
-9.0099999999999998

>  <m_primary>  (31) 
energy

>  <rmsd>  (31) 
2.115125687169673

>  <m_score__min__rmsd>  (31) 
2.115125687169673

>  <meeko>  (31) 
{"free_energy": -8.87, "intermolecular_energy": -10.36, "internal_energy": -1.64, "cluster_size": 45, "cluster_id": 1, "rank_in_cluster": 10}

>  <energy>  (31) 
-8.68

>  <cluster_rmsd>  (31) 
0.93

>  <cluster>  (31) 
1

$$$$

     RDKit          3D

 51 54  0  0  0  0  0  0  0  0999 V2000
  140.1460   71.8060  220.9310 O   0  0  0  0  0  0  0  0  0  0  0  0
  139.9320   72.2750  222.0910 C   0  0  0  0  0  0  0  0  0  0  0  0
  139.6860   73.6710  222.2950 N   0  0  0  0  0  0  0  0  0  0  0  0
  139.6700   74.6070  221.1870 C   0  0  0  0  0  0  0  0  0  0  0  0
  139.4870   75.9700  221.7060 C   0  0  0  0  0  0  0  0  0  0  0  0
  138.8370   76.1780  222.7530 O   0  0  0  0  0  0  0  0  0  0  0  0
  140.0600   77.0470  220.9980 N   0  0  0  0  0  0  0  0  0  0  0  0
  139.2780   77.9410  220.1580 C   0  0  0  0  0  0  0  0  0  0  0  0
  139.7740   77.7680  218.7560 C   0  0  0  0  0  0  0  0  0  0  0  0
  141.2440   77.7640  218.5740 C   0  0  0  0  0  0  0  0  0  0  0  0
  141.6690   79.0210  218.1880 F   0  0  0  0  0  0  0  0  0  0  0  0
  141.5140   76.9510  217.4600 F   0  0  0  0  0  0  0  0  0  0  0  0
  142.0590   77.2190  219.7000 C   0  0  0  0  0  0  0  0  0  0  0  0
  141.5020   77.3470  221.0590 C   0  0  1  0  0  0  0  0  0  0  0  0
  141.6250   78.6700  221.6990 C   0  0  0  0  0  0  0  0  0  0  0  0
  141.8110   79.8540  221.0300 C   0  0  0  0  0  0  0  0  0  0  0  0
  141.9090   81.0340  221.7740 C   0  0  0  0  0  0  0  0  0  0  0  0
  141.8280   81.0550  223.1360 C   0  0  0  0  0  0  0  0  0  0  0  0
  141.6430   79.8690  223.7980 C   0  0  0  0  0  0  0  0  0  0  0  0
  141.5440   78.7040  223.0890 C   0  0  0  0  0  0  0  0  0  0  0  0
  139.9330   71.3790  223.2650 C   0  0  0  0  0  0  0  0  0  0  0  0
  139.5360   70.0790  223.1390 C   0  0  0  0  0  0  0  0  0  0  0  0
  139.5240   69.2020  224.2280 C   0  0  0  0  0  0  0  0  0  0  0  0
  139.9370   69.7160  225.4540 C   0  0  0  0  0  0  0  0  0  0  0  0
  139.9440   68.8860  226.5660 C   0  0  0  0  0  0  0  0  0  0  0  0
  140.3560   69.4120  227.7720 C   0  0  0  0  0  0  0  0  0  0  0  0
  140.3650   68.6070  228.8650 F   0  0  0  0  0  0  0  0  0  0  0  0
  140.7540   70.7220  227.8930 C   0  0  0  0  0  0  0  0  0  0  0  0
  140.7540   71.5650  226.7910 C   0  0  0  0  0  0  0  0  0  0  0  0
  140.3410   71.0460  225.5740 C   0  0  0  0  0  0  0  0  0  0  0  0
  140.3290   71.8430  224.4810 N   0  0  0  0  0  0  0  0  0  0  0  0
  139.5160   73.9820  223.2980 H   0  0  0  0  0  0  0  0  0  0  0  0
  140.6229   74.5465  220.6409 H   0  0  0  0  0  0  0  0  0  0  0  0
  138.8432   74.3578  220.5056 H   0  0  0  0  0  0  0  0  0  0  0  0
  138.2114   77.6783  220.2167 H   0  0  0  0  0  0  0  0  0  0  0  0
  139.3866   78.9849  220.4873 H   0  0  0  0  0  0  0  0  0  0  0  0
  139.3875   76.8092  218.3800 H   0  0  0  0  0  0  0  0  0  0  0  0
  139.4137   78.6506  218.2072 H   0  0  0  0  0  0  0  0  0  0  0  0
  142.2161   76.1476  219.5064 H   0  0  0  0  0  0  0  0  0  0  0  0
  142.9734   77.8304  219.7098 H   0  0  0  0  0  0  0  0  0  0  0  0
  142.0964   76.6495  221.6674 H   0  0  0  0  0  0  0  0  0  0  0  0
  141.8815   79.8742  219.9324 H   0  0  0  0  0  0  0  0  0  0  0  0
  142.0574   81.9839  221.2396 H   0  0  0  0  0  0  0  0  0  0  0  0
  141.9093   82.0019  223.6900 H   0  0  0  0  0  0  0  0  0  0  0  0
  141.5744   79.8545  224.8958 H   0  0  0  0  0  0  0  0  0  0  0  0
  141.3952   77.7610  223.6354 H   0  0  0  0  0  0  0  0  0  0  0  0
  139.2165   69.7110  222.1529 H   0  0  0  0  0  0  0  0  0  0  0  0
  139.2033   68.1552  224.1210 H   0  0  0  0  0  0  0  0  0  0  0  0
  139.6288   67.8351  226.4873 H   0  0  0  0  0  0  0  0  0  0  0  0
  141.0755   71.1056  228.8725 H   0  0  0  0  0  0  0  0  0  0  0  0
  141.0723   72.6141  226.8805 H   0  0  0  0  0  0  0  0  0  0  0  0
  1  2  2  0
  2  3  1  0
  3  4  1  0
  4  5  1  0
  5  6  2  0
  5  7  1  0
  7  8  1  0
  8  9  1  0
  9 10  1  0
 10 11  1  0
 10 12  1  0
 10 13  1  0
 13 14  1  0
 14 15  1  0
 15 16  2  0
 16 17  1  0
 17 18  2  0
 18 19  1  0
 19 20  2  0
  2 21  1  0
 21 22  2  0
 22 23  1  0
 23 24  2  0
 24 25  1  0
 25 26  2  0
 26 27  1  0
 26 28  1  0
 28 29  2  0
 29 30  1  0
 30 31  2  0
 14  7  1  0
 20 15  1  0
 31 21  1  0
 30 24  1  0
  3 32  1  0
  4 33  1  0
  4 34  1  0
  8 35  1  0
  8 36  1  0
  9 37  1  0
  9 38  1  0
 13 39  1  0
 13 40  1  0
 14 41  1  1
 16 42  1  0
 17 43  1  0
 18 44  1  0
 19 45  1  0
 20 46  1  0
 22 47  1  0
 23 48  1  0
 25 49  1  0
 28 50  1  0
 29 51  1  0
M  END
>  <smiles>  (32) 
O=C(NCC(=O)N1CCC(F)(F)C[C@H]1c1ccccc1)c1ccc2cc(F)ccc2n1

>  <score_type>  (32) 
oracle

>  <origin>  (32) 
autodockgpu

>  <m_score__min__energy>  (32) 
-9.0099999999999998

>  <m_primary>  (32) 
energy

>  <rmsd>  (32) 
1.8619910357150147

>  <m_score__min__rmsd>  (32) 
1.8619910357150147

>  <meeko>  (32) 
{"free_energy": -8.43, "intermolecular_energy": -9.92, "internal_energy": -1.89, "cluster_size": 45, "cluster_id": 1, "rank_in_cluster": 40}

>  <energy>  (32) 
-8.64

>  <cluster_rmsd>  (32) 
1.14

>  <cluster>  (32) 
1

$$$$

     RDKit          3D

 51 54  0  0  0  0  0  0  0  0999 V2000
  138.7100   71.2200  221.4530 O   0  0  0  0  0  0  0  0  0  0  0  0
  139.1700   71.6870  222.5400 C   0  0  0  0  0  0  0  0  0  0  0  0
  139.4780   73.0780  222.6810 N   0  0  0  0  0  0  0  0  0  0  0  0
  139.2760   74.0120  221.5890 C   0  0  0  0  0  0  0  0  0  0  0  0
  140.3960   74.9640  221.5520 C   0  0  0  0  0  0  0  0  0  0  0  0
  141.5780   74.5700  221.6450 O   0  0  0  0  0  0  0  0  0  0  0  0
  140.1130   76.3380  221.4080 N   0  0  0  0  0  0  0  0  0  0  0  0
  138.8470   76.9270  221.8180 C   0  0  0  0  0  0  0  0  0  0  0  0
  138.1910   77.4560  220.5810 C   0  0  0  0  0  0  0  0  0  0  0  0
  139.0490   78.2410  219.6630 C   0  0  0  0  0  0  0  0  0  0  0  0
  138.8740   79.5900  219.9020 F   0  0  0  0  0  0  0  0  0  0  0  0
  138.5420   78.0500  218.3670 F   0  0  0  0  0  0  0  0  0  0  0  0
  140.4940   77.8660  219.6100 C   0  0  0  0  0  0  0  0  0  0  0  0
  141.0850   77.2830  220.8290 C   0  0  1  0  0  0  0  0  0  0  0  0
  141.4400   78.2270  221.9050 C   0  0  0  0  0  0  0  0  0  0  0  0
  141.4400   77.9290  223.2450 C   0  0  0  0  0  0  0  0  0  0  0  0
  141.8020   78.9300  224.1510 C   0  0  0  0  0  0  0  0  0  0  0  0
  142.1540   80.1890  223.7580 C   0  0  0  0  0  0  0  0  0  0  0  0
  142.1510   80.4790  222.4190 C   0  0  0  0  0  0  0  0  0  0  0  0
  141.8000   79.5150  221.5150 C   0  0  0  0  0  0  0  0  0  0  0  0
  139.4010   70.7920  223.6930 C   0  0  0  0  0  0  0  0  0  0  0  0
  139.0210   69.4820  223.6340 C   0  0  0  0  0  0  0  0  0  0  0  0
  139.2220   68.6070  224.7050 C   0  0  0  0  0  0  0  0  0  0  0  0
  139.8300   69.1320  225.8410 C   0  0  0  0  0  0  0  0  0  0  0  0
  140.0540   68.3050  226.9320 C   0  0  0  0  0  0  0  0  0  0  0  0
  140.6570   68.8430  228.0490 C   0  0  0  0  0  0  0  0  0  0  0  0
  140.8790   68.0390  229.1200 F   0  0  0  0  0  0  0  0  0  0  0  0
  141.0370   70.1620  228.1020 C   0  0  0  0  0  0  0  0  0  0  0  0
  140.8220   71.0040  227.0200 C   0  0  0  0  0  0  0  0  0  0  0  0
  140.2160   70.4730  225.8930 C   0  0  0  0  0  0  0  0  0  0  0  0
  139.9920   71.2680  224.8220 N   0  0  0  0  0  0  0  0  0  0  0  0
  139.8590   73.3880  223.6240 H   0  0  0  0  0  0  0  0  0  0  0  0
  139.2300   73.4613  220.6379 H   0  0  0  0  0  0  0  0  0  0  0  0
  138.3328   74.5575  221.7397 H   0  0  0  0  0  0  0  0  0  0  0  0
  138.2091   76.1634  222.2871 H   0  0  0  0  0  0  0  0  0  0  0  0
  139.0067   77.7302  222.5524 H   0  0  0  0  0  0  0  0  0  0  0  0
  137.7970   76.5971  220.0180 H   0  0  0  0  0  0  0  0  0  0  0  0
  137.4236   78.1596  220.9360 H   0  0  0  0  0  0  0  0  0  0  0  0
  140.6157   77.1320  218.7998 H   0  0  0  0  0  0  0  0  0  0  0  0
  141.0280   78.8164  219.4631 H   0  0  0  0  0  0  0  0  0  0  0  0
  142.0276   76.8294  220.4887 H   0  0  0  0  0  0  0  0  0  0  0  0
  141.1614   76.9251  223.5978 H   0  0  0  0  0  0  0  0  0  0  0  0
  141.8033   78.6934  225.2253 H   0  0  0  0  0  0  0  0  0  0  0  0
  142.4335   80.9526  224.4988 H   0  0  0  0  0  0  0  0  0  0  0  0
  142.4302   81.4848  222.0720 H   0  0  0  0  0  0  0  0  0  0  0  0
  141.8020   79.7649  220.4438 H   0  0  0  0  0  0  0  0  0  0  0  0
  138.5432   69.1047  222.7178 H   0  0  0  0  0  0  0  0  0  0  0  0
  138.9139   67.5524  224.6523 H   0  0  0  0  0  0  0  0  0  0  0  0
  139.7578   67.2459  226.9065 H   0  0  0  0  0  0  0  0  0  0  0  0
  141.5164   70.5546  229.0109 H   0  0  0  0  0  0  0  0  0  0  0  0
  141.1237   72.0612  227.0561 H   0  0  0  0  0  0  0  0  0  0  0  0
  1  2  2  0
  2  3  1  0
  3  4  1  0
  4  5  1  0
  5  6  2  0
  5  7  1  0
  7  8  1  0
  8  9  1  0
  9 10  1  0
 10 11  1  0
 10 12  1  0
 10 13  1  0
 13 14  1  0
 14 15  1  0
 15 16  2  0
 16 17  1  0
 17 18  2  0
 18 19  1  0
 19 20  2  0
  2 21  1  0
 21 22  2  0
 22 23  1  0
 23 24  2  0
 24 25  1  0
 25 26  2  0
 26 27  1  0
 26 28  1  0
 28 29  2  0
 29 30  1  0
 30 31  2  0
 14  7  1  0
 20 15  1  0
 31 21  1  0
 30 24  1  0
  3 32  1  0
  4 33  1  0
  4 34  1  0
  8 35  1  0
  8 36  1  0
  9 37  1  0
  9 38  1  0
 13 39  1  0
 13 40  1  0
 14 41  1  6
 16 42  1  0
 17 43  1  0
 18 44  1  0
 19 45  1  0
 20 46  1  0
 22 47  1  0
 23 48  1  0
 25 49  1  0
 28 50  1  0
 29 51  1  0
M  END
>  <smiles>  (33) 
O=C(NCC(=O)N1CCC(F)(F)C[C@H]1c1ccccc1)c1ccc2cc(F)ccc2n1

>  <score_type>  (33) 
oracle

>  <origin>  (33) 
autodockgpu

>  <m_score__min__energy>  (33) 
-9.0099999999999998

>  <m_primary>  (33) 
energy

>  <rmsd>  (33) 
1.9447084524164249

>  <m_score__min__rmsd>  (33) 
1.9447084524164249

>  <meeko>  (33) 
{"free_energy": -8.39, "intermolecular_energy": -9.88, "internal_energy": -1.66, "cluster_size": 45, "cluster_id": 1, "rank_in_cluster": 43}

>  <energy>  (33) 
-8.63

>  <cluster_rmsd>  (33) 
0.94

>  <cluster>  (33) 
1

$$$$

     RDKit          3D

 51 54  0  0  0  0  0  0  0  0999 V2000
  141.1430   72.3710  221.6840 O   0  0  0  0  0  0  0  0  0  0  0  0
  140.1800   72.5050  222.5010 C   0  0  0  0  0  0  0  0  0  0  0  0
  139.2130   73.5490  222.3470 N   0  0  0  0  0  0  0  0  0  0  0  0
  139.2910   74.4980  221.2520 C   0  0  0  0  0  0  0  0  0  0  0  0
  140.3490   75.4790  221.5340 C   0  0  0  0  0  0  0  0  0  0  0  0
  141.4620   75.1170  221.9720 O   0  0  0  0  0  0  0  0  0  0  0  0
  140.0850   76.8440  221.3020 N   0  0  0  0  0  0  0  0  0  0  0  0
  138.8150   77.4690  221.6420 C   0  0  0  0  0  0  0  0  0  0  0  0
  138.1980   77.9300  220.3580 C   0  0  0  0  0  0  0  0  0  0  0  0
  139.0900   78.6510  219.4200 C   0  0  0  0  0  0  0  0  0  0  0  0
  138.9240   80.0140  219.5740 F   0  0  0  0  0  0  0  0  0  0  0  0
  138.6160   78.3890  218.1240 F   0  0  0  0  0  0  0  0  0  0  0  0
  140.5310   78.2600  219.4280 C   0  0  0  0  0  0  0  0  0  0  0  0
  141.0830   77.7440  220.6950 C   0  0  1  0  0  0  0  0  0  0  0  0
  141.4190   78.7470  221.7230 C   0  0  0  0  0  0  0  0  0  0  0  0
  141.6780   80.0720  221.4750 C   0  0  0  0  0  0  0  0  0  0  0  0
  141.9820   80.9070  222.5540 C   0  0  0  0  0  0  0  0  0  0  0  0
  142.0320   80.4570  223.8420 C   0  0  0  0  0  0  0  0  0  0  0  0
  141.7730   79.1330  224.0830 C   0  0  0  0  0  0  0  0  0  0  0  0
  141.4740   78.3000  223.0410 C   0  0  0  0  0  0  0  0  0  0  0  0
  140.0400   71.5740  223.6400 C   0  0  0  0  0  0  0  0  0  0  0  0
  139.3760   70.3920  223.4840 C   0  0  0  0  0  0  0  0  0  0  0  0
  139.2220   69.4870  224.5390 C   0  0  0  0  0  0  0  0  0  0  0  0
  139.7810   69.8470  225.7620 C   0  0  0  0  0  0  0  0  0  0  0  0
  139.6570   68.9830  226.8410 C   0  0  0  0  0  0  0  0  0  0  0  0
  140.2160   69.3560  228.0450 C   0  0  0  0  0  0  0  0  0  0  0  0
  140.0990   68.5170  229.1050 F   0  0  0  0  0  0  0  0  0  0  0  0
  140.8830   70.5480  228.1960 C   0  0  0  0  0  0  0  0  0  0  0  0
  141.0170   71.4230  227.1270 C   0  0  0  0  0  0  0  0  0  0  0  0
  140.4580   71.0580  225.9120 C   0  0  0  0  0  0  0  0  0  0  0  0
  140.5710   71.8890  224.8520 N   0  0  0  0  0  0  0  0  0  0  0  0
  138.4380   73.5910  223.0750 H   0  0  0  0  0  0  0  0  0  0  0  0
  139.5241   73.9641  220.3189 H   0  0  0  0  0  0  0  0  0  0  0  0
  138.3269   75.0165  221.1442 H   0  0  0  0  0  0  0  0  0  0  0  0
  138.1562   76.7410  222.1380 H   0  0  0  0  0  0  0  0  0  0  0  0
  138.9643   78.3128  222.3317 H   0  0  0  0  0  0  0  0  0  0  0  0
  137.8099   77.0431  219.8358 H   0  0  0  0  0  0  0  0  0  0  0  0
  137.4286   78.6602  220.6492 H   0  0  0  0  0  0  0  0  0  0  0  0
  140.6660   77.4785  218.6657 H   0  0  0  0  0  0  0  0  0  0  0  0
  141.0793   79.1949  219.2400 H   0  0  0  0  0  0  0  0  0  0  0  0
  142.0291   77.2619  220.4080 H   0  0  0  0  0  0  0  0  0  0  0  0
  141.6470   80.4682  220.4493 H   0  0  0  0  0  0  0  0  0  0  0  0
  142.1893   81.9693  222.3575 H   0  0  0  0  0  0  0  0  0  0  0  0
  142.2748   81.1419  224.6679 H   0  0  0  0  0  0  0  0  0  0  0  0
  141.8055   78.7421  225.1107 H   0  0  0  0  0  0  0  0  0  0  0  0
  141.2697   77.2397  223.2508 H   0  0  0  0  0  0  0  0  0  0  0  0
  138.9499   70.1441  222.5006 H   0  0  0  0  0  0  0  0  0  0  0  0
  138.6847   68.5360  224.4086 H   0  0  0  0  0  0  0  0  0  0  0  0
  139.1263   68.0250  226.7383 H   0  0  0  0  0  0  0  0  0  0  0  0
  141.3146   70.8110  229.1730 H   0  0  0  0  0  0  0  0  0  0  0  0
  141.5510   72.3780  227.2405 H   0  0  0  0  0  0  0  0  0  0  0  0
  1  2  2  0
  2  3  1  0
  3  4  1  0
  4  5  1  0
  5  6  2  0
  5  7  1  0
  7  8  1  0
  8  9  1  0
  9 10  1  0
 10 11  1  0
 10 12  1  0
 10 13  1  0
 13 14  1  0
 14 15  1  0
 15 16  2  0
 16 17  1  0
 17 18  2  0
 18 19  1  0
 19 20  2  0
  2 21  1  0
 21 22  2  0
 22 23  1  0
 23 24  2  0
 24 25  1  0
 25 26  2  0
 26 27  1  0
 26 28  1  0
 28 29  2  0
 29 30  1  0
 30 31  2  0
 14  7  1  0
 20 15  1  0
 31 21  1  0
 30 24  1  0
  3 32  1  0
  4 33  1  0
  4 34  1  0
  8 35  1  0
  8 36  1  0
  9 37  1  0
  9 38  1  0
 13 39  1  0
 13 40  1  0
 14 41  1  6
 16 42  1  0
 17 43  1  0
 18 44  1  0
 19 45  1  0
 20 46  1  0
 22 47  1  0
 23 48  1  0
 25 49  1  0
 28 50  1  0
 29 51  1  0
M  END
>  <smiles>  (34) 
O=C(NCC(=O)N1CCC(F)(F)C[C@H]1c1ccccc1)c1ccc2cc(F)ccc2n1

>  <score_type>  (34) 
oracle

>  <origin>  (34) 
autodockgpu

>  <m_score__min__energy>  (34) 
-9.0099999999999998

>  <m_primary>  (34) 
energy

>  <rmsd>  (34) 
2.1291533412224783

>  <m_score__min__rmsd>  (34) 
2.1291533412224783

>  <meeko>  (34) 
{"free_energy": -8.94, "intermolecular_energy": -10.43, "internal_energy": -1.28, "cluster_size": 45, "cluster_id": 1, "rank_in_cluster": 4}

>  <energy>  (34) 
-8.61

>  <cluster_rmsd>  (34) 
1.32

>  <cluster>  (34) 
1

$$$$

     RDKit          3D

 51 54  0  0  0  0  0  0  0  0999 V2000
  141.4160   72.3030  221.5960 O   0  0  0  0  0  0  0  0  0  0  0  0
  140.4980   72.5280  222.4440 C   0  0  0  0  0  0  0  0  0  0  0  0
  139.6550   73.6810  222.3390 N   0  0  0  0  0  0  0  0  0  0  0  0
  139.8140   74.6390  221.2610 C   0  0  0  0  0  0  0  0  0  0  0  0
  139.3250   75.9530  221.7030 C   0  0  0  0  0  0  0  0  0  0  0  0
  138.3540   76.0480  222.4840 O   0  0  0  0  0  0  0  0  0  0  0  0
  139.9730   77.1120  221.2290 N   0  0  0  0  0  0  0  0  0  0  0  0
  139.3110   78.0940  220.3840 C   0  0  0  0  0  0  0  0  0  0  0  0
  140.0290   78.0950  219.0710 C   0  0  0  0  0  0  0  0  0  0  0  0
  141.5090   78.1250  219.1290 C   0  0  0  0  0  0  0  0  0  0  0  0
  141.9550   79.4230  218.9680 F   0  0  0  0  0  0  0  0  0  0  0  0
  141.9750   77.4550  217.9860 F   0  0  0  0  0  0  0  0  0  0  0  0
  142.1490   77.4560  220.3000 C   0  0  0  0  0  0  0  0  0  0  0  0
  141.3780   77.4140  221.5570 C   0  0  1  0  0  0  0  0  0  0  0  0
  141.3610   78.6520  222.3600 C   0  0  0  0  0  0  0  0  0  0  0  0
  140.2950   79.0930  223.1040 C   0  0  0  0  0  0  0  0  0  0  0  0
  140.4270   80.2880  223.8170 C   0  0  0  0  0  0  0  0  0  0  0  0
  141.5710   81.0320  223.8030 C   0  0  0  0  0  0  0  0  0  0  0  0
  142.6310   80.5860  223.0580 C   0  0  0  0  0  0  0  0  0  0  0  0
  142.5230   79.4190  222.3530 C   0  0  0  0  0  0  0  0  0  0  0  0
  140.2810   71.5940  223.5680 C   0  0  0  0  0  0  0  0  0  0  0  0
  139.6000   70.4280  223.3710 C   0  0  0  0  0  0  0  0  0  0  0  0
  139.3750   69.5200  224.4100 C   0  0  0  0  0  0  0  0  0  0  0  0
  139.8780   69.8610  225.6620 C   0  0  0  0  0  0  0  0  0  0  0  0
  139.6820   68.9940  226.7280 C   0  0  0  0  0  0  0  0  0  0  0  0
  140.1880   69.3480  227.9610 C   0  0  0  0  0  0  0  0  0  0  0  0
  140.0000   68.5050  229.0080 F   0  0  0  0  0  0  0  0  0  0  0  0
  140.8730   70.5240  228.1530 C   0  0  0  0  0  0  0  0  0  0  0  0
  141.0780   71.4020  227.0980 C   0  0  0  0  0  0  0  0  0  0  0  0
  140.5740   71.0560  225.8550 C   0  0  0  0  0  0  0  0  0  0  0  0
  140.7570   71.8910  224.8070 N   0  0  0  0  0  0  0  0  0  0  0  0
  138.9110   73.7960  223.0900 H   0  0  0  0  0  0  0  0  0  0  0  0
  140.8775   74.7146  220.9905 H   0  0  0  0  0  0  0  0  0  0  0  0
  139.2378   74.3069  220.3848 H   0  0  0  0  0  0  0  0  0  0  0  0
  138.2565   77.8173  220.2379 H   0  0  0  0  0  0  0  0  0  0  0  0
  139.3367   79.0916  220.8467 H   0  0  0  0  0  0  0  0  0  0  0  0
  139.7339   77.1853  218.5276 H   0  0  0  0  0  0  0  0  0  0  0  0
  139.7370   79.0347  218.5793 H   0  0  0  0  0  0  0  0  0  0  0  0
  142.3658   76.4173  220.0099 H   0  0  0  0  0  0  0  0  0  0  0  0
  143.0322   78.0702  220.5296 H   0  0  0  0  0  0  0  0  0  0  0  0
  141.8862   76.6524  222.1668 H   0  0  0  0  0  0  0  0  0  0  0  0
  139.3575   78.5186  223.1383 H   0  0  0  0  0  0  0  0  0  0  0  0
  139.5740   80.6432  224.4138 H   0  0  0  0  0  0  0  0  0  0  0  0
  141.6405   81.9681  224.3765 H   0  0  0  0  0  0  0  0  0  0  0  0
  143.5659   81.1648  223.0270 H   0  0  0  0  0  0  0  0  0  0  0  0
  143.3834   79.0747  221.7603 H   0  0  0  0  0  0  0  0  0  0  0  0
  139.2172   70.1959  222.3662 H   0  0  0  0  0  0  0  0  0  0  0  0
  138.8265   68.5808  224.2457 H   0  0  0  0  0  0  0  0  0  0  0  0
  139.1368   68.0483  226.5927 H   0  0  0  0  0  0  0  0  0  0  0  0
  141.2622   70.7714  229.1517 H   0  0  0  0  0  0  0  0  0  0  0  0
  141.6248   72.3452  227.2446 H   0  0  0  0  0  0  0  0  0  0  0  0
  1  2  2  0
  2  3  1  0
  3  4  1  0
  4  5  1  0
  5  6  2  0
  5  7  1  0
  7  8  1  0
  8  9  1  0
  9 10  1  0
 10 11  1  0
 10 12  1  0
 10 13  1  0
 13 14  1  0
 14 15  1  0
 15 16  2  0
 16 17  1  0
 17 18  2  0
 18 19  1  0
 19 20  2  0
  2 21  1  0
 21 22  2  0
 22 23  1  0
 23 24  2  0
 24 25  1  0
 25 26  2  0
 26 27  1  0
 26 28  1  0
 28 29  2  0
 29 30  1  0
 30 31  2  0
 14  7  1  0
 20 15  1  0
 31 21  1  0
 30 24  1  0
  3 32  1  0
  4 33  1  0
  4 34  1  0
  8 35  1  0
  8 36  1  0
  9 37  1  0
  9 38  1  0
 13 39  1  0
 13 40  1  0
 14 41  1  1
 16 42  1  0
 17 43  1  0
 18 44  1  0
 19 45  1  0
 20 46  1  0
 22 47  1  0
 23 48  1  0
 25 49  1  0
 28 50  1  0
 29 51  1  0
M  END
>  <smiles>  (35) 
O=C(NCC(=O)N1CCC(F)(F)C[C@H]1c1ccccc1)c1ccc2cc(F)ccc2n1

>  <score_type>  (35) 
oracle

>  <origin>  (35) 
autodockgpu

>  <m_score__min__energy>  (35) 
-9.0099999999999998

>  <m_primary>  (35) 
energy

>  <rmsd>  (35) 
2.1547086735879875

>  <m_score__min__rmsd>  (35) 
2.1547086735879875

>  <meeko>  (35) 
{"free_energy": -8.92, "intermolecular_energy": -10.41, "internal_energy": -1.62, "cluster_size": 45, "cluster_id": 1, "rank_in_cluster": 7}

>  <energy>  (35) 
-8.6

>  <cluster_rmsd>  (35) 
1.38

>  <cluster>  (35) 
1

$$$$

     RDKit          3D

 51 54  0  0  0  0  0  0  0  0999 V2000
  132.9960   69.5080  226.3910 O   0  0  0  0  0  0  0  0  0  0  0  0
  133.7350   70.5180  226.1800 C   0  0  0  0  0  0  0  0  0  0  0  0
  135.0420   70.3790  225.6110 N   0  0  0  0  0  0  0  0  0  0  0  0
  135.5760   69.0780  225.2510 C   0  0  0  0  0  0  0  0  0  0  0  0
  136.3550   69.2000  224.0100 C   0  0  0  0  0  0  0  0  0  0  0  0
  136.0310   68.5670  222.9830 O   0  0  0  0  0  0  0  0  0  0  0  0
  137.4800   70.0500  223.9970 N   0  0  0  0  0  0  0  0  0  0  0  0
  137.3710   71.4990  223.9200 C   0  0  0  0  0  0  0  0  0  0  0  0
  138.0090   71.9170  222.6320 C   0  0  0  0  0  0  0  0  0  0  0  0
  139.3240   71.3090  222.3210 C   0  0  0  0  0  0  0  0  0  0  0  0
  140.3360   72.1740  222.6890 F   0  0  0  0  0  0  0  0  0  0  0  0
  139.4200   71.2400  220.9210 F   0  0  0  0  0  0  0  0  0  0  0  0
  139.5610   69.9240  222.8280 C   0  0  0  0  0  0  0  0  0  0  0  0
  138.8570   69.5280  224.0620 C   0  0  1  0  0  0  0  0  0  0  0  0
  139.4290   70.0170  225.3310 C   0  0  0  0  0  0  0  0  0  0  0  0
  140.2150   71.1350  225.4610 C   0  0  0  0  0  0  0  0  0  0  0  0
  140.6850   71.4770  226.7320 C   0  0  0  0  0  0  0  0  0  0  0  0
  140.3930   70.7450  227.8470 C   0  0  0  0  0  0  0  0  0  0  0  0
  139.6080   69.6310  227.7100 C   0  0  0  0  0  0  0  0  0  0  0  0
  139.1380   69.2780  226.4750 C   0  0  0  0  0  0  0  0  0  0  0  0
  133.2550   71.8730  226.5230 C   0  0  0  0  0  0  0  0  0  0  0  0
  132.0840   72.0360  227.2060 C   0  0  0  0  0  0  0  0  0  0  0  0
  131.5990   73.3010  227.5470 C   0  0  0  0  0  0  0  0  0  0  0  0
  132.3660   74.3950  227.1570 C   0  0  0  0  0  0  0  0  0  0  0  0
  131.9280   75.6740  227.4720 C   0  0  0  0  0  0  0  0  0  0  0  0
  132.7010   76.7460  227.0770 C   0  0  0  0  0  0  0  0  0  0  0  0
  132.2800   77.9990  227.3810 F   0  0  0  0  0  0  0  0  0  0  0  0
  133.8790   76.5750  226.3900 C   0  0  0  0  0  0  0  0  0  0  0  0
  134.3320   75.3030  226.0680 C   0  0  0  0  0  0  0  0  0  0  0  0
  133.5620   74.2200  226.4590 C   0  0  0  0  0  0  0  0  0  0  0  0
  133.9760   72.9680  226.1590 N   0  0  0  0  0  0  0  0  0  0  0  0
  135.5960   71.2750  225.4670 H   0  0  0  0  0  0  0  0  0  0  0  0
  136.2264   68.7113  226.0588 H   0  0  0  0  0  0  0  0  0  0  0  0
  134.7489   68.3689  225.0992 H   0  0  0  0  0  0  0  0  0  0  0  0
  136.3130   71.7996  223.9327 H   0  0  0  0  0  0  0  0  0  0  0  0
  137.8674   71.9766  224.7776 H   0  0  0  0  0  0  0  0  0  0  0  0
  137.3184   71.6566  221.8163 H   0  0  0  0  0  0  0  0  0  0  0  0
  138.2027   72.9946  222.7378 H   0  0  0  0  0  0  0  0  0  0  0  0
  139.2573   69.2249  222.0349 H   0  0  0  0  0  0  0  0  0  0  0  0
  140.6290   69.8970  223.0899 H   0  0  0  0  0  0  0  0  0  0  0  0
  138.9364   68.4311  224.0857 H   0  0  0  0  0  0  0  0  0  0  0  0
  140.4693   71.7483  224.5840 H   0  0  0  0  0  0  0  0  0  0  0  0
  141.3156   72.3720  226.8384 H   0  0  0  0  0  0  0  0  0  0  0  0
  140.7794   71.0432  228.8328 H   0  0  0  0  0  0  0  0  0  0  0  0
  139.3563   69.0219  228.5907 H   0  0  0  0  0  0  0  0  0  0  0  0
  138.5091   68.3803  226.3822 H   0  0  0  0  0  0  0  0  0  0  0  0
  131.5061   71.1461  227.4960 H   0  0  0  0  0  0  0  0  0  0  0  0
  130.6552   73.4265  228.0979 H   0  0  0  0  0  0  0  0  0  0  0  0
  130.9884   75.8287  228.0226 H   0  0  0  0  0  0  0  0  0  0  0  0
  134.4686   77.4547  226.0924 H   0  0  0  0  0  0  0  0  0  0  0  0
  135.2742   75.1594  225.5188 H   0  0  0  0  0  0  0  0  0  0  0  0
  1  2  2  0
  2  3  1  0
  3  4  1  0
  4  5  1  0
  5  6  2  0
  5  7  1  0
  7  8  1  0
  8  9  1  0
  9 10  1  0
 10 11  1  0
 10 12  1  0
 10 13  1  0
 13 14  1  0
 14 15  1  0
 15 16  2  0
 16 17  1  0
 17 18  2  0
 18 19  1  0
 19 20  2  0
  2 21  1  0
 21 22  2  0
 22 23  1  0
 23 24  2  0
 24 25  1  0
 25 26  2  0
 26 27  1  0
 26 28  1  0
 28 29  2  0
 29 30  1  0
 30 31  2  0
 14  7  1  0
 20 15  1  0
 31 21  1  0
 30 24  1  0
  3 32  1  0
  4 33  1  0
  4 34  1  0
  8 35  1  0
  8 36  1  0
  9 37  1  0
  9 38  1  0
 13 39  1  0
 13 40  1  0
 14 41  1  1
 16 42  1  0
 17 43  1  0
 18 44  1  0
 19 45  1  0
 20 46  1  0
 22 47  1  0
 23 48  1  0
 25 49  1  0
 28 50  1  0
 29 51  1  0
M  END
>  <smiles>  (36) 
O=C(NCC(=O)N1CCC(F)(F)C[C@H]1c1ccccc1)c1ccc2cc(F)ccc2n1

>  <score_type>  (36) 
oracle

>  <origin>  (36) 
autodockgpu

>  <m_score__min__energy>  (36) 
-9.0099999999999998

>  <m_primary>  (36) 
energy

>  <rmsd>  (36) 
8.374605854283075

>  <m_score__min__rmsd>  (36) 
8.374605854283075

>  <meeko>  (36) 
{"free_energy": -7.77, "intermolecular_energy": -9.26, "internal_energy": -1.81, "cluster_size": 1, "cluster_id": 2, "rank_in_cluster": 1}

>  <energy>  (36) 
-8.59

>  <cluster_rmsd>  (36) 
1.27

>  <cluster>  (36) 
1

$$$$

     RDKit          3D

 51 54  0  0  0  0  0  0  0  0999 V2000
  141.3840   72.3570  221.5890 O   0  0  0  0  0  0  0  0  0  0  0  0
  140.4560   72.5560  222.4320 C   0  0  0  0  0  0  0  0  0  0  0  0
  139.6020   73.7020  222.3420 N   0  0  0  0  0  0  0  0  0  0  0  0
  139.7600   74.6820  221.2840 C   0  0  0  0  0  0  0  0  0  0  0  0
  139.3740   76.0080  221.7900 C   0  0  0  0  0  0  0  0  0  0  0  0
  138.5490   76.1260  222.7210 O   0  0  0  0  0  0  0  0  0  0  0  0
  139.9540   77.1510  221.2030 N   0  0  0  0  0  0  0  0  0  0  0  0
  139.1620   78.2260  220.6240 C   0  0  0  0  0  0  0  0  0  0  0  0
  139.4840   78.2660  219.1620 C   0  0  0  0  0  0  0  0  0  0  0  0
  140.9190   78.1980  218.8020 C   0  0  0  0  0  0  0  0  0  0  0  0
  141.4040   79.4730  218.5780 F   0  0  0  0  0  0  0  0  0  0  0  0
  140.9940   77.5750  217.5450 F   0  0  0  0  0  0  0  0  0  0  0  0
  141.8050   77.4160  219.7140 C   0  0  0  0  0  0  0  0  0  0  0  0
  141.4140   77.3430  221.1340 C   0  0  1  0  0  0  0  0  0  0  0  0
  141.7190   78.5240  221.9620 C   0  0  0  0  0  0  0  0  0  0  0  0
  142.1770   79.7260  221.4810 C   0  0  0  0  0  0  0  0  0  0  0  0
  142.4210   80.7600  222.3900 C   0  0  0  0  0  0  0  0  0  0  0  0
  142.2240   80.6220  223.7330 C   0  0  0  0  0  0  0  0  0  0  0  0
  141.7670   79.4200  224.2070 C   0  0  0  0  0  0  0  0  0  0  0  0
  141.5220   78.3960  223.3350 C   0  0  0  0  0  0  0  0  0  0  0  0
  140.2390   71.5980  223.5360 C   0  0  0  0  0  0  0  0  0  0  0  0
  139.5730   70.4280  223.3100 C   0  0  0  0  0  0  0  0  0  0  0  0
  139.3490   69.4980  224.3290 C   0  0  0  0  0  0  0  0  0  0  0  0
  139.8360   69.8200  225.5920 C   0  0  0  0  0  0  0  0  0  0  0  0
  139.6400   68.9300  226.6390 C   0  0  0  0  0  0  0  0  0  0  0  0
  140.1290   69.2650  227.8840 C   0  0  0  0  0  0  0  0  0  0  0  0
  139.9410   68.4010  228.9120 F   0  0  0  0  0  0  0  0  0  0  0  0
  140.7980   70.4460  228.1050 C   0  0  0  0  0  0  0  0  0  0  0  0
  141.0040   71.3470  227.0690 C   0  0  0  0  0  0  0  0  0  0  0  0
  140.5150   71.0190  225.8150 C   0  0  0  0  0  0  0  0  0  0  0  0
  140.6990   71.8760  224.7850 N   0  0  0  0  0  0  0  0  0  0  0  0
  138.8490   73.7940  223.0880 H   0  0  0  0  0  0  0  0  0  0  0  0
  140.8102   74.7045  220.9574 H   0  0  0  0  0  0  0  0  0  0  0  0
  139.1195   74.4114  220.4316 H   0  0  0  0  0  0  0  0  0  0  0  0
  138.0901   78.0267  220.7698 H   0  0  0  0  0  0  0  0  0  0  0  0
  139.3939   79.1880  221.1043 H   0  0  0  0  0  0  0  0  0  0  0  0
  138.9783   77.4138  218.6844 H   0  0  0  0  0  0  0  0  0  0  0  0
  139.1417   79.2518  218.8141 H   0  0  0  0  0  0  0  0  0  0  0  0
  141.8494   76.3863  219.3296 H   0  0  0  0  0  0  0  0  0  0  0  0
  142.7630   77.9566  219.7110 H   0  0  0  0  0  0  0  0  0  0  0  0
  142.0107   76.5138  221.5420 H   0  0  0  0  0  0  0  0  0  0  0  0
  142.3481   79.8721  220.4043 H   0  0  0  0  0  0  0  0  0  0  0  0
  142.7867   81.7240  222.0067 H   0  0  0  0  0  0  0  0  0  0  0  0
  142.4274   81.4567  224.4199 H   0  0  0  0  0  0  0  0  0  0  0  0
  141.5980   79.2797  225.2849 H   0  0  0  0  0  0  0  0  0  0  0  0
  141.1565   77.4373  223.7316 H   0  0  0  0  0  0  0  0  0  0  0  0
  139.2022   70.2110  222.2974 H   0  0  0  0  0  0  0  0  0  0  0  0
  138.8130   68.5559  224.1413 H   0  0  0  0  0  0  0  0  0  0  0  0
  139.1076   67.9807  226.4795 H   0  0  0  0  0  0  0  0  0  0  0  0
  141.1735   70.6790  229.1123 H   0  0  0  0  0  0  0  0  0  0  0  0
  141.5394   72.2928  227.2388 H   0  0  0  0  0  0  0  0  0  0  0  0
  1  2  2  0
  2  3  1  0
  3  4  1  0
  4  5  1  0
  5  6  2  0
  5  7  1  0
  7  8  1  0
  8  9  1  0
  9 10  1  0
 10 11  1  0
 10 12  1  0
 10 13  1  0
 13 14  1  0
 14 15  1  0
 15 16  2  0
 16 17  1  0
 17 18  2  0
 18 19  1  0
 19 20  2  0
  2 21  1  0
 21 22  2  0
 22 23  1  0
 23 24  2  0
 24 25  1  0
 25 26  2  0
 26 27  1  0
 26 28  1  0
 28 29  2  0
 29 30  1  0
 30 31  2  0
 14  7  1  0
 20 15  1  0
 31 21  1  0
 30 24  1  0
  3 32  1  0
  4 33  1  0
  4 34  1  0
  8 35  1  0
  8 36  1  0
  9 37  1  0
  9 38  1  0
 13 39  1  0
 13 40  1  0
 14 41  1  1
 16 42  1  0
 17 43  1  0
 18 44  1  0
 19 45  1  0
 20 46  1  0
 22 47  1  0
 23 48  1  0
 25 49  1  0
 28 50  1  0
 29 51  1  0
M  END
>  <smiles>  (37) 
O=C(NCC(=O)N1CCC(F)(F)C[C@H]1c1ccccc1)c1ccc2cc(F)ccc2n1

>  <score_type>  (37) 
oracle

>  <origin>  (37) 
autodockgpu

>  <m_score__min__energy>  (37) 
-9.0099999999999998

>  <m_primary>  (37) 
energy

>  <rmsd>  (37) 
2.120417303158643

>  <m_score__min__rmsd>  (37) 
2.120417303158643

>  <meeko>  (37) 
{"free_energy": -8.85, "intermolecular_energy": -10.34, "internal_energy": -1.73, "cluster_size": 45, "cluster_id": 1, "rank_in_cluster": 11}

>  <energy>  (37) 
-8.55

>  <cluster_rmsd>  (37) 
1.18

>  <cluster>  (37) 
1

$$$$

     RDKit          3D

 51 54  0  0  0  0  0  0  0  0999 V2000
  140.9670   72.0150  221.2540 O   0  0  0  0  0  0  0  0  0  0  0  0
  140.3300   72.4070  222.2800 C   0  0  0  0  0  0  0  0  0  0  0  0
  139.7510   73.7150  222.3420 N   0  0  0  0  0  0  0  0  0  0  0  0
  139.8680   74.6480  221.2370 C   0  0  0  0  0  0  0  0  0  0  0  0
  139.4000   75.9730  221.6690 C   0  0  0  0  0  0  0  0  0  0  0  0
  138.4660   76.0890  222.4910 O   0  0  0  0  0  0  0  0  0  0  0  0
  140.0260   77.1190  221.1370 N   0  0  0  0  0  0  0  0  0  0  0  0
  139.3470   78.0400  220.2370 C   0  0  0  0  0  0  0  0  0  0  0  0
  140.0730   77.9870  218.9290 C   0  0  0  0  0  0  0  0  0  0  0  0
  141.5520   78.0520  218.9930 C   0  0  0  0  0  0  0  0  0  0  0  0
  141.9710   79.3490  218.7650 F   0  0  0  0  0  0  0  0  0  0  0  0
  142.0390   77.3330  217.8890 F   0  0  0  0  0  0  0  0  0  0  0  0
  142.1990   77.4610  220.2010 C   0  0  0  0  0  0  0  0  0  0  0  0
  141.4220   77.4690  221.4550 C   0  0  1  0  0  0  0  0  0  0  0  0
  141.3740   78.7470  222.1900 C   0  0  0  0  0  0  0  0  0  0  0  0
  140.5460   79.0120  223.2530 C   0  0  0  0  0  0  0  0  0  0  0  0
  140.6130   80.2730  223.8530 C   0  0  0  0  0  0  0  0  0  0  0  0
  141.4670   81.2480  223.4250 C   0  0  0  0  0  0  0  0  0  0  0  0
  142.2900   80.9770  222.3640 C   0  0  0  0  0  0  0  0  0  0  0  0
  142.2400   79.7500  221.7620 C   0  0  0  0  0  0  0  0  0  0  0  0
  140.1720   71.5090  223.4430 C   0  0  0  0  0  0  0  0  0  0  0  0
  139.5860   70.2850  223.2930 C   0  0  0  0  0  0  0  0  0  0  0  0
  139.4190   69.4100  224.3700 C   0  0  0  0  0  0  0  0  0  0  0  0
  139.8800   69.8430  225.6090 C   0  0  0  0  0  0  0  0  0  0  0  0
  139.7400   69.0110  226.7110 C   0  0  0  0  0  0  0  0  0  0  0  0
  140.2020   69.4560  227.9310 C   0  0  0  0  0  0  0  0  0  0  0  0
  140.0680   68.6480  229.0130 F   0  0  0  0  0  0  0  0  0  0  0  0
  140.7920   70.6890  228.0760 C   0  0  0  0  0  0  0  0  0  0  0  0
  140.9410   71.5340  226.9850 C   0  0  0  0  0  0  0  0  0  0  0  0
  140.4790   71.0950  225.7540 C   0  0  0  0  0  0  0  0  0  0  0  0
  140.6090   71.8960  224.6720 N   0  0  0  0  0  0  0  0  0  0  0  0
  139.2340   73.9640  223.2380 H   0  0  0  0  0  0  0  0  0  0  0  0
  140.9198   74.7144  220.9218 H   0  0  0  0  0  0  0  0  0  0  0  0
  139.2561   74.2981  220.3926 H   0  0  0  0  0  0  0  0  0  0  0  0
  138.2998   77.7322  220.1008 H   0  0  0  0  0  0  0  0  0  0  0  0
  139.3477   79.0612  220.6458 H   0  0  0  0  0  0  0  0  0  0  0  0
  139.8007   77.0436  218.4331 H   0  0  0  0  0  0  0  0  0  0  0  0
  139.7640   78.8927  218.3865 H   0  0  0  0  0  0  0  0  0  0  0  0
  142.4400   76.4133  219.9680 H   0  0  0  0  0  0  0  0  0  0  0  0
  143.0670   78.1063  220.4016 H   0  0  0  0  0  0  0  0  0  0  0  0
  141.9426   76.7524  222.1072 H   0  0  0  0  0  0  0  0  0  0  0  0
  139.8457   78.2492  223.6241 H   0  0  0  0  0  0  0  0  0  0  0  0
  139.9507   80.4881  224.7045 H   0  0  0  0  0  0  0  0  0  0  0  0
  141.4937   82.2295  223.9210 H   0  0  0  0  0  0  0  0  0  0  0  0
  142.9886   81.7436  221.9975 H   0  0  0  0  0  0  0  0  0  0  0  0
  142.9067   79.5485  220.9106 H   0  0  0  0  0  0  0  0  0  0  0  0
  139.2354   69.9789  222.2963 H   0  0  0  0  0  0  0  0  0  0  0  0
  138.9453   68.4253  224.2438 H   0  0  0  0  0  0  0  0  0  0  0  0
  139.2717   68.0205  226.6132 H   0  0  0  0  0  0  0  0  0  0  0  0
  141.1494   71.0090  229.0659 H   0  0  0  0  0  0  0  0  0  0  0  0
  141.4115   72.5223  227.0939 H   0  0  0  0  0  0  0  0  0  0  0  0
  1  2  2  0
  2  3  1  0
  3  4  1  0
  4  5  1  0
  5  6  2  0
  5  7  1  0
  7  8  1  0
  8  9  1  0
  9 10  1  0
 10 11  1  0
 10 12  1  0
 10 13  1  0
 13 14  1  0
 14 15  1  0
 15 16  2  0
 16 17  1  0
 17 18  2  0
 18 19  1  0
 19 20  2  0
  2 21  1  0
 21 22  2  0
 22 23  1  0
 23 24  2  0
 24 25  1  0
 25 26  2  0
 26 27  1  0
 26 28  1  0
 28 29  2  0
 29 30  1  0
 30 31  2  0
 14  7  1  0
 20 15  1  0
 31 21  1  0
 30 24  1  0
  3 32  1  0
  4 33  1  0
  4 34  1  0
  8 35  1  0
  8 36  1  0
  9 37  1  0
  9 38  1  0
 13 39  1  0
 13 40  1  0
 14 41  1  1
 16 42  1  0
 17 43  1  0
 18 44  1  0
 19 45  1  0
 20 46  1  0
 22 47  1  0
 23 48  1  0
 25 49  1  0
 28 50  1  0
 29 51  1  0
M  END
>  <smiles>  (38) 
O=C(NCC(=O)N1CCC(F)(F)C[C@H]1c1ccccc1)c1ccc2cc(F)ccc2n1

>  <score_type>  (38) 
oracle

>  <origin>  (38) 
autodockgpu

>  <m_score__min__energy>  (38) 
-9.0099999999999998

>  <m_primary>  (38) 
energy

>  <rmsd>  (38) 
2.072077600012954

>  <m_score__min__rmsd>  (38) 
2.072077600012954

>  <meeko>  (38) 
{"free_energy": -8.59, "intermolecular_energy": -10.09, "internal_energy": -1.76, "cluster_size": 45, "cluster_id": 1, "rank_in_cluster": 36}

>  <energy>  (38) 
-8.54

>  <cluster_rmsd>  (38) 
1.19

>  <cluster>  (38) 
1

$$$$

     RDKit          3D

 51 54  0  0  0  0  0  0  0  0999 V2000
  140.4130   71.8690  221.0380 O   0  0  0  0  0  0  0  0  0  0  0  0
  140.0850   72.3310  222.1740 C   0  0  0  0  0  0  0  0  0  0  0  0
  139.7630   73.7150  222.3500 N   0  0  0  0  0  0  0  0  0  0  0  0
  139.7980   74.6480  221.2390 C   0  0  0  0  0  0  0  0  0  0  0  0
  139.5100   76.0020  221.7330 C   0  0  0  0  0  0  0  0  0  0  0  0
  138.7810   76.1810  222.7320 O   0  0  0  0  0  0  0  0  0  0  0  0
  140.0720   77.1040  221.0560 N   0  0  0  0  0  0  0  0  0  0  0  0
  139.2720   78.0520  220.2960 C   0  0  0  0  0  0  0  0  0  0  0  0
  139.7060   77.9420  218.8670 C   0  0  0  0  0  0  0  0  0  0  0  0
  141.1670   77.9230  218.6220 C   0  0  0  0  0  0  0  0  0  0  0  0
  141.5980   79.1910  218.2820 F   0  0  0  0  0  0  0  0  0  0  0  0
  141.3740   77.1640  217.4580 F   0  0  0  0  0  0  0  0  0  0  0  0
  142.0180   77.3090  219.6830 C   0  0  0  0  0  0  0  0  0  0  0  0
  141.5210   77.3770  221.0700 C   0  0  1  0  0  0  0  0  0  0  0  0
  141.6950   78.6640  221.7700 C   0  0  0  0  0  0  0  0  0  0  0  0
  141.8870   79.8760  221.1530 C   0  0  0  0  0  0  0  0  0  0  0  0
  142.0370   81.0140  221.9500 C   0  0  0  0  0  0  0  0  0  0  0  0
  141.9990   80.9690  223.3140 C   0  0  0  0  0  0  0  0  0  0  0  0
  141.8080   79.7570  223.9220 C   0  0  0  0  0  0  0  0  0  0  0  0
  141.6600   78.6300  223.1610 C   0  0  0  0  0  0  0  0  0  0  0  0
  140.0290   71.4380  223.3490 C   0  0  0  0  0  0  0  0  0  0  0  0
  139.5870   70.1530  223.2160 C   0  0  0  0  0  0  0  0  0  0  0  0
  139.5190   69.2790  224.3060 C   0  0  0  0  0  0  0  0  0  0  0  0
  139.9250   69.7800  225.5390 C   0  0  0  0  0  0  0  0  0  0  0  0
  139.8780   68.9530  226.6530 C   0  0  0  0  0  0  0  0  0  0  0  0
  140.2830   69.4660  227.8670 C   0  0  0  0  0  0  0  0  0  0  0  0
  140.2400   68.6640  228.9600 F   0  0  0  0  0  0  0  0  0  0  0  0
  140.7270   70.7610  227.9940 C   0  0  0  0  0  0  0  0  0  0  0  0
  140.7810   71.6010  226.8910 C   0  0  0  0  0  0  0  0  0  0  0  0
  140.3750   71.0950  225.6660 C   0  0  0  0  0  0  0  0  0  0  0  0
  140.4160   71.8900  224.5720 N   0  0  0  0  0  0  0  0  0  0  0  0
  139.4980   74.0200  223.3330 H   0  0  0  0  0  0  0  0  0  0  0  0
  140.7954   74.6303  220.7755 H   0  0  0  0  0  0  0  0  0  0  0  0
  139.0438   74.3600  220.4918 H   0  0  0  0  0  0  0  0  0  0  0  0
  138.2042   77.8040  220.3870 H   0  0  0  0  0  0  0  0  0  0  0  0
  139.4131   79.0760  220.6721 H   0  0  0  0  0  0  0  0  0  0  0  0
  139.2863   77.0100  218.4606 H   0  0  0  0  0  0  0  0  0  0  0  0
  139.3397   78.8573  218.3790 H   0  0  0  0  0  0  0  0  0  0  0  0
  142.1472   76.2464  219.4297 H   0  0  0  0  0  0  0  0  0  0  0  0
  142.9429   77.9044  219.6841 H   0  0  0  0  0  0  0  0  0  0  0  0
  142.1277   76.6400  221.6166 H   0  0  0  0  0  0  0  0  0  0  0  0
  141.9219   79.9492  220.0560 H   0  0  0  0  0  0  0  0  0  0  0  0
  142.1920   81.9857  221.4583 H   0  0  0  0  0  0  0  0  0  0  0  0
  142.1190   81.8852  223.9108 H   0  0  0  0  0  0  0  0  0  0  0  0
  141.7737   79.6899  225.0194 H   0  0  0  0  0  0  0  0  0  0  0  0
  141.5082   77.6643  223.6654 H   0  0  0  0  0  0  0  0  0  0  0  0
  139.2756   69.7949  222.2236 H   0  0  0  0  0  0  0  0  0  0  0  0
  139.1615   68.2448  224.1938 H   0  0  0  0  0  0  0  0  0  0  0  0
  139.5263   67.9141  226.5692 H   0  0  0  0  0  0  0  0  0  0  0  0
  141.0424   71.1347  228.9793 H   0  0  0  0  0  0  0  0  0  0  0  0
  141.1356   72.6380  226.9859 H   0  0  0  0  0  0  0  0  0  0  0  0
  1  2  2  0
  2  3  1  0
  3  4  1  0
  4  5  1  0
  5  6  2  0
  5  7  1  0
  7  8  1  0
  8  9  1  0
  9 10  1  0
 10 11  1  0
 10 12  1  0
 10 13  1  0
 13 14  1  0
 14 15  1  0
 15 16  2  0
 16 17  1  0
 17 18  2  0
 18 19  1  0
 19 20  2  0
  2 21  1  0
 21 22  2  0
 22 23  1  0
 23 24  2  0
 24 25  1  0
 25 26  2  0
 26 27  1  0
 26 28  1  0
 28 29  2  0
 29 30  1  0
 30 31  2  0
 14  7  1  0
 20 15  1  0
 31 21  1  0
 30 24  1  0
  3 32  1  0
  4 33  1  0
  4 34  1  0
  8 35  1  0
  8 36  1  0
  9 37  1  0
  9 38  1  0
 13 39  1  0
 13 40  1  0
 14 41  1  1
 16 42  1  0
 17 43  1  0
 18 44  1  0
 19 45  1  0
 20 46  1  0
 22 47  1  0
 23 48  1  0
 25 49  1  0
 28 50  1  0
 29 51  1  0
M  END
>  <smiles>  (39) 
O=C(NCC(=O)N1CCC(F)(F)C[C@H]1c1ccccc1)c1ccc2cc(F)ccc2n1

>  <score_type>  (39) 
oracle

>  <origin>  (39) 
autodockgpu

>  <m_score__min__energy>  (39) 
-9.0099999999999998

>  <m_primary>  (39) 
energy

>  <rmsd>  (39) 
1.9495169882753618

>  <m_score__min__rmsd>  (39) 
1.9495169882753618

>  <meeko>  (39) 
{"free_energy": -8.55, "intermolecular_energy": -10.04, "internal_energy": -1.87, "cluster_size": 45, "cluster_id": 1, "rank_in_cluster": 37}

>  <energy>  (39) 
-8.47

>  <cluster_rmsd>  (39) 
0.81

>  <cluster>  (39) 
1

$$$$

     RDKit          3D

 51 54  0  0  0  0  0  0  0  0999 V2000
  137.1120   75.8870  222.0970 O   0  0  0  0  0  0  0  0  0  0  0  0
  138.3580   76.0200  222.2990 C   0  0  0  0  0  0  0  0  0  0  0  0
  139.2460   74.8990  222.2330 N   0  0  0  0  0  0  0  0  0  0  0  0
  138.7600   73.5650  221.9320 C   0  0  0  0  0  0  0  0  0  0  0  0
  139.7550   72.5760  222.3720 C   0  0  0  0  0  0  0  0  0  0  0  0
  140.9750   72.8450  222.3690 O   0  0  0  0  0  0  0  0  0  0  0  0
  139.3070   71.3090  222.7990 N   0  0  0  0  0  0  0  0  0  0  0  0
  139.6470   70.0780  222.1030 C   0  0  0  0  0  0  0  0  0  0  0  0
  138.3660   69.4970  221.5890 C   0  0  0  0  0  0  0  0  0  0  0  0
  137.2330   69.4570  222.5430 C   0  0  0  0  0  0  0  0  0  0  0  0
  137.1540   68.2030  223.1180 F   0  0  0  0  0  0  0  0  0  0  0  0
  136.0570   69.5630  221.7820 F   0  0  0  0  0  0  0  0  0  0  0  0
  137.1740   70.5450  223.5630 C   0  0  0  0  0  0  0  0  0  0  0  0
  138.4550   71.1390  223.9900 C   0  0  1  0  0  0  0  0  0  0  0  0
  139.2480   70.3630  224.9620 C   0  0  0  0  0  0  0  0  0  0  0  0
  138.9760   69.0750  225.3520 C   0  0  0  0  0  0  0  0  0  0  0  0
  139.8200   68.4660  226.2840 C   0  0  0  0  0  0  0  0  0  0  0  0
  140.9030   69.1000  226.8210 C   0  0  0  0  0  0  0  0  0  0  0  0
  141.1690   70.3850  226.4280 C   0  0  0  0  0  0  0  0  0  0  0  0
  140.3550   71.0000  225.5180 C   0  0  0  0  0  0  0  0  0  0  0  0
  138.9220   77.3500  222.6110 C   0  0  0  0  0  0  0  0  0  0  0  0
  138.0970   78.4260  222.7710 C   0  0  0  0  0  0  0  0  0  0  0  0
  138.5950   79.6990  223.0660 C   0  0  0  0  0  0  0  0  0  0  0  0
  139.9750   79.8220  223.1890 C   0  0  0  0  0  0  0  0  0  0  0  0
  140.5200   81.0640  223.4820 C   0  0  0  0  0  0  0  0  0  0  0  0
  141.8900   81.1670  223.5990 C   0  0  0  0  0  0  0  0  0  0  0  0
  142.4300   82.3790  223.8850 F   0  0  0  0  0  0  0  0  0  0  0  0
  142.7150   80.0800  223.4360 C   0  0  0  0  0  0  0  0  0  0  0  0
  142.1870   78.8300  223.1440 C   0  0  0  0  0  0  0  0  0  0  0  0
  140.8110   78.7160  223.0230 C   0  0  0  0  0  0  0  0  0  0  0  0
  140.2660   77.5110  222.7380 N   0  0  0  0  0  0  0  0  0  0  0  0
  140.2750   75.0960  222.4140 H   0  0  0  0  0  0  0  0  0  0  0  0
  137.8108   73.3916  222.4602 H   0  0  0  0  0  0  0  0  0  0  0  0
  138.5967   73.4674  220.8486 H   0  0  0  0  0  0  0  0  0  0  0  0
  140.3270   70.2931  221.2655 H   0  0  0  0  0  0  0  0  0  0  0  0
  140.1547   69.3731  222.7778 H   0  0  0  0  0  0  0  0  0  0  0  0
  138.0518   70.0946  220.7206 H   0  0  0  0  0  0  0  0  0  0  0  0
  138.5927   68.4454  221.3592 H   0  0  0  0  0  0  0  0  0  0  0  0
  136.5559   71.3547  223.1478 H   0  0  0  0  0  0  0  0  0  0  0  0
  136.7689   70.0652  224.4662 H   0  0  0  0  0  0  0  0  0  0  0  0
  138.1708   72.0744  224.4942 H   0  0  0  0  0  0  0  0  0  0  0  0
  138.1117   68.5339  224.9393 H   0  0  0  0  0  0  0  0  0  0  0  0
  139.6031   67.4342  226.5976 H   0  0  0  0  0  0  0  0  0  0  0  0
  141.5474   68.5907  227.5526 H   0  0  0  0  0  0  0  0  0  0  0  0
  142.0353   70.9206  226.8435 H   0  0  0  0  0  0  0  0  0  0  0  0
  140.5818   72.0327  225.2146 H   0  0  0  0  0  0  0  0  0  0  0  0
  137.0109   78.2878  222.6650 H   0  0  0  0  0  0  0  0  0  0  0  0
  137.9264   80.5629  223.1948 H   0  0  0  0  0  0  0  0  0  0  0  0
  139.8750   81.9447  223.6176 H   0  0  0  0  0  0  0  0  0  0  0  0
  143.8035   80.2017  223.5379 H   0  0  0  0  0  0  0  0  0  0  0  0
  142.8413   77.9556  223.0125 H   0  0  0  0  0  0  0  0  0  0  0  0
  1  2  2  0
  2  3  1  0
  3  4  1  0
  4  5  1  0
  5  6  2  0
  5  7  1  0
  7  8  1  0
  8  9  1  0
  9 10  1  0
 10 11  1  0
 10 12  1  0
 10 13  1  0
 13 14  1  0
 14 15  1  0
 15 16  2  0
 16 17  1  0
 17 18  2  0
 18 19  1  0
 19 20  2  0
  2 21  1  0
 21 22  2  0
 22 23  1  0
 23 24  2  0
 24 25  1  0
 25 26  2  0
 26 27  1  0
 26 28  1  0
 28 29  2  0
 29 30  1  0
 30 31  2  0
 14  7  1  0
 20 15  1  0
 31 21  1  0
 30 24  1  0
  3 32  1  0
  4 33  1  0
  4 34  1  0
  8 35  1  0
  8 36  1  0
  9 37  1  0
  9 38  1  0
 13 39  1  0
 13 40  1  0
 14 41  1  1
 16 42  1  0
 17 43  1  0
 18 44  1  0
 19 45  1  0
 20 46  1  0
 22 47  1  0
 23 48  1  0
 25 49  1  0
 28 50  1  0
 29 51  1  0
M  END
>  <smiles>  (40) 
O=C(NCC(=O)N1CCC(F)(F)C[C@H]1c1ccccc1)c1ccc2cc(F)ccc2n1

>  <score_type>  (40) 
oracle

>  <origin>  (40) 
autodockgpu

>  <m_score__min__energy>  (40) 
-9.0099999999999998

>  <m_primary>  (40) 
energy

>  <rmsd>  (40) 
8.509879734681409

>  <m_score__min__rmsd>  (40) 
8.509879734681409

>  <meeko>  (40) 
{"free_energy": -7.69, "intermolecular_energy": -9.18, "internal_energy": -2.07, "cluster_size": 2, "cluster_id": 4, "rank_in_cluster": 1}

>  <energy>  (40) 
-8.43

>  <cluster_rmsd>  (40) 
1.24

>  <cluster>  (40) 
1

$$$$

     RDKit          3D

 51 54  0  0  0  0  0  0  0  0999 V2000
  140.7510   71.7740  221.0940 O   0  0  0  0  0  0  0  0  0  0  0  0
  140.2940   72.2750  222.1670 C   0  0  0  0  0  0  0  0  0  0  0  0
  139.9150   73.6540  222.2420 N   0  0  0  0  0  0  0  0  0  0  0  0
  140.0350   74.5360  221.0960 C   0  0  0  0  0  0  0  0  0  0  0  0
  139.4030   75.8260  221.4080 C   0  0  0  0  0  0  0  0  0  0  0  0
  138.3160   75.8780  222.0220 O   0  0  0  0  0  0  0  0  0  0  0  0
  140.0480   77.0120  221.0000 N   0  0  0  0  0  0  0  0  0  0  0  0
  139.3920   78.0230  220.1850 C   0  0  0  0  0  0  0  0  0  0  0  0
  140.1380   78.0910  218.8890 C   0  0  0  0  0  0  0  0  0  0  0  0
  141.6160   78.1350  218.9820 C   0  0  0  0  0  0  0  0  0  0  0  0
  142.0500   79.4430  218.8880 F   0  0  0  0  0  0  0  0  0  0  0  0
  142.1150   77.5210  217.8210 F   0  0  0  0  0  0  0  0  0  0  0  0
  142.2390   77.4210  220.1360 C   0  0  0  0  0  0  0  0  0  0  0  0
  141.4420   77.3150  221.3720 C   0  0  1  0  0  0  0  0  0  0  0  0
  141.3930   78.5150  222.2290 C   0  0  0  0  0  0  0  0  0  0  0  0
  140.3480   78.8510  223.0540 C   0  0  0  0  0  0  0  0  0  0  0  0
  140.4440   80.0230  223.8100 C   0  0  0  0  0  0  0  0  0  0  0  0
  141.5340   80.8440  223.7600 C   0  0  0  0  0  0  0  0  0  0  0  0
  142.5720   80.5030  222.9350 C   0  0  0  0  0  0  0  0  0  0  0  0
  142.4980   79.3610  222.1860 C   0  0  0  0  0  0  0  0  0  0  0  0
  140.1450   71.4350  223.3730 C   0  0  0  0  0  0  0  0  0  0  0  0
  139.5700   70.2000  223.2840 C   0  0  0  0  0  0  0  0  0  0  0  0
  139.4110   69.3770  224.4030 C   0  0  0  0  0  0  0  0  0  0  0  0
  139.8690   69.8760  225.6200 C   0  0  0  0  0  0  0  0  0  0  0  0
  139.7360   69.0980  226.7610 C   0  0  0  0  0  0  0  0  0  0  0  0
  140.1930   69.6080  227.9580 C   0  0  0  0  0  0  0  0  0  0  0  0
  140.0670   68.8540  229.0790 F   0  0  0  0  0  0  0  0  0  0  0  0
  140.7720   70.8530  228.0410 C   0  0  0  0  0  0  0  0  0  0  0  0
  140.9130   71.6430  226.9090 C   0  0  0  0  0  0  0  0  0  0  0  0
  140.4550   71.1400  225.7010 C   0  0  0  0  0  0  0  0  0  0  0  0
  140.5780   71.8860  224.5810 N   0  0  0  0  0  0  0  0  0  0  0  0
  139.5410   73.9940  223.1780 H   0  0  0  0  0  0  0  0  0  0  0  0
  141.0985   74.6944  220.8639 H   0  0  0  0  0  0  0  0  0  0  0  0
  139.5362   74.0816  220.2272 H   0  0  0  0  0  0  0  0  0  0  0  0
  138.3444   77.7409  220.0036 H   0  0  0  0  0  0  0  0  0  0  0  0
  139.3954   78.9992  220.6919 H   0  0  0  0  0  0  0  0  0  0  0  0
  139.8659   77.2033  218.2991 H   0  0  0  0  0  0  0  0  0  0  0  0
  139.8450   79.0480  218.4327 H   0  0  0  0  0  0  0  0  0  0  0  0
  142.4739   76.3986  219.8049 H   0  0  0  0  0  0  0  0  0  0  0  0
  143.1102   78.0334  220.4118 H   0  0  0  0  0  0  0  0  0  0  0  0
  141.9463   76.5329  221.9585 H   0  0  0  0  0  0  0  0  0  0  0  0
  139.4550   78.2120  223.1186 H   0  0  0  0  0  0  0  0  0  0  0  0
  139.6082   80.2947  224.4715 H   0  0  0  0  0  0  0  0  0  0  0  0
  141.5771   81.7590  224.3690 H   0  0  0  0  0  0  0  0  0  0  0  0
  143.4628   81.1455  222.8747 H   0  0  0  0  0  0  0  0  0  0  0  0
  143.3401   79.1021  221.5273 H   0  0  0  0  0  0  0  0  0  0  0  0
  139.2218   69.8422  222.3038 H   0  0  0  0  0  0  0  0  0  0  0  0
  138.9464   68.3829  224.3259 H   0  0  0  0  0  0  0  0  0  0  0  0
  139.2775   68.0993  226.7121 H   0  0  0  0  0  0  0  0  0  0  0  0
  141.1264   71.2256  229.0134 H   0  0  0  0  0  0  0  0  0  0  0  0
  141.3748   72.6396  226.9684 H   0  0  0  0  0  0  0  0  0  0  0  0
  1  2  2  0
  2  3  1  0
  3  4  1  0
  4  5  1  0
  5  6  2  0
  5  7  1  0
  7  8  1  0
  8  9  1  0
  9 10  1  0
 10 11  1  0
 10 12  1  0
 10 13  1  0
 13 14  1  0
 14 15  1  0
 15 16  2  0
 16 17  1  0
 17 18  2  0
 18 19  1  0
 19 20  2  0
  2 21  1  0
 21 22  2  0
 22 23  1  0
 23 24  2  0
 24 25  1  0
 25 26  2  0
 26 27  1  0
 26 28  1  0
 28 29  2  0
 29 30  1  0
 30 31  2  0
 14  7  1  0
 20 15  1  0
 31 21  1  0
 30 24  1  0
  3 32  1  0
  4 33  1  0
  4 34  1  0
  8 35  1  0
  8 36  1  0
  9 37  1  0
  9 38  1  0
 13 39  1  0
 13 40  1  0
 14 41  1  1
 16 42  1  0
 17 43  1  0
 18 44  1  0
 19 45  1  0
 20 46  1  0
 22 47  1  0
 23 48  1  0
 25 49  1  0
 28 50  1  0
 29 51  1  0
M  END
>  <smiles>  (41) 
O=C(NCC(=O)N1CCC(F)(F)C[C@H]1c1ccccc1)c1ccc2cc(F)ccc2n1

>  <score_type>  (41) 
oracle

>  <origin>  (41) 
autodockgpu

>  <m_score__min__energy>  (41) 
-9.0099999999999998

>  <m_primary>  (41) 
energy

>  <rmsd>  (41) 
2.0558397707595217

>  <m_score__min__rmsd>  (41) 
2.0558397707595217

>  <meeko>  (41) 
{"free_energy": -8.61, "intermolecular_energy": -10.1, "internal_energy": -1.62, "cluster_size": 45, "cluster_id": 1, "rank_in_cluster": 34}

>  <energy>  (41) 
-8.41

>  <cluster_rmsd>  (41) 
1.46

>  <cluster>  (41) 
1

$$$$

     RDKit          3D

 51 54  0  0  0  0  0  0  0  0999 V2000
  140.6800   72.0020  221.0970 O   0  0  0  0  0  0  0  0  0  0  0  0
  140.1700   72.3960  222.1910 C   0  0  0  0  0  0  0  0  0  0  0  0
  139.6760   73.7320  222.3420 N   0  0  0  0  0  0  0  0  0  0  0  0
  139.7360   74.6890  221.2540 C   0  0  0  0  0  0  0  0  0  0  0  0
  139.4380   76.0330  221.7720 C   0  0  0  0  0  0  0  0  0  0  0  0
  138.6780   76.1900  222.7520 O   0  0  0  0  0  0  0  0  0  0  0  0
  140.0270   77.1470  221.1420 N   0  0  0  0  0  0  0  0  0  0  0  0
  139.2500   78.1480  220.4260 C   0  0  0  0  0  0  0  0  0  0  0  0
  139.6760   78.0890  218.9920 C   0  0  0  0  0  0  0  0  0  0  0  0
  141.1350   78.0430  218.7400 C   0  0  0  0  0  0  0  0  0  0  0  0
  141.5990   79.3130  218.4540 F   0  0  0  0  0  0  0  0  0  0  0  0
  141.3190   77.3300  217.5440 F   0  0  0  0  0  0  0  0  0  0  0  0
  141.9740   77.3610  219.7710 C   0  0  0  0  0  0  0  0  0  0  0  0
  141.4820   77.3820  221.1610 C   0  0  1  0  0  0  0  0  0  0  0  0
  141.6930   78.6320  221.9150 C   0  0  0  0  0  0  0  0  0  0  0  0
  141.9430   79.8590  221.3510 C   0  0  0  0  0  0  0  0  0  0  0  0
  142.1210   80.9580  222.1960 C   0  0  0  0  0  0  0  0  0  0  0  0
  142.0560   80.8600  223.5560 C   0  0  0  0  0  0  0  0  0  0  0  0
  141.8060   79.6330  224.1120 C   0  0  0  0  0  0  0  0  0  0  0  0
  141.6300   78.5440  223.3030 C   0  0  0  0  0  0  0  0  0  0  0  0
  140.0780   71.4740  223.3420 C   0  0  0  0  0  0  0  0  0  0  0  0
  139.5650   70.2200  223.1780 C   0  0  0  0  0  0  0  0  0  0  0  0
  139.4610   69.3200  224.2430 C   0  0  0  0  0  0  0  0  0  0  0  0
  139.9060   69.7630  225.4850 C   0  0  0  0  0  0  0  0  0  0  0  0
  139.8260   68.9080  226.5760 C   0  0  0  0  0  0  0  0  0  0  0  0
  140.2710   69.3640  227.7990 C   0  0  0  0  0  0  0  0  0  0  0  0
  140.1960   68.5340  228.8700 F   0  0  0  0  0  0  0  0  0  0  0  0
  140.7870   70.6280  227.9570 C   0  0  0  0  0  0  0  0  0  0  0  0
  140.8750   71.4960  226.8770 C   0  0  0  0  0  0  0  0  0  0  0  0
  140.4290   71.0470  225.6440 C   0  0  0  0  0  0  0  0  0  0  0  0
  140.5010   71.8690  224.5720 N   0  0  0  0  0  0  0  0  0  0  0  0
  139.2640   73.9820  223.2910 H   0  0  0  0  0  0  0  0  0  0  0  0
  140.7433   74.6805  220.8122 H   0  0  0  0  0  0  0  0  0  0  0  0
  138.9981   74.4187  220.4843 H   0  0  0  0  0  0  0  0  0  0  0  0
  138.1763   77.9245  220.5107 H   0  0  0  0  0  0  0  0  0  0  0  0
  139.4200   79.1507  220.8452 H   0  0  0  0  0  0  0  0  0  0  0  0
  139.2309   77.1866  218.5475 H   0  0  0  0  0  0  0  0  0  0  0  0
  139.3319   79.0337  218.5457 H   0  0  0  0  0  0  0  0  0  0  0  0
  142.0751   76.3074  219.4715 H   0  0  0  0  0  0  0  0  0  0  0  0
  142.9144   77.9312  219.7941 H   0  0  0  0  0  0  0  0  0  0  0  0
  142.0700   76.6059  221.6728 H   0  0  0  0  0  0  0  0  0  0  0  0
  142.0018   79.9743  220.2586 H   0  0  0  0  0  0  0  0  0  0  0  0
  142.3216   81.9419  221.7469 H   0  0  0  0  0  0  0  0  0  0  0  0
  142.2011   81.7462  224.1912 H   0  0  0  0  0  0  0  0  0  0  0  0
  141.7470   79.5240  225.2050 H   0  0  0  0  0  0  0  0  0  0  0  0
  141.4320   77.5655  223.7649 H   0  0  0  0  0  0  0  0  0  0  0  0
  139.2237   69.9085  222.1798 H   0  0  0  0  0  0  0  0  0  0  0  0
  139.0472   68.3101  224.1057 H   0  0  0  0  0  0  0  0  0  0  0  0
  139.4179   67.8923  226.4675 H   0  0  0  0  0  0  0  0  0  0  0  0
  141.1335   70.9550  228.9485 H   0  0  0  0  0  0  0  0  0  0  0  0
  141.2862   72.5093  226.9963 H   0  0  0  0  0  0  0  0  0  0  0  0
  1  2  2  0
  2  3  1  0
  3  4  1  0
  4  5  1  0
  5  6  2  0
  5  7  1  0
  7  8  1  0
  8  9  1  0
  9 10  1  0
 10 11  1  0
 10 12  1  0
 10 13  1  0
 13 14  1  0
 14 15  1  0
 15 16  2  0
 16 17  1  0
 17 18  2  0
 18 19  1  0
 19 20  2  0
  2 21  1  0
 21 22  2  0
 22 23  1  0
 23 24  2  0
 24 25  1  0
 25 26  2  0
 26 27  1  0
 26 28  1  0
 28 29  2  0
 29 30  1  0
 30 31  2  0
 14  7  1  0
 20 15  1  0
 31 21  1  0
 30 24  1  0
  3 32  1  0
  4 33  1  0
  4 34  1  0
  8 35  1  0
  8 36  1  0
  9 37  1  0
  9 38  1  0
 13 39  1  0
 13 40  1  0
 14 41  1  1
 16 42  1  0
 17 43  1  0
 18 44  1  0
 19 45  1  0
 20 46  1  0
 22 47  1  0
 23 48  1  0
 25 49  1  0
 28 50  1  0
 29 51  1  0
M  END
>  <smiles>  (42) 
O=C(NCC(=O)N1CCC(F)(F)C[C@H]1c1ccccc1)c1ccc2cc(F)ccc2n1

>  <score_type>  (42) 
oracle

>  <origin>  (42) 
autodockgpu

>  <m_score__min__energy>  (42) 
-9.0099999999999998

>  <m_primary>  (42) 
energy

>  <rmsd>  (42) 
2.010915876426499

>  <m_score__min__rmsd>  (42) 
2.010915876426499

>  <meeko>  (42) 
{"free_energy": -8.64, "intermolecular_energy": -10.13, "internal_energy": -1.82, "cluster_size": 45, "cluster_id": 1, "rank_in_cluster": 32}

>  <energy>  (42) 
-8.4

>  <cluster_rmsd>  (42) 
0.88

>  <cluster>  (42) 
1

$$$$

     RDKit          3D

 51 54  0  0  0  0  0  0  0  0999 V2000
  141.3710   72.5800  221.6370 O   0  0  0  0  0  0  0  0  0  0  0  0
  140.3880   72.6570  222.4360 C   0  0  0  0  0  0  0  0  0  0  0  0
  139.4240   73.7110  222.3310 N   0  0  0  0  0  0  0  0  0  0  0  0
  139.5300   74.7340  221.3060 C   0  0  0  0  0  0  0  0  0  0  0  0
  139.3130   76.0540  221.9150 C   0  0  0  0  0  0  0  0  0  0  0  0
  138.6000   76.1840  222.9330 O   0  0  0  0  0  0  0  0  0  0  0  0
  139.9280   77.1790  221.3280 N   0  0  0  0  0  0  0  0  0  0  0  0
  139.1720   78.2330  220.6670 C   0  0  0  0  0  0  0  0  0  0  0  0
  139.5820   78.2260  219.2270 C   0  0  0  0  0  0  0  0  0  0  0  0
  141.0360   78.1500  218.9560 C   0  0  0  0  0  0  0  0  0  0  0  0
  141.5330   79.4180  218.7210 F   0  0  0  0  0  0  0  0  0  0  0  0
  141.1880   77.4860  217.7270 F   0  0  0  0  0  0  0  0  0  0  0  0
  141.8650   77.3990  219.9460 C   0  0  0  0  0  0  0  0  0  0  0  0
  141.3890   77.3710  221.3410 C   0  0  1  0  0  0  0  0  0  0  0  0
  141.6430   78.5800  222.1480 C   0  0  0  0  0  0  0  0  0  0  0  0
  141.6050   78.6340  223.5190 C   0  0  0  0  0  0  0  0  0  0  0  0
  141.8700   79.8540  224.1470 C   0  0  0  0  0  0  0  0  0  0  0  0
  142.1640   80.9920  223.4530 C   0  0  0  0  0  0  0  0  0  0  0  0
  142.2000   80.9310  222.0850 C   0  0  0  0  0  0  0  0  0  0  0  0
  141.9440   79.7470  221.4500 C   0  0  0  0  0  0  0  0  0  0  0  0
  140.2190   71.6500  223.5040 C   0  0  0  0  0  0  0  0  0  0  0  0
  139.5840   70.4700  223.2420 C   0  0  0  0  0  0  0  0  0  0  0  0
  139.4050   69.4940  224.2260 C   0  0  0  0  0  0  0  0  0  0  0  0
  139.9050   69.7800  225.4930 C   0  0  0  0  0  0  0  0  0  0  0  0
  139.7540   68.8430  226.5060 C   0  0  0  0  0  0  0  0  0  0  0  0
  140.2550   69.1440  227.7550 C   0  0  0  0  0  0  0  0  0  0  0  0
  140.1100   68.2330  228.7510 F   0  0  0  0  0  0  0  0  0  0  0  0
  140.8920   70.3340  228.0130 C   0  0  0  0  0  0  0  0  0  0  0  0
  141.0530   71.2810  227.0110 C   0  0  0  0  0  0  0  0  0  0  0  0
  140.5520   70.9890  225.7530 C   0  0  0  0  0  0  0  0  0  0  0  0
  140.6920   71.8920  224.7560 N   0  0  0  0  0  0  0  0  0  0  0  0
  138.6310   73.7030  223.0390 H   0  0  0  0  0  0  0  0  0  0  0  0
  140.5317   74.6982  220.8530 H   0  0  0  0  0  0  0  0  0  0  0  0
  138.7724   74.5572  220.5283 H   0  0  0  0  0  0  0  0  0  0  0  0
  138.0933   78.0361  220.7540 H   0  0  0  0  0  0  0  0  0  0  0  0
  139.3740   79.2108  221.1287 H   0  0  0  0  0  0  0  0  0  0  0  0
  139.1066   77.3573  218.7480 H   0  0  0  0  0  0  0  0  0  0  0  0
  139.2611   79.1993  218.8274 H   0  0  0  0  0  0  0  0  0  0  0  0
  141.9324   76.3575  219.5985 H   0  0  0  0  0  0  0  0  0  0  0  0
  142.8213   77.9413  219.9839 H   0  0  0  0  0  0  0  0  0  0  0  0
  141.9601   76.5565  221.8106 H   0  0  0  0  0  0  0  0  0  0  0  0
  141.3711   77.7366  224.1105 H   0  0  0  0  0  0  0  0  0  0  0  0
  141.8404   79.8990  225.2457 H   0  0  0  0  0  0  0  0  0  0  0  0
  142.3673   81.9360  223.9799 H   0  0  0  0  0  0  0  0  0  0  0  0
  142.4342   81.8318  221.4988 H   0  0  0  0  0  0  0  0  0  0  0  0
  141.9770   79.7154  220.3509 H   0  0  0  0  0  0  0  0  0  0  0  0
  139.2025   70.2823  222.2275 H   0  0  0  0  0  0  0  0  0  0  0  0
  138.8932   68.5447  224.0094 H   0  0  0  0  0  0  0  0  0  0  0  0
  139.2476   67.8849  226.3172 H   0  0  0  0  0  0  0  0  0  0  0  0
  141.2778   70.5379  229.0227 H   0  0  0  0  0  0  0  0  0  0  0  0
  141.5632   72.2350  227.2100 H   0  0  0  0  0  0  0  0  0  0  0  0
  1  2  2  0
  2  3  1  0
  3  4  1  0
  4  5  1  0
  5  6  2  0
  5  7  1  0
  7  8  1  0
  8  9  1  0
  9 10  1  0
 10 11  1  0
 10 12  1  0
 10 13  1  0
 13 14  1  0
 14 15  1  0
 15 16  2  0
 16 17  1  0
 17 18  2  0
 18 19  1  0
 19 20  2  0
  2 21  1  0
 21 22  2  0
 22 23  1  0
 23 24  2  0
 24 25  1  0
 25 26  2  0
 26 27  1  0
 26 28  1  0
 28 29  2  0
 29 30  1  0
 30 31  2  0
 14  7  1  0
 20 15  1  0
 31 21  1  0
 30 24  1  0
  3 32  1  0
  4 33  1  0
  4 34  1  0
  8 35  1  0
  8 36  1  0
  9 37  1  0
  9 38  1  0
 13 39  1  0
 13 40  1  0
 14 41  1  1
 16 42  1  0
 17 43  1  0
 18 44  1  0
 19 45  1  0
 20 46  1  0
 22 47  1  0
 23 48  1  0
 25 49  1  0
 28 50  1  0
 29 51  1  0
M  END
>  <smiles>  (43) 
O=C(NCC(=O)N1CCC(F)(F)C[C@H]1c1ccccc1)c1ccc2cc(F)ccc2n1

>  <score_type>  (43) 
oracle

>  <origin>  (43) 
autodockgpu

>  <m_score__min__energy>  (43) 
-9.0099999999999998

>  <m_primary>  (43) 
energy

>  <rmsd>  (43) 
2.140292349723632

>  <m_score__min__rmsd>  (43) 
2.140292349723632

>  <meeko>  (43) 
{"free_energy": -8.83, "intermolecular_energy": -10.32, "internal_energy": -1.51, "cluster_size": 45, "cluster_id": 1, "rank_in_cluster": 14}

>  <energy>  (43) 
-8.39

>  <cluster_rmsd>  (43) 
0.83

>  <cluster>  (43) 
1

$$$$

     RDKit          3D

 51 54  0  0  0  0  0  0  0  0999 V2000
  141.0200   72.0320  221.2050 O   0  0  0  0  0  0  0  0  0  0  0  0
  140.4210   72.4420  222.2480 C   0  0  0  0  0  0  0  0  0  0  0  0
  139.9240   73.7820  222.3420 N   0  0  0  0  0  0  0  0  0  0  0  0
  140.0820   74.7270  221.2520 C   0  0  0  0  0  0  0  0  0  0  0  0
  139.4630   76.0070  221.6260 C   0  0  0  0  0  0  0  0  0  0  0  0
  138.4770   76.0450  222.3930 O   0  0  0  0  0  0  0  0  0  0  0  0
  140.0030   77.1990  221.1010 N   0  0  0  0  0  0  0  0  0  0  0  0
  139.1740   78.2750  220.5790 C   0  0  0  0  0  0  0  0  0  0  0  0
  139.4910   78.4030  219.1210 C   0  0  0  0  0  0  0  0  0  0  0  0
  140.9280   78.4040  218.7580 C   0  0  0  0  0  0  0  0  0  0  0  0
  141.3680   79.7040  218.6030 F   0  0  0  0  0  0  0  0  0  0  0  0
  141.0220   77.8510  217.4700 F   0  0  0  0  0  0  0  0  0  0  0  0
  141.8410   77.6050  219.6280 C   0  0  0  0  0  0  0  0  0  0  0  0
  141.4550   77.4430  221.0420 C   0  0  1  0  0  0  0  0  0  0  0  0
  141.7210   78.5890  221.9320 C   0  0  0  0  0  0  0  0  0  0  0  0
  142.1660   79.8200  221.5190 C   0  0  0  0  0  0  0  0  0  0  0  0
  142.3730   80.8130  222.4800 C   0  0  0  0  0  0  0  0  0  0  0  0
  142.1500   80.6080  223.8110 C   0  0  0  0  0  0  0  0  0  0  0  0
  141.7060   79.3770  224.2170 C   0  0  0  0  0  0  0  0  0  0  0  0
  141.4980   78.3910  223.2920 C   0  0  0  0  0  0  0  0  0  0  0  0
  140.2260   71.5340  223.3960 C   0  0  0  0  0  0  0  0  0  0  0  0
  139.6080   70.3290  223.2230 C   0  0  0  0  0  0  0  0  0  0  0  0
  139.4050   69.4440  224.2850 C   0  0  0  0  0  0  0  0  0  0  0  0
  139.8630   69.8480  225.5360 C   0  0  0  0  0  0  0  0  0  0  0  0
  139.6860   69.0050  226.6250 C   0  0  0  0  0  0  0  0  0  0  0  0
  140.1450   69.4220  227.8560 C   0  0  0  0  0  0  0  0  0  0  0  0
  139.9760   68.6040  228.9250 F   0  0  0  0  0  0  0  0  0  0  0  0
  140.7670   70.6370  228.0250 C   0  0  0  0  0  0  0  0  0  0  0  0
  140.9520   71.4910  226.9460 C   0  0  0  0  0  0  0  0  0  0  0  0
  140.4930   71.0820  225.7050 C   0  0  0  0  0  0  0  0  0  0  0  0
  140.6580   71.8920  224.6350 N   0  0  0  0  0  0  0  0  0  0  0  0
  139.4350   74.0450  223.2490 H   0  0  0  0  0  0  0  0  0  0  0  0
  141.1525   74.8811  221.0514 H   0  0  0  0  0  0  0  0  0  0  0  0
  139.5952   74.3321  220.3481 H   0  0  0  0  0  0  0  0  0  0  0  0
  138.1098   78.0318  220.7144 H   0  0  0  0  0  0  0  0  0  0  0  0
  139.3745   79.2179  221.1089 H   0  0  0  0  0  0  0  0  0  0  0  0
  139.0144   77.5600  218.5993 H   0  0  0  0  0  0  0  0  0  0  0  0
  139.1135   79.3929  218.8251 H   0  0  0  0  0  0  0  0  0  0  0  0
  141.9198   76.5993  219.1893 H   0  0  0  0  0  0  0  0  0  0  0  0
  142.7799   78.1776  219.6546 H   0  0  0  0  0  0  0  0  0  0  0  0
  142.0799   76.6136  221.4049 H   0  0  0  0  0  0  0  0  0  0  0  0
  142.3556   80.0205  220.4542 H   0  0  0  0  0  0  0  0  0  0  0  0
  142.7301   81.7999  222.1506 H   0  0  0  0  0  0  0  0  0  0  0  0
  142.3228   81.4126  224.5409 H   0  0  0  0  0  0  0  0  0  0  0  0
  141.5175   79.1823  225.2831 H   0  0  0  0  0  0  0  0  0  0  0  0
  141.1424   77.4080  223.6344 H   0  0  0  0  0  0  0  0  0  0  0  0
  139.2598   70.0467  222.2185 H   0  0  0  0  0  0  0  0  0  0  0  0
  138.9069   68.4741  224.1395 H   0  0  0  0  0  0  0  0  0  0  0  0
  139.1920   68.0291  226.5083 H   0  0  0  0  0  0  0  0  0  0  0  0
  141.1208   70.9346  229.0231 H   0  0  0  0  0  0  0  0  0  0  0  0
  141.4487   72.4642  227.0731 H   0  0  0  0  0  0  0  0  0  0  0  0
  1  2  2  0
  2  3  1  0
  3  4  1  0
  4  5  1  0
  5  6  2  0
  5  7  1  0
  7  8  1  0
  8  9  1  0
  9 10  1  0
 10 11  1  0
 10 12  1  0
 10 13  1  0
 13 14  1  0
 14 15  1  0
 15 16  2  0
 16 17  1  0
 17 18  2  0
 18 19  1  0
 19 20  2  0
  2 21  1  0
 21 22  2  0
 22 23  1  0
 23 24  2  0
 24 25  1  0
 25 26  2  0
 26 27  1  0
 26 28  1  0
 28 29  2  0
 29 30  1  0
 30 31  2  0
 14  7  1  0
 20 15  1  0
 31 21  1  0
 30 24  1  0
  3 32  1  0
  4 33  1  0
  4 34  1  0
  8 35  1  0
  8 36  1  0
  9 37  1  0
  9 38  1  0
 13 39  1  0
 13 40  1  0
 14 41  1  1
 16 42  1  0
 17 43  1  0
 18 44  1  0
 19 45  1  0
 20 46  1  0
 22 47  1  0
 23 48  1  0
 25 49  1  0
 28 50  1  0
 29 51  1  0
M  END
>  <smiles>  (44) 
O=C(NCC(=O)N1CCC(F)(F)C[C@H]1c1ccccc1)c1ccc2cc(F)ccc2n1

>  <score_type>  (44) 
oracle

>  <origin>  (44) 
autodockgpu

>  <m_score__min__energy>  (44) 
-9.0099999999999998

>  <m_primary>  (44) 
energy

>  <rmsd>  (44) 
2.1397545483157066

>  <m_score__min__rmsd>  (44) 
2.1397545483157066

>  <meeko>  (44) 
{"free_energy": -8.69, "intermolecular_energy": -10.18, "internal_energy": -1.78, "cluster_size": 45, "cluster_id": 1, "rank_in_cluster": 27}

>  <energy>  (44) 
-8.36

>  <cluster_rmsd>  (44) 
0.85

>  <cluster>  (44) 
1

$$$$

     RDKit          3D

 51 54  0  0  0  0  0  0  0  0999 V2000
  140.5460   71.7880  221.1300 O   0  0  0  0  0  0  0  0  0  0  0  0
  140.0760   72.2470  222.2160 C   0  0  0  0  0  0  0  0  0  0  0  0
  139.5990   73.5940  222.3110 N   0  0  0  0  0  0  0  0  0  0  0  0
  139.6320   74.4910  221.1700 C   0  0  0  0  0  0  0  0  0  0  0  0
  140.6020   75.5660  221.4270 C   0  0  0  0  0  0  0  0  0  0  0  0
  141.8250   75.3240  221.5090 O   0  0  0  0  0  0  0  0  0  0  0  0
  140.1250   76.8840  221.5790 N   0  0  0  0  0  0  0  0  0  0  0  0
  138.9700   77.2140  222.4000 C   0  0  0  0  0  0  0  0  0  0  0  0
  137.9260   77.7690  221.4830 C   0  0  0  0  0  0  0  0  0  0  0  0
  138.3820   78.7800  220.5010 C   0  0  0  0  0  0  0  0  0  0  0  0
  138.1210   80.0480  220.9840 F   0  0  0  0  0  0  0  0  0  0  0  0
  137.5490   78.6610  219.3770 F   0  0  0  0  0  0  0  0  0  0  0  0
  139.7830   78.6500  220.0040 C   0  0  0  0  0  0  0  0  0  0  0  0
  140.7670   78.0320  220.9130 C   0  0  1  0  0  0  0  0  0  0  0  0
  141.3010   78.8920  221.9860 C   0  0  0  0  0  0  0  0  0  0  0  0
  141.6660   78.4550  223.2360 C   0  0  0  0  0  0  0  0  0  0  0  0
  142.1590   79.3890  224.1520 C   0  0  0  0  0  0  0  0  0  0  0  0
  142.2910   80.7150  223.8540 C   0  0  0  0  0  0  0  0  0  0  0  0
  141.9240   81.1430  222.6050 C   0  0  0  0  0  0  0  0  0  0  0  0
  141.4390   80.2460  221.6940 C   0  0  0  0  0  0  0  0  0  0  0  0
  140.0130   71.3900  223.4180 C   0  0  0  0  0  0  0  0  0  0  0  0
  139.4770   70.1360  223.3410 C   0  0  0  0  0  0  0  0  0  0  0  0
  139.4000   69.2970  224.4560 C   0  0  0  0  0  0  0  0  0  0  0  0
  139.8960   69.7990  225.6560 C   0  0  0  0  0  0  0  0  0  0  0  0
  139.8430   69.0050  226.7930 C   0  0  0  0  0  0  0  0  0  0  0  0
  140.3390   69.5190  227.9730 C   0  0  0  0  0  0  0  0  0  0  0  0
  140.2910   68.7490  229.0900 F   0  0  0  0  0  0  0  0  0  0  0  0
  140.8760   70.7820  228.0440 C   0  0  0  0  0  0  0  0  0  0  0  0
  140.9370   71.5890  226.9160 C   0  0  0  0  0  0  0  0  0  0  0  0
  140.4420   71.0820  225.7260 C   0  0  0  0  0  0  0  0  0  0  0  0
  140.4860   71.8440  224.6090 N   0  0  0  0  0  0  0  0  0  0  0  0
  139.2220   73.9000  223.2570 H   0  0  0  0  0  0  0  0  0  0  0  0
  139.9320   73.9321  220.2713 H   0  0  0  0  0  0  0  0  0  0  0  0
  138.6335   74.9246  221.0122 H   0  0  0  0  0  0  0  0  0  0  0  0
  138.5916   76.3104  222.9004 H   0  0  0  0  0  0  0  0  0  0  0  0
  139.2372   77.9439  223.1783 H   0  0  0  0  0  0  0  0  0  0  0  0
  137.4929   76.9283  220.9212 H   0  0  0  0  0  0  0  0  0  0  0  0
  137.2141   78.2957  222.1355 H   0  0  0  0  0  0  0  0  0  0  0  0
  139.7536   78.0436  219.0867 H   0  0  0  0  0  0  0  0  0  0  0  0
  140.1327   79.6842  219.8690 H   0  0  0  0  0  0  0  0  0  0  0  0
  141.6185   77.7753  220.2656 H   0  0  0  0  0  0  0  0  0  0  0  0
  141.5725   77.3938  223.5102 H   0  0  0  0  0  0  0  0  0  0  0  0
  142.4525   79.0415  225.1536 H   0  0  0  0  0  0  0  0  0  0  0  0
  142.6828   81.4231  224.5991 H   0  0  0  0  0  0  0  0  0  0  0  0
  142.0193   82.2053  222.3360 H   0  0  0  0  0  0  0  0  0  0  0  0
  141.1480   80.6067  220.6964 H   0  0  0  0  0  0  0  0  0  0  0  0
  139.0952   69.7764  222.3741 H   0  0  0  0  0  0  0  0  0  0  0  0
  138.9679   68.2877  224.3886 H   0  0  0  0  0  0  0  0  0  0  0  0
  139.4164   67.9918  226.7542 H   0  0  0  0  0  0  0  0  0  0  0  0
  141.2612   71.1571  229.0037 H   0  0  0  0  0  0  0  0  0  0  0  0
  141.3656   72.6008  226.9659 H   0  0  0  0  0  0  0  0  0  0  0  0
  1  2  2  0
  2  3  1  0
  3  4  1  0
  4  5  1  0
  5  6  2  0
  5  7  1  0
  7  8  1  0
  8  9  1  0
  9 10  1  0
 10 11  1  0
 10 12  1  0
 10 13  1  0
 13 14  1  0
 14 15  1  0
 15 16  2  0
 16 17  1  0
 17 18  2  0
 18 19  1  0
 19 20  2  0
  2 21  1  0
 21 22  2  0
 22 23  1  0
 23 24  2  0
 24 25  1  0
 25 26  2  0
 26 27  1  0
 26 28  1  0
 28 29  2  0
 29 30  1  0
 30 31  2  0
 14  7  1  0
 20 15  1  0
 31 21  1  0
 30 24  1  0
  3 32  1  0
  4 33  1  0
  4 34  1  0
  8 35  1  0
  8 36  1  0
  9 37  1  0
  9 38  1  0
 13 39  1  0
 13 40  1  0
 14 41  1  6
 16 42  1  0
 17 43  1  0
 18 44  1  0
 19 45  1  0
 20 46  1  0
 22 47  1  0
 23 48  1  0
 25 49  1  0
 28 50  1  0
 29 51  1  0
M  END
>  <smiles>  (45) 
O=C(NCC(=O)N1CCC(F)(F)C[C@H]1c1ccccc1)c1ccc2cc(F)ccc2n1

>  <score_type>  (45) 
oracle

>  <origin>  (45) 
autodockgpu

>  <m_score__min__energy>  (45) 
-9.0099999999999998

>  <m_primary>  (45) 
energy

>  <rmsd>  (45) 
2.420016049353541

>  <m_score__min__rmsd>  (45) 
2.420016049353541

>  <meeko>  (45) 
{"free_energy": -8.68, "intermolecular_energy": -10.17, "internal_energy": -1.38, "cluster_size": 45, "cluster_id": 1, "rank_in_cluster": 29}

>  <energy>  (45) 
-8.16

>  <cluster_rmsd>  (45) 
1.11

>  <cluster>  (45) 
1

$$$$

     RDKit          3D

 51 54  0  0  0  0  0  0  0  0999 V2000
  141.3550   72.1480  221.4920 O   0  0  0  0  0  0  0  0  0  0  0  0
  140.5000   72.4440  222.3820 C   0  0  0  0  0  0  0  0  0  0  0  0
  139.7340   73.6510  222.3060 N   0  0  0  0  0  0  0  0  0  0  0  0
  139.9030   74.5870  221.2090 C   0  0  0  0  0  0  0  0  0  0  0  0
  139.3540   75.8940  221.5990 C   0  0  0  0  0  0  0  0  0  0  0  0
  138.3270   75.9760  222.3060 O   0  0  0  0  0  0  0  0  0  0  0  0
  140.0110   77.0620  221.1580 N   0  0  0  0  0  0  0  0  0  0  0  0
  139.3580   78.0680  220.3350 C   0  0  0  0  0  0  0  0  0  0  0  0
  140.0840   78.1000  219.0260 C   0  0  0  0  0  0  0  0  0  0  0  0
  141.5640   78.1220  219.0940 C   0  0  0  0  0  0  0  0  0  0  0  0
  142.0160   79.4210  218.9690 F   0  0  0  0  0  0  0  0  0  0  0  0
  142.0340   77.4790  217.9370 F   0  0  0  0  0  0  0  0  0  0  0  0
  142.1930   77.4200  220.2510 C   0  0  0  0  0  0  0  0  0  0  0  0
  141.4150   77.3490  221.5020 C   0  0  1  0  0  0  0  0  0  0  0  0
  141.3990   78.5660  222.3360 C   0  0  0  0  0  0  0  0  0  0  0  0
  140.3390   78.9790  223.1050 C   0  0  0  0  0  0  0  0  0  0  0  0
  140.4700   80.1570  223.8460 C   0  0  0  0  0  0  0  0  0  0  0  0
  141.6090   80.9110  223.8360 C   0  0  0  0  0  0  0  0  0  0  0  0
  142.6620   80.4920  223.0670 C   0  0  0  0  0  0  0  0  0  0  0  0
  142.5540   79.3430  222.3340 C   0  0  0  0  0  0  0  0  0  0  0  0
  140.2760   71.5370  223.5270 C   0  0  0  0  0  0  0  0  0  0  0  0
  139.5970   70.3650  223.3540 C   0  0  0  0  0  0  0  0  0  0  0  0
  139.3660   69.4820  224.4130 C   0  0  0  0  0  0  0  0  0  0  0  0
  139.8620   69.8530  225.6600 C   0  0  0  0  0  0  0  0  0  0  0  0
  139.6600   69.0120  226.7450 C   0  0  0  0  0  0  0  0  0  0  0  0
  140.1570   69.3960  227.9720 C   0  0  0  0  0  0  0  0  0  0  0  0
  139.9630   68.5780  229.0380 F   0  0  0  0  0  0  0  0  0  0  0  0
  140.8390   70.5770  228.1400 C   0  0  0  0  0  0  0  0  0  0  0  0
  141.0510   71.4300  227.0660 C   0  0  0  0  0  0  0  0  0  0  0  0
  140.5540   71.0540  225.8280 C   0  0  0  0  0  0  0  0  0  0  0  0
  140.7440   71.8640  224.7620 N   0  0  0  0  0  0  0  0  0  0  0  0
  139.0380   73.8230  223.0920 H   0  0  0  0  0  0  0  0  0  0  0  0
  140.9730   74.6920  220.9767 H   0  0  0  0  0  0  0  0  0  0  0  0
  139.3728   74.2140  220.3203 H   0  0  0  0  0  0  0  0  0  0  0  0
  138.3032   77.7995  220.1757 H   0  0  0  0  0  0  0  0  0  0  0  0
  139.3850   79.0532  220.8235 H   0  0  0  0  0  0  0  0  0  0  0  0
  139.7883   77.2060  218.4574 H   0  0  0  0  0  0  0  0  0  0  0  0
  139.7988   79.0532  218.5568 H   0  0  0  0  0  0  0  0  0  0  0  0
  142.4064   76.3881  219.9354 H   0  0  0  0  0  0  0  0  0  0  0  0
  143.0773   78.0242  220.5017 H   0  0  0  0  0  0  0  0  0  0  0  0
  141.9159   76.5698  222.0952 H   0  0  0  0  0  0  0  0  0  0  0  0
  139.4071   78.3955  223.1372 H   0  0  0  0  0  0  0  0  0  0  0  0
  139.6217   80.4902  224.4620 H   0  0  0  0  0  0  0  0  0  0  0  0
  141.6788   81.8331  224.4316 H   0  0  0  0  0  0  0  0  0  0  0  0
  143.5922   81.0784  223.0392 H   0  0  0  0  0  0  0  0  0  0  0  0
  143.4093   79.0214  221.7215 H   0  0  0  0  0  0  0  0  0  0  0  0
  139.2210   70.1082  222.3527 H   0  0  0  0  0  0  0  0  0  0  0  0
  138.8185   68.5390  224.2680 H   0  0  0  0  0  0  0  0  0  0  0  0
  139.1168   68.0625  226.6289 H   0  0  0  0  0  0  0  0  0  0  0  0
  141.2206   70.8489  229.1352 H   0  0  0  0  0  0  0  0  0  0  0  0
  141.5972   72.3763  227.1935 H   0  0  0  0  0  0  0  0  0  0  0  0
  1  2  2  0
  2  3  1  0
  3  4  1  0
  4  5  1  0
  5  6  2  0
  5  7  1  0
  7  8  1  0
  8  9  1  0
  9 10  1  0
 10 11  1  0
 10 12  1  0
 10 13  1  0
 13 14  1  0
 14 15  1  0
 15 16  2  0
 16 17  1  0
 17 18  2  0
 18 19  1  0
 19 20  2  0
  2 21  1  0
 21 22  2  0
 22 23  1  0
 23 24  2  0
 24 25  1  0
 25 26  2  0
 26 27  1  0
 26 28  1  0
 28 29  2  0
 29 30  1  0
 30 31  2  0
 14  7  1  0
 20 15  1  0
 31 21  1  0
 30 24  1  0
  3 32  1  0
  4 33  1  0
  4 34  1  0
  8 35  1  0
  8 36  1  0
  9 37  1  0
  9 38  1  0
 13 39  1  0
 13 40  1  0
 14 41  1  1
 16 42  1  0
 17 43  1  0
 18 44  1  0
 19 45  1  0
 20 46  1  0
 22 47  1  0
 23 48  1  0
 25 49  1  0
 28 50  1  0
 29 51  1  0
M  END
>  <smiles>  (46) 
O=C(NCC(=O)N1CCC(F)(F)C[C@H]1c1ccccc1)c1ccc2cc(F)ccc2n1

>  <score_type>  (46) 
oracle

>  <origin>  (46) 
autodockgpu

>  <m_score__min__energy>  (46) 
-9.0099999999999998

>  <m_primary>  (46) 
energy

>  <rmsd>  (46) 
2.1305049502293167

>  <m_score__min__rmsd>  (46) 
2.1305049502293167

>  <meeko>  (46) 
{"free_energy": -8.88, "intermolecular_energy": -10.37, "internal_energy": -1.64, "cluster_size": 45, "cluster_id": 1, "rank_in_cluster": 9}

>  <energy>  (46) 
-7.77

>  <cluster_rmsd>  (46) 
0.0

>  <cluster>  (46) 
2

$$$$

     RDKit          3D

 51 54  0  0  0  0  0  0  0  0999 V2000
  141.4610   72.5130  221.6370 O   0  0  0  0  0  0  0  0  0  0  0  0
  140.4960   72.6470  222.4510 C   0  0  0  0  0  0  0  0  0  0  0  0
  139.5960   73.7570  222.3620 N   0  0  0  0  0  0  0  0  0  0  0  0
  139.7480   74.7750  221.3390 C   0  0  0  0  0  0  0  0  0  0  0  0
  139.1260   76.0250  221.8020 C   0  0  0  0  0  0  0  0  0  0  0  0
  138.1520   76.0070  222.5840 O   0  0  0  0  0  0  0  0  0  0  0  0
  139.6500   77.2510  221.3450 N   0  0  0  0  0  0  0  0  0  0  0  0
  138.8150   78.4130  221.0790 C   0  0  0  0  0  0  0  0  0  0  0  0
  138.9300   78.7080  219.6160 C   0  0  0  0  0  0  0  0  0  0  0  0
  140.2980   78.7000  219.0480 C   0  0  0  0  0  0  0  0  0  0  0  0
  140.7830   79.9920  218.9820 F   0  0  0  0  0  0  0  0  0  0  0  0
  140.1790   78.3060  217.7050 F   0  0  0  0  0  0  0  0  0  0  0  0
  141.2810   77.7670  219.6750 C   0  0  0  0  0  0  0  0  0  0  0  0
  141.0910   77.4470  221.1020 C   0  0  1  0  0  0  0  0  0  0  0  0
  141.5420   78.4640  222.0700 C   0  0  0  0  0  0  0  0  0  0  0  0
  141.4190   78.3620  223.4340 C   0  0  0  0  0  0  0  0  0  0  0  0
  141.8960   79.4100  224.2280 C   0  0  0  0  0  0  0  0  0  0  0  0
  142.4770   80.5270  223.7020 C   0  0  0  0  0  0  0  0  0  0  0  0
  142.5960   80.6220  222.3410 C   0  0  0  0  0  0  0  0  0  0  0  0
  142.1360   79.6090  221.5450 C   0  0  0  0  0  0  0  0  0  0  0  0
  140.2820   71.6480  223.5180 C   0  0  0  0  0  0  0  0  0  0  0  0
  139.6280   70.4810  223.2460 C   0  0  0  0  0  0  0  0  0  0  0  0
  139.4060   69.5130  224.2300 C   0  0  0  0  0  0  0  0  0  0  0  0
  139.8850   69.7930  225.5060 C   0  0  0  0  0  0  0  0  0  0  0  0
  139.6920   68.8640  226.5190 C   0  0  0  0  0  0  0  0  0  0  0  0
  140.1730   69.1580  227.7780 C   0  0  0  0  0  0  0  0  0  0  0  0
  139.9870   68.2550  228.7740 F   0  0  0  0  0  0  0  0  0  0  0  0
  140.8310   70.3350  228.0450 C   0  0  0  0  0  0  0  0  0  0  0  0
  141.0330   71.2750  227.0440 C   0  0  0  0  0  0  0  0  0  0  0  0
  140.5530   70.9890  225.7750 C   0  0  0  0  0  0  0  0  0  0  0  0
  140.7340   71.8840  224.7790 N   0  0  0  0  0  0  0  0  0  0  0  0
  138.8140   73.7940  223.0820 H   0  0  0  0  0  0  0  0  0  0  0  0
  140.8175   74.9459  221.1465 H   0  0  0  0  0  0  0  0  0  0  0  0
  139.2597   74.4416  220.4114 H   0  0  0  0  0  0  0  0  0  0  0  0
  137.7689   78.1942  221.3393 H   0  0  0  0  0  0  0  0  0  0  0  0
  139.1388   79.2753  221.6803 H   0  0  0  0  0  0  0  0  0  0  0  0
  138.3387   77.9544  219.0752 H   0  0  0  0  0  0  0  0  0  0  0  0
  138.5703   79.7407  219.4970 H   0  0  0  0  0  0  0  0  0  0  0  0
  141.2422   76.8206  219.1157 H   0  0  0  0  0  0  0  0  0  0  0  0
  142.2439   78.2968  219.6290 H   0  0  0  0  0  0  0  0  0  0  0  0
  141.7152   76.5571  221.2704 H   0  0  0  0  0  0  0  0  0  0  0  0
  140.9556   77.4757  223.8920 H   0  0  0  0  0  0  0  0  0  0  0  0
  141.7988   79.3305  225.3208 H   0  0  0  0  0  0  0  0  0  0  0  0
  142.8415   81.3327  224.3562 H   0  0  0  0  0  0  0  0  0  0  0  0
  143.0604   81.5108  221.8889 H   0  0  0  0  0  0  0  0  0  0  0  0
  142.2387   79.7019  220.4538 H   0  0  0  0  0  0  0  0  0  0  0  0
  139.2655   70.2971  222.2239 H   0  0  0  0  0  0  0  0  0  0  0  0
  138.8777   68.5745  224.0061 H   0  0  0  0  0  0  0  0  0  0  0  0
  139.1684   67.9167  226.3227 H   0  0  0  0  0  0  0  0  0  0  0  0
  141.2010   70.5338  229.0617 H   0  0  0  0  0  0  0  0  0  0  0  0
  141.5584   72.2189  227.2513 H   0  0  0  0  0  0  0  0  0  0  0  0
  1  2  2  0
  2  3  1  0
  3  4  1  0
  4  5  1  0
  5  6  2  0
  5  7  1  0
  7  8  1  0
  8  9  1  0
  9 10  1  0
 10 11  1  0
 10 12  1  0
 10 13  1  0
 13 14  1  0
 14 15  1  0
 15 16  2  0
 16 17  1  0
 17 18  2  0
 18 19  1  0
 19 20  2  0
  2 21  1  0
 21 22  2  0
 22 23  1  0
 23 24  2  0
 24 25  1  0
 25 26  2  0
 26 27  1  0
 26 28  1  0
 28 29  2  0
 29 30  1  0
 30 31  2  0
 14  7  1  0
 20 15  1  0
 31 21  1  0
 30 24  1  0
  3 32  1  0
  4 33  1  0
  4 34  1  0
  8 35  1  0
  8 36  1  0
  9 37  1  0
  9 38  1  0
 13 39  1  0
 13 40  1  0
 14 41  1  1
 16 42  1  0
 17 43  1  0
 18 44  1  0
 19 45  1  0
 20 46  1  0
 22 47  1  0
 23 48  1  0
 25 49  1  0
 28 50  1  0
 29 51  1  0
M  END
>  <smiles>  (47) 
O=C(NCC(=O)N1CCC(F)(F)C[C@H]1c1ccccc1)c1ccc2cc(F)ccc2n1

>  <score_type>  (47) 
oracle

>  <origin>  (47) 
autodockgpu

>  <m_score__min__energy>  (47) 
-9.0099999999999998

>  <m_primary>  (47) 
energy

>  <rmsd>  (47) 
2.2914006470226025

>  <m_score__min__rmsd>  (47) 
2.2914006470226025

>  <meeko>  (47) 
{"free_energy": -8.7, "intermolecular_energy": -10.19, "internal_energy": -1.73, "cluster_size": 45, "cluster_id": 1, "rank_in_cluster": 25}

>  <energy>  (47) 
-7.69

>  <cluster_rmsd>  (47) 
0.0

>  <cluster>  (47) 
3

$$$$

     RDKit          3D

 51 54  0  0  0  0  0  0  0  0999 V2000
  139.0320   70.6930  221.3960 O   0  0  0  0  0  0  0  0  0  0  0  0
  139.1590   71.5070  222.3620 C   0  0  0  0  0  0  0  0  0  0  0  0
  138.8230   72.8920  222.2170 N   0  0  0  0  0  0  0  0  0  0  0  0
  138.3220   73.4220  220.9630 C   0  0  0  0  0  0  0  0  0  0  0  0
  138.1560   74.8780  221.0840 C   0  0  0  0  0  0  0  0  0  0  0  0
  137.0380   75.3800  221.3260 O   0  0  0  0  0  0  0  0  0  0  0  0
  139.2870   75.7040  220.9200 N   0  0  0  0  0  0  0  0  0  0  0  0
  139.4930   76.5320  219.7410 C   0  0  0  0  0  0  0  0  0  0  0  0
  140.7270   76.0260  219.0620 C   0  0  0  0  0  0  0  0  0  0  0  0
  141.8980   75.7660  219.9320 C   0  0  0  0  0  0  0  0  0  0  0  0
  142.7540   76.8500  219.8960 F   0  0  0  0  0  0  0  0  0  0  0  0
  142.6290   74.7280  219.3310 F   0  0  0  0  0  0  0  0  0  0  0  0
  141.6120   75.3260  221.3290 C   0  0  0  0  0  0  0  0  0  0  0  0
  140.3510   75.7890  221.9370 C   0  0  1  0  0  0  0  0  0  0  0  0
  140.3330   77.1750  222.4430 C   0  0  0  0  0  0  0  0  0  0  0  0
  141.4480   77.9470  222.6620 C   0  0  0  0  0  0  0  0  0  0  0  0
  141.2750   79.2470  223.1440 C   0  0  0  0  0  0  0  0  0  0  0  0
  140.0450   79.7790  223.4040 C   0  0  0  0  0  0  0  0  0  0  0  0
  138.9380   79.0030  223.1840 C   0  0  0  0  0  0  0  0  0  0  0  0
  139.0840   77.7280  222.7130 C   0  0  0  0  0  0  0  0  0  0  0  0
  139.6640   71.0360  223.6680 C   0  0  0  0  0  0  0  0  0  0  0  0
  140.3740   71.8770  224.4760 C   0  0  0  0  0  0  0  0  0  0  0  0
  140.8670   71.4660  225.7170 C   0  0  0  0  0  0  0  0  0  0  0  0
  140.6010   70.1530  226.0960 C   0  0  0  0  0  0  0  0  0  0  0  0
  141.0690   69.6960  227.3200 C   0  0  0  0  0  0  0  0  0  0  0  0
  140.7970   68.3930  227.6790 C   0  0  0  0  0  0  0  0  0  0  0  0
  141.2500   67.9380  228.8740 F   0  0  0  0  0  0  0  0  0  0  0  0
  140.0810   67.5500  226.8610 C   0  0  0  0  0  0  0  0  0  0  0  0
  139.6060   67.9920  225.6340 C   0  0  0  0  0  0  0  0  0  0  0  0
  139.8750   69.3000  225.2640 C   0  0  0  0  0  0  0  0  0  0  0  0
  139.4260   69.7600  224.0740 N   0  0  0  0  0  0  0  0  0  0  0  0
  138.9580   73.5060  223.0750 H   0  0  0  0  0  0  0  0  0  0  0  0
  139.0374   73.1992  220.1577 H   0  0  0  0  0  0  0  0  0  0  0  0
  137.3527   72.9584  220.7274 H   0  0  0  0  0  0  0  0  0  0  0  0
  138.6289   76.4491  219.0653 H   0  0  0  0  0  0  0  0  0  0  0  0
  139.6035   77.5906  220.0188 H   0  0  0  0  0  0  0  0  0  0  0  0
  140.4688   75.0831  218.5577 H   0  0  0  0  0  0  0  0  0  0  0  0
  141.0400   76.8341  218.3844 H   0  0  0  0  0  0  0  0  0  0  0  0
  141.5968   74.2261  221.3329 H   0  0  0  0  0  0  0  0  0  0  0  0
  142.4052   75.7839  221.9382 H   0  0  0  0  0  0  0  0  0  0  0  0
  140.2114   75.1357  222.8109 H   0  0  0  0  0  0  0  0  0  0  0  0
  142.4545   77.5506  222.4624 H   0  0  0  0  0  0  0  0  0  0  0  0
  142.1662   79.8670  223.3212 H   0  0  0  0  0  0  0  0  0  0  0  0
  139.9452   80.8073  223.7816 H   0  0  0  0  0  0  0  0  0  0  0  0
  137.9341   79.4047  223.3858 H   0  0  0  0  0  0  0  0  0  0  0  0
  138.1845   77.1185  222.5415 H   0  0  0  0  0  0  0  0  0  0  0  0
  140.5632   72.9073  224.1404 H   0  0  0  0  0  0  0  0  0  0  0  0
  141.4384   72.1477  226.3641 H   0  0  0  0  0  0  0  0  0  0  0  0
  141.6424   70.3567  227.9868 H   0  0  0  0  0  0  0  0  0  0  0  0
  139.8832   66.5167  227.1821 H   0  0  0  0  0  0  0  0  0  0  0  0
  139.0329   67.3236  224.9747 H   0  0  0  0  0  0  0  0  0  0  0  0
  1  2  2  0
  2  3  1  0
  3  4  1  0
  4  5  1  0
  5  6  2  0
  5  7  1  0
  7  8  1  0
  8  9  1  0
  9 10  1  0
 10 11  1  0
 10 12  1  0
 10 13  1  0
 13 14  1  0
 14 15  1  0
 15 16  2  0
 16 17  1  0
 17 18  2  0
 18 19  1  0
 19 20  2  0
  2 21  1  0
 21 22  2  0
 22 23  1  0
 23 24  2  0
 24 25  1  0
 25 26  2  0
 26 27  1  0
 26 28  1  0
 28 29  2  0
 29 30  1  0
 30 31  2  0
 14  7  1  0
 20 15  1  0
 31 21  1  0
 30 24  1  0
  3 32  1  0
  4 33  1  0
  4 34  1  0
  8 35  1  0
  8 36  1  0
  9 37  1  0
  9 38  1  0
 13 39  1  0
 13 40  1  0
 14 41  1  1
 16 42  1  0
 17 43  1  0
 18 44  1  0
 19 45  1  0
 20 46  1  0
 22 47  1  0
 23 48  1  0
 25 49  1  0
 28 50  1  0
 29 51  1  0
M  END
>  <smiles>  (48) 
O=C(NCC(=O)N1CCC(F)(F)C[C@H]1c1ccccc1)c1ccc2cc(F)ccc2n1

>  <score_type>  (48) 
oracle

>  <origin>  (48) 
autodockgpu

>  <m_score__min__energy>  (48) 
-9.0099999999999998

>  <m_primary>  (48) 
energy

>  <rmsd>  (48) 
2.85729556908703

>  <m_score__min__rmsd>  (48) 
2.85729556908703

>  <meeko>  (48) 
{"free_energy": -7.69, "intermolecular_energy": -9.18, "internal_energy": -1.49, "cluster_size": 1, "cluster_id": 3, "rank_in_cluster": 1}

>  <energy>  (48) 
-7.69

>  <cluster_rmsd>  (48) 
0.0

>  <cluster>  (48) 
4

$$$$

     RDKit          3D

 51 54  0  0  0  0  0  0  0  0999 V2000
  141.4550   72.4060  221.5350 O   0  0  0  0  0  0  0  0  0  0  0  0
  140.5440   72.6220  222.3920 C   0  0  0  0  0  0  0  0  0  0  0  0
  139.7380   73.8050  222.3380 N   0  0  0  0  0  0  0  0  0  0  0  0
  139.9290   74.8050  221.3040 C   0  0  0  0  0  0  0  0  0  0  0  0
  139.3890   76.0910  221.7680 C   0  0  0  0  0  0  0  0  0  0  0  0
  138.4920   76.1370  222.6370 O   0  0  0  0  0  0  0  0  0  0  0  0
  139.9020   77.2810  221.2120 N   0  0  0  0  0  0  0  0  0  0  0  0
  139.0490   78.3670  220.7530 C   0  0  0  0  0  0  0  0  0  0  0  0
  139.2660   78.5000  219.2780 C   0  0  0  0  0  0  0  0  0  0  0  0
  140.6740   78.4890  218.8160 C   0  0  0  0  0  0  0  0  0  0  0  0
  141.1150   79.7860  218.6360 F   0  0  0  0  0  0  0  0  0  0  0  0
  140.6740   77.9420  217.5220 F   0  0  0  0  0  0  0  0  0  0  0  0
  141.6380   77.6780  219.6170 C   0  0  0  0  0  0  0  0  0  0  0  0
  141.3490   77.5130  221.0540 C   0  0  1  0  0  0  0  0  0  0  0  0
  141.6870   78.6520  221.9280 C   0  0  0  0  0  0  0  0  0  0  0  0
  142.1270   79.8770  221.4910 C   0  0  0  0  0  0  0  0  0  0  0  0
  142.4070   80.8640  222.4400 C   0  0  0  0  0  0  0  0  0  0  0  0
  142.2610   80.6580  223.7810 C   0  0  0  0  0  0  0  0  0  0  0  0
  141.8220   79.4340  224.2110 C   0  0  0  0  0  0  0  0  0  0  0  0
  141.5430   78.4540  223.2990 C   0  0  0  0  0  0  0  0  0  0  0  0
  140.2940   71.6460  223.4730 C   0  0  0  0  0  0  0  0  0  0  0  0
  139.6040   70.4970  223.2160 C   0  0  0  0  0  0  0  0  0  0  0  0
  139.3480   69.5510  224.2130 C   0  0  0  0  0  0  0  0  0  0  0  0
  139.8320   69.8340  225.4870 C   0  0  0  0  0  0  0  0  0  0  0  0
  139.6060   68.9270  226.5130 C   0  0  0  0  0  0  0  0  0  0  0  0
  140.0930   69.2250  227.7680 C   0  0  0  0  0  0  0  0  0  0  0  0
  139.8750   68.3430  228.7770 F   0  0  0  0  0  0  0  0  0  0  0  0
  140.7870   70.3840  228.0200 C   0  0  0  0  0  0  0  0  0  0  0  0
  141.0230   71.3010  227.0060 C   0  0  0  0  0  0  0  0  0  0  0  0
  140.5380   71.0120  225.7410 C   0  0  0  0  0  0  0  0  0  0  0  0
  140.7500   71.8870  224.7310 N   0  0  0  0  0  0  0  0  0  0  0  0
  138.9960   73.9100  223.0930 H   0  0  0  0  0  0  0  0  0  0  0  0
  141.0027   74.9126  221.0904 H   0  0  0  0  0  0  0  0  0  0  0  0
  139.4052   74.4936  220.3882 H   0  0  0  0  0  0  0  0  0  0  0  0
  137.9944   78.1325  220.9601 H   0  0  0  0  0  0  0  0  0  0  0  0
  139.2942   79.3052  221.2722 H   0  0  0  0  0  0  0  0  0  0  0  0
  138.7459   77.6646  218.7864 H   0  0  0  0  0  0  0  0  0  0  0  0
  138.8794   79.4955  219.0142 H   0  0  0  0  0  0  0  0  0  0  0  0
  141.6771   76.6737  219.1699 H   0  0  0  0  0  0  0  0  0  0  0  0
  142.5818   78.2418  219.5805 H   0  0  0  0  0  0  0  0  0  0  0  0
  141.9897   76.6765  221.3699 H   0  0  0  0  0  0  0  0  0  0  0  0
  142.2563   80.0772  220.4171 H   0  0  0  0  0  0  0  0  0  0  0  0
  142.7592   81.8463  222.0920 H   0  0  0  0  0  0  0  0  0  0  0  0
  142.4908   81.4574  224.5008 H   0  0  0  0  0  0  0  0  0  0  0  0
  141.6943   79.2399  225.2862 H   0  0  0  0  0  0  0  0  0  0  0  0
  141.1929   77.4759  223.6606 H   0  0  0  0  0  0  0  0  0  0  0  0
  139.2389   70.3099  222.1954 H   0  0  0  0  0  0  0  0  0  0  0  0
  138.7905   68.6268  224.0007 H   0  0  0  0  0  0  0  0  0  0  0  0
  139.0525   67.9943  226.3296 H   0  0  0  0  0  0  0  0  0  0  0  0
  141.1589   70.5866  229.0352 H   0  0  0  0  0  0  0  0  0  0  0  0
  141.5788   72.2301  227.2008 H   0  0  0  0  0  0  0  0  0  0  0  0
  1  2  2  0
  2  3  1  0
  3  4  1  0
  4  5  1  0
  5  6  2  0
  5  7  1  0
  7  8  1  0
  8  9  1  0
  9 10  1  0
 10 11  1  0
 10 12  1  0
 10 13  1  0
 13 14  1  0
 14 15  1  0
 15 16  2  0
 16 17  1  0
 17 18  2  0
 18 19  1  0
 19 20  2  0
  2 21  1  0
 21 22  2  0
 22 23  1  0
 23 24  2  0
 24 25  1  0
 25 26  2  0
 26 27  1  0
 26 28  1  0
 28 29  2  0
 29 30  1  0
 30 31  2  0
 14  7  1  0
 20 15  1  0
 31 21  1  0
 30 24  1  0
  3 32  1  0
  4 33  1  0
  4 34  1  0
  8 35  1  0
  8 36  1  0
  9 37  1  0
  9 38  1  0
 13 39  1  0
 13 40  1  0
 14 41  1  1
 16 42  1  0
 17 43  1  0
 18 44  1  0
 19 45  1  0
 20 46  1  0
 22 47  1  0
 23 48  1  0
 25 49  1  0
 28 50  1  0
 29 51  1  0
M  END
>  <smiles>  (49) 
O=C(NCC(=O)N1CCC(F)(F)C[C@H]1c1ccccc1)c1ccc2cc(F)ccc2n1

>  <score_type>  (49) 
oracle

>  <origin>  (49) 
autodockgpu

>  <m_score__min__energy>  (49) 
-9.0099999999999998

>  <m_primary>  (49) 
energy

>  <rmsd>  (49) 
2.2189550188667457

>  <m_score__min__rmsd>  (49) 
2.2189550188667457

>  <meeko>  (49) 
{"free_energy": -8.75, "intermolecular_energy": -10.24, "internal_energy": -1.79, "cluster_size": 45, "cluster_id": 1, "rank_in_cluster": 19}

>  <energy>  (49) 
-7.68

>  <cluster_rmsd>  (49) 
0.06

>  <cluster>  (49) 
4

$$$$

     RDKit          3D

 51 54  0  0  0  0  0  0  0  0999 V2000
  141.3880   72.3090  221.5270 O   0  0  0  0  0  0  0  0  0  0  0  0
  140.4890   72.5420  222.3920 C   0  0  0  0  0  0  0  0  0  0  0  0
  139.6760   73.7200  222.3230 N   0  0  0  0  0  0  0  0  0  0  0  0
  139.8470   74.6950  221.2620 C   0  0  0  0  0  0  0  0  0  0  0  0
  139.4110   76.0150  221.7420 C   0  0  0  0  0  0  0  0  0  0  0  0
  138.5430   76.1200  222.6350 O   0  0  0  0  0  0  0  0  0  0  0  0
  139.9920   77.1670  221.1760 N   0  0  0  0  0  0  0  0  0  0  0  0
  139.2020   78.2480  220.6060 C   0  0  0  0  0  0  0  0  0  0  0  0
  139.5330   78.3090  219.1470 C   0  0  0  0  0  0  0  0  0  0  0  0
  140.9710   78.2490  218.7950 C   0  0  0  0  0  0  0  0  0  0  0  0
  141.4540   79.5280  218.5920 F   0  0  0  0  0  0  0  0  0  0  0  0
  141.0560   77.6430  217.5300 F   0  0  0  0  0  0  0  0  0  0  0  0
  141.8520   77.4560  219.7020 C   0  0  0  0  0  0  0  0  0  0  0  0
  141.4520   77.3620  221.1190 C   0  0  1  0  0  0  0  0  0  0  0  0
  141.7490   78.5330  221.9650 C   0  0  0  0  0  0  0  0  0  0  0  0
  142.1880   79.7490  221.5010 C   0  0  0  0  0  0  0  0  0  0  0  0
  142.4270   80.7700  222.4260 C   0  0  0  0  0  0  0  0  0  0  0  0
  142.2420   80.6060  223.7690 C   0  0  0  0  0  0  0  0  0  0  0  0
  141.8050   79.3900  224.2240 C   0  0  0  0  0  0  0  0  0  0  0  0
  141.5650   78.3780  223.3370 C   0  0  0  0  0  0  0  0  0  0  0  0
  140.2610   71.5920  223.5000 C   0  0  0  0  0  0  0  0  0  0  0  0
  139.5750   70.4320  223.2820 C   0  0  0  0  0  0  0  0  0  0  0  0
  139.3400   69.5090  224.3050 C   0  0  0  0  0  0  0  0  0  0  0  0
  139.8400   69.8270  225.5640 C   0  0  0  0  0  0  0  0  0  0  0  0
  139.6340   68.9440  226.6150 C   0  0  0  0  0  0  0  0  0  0  0  0
  140.1350   69.2750  227.8560 C   0  0  0  0  0  0  0  0  0  0  0  0
  139.9380   68.4160  228.8890 F   0  0  0  0  0  0  0  0  0  0  0  0
  140.8260   70.4440  228.0700 C   0  0  0  0  0  0  0  0  0  0  0  0
  141.0410   71.3380  227.0300 C   0  0  0  0  0  0  0  0  0  0  0  0
  140.5400   71.0150  225.7790 C   0  0  0  0  0  0  0  0  0  0  0  0
  140.7330   71.8660  224.7460 N   0  0  0  0  0  0  0  0  0  0  0  0
  138.9460   73.8390  223.0860 H   0  0  0  0  0  0  0  0  0  0  0  0
  140.9071   74.7409  220.9721 H   0  0  0  0  0  0  0  0  0  0  0  0
  139.2438   74.4015  220.3902 H   0  0  0  0  0  0  0  0  0  0  0  0
  138.1295   78.0446  220.7420 H   0  0  0  0  0  0  0  0  0  0  0  0
  139.4294   79.2038  221.1007 H   0  0  0  0  0  0  0  0  0  0  0  0
  139.0322   77.4625  218.6545 H   0  0  0  0  0  0  0  0  0  0  0  0
  139.1907   79.2988  218.8107 H   0  0  0  0  0  0  0  0  0  0  0  0
  141.9009   76.4319  219.3035 H   0  0  0  0  0  0  0  0  0  0  0  0
  142.8087   77.9987  219.7132 H   0  0  0  0  0  0  0  0  0  0  0  0
  142.0474   76.5281  221.5192 H   0  0  0  0  0  0  0  0  0  0  0  0
  142.3480   79.9159  220.4256 H   0  0  0  0  0  0  0  0  0  0  0  0
  142.7783   81.7449  222.0569 H   0  0  0  0  0  0  0  0  0  0  0  0
  142.4393   81.4311  224.4692 H   0  0  0  0  0  0  0  0  0  0  0  0
  141.6476   79.2283  225.3006 H   0  0  0  0  0  0  0  0  0  0  0  0
  141.2146   77.4081  223.7198 H   0  0  0  0  0  0  0  0  0  0  0  0
  139.1962   70.2175  222.2718 H   0  0  0  0  0  0  0  0  0  0  0  0
  138.7863   68.5760  224.1235 H   0  0  0  0  0  0  0  0  0  0  0  0
  139.0846   68.0035  226.4615 H   0  0  0  0  0  0  0  0  0  0  0  0
  141.2120   70.6730  229.0743 H   0  0  0  0  0  0  0  0  0  0  0  0
  141.5929   72.2753  227.1941 H   0  0  0  0  0  0  0  0  0  0  0  0
  1  2  2  0
  2  3  1  0
  3  4  1  0
  4  5  1  0
  5  6  2  0
  5  7  1  0
  7  8  1  0
  8  9  1  0
  9 10  1  0
 10 11  1  0
 10 12  1  0
 10 13  1  0
 13 14  1  0
 14 15  1  0
 15 16  2  0
 16 17  1  0
 17 18  2  0
 18 19  1  0
 19 20  2  0
  2 21  1  0
 21 22  2  0
 22 23  1  0
 23 24  2  0
 24 25  1  0
 25 26  2  0
 26 27  1  0
 26 28  1  0
 28 29  2  0
 29 30  1  0
 30 31  2  0
 14  7  1  0
 20 15  1  0
 31 21  1  0
 30 24  1  0
  3 32  1  0
  4 33  1  0
  4 34  1  0
  8 35  1  0
  8 36  1  0
  9 37  1  0
  9 38  1  0
 13 39  1  0
 13 40  1  0
 14 41  1  1
 16 42  1  0
 17 43  1  0
 18 44  1  0
 19 45  1  0
 20 46  1  0
 22 47  1  0
 23 48  1  0
 25 49  1  0
 28 50  1  0
 29 51  1  0
M  END
>  <smiles>  (50) 
O=C(NCC(=O)N1CCC(F)(F)C[C@H]1c1ccccc1)c1ccc2cc(F)ccc2n1

>  <score_type>  (50) 
oracle

>  <origin>  (50) 
autodockgpu

>  <m_score__min__energy>  (50) 
-9.0099999999999998

>  <m_primary>  (50) 
energy

>  <rmsd>  (50) 
2.1341491504899626

>  <m_score__min__rmsd>  (50) 
2.1341491504899626

>  <meeko>  (50) 
{"free_energy": -8.83, "intermolecular_energy": -10.32, "internal_energy": -1.75, "cluster_size": 45, "cluster_id": 1, "rank_in_cluster": 15}

>  <energy>  (50) 
-7.37

>  <cluster_rmsd>  (50) 
0.0

>  <cluster>  (50) 
5

$$$$
