
     RDKit          3D

 51 54  0  0  0  0  0  0  0  0999 V2000
  140.8990   72.1140  221.5880 O   0  0  0  0  0  0  0  0  0  0  0  0
  140.0300   72.2700  222.5080 C   0  0  0  0  0  0  0  0  0  0  0  0
  139.0380   73.2690  222.3240 N   0  0  0  0  0  0  0  0  0  0  0  0
  139.1090   74.0320  221.0810 C   0  0  0  0  0  0  0  0  0  0  0  0
  139.3650   75.4690  221.3550 C   0  0  0  0  0  0  0  0  0  0  0  0
  138.5240   76.2540  221.8390 O   0  0  0  0  0  0  0  0  0  0  0  0
  140.6520   75.9870  221.0440 N   0  0  0  0  0  0  0  0  0  0  0  0
  141.8010   75.0830  221.1960 C   0  0  0  0  0  0  0  0  0  0  0  0
  142.3800   74.8910  219.7900 C   0  0  0  0  0  0  0  0  0  0  0  0
  142.3330   76.1710  219.0040 C   0  0  0  0  0  0  0  0  0  0  0  0
  142.2620   77.3670  219.9460 C   0  0  0  0  0  0  0  0  0  0  0  0
  140.8980   77.3310  220.5940 C   0  0  2  0  0  0  0  0  0  0  0  0
  140.7230   78.3710  221.6140 C   0  0  0  0  0  0  0  0  0  0  0  0
  139.4520   78.7690  222.0430 C   0  0  0  0  0  0  0  0  0  0  0  0
  139.2790   79.7450  223.0010 C   0  0  0  0  0  0  0  0  0  0  0  0
  137.6270   80.1530  223.4500 Cl  0  0  0  0  0  0  0  0  0  0  0  0
  140.3690   80.3760  223.5800 C   0  0  0  0  0  0  0  0  0  0  0  0
  141.6120   79.9740  223.1480 C   0  0  0  0  0  0  0  0  0  0  0  0
  143.0320   80.7460  223.8550 Cl  0  0  0  0  0  0  0  0  0  0  0  0
  141.8160   79.0020  222.1940 C   0  0  0  0  0  0  0  0  0  0  0  0
  140.0610   71.4480  223.7020 C   0  0  0  0  0  0  0  0  0  0  0  0
  139.5860   70.1510  223.6420 C   0  0  0  0  0  0  0  0  0  0  0  0
  139.5820   69.3090  224.7350 C   0  0  0  0  0  0  0  0  0  0  0  0
  140.0700   69.7840  225.9310 C   0  0  0  0  0  0  0  0  0  0  0  0
  140.0750   68.9580  227.0330 C   0  0  0  0  0  0  0  0  0  0  0  0
  140.5630   69.4420  228.2140 C   0  0  0  0  0  0  0  0  0  0  0  0
  141.0470   70.7460  228.3000 C   0  0  0  0  0  0  0  0  0  0  0  0
  141.0230   71.5450  227.1600 C   0  0  0  0  0  0  0  0  0  0  0  0
  140.5370   71.0830  225.9580 C   0  0  0  0  0  0  0  0  0  0  0  0
  140.5340   71.8920  224.8830 N   0  0  0  0  0  0  0  0  0  0  0  0
  138.3000   73.4380  223.0460 H   0  0  0  0  0  0  0  0  0  0  0  0
  139.9243   73.6330  220.4596 H   0  0  0  0  0  0  0  0  0  0  0  0
  138.1462   73.9403  220.5569 H   0  0  0  0  0  0  0  0  0  0  0  0
  142.5540   75.5312  221.8610 H   0  0  0  0  0  0  0  0  0  0  0  0
  141.5008   74.1231  221.6414 H   0  0  0  0  0  0  0  0  0  0  0  0
  143.4256   74.5600  219.8746 H   0  0  0  0  0  0  0  0  0  0  0  0
  141.7760   74.1368  219.2643 H   0  0  0  0  0  0  0  0  0  0  0  0
  143.2385   76.2501  218.3845 H   0  0  0  0  0  0  0  0  0  0  0  0
  141.4384   76.1656  218.3640 H   0  0  0  0  0  0  0  0  0  0  0  0
  143.0475   77.2927  220.7124 H   0  0  0  0  0  0  0  0  0  0  0  0
  142.4151   78.3095  219.3999 H   0  0  0  0  0  0  0  0  0  0  0  0
  140.1205   77.5869  219.8592 H   0  0  0  0  0  0  0  0  0  0  0  0
  138.5653   78.2892  221.6031 H   0  0  0  0  0  0  0  0  0  0  0  0
  140.2467   81.1572  224.3447 H   0  0  0  0  0  0  0  0  0  0  0  0
  142.8378   78.7272  221.8933 H   0  0  0  0  0  0  0  0  0  0  0  0
  139.1957   69.7754  222.6846 H   0  0  0  0  0  0  0  0  0  0  0  0
  139.1976   68.2817  224.6524 H   0  0  0  0  0  0  0  0  0  0  0  0
  139.6935   67.9286  226.9638 H   0  0  0  0  0  0  0  0  0  0  0  0
  140.5739   68.7966  229.1047 H   0  0  0  0  0  0  0  0  0  0  0  0
  141.4404   71.1365  229.2501 H   0  0  0  0  0  0  0  0  0  0  0  0
  141.4034   72.5753  227.2218 H   0  0  0  0  0  0  0  0  0  0  0  0
  1  2  2  0
  2  3  1  0
  3  4  1  0
  4  5  1  0
  5  6  2  0
  5  7  1  0
  7  8  1  0
  8  9  1  0
  9 10  1  0
 10 11  1  0
 11 12  1  0
 12 13  1  0
 13 14  2  0
 14 15  1  0
 15 16  1  0
 15 17  2  0
 17 18  1  0
 18 19  1  0
 18 20  2  0
  2 21  1  0
 21 22  2  0
 22 23  1  0
 23 24  2  0
 24 25  1  0
 25 26  2  0
 26 27  1  0
 27 28  2  0
 28 29  1  0
 29 30  2  0
 12  7  1  0
 20 13  1  0
 30 21  1  0
 29 24  1  0
  3 31  1  0
  4 32  1  0
  4 33  1  0
  8 34  1  0
  8 35  1  0
  9 36  1  0
  9 37  1  0
 10 38  1  0
 10 39  1  0
 11 40  1  0
 11 41  1  0
 12 42  1  6
 14 43  1  0
 17 44  1  0
 20 45  1  0
 22 46  1  0
 23 47  1  0
 25 48  1  0
 26 49  1  0
 27 50  1  0
 28 51  1  0
M  END
>  <smiles>  (1) 
O=C(NCC(=O)N1CCCCC1c1cc(Cl)cc(Cl)c1)c1ccc2ccccc2n1

>  <score_type>  (1) 
oracle

>  <origin>  (1) 
autodockgpu

>  <m_score__min__energy>  (1) 
-9.6699999999999999

>  <m_primary>  (1) 
energy

>  <rmsd>  (1) 
2.09682575556048

>  <m_score__min__rmsd>  (1) 
2.09682575556048

>  <meeko>  (1) 
{"free_energy": -9.64, "intermolecular_energy": -11.13, "internal_energy": -1.41, "cluster_size": 38, "cluster_id": 1, "rank_in_cluster": 4}

>  <energy>  (1) 
-9.67

>  <cluster_rmsd>  (1) 
0.0

>  <cluster>  (1) 
1

$$$$

     RDKit          3D

 51 54  0  0  0  0  0  0  0  0999 V2000
  139.5770   71.2860  221.3330 O   0  0  0  0  0  0  0  0  0  0  0  0
  139.6160   71.9430  222.4240 C   0  0  0  0  0  0  0  0  0  0  0  0
  139.4680   73.3540  222.3560 N   0  0  0  0  0  0  0  0  0  0  0  0
  139.2830   73.9240  221.0250 C   0  0  0  0  0  0  0  0  0  0  0  0
  139.4320   75.4010  221.0530 C   0  0  0  0  0  0  0  0  0  0  0  0
  138.4930   76.1990  221.2500 O   0  0  0  0  0  0  0  0  0  0  0  0
  140.7280   75.9440  220.8430 N   0  0  0  0  0  0  0  0  0  0  0  0
  141.8770   75.0420  221.0150 C   0  0  0  0  0  0  0  0  0  0  0  0
  142.5360   74.9260  219.6360 C   0  0  0  0  0  0  0  0  0  0  0  0
  142.5190   76.2430  218.9130 C   0  0  0  0  0  0  0  0  0  0  0  0
  142.3830   77.3900  219.9070 C   0  0  0  0  0  0  0  0  0  0  0  0
  140.9850   77.3100  220.4740 C   0  0  2  0  0  0  0  0  0  0  0  0
  140.7420   78.2970  221.5330 C   0  0  0  0  0  0  0  0  0  0  0  0
  141.7960   78.9610  222.1700 C   0  0  0  0  0  0  0  0  0  0  0  0
  141.5770   79.8900  223.1650 C   0  0  0  0  0  0  0  0  0  0  0  0
  142.9900   80.6520  223.8850 Cl  0  0  0  0  0  0  0  0  0  0  0  0
  140.2910   80.2020  223.5770 C   0  0  0  0  0  0  0  0  0  0  0  0
  139.2650   79.5410  222.9410 C   0  0  0  0  0  0  0  0  0  0  0  0
  137.6090   79.9040  223.4290 Cl  0  0  0  0  0  0  0  0  0  0  0  0
  139.4530   78.6100  221.9440 C   0  0  0  0  0  0  0  0  0  0  0  0
  139.8060   71.2650  223.6910 C   0  0  0  0  0  0  0  0  0  0  0  0
  139.4900   69.9230  223.7930 C   0  0  0  0  0  0  0  0  0  0  0  0
  139.6430   69.2090  224.9640 C   0  0  0  0  0  0  0  0  0  0  0  0
  140.1290   69.8640  226.0720 C   0  0  0  0  0  0  0  0  0  0  0  0
  140.2890   69.1680  227.2500 C   0  0  0  0  0  0  0  0  0  0  0  0
  140.7730   69.8300  228.3430 C   0  0  0  0  0  0  0  0  0  0  0  0
  141.0970   71.1830  228.2660 C   0  0  0  0  0  0  0  0  0  0  0  0
  140.9200   71.8460  227.0550 C   0  0  0  0  0  0  0  0  0  0  0  0
  140.4340   71.2040  225.9390 C   0  0  0  0  0  0  0  0  0  0  0  0
  140.2790   71.8850  224.7890 N   0  0  0  0  0  0  0  0  0  0  0  0
  139.4920   73.9430  223.2210 H   0  0  0  0  0  0  0  0  0  0  0  0
  140.0355   73.4994  220.3441 H   0  0  0  0  0  0  0  0  0  0  0  0
  138.2680   73.6808  220.6777 H   0  0  0  0  0  0  0  0  0  0  0  0
  142.5865   75.4620  221.7431 H   0  0  0  0  0  0  0  0  0  0  0  0
  141.5627   74.0585  221.3944 H   0  0  0  0  0  0  0  0  0  0  0  0
  143.5788   74.5999  219.7630 H   0  0  0  0  0  0  0  0  0  0  0  0
  141.9705   74.1943  219.0402 H   0  0  0  0  0  0  0  0  0  0  0  0
  143.4567   76.3600  218.3499 H   0  0  0  0  0  0  0  0  0  0  0  0
  141.6613   76.2623  218.2246 H   0  0  0  0  0  0  0  0  0  0  0  0
  143.1252   77.2840  220.7120 H   0  0  0  0  0  0  0  0  0  0  0  0
  142.5566   78.3599  219.4180 H   0  0  0  0  0  0  0  0  0  0  0  0
  140.2475   77.5949  219.7092 H   0  0  0  0  0  0  0  0  0  0  0  0
  142.8294   78.7353  221.8682 H   0  0  0  0  0  0  0  0  0  0  0  0
  140.1004   80.9393  224.3707 H   0  0  0  0  0  0  0  0  0  0  0  0
  138.5878   78.1174  221.4762 H   0  0  0  0  0  0  0  0  0  0  0  0
  139.1009   69.4034  222.9050 H   0  0  0  0  0  0  0  0  0  0  0  0
  139.3825   68.1413  225.0104 H   0  0  0  0  0  0  0  0  0  0  0  0
  140.0321   68.1001  227.3096 H   0  0  0  0  0  0  0  0  0  0  0  0
  140.9080   69.2901  229.2919 H   0  0  0  0  0  0  0  0  0  0  0  0
  141.4854   71.7171  229.1457 H   0  0  0  0  0  0  0  0  0  0  0  0
  141.1759   72.9137  226.9881 H   0  0  0  0  0  0  0  0  0  0  0  0
  1  2  2  0
  2  3  1  0
  3  4  1  0
  4  5  1  0
  5  6  2  0
  5  7  1  0
  7  8  1  0
  8  9  1  0
  9 10  1  0
 10 11  1  0
 11 12  1  0
 12 13  1  0
 13 14  2  0
 14 15  1  0
 15 16  1  0
 15 17  2  0
 17 18  1  0
 18 19  1  0
 18 20  2  0
  2 21  1  0
 21 22  2  0
 22 23  1  0
 23 24  2  0
 24 25  1  0
 25 26  2  0
 26 27  1  0
 27 28  2  0
 28 29  1  0
 29 30  2  0
 12  7  1  0
 20 13  1  0
 30 21  1  0
 29 24  1  0
  3 31  1  0
  4 32  1  0
  4 33  1  0
  8 34  1  0
  8 35  1  0
  9 36  1  0
  9 37  1  0
 10 38  1  0
 10 39  1  0
 11 40  1  0
 11 41  1  0
 12 42  1  6
 14 43  1  0
 17 44  1  0
 20 45  1  0
 22 46  1  0
 23 47  1  0
 25 48  1  0
 26 49  1  0
 27 50  1  0
 28 51  1  0
M  END
>  <smiles>  (2) 
O=C(NCC(=O)N1CCCCC1c1cc(Cl)cc(Cl)c1)c1ccc2ccccc2n1

>  <score_type>  (2) 
oracle

>  <origin>  (2) 
autodockgpu

>  <m_score__min__energy>  (2) 
-9.6699999999999999

>  <m_primary>  (2) 
energy

>  <rmsd>  (2) 
2.074863157338308

>  <m_score__min__rmsd>  (2) 
2.074863157338308

>  <meeko>  (2) 
{"free_energy": -9.37, "intermolecular_energy": -10.86, "internal_energy": -1.42, "cluster_size": 38, "cluster_id": 1, "rank_in_cluster": 23}

>  <energy>  (2) 
-9.67

>  <cluster_rmsd>  (2) 
0.15

>  <cluster>  (2) 
1

$$$$

     RDKit          3D

 51 54  0  0  0  0  0  0  0  0999 V2000
  141.4020   71.8310  221.5890 O   0  0  0  0  0  0  0  0  0  0  0  0
  140.5620   72.2500  222.4500 C   0  0  0  0  0  0  0  0  0  0  0  0
  139.8840   73.4680  222.1800 N   0  0  0  0  0  0  0  0  0  0  0  0
  140.2200   74.1330  220.9240 C   0  0  0  0  0  0  0  0  0  0  0  0
  140.8270   75.4650  221.1750 C   0  0  0  0  0  0  0  0  0  0  0  0
  140.5050   76.2190  222.1160 O   0  0  0  0  0  0  0  0  0  0  0  0
  141.8410   75.9130  220.2850 N   0  0  0  0  0  0  0  0  0  0  0  0
  143.1090   75.1700  220.2730 C   0  0  0  0  0  0  0  0  0  0  0  0
  143.2250   74.5490  218.8770 C   0  0  0  0  0  0  0  0  0  0  0  0
  142.7170   75.4890  217.8210 C   0  0  0  0  0  0  0  0  0  0  0  0
  142.7600   76.9260  218.3270 C   0  0  0  0  0  0  0  0  0  0  0  0
  141.7050   77.0400  219.4020 C   0  0  2  0  0  0  0  0  0  0  0  0
  141.7020   78.3510  220.0620 C   0  0  0  0  0  0  0  0  0  0  0  0
  141.8610   78.4740  221.4470 C   0  0  0  0  0  0  0  0  0  0  0  0
  141.8600   79.7010  222.0740 C   0  0  0  0  0  0  0  0  0  0  0  0
  142.0680   79.7160  223.8210 Cl  0  0  0  0  0  0  0  0  0  0  0  0
  141.6980   80.8710  221.3490 C   0  0  0  0  0  0  0  0  0  0  0  0
  141.5430   80.7340  219.9890 C   0  0  0  0  0  0  0  0  0  0  0  0
  141.3350   82.1950  219.0210 Cl  0  0  0  0  0  0  0  0  0  0  0  0
  141.5410   79.5230  219.3340 C   0  0  0  0  0  0  0  0  0  0  0  0
  140.3100   71.5000  223.6650 C   0  0  0  0  0  0  0  0  0  0  0  0
  139.5410   70.3530  223.6040 C   0  0  0  0  0  0  0  0  0  0  0  0
  139.2580   69.5870  224.7160 C   0  0  0  0  0  0  0  0  0  0  0  0
  139.7620   69.9850  225.9330 C   0  0  0  0  0  0  0  0  0  0  0  0
  139.4900   69.2330  227.0540 C   0  0  0  0  0  0  0  0  0  0  0  0
  139.9970   69.6400  228.2560 C   0  0  0  0  0  0  0  0  0  0  0  0
  140.7740   70.7930  228.3440 C   0  0  0  0  0  0  0  0  0  0  0  0
  141.0230   71.5220  227.1840 C   0  0  0  0  0  0  0  0  0  0  0  0
  140.5250   71.1350  225.9610 C   0  0  0  0  0  0  0  0  0  0  0  0
  140.7920   71.8710  224.8670 N   0  0  0  0  0  0  0  0  0  0  0  0
  139.1820   73.8580  222.8520 H   0  0  0  0  0  0  0  0  0  0  0  0
  140.9357   73.5103  220.3671 H   0  0  0  0  0  0  0  0  0  0  0  0
  139.2969   74.2716  220.3420 H   0  0  0  0  0  0  0  0  0  0  0  0
  143.9524   75.8513  220.4590 H   0  0  0  0  0  0  0  0  0  0  0  0
  143.1308   74.4000  221.0582 H   0  0  0  0  0  0  0  0  0  0  0  0
  144.2810   74.3177  218.6737 H   0  0  0  0  0  0  0  0  0  0  0  0
  142.6158   73.6335  218.8510 H   0  0  0  0  0  0  0  0  0  0  0  0
  143.3470   75.4013  216.9236 H   0  0  0  0  0  0  0  0  0  0  0  0
  141.6768   75.2261  217.5783 H   0  0  0  0  0  0  0  0  0  0  0  0
  143.7524   77.1513  218.7445 H   0  0  0  0  0  0  0  0  0  0  0  0
  142.5712   77.6385  217.5105 H   0  0  0  0  0  0  0  0  0  0  0  0
  140.7008   76.9967  218.9551 H   0  0  0  0  0  0  0  0  0  0  0  0
  141.9905   77.5649  222.0526 H   0  0  0  0  0  0  0  0  0  0  0  0
  141.6936   81.8575  221.8356 H   0  0  0  0  0  0  0  0  0  0  0  0
  141.4129   79.4839  218.2422 H   0  0  0  0  0  0  0  0  0  0  0  0
  139.1386   70.0384  222.6298 H   0  0  0  0  0  0  0  0  0  0  0  0
  138.6434   68.6786  224.6317 H   0  0  0  0  0  0  0  0  0  0  0  0
  138.8767   68.3226  226.9834 H   0  0  0  0  0  0  0  0  0  0  0  0
  139.7897   69.0519  229.1622 H   0  0  0  0  0  0  0  0  0  0  0  0
  141.1829   71.1211  229.3110 H   0  0  0  0  0  0  0  0  0  0  0  0
  141.6355   72.4335  227.2471 H   0  0  0  0  0  0  0  0  0  0  0  0
  1  2  2  0
  2  3  1  0
  3  4  1  0
  4  5  1  0
  5  6  2  0
  5  7  1  0
  7  8  1  0
  8  9  1  0
  9 10  1  0
 10 11  1  0
 11 12  1  0
 12 13  1  0
 13 14  2  0
 14 15  1  0
 15 16  1  0
 15 17  2  0
 17 18  1  0
 18 19  1  0
 18 20  2  0
  2 21  1  0
 21 22  2  0
 22 23  1  0
 23 24  2  0
 24 25  1  0
 25 26  2  0
 26 27  1  0
 27 28  2  0
 28 29  1  0
 29 30  2  0
 12  7  1  0
 20 13  1  0
 30 21  1  0
 29 24  1  0
  3 31  1  0
  4 32  1  0
  4 33  1  0
  8 34  1  0
  8 35  1  0
  9 36  1  0
  9 37  1  0
 10 38  1  0
 10 39  1  0
 11 40  1  0
 11 41  1  0
 12 42  1  6
 14 43  1  0
 17 44  1  0
 20 45  1  0
 22 46  1  0
 23 47  1  0
 25 48  1  0
 26 49  1  0
 27 50  1  0
 28 51  1  0
M  END
>  <smiles>  (3) 
O=C(NCC(=O)N1CCCCC1c1cc(Cl)cc(Cl)c1)c1ccc2ccccc2n1

>  <score_type>  (3) 
oracle

>  <origin>  (3) 
autodockgpu

>  <m_score__min__energy>  (3) 
-9.6699999999999999

>  <m_primary>  (3) 
energy

>  <rmsd>  (3) 
2.3090551403005297

>  <m_score__min__rmsd>  (3) 
2.3090551403005297

>  <meeko>  (3) 
{"free_energy": -9.38, "intermolecular_energy": -10.87, "internal_energy": -1.38, "cluster_size": 38, "cluster_id": 1, "rank_in_cluster": 22}

>  <energy>  (3) 
-9.65

>  <cluster_rmsd>  (3) 
0.23

>  <cluster>  (3) 
1

$$$$

     RDKit          3D

 51 54  0  0  0  0  0  0  0  0999 V2000
  141.4780   72.2840  221.7830 O   0  0  0  0  0  0  0  0  0  0  0  0
  140.4650   72.4380  222.5400 C   0  0  0  0  0  0  0  0  0  0  0  0
  139.5480   73.4750  222.2230 N   0  0  0  0  0  0  0  0  0  0  0  0
  139.8600   74.2770  221.0430 C   0  0  0  0  0  0  0  0  0  0  0  0
  140.7930   75.3810  221.3820 C   0  0  0  0  0  0  0  0  0  0  0  0
  140.7400   76.0470  222.4360 O   0  0  0  0  0  0  0  0  0  0  0  0
  141.8130   75.7020  220.4470 N   0  0  0  0  0  0  0  0  0  0  0  0
  143.0480   74.9050  220.4910 C   0  0  0  0  0  0  0  0  0  0  0  0
  143.1190   74.1570  219.1550 C   0  0  0  0  0  0  0  0  0  0  0  0
  142.6390   75.0190  218.0230 C   0  0  0  0  0  0  0  0  0  0  0  0
  142.7500   76.4930  218.3970 C   0  0  0  0  0  0  0  0  0  0  0  0
  141.7140   76.7500  219.4660 C   0  0  2  0  0  0  0  0  0  0  0  0
  141.7760   78.1130  220.0040 C   0  0  0  0  0  0  0  0  0  0  0  0
  141.7730   79.2320  219.1630 C   0  0  0  0  0  0  0  0  0  0  0  0
  141.8300   80.5170  219.6600 C   0  0  0  0  0  0  0  0  0  0  0  0
  141.8190   81.8350  218.4950 Cl  0  0  0  0  0  0  0  0  0  0  0  0
  141.8950   80.7500  221.0250 C   0  0  0  0  0  0  0  0  0  0  0  0
  141.8970   79.6410  221.8380 C   0  0  0  0  0  0  0  0  0  0  0  0
  141.9770   79.8850  223.5830 Cl  0  0  0  0  0  0  0  0  0  0  0  0
  141.8400   78.3470  221.3710 C   0  0  0  0  0  0  0  0  0  0  0  0
  140.2600   71.5760  223.6880 C   0  0  0  0  0  0  0  0  0  0  0  0
  139.5870   70.3800  223.5240 C   0  0  0  0  0  0  0  0  0  0  0  0
  139.3540   69.5080  224.5670 C   0  0  0  0  0  0  0  0  0  0  0  0
  139.8110   69.8470  225.8200 C   0  0  0  0  0  0  0  0  0  0  0  0
  139.5880   68.9890  226.8740 C   0  0  0  0  0  0  0  0  0  0  0  0
  140.0480   69.3380  228.1130 C   0  0  0  0  0  0  0  0  0  0  0  0
  140.7280   70.5380  228.3040 C   0  0  0  0  0  0  0  0  0  0  0  0
  140.9310   71.3740  227.2100 C   0  0  0  0  0  0  0  0  0  0  0  0
  140.4790   71.0480  225.9510 C   0  0  0  0  0  0  0  0  0  0  0  0
  140.6990   71.8870  224.9240 N   0  0  0  0  0  0  0  0  0  0  0  0
  138.6990   73.6450  222.8100 H   0  0  0  0  0  0  0  0  0  0  0  0
  140.3261   73.6327  220.2830 H   0  0  0  0  0  0  0  0  0  0  0  0
  138.9261   74.7128  220.6583 H   0  0  0  0  0  0  0  0  0  0  0  0
  143.9225   75.5621  220.6076 H   0  0  0  0  0  0  0  0  0  0  0  0
  143.0465   74.2082  221.3421 H   0  0  0  0  0  0  0  0  0  0  0  0
  144.1614   73.8619  218.9641 H   0  0  0  0  0  0  0  0  0  0  0  0
  142.4699   73.2711  219.2173 H   0  0  0  0  0  0  0  0  0  0  0  0
  143.2536   74.8234  217.1319 H   0  0  0  0  0  0  0  0  0  0  0  0
  141.5857   74.7811  217.8136 H   0  0  0  0  0  0  0  0  0  0  0  0
  143.7562   76.7109  218.7843 H   0  0  0  0  0  0  0  0  0  0  0  0
  142.5820   77.1367  217.5210 H   0  0  0  0  0  0  0  0  0  0  0  0
  140.7033   76.7108  219.0336 H   0  0  0  0  0  0  0  0  0  0  0  0
  141.7237   79.0820  218.0744 H   0  0  0  0  0  0  0  0  0  0  0  0
  141.9425   81.7691  221.4364 H   0  0  0  0  0  0  0  0  0  0  0  0
  141.8451   77.5034  222.0770 H   0  0  0  0  0  0  0  0  0  0  0  0
  139.2225   70.1127  222.5212 H   0  0  0  0  0  0  0  0  0  0  0  0
  138.8153   68.5634  224.4011 H   0  0  0  0  0  0  0  0  0  0  0  0
  139.0503   68.0415  226.7218 H   0  0  0  0  0  0  0  0  0  0  0  0
  139.8795   68.6650  228.9666 H   0  0  0  0  0  0  0  0  0  0  0  0
  141.0978   70.8199  229.3009 H   0  0  0  0  0  0  0  0  0  0  0  0
  141.4682   72.3228  227.3554 H   0  0  0  0  0  0  0  0  0  0  0  0
  1  2  2  0
  2  3  1  0
  3  4  1  0
  4  5  1  0
  5  6  2  0
  5  7  1  0
  7  8  1  0
  8  9  1  0
  9 10  1  0
 10 11  1  0
 11 12  1  0
 12 13  1  0
 13 14  2  0
 14 15  1  0
 15 16  1  0
 15 17  2  0
 17 18  1  0
 18 19  1  0
 18 20  2  0
  2 21  1  0
 21 22  2  0
 22 23  1  0
 23 24  2  0
 24 25  1  0
 25 26  2  0
 26 27  1  0
 27 28  2  0
 28 29  1  0
 29 30  2  0
 12  7  1  0
 20 13  1  0
 30 21  1  0
 29 24  1  0
  3 31  1  0
  4 32  1  0
  4 33  1  0
  8 34  1  0
  8 35  1  0
  9 36  1  0
  9 37  1  0
 10 38  1  0
 10 39  1  0
 11 40  1  0
 11 41  1  0
 12 42  1  6
 14 43  1  0
 17 44  1  0
 20 45  1  0
 22 46  1  0
 23 47  1  0
 25 48  1  0
 26 49  1  0
 27 50  1  0
 28 51  1  0
M  END
>  <smiles>  (4) 
O=C(NCC(=O)N1CCCCC1c1cc(Cl)cc(Cl)c1)c1ccc2ccccc2n1

>  <score_type>  (4) 
oracle

>  <origin>  (4) 
autodockgpu

>  <m_score__min__energy>  (4) 
-9.6699999999999999

>  <m_primary>  (4) 
energy

>  <rmsd>  (4) 
2.2897498750928347

>  <m_score__min__rmsd>  (4) 
2.2897498750928347

>  <meeko>  (4) 
{"free_energy": -9.46, "intermolecular_energy": -10.95, "internal_energy": -1.42, "cluster_size": 38, "cluster_id": 1, "rank_in_cluster": 11}

>  <energy>  (4) 
-9.64

>  <cluster_rmsd>  (4) 
0.28

>  <cluster>  (4) 
1

$$$$

     RDKit          3D

 51 54  0  0  0  0  0  0  0  0999 V2000
  139.9140   71.2970  221.2900 O   0  0  0  0  0  0  0  0  0  0  0  0
  139.7340   71.9310  222.3810 C   0  0  0  0  0  0  0  0  0  0  0  0
  139.3880   73.3070  222.3010 N   0  0  0  0  0  0  0  0  0  0  0  0
  139.2700   73.8690  220.9590 C   0  0  0  0  0  0  0  0  0  0  0  0
  139.4650   75.3410  220.9810 C   0  0  0  0  0  0  0  0  0  0  0  0
  138.5500   76.1690  221.1670 O   0  0  0  0  0  0  0  0  0  0  0  0
  140.7790   75.8420  220.7770 N   0  0  0  0  0  0  0  0  0  0  0  0
  141.8970   74.9020  220.9460 C   0  0  0  0  0  0  0  0  0  0  0  0
  142.5560   74.7730  219.5680 C   0  0  0  0  0  0  0  0  0  0  0  0
  142.5850   76.0940  218.8540 C   0  0  0  0  0  0  0  0  0  0  0  0
  142.4830   77.2390  219.8540 C   0  0  0  0  0  0  0  0  0  0  0  0
  141.0820   77.2020  220.4180 C   0  0  2  0  0  0  0  0  0  0  0  0
  140.8690   78.1890  221.4820 C   0  0  0  0  0  0  0  0  0  0  0  0
  139.5840   78.5260  221.9220 C   0  0  0  0  0  0  0  0  0  0  0  0
  139.3740   79.4520  222.9210 C   0  0  0  0  0  0  0  0  0  0  0  0
  137.7090   79.7840  223.3790 Cl  0  0  0  0  0  0  0  0  0  0  0  0
  140.4410   80.0910  223.5330 C   0  0  0  0  0  0  0  0  0  0  0  0
  141.6980   79.7500  223.0910 C   0  0  0  0  0  0  0  0  0  0  0  0
  143.0890   80.5360  223.8400 Cl  0  0  0  0  0  0  0  0  0  0  0  0
  141.9380   78.8290  222.0960 C   0  0  0  0  0  0  0  0  0  0  0  0
  139.8800   71.2630  223.6590 C   0  0  0  0  0  0  0  0  0  0  0  0
  139.5380   69.9280  223.7660 C   0  0  0  0  0  0  0  0  0  0  0  0
  139.6490   69.2240  224.9480 C   0  0  0  0  0  0  0  0  0  0  0  0
  140.1170   69.8820  226.0620 C   0  0  0  0  0  0  0  0  0  0  0  0
  140.2350   69.1960  227.2500 C   0  0  0  0  0  0  0  0  0  0  0  0
  140.7020   69.8610  228.3490 C   0  0  0  0  0  0  0  0  0  0  0  0
  141.0530   71.2070  228.2670 C   0  0  0  0  0  0  0  0  0  0  0  0
  140.9170   71.8600  227.0450 C   0  0  0  0  0  0  0  0  0  0  0  0
  140.4500   71.2150  225.9230 C   0  0  0  0  0  0  0  0  0  0  0  0
  140.3360   71.8870  224.7630 N   0  0  0  0  0  0  0  0  0  0  0  0
  139.2280   73.8750  223.1650 H   0  0  0  0  0  0  0  0  0  0  0  0
  140.0330   73.4145  220.3100 H   0  0  0  0  0  0  0  0  0  0  0  0
  138.2615   73.6541  220.5758 H   0  0  0  0  0  0  0  0  0  0  0  0
  142.6178   75.2939  221.6787 H   0  0  0  0  0  0  0  0  0  0  0  0
  141.5494   73.9269  221.3181 H   0  0  0  0  0  0  0  0  0  0  0  0
  143.5870   74.4115  219.6958 H   0  0  0  0  0  0  0  0  0  0  0  0
  141.9683   74.0644  218.9658 H   0  0  0  0  0  0  0  0  0  0  0  0
  143.5282   76.1836  218.2951 H   0  0  0  0  0  0  0  0  0  0  0  0
  141.7306   76.1457  218.1631 H   0  0  0  0  0  0  0  0  0  0  0  0
  143.2194   77.1046  220.6600 H   0  0  0  0  0  0  0  0  0  0  0  0
  142.6884   78.2053  219.3701 H   0  0  0  0  0  0  0  0  0  0  0  0
  140.3560   77.5168  219.6539 H   0  0  0  0  0  0  0  0  0  0  0  0
  138.7154   78.0372  221.4565 H   0  0  0  0  0  0  0  0  0  0  0  0
  140.2902   80.8327  224.3312 H   0  0  0  0  0  0  0  0  0  0  0  0
  142.9696   78.6015  221.7893 H   0  0  0  0  0  0  0  0  0  0  0  0
  139.1624   69.4059  222.8736 H   0  0  0  0  0  0  0  0  0  0  0  0
  139.3697   68.1612  224.9982 H   0  0  0  0  0  0  0  0  0  0  0  0
  139.9587   68.1331  227.3134 H   0  0  0  0  0  0  0  0  0  0  0  0
  140.8016   69.3290  229.3066 H   0  0  0  0  0  0  0  0  0  0  0  0
  141.4301   71.7431  229.1504 H   0  0  0  0  0  0  0  0  0  0  0  0
  141.1910   72.9230  226.9744 H   0  0  0  0  0  0  0  0  0  0  0  0
  1  2  2  0
  2  3  1  0
  3  4  1  0
  4  5  1  0
  5  6  2  0
  5  7  1  0
  7  8  1  0
  8  9  1  0
  9 10  1  0
 10 11  1  0
 11 12  1  0
 12 13  1  0
 13 14  2  0
 14 15  1  0
 15 16  1  0
 15 17  2  0
 17 18  1  0
 18 19  1  0
 18 20  2  0
  2 21  1  0
 21 22  2  0
 22 23  1  0
 23 24  2  0
 24 25  1  0
 25 26  2  0
 26 27  1  0
 27 28  2  0
 28 29  1  0
 29 30  2  0
 12  7  1  0
 20 13  1  0
 30 21  1  0
 29 24  1  0
  3 31  1  0
  4 32  1  0
  4 33  1  0
  8 34  1  0
  8 35  1  0
  9 36  1  0
  9 37  1  0
 10 38  1  0
 10 39  1  0
 11 40  1  0
 11 41  1  0
 12 42  1  6
 14 43  1  0
 17 44  1  0
 20 45  1  0
 22 46  1  0
 23 47  1  0
 25 48  1  0
 26 49  1  0
 27 50  1  0
 28 51  1  0
M  END
>  <smiles>  (5) 
O=C(NCC(=O)N1CCCCC1c1cc(Cl)cc(Cl)c1)c1ccc2ccccc2n1

>  <score_type>  (5) 
oracle

>  <origin>  (5) 
autodockgpu

>  <m_score__min__energy>  (5) 
-9.6699999999999999

>  <m_primary>  (5) 
energy

>  <rmsd>  (5) 
2.0633223298430683

>  <m_score__min__rmsd>  (5) 
2.0633223298430683

>  <meeko>  (5) 
{"free_energy": -9.45, "intermolecular_energy": -10.94, "internal_energy": -1.41, "cluster_size": 38, "cluster_id": 1, "rank_in_cluster": 14}

>  <energy>  (5) 
-9.62

>  <cluster_rmsd>  (5) 
0.42

>  <cluster>  (5) 
1

$$$$

     RDKit          3D

 51 54  0  0  0  0  0  0  0  0999 V2000
  140.9590   71.6370  221.4500 O   0  0  0  0  0  0  0  0  0  0  0  0
  140.2940   72.1280  222.4200 C   0  0  0  0  0  0  0  0  0  0  0  0
  139.6860   73.3980  222.2350 N   0  0  0  0  0  0  0  0  0  0  0  0
  139.8850   74.0280  220.9320 C   0  0  0  0  0  0  0  0  0  0  0  0
  139.8360   75.5080  221.0460 C   0  0  0  0  0  0  0  0  0  0  0  0
  138.8700   76.1460  221.5110 O   0  0  0  0  0  0  0  0  0  0  0  0
  140.9620   76.2480  220.5940 N   0  0  0  0  0  0  0  0  0  0  0  0
  142.2330   75.5240  220.4440 C   0  0  0  0  0  0  0  0  0  0  0  0
  142.5690   75.5630  218.9490 C   0  0  0  0  0  0  0  0  0  0  0  0
  142.2060   76.8890  218.3440 C   0  0  0  0  0  0  0  0  0  0  0  0
  142.1430   77.9630  219.4240 C   0  0  0  0  0  0  0  0  0  0  0  0
  140.9360   77.6510  220.2780 C   0  0  2  0  0  0  0  0  0  0  0  0
  140.8070   78.5470  221.4320 C   0  0  0  0  0  0  0  0  0  0  0  0
  141.9310   79.0900  222.0660 C   0  0  0  0  0  0  0  0  0  0  0  0
  141.8190   79.9340  223.1510 C   0  0  0  0  0  0  0  0  0  0  0  0
  143.3100   80.5470  223.8550 Cl  0  0  0  0  0  0  0  0  0  0  0  0
  140.5760   80.2770  223.6600 C   0  0  0  0  0  0  0  0  0  0  0  0
  139.4820   79.7360  223.0270 C   0  0  0  0  0  0  0  0  0  0  0  0
  137.8780   80.1440  223.6370 Cl  0  0  0  0  0  0  0  0  0  0  0  0
  139.5630   78.8920  221.9420 C   0  0  0  0  0  0  0  0  0  0  0  0
  140.1660   71.4060  223.6710 C   0  0  0  0  0  0  0  0  0  0  0  0
  139.5020   70.1930  223.6860 C   0  0  0  0  0  0  0  0  0  0  0  0
  139.3400   69.4480  224.8360 C   0  0  0  0  0  0  0  0  0  0  0  0
  139.8600   69.9370  226.0130 C   0  0  0  0  0  0  0  0  0  0  0  0
  139.7080   69.2070  227.1710 C   0  0  0  0  0  0  0  0  0  0  0  0
  140.2300   69.7040  228.3330 C   0  0  0  0  0  0  0  0  0  0  0  0
  140.9010   70.9240  228.3440 C   0  0  0  0  0  0  0  0  0  0  0  0
  141.0310   71.6270  227.1490 C   0  0  0  0  0  0  0  0  0  0  0  0
  140.5160   71.1510  225.9650 C   0  0  0  0  0  0  0  0  0  0  0  0
  140.6660   71.8650  224.8350 N   0  0  0  0  0  0  0  0  0  0  0  0
  139.1280   73.8470  222.9980 H   0  0  0  0  0  0  0  0  0  0  0  0
  140.8660   73.7297  220.5338 H   0  0  0  0  0  0  0  0  0  0  0  0
  139.0807   73.7007  220.2568 H   0  0  0  0  0  0  0  0  0  0  0  0
  143.0249   76.0176  221.0265 H   0  0  0  0  0  0  0  0  0  0  0  0
  142.1531   74.4903  220.8117 H   0  0  0  0  0  0  0  0  0  0  0  0
  143.6480   75.3931  218.8194 H   0  0  0  0  0  0  0  0  0  0  0  0
  141.9885   74.7785  218.4414 H   0  0  0  0  0  0  0  0  0  0  0  0
  142.9653   77.1679  217.5985 H   0  0  0  0  0  0  0  0  0  0  0  0
  141.2198   76.8056  217.8639 H   0  0  0  0  0  0  0  0  0  0  0  0
  143.0567   77.9390  220.0360 H   0  0  0  0  0  0  0  0  0  0  0  0
  142.0643   78.9662  218.9797 H   0  0  0  0  0  0  0  0  0  0  0  0
  140.0108   77.8516  219.7178 H   0  0  0  0  0  0  0  0  0  0  0  0
  142.9323   78.8362  221.6878 H   0  0  0  0  0  0  0  0  0  0  0  0
  140.4704   80.9474  224.5257 H   0  0  0  0  0  0  0  0  0  0  0  0
  138.6468   78.4933  221.4819 H   0  0  0  0  0  0  0  0  0  0  0  0
  139.0865   69.8067  222.7436 H   0  0  0  0  0  0  0  0  0  0  0  0
  138.8077   68.4857  224.8128 H   0  0  0  0  0  0  0  0  0  0  0  0
  139.1773   68.2435  227.1613 H   0  0  0  0  0  0  0  0  0  0  0  0
  140.1188   69.1348  229.2677 H   0  0  0  0  0  0  0  0  0  0  0  0
  141.3203   71.3248  229.2786 H   0  0  0  0  0  0  0  0  0  0  0  0
  141.5609   72.5910  227.1516 H   0  0  0  0  0  0  0  0  0  0  0  0
  1  2  2  0
  2  3  1  0
  3  4  1  0
  4  5  1  0
  5  6  2  0
  5  7  1  0
  7  8  1  0
  8  9  1  0
  9 10  1  0
 10 11  1  0
 11 12  1  0
 12 13  1  0
 13 14  2  0
 14 15  1  0
 15 16  1  0
 15 17  2  0
 17 18  1  0
 18 19  1  0
 18 20  2  0
  2 21  1  0
 21 22  2  0
 22 23  1  0
 23 24  2  0
 24 25  1  0
 25 26  2  0
 26 27  1  0
 27 28  2  0
 28 29  1  0
 29 30  2  0
 12  7  1  0
 20 13  1  0
 30 21  1  0
 29 24  1  0
  3 31  1  0
  4 32  1  0
  4 33  1  0
  8 34  1  0
  8 35  1  0
  9 36  1  0
  9 37  1  0
 10 38  1  0
 10 39  1  0
 11 40  1  0
 11 41  1  0
 12 42  1  6
 14 43  1  0
 17 44  1  0
 20 45  1  0
 22 46  1  0
 23 47  1  0
 25 48  1  0
 26 49  1  0
 27 50  1  0
 28 51  1  0
M  END
>  <smiles>  (6) 
O=C(NCC(=O)N1CCCCC1c1cc(Cl)cc(Cl)c1)c1ccc2ccccc2n1

>  <score_type>  (6) 
oracle

>  <origin>  (6) 
autodockgpu

>  <m_score__min__energy>  (6) 
-9.6699999999999999

>  <m_primary>  (6) 
energy

>  <rmsd>  (6) 
2.0915571661447574

>  <m_score__min__rmsd>  (6) 
2.0915571661447574

>  <meeko>  (6) 
{"free_energy": -9.55, "intermolecular_energy": -11.04, "internal_energy": -1.46, "cluster_size": 38, "cluster_id": 1, "rank_in_cluster": 6}

>  <energy>  (6) 
-9.55

>  <cluster_rmsd>  (6) 
0.41

>  <cluster>  (6) 
1

$$$$

     RDKit          3D

 51 54  0  0  0  0  0  0  0  0999 V2000
  141.3080   72.0670  221.6450 O   0  0  0  0  0  0  0  0  0  0  0  0
  140.4240   72.3560  222.5170 C   0  0  0  0  0  0  0  0  0  0  0  0
  139.6280   73.5130  222.2990 N   0  0  0  0  0  0  0  0  0  0  0  0
  139.9040   74.2690  221.0810 C   0  0  0  0  0  0  0  0  0  0  0  0
  140.7020   75.4850  221.3800 C   0  0  0  0  0  0  0  0  0  0  0  0
  140.5370   76.2040  222.3860 O   0  0  0  0  0  0  0  0  0  0  0  0
  141.7200   75.8560  220.4610 N   0  0  0  0  0  0  0  0  0  0  0  0
  142.9580   75.0630  220.4640 C   0  0  0  0  0  0  0  0  0  0  0  0
  143.0310   74.3830  219.0930 C   0  0  0  0  0  0  0  0  0  0  0  0
  142.5460   75.2980  218.0050 C   0  0  0  0  0  0  0  0  0  0  0  0
  142.6520   76.7520  218.4520 C   0  0  0  0  0  0  0  0  0  0  0  0
  141.6160   76.9510  219.5340 C   0  0  2  0  0  0  0  0  0  0  0  0
  141.6740   78.2860  220.1390 C   0  0  0  0  0  0  0  0  0  0  0  0
  141.8480   78.4590  221.5170 C   0  0  0  0  0  0  0  0  0  0  0  0
  141.9040   79.7100  222.0940 C   0  0  0  0  0  0  0  0  0  0  0  0
  142.1260   79.7870  223.8370 Cl  0  0  0  0  0  0  0  0  0  0  0  0
  141.7860   80.8550  221.3220 C   0  0  0  0  0  0  0  0  0  0  0  0
  141.6150   80.6700  219.9700 C   0  0  0  0  0  0  0  0  0  0  0  0
  141.4620   82.0970  218.9450 Cl  0  0  0  0  0  0  0  0  0  0  0  0
  141.5570   79.4340  219.3660 C   0  0  0  0  0  0  0  0  0  0  0  0
  140.2420   71.5260  223.6910 C   0  0  0  0  0  0  0  0  0  0  0  0
  139.5870   70.3150  223.5670 C   0  0  0  0  0  0  0  0  0  0  0  0
  139.3750   69.4710  224.6370 C   0  0  0  0  0  0  0  0  0  0  0  0
  139.8360   69.8540  225.8760 C   0  0  0  0  0  0  0  0  0  0  0  0
  139.6350   69.0240  226.9570 C   0  0  0  0  0  0  0  0  0  0  0  0
  140.0980   69.4160  228.1810 C   0  0  0  0  0  0  0  0  0  0  0  0
  140.7600   70.6320  228.3320 C   0  0  0  0  0  0  0  0  0  0  0  0
  140.9420   71.4390  227.2120 C   0  0  0  0  0  0  0  0  0  0  0  0
  140.4860   71.0680  225.9670 C   0  0  0  0  0  0  0  0  0  0  0  0
  140.6840   71.8810  224.9130 N   0  0  0  0  0  0  0  0  0  0  0  0
  138.8870   73.7960  222.9810 H   0  0  0  0  0  0  0  0  0  0  0  0
  140.4662   73.6325  220.3819 H   0  0  0  0  0  0  0  0  0  0  0  0
  138.9470   74.5781  220.6354 H   0  0  0  0  0  0  0  0  0  0  0  0
  143.8298   75.7171  220.6125 H   0  0  0  0  0  0  0  0  0  0  0  0
  142.9599   74.3245  221.2792 H   0  0  0  0  0  0  0  0  0  0  0  0
  144.0745   74.1025  218.8870 H   0  0  0  0  0  0  0  0  0  0  0  0
  142.3858   73.4923  219.1117 H   0  0  0  0  0  0  0  0  0  0  0  0
  143.1602   75.1492  217.1047 H   0  0  0  0  0  0  0  0  0  0  0  0
  141.4934   75.0665  217.7847 H   0  0  0  0  0  0  0  0  0  0  0  0
  143.6579   76.9542  218.8486 H   0  0  0  0  0  0  0  0  0  0  0  0
  142.4806   77.4382  217.6095 H   0  0  0  0  0  0  0  0  0  0  0  0
  140.6047   76.9292  219.1017 H   0  0  0  0  0  0  0  0  0  0  0  0
  141.9429   77.5706  222.1586 H   0  0  0  0  0  0  0  0  0  0  0  0
  141.8270   81.8598  221.7677 H   0  0  0  0  0  0  0  0  0  0  0  0
  141.4188   79.3562  218.2775 H   0  0  0  0  0  0  0  0  0  0  0  0
  139.2202   70.0124  222.5751 H   0  0  0  0  0  0  0  0  0  0  0  0
  138.8496   68.5139  224.5032 H   0  0  0  0  0  0  0  0  0  0  0  0
  139.1117   68.0640  226.8369 H   0  0  0  0  0  0  0  0  0  0  0  0
  139.9466   68.7655  229.0550 H   0  0  0  0  0  0  0  0  0  0  0  0
  141.1320   70.9489  229.3175 H   0  0  0  0  0  0  0  0  0  0  0  0
  141.4649   72.4001  227.3251 H   0  0  0  0  0  0  0  0  0  0  0  0
  1  2  2  0
  2  3  1  0
  3  4  1  0
  4  5  1  0
  5  6  2  0
  5  7  1  0
  7  8  1  0
  8  9  1  0
  9 10  1  0
 10 11  1  0
 11 12  1  0
 12 13  1  0
 13 14  2  0
 14 15  1  0
 15 16  1  0
 15 17  2  0
 17 18  1  0
 18 19  1  0
 18 20  2  0
  2 21  1  0
 21 22  2  0
 22 23  1  0
 23 24  2  0
 24 25  1  0
 25 26  2  0
 26 27  1  0
 27 28  2  0
 28 29  1  0
 29 30  2  0
 12  7  1  0
 20 13  1  0
 30 21  1  0
 29 24  1  0
  3 31  1  0
  4 32  1  0
  4 33  1  0
  8 34  1  0
  8 35  1  0
  9 36  1  0
  9 37  1  0
 10 38  1  0
 10 39  1  0
 11 40  1  0
 11 41  1  0
 12 42  1  6
 14 43  1  0
 17 44  1  0
 20 45  1  0
 22 46  1  0
 23 47  1  0
 25 48  1  0
 26 49  1  0
 27 50  1  0
 28 51  1  0
M  END
>  <smiles>  (7) 
O=C(NCC(=O)N1CCCCC1c1cc(Cl)cc(Cl)c1)c1ccc2ccccc2n1

>  <score_type>  (7) 
oracle

>  <origin>  (7) 
autodockgpu

>  <m_score__min__energy>  (7) 
-9.6699999999999999

>  <m_primary>  (7) 
energy

>  <rmsd>  (7) 
2.233792012351429

>  <m_score__min__rmsd>  (7) 
2.233792012351429

>  <meeko>  (7) 
{"free_energy": -9.5, "intermolecular_energy": -10.99, "internal_energy": -1.42, "cluster_size": 38, "cluster_id": 1, "rank_in_cluster": 8}

>  <energy>  (7) 
-9.54

>  <cluster_rmsd>  (7) 
0.4

>  <cluster>  (7) 
1

$$$$

     RDKit          3D

 51 54  0  0  0  0  0  0  0  0999 V2000
  141.1550   72.4770  221.9580 O   0  0  0  0  0  0  0  0  0  0  0  0
  140.1130   72.3520  222.6810 C   0  0  0  0  0  0  0  0  0  0  0  0
  138.9830   73.1520  222.3650 N   0  0  0  0  0  0  0  0  0  0  0  0
  139.1260   74.0540  221.2250 C   0  0  0  0  0  0  0  0  0  0  0  0
  139.4700   75.4270  221.6740 C   0  0  0  0  0  0  0  0  0  0  0  0
  138.7730   76.1060  222.4550 O   0  0  0  0  0  0  0  0  0  0  0  0
  140.6710   76.0070  221.1830 N   0  0  0  0  0  0  0  0  0  0  0  0
  141.8720   75.1600  221.1590 C   0  0  0  0  0  0  0  0  0  0  0  0
  142.2480   74.9970  219.6820 C   0  0  0  0  0  0  0  0  0  0  0  0
  142.0240   76.2720  218.9200 C   0  0  0  0  0  0  0  0  0  0  0  0
  142.0340   77.4640  219.8700 C   0  0  0  0  0  0  0  0  0  0  0  0
  140.7830   77.3610  220.7110 C   0  0  2  0  0  0  0  0  0  0  0  0
  140.7090   78.3910  221.7530 C   0  0  0  0  0  0  0  0  0  0  0  0
  141.8630   78.9800  222.2830 C   0  0  0  0  0  0  0  0  0  0  0  0
  141.8030   79.9500  223.2610 C   0  0  0  0  0  0  0  0  0  0  0  0
  143.3280   80.6080  223.8410 Cl  0  0  0  0  0  0  0  0  0  0  0  0
  140.5840   80.3800  223.7620 C   0  0  0  0  0  0  0  0  0  0  0  0
  139.4600   79.7920  223.2320 C   0  0  0  0  0  0  0  0  0  0  0  0
  137.8840   80.3070  223.8360 Cl  0  0  0  0  0  0  0  0  0  0  0  0
  139.4880   78.8230  222.2540 C   0  0  0  0  0  0  0  0  0  0  0  0
  140.0890   71.4190  223.7910 C   0  0  0  0  0  0  0  0  0  0  0  0
  139.5300   70.1680  223.6100 C   0  0  0  0  0  0  0  0  0  0  0  0
  139.4700   69.2270  224.6170 C   0  0  0  0  0  0  0  0  0  0  0  0
  139.9890   69.5510  225.8500 C   0  0  0  0  0  0  0  0  0  0  0  0
  139.9390   68.6250  226.8680 C   0  0  0  0  0  0  0  0  0  0  0  0
  140.4580   68.9600  228.0870 C   0  0  0  0  0  0  0  0  0  0  0  0
  141.0260   70.2150  228.2940 C   0  0  0  0  0  0  0  0  0  0  0  0
  141.0550   71.1200  227.2360 C   0  0  0  0  0  0  0  0  0  0  0  0
  140.5400   70.8080  225.9990 C   0  0  0  0  0  0  0  0  0  0  0  0
  140.5900   71.7150  225.0060 N   0  0  0  0  0  0  0  0  0  0  0  0
  138.1010   73.0890  222.9250 H   0  0  0  0  0  0  0  0  0  0  0  0
  139.9247   73.6796  220.5678 H   0  0  0  0  0  0  0  0  0  0  0  0
  138.1686   74.0911  220.6846 H   0  0  0  0  0  0  0  0  0  0  0  0
  142.6916   75.6441  221.7104 H   0  0  0  0  0  0  0  0  0  0  0  0
  141.6866   74.1864  221.6362 H   0  0  0  0  0  0  0  0  0  0  0  0
  143.3097   74.7184  219.6108 H   0  0  0  0  0  0  0  0  0  0  0  0
  141.6110   74.2138  219.2450 H   0  0  0  0  0  0  0  0  0  0  0  0
  142.8239   76.3949  218.1749 H   0  0  0  0  0  0  0  0  0  0  0  0
  141.0464   76.2222  218.4182 H   0  0  0  0  0  0  0  0  0  0  0  0
  142.9263   77.4291  220.5123 H   0  0  0  0  0  0  0  0  0  0  0  0
  142.0591   78.4126  219.3136 H   0  0  0  0  0  0  0  0  0  0  0  0
  139.8949   77.5782  220.0994 H   0  0  0  0  0  0  0  0  0  0  0  0
  142.8463   78.6596  221.9083 H   0  0  0  0  0  0  0  0  0  0  0  0
  140.5194   81.1517  224.5432 H   0  0  0  0  0  0  0  0  0  0  0  0
  138.5497   78.3941  221.8723 H   0  0  0  0  0  0  0  0  0  0  0  0
  139.1163   69.9124  222.6233 H   0  0  0  0  0  0  0  0  0  0  0  0
  139.0177   68.2403  224.4387 H   0  0  0  0  0  0  0  0  0  0  0  0
  139.4898   67.6345  226.7031 H   0  0  0  0  0  0  0  0  0  0  0  0
  140.4270   68.2326  228.9116 H   0  0  0  0  0  0  0  0  0  0  0  0
  141.4438   70.4861  229.2748 H   0  0  0  0  0  0  0  0  0  0  0  0
  141.5023   72.1125  227.3938 H   0  0  0  0  0  0  0  0  0  0  0  0
  1  2  2  0
  2  3  1  0
  3  4  1  0
  4  5  1  0
  5  6  2  0
  5  7  1  0
  7  8  1  0
  8  9  1  0
  9 10  1  0
 10 11  1  0
 11 12  1  0
 12 13  1  0
 13 14  2  0
 14 15  1  0
 15 16  1  0
 15 17  2  0
 17 18  1  0
 18 19  1  0
 18 20  2  0
  2 21  1  0
 21 22  2  0
 22 23  1  0
 23 24  2  0
 24 25  1  0
 25 26  2  0
 26 27  1  0
 27 28  2  0
 28 29  1  0
 29 30  2  0
 12  7  1  0
 20 13  1  0
 30 21  1  0
 29 24  1  0
  3 31  1  0
  4 32  1  0
  4 33  1  0
  8 34  1  0
  8 35  1  0
  9 36  1  0
  9 37  1  0
 10 38  1  0
 10 39  1  0
 11 40  1  0
 11 41  1  0
 12 42  1  6
 14 43  1  0
 17 44  1  0
 20 45  1  0
 22 46  1  0
 23 47  1  0
 25 48  1  0
 26 49  1  0
 27 50  1  0
 28 51  1  0
M  END
>  <smiles>  (8) 
O=C(NCC(=O)N1CCCCC1c1cc(Cl)cc(Cl)c1)c1ccc2ccccc2n1

>  <score_type>  (8) 
oracle

>  <origin>  (8) 
autodockgpu

>  <m_score__min__energy>  (8) 
-9.6699999999999999

>  <m_primary>  (8) 
energy

>  <rmsd>  (8) 
2.076532638446496

>  <m_score__min__rmsd>  (8) 
2.076532638446496

>  <meeko>  (8) 
{"free_energy": -9.65, "intermolecular_energy": -11.14, "internal_energy": -1.45, "cluster_size": 38, "cluster_id": 1, "rank_in_cluster": 3}

>  <energy>  (8) 
-9.5

>  <cluster_rmsd>  (8) 
1.46

>  <cluster>  (8) 
1

$$$$

     RDKit          3D

 51 54  0  0  0  0  0  0  0  0999 V2000
  140.1930   71.0260  221.4990 O   0  0  0  0  0  0  0  0  0  0  0  0
  140.0490   71.7250  222.5550 C   0  0  0  0  0  0  0  0  0  0  0  0
  139.7590   73.1070  222.4030 N   0  0  0  0  0  0  0  0  0  0  0  0
  139.6520   73.6010  221.0320 C   0  0  0  0  0  0  0  0  0  0  0  0
  139.8760   75.0680  220.9770 C   0  0  0  0  0  0  0  0  0  0  0  0
  139.3280   75.8920  221.7370 O   0  0  0  0  0  0  0  0  0  0  0  0
  140.7720   75.5680  219.9940 N   0  0  0  0  0  0  0  0  0  0  0  0
  140.2130   75.9110  218.6790 C   0  0  0  0  0  0  0  0  0  0  0  0
  140.3990   77.4240  218.5190 C   0  0  0  0  0  0  0  0  0  0  0  0
  141.7150   77.8730  219.0870 C   0  0  0  0  0  0  0  0  0  0  0  0
  142.6920   76.7050  219.1430 C   0  0  0  0  0  0  0  0  0  0  0  0
  142.1820   75.7600  220.2050 C   0  0  2  0  0  0  0  0  0  0  0  0
  142.9700   74.5260  220.2980 C   0  0  0  0  0  0  0  0  0  0  0  0
  142.4680   73.3000  219.8470 C   0  0  0  0  0  0  0  0  0  0  0  0
  143.2020   72.1370  219.9300 C   0  0  0  0  0  0  0  0  0  0  0  0
  142.4530   70.6630  219.3270 Cl  0  0  0  0  0  0  0  0  0  0  0  0
  144.4790   72.1380  220.4700 C   0  0  0  0  0  0  0  0  0  0  0  0
  144.9590   73.3500  220.9090 C   0  0  0  0  0  0  0  0  0  0  0  0
  146.5800   73.4030  221.6040 Cl  0  0  0  0  0  0  0  0  0  0  0  0
  144.2500   74.5280  220.8390 C   0  0  0  0  0  0  0  0  0  0  0  0
  140.1780   71.1220  223.8670 C   0  0  0  0  0  0  0  0  0  0  0  0
  140.6780   71.8780  224.9110 C   0  0  0  0  0  0  0  0  0  0  0  0
  140.8300   71.3740  226.1870 C   0  0  0  0  0  0  0  0  0  0  0  0
  140.4700   70.0680  226.4240 C   0  0  0  0  0  0  0  0  0  0  0  0
  140.6140   69.5480  227.6910 C   0  0  0  0  0  0  0  0  0  0  0  0
  140.2520   68.2490  227.9130 C   0  0  0  0  0  0  0  0  0  0  0  0
  139.7460   67.4670  226.8770 C   0  0  0  0  0  0  0  0  0  0  0  0
  139.6170   68.0350  225.6120 C   0  0  0  0  0  0  0  0  0  0  0  0
  139.9740   69.3400  225.3610 C   0  0  0  0  0  0  0  0  0  0  0  0
  139.8320   69.8450  224.1220 N   0  0  0  0  0  0  0  0  0  0  0  0
  139.6290   73.7280  223.2350 H   0  0  0  0  0  0  0  0  0  0  0  0
  140.4058   73.0982  220.4084 H   0  0  0  0  0  0  0  0  0  0  0  0
  138.6394   73.3865  220.6597 H   0  0  0  0  0  0  0  0  0  0  0  0
  140.7509   75.3741  217.8838 H   0  0  0  0  0  0  0  0  0  0  0  0
  139.1528   75.6268  218.6067 H   0  0  0  0  0  0  0  0  0  0  0  0
  140.3644   77.6786  217.4494 H   0  0  0  0  0  0  0  0  0  0  0  0
  139.5919   77.9337  219.0656 H   0  0  0  0  0  0  0  0  0  0  0  0
  142.1336   78.6662  218.4501 H   0  0  0  0  0  0  0  0  0  0  0  0
  141.5538   78.2543  220.1061 H   0  0  0  0  0  0  0  0  0  0  0  0
  142.7292   76.1954  218.1689 H   0  0  0  0  0  0  0  0  0  0  0  0
  143.7089   77.0520  219.3788 H   0  0  0  0  0  0  0  0  0  0  0  0
  142.3157   76.2027  221.2031 H   0  0  0  0  0  0  0  0  0  0  0  0
  141.4577   73.2638  219.4135 H   0  0  0  0  0  0  0  0  0  0  0  0
  145.0770   71.2177  220.5435 H   0  0  0  0  0  0  0  0  0  0  0  0
  144.6936   75.4642  221.2087 H   0  0  0  0  0  0  0  0  0  0  0  0
  140.9659   72.9218  224.7172 H   0  0  0  0  0  0  0  0  0  0  0  0
  141.2301   72.0028  226.9961 H   0  0  0  0  0  0  0  0  0  0  0  0
  141.0128   70.1663  228.5087 H   0  0  0  0  0  0  0  0  0  0  0  0
  140.3611   67.8170  228.9187 H   0  0  0  0  0  0  0  0  0  0  0  0
  139.4541   66.4214  227.0547 H   0  0  0  0  0  0  0  0  0  0  0  0
  139.2182   67.4227  224.7897 H   0  0  0  0  0  0  0  0  0  0  0  0
  1  2  2  0
  2  3  1  0
  3  4  1  0
  4  5  1  0
  5  6  2  0
  5  7  1  0
  7  8  1  0
  8  9  1  0
  9 10  1  0
 10 11  1  0
 11 12  1  0
 12 13  1  0
 13 14  2  0
 14 15  1  0
 15 16  1  0
 15 17  2  0
 17 18  1  0
 18 19  1  0
 18 20  2  0
  2 21  1  0
 21 22  2  0
 22 23  1  0
 23 24  2  0
 24 25  1  0
 25 26  2  0
 26 27  1  0
 27 28  2  0
 28 29  1  0
 29 30  2  0
 12  7  1  0
 20 13  1  0
 30 21  1  0
 29 24  1  0
  3 31  1  0
  4 32  1  0
  4 33  1  0
  8 34  1  0
  8 35  1  0
  9 36  1  0
  9 37  1  0
 10 38  1  0
 10 39  1  0
 11 40  1  0
 11 41  1  0
 12 42  1  1
 14 43  1  0
 17 44  1  0
 20 45  1  0
 22 46  1  0
 23 47  1  0
 25 48  1  0
 26 49  1  0
 27 50  1  0
 28 51  1  0
M  END
>  <smiles>  (9) 
O=C(NCC(=O)N1CCCCC1c1cc(Cl)cc(Cl)c1)c1ccc2ccccc2n1

>  <score_type>  (9) 
oracle

>  <origin>  (9) 
autodockgpu

>  <m_score__min__energy>  (9) 
-9.6699999999999999

>  <m_primary>  (9) 
energy

>  <rmsd>  (9) 
2.7146065539358015

>  <m_score__min__rmsd>  (9) 
2.7146065539358015

>  <meeko>  (9) 
{"free_energy": -8.51, "intermolecular_energy": -10.0, "internal_energy": -1.86, "cluster_size": 9, "cluster_id": 2, "rank_in_cluster": 9}

>  <energy>  (9) 
-9.5

>  <cluster_rmsd>  (9) 
0.45

>  <cluster>  (9) 
1

$$$$

     RDKit          3D

 51 54  0  0  0  0  0  0  0  0999 V2000
  141.0670   71.3570  221.6330 O   0  0  0  0  0  0  0  0  0  0  0  0
  140.3790   71.7260  222.6400 C   0  0  0  0  0  0  0  0  0  0  0  0
  139.8110   73.0280  222.6170 N   0  0  0  0  0  0  0  0  0  0  0  0
  140.0730   73.8280  221.4240 C   0  0  0  0  0  0  0  0  0  0  0  0
  140.1140   75.2760  221.7550 C   0  0  0  0  0  0  0  0  0  0  0  0
  139.4930   75.7990  222.7020 O   0  0  0  0  0  0  0  0  0  0  0  0
  140.9130   76.1220  220.9400 N   0  0  0  0  0  0  0  0  0  0  0  0
  142.2020   75.5920  220.4710 C   0  0  0  0  0  0  0  0  0  0  0  0
  142.0950   75.5020  218.9450 C   0  0  0  0  0  0  0  0  0  0  0  0
  141.3400   76.6730  218.3830 C   0  0  0  0  0  0  0  0  0  0  0  0
  141.3840   77.8460  219.3550 C   0  0  0  0  0  0  0  0  0  0  0  0
  140.5430   77.4550  220.5470 C   0  0  2  0  0  0  0  0  0  0  0  0
  140.5780   78.4530  221.6220 C   0  0  0  0  0  0  0  0  0  0  0  0
  139.4050   78.9340  222.2140 C   0  0  0  0  0  0  0  0  0  0  0  0
  139.4290   79.8710  223.2250 C   0  0  0  0  0  0  0  0  0  0  0  0
  137.8820   80.3920  223.8820 Cl  0  0  0  0  0  0  0  0  0  0  0  0
  140.6300   80.3790  223.6960 C   0  0  0  0  0  0  0  0  0  0  0  0
  141.7750   79.8970  223.1040 C   0  0  0  0  0  0  0  0  0  0  0  0
  143.3290   80.5110  223.6700 Cl  0  0  0  0  0  0  0  0  0  0  0  0
  141.7820   78.9610  222.0940 C   0  0  0  0  0  0  0  0  0  0  0  0
  140.1880   70.8400  223.7710 C   0  0  0  0  0  0  0  0  0  0  0  0
  139.4720   69.6700  223.5990 C   0  0  0  0  0  0  0  0  0  0  0  0
  139.2480   68.7770  224.6260 C   0  0  0  0  0  0  0  0  0  0  0  0
  139.7580   69.0670  225.8710 C   0  0  0  0  0  0  0  0  0  0  0  0
  139.5440   68.1870  226.9090 C   0  0  0  0  0  0  0  0  0  0  0  0
  140.0570   68.4870  228.1400 C   0  0  0  0  0  0  0  0  0  0  0  0
  140.7810   69.6610  228.3390 C   0  0  0  0  0  0  0  0  0  0  0  0
  140.9720   70.5210  227.2610 C   0  0  0  0  0  0  0  0  0  0  0  0
  140.4670   70.2430  226.0110 C   0  0  0  0  0  0  0  0  0  0  0  0
  140.6770   71.1040  224.9990 N   0  0  0  0  0  0  0  0  0  0  0  0
  139.2360   73.3820  223.4170 H   0  0  0  0  0  0  0  0  0  0  0  0
  141.0409   73.5290  220.9953 H   0  0  0  0  0  0  0  0  0  0  0  0
  139.2626   73.6557  220.7004 H   0  0  0  0  0  0  0  0  0  0  0  0
  143.0201   76.2695  220.7570 H   0  0  0  0  0  0  0  0  0  0  0  0
  142.4189   74.6102  220.9171 H   0  0  0  0  0  0  0  0  0  0  0  0
  143.1072   75.4878  218.5146 H   0  0  0  0  0  0  0  0  0  0  0  0
  141.5511   74.5811  218.6878 H   0  0  0  0  0  0  0  0  0  0  0  0
  141.7964   76.9750  217.4288 H   0  0  0  0  0  0  0  0  0  0  0  0
  140.2919   76.3798  218.2230 H   0  0  0  0  0  0  0  0  0  0  0  0
  142.4203   78.0390  219.6693 H   0  0  0  0  0  0  0  0  0  0  0  0
  141.0007   78.7636  218.8847 H   0  0  0  0  0  0  0  0  0  0  0  0
  139.4781   77.4395  220.2716 H   0  0  0  0  0  0  0  0  0  0  0  0
  138.4348   78.5532  221.8623 H   0  0  0  0  0  0  0  0  0  0  0  0
  140.6658   81.1281  224.5007 H   0  0  0  0  0  0  0  0  0  0  0  0
  142.7344   78.6178  221.6638 H   0  0  0  0  0  0  0  0  0  0  0  0
  139.0645   69.4421  222.6030 H   0  0  0  0  0  0  0  0  0  0  0  0
  138.6748   67.8541  224.4539 H   0  0  0  0  0  0  0  0  0  0  0  0
  138.9716   67.2611  226.7504 H   0  0  0  0  0  0  0  0  0  0  0  0
  139.8970   67.7959  228.9807 H   0  0  0  0  0  0  0  0  0  0  0  0
  141.1938   69.9036  229.3293 H   0  0  0  0  0  0  0  0  0  0  0  0
  141.5427   71.4491  227.4124 H   0  0  0  0  0  0  0  0  0  0  0  0
  1  2  2  0
  2  3  1  0
  3  4  1  0
  4  5  1  0
  5  6  2  0
  5  7  1  0
  7  8  1  0
  8  9  1  0
  9 10  1  0
 10 11  1  0
 11 12  1  0
 12 13  1  0
 13 14  2  0
 14 15  1  0
 15 16  1  0
 15 17  2  0
 17 18  1  0
 18 19  1  0
 18 20  2  0
  2 21  1  0
 21 22  2  0
 22 23  1  0
 23 24  2  0
 24 25  1  0
 25 26  2  0
 26 27  1  0
 27 28  2  0
 28 29  1  0
 29 30  2  0
 12  7  1  0
 20 13  1  0
 30 21  1  0
 29 24  1  0
  3 31  1  0
  4 32  1  0
  4 33  1  0
  8 34  1  0
  8 35  1  0
  9 36  1  0
  9 37  1  0
 10 38  1  0
 10 39  1  0
 11 40  1  0
 11 41  1  0
 12 42  1  6
 14 43  1  0
 17 44  1  0
 20 45  1  0
 22 46  1  0
 23 47  1  0
 25 48  1  0
 26 49  1  0
 27 50  1  0
 28 51  1  0
M  END
>  <smiles>  (10) 
O=C(NCC(=O)N1CCCCC1c1cc(Cl)cc(Cl)c1)c1ccc2ccccc2n1

>  <score_type>  (10) 
oracle

>  <origin>  (10) 
autodockgpu

>  <m_score__min__energy>  (10) 
-9.6699999999999999

>  <m_primary>  (10) 
energy

>  <rmsd>  (10) 
1.9963721687720275

>  <m_score__min__rmsd>  (10) 
1.9963721687720275

>  <meeko>  (10) 
{"free_energy": -9.45, "intermolecular_energy": -10.94, "internal_energy": -1.6, "cluster_size": 38, "cluster_id": 1, "rank_in_cluster": 15}

>  <energy>  (10) 
-9.49

>  <cluster_rmsd>  (10) 
1.46

>  <cluster>  (10) 
1

$$$$

     RDKit          3D

 51 54  0  0  0  0  0  0  0  0999 V2000
  140.9000   71.4040  221.3200 O   0  0  0  0  0  0  0  0  0  0  0  0
  140.3900   72.0230  222.3110 C   0  0  0  0  0  0  0  0  0  0  0  0
  139.9720   73.3660  222.1130 N   0  0  0  0  0  0  0  0  0  0  0  0
  140.1710   73.9170  220.7750 C   0  0  0  0  0  0  0  0  0  0  0  0
  140.5160   75.3590  220.8400 C   0  0  0  0  0  0  0  0  0  0  0  0
  141.6290   75.8310  220.5280 O   0  0  0  0  0  0  0  0  0  0  0  0
  139.5160   76.2640  221.2870 N   0  0  0  0  0  0  0  0  0  0  0  0
  138.2130   76.2240  220.6070 C   0  0  0  0  0  0  0  0  0  0  0  0
  137.1960   75.7750  221.6620 C   0  0  0  0  0  0  0  0  0  0  0  0
  137.4990   76.3820  223.0020 C   0  0  0  0  0  0  0  0  0  0  0  0
  138.3310   77.6470  222.8330 C   0  0  0  0  0  0  0  0  0  0  0  0
  139.6970   77.2100  222.3550 C   0  0  2  0  0  0  0  0  0  0  0  0
  140.5810   78.3380  222.0450 C   0  0  0  0  0  0  0  0  0  0  0  0
  141.2510   79.0420  223.0520 C   0  0  0  0  0  0  0  0  0  0  0  0
  142.0840   80.1030  222.7700 C   0  0  0  0  0  0  0  0  0  0  0  0
  142.8650   80.9020  224.1280 Cl  0  0  0  0  0  0  0  0  0  0  0  0
  142.2900   80.5180  221.4630 C   0  0  0  0  0  0  0  0  0  0  0  0
  141.6250   79.8170  220.4840 C   0  0  0  0  0  0  0  0  0  0  0  0
  141.8550   80.3060  218.8050 Cl  0  0  0  0  0  0  0  0  0  0  0  0
  140.7880   78.7530  220.7360 C   0  0  0  0  0  0  0  0  0  0  0  0
  140.2430   71.3700  223.5970 C   0  0  0  0  0  0  0  0  0  0  0  0
  139.5770   70.1600  223.6680 C   0  0  0  0  0  0  0  0  0  0  0  0
  139.3980   69.4780  224.8530 C   0  0  0  0  0  0  0  0  0  0  0  0
  139.9020   70.0290  226.0090 C   0  0  0  0  0  0  0  0  0  0  0  0
  139.7320   69.3630  227.2030 C   0  0  0  0  0  0  0  0  0  0  0  0
  140.2380   69.9200  228.3440 C   0  0  0  0  0  0  0  0  0  0  0  0
  140.9120   71.1390  228.2980 C   0  0  0  0  0  0  0  0  0  0  0  0
  141.0600   71.7760  227.0690 C   0  0  0  0  0  0  0  0  0  0  0  0
  140.5610   71.2380  225.9060 C   0  0  0  0  0  0  0  0  0  0  0  0
  140.7280   71.8900  224.7410 N   0  0  0  0  0  0  0  0  0  0  0  0
  139.5460   73.9210  222.8910 H   0  0  0  0  0  0  0  0  0  0  0  0
  140.9891   73.3733  220.2800 H   0  0  0  0  0  0  0  0  0  0  0  0
  139.2355   73.8055  220.2072 H   0  0  0  0  0  0  0  0  0  0  0  0
  137.9512   77.2217  220.2247 H   0  0  0  0  0  0  0  0  0  0  0  0
  138.2295   75.5379  219.7474 H   0  0  0  0  0  0  0  0  0  0  0  0
  136.1897   76.0873  221.3460 H   0  0  0  0  0  0  0  0  0  0  0  0
  137.2512   74.6803  221.7551 H   0  0  0  0  0  0  0  0  0  0  0  0
  136.5554   76.6332  223.5084 H   0  0  0  0  0  0  0  0  0  0  0  0
  138.0676   75.6572  223.6030 H   0  0  0  0  0  0  0  0  0  0  0  0
  137.8643   78.3109  222.0904 H   0  0  0  0  0  0  0  0  0  0  0  0
  138.4028   78.2019  223.7800 H   0  0  0  0  0  0  0  0  0  0  0  0
  140.2391   76.7009  223.1656 H   0  0  0  0  0  0  0  0  0  0  0  0
  141.1085   78.7394  224.0999 H   0  0  0  0  0  0  0  0  0  0  0  0
  142.9507   81.3637  221.2217 H   0  0  0  0  0  0  0  0  0  0  0  0
  140.2863   78.2349  219.9054 H   0  0  0  0  0  0  0  0  0  0  0  0
  139.1739   69.7242  222.7420 H   0  0  0  0  0  0  0  0  0  0  0  0
  138.8648   68.5161  224.8738 H   0  0  0  0  0  0  0  0  0  0  0  0
  139.1992   68.4013  227.2374 H   0  0  0  0  0  0  0  0  0  0  0  0
  140.1123   69.4020  229.3062 H   0  0  0  0  0  0  0  0  0  0  0  0
  141.3193   71.5892  229.2153 H   0  0  0  0  0  0  0  0  0  0  0  0
  141.5918   72.7380  227.0270 H   0  0  0  0  0  0  0  0  0  0  0  0
  1  2  2  0
  2  3  1  0
  3  4  1  0
  4  5  1  0
  5  6  2  0
  5  7  1  0
  7  8  1  0
  8  9  1  0
  9 10  1  0
 10 11  1  0
 11 12  1  0
 12 13  1  0
 13 14  2  0
 14 15  1  0
 15 16  1  0
 15 17  2  0
 17 18  1  0
 18 19  1  0
 18 20  2  0
  2 21  1  0
 21 22  2  0
 22 23  1  0
 23 24  2  0
 24 25  1  0
 25 26  2  0
 26 27  1  0
 27 28  2  0
 28 29  1  0
 29 30  2  0
 12  7  1  0
 20 13  1  0
 30 21  1  0
 29 24  1  0
  3 31  1  0
  4 32  1  0
  4 33  1  0
  8 34  1  0
  8 35  1  0
  9 36  1  0
  9 37  1  0
 10 38  1  0
 10 39  1  0
 11 40  1  0
 11 41  1  0
 12 42  1  1
 14 43  1  0
 17 44  1  0
 20 45  1  0
 22 46  1  0
 23 47  1  0
 25 48  1  0
 26 49  1  0
 27 50  1  0
 28 51  1  0
M  END
>  <smiles>  (11) 
O=C(NCC(=O)N1CCCCC1c1cc(Cl)cc(Cl)c1)c1ccc2ccccc2n1

>  <score_type>  (11) 
oracle

>  <origin>  (11) 
autodockgpu

>  <m_score__min__energy>  (11) 
-9.6699999999999999

>  <m_primary>  (11) 
energy

>  <rmsd>  (11) 
2.856125499561381

>  <m_score__min__rmsd>  (11) 
2.856125499561381

>  <meeko>  (11) 
{"free_energy": -9.23, "intermolecular_energy": -10.72, "internal_energy": -1.54, "cluster_size": 38, "cluster_id": 1, "rank_in_cluster": 34}

>  <energy>  (11) 
-9.46

>  <cluster_rmsd>  (11) 
1.55

>  <cluster>  (11) 
1

$$$$

     RDKit          3D

 51 54  0  0  0  0  0  0  0  0999 V2000
  141.3990   72.2280  221.7890 O   0  0  0  0  0  0  0  0  0  0  0  0
  140.3930   72.3870  222.5550 C   0  0  0  0  0  0  0  0  0  0  0  0
  139.4610   73.4070  222.2270 N   0  0  0  0  0  0  0  0  0  0  0  0
  139.7490   74.1870  221.0260 C   0  0  0  0  0  0  0  0  0  0  0  0
  140.5440   75.3960  221.3560 C   0  0  0  0  0  0  0  0  0  0  0  0
  140.2880   76.1700  222.3010 O   0  0  0  0  0  0  0  0  0  0  0  0
  141.6710   75.6950  220.5430 N   0  0  0  0  0  0  0  0  0  0  0  0
  142.8670   74.8550  220.7060 C   0  0  0  0  0  0  0  0  0  0  0  0
  143.0580   74.1250  219.3730 C   0  0  0  0  0  0  0  0  0  0  0  0
  142.7330   75.0200  218.2110 C   0  0  0  0  0  0  0  0  0  0  0  0
  142.8520   76.4830  218.6220 C   0  0  0  0  0  0  0  0  0  0  0  0
  141.7140   76.7600  219.5770 C   0  0  2  0  0  0  0  0  0  0  0  0
  141.7620   78.1130  220.1440 C   0  0  0  0  0  0  0  0  0  0  0  0
  141.8280   78.3260  221.5260 C   0  0  0  0  0  0  0  0  0  0  0  0
  141.8740   79.5930  222.0670 C   0  0  0  0  0  0  0  0  0  0  0  0
  141.9550   79.7210  223.8190 Cl  0  0  0  0  0  0  0  0  0  0  0  0
  141.8550   80.7150  221.2530 C   0  0  0  0  0  0  0  0  0  0  0  0
  141.7900   80.4900  219.8970 C   0  0  0  0  0  0  0  0  0  0  0  0
  141.7640   81.8860  218.8190 Cl  0  0  0  0  0  0  0  0  0  0  0  0
  141.7440   79.2370  219.3290 C   0  0  0  0  0  0  0  0  0  0  0  0
  140.2120   71.5490  223.7240 C   0  0  0  0  0  0  0  0  0  0  0  0
  139.5080   70.3650  223.6040 C   0  0  0  0  0  0  0  0  0  0  0  0
  139.2950   69.5150  224.6690 C   0  0  0  0  0  0  0  0  0  0  0  0
  139.8030   69.8640  225.8990 C   0  0  0  0  0  0  0  0  0  0  0  0
  139.6010   69.0280  226.9750 C   0  0  0  0  0  0  0  0  0  0  0  0
  140.1110   69.3870  228.1910 C   0  0  0  0  0  0  0  0  0  0  0  0
  140.8230   70.5760  228.3380 C   0  0  0  0  0  0  0  0  0  0  0  0
  141.0040   71.3890  227.2230 C   0  0  0  0  0  0  0  0  0  0  0  0
  140.5010   71.0520  225.9870 C   0  0  0  0  0  0  0  0  0  0  0  0
  140.7000   71.8700  224.9380 N   0  0  0  0  0  0  0  0  0  0  0  0
  138.6170   73.5810  222.8200 H   0  0  0  0  0  0  0  0  0  0  0  0
  140.3177   73.5640  220.3200 H   0  0  0  0  0  0  0  0  0  0  0  0
  138.7963   74.5052  220.5775 H   0  0  0  0  0  0  0  0  0  0  0  0
  143.7448   75.4795  220.9285 H   0  0  0  0  0  0  0  0  0  0  0  0
  142.7500   74.1464  221.5392 H   0  0  0  0  0  0  0  0  0  0  0  0
  144.1045   73.7963  219.2908 H   0  0  0  0  0  0  0  0  0  0  0  0
  142.3768   73.2617  219.3484 H   0  0  0  0  0  0  0  0  0  0  0  0
  143.4340   74.8158  217.3883 H   0  0  0  0  0  0  0  0  0  0  0  0
  141.7014   74.8224  217.8842 H   0  0  0  0  0  0  0  0  0  0  0  0
  143.8166   76.6595  219.1204 H   0  0  0  0  0  0  0  0  0  0  0  0
  142.8028   77.1454  217.7452 H   0  0  0  0  0  0  0  0  0  0  0  0
  140.7557   76.7624  219.0370 H   0  0  0  0  0  0  0  0  0  0  0  0
  141.8436   77.4568  222.2000 H   0  0  0  0  0  0  0  0  0  0  0  0
  141.8901   81.7325  221.6695 H   0  0  0  0  0  0  0  0  0  0  0  0
  141.6933   79.1268  218.2357 H   0  0  0  0  0  0  0  0  0  0  0  0
  139.1015   70.0900  222.6196 H   0  0  0  0  0  0  0  0  0  0  0  0
  138.7317   68.5793  224.5380 H   0  0  0  0  0  0  0  0  0  0  0  0
  139.0398   68.0892  226.8577 H   0  0  0  0  0  0  0  0  0  0  0  0
  139.9582   68.7318  229.0613 H   0  0  0  0  0  0  0  0  0  0  0  0
  141.2339   70.8662  229.3162 H   0  0  0  0  0  0  0  0  0  0  0  0
  141.5655   72.3285  227.3328 H   0  0  0  0  0  0  0  0  0  0  0  0
  1  2  2  0
  2  3  1  0
  3  4  1  0
  4  5  1  0
  5  6  2  0
  5  7  1  0
  7  8  1  0
  8  9  1  0
  9 10  1  0
 10 11  1  0
 11 12  1  0
 12 13  1  0
 13 14  2  0
 14 15  1  0
 15 16  1  0
 15 17  2  0
 17 18  1  0
 18 19  1  0
 18 20  2  0
  2 21  1  0
 21 22  2  0
 22 23  1  0
 23 24  2  0
 24 25  1  0
 25 26  2  0
 26 27  1  0
 27 28  2  0
 28 29  1  0
 29 30  2  0
 12  7  1  0
 20 13  1  0
 30 21  1  0
 29 24  1  0
  3 31  1  0
  4 32  1  0
  4 33  1  0
  8 34  1  0
  8 35  1  0
  9 36  1  0
  9 37  1  0
 10 38  1  0
 10 39  1  0
 11 40  1  0
 11 41  1  0
 12 42  1  6
 14 43  1  0
 17 44  1  0
 20 45  1  0
 22 46  1  0
 23 47  1  0
 25 48  1  0
 26 49  1  0
 27 50  1  0
 28 51  1  0
M  END
>  <smiles>  (12) 
O=C(NCC(=O)N1CCCCC1c1cc(Cl)cc(Cl)c1)c1ccc2ccccc2n1

>  <score_type>  (12) 
oracle

>  <origin>  (12) 
autodockgpu

>  <m_score__min__energy>  (12) 
-9.6699999999999999

>  <m_primary>  (12) 
energy

>  <rmsd>  (12) 
2.283531778945033

>  <m_score__min__rmsd>  (12) 
2.283531778945033

>  <meeko>  (12) 
{"free_energy": -9.45, "intermolecular_energy": -10.94, "internal_energy": -1.45, "cluster_size": 38, "cluster_id": 1, "rank_in_cluster": 16}

>  <energy>  (12) 
-9.46

>  <cluster_rmsd>  (12) 
0.5

>  <cluster>  (12) 
1

$$$$

     RDKit          3D

 51 54  0  0  0  0  0  0  0  0999 V2000
  140.6950   71.3850  221.3160 O   0  0  0  0  0  0  0  0  0  0  0  0
  140.2990   72.0170  222.3500 C   0  0  0  0  0  0  0  0  0  0  0  0
  139.9520   73.3870  222.2000 N   0  0  0  0  0  0  0  0  0  0  0  0
  140.0840   73.9460  220.8580 C   0  0  0  0  0  0  0  0  0  0  0  0
  140.4490   75.3840  220.9150 C   0  0  0  0  0  0  0  0  0  0  0  0
  141.5760   75.8360  220.6280 O   0  0  0  0  0  0  0  0  0  0  0  0
  139.4500   76.3090  221.3240 N   0  0  0  0  0  0  0  0  0  0  0  0
  138.1730   76.2930  220.5960 C   0  0  0  0  0  0  0  0  0  0  0  0
  137.1090   75.8650  221.6140 C   0  0  0  0  0  0  0  0  0  0  0  0
  137.3740   76.4680  222.9640 C   0  0  0  0  0  0  0  0  0  0  0  0
  138.2370   77.7170  222.8240 C   0  0  0  0  0  0  0  0  0  0  0  0
  139.6100   77.2520  222.3980 C   0  0  2  0  0  0  0  0  0  0  0  0
  140.5270   78.3630  222.1200 C   0  0  0  0  0  0  0  0  0  0  0  0
  140.7880   78.7870  220.8120 C   0  0  0  0  0  0  0  0  0  0  0  0
  141.6470   79.8300  220.5410 C   0  0  0  0  0  0  0  0  0  0  0  0
  141.8890   80.2610  218.8530 Cl  0  0  0  0  0  0  0  0  0  0  0  0
  142.2930   80.5040  221.5660 C   0  0  0  0  0  0  0  0  0  0  0  0
  142.0260   80.0770  222.8460 C   0  0  0  0  0  0  0  0  0  0  0  0
  142.8220   80.9040  224.1850 Cl  0  0  0  0  0  0  0  0  0  0  0  0
  141.1720   79.0390  223.1470 C   0  0  0  0  0  0  0  0  0  0  0  0
  140.2090   71.3530  223.6350 C   0  0  0  0  0  0  0  0  0  0  0  0
  139.6060   70.1110  223.7130 C   0  0  0  0  0  0  0  0  0  0  0  0
  139.4830   69.4170  224.8980 C   0  0  0  0  0  0  0  0  0  0  0  0
  139.9790   69.9880  226.0480 C   0  0  0  0  0  0  0  0  0  0  0  0
  139.8660   69.3090  227.2410 C   0  0  0  0  0  0  0  0  0  0  0  0
  140.3640   69.8880  228.3750 C   0  0  0  0  0  0  0  0  0  0  0  0
  140.9750   71.1390  228.3230 C   0  0  0  0  0  0  0  0  0  0  0  0
  141.0680   71.7870  227.0950 C   0  0  0  0  0  0  0  0  0  0  0  0
  140.5750   71.2280  225.9370 C   0  0  0  0  0  0  0  0  0  0  0  0
  140.6880   71.8920  224.7730 N   0  0  0  0  0  0  0  0  0  0  0  0
  139.6210   73.9530  223.0150 H   0  0  0  0  0  0  0  0  0  0  0  0
  140.8675   73.3971  220.3150 H   0  0  0  0  0  0  0  0  0  0  0  0
  139.1178   73.8496  220.3412 H   0  0  0  0  0  0  0  0  0  0  0  0
  137.9447   77.2949  220.2034 H   0  0  0  0  0  0  0  0  0  0  0  0
  138.2080   75.6056  219.7379 H   0  0  0  0  0  0  0  0  0  0  0  0
  136.1212   76.1960  221.2610 H   0  0  0  0  0  0  0  0  0  0  0  0
  137.1400   74.7696  221.7100 H   0  0  0  0  0  0  0  0  0  0  0  0
  136.4174   76.7385  223.4350 H   0  0  0  0  0  0  0  0  0  0  0  0
  137.9054   75.7332  223.5867 H   0  0  0  0  0  0  0  0  0  0  0  0
  137.8115   78.3883  222.0636 H   0  0  0  0  0  0  0  0  0  0  0  0
  138.2845   78.2728  223.7721 H   0  0  0  0  0  0  0  0  0  0  0  0
  140.1111   76.7327  223.2282 H   0  0  0  0  0  0  0  0  0  0  0  0
  140.2927   78.2724  219.9754 H   0  0  0  0  0  0  0  0  0  0  0  0
  142.9831   81.3369  221.3660 H   0  0  0  0  0  0  0  0  0  0  0  0
  141.0022   78.7476  224.1940 H   0  0  0  0  0  0  0  0  0  0  0  0
  139.2085   69.6585  222.7926 H   0  0  0  0  0  0  0  0  0  0  0  0
  138.9994   68.4293  224.9238 H   0  0  0  0  0  0  0  0  0  0  0  0
  139.3847   68.3207  227.2806 H   0  0  0  0  0  0  0  0  0  0  0  0
  140.2815   69.3613  229.3372 H   0  0  0  0  0  0  0  0  0  0  0  0
  141.3761   71.6054  229.2349 H   0  0  0  0  0  0  0  0  0  0  0  0
  141.5495   72.7749  227.0479 H   0  0  0  0  0  0  0  0  0  0  0  0
  1  2  2  0
  2  3  1  0
  3  4  1  0
  4  5  1  0
  5  6  2  0
  5  7  1  0
  7  8  1  0
  8  9  1  0
  9 10  1  0
 10 11  1  0
 11 12  1  0
 12 13  1  0
 13 14  2  0
 14 15  1  0
 15 16  1  0
 15 17  2  0
 17 18  1  0
 18 19  1  0
 18 20  2  0
  2 21  1  0
 21 22  2  0
 22 23  1  0
 23 24  2  0
 24 25  1  0
 25 26  2  0
 26 27  1  0
 27 28  2  0
 28 29  1  0
 29 30  2  0
 12  7  1  0
 20 13  1  0
 30 21  1  0
 29 24  1  0
  3 31  1  0
  4 32  1  0
  4 33  1  0
  8 34  1  0
  8 35  1  0
  9 36  1  0
  9 37  1  0
 10 38  1  0
 10 39  1  0
 11 40  1  0
 11 41  1  0
 12 42  1  1
 14 43  1  0
 17 44  1  0
 20 45  1  0
 22 46  1  0
 23 47  1  0
 25 48  1  0
 26 49  1  0
 27 50  1  0
 28 51  1  0
M  END
>  <smiles>  (13) 
O=C(NCC(=O)N1CCCCC1c1cc(Cl)cc(Cl)c1)c1ccc2ccccc2n1

>  <score_type>  (13) 
oracle

>  <origin>  (13) 
autodockgpu

>  <m_score__min__energy>  (13) 
-9.6699999999999999

>  <m_primary>  (13) 
energy

>  <rmsd>  (13) 
2.861295653664468

>  <m_score__min__rmsd>  (13) 
2.861295653664468

>  <meeko>  (13) 
{"free_energy": -9.25, "intermolecular_energy": -10.75, "internal_energy": -1.55, "cluster_size": 38, "cluster_id": 1, "rank_in_cluster": 31}

>  <energy>  (13) 
-9.45

>  <cluster_rmsd>  (13) 
1.43

>  <cluster>  (13) 
1

$$$$

     RDKit          3D

 51 54  0  0  0  0  0  0  0  0999 V2000
  141.2160   71.9940  221.6190 O   0  0  0  0  0  0  0  0  0  0  0  0
  140.2900   72.2200  222.4650 C   0  0  0  0  0  0  0  0  0  0  0  0
  139.3520   73.2450  222.1680 N   0  0  0  0  0  0  0  0  0  0  0  0
  139.5430   73.9510  220.9040 C   0  0  0  0  0  0  0  0  0  0  0  0
  140.3800   75.1630  221.0930 C   0  0  0  0  0  0  0  0  0  0  0  0
  140.4650   75.7990  222.1640 O   0  0  0  0  0  0  0  0  0  0  0  0
  141.1340   75.6320  219.9840 N   0  0  0  0  0  0  0  0  0  0  0  0
  140.4040   75.9120  218.7380 C   0  0  0  0  0  0  0  0  0  0  0  0
  140.5430   77.4180  218.4940 C   0  0  0  0  0  0  0  0  0  0  0  0
  141.9130   77.9060  218.8690 C   0  0  0  0  0  0  0  0  0  0  0  0
  142.9090   76.7530  218.8460 C   0  0  0  0  0  0  0  0  0  0  0  0
  142.5550   75.8480  220.0030 C   0  0  2  0  0  0  0  0  0  0  0  0
  143.3700   74.6290  220.0440 C   0  0  0  0  0  0  0  0  0  0  0  0
  143.0260   73.4940  219.3020 C   0  0  0  0  0  0  0  0  0  0  0  0
  143.7870   72.3440  219.3330 C   0  0  0  0  0  0  0  0  0  0  0  0
  143.2430   70.9880  218.3540 Cl  0  0  0  0  0  0  0  0  0  0  0  0
  144.9320   72.2700  220.1120 C   0  0  0  0  0  0  0  0  0  0  0  0
  145.2570   73.3940  220.8350 C   0  0  0  0  0  0  0  0  0  0  0  0
  146.7060   73.3490  221.8400 Cl  0  0  0  0  0  0  0  0  0  0  0  0
  144.5180   74.5550  220.8220 C   0  0  0  0  0  0  0  0  0  0  0  0
  140.2020   71.4510  223.6910 C   0  0  0  0  0  0  0  0  0  0  0  0
  139.5980   70.2070  223.6660 C   0  0  0  0  0  0  0  0  0  0  0  0
  139.4770   69.4170  224.7900 C   0  0  0  0  0  0  0  0  0  0  0  0
  139.9780   69.8890  225.9810 C   0  0  0  0  0  0  0  0  0  0  0  0
  139.8670   69.1140  227.1140 C   0  0  0  0  0  0  0  0  0  0  0  0
  140.3690   69.5950  228.2910 C   0  0  0  0  0  0  0  0  0  0  0  0
  140.9810   70.8450  228.3420 C   0  0  0  0  0  0  0  0  0  0  0  0
  141.0720   71.5940  227.1720 C   0  0  0  0  0  0  0  0  0  0  0  0
  140.5750   71.1340  225.9730 C   0  0  0  0  0  0  0  0  0  0  0  0
  140.6850   71.8930  224.8680 N   0  0  0  0  0  0  0  0  0  0  0  0
  138.5720   73.4720  222.8270 H   0  0  0  0  0  0  0  0  0  0  0  0
  140.0391   73.2792  220.1881 H   0  0  0  0  0  0  0  0  0  0  0  0
  138.5586   74.2606  220.5231 H   0  0  0  0  0  0  0  0  0  0  0  0
  140.8440   75.3476  217.9026 H   0  0  0  0  0  0  0  0  0  0  0  0
  139.3482   75.6129  218.8147 H   0  0  0  0  0  0  0  0  0  0  0  0
  140.3674   77.6263  217.4283 H   0  0  0  0  0  0  0  0  0  0  0  0
  139.8043   77.9412  219.1189 H   0  0  0  0  0  0  0  0  0  0  0  0
  142.2328   78.6763  218.1519 H   0  0  0  0  0  0  0  0  0  0  0  0
  141.8773   78.3282  219.8841 H   0  0  0  0  0  0  0  0  0  0  0  0
  142.8297   76.2029  217.8968 H   0  0  0  0  0  0  0  0  0  0  0  0
  143.9417   77.1214  218.9343 H   0  0  0  0  0  0  0  0  0  0  0  0
  142.8074   76.3337  220.9571 H   0  0  0  0  0  0  0  0  0  0  0  0
  142.1222   73.5194  218.6755 H   0  0  0  0  0  0  0  0  0  0  0  0
  145.5483   71.3596  220.1497 H   0  0  0  0  0  0  0  0  0  0  0  0
  144.8348   75.4192  221.4243 H   0  0  0  0  0  0  0  0  0  0  0  0
  139.1983   69.8329  222.7119 H   0  0  0  0  0  0  0  0  0  0  0  0
  138.9909   68.4318  224.7353 H   0  0  0  0  0  0  0  0  0  0  0  0
  139.3836   68.1268  227.0726 H   0  0  0  0  0  0  0  0  0  0  0  0
  140.2889   68.9895  229.2058 H   0  0  0  0  0  0  0  0  0  0  0  0
  141.3848   71.2331  229.2887 H   0  0  0  0  0  0  0  0  0  0  0  0
  141.5549   72.5818  227.2063 H   0  0  0  0  0  0  0  0  0  0  0  0
  1  2  2  0
  2  3  1  0
  3  4  1  0
  4  5  1  0
  5  6  2  0
  5  7  1  0
  7  8  1  0
  8  9  1  0
  9 10  1  0
 10 11  1  0
 11 12  1  0
 12 13  1  0
 13 14  2  0
 14 15  1  0
 15 16  1  0
 15 17  2  0
 17 18  1  0
 18 19  1  0
 18 20  2  0
  2 21  1  0
 21 22  2  0
 22 23  1  0
 23 24  2  0
 24 25  1  0
 25 26  2  0
 26 27  1  0
 27 28  2  0
 28 29  1  0
 29 30  2  0
 12  7  1  0
 20 13  1  0
 30 21  1  0
 29 24  1  0
  3 31  1  0
  4 32  1  0
  4 33  1  0
  8 34  1  0
  8 35  1  0
  9 36  1  0
  9 37  1  0
 10 38  1  0
 10 39  1  0
 11 40  1  0
 11 41  1  0
 12 42  1  1
 14 43  1  0
 17 44  1  0
 20 45  1  0
 22 46  1  0
 23 47  1  0
 25 48  1  0
 26 49  1  0
 27 50  1  0
 28 51  1  0
M  END
>  <smiles>  (14) 
O=C(NCC(=O)N1CCCCC1c1cc(Cl)cc(Cl)c1)c1ccc2ccccc2n1

>  <score_type>  (14) 
oracle

>  <origin>  (14) 
autodockgpu

>  <m_score__min__energy>  (14) 
-9.6699999999999999

>  <m_primary>  (14) 
energy

>  <rmsd>  (14) 
1.681054881573797

>  <m_score__min__rmsd>  (14) 
1.681054881573797

>  <meeko>  (14) 
{"free_energy": -9.12, "intermolecular_energy": -10.61, "internal_energy": -1.88, "cluster_size": 9, "cluster_id": 2, "rank_in_cluster": 3}

>  <energy>  (14) 
-9.45

>  <cluster_rmsd>  (14) 
0.58

>  <cluster>  (14) 
1

$$$$

     RDKit          3D

 51 54  0  0  0  0  0  0  0  0999 V2000
  139.0550   72.9050  222.1390 O   0  0  0  0  0  0  0  0  0  0  0  0
  140.1210   72.3690  222.5870 C   0  0  0  0  0  0  0  0  0  0  0  0
  141.3380   72.6400  221.9080 N   0  0  0  0  0  0  0  0  0  0  0  0
  141.2500   73.5190  220.7450 C   0  0  0  0  0  0  0  0  0  0  0  0
  141.0810   74.9340  221.1610 C   0  0  0  0  0  0  0  0  0  0  0  0
  140.3400   75.3100  222.0930 O   0  0  0  0  0  0  0  0  0  0  0  0
  141.8080   75.9290  220.4530 N   0  0  0  0  0  0  0  0  0  0  0  0
  143.2010   75.6230  220.0950 C   0  0  0  0  0  0  0  0  0  0  0  0
  143.2480   75.5860  218.5640 C   0  0  0  0  0  0  0  0  0  0  0  0
  142.3740   76.6510  217.9670 C   0  0  0  0  0  0  0  0  0  0  0  0
  142.1460   77.7730  218.9730 C   0  0  0  0  0  0  0  0  0  0  0  0
  141.2710   77.2060  220.0670 C   0  0  2  0  0  0  0  0  0  0  0  0
  141.0530   78.1490  221.1690 C   0  0  0  0  0  0  0  0  0  0  0  0
  142.1170   78.8320  221.7700 C   0  0  0  0  0  0  0  0  0  0  0  0
  141.9220   79.7200  222.8050 C   0  0  0  0  0  0  0  0  0  0  0  0
  143.3450   80.5120  223.4710 Cl  0  0  0  0  0  0  0  0  0  0  0  0
  140.6500   79.9700  223.2970 C   0  0  0  0  0  0  0  0  0  0  0  0
  139.6150   79.2920  222.6980 C   0  0  0  0  0  0  0  0  0  0  0  0
  137.9770   79.5770  223.2870 Cl  0  0  0  0  0  0  0  0  0  0  0  0
  139.7790   78.4000  221.6610 C   0  0  0  0  0  0  0  0  0  0  0  0
  140.0840   71.5100  223.7550 C   0  0  0  0  0  0  0  0  0  0  0  0
  139.4880   70.2660  223.6600 C   0  0  0  0  0  0  0  0  0  0  0  0
  139.4140   69.3940  224.7260 C   0  0  0  0  0  0  0  0  0  0  0  0
  139.9550   69.7820  225.9300 C   0  0  0  0  0  0  0  0  0  0  0  0
  139.8910   68.9240  227.0060 C   0  0  0  0  0  0  0  0  0  0  0  0
  140.4320   69.3220  228.1960 C   0  0  0  0  0  0  0  0  0  0  0  0
  141.0370   70.5710  228.3170 C   0  0  0  0  0  0  0  0  0  0  0  0
  141.0790   71.4050  227.2030 C   0  0  0  0  0  0  0  0  0  0  0  0
  140.5420   71.0300  225.9930 C   0  0  0  0  0  0  0  0  0  0  0  0
  140.6060   71.8690  224.9440 N   0  0  0  0  0  0  0  0  0  0  0  0
  142.2430   72.2270  222.2340 H   0  0  0  0  0  0  0  0  0  0  0  0
  142.1721   73.4256  220.1526 H   0  0  0  0  0  0  0  0  0  0  0  0
  140.3763   73.2224  220.1460 H   0  0  0  0  0  0  0  0  0  0  0  0
  143.8741   76.4037  220.4788 H   0  0  0  0  0  0  0  0  0  0  0  0
  143.5270   74.6668  220.5303 H   0  0  0  0  0  0  0  0  0  0  0  0
  144.2848   75.7458  218.2331 H   0  0  0  0  0  0  0  0  0  0  0  0
  142.8799   74.6053  218.2283 H   0  0  0  0  0  0  0  0  0  0  0  0
  142.8623   77.0609  217.0706 H   0  0  0  0  0  0  0  0  0  0  0  0
  141.4035   76.2085  217.6982 H   0  0  0  0  0  0  0  0  0  0  0  0
  143.1067   78.1077  219.3915 H   0  0  0  0  0  0  0  0  0  0  0  0
  141.6685   78.6411  218.4952 H   0  0  0  0  0  0  0  0  0  0  0  0
  140.2504   77.0408  219.6913 H   0  0  0  0  0  0  0  0  0  0  0  0
  143.1393   78.6543  221.4049 H   0  0  0  0  0  0  0  0  0  0  0  0
  140.4779   80.6746  224.1240 H   0  0  0  0  0  0  0  0  0  0  0  0
  138.9068   77.8902  221.2258 H   0  0  0  0  0  0  0  0  0  0  0  0
  139.0557   69.9596  222.6960 H   0  0  0  0  0  0  0  0  0  0  0  0
  138.9334   68.4107  224.6161 H   0  0  0  0  0  0  0  0  0  0  0  0
  139.4137   67.9377  226.9090 H   0  0  0  0  0  0  0  0  0  0  0  0
  140.3894   68.6503  229.0660 H   0  0  0  0  0  0  0  0  0  0  0  0
  141.4732   70.8921  229.2744 H   0  0  0  0  0  0  0  0  0  0  0  0
  141.5553   72.3924  227.2928 H   0  0  0  0  0  0  0  0  0  0  0  0
  1  2  2  0
  2  3  1  0
  3  4  1  0
  4  5  1  0
  5  6  2  0
  5  7  1  0
  7  8  1  0
  8  9  1  0
  9 10  1  0
 10 11  1  0
 11 12  1  0
 12 13  1  0
 13 14  2  0
 14 15  1  0
 15 16  1  0
 15 17  2  0
 17 18  1  0
 18 19  1  0
 18 20  2  0
  2 21  1  0
 21 22  2  0
 22 23  1  0
 23 24  2  0
 24 25  1  0
 25 26  2  0
 26 27  1  0
 27 28  2  0
 28 29  1  0
 29 30  2  0
 12  7  1  0
 20 13  1  0
 30 21  1  0
 29 24  1  0
  3 31  1  0
  4 32  1  0
  4 33  1  0
  8 34  1  0
  8 35  1  0
  9 36  1  0
  9 37  1  0
 10 38  1  0
 10 39  1  0
 11 40  1  0
 11 41  1  0
 12 42  1  6
 14 43  1  0
 17 44  1  0
 20 45  1  0
 22 46  1  0
 23 47  1  0
 25 48  1  0
 26 49  1  0
 27 50  1  0
 28 51  1  0
M  END
>  <smiles>  (15) 
O=C(NCC(=O)N1CCCCC1c1cc(Cl)cc(Cl)c1)c1ccc2ccccc2n1

>  <score_type>  (15) 
oracle

>  <origin>  (15) 
autodockgpu

>  <m_score__min__energy>  (15) 
-9.6699999999999999

>  <m_primary>  (15) 
energy

>  <rmsd>  (15) 
2.4315270754209313

>  <m_score__min__rmsd>  (15) 
2.4315270754209313

>  <meeko>  (15) 
{"free_energy": -9.35, "intermolecular_energy": -10.84, "internal_energy": -1.38, "cluster_size": 38, "cluster_id": 1, "rank_in_cluster": 25}

>  <energy>  (15) 
-9.45

>  <cluster_rmsd>  (15) 
0.61

>  <cluster>  (15) 
1

$$$$

     RDKit          3D

 51 54  0  0  0  0  0  0  0  0999 V2000
  141.4410   72.4970  221.7290 O   0  0  0  0  0  0  0  0  0  0  0  0
  140.4160   72.6210  222.4770 C   0  0  0  0  0  0  0  0  0  0  0  0
  139.5150   73.6830  222.1990 N   0  0  0  0  0  0  0  0  0  0  0  0
  139.8540   74.5420  221.0680 C   0  0  0  0  0  0  0  0  0  0  0  0
  140.8980   75.5290  221.4450 C   0  0  0  0  0  0  0  0  0  0  0  0
  141.0100   76.0350  222.5800 O   0  0  0  0  0  0  0  0  0  0  0  0
  141.8300   75.9250  220.4490 N   0  0  0  0  0  0  0  0  0  0  0  0
  143.0870   75.1680  220.3580 C   0  0  0  0  0  0  0  0  0  0  0  0
  143.0730   74.4840  218.9860 C   0  0  0  0  0  0  0  0  0  0  0  0
  142.4790   75.3810  217.9380 C   0  0  0  0  0  0  0  0  0  0  0  0
  142.5770   76.8390  218.3720 C   0  0  0  0  0  0  0  0  0  0  0  0
  141.6230   77.0130  219.5310 C   0  0  2  0  0  0  0  0  0  0  0  0
  141.6890   78.3520  220.1270 C   0  0  0  0  0  0  0  0  0  0  0  0
  141.8530   78.5320  221.5050 C   0  0  0  0  0  0  0  0  0  0  0  0
  141.9160   79.7860  222.0740 C   0  0  0  0  0  0  0  0  0  0  0  0
  142.1240   79.8740  223.8190 Cl  0  0  0  0  0  0  0  0  0  0  0  0
  141.8170   80.9280  221.2930 C   0  0  0  0  0  0  0  0  0  0  0  0
  141.6560   80.7340  219.9410 C   0  0  0  0  0  0  0  0  0  0  0  0
  141.5250   82.1560  218.9040 Cl  0  0  0  0  0  0  0  0  0  0  0  0
  141.5900   79.4950  219.3450 C   0  0  0  0  0  0  0  0  0  0  0  0
  140.1850   71.7030  223.5740 C   0  0  0  0  0  0  0  0  0  0  0  0
  139.3990   70.5850  223.3650 C   0  0  0  0  0  0  0  0  0  0  0  0
  139.1330   69.6660  224.3590 C   0  0  0  0  0  0  0  0  0  0  0  0
  139.6730   69.8750  225.6080 C   0  0  0  0  0  0  0  0  0  0  0  0
  139.4190   68.9680  226.6130 C   0  0  0  0  0  0  0  0  0  0  0  0
  139.9610   69.1880  227.8480 C   0  0  0  0  0  0  0  0  0  0  0  0
  140.7560   70.3080  228.0840 C   0  0  0  0  0  0  0  0  0  0  0  0
  140.9860   71.1980  227.0380 C   0  0  0  0  0  0  0  0  0  0  0  0
  140.4520   71.0010  225.7850 C   0  0  0  0  0  0  0  0  0  0  0  0
  140.7020   71.8870  224.8040 N   0  0  0  0  0  0  0  0  0  0  0  0
  138.6570   73.8300  222.7800 H   0  0  0  0  0  0  0  0  0  0  0  0
  140.2289   73.9191  220.2425 H   0  0  0  0  0  0  0  0  0  0  0  0
  138.9505   75.0877  220.7585 H   0  0  0  0  0  0  0  0  0  0  0  0
  143.9484   75.8475  220.4371 H   0  0  0  0  0  0  0  0  0  0  0  0
  143.1737   74.4336  221.1723 H   0  0  0  0  0  0  0  0  0  0  0  0
  144.1049   74.2324  218.7000 H   0  0  0  0  0  0  0  0  0  0  0  0
  142.4574   73.5751  219.0562 H   0  0  0  0  0  0  0  0  0  0  0  0
  143.0255   75.2462  216.9929 H   0  0  0  0  0  0  0  0  0  0  0  0
  141.4195   75.1188  217.8014 H   0  0  0  0  0  0  0  0  0  0  0  0
  143.6044   77.0719  218.6886 H   0  0  0  0  0  0  0  0  0  0  0  0
  142.3206   77.5161  217.5438 H   0  0  0  0  0  0  0  0  0  0  0  0
  140.5822   76.9607  219.1789 H   0  0  0  0  0  0  0  0  0  0  0  0
  141.9340   77.6469  222.1531 H   0  0  0  0  0  0  0  0  0  0  0  0
  141.8647   81.9356  221.7318 H   0  0  0  0  0  0  0  0  0  0  0  0
  141.4596   79.4109  218.2560 H   0  0  0  0  0  0  0  0  0  0  0  0
  138.9684   70.4216  222.3660 H   0  0  0  0  0  0  0  0  0  0  0  0
  138.5038   68.7864  224.1581 H   0  0  0  0  0  0  0  0  0  0  0  0
  138.7921   68.0838  226.4252 H   0  0  0  0  0  0  0  0  0  0  0  0
  139.7681   68.4748  228.6630 H   0  0  0  0  0  0  0  0  0  0  0  0
  141.1935   70.4856  229.0775 H   0  0  0  0  0  0  0  0  0  0  0  0
  141.6125   72.0840  227.2184 H   0  0  0  0  0  0  0  0  0  0  0  0
  1  2  2  0
  2  3  1  0
  3  4  1  0
  4  5  1  0
  5  6  2  0
  5  7  1  0
  7  8  1  0
  8  9  1  0
  9 10  1  0
 10 11  1  0
 11 12  1  0
 12 13  1  0
 13 14  2  0
 14 15  1  0
 15 16  1  0
 15 17  2  0
 17 18  1  0
 18 19  1  0
 18 20  2  0
  2 21  1  0
 21 22  2  0
 22 23  1  0
 23 24  2  0
 24 25  1  0
 25 26  2  0
 26 27  1  0
 27 28  2  0
 28 29  1  0
 29 30  2  0
 12  7  1  0
 20 13  1  0
 30 21  1  0
 29 24  1  0
  3 31  1  0
  4 32  1  0
  4 33  1  0
  8 34  1  0
  8 35  1  0
  9 36  1  0
  9 37  1  0
 10 38  1  0
 10 39  1  0
 11 40  1  0
 11 41  1  0
 12 42  1  6
 14 43  1  0
 17 44  1  0
 20 45  1  0
 22 46  1  0
 23 47  1  0
 25 48  1  0
 26 49  1  0
 27 50  1  0
 28 51  1  0
M  END
>  <smiles>  (16) 
O=C(NCC(=O)N1CCCCC1c1cc(Cl)cc(Cl)c1)c1ccc2ccccc2n1

>  <score_type>  (16) 
oracle

>  <origin>  (16) 
autodockgpu

>  <m_score__min__energy>  (16) 
-9.6699999999999999

>  <m_primary>  (16) 
energy

>  <rmsd>  (16) 
2.2700680570832925

>  <m_score__min__rmsd>  (16) 
2.2700680570832925

>  <meeko>  (16) 
{"free_energy": -9.24, "intermolecular_energy": -10.73, "internal_energy": -1.46, "cluster_size": 38, "cluster_id": 1, "rank_in_cluster": 33}

>  <energy>  (16) 
-9.45

>  <cluster_rmsd>  (16) 
1.45

>  <cluster>  (16) 
1

$$$$

     RDKit          3D

 51 54  0  0  0  0  0  0  0  0999 V2000
  141.3510   71.8740  221.7690 O   0  0  0  0  0  0  0  0  0  0  0  0
  140.4180   72.0790  222.6120 C   0  0  0  0  0  0  0  0  0  0  0  0
  139.5540   73.1850  222.3940 N   0  0  0  0  0  0  0  0  0  0  0  0
  139.8210   73.9920  221.2070 C   0  0  0  0  0  0  0  0  0  0  0  0
  140.2660   75.3580  221.5830 C   0  0  0  0  0  0  0  0  0  0  0  0
  141.4510   75.6710  221.8200 O   0  0  0  0  0  0  0  0  0  0  0  0
  139.2800   76.3760  221.6800 N   0  0  0  0  0  0  0  0  0  0  0  0
  138.1160   76.2810  220.7870 C   0  0  0  0  0  0  0  0  0  0  0  0
  136.8990   76.0770  221.6950 C   0  0  0  0  0  0  0  0  0  0  0  0
  137.0130   76.8970  222.9490 C   0  0  0  0  0  0  0  0  0  0  0  0
  137.9620   78.0690  222.7290 C   0  0  0  0  0  0  0  0  0  0  0  0
  139.3490   77.4870  222.5920 C   0  0  2  0  0  0  0  0  0  0  0  0
  140.3620   78.4970  222.2680 C   0  0  0  0  0  0  0  0  0  0  0  0
  140.6430   78.8540  220.9440 C   0  0  0  0  0  0  0  0  0  0  0  0
  141.5930   79.8020  220.6310 C   0  0  0  0  0  0  0  0  0  0  0  0
  141.8480   80.1590  218.9270 Cl  0  0  0  0  0  0  0  0  0  0  0  0
  142.3140   80.4430  221.6260 C   0  0  0  0  0  0  0  0  0  0  0  0
  142.0280   80.0810  222.9220 C   0  0  0  0  0  0  0  0  0  0  0  0
  142.9190   80.8680  224.2250 Cl  0  0  0  0  0  0  0  0  0  0  0  0
  141.0840   79.1390  223.2650 C   0  0  0  0  0  0  0  0  0  0  0  0
  140.2500   71.2060  223.7570 C   0  0  0  0  0  0  0  0  0  0  0  0
  139.5630   70.0150  223.6040 C   0  0  0  0  0  0  0  0  0  0  0  0
  139.3630   69.1330  224.6450 C   0  0  0  0  0  0  0  0  0  0  0  0
  139.8670   69.4550  225.8840 C   0  0  0  0  0  0  0  0  0  0  0  0
  139.6770   68.5860  226.9360 C   0  0  0  0  0  0  0  0  0  0  0  0
  140.1840   68.9180  228.1610 C   0  0  0  0  0  0  0  0  0  0  0  0
  140.8790   70.1120  228.3410 C   0  0  0  0  0  0  0  0  0  0  0  0
  141.0470   70.9590  227.2500 C   0  0  0  0  0  0  0  0  0  0  0  0
  140.5480   70.6500  226.0050 C   0  0  0  0  0  0  0  0  0  0  0  0
  140.7350   71.5000  224.9790 N   0  0  0  0  0  0  0  0  0  0  0  0
  138.7710   73.3980  223.0540 H   0  0  0  0  0  0  0  0  0  0  0  0
  140.6093   73.5075  220.6122 H   0  0  0  0  0  0  0  0  0  0  0  0
  138.8931   74.0736  220.6220 H   0  0  0  0  0  0  0  0  0  0  0  0
  138.0060   77.2070  220.2035 H   0  0  0  0  0  0  0  0  0  0  0  0
  138.2258   75.4536  220.0705 H   0  0  0  0  0  0  0  0  0  0  0  0
  135.9912   76.3774  221.1512 H   0  0  0  0  0  0  0  0  0  0  0  0
  136.8488   75.0149  221.9768 H   0  0  0  0  0  0  0  0  0  0  0  0
  136.0194   77.2810  223.2233 H   0  0  0  0  0  0  0  0  0  0  0  0
  137.4077   76.2632  223.7568 H   0  0  0  0  0  0  0  0  0  0  0  0
  137.6870   78.6122  221.8129 H   0  0  0  0  0  0  0  0  0  0  0  0
  137.9130   78.7796  223.5673 H   0  0  0  0  0  0  0  0  0  0  0  0
  139.6989   77.1037  223.5619 H   0  0  0  0  0  0  0  0  0  0  0  0
  140.0894   78.3636  220.1297 H   0  0  0  0  0  0  0  0  0  0  0  0
  143.0752   81.2017  221.3917 H   0  0  0  0  0  0  0  0  0  0  0  0
  140.9030   78.8966  224.3226 H   0  0  0  0  0  0  0  0  0  0  0  0
  139.1602   69.7614  222.6123 H   0  0  0  0  0  0  0  0  0  0  0  0
  138.8130   68.1933  224.4883 H   0  0  0  0  0  0  0  0  0  0  0  0
  139.1281   67.6436  226.7929 H   0  0  0  0  0  0  0  0  0  0  0  0
  140.0421   68.2363  229.0126 H   0  0  0  0  0  0  0  0  0  0  0  0
  141.2871   70.3799  229.3267 H   0  0  0  0  0  0  0  0  0  0  0  0
  141.5946   71.9032  227.3864 H   0  0  0  0  0  0  0  0  0  0  0  0
  1  2  2  0
  2  3  1  0
  3  4  1  0
  4  5  1  0
  5  6  2  0
  5  7  1  0
  7  8  1  0
  8  9  1  0
  9 10  1  0
 10 11  1  0
 11 12  1  0
 12 13  1  0
 13 14  2  0
 14 15  1  0
 15 16  1  0
 15 17  2  0
 17 18  1  0
 18 19  1  0
 18 20  2  0
  2 21  1  0
 21 22  2  0
 22 23  1  0
 23 24  2  0
 24 25  1  0
 25 26  2  0
 26 27  1  0
 27 28  2  0
 28 29  1  0
 29 30  2  0
 12  7  1  0
 20 13  1  0
 30 21  1  0
 29 24  1  0
  3 31  1  0
  4 32  1  0
  4 33  1  0
  8 34  1  0
  8 35  1  0
  9 36  1  0
  9 37  1  0
 10 38  1  0
 10 39  1  0
 11 40  1  0
 11 41  1  0
 12 42  1  1
 14 43  1  0
 17 44  1  0
 20 45  1  0
 22 46  1  0
 23 47  1  0
 25 48  1  0
 26 49  1  0
 27 50  1  0
 28 51  1  0
M  END
>  <smiles>  (17) 
O=C(NCC(=O)N1CCCCC1c1cc(Cl)cc(Cl)c1)c1ccc2ccccc2n1

>  <score_type>  (17) 
oracle

>  <origin>  (17) 
autodockgpu

>  <m_score__min__energy>  (17) 
-9.6699999999999999

>  <m_primary>  (17) 
energy

>  <rmsd>  (17) 
2.902983260397897

>  <m_score__min__rmsd>  (17) 
2.902983260397897

>  <meeko>  (17) 
{"free_energy": -9.44, "intermolecular_energy": -10.93, "internal_energy": -1.42, "cluster_size": 38, "cluster_id": 1, "rank_in_cluster": 17}

>  <energy>  (17) 
-9.44

>  <cluster_rmsd>  (17) 
1.66

>  <cluster>  (17) 
1

$$$$

     RDKit          3D

 51 54  0  0  0  0  0  0  0  0999 V2000
  140.8660   71.5960  221.3750 O   0  0  0  0  0  0  0  0  0  0  0  0
  140.3720   72.1650  222.4040 C   0  0  0  0  0  0  0  0  0  0  0  0
  140.0010   73.5320  222.2940 N   0  0  0  0  0  0  0  0  0  0  0  0
  140.2230   74.1620  220.9960 C   0  0  0  0  0  0  0  0  0  0  0  0
  141.6580   74.4970  220.8070 C   0  0  0  0  0  0  0  0  0  0  0  0
  142.6040   73.7890  221.2080 O   0  0  0  0  0  0  0  0  0  0  0  0
  141.9760   75.7040  220.1280 N   0  0  0  0  0  0  0  0  0  0  0  0
  143.3690   75.8920  219.6960 C   0  0  0  0  0  0  0  0  0  0  0  0
  143.3370   75.9340  218.1650 C   0  0  0  0  0  0  0  0  0  0  0  0
  142.1280   76.6730  217.6660 C   0  0  0  0  0  0  0  0  0  0  0  0
  141.6030   77.6140  218.7430 C   0  0  0  0  0  0  0  0  0  0  0  0
  141.0270   76.7460  219.8380 C   0  0  2  0  0  0  0  0  0  0  0  0
  140.5760   77.5180  221.0010 C   0  0  0  0  0  0  0  0  0  0  0  0
  139.2270   77.5610  221.3720 C   0  0  0  0  0  0  0  0  0  0  0  0
  138.7940   78.2830  222.4630 C   0  0  0  0  0  0  0  0  0  0  0  0
  137.0710   78.2540  222.8200 Cl  0  0  0  0  0  0  0  0  0  0  0  0
  139.6880   79.0030  223.2400 C   0  0  0  0  0  0  0  0  0  0  0  0
  141.0100   78.9510  222.8640 C   0  0  0  0  0  0  0  0  0  0  0  0
  142.1870   79.8490  223.8220 Cl  0  0  0  0  0  0  0  0  0  0  0  0
  141.4720   78.2380  221.7800 C   0  0  0  0  0  0  0  0  0  0  0  0
  140.1980   71.4330  223.6430 C   0  0  0  0  0  0  0  0  0  0  0  0
  139.5140   70.2320  223.6280 C   0  0  0  0  0  0  0  0  0  0  0  0
  139.3080   69.4790  224.7650 C   0  0  0  0  0  0  0  0  0  0  0  0
  139.8040   69.9470  225.9600 C   0  0  0  0  0  0  0  0  0  0  0  0
  139.6080   69.2090  227.1070 C   0  0  0  0  0  0  0  0  0  0  0  0
  140.1070   69.6840  228.2870 C   0  0  0  0  0  0  0  0  0  0  0  0
  140.7990   70.8930  228.3280 C   0  0  0  0  0  0  0  0  0  0  0  0
  140.9730   71.6050  227.1450 C   0  0  0  0  0  0  0  0  0  0  0  0
  140.4820   71.1490  225.9430 C   0  0  0  0  0  0  0  0  0  0  0  0
  140.6750   71.8720  224.8250 N   0  0  0  0  0  0  0  0  0  0  0  0
  139.5900   74.0470  223.1060 H   0  0  0  0  0  0  0  0  0  0  0  0
  139.9071   73.4701  220.2013 H   0  0  0  0  0  0  0  0  0  0  0  0
  139.6367   75.0917  220.9520 H   0  0  0  0  0  0  0  0  0  0  0  0
  143.7685   76.8358  220.0955 H   0  0  0  0  0  0  0  0  0  0  0  0
  144.0162   75.0815  220.0623 H   0  0  0  0  0  0  0  0  0  0  0  0
  144.2428   76.4411  217.8011 H   0  0  0  0  0  0  0  0  0  0  0  0
  143.2929   74.9010  217.7895 H   0  0  0  0  0  0  0  0  0  0  0  0
  142.4018   77.2574  216.7752 H   0  0  0  0  0  0  0  0  0  0  0  0
  141.3429   75.9455  217.4121 H   0  0  0  0  0  0  0  0  0  0  0  0
  142.4231   78.2302  219.1401 H   0  0  0  0  0  0  0  0  0  0  0  0
  140.8401   78.2938  218.3356 H   0  0  0  0  0  0  0  0  0  0  0  0
  140.0970   76.2686  219.4957 H   0  0  0  0  0  0  0  0  0  0  0  0
  138.4910   77.0022  220.7753 H   0  0  0  0  0  0  0  0  0  0  0  0
  139.3573   79.5859  224.1123 H   0  0  0  0  0  0  0  0  0  0  0  0
  142.5439   78.2389  221.5329 H   0  0  0  0  0  0  0  0  0  0  0  0
  139.1181   69.8619  222.6708 H   0  0  0  0  0  0  0  0  0  0  0  0
  138.7599   68.5264  224.7175 H   0  0  0  0  0  0  0  0  0  0  0  0
  139.0603   68.2557  227.0733 H   0  0  0  0  0  0  0  0  0  0  0  0
  139.9613   69.1073  229.2123 H   0  0  0  0  0  0  0  0  0  0  0  0
  141.2001   71.2772  229.2775 H   0  0  0  0  0  0  0  0  0  0  0  0
  141.5187   72.5597  227.1715 H   0  0  0  0  0  0  0  0  0  0  0  0
  1  2  2  0
  2  3  1  0
  3  4  1  0
  4  5  1  0
  5  6  2  0
  5  7  1  0
  7  8  1  0
  8  9  1  0
  9 10  1  0
 10 11  1  0
 11 12  1  0
 12 13  1  0
 13 14  2  0
 14 15  1  0
 15 16  1  0
 15 17  2  0
 17 18  1  0
 18 19  1  0
 18 20  2  0
  2 21  1  0
 21 22  2  0
 22 23  1  0
 23 24  2  0
 24 25  1  0
 25 26  2  0
 26 27  1  0
 27 28  2  0
 28 29  1  0
 29 30  2  0
 12  7  1  0
 20 13  1  0
 30 21  1  0
 29 24  1  0
  3 31  1  0
  4 32  1  0
  4 33  1  0
  8 34  1  0
  8 35  1  0
  9 36  1  0
  9 37  1  0
 10 38  1  0
 10 39  1  0
 11 40  1  0
 11 41  1  0
 12 42  1  6
 14 43  1  0
 17 44  1  0
 20 45  1  0
 22 46  1  0
 23 47  1  0
 25 48  1  0
 26 49  1  0
 27 50  1  0
 28 51  1  0
M  END
>  <smiles>  (18) 
O=C(NCC(=O)N1CCCCC1c1cc(Cl)cc(Cl)c1)c1ccc2ccccc2n1

>  <score_type>  (18) 
oracle

>  <origin>  (18) 
autodockgpu

>  <m_score__min__energy>  (18) 
-9.6699999999999999

>  <m_primary>  (18) 
energy

>  <rmsd>  (18) 
2.2294904712735213

>  <m_score__min__rmsd>  (18) 
2.2294904712735213

>  <meeko>  (18) 
{"free_energy": -8.99, "intermolecular_energy": -10.48, "internal_energy": -1.47, "cluster_size": 38, "cluster_id": 1, "rank_in_cluster": 37}

>  <energy>  (18) 
-9.42

>  <cluster_rmsd>  (18) 
1.69

>  <cluster>  (18) 
1

$$$$

     RDKit          3D

 51 54  0  0  0  0  0  0  0  0999 V2000
  141.0180   71.8600  221.4930 O   0  0  0  0  0  0  0  0  0  0  0  0
  140.2630   72.2370  222.4480 C   0  0  0  0  0  0  0  0  0  0  0  0
  139.4980   73.4200  222.2640 N   0  0  0  0  0  0  0  0  0  0  0  0
  139.6520   74.0990  220.9810 C   0  0  0  0  0  0  0  0  0  0  0  0
  140.8660   74.9540  220.9750 C   0  0  0  0  0  0  0  0  0  0  0  0
  141.4460   75.3590  222.0040 O   0  0  0  0  0  0  0  0  0  0  0  0
  141.4040   75.3390  219.7180 N   0  0  0  0  0  0  0  0  0  0  0  0
  140.4850   75.3770  218.5700 C   0  0  0  0  0  0  0  0  0  0  0  0
  140.4170   76.8430  218.1300 C   0  0  0  0  0  0  0  0  0  0  0  0
  141.7610   77.5060  218.2350 C   0  0  0  0  0  0  0  0  0  0  0  0
  142.8690   76.4610  218.2020 C   0  0  0  0  0  0  0  0  0  0  0  0
  142.7810   75.6910  219.4990 C   0  0  2  0  0  0  0  0  0  0  0  0
  143.7280   74.5720  219.5630 C   0  0  0  0  0  0  0  0  0  0  0  0
  144.6630   74.4630  220.5990 C   0  0  0  0  0  0  0  0  0  0  0  0
  145.5560   73.4150  220.6680 C   0  0  0  0  0  0  0  0  0  0  0  0
  146.6790   73.3980  222.0210 Cl  0  0  0  0  0  0  0  0  0  0  0  0
  145.5610   72.4210  219.7020 C   0  0  0  0  0  0  0  0  0  0  0  0
  144.6370   72.5410  218.6910 C   0  0  0  0  0  0  0  0  0  0  0  0
  144.6030   71.3000  217.4380 Cl  0  0  0  0  0  0  0  0  0  0  0  0
  143.7330   73.5760  218.5960 C   0  0  0  0  0  0  0  0  0  0  0  0
  140.1920   71.4780  223.6810 C   0  0  0  0  0  0  0  0  0  0  0  0
  139.6190   70.2200  223.6680 C   0  0  0  0  0  0  0  0  0  0  0  0
  139.5150   69.4370  224.7990 C   0  0  0  0  0  0  0  0  0  0  0  0
  140.0020   69.9330  225.9860 C   0  0  0  0  0  0  0  0  0  0  0  0
  139.9080   69.1660  227.1270 C   0  0  0  0  0  0  0  0  0  0  0  0
  140.3960   69.6710  228.2990 C   0  0  0  0  0  0  0  0  0  0  0  0
  140.9780   70.9360  228.3390 C   0  0  0  0  0  0  0  0  0  0  0  0
  141.0520   71.6760  227.1620 C   0  0  0  0  0  0  0  0  0  0  0  0
  140.5680   71.1920  225.9670 C   0  0  0  0  0  0  0  0  0  0  0  0
  140.6620   71.9430  224.8550 N   0  0  0  0  0  0  0  0  0  0  0  0
  138.8610   73.7740  223.0150 H   0  0  0  0  0  0  0  0  0  0  0  0
  139.7379   73.3463  220.1835 H   0  0  0  0  0  0  0  0  0  0  0  0
  138.7721   74.7377  220.8141 H   0  0  0  0  0  0  0  0  0  0  0  0
  140.8695   74.7501  217.7520 H   0  0  0  0  0  0  0  0  0  0  0  0
  139.4905   74.9908  218.8378 H   0  0  0  0  0  0  0  0  0  0  0  0
  140.0755   76.8884  217.0854 H   0  0  0  0  0  0  0  0  0  0  0  0
  139.7155   77.3724  218.7915 H   0  0  0  0  0  0  0  0  0  0  0  0
  141.8907   78.1994  217.3910 H   0  0  0  0  0  0  0  0  0  0  0  0
  141.8157   78.0562  219.1859 H   0  0  0  0  0  0  0  0  0  0  0  0
  142.7245   75.7826  217.3482 H   0  0  0  0  0  0  0  0  0  0  0  0
  143.8554   76.9348  218.0902 H   0  0  0  0  0  0  0  0  0  0  0  0
  143.1033   76.3228  220.3398 H   0  0  0  0  0  0  0  0  0  0  0  0
  144.6859   75.2362  221.3810 H   0  0  0  0  0  0  0  0  0  0  0  0
  146.2680   71.5793  219.7422 H   0  0  0  0  0  0  0  0  0  0  0  0
  143.0198   73.6130  217.7594 H   0  0  0  0  0  0  0  0  0  0  0  0
  139.2301   69.8273  222.7169 H   0  0  0  0  0  0  0  0  0  0  0  0
  139.0535   68.4396  224.7527 H   0  0  0  0  0  0  0  0  0  0  0  0
  139.4491   68.1668  227.0948 H   0  0  0  0  0  0  0  0  0  0  0  0
  140.3287   69.0730  229.2198 H   0  0  0  0  0  0  0  0  0  0  0  0
  141.3715   71.3424  229.2824 H   0  0  0  0  0  0  0  0  0  0  0  0
  141.5101   72.6757  227.1873 H   0  0  0  0  0  0  0  0  0  0  0  0
  1  2  2  0
  2  3  1  0
  3  4  1  0
  4  5  1  0
  5  6  2  0
  5  7  1  0
  7  8  1  0
  8  9  1  0
  9 10  1  0
 10 11  1  0
 11 12  1  0
 12 13  1  0
 13 14  2  0
 14 15  1  0
 15 16  1  0
 15 17  2  0
 17 18  1  0
 18 19  1  0
 18 20  2  0
  2 21  1  0
 21 22  2  0
 22 23  1  0
 23 24  2  0
 24 25  1  0
 25 26  2  0
 26 27  1  0
 27 28  2  0
 28 29  1  0
 29 30  2  0
 12  7  1  0
 20 13  1  0
 30 21  1  0
 29 24  1  0
  3 31  1  0
  4 32  1  0
  4 33  1  0
  8 34  1  0
  8 35  1  0
  9 36  1  0
  9 37  1  0
 10 38  1  0
 10 39  1  0
 11 40  1  0
 11 41  1  0
 12 42  1  1
 14 43  1  0
 17 44  1  0
 20 45  1  0
 22 46  1  0
 23 47  1  0
 25 48  1  0
 26 49  1  0
 27 50  1  0
 28 51  1  0
M  END
>  <smiles>  (19) 
O=C(NCC(=O)N1CCCCC1c1cc(Cl)cc(Cl)c1)c1ccc2ccccc2n1

>  <score_type>  (19) 
oracle

>  <origin>  (19) 
autodockgpu

>  <m_score__min__energy>  (19) 
-9.6699999999999999

>  <m_primary>  (19) 
energy

>  <rmsd>  (19) 
1.6637277515208169

>  <m_score__min__rmsd>  (19) 
1.6637277515208169

>  <meeko>  (19) 
{"free_energy": -9.16, "intermolecular_energy": -10.65, "internal_energy": -1.66, "cluster_size": 9, "cluster_id": 2, "rank_in_cluster": 1}

>  <energy>  (19) 
-9.39

>  <cluster_rmsd>  (19) 
1.83

>  <cluster>  (19) 
1

$$$$

     RDKit          3D

 51 54  0  0  0  0  0  0  0  0999 V2000
  140.6940   71.1490  221.5210 O   0  0  0  0  0  0  0  0  0  0  0  0
  140.1570   71.6120  222.5800 C   0  0  0  0  0  0  0  0  0  0  0  0
  139.6710   72.9460  222.5510 N   0  0  0  0  0  0  0  0  0  0  0  0
  139.8360   73.6690  221.2920 C   0  0  0  0  0  0  0  0  0  0  0  0
  140.2650   75.0690  221.5360 C   0  0  0  0  0  0  0  0  0  0  0  0
  141.4540   75.4310  221.6470 O   0  0  0  0  0  0  0  0  0  0  0  0
  139.2570   76.0640  221.6520 N   0  0  0  0  0  0  0  0  0  0  0  0
  138.0600   75.9170  220.8110 C   0  0  0  0  0  0  0  0  0  0  0  0
  136.8870   75.7040  221.7750 C   0  0  0  0  0  0  0  0  0  0  0  0
  137.0310   76.5560  223.0030 C   0  0  0  0  0  0  0  0  0  0  0  0
  137.9380   77.7470  222.7170 C   0  0  0  0  0  0  0  0  0  0  0  0
  139.3340   77.1970  222.5350 C   0  0  2  0  0  0  0  0  0  0  0  0
  140.3050   78.2250  222.1450 C   0  0  0  0  0  0  0  0  0  0  0  0
  140.6300   78.4540  220.8030 C   0  0  0  0  0  0  0  0  0  0  0  0
  141.5410   79.4180  220.4280 C   0  0  0  0  0  0  0  0  0  0  0  0
  141.8600   79.6030  218.7070 Cl  0  0  0  0  0  0  0  0  0  0  0  0
  142.1770   80.2030  221.3760 C   0  0  0  0  0  0  0  0  0  0  0  0
  141.8480   79.9670  222.6910 C   0  0  0  0  0  0  0  0  0  0  0  0
  142.6290   80.9420  223.9360 Cl  0  0  0  0  0  0  0  0  0  0  0  0
  140.9410   79.0130  223.0950 C   0  0  0  0  0  0  0  0  0  0  0  0
  140.0490   70.7970  223.7740 C   0  0  0  0  0  0  0  0  0  0  0  0
  139.3450   69.6080  223.7190 C   0  0  0  0  0  0  0  0  0  0  0  0
  139.1990   68.7790  224.8120 C   0  0  0  0  0  0  0  0  0  0  0  0
  139.7770   69.1540  226.0020 C   0  0  0  0  0  0  0  0  0  0  0  0
  139.6420   68.3390  227.1040 C   0  0  0  0  0  0  0  0  0  0  0  0
  140.2220   68.7240  228.2810 C   0  0  0  0  0  0  0  0  0  0  0  0
  140.9350   69.9180  228.3620 C   0  0  0  0  0  0  0  0  0  0  0  0
  141.0460   70.7100  227.2220 C   0  0  0  0  0  0  0  0  0  0  0  0
  140.4730   70.3470  226.0250 C   0  0  0  0  0  0  0  0  0  0  0  0
  140.6070   71.1440  224.9500 N   0  0  0  0  0  0  0  0  0  0  0  0
  139.2210   73.3770  223.3910 H   0  0  0  0  0  0  0  0  0  0  0  0
  140.5971   73.1605  220.6820 H   0  0  0  0  0  0  0  0  0  0  0  0
  138.8695   73.6846  220.7670 H   0  0  0  0  0  0  0  0  0  0  0  0
  137.9010   76.8251  220.2110 H   0  0  0  0  0  0  0  0  0  0  0  0
  138.1621   75.0755  220.1100 H   0  0  0  0  0  0  0  0  0  0  0  0
  135.9497   75.9679  221.2633 H   0  0  0  0  0  0  0  0  0  0  0  0
  136.8770   74.6481  222.0832 H   0  0  0  0  0  0  0  0  0  0  0  0
  136.0396   76.9204  223.3102 H   0  0  0  0  0  0  0  0  0  0  0  0
  137.4763   75.9521  223.8073 H   0  0  0  0  0  0  0  0  0  0  0  0
  137.6109   78.2612  221.8012 H   0  0  0  0  0  0  0  0  0  0  0  0
  137.9045   78.4761  223.5400 H   0  0  0  0  0  0  0  0  0  0  0  0
  139.7336   76.8457  223.4977 H   0  0  0  0  0  0  0  0  0  0  0  0
  140.1442   77.8469  220.0249 H   0  0  0  0  0  0  0  0  0  0  0  0
  142.9073   80.9751  221.0921 H   0  0  0  0  0  0  0  0  0  0  0  0
  140.7215   78.8760  224.1641 H   0  0  0  0  0  0  0  0  0  0  0  0
  138.8830   69.3114  222.7658 H   0  0  0  0  0  0  0  0  0  0  0  0
  138.6329   67.8391  224.7333 H   0  0  0  0  0  0  0  0  0  0  0  0
  139.0785   67.3966  227.0386 H   0  0  0  0  0  0  0  0  0  0  0  0
  140.1247   68.0854  229.1714 H   0  0  0  0  0  0  0  0  0  0  0  0
  141.4014   70.2293  229.3084 H   0  0  0  0  0  0  0  0  0  0  0  0
  141.6084   71.6536  227.2802 H   0  0  0  0  0  0  0  0  0  0  0  0
  1  2  2  0
  2  3  1  0
  3  4  1  0
  4  5  1  0
  5  6  2  0
  5  7  1  0
  7  8  1  0
  8  9  1  0
  9 10  1  0
 10 11  1  0
 11 12  1  0
 12 13  1  0
 13 14  2  0
 14 15  1  0
 15 16  1  0
 15 17  2  0
 17 18  1  0
 18 19  1  0
 18 20  2  0
  2 21  1  0
 21 22  2  0
 22 23  1  0
 23 24  2  0
 24 25  1  0
 25 26  2  0
 26 27  1  0
 27 28  2  0
 28 29  1  0
 29 30  2  0
 12  7  1  0
 20 13  1  0
 30 21  1  0
 29 24  1  0
  3 31  1  0
  4 32  1  0
  4 33  1  0
  8 34  1  0
  8 35  1  0
  9 36  1  0
  9 37  1  0
 10 38  1  0
 10 39  1  0
 11 40  1  0
 11 41  1  0
 12 42  1  1
 14 43  1  0
 17 44  1  0
 20 45  1  0
 22 46  1  0
 23 47  1  0
 25 48  1  0
 26 49  1  0
 27 50  1  0
 28 51  1  0
M  END
>  <smiles>  (20) 
O=C(NCC(=O)N1CCCCC1c1cc(Cl)cc(Cl)c1)c1ccc2ccccc2n1

>  <score_type>  (20) 
oracle

>  <origin>  (20) 
autodockgpu

>  <m_score__min__energy>  (20) 
-9.6699999999999999

>  <m_primary>  (20) 
energy

>  <rmsd>  (20) 
2.843198378290375

>  <m_score__min__rmsd>  (20) 
2.843198378290375

>  <meeko>  (20) 
{"free_energy": -9.32, "intermolecular_energy": -10.81, "internal_energy": -1.44, "cluster_size": 38, "cluster_id": 1, "rank_in_cluster": 28}

>  <energy>  (20) 
-9.39

>  <cluster_rmsd>  (20) 
0.66

>  <cluster>  (20) 
1

$$$$

     RDKit          3D

 51 54  0  0  0  0  0  0  0  0999 V2000
  141.4860   73.0700  221.6230 O   0  0  0  0  0  0  0  0  0  0  0  0
  140.4400   73.0110  222.3490 C   0  0  0  0  0  0  0  0  0  0  0  0
  139.5630   74.1280  222.3440 N   0  0  0  0  0  0  0  0  0  0  0  0
  139.9500   75.2530  221.4960 C   0  0  0  0  0  0  0  0  0  0  0  0
  139.2460   76.4940  221.9080 C   0  0  0  0  0  0  0  0  0  0  0  0
  138.0320   76.5540  222.1900 O   0  0  0  0  0  0  0  0  0  0  0  0
  140.0030   77.6940  221.9850 N   0  0  0  0  0  0  0  0  0  0  0  0
  139.2710   78.9430  222.2420 C   0  0  0  0  0  0  0  0  0  0  0  0
  139.7580   79.4490  223.6050 C   0  0  0  0  0  0  0  0  0  0  0  0
  141.2310   79.2120  223.7770 C   0  0  0  0  0  0  0  0  0  0  0  0
  141.9060   79.0720  222.4180 C   0  0  0  0  0  0  0  0  0  0  0  0
  141.4320   77.7630  221.8300 C   0  0  2  0  0  0  0  0  0  0  0  0
  141.9210   77.5410  220.4650 C   0  0  0  0  0  0  0  0  0  0  0  0
  141.8170   78.5310  219.4800 C   0  0  0  0  0  0  0  0  0  0  0  0
  142.2740   78.3310  218.1950 C   0  0  0  0  0  0  0  0  0  0  0  0
  142.0830   79.6560  217.0540 Cl  0  0  0  0  0  0  0  0  0  0  0  0
  142.8580   77.1290  217.8260 C   0  0  0  0  0  0  0  0  0  0  0  0
  142.9530   76.1670  218.8040 C   0  0  0  0  0  0  0  0  0  0  0  0
  143.6900   74.6200  218.3850 Cl  0  0  0  0  0  0  0  0  0  0  0  0
  142.5060   76.3380  220.0960 C   0  0  0  0  0  0  0  0  0  0  0  0
  140.1600   71.8370  223.1520 C   0  0  0  0  0  0  0  0  0  0  0  0
  139.3340   70.8520  222.6430 C   0  0  0  0  0  0  0  0  0  0  0  0
  139.0220   69.7060  223.3460 C   0  0  0  0  0  0  0  0  0  0  0  0
  139.5550   69.5430  224.6030 C   0  0  0  0  0  0  0  0  0  0  0  0
  139.2550   68.4060  225.3200 C   0  0  0  0  0  0  0  0  0  0  0  0
  139.7910   68.2560  226.5680 C   0  0  0  0  0  0  0  0  0  0  0  0
  140.6260   69.2350  227.1040 C   0  0  0  0  0  0  0  0  0  0  0  0
  140.9020   70.3670  226.3430 C   0  0  0  0  0  0  0  0  0  0  0  0
  140.3760   70.5440  225.0840 C   0  0  0  0  0  0  0  0  0  0  0  0
  140.6710   71.6550  224.3850 N   0  0  0  0  0  0  0  0  0  0  0  0
  138.6890   74.1330  222.9200 H   0  0  0  0  0  0  0  0  0  0  0  0
  141.0355   75.4101  221.5794 H   0  0  0  0  0  0  0  0  0  0  0  0
  139.6741   75.0209  220.4568 H   0  0  0  0  0  0  0  0  0  0  0  0
  139.4922   79.6831  221.4588 H   0  0  0  0  0  0  0  0  0  0  0  0
  138.1833   78.7789  222.2397 H   0  0  0  0  0  0  0  0  0  0  0  0
  139.5569   80.5278  223.6801 H   0  0  0  0  0  0  0  0  0  0  0  0
  139.2222   78.8991  224.3927 H   0  0  0  0  0  0  0  0  0  0  0  0
  141.6747   80.0615  224.3168 H   0  0  0  0  0  0  0  0  0  0  0  0
  141.3799   78.2837  224.3480 H   0  0  0  0  0  0  0  0  0  0  0  0
  141.6177   79.9079  221.7637 H   0  0  0  0  0  0  0  0  0  0  0  0
  143.0014   79.0875  222.5170 H   0  0  0  0  0  0  0  0  0  0  0  0
  141.8707   76.9174  222.3800 H   0  0  0  0  0  0  0  0  0  0  0  0
  141.3573   79.4961  219.7392 H   0  0  0  0  0  0  0  0  0  0  0  0
  143.2261   76.9540  216.8043 H   0  0  0  0  0  0  0  0  0  0  0  0
  142.6122   75.5260  220.8304 H   0  0  0  0  0  0  0  0  0  0  0  0
  138.9085   70.9871  221.6377 H   0  0  0  0  0  0  0  0  0  0  0  0
  138.3623   68.9409  222.9108 H   0  0  0  0  0  0  0  0  0  0  0  0
  138.5966   67.6335  224.8962 H   0  0  0  0  0  0  0  0  0  0  0  0
  139.5614   67.3545  227.1550 H   0  0  0  0  0  0  0  0  0  0  0  0
  141.0582   69.1152  228.1084 H   0  0  0  0  0  0  0  0  0  0  0  0
  141.5602   71.1433  226.7604 H   0  0  0  0  0  0  0  0  0  0  0  0
  1  2  2  0
  2  3  1  0
  3  4  1  0
  4  5  1  0
  5  6  2  0
  5  7  1  0
  7  8  1  0
  8  9  1  0
  9 10  1  0
 10 11  1  0
 11 12  1  0
 12 13  1  0
 13 14  2  0
 14 15  1  0
 15 16  1  0
 15 17  2  0
 17 18  1  0
 18 19  1  0
 18 20  2  0
  2 21  1  0
 21 22  2  0
 22 23  1  0
 23 24  2  0
 24 25  1  0
 25 26  2  0
 26 27  1  0
 27 28  2  0
 28 29  1  0
 29 30  2  0
 12  7  1  0
 20 13  1  0
 30 21  1  0
 29 24  1  0
  3 31  1  0
  4 32  1  0
  4 33  1  0
  8 34  1  0
  8 35  1  0
  9 36  1  0
  9 37  1  0
 10 38  1  0
 10 39  1  0
 11 40  1  0
 11 41  1  0
 12 42  1  1
 14 43  1  0
 17 44  1  0
 20 45  1  0
 22 46  1  0
 23 47  1  0
 25 48  1  0
 26 49  1  0
 27 50  1  0
 28 51  1  0
M  END
>  <smiles>  (21) 
O=C(NCC(=O)N1CCCCC1c1cc(Cl)cc(Cl)c1)c1ccc2ccccc2n1

>  <score_type>  (21) 
oracle

>  <origin>  (21) 
autodockgpu

>  <m_score__min__energy>  (21) 
-9.6699999999999999

>  <m_primary>  (21) 
energy

>  <rmsd>  (21) 
3.5377062542614617

>  <m_score__min__rmsd>  (21) 
3.5377062542614617

>  <meeko>  (21) 
{"free_energy": -8.73, "intermolecular_energy": -10.22, "internal_energy": -1.59, "cluster_size": 1, "cluster_id": 3, "rank_in_cluster": 1}

>  <energy>  (21) 
-9.38

>  <cluster_rmsd>  (21) 
0.7

>  <cluster>  (21) 
1

$$$$

     RDKit          3D

 51 54  0  0  0  0  0  0  0  0999 V2000
  138.7180   72.6430  222.4030 O   0  0  0  0  0  0  0  0  0  0  0  0
  139.8110   72.0770  222.7340 C   0  0  0  0  0  0  0  0  0  0  0  0
  140.9670   72.3570  221.9560 N   0  0  0  0  0  0  0  0  0  0  0  0
  140.7880   73.2780  220.8370 C   0  0  0  0  0  0  0  0  0  0  0  0
  140.7560   74.6860  221.3090 C   0  0  0  0  0  0  0  0  0  0  0  0
  140.0340   75.0990  222.2400 O   0  0  0  0  0  0  0  0  0  0  0  0
  141.6000   75.6260  220.6590 N   0  0  0  0  0  0  0  0  0  0  0  0
  143.0100   75.2550  220.4720 C   0  0  0  0  0  0  0  0  0  0  0  0
  143.2290   75.1620  218.9580 C   0  0  0  0  0  0  0  0  0  0  0  0
  142.4730   76.2390  218.2330 C   0  0  0  0  0  0  0  0  0  0  0  0
  142.1800   77.4030  219.1720 C   0  0  0  0  0  0  0  0  0  0  0  0
  141.1640   76.9080  220.1750 C   0  0  2  0  0  0  0  0  0  0  0  0
  140.8630   77.8970  221.2160 C   0  0  0  0  0  0  0  0  0  0  0  0
  141.8730   78.6510  221.8240 C   0  0  0  0  0  0  0  0  0  0  0  0
  141.5990   79.5830  222.8020 C   0  0  0  0  0  0  0  0  0  0  0  0
  142.9600   80.4620  223.4860 Cl  0  0  0  0  0  0  0  0  0  0  0  0
  140.2980   79.8080  223.2260 C   0  0  0  0  0  0  0  0  0  0  0  0
  139.3160   79.0600  222.6190 C   0  0  0  0  0  0  0  0  0  0  0  0
  137.6440   79.3110  223.1220 Cl  0  0  0  0  0  0  0  0  0  0  0  0
  139.5600   78.1230  221.6390 C   0  0  0  0  0  0  0  0  0  0  0  0
  139.8670   71.1780  223.8690 C   0  0  0  0  0  0  0  0  0  0  0  0
  139.3260   69.9100  223.7540 C   0  0  0  0  0  0  0  0  0  0  0  0
  139.3400   68.9990  224.7890 C   0  0  0  0  0  0  0  0  0  0  0  0
  139.9160   69.3700  225.9830 C   0  0  0  0  0  0  0  0  0  0  0  0
  139.9400   68.4730  227.0280 C   0  0  0  0  0  0  0  0  0  0  0  0
  140.5150   68.8550  228.2080 C   0  0  0  0  0  0  0  0  0  0  0  0
  141.0650   70.1270  228.3490 C   0  0  0  0  0  0  0  0  0  0  0  0
  141.0190   71.0000  227.2650 C   0  0  0  0  0  0  0  0  0  0  0  0
  140.4460   70.6420  226.0660 C   0  0  0  0  0  0  0  0  0  0  0  0
  140.4240   71.5200  225.0470 N   0  0  0  0  0  0  0  0  0  0  0  0
  141.8900   71.9210  222.1830 H   0  0  0  0  0  0  0  0  0  0  0  0
  141.6225   73.1537  220.1312 H   0  0  0  0  0  0  0  0  0  0  0  0
  139.8310   73.0507  220.3445 H   0  0  0  0  0  0  0  0  0  0  0  0
  143.6674   76.0227  220.9062 H   0  0  0  0  0  0  0  0  0  0  0  0
  143.2441   74.3029  220.9707 H   0  0  0  0  0  0  0  0  0  0  0  0
  144.3024   75.2703  218.7433 H   0  0  0  0  0  0  0  0  0  0  0  0
  142.8612   74.1848  218.6120 H   0  0  0  0  0  0  0  0  0  0  0  0
  143.0762   76.5987  217.3864 H   0  0  0  0  0  0  0  0  0  0  0  0
  141.5213   75.8249  217.8686 H   0  0  0  0  0  0  0  0  0  0  0  0
  143.1003   77.7150  219.6874 H   0  0  0  0  0  0  0  0  0  0  0  0
  141.7965   78.2718  218.6168 H   0  0  0  0  0  0  0  0  0  0  0  0
  140.1867   76.7682  219.6900 H   0  0  0  0  0  0  0  0  0  0  0  0
  142.9164   78.4954  221.5123 H   0  0  0  0  0  0  0  0  0  0  0  0
  140.0635   80.5462  224.0071 H   0  0  0  0  0  0  0  0  0  0  0  0
  138.7278   77.5575  221.1945 H   0  0  0  0  0  0  0  0  0  0  0  0
  138.8663   69.6168  222.7987 H   0  0  0  0  0  0  0  0  0  0  0  0
  138.9008   67.9983  224.6634 H   0  0  0  0  0  0  0  0  0  0  0  0
  139.5050   67.4690  226.9153 H   0  0  0  0  0  0  0  0  0  0  0  0
  140.5436   68.1518  229.0534 H   0  0  0  0  0  0  0  0  0  0  0  0
  141.5268   70.4360  229.2984 H   0  0  0  0  0  0  0  0  0  0  0  0
  141.4533   72.0051  227.3702 H   0  0  0  0  0  0  0  0  0  0  0  0
  1  2  2  0
  2  3  1  0
  3  4  1  0
  4  5  1  0
  5  6  2  0
  5  7  1  0
  7  8  1  0
  8  9  1  0
  9 10  1  0
 10 11  1  0
 11 12  1  0
 12 13  1  0
 13 14  2  0
 14 15  1  0
 15 16  1  0
 15 17  2  0
 17 18  1  0
 18 19  1  0
 18 20  2  0
  2 21  1  0
 21 22  2  0
 22 23  1  0
 23 24  2  0
 24 25  1  0
 25 26  2  0
 26 27  1  0
 27 28  2  0
 28 29  1  0
 29 30  2  0
 12  7  1  0
 20 13  1  0
 30 21  1  0
 29 24  1  0
  3 31  1  0
  4 32  1  0
  4 33  1  0
  8 34  1  0
  8 35  1  0
  9 36  1  0
  9 37  1  0
 10 38  1  0
 10 39  1  0
 11 40  1  0
 11 41  1  0
 12 42  1  6
 14 43  1  0
 17 44  1  0
 20 45  1  0
 22 46  1  0
 23 47  1  0
 25 48  1  0
 26 49  1  0
 27 50  1  0
 28 51  1  0
M  END
>  <smiles>  (22) 
O=C(NCC(=O)N1CCCCC1c1cc(Cl)cc(Cl)c1)c1ccc2ccccc2n1

>  <score_type>  (22) 
oracle

>  <origin>  (22) 
autodockgpu

>  <m_score__min__energy>  (22) 
-9.6699999999999999

>  <m_primary>  (22) 
energy

>  <rmsd>  (22) 
2.3214401025927947

>  <m_score__min__rmsd>  (22) 
2.3214401025927947

>  <meeko>  (22) 
{"free_energy": -9.28, "intermolecular_energy": -10.78, "internal_energy": -1.39, "cluster_size": 38, "cluster_id": 1, "rank_in_cluster": 30}

>  <energy>  (22) 
-9.38

>  <cluster_rmsd>  (22) 
1.52

>  <cluster>  (22) 
1

$$$$

     RDKit          3D

 51 54  0  0  0  0  0  0  0  0999 V2000
  141.4890   72.1220  221.9320 O   0  0  0  0  0  0  0  0  0  0  0  0
  140.4500   72.2090  222.6660 C   0  0  0  0  0  0  0  0  0  0  0  0
  139.4960   73.2130  222.3510 N   0  0  0  0  0  0  0  0  0  0  0  0
  139.8020   74.0620  221.2030 C   0  0  0  0  0  0  0  0  0  0  0  0
  140.2170   75.4190  221.6410 C   0  0  0  0  0  0  0  0  0  0  0  0
  141.3780   75.7230  221.9830 O   0  0  0  0  0  0  0  0  0  0  0  0
  139.2280   76.4390  221.6730 N   0  0  0  0  0  0  0  0  0  0  0  0
  138.0960   76.3160  220.7440 C   0  0  0  0  0  0  0  0  0  0  0  0
  136.8480   76.1390  221.6170 C   0  0  0  0  0  0  0  0  0  0  0  0
  136.9190   76.9980  222.8470 C   0  0  0  0  0  0  0  0  0  0  0  0
  137.8760   78.1630  222.6240 C   0  0  0  0  0  0  0  0  0  0  0  0
  139.2670   77.5770  222.5520 C   0  0  2  0  0  0  0  0  0  0  0  0
  140.2910   78.5770  222.2320 C   0  0  0  0  0  0  0  0  0  0  0  0
  140.5660   78.9460  220.9100 C   0  0  0  0  0  0  0  0  0  0  0  0
  141.5270   79.8850  220.6000 C   0  0  0  0  0  0  0  0  0  0  0  0
  141.7740   80.2560  218.8980 Cl  0  0  0  0  0  0  0  0  0  0  0  0
  142.2640   80.5040  221.5970 C   0  0  0  0  0  0  0  0  0  0  0  0
  141.9820   80.1320  222.8910 C   0  0  0  0  0  0  0  0  0  0  0  0
  142.8940   80.8930  224.1960 Cl  0  0  0  0  0  0  0  0  0  0  0  0
  141.0290   79.1980  223.2310 C   0  0  0  0  0  0  0  0  0  0  0  0
  140.2540   71.3070  223.7840 C   0  0  0  0  0  0  0  0  0  0  0  0
  139.5350   70.1410  223.5930 C   0  0  0  0  0  0  0  0  0  0  0  0
  139.3070   69.2340  224.6070 C   0  0  0  0  0  0  0  0  0  0  0  0
  139.8170   69.5050  225.8570 C   0  0  0  0  0  0  0  0  0  0  0  0
  139.6000   68.6100  226.8810 C   0  0  0  0  0  0  0  0  0  0  0  0
  140.1120   68.8910  228.1170 C   0  0  0  0  0  0  0  0  0  0  0  0
  140.8400   70.0590  228.3340 C   0  0  0  0  0  0  0  0  0  0  0  0
  141.0350   70.9340  227.2690 C   0  0  0  0  0  0  0  0  0  0  0  0
  140.5300   70.6760  226.0140 C   0  0  0  0  0  0  0  0  0  0  0  0
  140.7440   71.5510  225.0150 N   0  0  0  0  0  0  0  0  0  0  0  0
  138.6250   73.3280  222.9190 H   0  0  0  0  0  0  0  0  0  0  0  0
  140.6187   73.6050  220.6250 H   0  0  0  0  0  0  0  0  0  0  0  0
  138.8973   74.1546  220.5842 H   0  0  0  0  0  0  0  0  0  0  0  0
  138.0063   77.2236  220.1290 H   0  0  0  0  0  0  0  0  0  0  0  0
  138.2299   75.4675  220.0569 H   0  0  0  0  0  0  0  0  0  0  0  0
  135.9591   76.4207  221.0335 H   0  0  0  0  0  0  0  0  0  0  0  0
  136.7887   75.0863  221.9304 H   0  0  0  0  0  0  0  0  0  0  0  0
  135.9167   77.3901  223.0741 H   0  0  0  0  0  0  0  0  0  0  0  0
  137.2851   76.3900  223.6874 H   0  0  0  0  0  0  0  0  0  0  0  0
  137.6328   78.6782  221.6830 H   0  0  0  0  0  0  0  0  0  0  0  0
  137.7991   78.8987  223.4381 H   0  0  0  0  0  0  0  0  0  0  0  0
  139.5837   77.2234  223.5443 H   0  0  0  0  0  0  0  0  0  0  0  0
  139.9989   78.4731  220.0947 H   0  0  0  0  0  0  0  0  0  0  0  0
  143.0347   81.2540  221.3656 H   0  0  0  0  0  0  0  0  0  0  0  0
  140.8535   78.9454  224.2871 H   0  0  0  0  0  0  0  0  0  0  0  0
  139.1290   69.9285  222.5930 H   0  0  0  0  0  0  0  0  0  0  0  0
  138.7311   68.3154  224.4213 H   0  0  0  0  0  0  0  0  0  0  0  0
  139.0263   67.6876  226.7078 H   0  0  0  0  0  0  0  0  0  0  0  0
  139.9478   68.1888  228.9476 H   0  0  0  0  0  0  0  0  0  0  0  0
  141.2529   70.2854  229.3281 H   0  0  0  0  0  0  0  0  0  0  0  0
  141.6088   71.8578  227.4346 H   0  0  0  0  0  0  0  0  0  0  0  0
  1  2  2  0
  2  3  1  0
  3  4  1  0
  4  5  1  0
  5  6  2  0
  5  7  1  0
  7  8  1  0
  8  9  1  0
  9 10  1  0
 10 11  1  0
 11 12  1  0
 12 13  1  0
 13 14  2  0
 14 15  1  0
 15 16  1  0
 15 17  2  0
 17 18  1  0
 18 19  1  0
 18 20  2  0
  2 21  1  0
 21 22  2  0
 22 23  1  0
 23 24  2  0
 24 25  1  0
 25 26  2  0
 26 27  1  0
 27 28  2  0
 28 29  1  0
 29 30  2  0
 12  7  1  0
 20 13  1  0
 30 21  1  0
 29 24  1  0
  3 31  1  0
  4 32  1  0
  4 33  1  0
  8 34  1  0
  8 35  1  0
  9 36  1  0
  9 37  1  0
 10 38  1  0
 10 39  1  0
 11 40  1  0
 11 41  1  0
 12 42  1  1
 14 43  1  0
 17 44  1  0
 20 45  1  0
 22 46  1  0
 23 47  1  0
 25 48  1  0
 26 49  1  0
 27 50  1  0
 28 51  1  0
M  END
>  <smiles>  (23) 
O=C(NCC(=O)N1CCCCC1c1cc(Cl)cc(Cl)c1)c1ccc2ccccc2n1

>  <score_type>  (23) 
oracle

>  <origin>  (23) 
autodockgpu

>  <m_score__min__energy>  (23) 
-9.6699999999999999

>  <m_primary>  (23) 
energy

>  <rmsd>  (23) 
2.9140053518155895

>  <m_score__min__rmsd>  (23) 
2.9140053518155895

>  <meeko>  (23) 
{"free_energy": -9.42, "intermolecular_energy": -10.92, "internal_energy": -1.41, "cluster_size": 38, "cluster_id": 1, "rank_in_cluster": 18}

>  <energy>  (23) 
-9.37

>  <cluster_rmsd>  (23) 
0.61

>  <cluster>  (23) 
1

$$$$

     RDKit          3D

 51 54  0  0  0  0  0  0  0  0999 V2000
  141.3570   71.8150  221.8960 O   0  0  0  0  0  0  0  0  0  0  0  0
  140.3610   71.9120  222.6850 C   0  0  0  0  0  0  0  0  0  0  0  0
  139.4160   72.9430  222.4400 N   0  0  0  0  0  0  0  0  0  0  0  0
  139.6800   73.8050  221.2910 C   0  0  0  0  0  0  0  0  0  0  0  0
  139.9050   75.2090  221.7210 C   0  0  0  0  0  0  0  0  0  0  0  0
  139.2720   75.7740  222.6360 O   0  0  0  0  0  0  0  0  0  0  0  0
  140.9060   75.9590  221.0470 N   0  0  0  0  0  0  0  0  0  0  0  0
  142.1980   75.3000  220.8030 C   0  0  0  0  0  0  0  0  0  0  0  0
  142.3380   75.1890  219.2810 C   0  0  0  0  0  0  0  0  0  0  0  0
  141.8030   76.4140  218.5950 C   0  0  0  0  0  0  0  0  0  0  0  0
  141.7980   77.5970  219.5550 C   0  0  0  0  0  0  0  0  0  0  0  0
  140.7360   77.3130  220.5920 C   0  0  2  0  0  0  0  0  0  0  0  0
  140.6890   78.3250  221.6530 C   0  0  0  0  0  0  0  0  0  0  0  0
  141.8560   78.9110  222.1580 C   0  0  0  0  0  0  0  0  0  0  0  0
  141.8210   79.8630  223.1540 C   0  0  0  0  0  0  0  0  0  0  0  0
  143.3590   80.5180  223.7000 Cl  0  0  0  0  0  0  0  0  0  0  0  0
  140.6160   80.2790  223.6990 C   0  0  0  0  0  0  0  0  0  0  0  0
  139.4780   79.6950  223.1920 C   0  0  0  0  0  0  0  0  0  0  0  0
  137.9200   80.1920  223.8520 Cl  0  0  0  0  0  0  0  0  0  0  0  0
  139.4820   78.7420  222.1970 C   0  0  0  0  0  0  0  0  0  0  0  0
  140.2040   70.9940  223.7960 C   0  0  0  0  0  0  0  0  0  0  0  0
  139.5160   69.8110  223.6030 C   0  0  0  0  0  0  0  0  0  0  0  0
  139.3260   68.8880  224.6110 C   0  0  0  0  0  0  0  0  0  0  0  0
  139.8430   69.1610  225.8570 C   0  0  0  0  0  0  0  0  0  0  0  0
  139.6630   68.2520  226.8760 C   0  0  0  0  0  0  0  0  0  0  0  0
  140.1820   68.5360  228.1080 C   0  0  0  0  0  0  0  0  0  0  0  0
  140.8780   69.7220  228.3280 C   0  0  0  0  0  0  0  0  0  0  0  0
  141.0350   70.6120  227.2690 C   0  0  0  0  0  0  0  0  0  0  0  0
  140.5240   70.3510  226.0180 C   0  0  0  0  0  0  0  0  0  0  0  0
  140.7010   71.2410  225.0240 N   0  0  0  0  0  0  0  0  0  0  0  0
  138.5790   73.0680  223.0560 H   0  0  0  0  0  0  0  0  0  0  0  0
  140.5758   73.4412  220.7664 H   0  0  0  0  0  0  0  0  0  0  0  0
  138.8059   73.7780  220.6238 H   0  0  0  0  0  0  0  0  0  0  0  0
  143.0186   75.9030  221.2188 H   0  0  0  0  0  0  0  0  0  0  0  0
  142.2419   74.3115  221.2836 H   0  0  0  0  0  0  0  0  0  0  0  0
  143.4015   75.0708  219.0263 H   0  0  0  0  0  0  0  0  0  0  0  0
  141.7584   74.3183  218.9407 H   0  0  0  0  0  0  0  0  0  0  0  0
  142.4384   76.6518  217.7291 H   0  0  0  0  0  0  0  0  0  0  0  0
  140.7727   76.2176  218.2633 H   0  0  0  0  0  0  0  0  0  0  0  0
  142.7814   77.6972  220.0376 H   0  0  0  0  0  0  0  0  0  0  0  0
  141.5887   78.5366  219.0226 H   0  0  0  0  0  0  0  0  0  0  0  0
  139.7348   77.3936  220.1435 H   0  0  0  0  0  0  0  0  0  0  0  0
  142.8290   78.6026  221.7479 H   0  0  0  0  0  0  0  0  0  0  0  0
  140.5720   81.0366  224.4953 H   0  0  0  0  0  0  0  0  0  0  0  0
  138.5349   78.3144  221.8361 H   0  0  0  0  0  0  0  0  0  0  0  0
  139.1034   69.5967  222.6061 H   0  0  0  0  0  0  0  0  0  0  0  0
  138.7739   67.9553  224.4230 H   0  0  0  0  0  0  0  0  0  0  0  0
  139.1123   67.3159  226.7017 H   0  0  0  0  0  0  0  0  0  0  0  0
  140.0488   67.8212  228.9334 H   0  0  0  0  0  0  0  0  0  0  0  0
  141.2957   69.9512  229.3195 H   0  0  0  0  0  0  0  0  0  0  0  0
  141.5832   71.5508  227.4369 H   0  0  0  0  0  0  0  0  0  0  0  0
  1  2  2  0
  2  3  1  0
  3  4  1  0
  4  5  1  0
  5  6  2  0
  5  7  1  0
  7  8  1  0
  8  9  1  0
  9 10  1  0
 10 11  1  0
 11 12  1  0
 12 13  1  0
 13 14  2  0
 14 15  1  0
 15 16  1  0
 15 17  2  0
 17 18  1  0
 18 19  1  0
 18 20  2  0
  2 21  1  0
 21 22  2  0
 22 23  1  0
 23 24  2  0
 24 25  1  0
 25 26  2  0
 26 27  1  0
 27 28  2  0
 28 29  1  0
 29 30  2  0
 12  7  1  0
 20 13  1  0
 30 21  1  0
 29 24  1  0
  3 31  1  0
  4 32  1  0
  4 33  1  0
  8 34  1  0
  8 35  1  0
  9 36  1  0
  9 37  1  0
 10 38  1  0
 10 39  1  0
 11 40  1  0
 11 41  1  0
 12 42  1  6
 14 43  1  0
 17 44  1  0
 20 45  1  0
 22 46  1  0
 23 47  1  0
 25 48  1  0
 26 49  1  0
 27 50  1  0
 28 51  1  0
M  END
>  <smiles>  (24) 
O=C(NCC(=O)N1CCCCC1c1cc(Cl)cc(Cl)c1)c1ccc2ccccc2n1

>  <score_type>  (24) 
oracle

>  <origin>  (24) 
autodockgpu

>  <m_score__min__energy>  (24) 
-9.6699999999999999

>  <m_primary>  (24) 
energy

>  <rmsd>  (24) 
2.040026662353826

>  <m_score__min__rmsd>  (24) 
2.040026662353826

>  <meeko>  (24) 
{"free_energy": -9.62, "intermolecular_energy": -11.11, "internal_energy": -1.5, "cluster_size": 38, "cluster_id": 1, "rank_in_cluster": 5}

>  <energy>  (24) 
-9.36

>  <cluster_rmsd>  (24) 
0.73

>  <cluster>  (24) 
1

$$$$

     RDKit          3D

 51 54  0  0  0  0  0  0  0  0999 V2000
  140.5480   71.0910  221.4890 O   0  0  0  0  0  0  0  0  0  0  0  0
  140.1840   71.5690  222.6130 C   0  0  0  0  0  0  0  0  0  0  0  0
  139.8950   72.9580  222.6830 N   0  0  0  0  0  0  0  0  0  0  0  0
  140.0460   73.7150  221.4430 C   0  0  0  0  0  0  0  0  0  0  0  0
  140.0690   75.1750  221.7130 C   0  0  0  0  0  0  0  0  0  0  0  0
  139.3770   75.7410  222.5840 O   0  0  0  0  0  0  0  0  0  0  0  0
  140.9350   75.9840  220.9280 N   0  0  0  0  0  0  0  0  0  0  0  0
  142.2300   75.4080  220.5360 C   0  0  0  0  0  0  0  0  0  0  0  0
  142.2000   75.2940  219.0080 C   0  0  0  0  0  0  0  0  0  0  0  0
  141.5110   76.4770  218.3890 C   0  0  0  0  0  0  0  0  0  0  0  0
  141.5400   77.6650  219.3430 C   0  0  0  0  0  0  0  0  0  0  0  0
  140.6260   77.3200  220.4950 C   0  0  2  0  0  0  0  0  0  0  0  0
  140.6360   78.3350  221.5540 C   0  0  0  0  0  0  0  0  0  0  0  0
  139.4520   78.7760  222.1570 C   0  0  0  0  0  0  0  0  0  0  0  0
  139.4520   79.7280  223.1530 C   0  0  0  0  0  0  0  0  0  0  0  0
  137.8950   80.1940  223.8270 Cl  0  0  0  0  0  0  0  0  0  0  0  0
  140.6380   80.2930  223.5980 C   0  0  0  0  0  0  0  0  0  0  0  0
  141.7930   79.8500  222.9970 C   0  0  0  0  0  0  0  0  0  0  0  0
  143.3280   80.5370  223.5290 Cl  0  0  0  0  0  0  0  0  0  0  0  0
  141.8240   78.8990  222.0010 C   0  0  0  0  0  0  0  0  0  0  0  0
  140.0690   70.7150  223.7790 C   0  0  0  0  0  0  0  0  0  0  0  0
  139.3710   69.5260  223.6790 C   0  0  0  0  0  0  0  0  0  0  0  0
  139.2190   68.6610  224.7440 C   0  0  0  0  0  0  0  0  0  0  0  0
  139.7860   69.0010  225.9510 C   0  0  0  0  0  0  0  0  0  0  0  0
  139.6450   68.1510  227.0250 C   0  0  0  0  0  0  0  0  0  0  0  0
  140.2130   68.5000  228.2180 C   0  0  0  0  0  0  0  0  0  0  0  0
  140.9200   69.6940  228.3440 C   0  0  0  0  0  0  0  0  0  0  0  0
  141.0370   70.5220  227.2310 C   0  0  0  0  0  0  0  0  0  0  0  0
  140.4760   70.1950  226.0180 C   0  0  0  0  0  0  0  0  0  0  0  0
  140.6150   71.0270  224.9700 N   0  0  0  0  0  0  0  0  0  0  0  0
  139.5910   73.4020  223.5800 H   0  0  0  0  0  0  0  0  0  0  0  0
  140.9883   73.4239  220.9558 H   0  0  0  0  0  0  0  0  0  0  0  0
  139.1904   73.4920  220.7887 H   0  0  0  0  0  0  0  0  0  0  0  0
  143.0522   76.0661  220.8536 H   0  0  0  0  0  0  0  0  0  0  0  0
  142.3934   74.4283  221.0087 H   0  0  0  0  0  0  0  0  0  0  0  0
  143.2323   75.2424  218.6316 H   0  0  0  0  0  0  0  0  0  0  0  0
  141.6429   74.3850  218.7371 H   0  0  0  0  0  0  0  0  0  0  0  0
  142.0252   76.7488  217.4553 H   0  0  0  0  0  0  0  0  0  0  0  0
  140.4642   76.2120  218.1794 H   0  0  0  0  0  0  0  0  0  0  0  0
  142.5638   77.8325  219.7086 H   0  0  0  0  0  0  0  0  0  0  0  0
  141.2102   78.5852  218.8386 H   0  0  0  0  0  0  0  0  0  0  0  0
  139.5769   77.3311  220.1646 H   0  0  0  0  0  0  0  0  0  0  0  0
  138.4935   78.3499  221.8258 H   0  0  0  0  0  0  0  0  0  0  0  0
  140.6540   81.0558  224.3904 H   0  0  0  0  0  0  0  0  0  0  0  0
  142.7837   78.5881  221.5624 H   0  0  0  0  0  0  0  0  0  0  0  0
  138.9188   69.2586  222.7126 H   0  0  0  0  0  0  0  0  0  0  0  0
  138.6577   67.7218  224.6305 H   0  0  0  0  0  0  0  0  0  0  0  0
  139.0859   67.2090  226.9247 H   0  0  0  0  0  0  0  0  0  0  0  0
  140.1111   67.8325  229.0863 H   0  0  0  0  0  0  0  0  0  0  0  0
  141.3767   69.9768  229.3039 H   0  0  0  0  0  0  0  0  0  0  0  0
  141.5945   71.4657  227.3241 H   0  0  0  0  0  0  0  0  0  0  0  0
  1  2  2  0
  2  3  1  0
  3  4  1  0
  4  5  1  0
  5  6  2  0
  5  7  1  0
  7  8  1  0
  8  9  1  0
  9 10  1  0
 10 11  1  0
 11 12  1  0
 12 13  1  0
 13 14  2  0
 14 15  1  0
 15 16  1  0
 15 17  2  0
 17 18  1  0
 18 19  1  0
 18 20  2  0
  2 21  1  0
 21 22  2  0
 22 23  1  0
 23 24  2  0
 24 25  1  0
 25 26  2  0
 26 27  1  0
 27 28  2  0
 28 29  1  0
 29 30  2  0
 12  7  1  0
 20 13  1  0
 30 21  1  0
 29 24  1  0
  3 31  1  0
  4 32  1  0
  4 33  1  0
  8 34  1  0
  8 35  1  0
  9 36  1  0
  9 37  1  0
 10 38  1  0
 10 39  1  0
 11 40  1  0
 11 41  1  0
 12 42  1  6
 14 43  1  0
 17 44  1  0
 20 45  1  0
 22 46  1  0
 23 47  1  0
 25 48  1  0
 26 49  1  0
 27 50  1  0
 28 51  1  0
M  END
>  <smiles>  (25) 
O=C(NCC(=O)N1CCCCC1c1cc(Cl)cc(Cl)c1)c1ccc2ccccc2n1

>  <score_type>  (25) 
oracle

>  <origin>  (25) 
autodockgpu

>  <m_score__min__energy>  (25) 
-9.6699999999999999

>  <m_primary>  (25) 
energy

>  <rmsd>  (25) 
1.974646489898392

>  <m_score__min__rmsd>  (25) 
1.974646489898392

>  <meeko>  (25) 
{"free_energy": -9.39, "intermolecular_energy": -10.88, "internal_energy": -1.61, "cluster_size": 38, "cluster_id": 1, "rank_in_cluster": 20}

>  <energy>  (25) 
-9.35

>  <cluster_rmsd>  (25) 
1.19

>  <cluster>  (25) 
1

$$$$

     RDKit          3D

 51 54  0  0  0  0  0  0  0  0999 V2000
  136.4860   76.9990  222.1250 O   0  0  0  0  0  0  0  0  0  0  0  0
  136.5580   75.8870  222.7430 C   0  0  0  0  0  0  0  0  0  0  0  0
  137.5840   74.9800  222.3640 N   0  0  0  0  0  0  0  0  0  0  0  0
  138.4690   75.4160  221.2880 C   0  0  0  0  0  0  0  0  0  0  0  0
  139.8820   75.0750  221.5920 C   0  0  0  0  0  0  0  0  0  0  0  0
  140.2350   74.1350  222.3330 O   0  0  0  0  0  0  0  0  0  0  0  0
  140.9010   75.8690  221.0000 N   0  0  0  0  0  0  0  0  0  0  0  0
  142.2340   75.2650  220.8560 C   0  0  0  0  0  0  0  0  0  0  0  0
  142.4950   75.1690  219.3490 C   0  0  0  0  0  0  0  0  0  0  0  0
  141.9660   76.3760  218.6270 C   0  0  0  0  0  0  0  0  0  0  0  0
  141.8380   77.5520  219.5880 C   0  0  0  0  0  0  0  0  0  0  0  0
  140.7120   77.2180  220.5380 C   0  0  2  0  0  0  0  0  0  0  0  0
  140.5410   78.2210  221.5950 C   0  0  0  0  0  0  0  0  0  0  0  0
  141.6390   78.8650  222.1770 C   0  0  0  0  0  0  0  0  0  0  0  0
  141.4880   79.8080  223.1710 C   0  0  0  0  0  0  0  0  0  0  0  0
  142.9500   80.5410  223.8180 Cl  0  0  0  0  0  0  0  0  0  0  0  0
  140.2290   80.1570  223.6350 C   0  0  0  0  0  0  0  0  0  0  0  0
  139.1600   79.5160  223.0530 C   0  0  0  0  0  0  0  0  0  0  0  0
  137.5370   79.9260  223.6100 Cl  0  0  0  0  0  0  0  0  0  0  0  0
  139.2800   78.5710  222.0590 C   0  0  0  0  0  0  0  0  0  0  0  0
  135.6190   75.5640  223.8000 C   0  0  0  0  0  0  0  0  0  0  0  0
  134.9100   76.5840  224.4070 C   0  0  0  0  0  0  0  0  0  0  0  0
  133.9990   76.3560  225.4180 C   0  0  0  0  0  0  0  0  0  0  0  0
  133.7930   75.0620  225.8370 C   0  0  0  0  0  0  0  0  0  0  0  0
  132.8880   74.8140  226.8450 C   0  0  0  0  0  0  0  0  0  0  0  0
  132.6930   73.5240  227.2500 C   0  0  0  0  0  0  0  0  0  0  0  0
  133.3970   72.4800  226.6540 C   0  0  0  0  0  0  0  0  0  0  0  0
  134.3010   72.7760  225.6390 C   0  0  0  0  0  0  0  0  0  0  0  0
  134.5170   74.0660  225.2110 C   0  0  0  0  0  0  0  0  0  0  0  0
  135.4020   74.3050  224.2260 N   0  0  0  0  0  0  0  0  0  0  0  0
  137.6890   74.0540  222.8390 H   0  0  0  0  0  0  0  0  0  0  0  0
  138.1716   74.9182  220.3533 H   0  0  0  0  0  0  0  0  0  0  0  0
  138.3856   76.5080  221.1855 H   0  0  0  0  0  0  0  0  0  0  0  0
  142.9944   75.8987  221.3358 H   0  0  0  0  0  0  0  0  0  0  0  0
  142.2820   74.2767  221.3365 H   0  0  0  0  0  0  0  0  0  0  0  0
  143.5789   75.0945  219.1768 H   0  0  0  0  0  0  0  0  0  0  0  0
  141.9783   74.2782  218.9625 H   0  0  0  0  0  0  0  0  0  0  0  0
  142.6570   76.6447  217.8144 H   0  0  0  0  0  0  0  0  0  0  0  0
  140.9737   76.1405  218.2148 H   0  0  0  0  0  0  0  0  0  0  0  0
  142.7761   77.6892  220.1458 H   0  0  0  0  0  0  0  0  0  0  0  0
  141.6321   78.4858  219.0442 H   0  0  0  0  0  0  0  0  0  0  0  0
  139.7460   77.2601  220.0135 H   0  0  0  0  0  0  0  0  0  0  0  0
  142.6519   78.6112  221.8311 H   0  0  0  0  0  0  0  0  0  0  0  0
  140.0920   80.9075  224.4274 H   0  0  0  0  0  0  0  0  0  0  0  0
  138.3827   78.0963  221.6352 H   0  0  0  0  0  0  0  0  0  0  0  0
  135.0787   77.6177  224.0708 H   0  0  0  0  0  0  0  0  0  0  0  0
  133.4497   77.1903  225.8786 H   0  0  0  0  0  0  0  0  0  0  0  0
  132.3327   75.6390  227.3151 H   0  0  0  0  0  0  0  0  0  0  0  0
  131.9738   73.3077  228.0537 H   0  0  0  0  0  0  0  0  0  0  0  0
  133.2410   71.4411  226.9799 H   0  0  0  0  0  0  0  0  0  0  0  0
  134.8593   71.9553  225.1648 H   0  0  0  0  0  0  0  0  0  0  0  0
  1  2  2  0
  2  3  1  0
  3  4  1  0
  4  5  1  0
  5  6  2  0
  5  7  1  0
  7  8  1  0
  8  9  1  0
  9 10  1  0
 10 11  1  0
 11 12  1  0
 12 13  1  0
 13 14  2  0
 14 15  1  0
 15 16  1  0
 15 17  2  0
 17 18  1  0
 18 19  1  0
 18 20  2  0
  2 21  1  0
 21 22  2  0
 22 23  1  0
 23 24  2  0
 24 25  1  0
 25 26  2  0
 26 27  1  0
 27 28  2  0
 28 29  1  0
 29 30  2  0
 12  7  1  0
 20 13  1  0
 30 21  1  0
 29 24  1  0
  3 31  1  0
  4 32  1  0
  4 33  1  0
  8 34  1  0
  8 35  1  0
  9 36  1  0
  9 37  1  0
 10 38  1  0
 10 39  1  0
 11 40  1  0
 11 41  1  0
 12 42  1  6
 14 43  1  0
 17 44  1  0
 20 45  1  0
 22 46  1  0
 23 47  1  0
 25 48  1  0
 26 49  1  0
 27 50  1  0
 28 51  1  0
M  END
>  <smiles>  (26) 
O=C(NCC(=O)N1CCCCC1c1cc(Cl)cc(Cl)c1)c1ccc2ccccc2n1

>  <score_type>  (26) 
oracle

>  <origin>  (26) 
autodockgpu

>  <m_score__min__energy>  (26) 
-9.6699999999999999

>  <m_primary>  (26) 
energy

>  <rmsd>  (26) 
5.878041682291566

>  <m_score__min__rmsd>  (26) 
5.878041682291566

>  <meeko>  (26) 
{"free_energy": -8.13, "intermolecular_energy": -9.63, "internal_energy": -2.11, "cluster_size": 2, "cluster_id": 4, "rank_in_cluster": 2}

>  <energy>  (26) 
-9.34

>  <cluster_rmsd>  (26) 
1.42

>  <cluster>  (26) 
1

$$$$

     RDKit          3D

 51 54  0  0  0  0  0  0  0  0999 V2000
  141.4580   71.8630  222.0830 O   0  0  0  0  0  0  0  0  0  0  0  0
  140.4690   71.9630  222.8800 C   0  0  0  0  0  0  0  0  0  0  0  0
  139.3720   72.7720  222.4800 N   0  0  0  0  0  0  0  0  0  0  0  0
  139.4850   73.4200  221.1770 C   0  0  0  0  0  0  0  0  0  0  0  0
  140.1140   74.7590  221.3030 C   0  0  0  0  0  0  0  0  0  0  0  0
  140.0750   75.4600  222.3350 O   0  0  0  0  0  0  0  0  0  0  0  0
  140.8060   75.2790  220.1760 N   0  0  0  0  0  0  0  0  0  0  0  0
  140.0240   75.5250  218.9550 C   0  0  0  0  0  0  0  0  0  0  0  0
  140.0680   77.0390  218.7200 C   0  0  0  0  0  0  0  0  0  0  0  0
  141.4180   77.6030  219.0590 C   0  0  0  0  0  0  0  0  0  0  0  0
  142.4790   76.5100  218.9950 C   0  0  0  0  0  0  0  0  0  0  0  0
  142.2130   75.5780  220.1550 C   0  0  2  0  0  0  0  0  0  0  0  0
  143.0980   74.4080  220.1600 C   0  0  0  0  0  0  0  0  0  0  0  0
  142.7490   73.2230  219.5030 C   0  0  0  0  0  0  0  0  0  0  0  0
  143.5740   72.1190  219.5030 C   0  0  0  0  0  0  0  0  0  0  0  0
  143.0160   70.6920  218.6400 Cl  0  0  0  0  0  0  0  0  0  0  0  0
  144.7940   72.1420  220.1620 C   0  0  0  0  0  0  0  0  0  0  0  0
  145.1230   73.3140  220.8030 C   0  0  0  0  0  0  0  0  0  0  0  0
  146.6660   73.3940  221.6550 Cl  0  0  0  0  0  0  0  0  0  0  0  0
  144.3200   74.4320  220.8200 C   0  0  0  0  0  0  0  0  0  0  0  0
  140.4690   71.2690  224.1530 C   0  0  0  0  0  0  0  0  0  0  0  0
  141.0000   71.8980  225.2640 C   0  0  0  0  0  0  0  0  0  0  0  0
  141.0370   71.3030  226.5090 C   0  0  0  0  0  0  0  0  0  0  0  0
  140.5240   70.0330  226.6440 C   0  0  0  0  0  0  0  0  0  0  0  0
  140.5510   69.4230  227.8790 C   0  0  0  0  0  0  0  0  0  0  0  0
  140.0390   68.1620  228.0000 C   0  0  0  0  0  0  0  0  0  0  0  0
  139.4990   67.5080  226.8940 C   0  0  0  0  0  0  0  0  0  0  0  0
  139.4920   68.1630  225.6660 C   0  0  0  0  0  0  0  0  0  0  0  0
  140.0020   69.4330  225.5160 C   0  0  0  0  0  0  0  0  0  0  0  0
  139.9730   70.0270  224.3090 N   0  0  0  0  0  0  0  0  0  0  0  0
  138.5330   72.8880  223.0950 H   0  0  0  0  0  0  0  0  0  0  0  0
  140.1015   72.7935  220.5156 H   0  0  0  0  0  0  0  0  0  0  0  0
  138.4755   73.5443  220.7580 H   0  0  0  0  0  0  0  0  0  0  0  0
  140.4706   74.9931  218.1020 H   0  0  0  0  0  0  0  0  0  0  0  0
  138.9901   75.1645  219.0605 H   0  0  0  0  0  0  0  0  0  0  0  0
  139.8490   77.2442  217.6617 H   0  0  0  0  0  0  0  0  0  0  0  0
  139.3190   77.5141  219.3707 H   0  0  0  0  0  0  0  0  0  0  0  0
  141.6707   78.3966  218.3404 H   0  0  0  0  0  0  0  0  0  0  0  0
  141.3884   78.0139  220.0790 H   0  0  0  0  0  0  0  0  0  0  0  0
  142.4027   75.9628  218.0438 H   0  0  0  0  0  0  0  0  0  0  0  0
  143.4910   76.9370  219.0545 H   0  0  0  0  0  0  0  0  0  0  0  0
  142.4651   76.0711  221.1054 H   0  0  0  0  0  0  0  0  0  0  0  0
  141.7877   73.1710  218.9708 H   0  0  0  0  0  0  0  0  0  0  0  0
  145.4634   71.2692  220.1717 H   0  0  0  0  0  0  0  0  0  0  0  0
  144.6439   75.3383  221.3527 H   0  0  0  0  0  0  0  0  0  0  0  0
  141.4092   72.9128  225.1512 H   0  0  0  0  0  0  0  0  0  0  0  0
  141.4664   71.8314  227.3729 H   0  0  0  0  0  0  0  0  0  0  0  0
  140.9766   69.9412  228.7510 H   0  0  0  0  0  0  0  0  0  0  0  0
  140.0531   67.6589  228.9781 H   0  0  0  0  0  0  0  0  0  0  0  0
  139.0860   66.4930  226.9899 H   0  0  0  0  0  0  0  0  0  0  0  0
  139.0668   67.6512  224.7901 H   0  0  0  0  0  0  0  0  0  0  0  0
  1  2  2  0
  2  3  1  0
  3  4  1  0
  4  5  1  0
  5  6  2  0
  5  7  1  0
  7  8  1  0
  8  9  1  0
  9 10  1  0
 10 11  1  0
 11 12  1  0
 12 13  1  0
 13 14  2  0
 14 15  1  0
 15 16  1  0
 15 17  2  0
 17 18  1  0
 18 19  1  0
 18 20  2  0
  2 21  1  0
 21 22  2  0
 22 23  1  0
 23 24  2  0
 24 25  1  0
 25 26  2  0
 26 27  1  0
 27 28  2  0
 28 29  1  0
 29 30  2  0
 12  7  1  0
 20 13  1  0
 30 21  1  0
 29 24  1  0
  3 31  1  0
  4 32  1  0
  4 33  1  0
  8 34  1  0
  8 35  1  0
  9 36  1  0
  9 37  1  0
 10 38  1  0
 10 39  1  0
 11 40  1  0
 11 41  1  0
 12 42  1  1
 14 43  1  0
 17 44  1  0
 20 45  1  0
 22 46  1  0
 23 47  1  0
 25 48  1  0
 26 49  1  0
 27 50  1  0
 28 51  1  0
M  END
>  <smiles>  (27) 
O=C(NCC(=O)N1CCCCC1c1cc(Cl)cc(Cl)c1)c1ccc2ccccc2n1

>  <score_type>  (27) 
oracle

>  <origin>  (27) 
autodockgpu

>  <m_score__min__energy>  (27) 
-9.6699999999999999

>  <m_primary>  (27) 
energy

>  <rmsd>  (27) 
2.7436483130042593

>  <m_score__min__rmsd>  (27) 
2.7436483130042593

>  <meeko>  (27) 
{"free_energy": -8.9, "intermolecular_energy": -10.39, "internal_energy": -1.92, "cluster_size": 9, "cluster_id": 2, "rank_in_cluster": 6}

>  <energy>  (27) 
-9.33

>  <cluster_rmsd>  (27) 
1.83

>  <cluster>  (27) 
1

$$$$

     RDKit          3D

 51 54  0  0  0  0  0  0  0  0999 V2000
  140.9370   71.5930  221.4360 O   0  0  0  0  0  0  0  0  0  0  0  0
  140.3560   72.1710  222.4120 C   0  0  0  0  0  0  0  0  0  0  0  0
  139.9240   73.5120  222.2300 N   0  0  0  0  0  0  0  0  0  0  0  0
  140.1910   74.1070  220.9230 C   0  0  0  0  0  0  0  0  0  0  0  0
  141.6250   74.4640  220.7850 C   0  0  0  0  0  0  0  0  0  0  0  0
  142.5680   73.7660  221.2120 O   0  0  0  0  0  0  0  0  0  0  0  0
  141.9490   75.6790  220.1230 N   0  0  0  0  0  0  0  0  0  0  0  0
  143.3480   75.8790  219.7180 C   0  0  0  0  0  0  0  0  0  0  0  0
  143.3430   75.9370  218.1870 C   0  0  0  0  0  0  0  0  0  0  0  0
  142.1390   76.6740  217.6750 C   0  0  0  0  0  0  0  0  0  0  0  0
  141.5900   77.6020  218.7520 C   0  0  0  0  0  0  0  0  0  0  0  0
  141.0000   76.7190  219.8280 C   0  0  2  0  0  0  0  0  0  0  0  0
  140.5240   77.4760  220.9900 C   0  0  0  0  0  0  0  0  0  0  0  0
  141.4030   78.2100  221.7960 C   0  0  0  0  0  0  0  0  0  0  0  0
  140.9640   78.9250  222.8900 C   0  0  0  0  0  0  0  0  0  0  0  0
  142.1730   79.8030  223.8190 Cl  0  0  0  0  0  0  0  0  0  0  0  0
  139.6220   78.9430  223.2360 C   0  0  0  0  0  0  0  0  0  0  0  0
  138.7710   78.2180  222.4350 C   0  0  0  0  0  0  0  0  0  0  0  0
  137.0530   78.2100  222.8340 Cl  0  0  0  0  0  0  0  0  0  0  0  0
  139.1800   77.4950  221.3370 C   0  0  0  0  0  0  0  0  0  0  0  0
  140.1460   71.4760  223.6660 C   0  0  0  0  0  0  0  0  0  0  0  0
  139.3520   70.3440  223.6870 C   0  0  0  0  0  0  0  0  0  0  0  0
  139.1060   69.6290  224.8410 C   0  0  0  0  0  0  0  0  0  0  0  0
  139.6750   70.0630  226.0160 C   0  0  0  0  0  0  0  0  0  0  0  0
  139.4410   69.3620  227.1780 C   0  0  0  0  0  0  0  0  0  0  0  0
  140.0130   69.8040  228.3380 C   0  0  0  0  0  0  0  0  0  0  0  0
  140.8160   70.9420  228.3430 C   0  0  0  0  0  0  0  0  0  0  0  0
  141.0260   71.6190  227.1450 C   0  0  0  0  0  0  0  0  0  0  0  0
  140.4620   71.1960  225.9620 C   0  0  0  0  0  0  0  0  0  0  0  0
  140.6930   71.8820  224.8290 N   0  0  0  0  0  0  0  0  0  0  0  0
  139.4410   74.0340  222.9970 H   0  0  0  0  0  0  0  0  0  0  0  0
  139.9226   73.3853  220.1374 H   0  0  0  0  0  0  0  0  0  0  0  0
  139.5904   75.0234  220.8254 H   0  0  0  0  0  0  0  0  0  0  0  0
  143.7351   76.8207  220.1344 H   0  0  0  0  0  0  0  0  0  0  0  0
  143.9931   75.0682  220.0873 H   0  0  0  0  0  0  0  0  0  0  0  0
  144.2520   76.4532  217.8446 H   0  0  0  0  0  0  0  0  0  0  0  0
  143.3119   74.9079  217.7997 H   0  0  0  0  0  0  0  0  0  0  0  0
  142.4246   77.2686  216.7947 H   0  0  0  0  0  0  0  0  0  0  0  0
  141.3625   75.9446  217.4010 H   0  0  0  0  0  0  0  0  0  0  0  0
  142.3995   78.2187  219.1695 H   0  0  0  0  0  0  0  0  0  0  0  0
  140.8308   78.2821  218.3384 H   0  0  0  0  0  0  0  0  0  0  0  0
  140.0788   76.2398  219.4650 H   0  0  0  0  0  0  0  0  0  0  0  0
  142.4749   78.2163  221.5491 H   0  0  0  0  0  0  0  0  0  0  0  0
  139.2565   79.5079  224.1062 H   0  0  0  0  0  0  0  0  0  0  0  0
  138.4461   76.9357  220.7382 H   0  0  0  0  0  0  0  0  0  0  0  0
  138.8984   69.9998  222.7459 H   0  0  0  0  0  0  0  0  0  0  0  0
  138.4693   68.7322  224.8220 H   0  0  0  0  0  0  0  0  0  0  0  0
  138.8061   68.4638  227.1727 H   0  0  0  0  0  0  0  0  0  0  0  0
  139.8377   69.2562  229.2757 H   0  0  0  0  0  0  0  0  0  0  0  0
  141.2757   71.2992  229.2763 H   0  0  0  0  0  0  0  0  0  0  0  0
  141.6606   72.5175  227.1432 H   0  0  0  0  0  0  0  0  0  0  0  0
  1  2  2  0
  2  3  1  0
  3  4  1  0
  4  5  1  0
  5  6  2  0
  5  7  1  0
  7  8  1  0
  8  9  1  0
  9 10  1  0
 10 11  1  0
 11 12  1  0
 12 13  1  0
 13 14  2  0
 14 15  1  0
 15 16  1  0
 15 17  2  0
 17 18  1  0
 18 19  1  0
 18 20  2  0
  2 21  1  0
 21 22  2  0
 22 23  1  0
 23 24  2  0
 24 25  1  0
 25 26  2  0
 26 27  1  0
 27 28  2  0
 28 29  1  0
 29 30  2  0
 12  7  1  0
 20 13  1  0
 30 21  1  0
 29 24  1  0
  3 31  1  0
  4 32  1  0
  4 33  1  0
  8 34  1  0
  8 35  1  0
  9 36  1  0
  9 37  1  0
 10 38  1  0
 10 39  1  0
 11 40  1  0
 11 41  1  0
 12 42  1  6
 14 43  1  0
 17 44  1  0
 20 45  1  0
 22 46  1  0
 23 47  1  0
 25 48  1  0
 26 49  1  0
 27 50  1  0
 28 51  1  0
M  END
>  <smiles>  (28) 
O=C(NCC(=O)N1CCCCC1c1cc(Cl)cc(Cl)c1)c1ccc2ccccc2n1

>  <score_type>  (28) 
oracle

>  <origin>  (28) 
autodockgpu

>  <m_score__min__energy>  (28) 
-9.6699999999999999

>  <m_primary>  (28) 
energy

>  <rmsd>  (28) 
2.2426698558338862

>  <m_score__min__rmsd>  (28) 
2.2426698558338862

>  <meeko>  (28) 
{"free_energy": -8.94, "intermolecular_energy": -10.43, "internal_energy": -1.45, "cluster_size": 38, "cluster_id": 1, "rank_in_cluster": 38}

>  <energy>  (28) 
-9.32

>  <cluster_rmsd>  (28) 
1.72

>  <cluster>  (28) 
1

$$$$

     RDKit          3D

 51 54  0  0  0  0  0  0  0  0999 V2000
  141.4230   72.2070  222.0710 O   0  0  0  0  0  0  0  0  0  0  0  0
  140.3310   72.1480  222.7250 C   0  0  0  0  0  0  0  0  0  0  0  0
  139.2840   73.0330  222.3530 N   0  0  0  0  0  0  0  0  0  0  0  0
  139.5630   73.9370  221.2420 C   0  0  0  0  0  0  0  0  0  0  0  0
  139.9180   75.2920  221.7360 C   0  0  0  0  0  0  0  0  0  0  0  0
  139.4450   75.8100  222.7670 O   0  0  0  0  0  0  0  0  0  0  0  0
  140.8570   76.0500  220.9850 N   0  0  0  0  0  0  0  0  0  0  0  0
  142.1370   75.4060  220.6540 C   0  0  0  0  0  0  0  0  0  0  0  0
  142.1680   75.2830  219.1270 C   0  0  0  0  0  0  0  0  0  0  0  0
  141.5680   76.4940  218.4710 C   0  0  0  0  0  0  0  0  0  0  0  0
  141.6150   77.6860  219.4190 C   0  0  0  0  0  0  0  0  0  0  0  0
  140.6350   77.3970  220.5320 C   0  0  2  0  0  0  0  0  0  0  0  0
  140.6500   78.4180  221.5850 C   0  0  0  0  0  0  0  0  0  0  0  0
  139.4650   78.9120  222.1430 C   0  0  0  0  0  0  0  0  0  0  0  0
  139.4700   79.8710  223.1330 C   0  0  0  0  0  0  0  0  0  0  0  0
  137.9110   80.4060  223.7480 Cl  0  0  0  0  0  0  0  0  0  0  0  0
  140.6620   80.3880  223.6170 C   0  0  0  0  0  0  0  0  0  0  0  0
  141.8180   79.8930  223.0600 C   0  0  0  0  0  0  0  0  0  0  0  0
  143.3610   80.5190  223.6420 Cl  0  0  0  0  0  0  0  0  0  0  0  0
  141.8440   78.9350  222.0710 C   0  0  0  0  0  0  0  0  0  0  0  0
  140.1700   71.2040  223.8140 C   0  0  0  0  0  0  0  0  0  0  0  0
  139.4810   70.0270  223.5910 C   0  0  0  0  0  0  0  0  0  0  0  0
  139.2870   69.0810  224.5760 C   0  0  0  0  0  0  0  0  0  0  0  0
  139.8010   69.3240  225.8290 C   0  0  0  0  0  0  0  0  0  0  0  0
  139.6170   68.3900  226.8260 C   0  0  0  0  0  0  0  0  0  0  0  0
  140.1330   68.6440  228.0660 C   0  0  0  0  0  0  0  0  0  0  0  0
  140.8300   69.8240  228.3160 C   0  0  0  0  0  0  0  0  0  0  0  0
  140.9920   70.7380  227.2780 C   0  0  0  0  0  0  0  0  0  0  0  0
  140.4830   70.5080  226.0200 C   0  0  0  0  0  0  0  0  0  0  0  0
  140.6640   71.4210  225.0490 N   0  0  0  0  0  0  0  0  0  0  0  0
  138.3660   73.0260  222.8560 H   0  0  0  0  0  0  0  0  0  0  0  0
  140.4024   73.5368  220.6544 H   0  0  0  0  0  0  0  0  0  0  0  0
  138.6601   74.0161  220.6187 H   0  0  0  0  0  0  0  0  0  0  0  0
  142.9771   76.0236  221.0045 H   0  0  0  0  0  0  0  0  0  0  0  0
  142.2295   74.4228  221.1385 H   0  0  0  0  0  0  0  0  0  0  0  0
  143.2119   75.1766  218.7969 H   0  0  0  0  0  0  0  0  0  0  0  0
  141.5771   74.4017  218.8370 H   0  0  0  0  0  0  0  0  0  0  0  0
  142.1363   76.7323  217.5598 H   0  0  0  0  0  0  0  0  0  0  0  0
  140.5195   76.2805  218.2158 H   0  0  0  0  0  0  0  0  0  0  0  0
  142.6290   77.8045  219.8285 H   0  0  0  0  0  0  0  0  0  0  0  0
  141.3543   78.6175  218.8953 H   0  0  0  0  0  0  0  0  0  0  0  0
  139.6031   77.4593  220.1562 H   0  0  0  0  0  0  0  0  0  0  0  0
  138.5017   78.5235  221.7808 H   0  0  0  0  0  0  0  0  0  0  0  0
  140.6821   81.1545  224.4057 H   0  0  0  0  0  0  0  0  0  0  0  0
  142.8046   78.5814  221.6683 H   0  0  0  0  0  0  0  0  0  0  0  0
  139.0710   69.8369  222.5881 H   0  0  0  0  0  0  0  0  0  0  0  0
  138.7342   68.1538  224.3647 H   0  0  0  0  0  0  0  0  0  0  0  0
  139.0659   67.4589  226.6277 H   0  0  0  0  0  0  0  0  0  0  0  0
  139.9966   67.9100  228.8738 H   0  0  0  0  0  0  0  0  0  0  0  0
  141.2444   70.0297  229.3140 H   0  0  0  0  0  0  0  0  0  0  0  0
  141.5427   71.6709  227.4689 H   0  0  0  0  0  0  0  0  0  0  0  0
  1  2  2  0
  2  3  1  0
  3  4  1  0
  4  5  1  0
  5  6  2  0
  5  7  1  0
  7  8  1  0
  8  9  1  0
  9 10  1  0
 10 11  1  0
 11 12  1  0
 12 13  1  0
 13 14  2  0
 14 15  1  0
 15 16  1  0
 15 17  2  0
 17 18  1  0
 18 19  1  0
 18 20  2  0
  2 21  1  0
 21 22  2  0
 22 23  1  0
 23 24  2  0
 24 25  1  0
 25 26  2  0
 26 27  1  0
 27 28  2  0
 28 29  1  0
 29 30  2  0
 12  7  1  0
 20 13  1  0
 30 21  1  0
 29 24  1  0
  3 31  1  0
  4 32  1  0
  4 33  1  0
  8 34  1  0
  8 35  1  0
  9 36  1  0
  9 37  1  0
 10 38  1  0
 10 39  1  0
 11 40  1  0
 11 41  1  0
 12 42  1  6
 14 43  1  0
 17 44  1  0
 20 45  1  0
 22 46  1  0
 23 47  1  0
 25 48  1  0
 26 49  1  0
 27 50  1  0
 28 51  1  0
M  END
>  <smiles>  (29) 
O=C(NCC(=O)N1CCCCC1c1cc(Cl)cc(Cl)c1)c1ccc2ccccc2n1

>  <score_type>  (29) 
oracle

>  <origin>  (29) 
autodockgpu

>  <m_score__min__energy>  (29) 
-9.6699999999999999

>  <m_primary>  (29) 
energy

>  <rmsd>  (29) 
1.989008270901729

>  <m_score__min__rmsd>  (29) 
1.989008270901729

>  <meeko>  (29) 
{"free_energy": -9.54, "intermolecular_energy": -11.03, "internal_energy": -1.5, "cluster_size": 38, "cluster_id": 1, "rank_in_cluster": 7}

>  <energy>  (29) 
-9.3

>  <cluster_rmsd>  (29) 
1.63

>  <cluster>  (29) 
1

$$$$

     RDKit          3D

 51 54  0  0  0  0  0  0  0  0999 V2000
  140.8880   71.6500  221.3980 O   0  0  0  0  0  0  0  0  0  0  0  0
  140.3720   72.2150  222.4170 C   0  0  0  0  0  0  0  0  0  0  0  0
  139.9770   73.5740  222.2950 N   0  0  0  0  0  0  0  0  0  0  0  0
  140.2030   74.2010  220.9960 C   0  0  0  0  0  0  0  0  0  0  0  0
  141.6420   74.5110  220.7990 C   0  0  0  0  0  0  0  0  0  0  0  0
  142.5780   73.7820  221.1880 O   0  0  0  0  0  0  0  0  0  0  0  0
  141.9780   75.7160  220.1250 N   0  0  0  0  0  0  0  0  0  0  0  0
  143.3810   75.9020  219.7290 C   0  0  0  0  0  0  0  0  0  0  0  0
  143.3890   75.9400  218.1970 C   0  0  0  0  0  0  0  0  0  0  0  0
  142.1940   76.6780  217.6650 C   0  0  0  0  0  0  0  0  0  0  0  0
  141.6400   77.6220  218.7250 C   0  0  0  0  0  0  0  0  0  0  0  0
  141.0370   76.7560  219.8070 C   0  0  2  0  0  0  0  0  0  0  0  0
  140.5550   77.5320  220.9550 C   0  0  0  0  0  0  0  0  0  0  0  0
  141.4320   78.2600  221.7670 C   0  0  0  0  0  0  0  0  0  0  0  0
  140.9880   78.9910  222.8480 C   0  0  0  0  0  0  0  0  0  0  0  0
  142.1950   79.8610  223.7870 Cl  0  0  0  0  0  0  0  0  0  0  0  0
  139.6410   79.0320  223.1740 C   0  0  0  0  0  0  0  0  0  0  0  0
  138.7910   78.3120  222.3670 C   0  0  0  0  0  0  0  0  0  0  0  0
  137.0670   78.3330  222.7410 Cl  0  0  0  0  0  0  0  0  0  0  0  0
  139.2060   77.5730  221.2820 C   0  0  0  0  0  0  0  0  0  0  0  0
  140.1970   71.4880  223.6590 C   0  0  0  0  0  0  0  0  0  0  0  0
  139.4980   70.2950  223.6500 C   0  0  0  0  0  0  0  0  0  0  0  0
  139.2900   69.5460  224.7900 C   0  0  0  0  0  0  0  0  0  0  0  0
  139.7990   70.0100  225.9810 C   0  0  0  0  0  0  0  0  0  0  0  0
  139.6020   69.2760  227.1300 C   0  0  0  0  0  0  0  0  0  0  0  0
  140.1140   69.7470  228.3060 C   0  0  0  0  0  0  0  0  0  0  0  0
  140.8210   70.9480  228.3410 C   0  0  0  0  0  0  0  0  0  0  0  0
  140.9960   71.6560  227.1560 C   0  0  0  0  0  0  0  0  0  0  0  0
  140.4920   71.2040  225.9570 C   0  0  0  0  0  0  0  0  0  0  0  0
  140.6860   71.9220  224.8370 N   0  0  0  0  0  0  0  0  0  0  0  0
  139.5470   74.0870  223.1000 H   0  0  0  0  0  0  0  0  0  0  0  0
  139.8707   73.5153  220.2027 H   0  0  0  0  0  0  0  0  0  0  0  0
  139.6329   75.1409  220.9561 H   0  0  0  0  0  0  0  0  0  0  0  0
  143.7706   76.8466  220.1363 H   0  0  0  0  0  0  0  0  0  0  0  0
  144.0179   75.0921  220.1141 H   0  0  0  0  0  0  0  0  0  0  0  0
  144.3042   76.4458  217.8556 H   0  0  0  0  0  0  0  0  0  0  0  0
  143.3543   74.9061  217.8231 H   0  0  0  0  0  0  0  0  0  0  0  0
  142.4914   77.2603  216.7804 H   0  0  0  0  0  0  0  0  0  0  0  0
  141.4159   75.9497  217.3928 H   0  0  0  0  0  0  0  0  0  0  0  0
  142.4487   78.2405  219.1415 H   0  0  0  0  0  0  0  0  0  0  0  0
  140.8873   78.2999  218.2960 H   0  0  0  0  0  0  0  0  0  0  0  0
  140.1174   76.2754  219.4419 H   0  0  0  0  0  0  0  0  0  0  0  0
  142.5074   78.2485  221.5358 H   0  0  0  0  0  0  0  0  0  0  0  0
  139.2712   79.6104  224.0335 H   0  0  0  0  0  0  0  0  0  0  0  0
  138.4732   77.0182  220.6776 H   0  0  0  0  0  0  0  0  0  0  0  0
  139.0915   69.9284  222.6959 H   0  0  0  0  0  0  0  0  0  0  0  0
  138.7303   68.6000  224.7476 H   0  0  0  0  0  0  0  0  0  0  0  0
  139.0433   68.3289  227.1013 H   0  0  0  0  0  0  0  0  0  0  0  0
  139.9671   69.1736  229.2331 H   0  0  0  0  0  0  0  0  0  0  0  0
  141.2327   71.3287  229.2874 H   0  0  0  0  0  0  0  0  0  0  0  0
  141.5531   72.6042  227.1777 H   0  0  0  0  0  0  0  0  0  0  0  0
  1  2  2  0
  2  3  1  0
  3  4  1  0
  4  5  1  0
  5  6  2  0
  5  7  1  0
  7  8  1  0
  8  9  1  0
  9 10  1  0
 10 11  1  0
 11 12  1  0
 12 13  1  0
 13 14  2  0
 14 15  1  0
 15 16  1  0
 15 17  2  0
 17 18  1  0
 18 19  1  0
 18 20  2  0
  2 21  1  0
 21 22  2  0
 22 23  1  0
 23 24  2  0
 24 25  1  0
 25 26  2  0
 26 27  1  0
 27 28  2  0
 28 29  1  0
 29 30  2  0
 12  7  1  0
 20 13  1  0
 30 21  1  0
 29 24  1  0
  3 31  1  0
  4 32  1  0
  4 33  1  0
  8 34  1  0
  8 35  1  0
  9 36  1  0
  9 37  1  0
 10 38  1  0
 10 39  1  0
 11 40  1  0
 11 41  1  0
 12 42  1  6
 14 43  1  0
 17 44  1  0
 20 45  1  0
 22 46  1  0
 23 47  1  0
 25 48  1  0
 26 49  1  0
 27 50  1  0
 28 51  1  0
M  END
>  <smiles>  (30) 
O=C(NCC(=O)N1CCCCC1c1cc(Cl)cc(Cl)c1)c1ccc2ccccc2n1

>  <score_type>  (30) 
oracle

>  <origin>  (30) 
autodockgpu

>  <m_score__min__energy>  (30) 
-9.6699999999999999

>  <m_primary>  (30) 
energy

>  <rmsd>  (30) 
2.251188811699444

>  <m_score__min__rmsd>  (30) 
2.251188811699444

>  <meeko>  (30) 
{"free_energy": -9.02, "intermolecular_energy": -10.51, "internal_energy": -1.45, "cluster_size": 38, "cluster_id": 1, "rank_in_cluster": 36}

>  <energy>  (30) 
-9.28

>  <cluster_rmsd>  (30) 
1.18

>  <cluster>  (30) 
1

$$$$

     RDKit          3D

 51 54  0  0  0  0  0  0  0  0999 V2000
  140.9670   72.0660  221.6010 O   0  0  0  0  0  0  0  0  0  0  0  0
  140.1090   72.2690  222.5210 C   0  0  0  0  0  0  0  0  0  0  0  0
  139.1660   73.3140  222.3330 N   0  0  0  0  0  0  0  0  0  0  0  0
  139.2720   74.0670  221.0860 C   0  0  0  0  0  0  0  0  0  0  0  0
  139.5030   75.5090  221.3550 C   0  0  0  0  0  0  0  0  0  0  0  0
  138.6790   76.2600  221.9140 O   0  0  0  0  0  0  0  0  0  0  0  0
  140.7430   76.0720  220.9480 N   0  0  0  0  0  0  0  0  0  0  0  0
  141.9210   75.1930  220.9550 C   0  0  0  0  0  0  0  0  0  0  0  0
  142.3690   75.0730  219.4940 C   0  0  0  0  0  0  0  0  0  0  0  0
  142.2200   76.3810  218.7700 C   0  0  0  0  0  0  0  0  0  0  0  0
  142.2110   77.5360  219.7630 C   0  0  0  0  0  0  0  0  0  0  0  0
  140.9150   77.4390  220.5340 C   0  0  2  0  0  0  0  0  0  0  0  0
  140.8140   78.4330  221.6080 C   0  0  0  0  0  0  0  0  0  0  0  0
  139.5740   78.8430  222.1110 C   0  0  0  0  0  0  0  0  0  0  0  0
  139.4690   79.7760  223.1200 C   0  0  0  0  0  0  0  0  0  0  0  0
  137.8510   80.2050  223.6600 Cl  0  0  0  0  0  0  0  0  0  0  0  0
  140.6010   80.3490  223.6790 C   0  0  0  0  0  0  0  0  0  0  0  0
  141.8120   79.9360  223.1750 C   0  0  0  0  0  0  0  0  0  0  0  0
  143.2820   80.6350  223.8550 Cl  0  0  0  0  0  0  0  0  0  0  0  0
  141.9470   79.0060  222.1690 C   0  0  0  0  0  0  0  0  0  0  0  0
  140.1010   71.4530  223.7200 C   0  0  0  0  0  0  0  0  0  0  0  0
  139.5730   70.1760  223.6640 C   0  0  0  0  0  0  0  0  0  0  0  0
  139.5300   69.3410  224.7610 C   0  0  0  0  0  0  0  0  0  0  0  0
  140.0330   69.8010  225.9570 C   0  0  0  0  0  0  0  0  0  0  0  0
  139.9990   68.9810  227.0630 C   0  0  0  0  0  0  0  0  0  0  0  0
  140.5020   69.4510  228.2440 C   0  0  0  0  0  0  0  0  0  0  0  0
  141.0390   70.7340  228.3250 C   0  0  0  0  0  0  0  0  0  0  0  0
  141.0520   71.5270  227.1810 C   0  0  0  0  0  0  0  0  0  0  0  0
  140.5530   71.0800  225.9790 C   0  0  0  0  0  0  0  0  0  0  0  0
  140.5870   71.8820  224.9000 N   0  0  0  0  0  0  0  0  0  0  0  0
  138.4380   73.5230  223.0560 H   0  0  0  0  0  0  0  0  0  0  0  0
  140.1126   73.6715  220.4969 H   0  0  0  0  0  0  0  0  0  0  0  0
  138.3289   73.9602  220.5300 H   0  0  0  0  0  0  0  0  0  0  0  0
  142.7229   75.6338  221.5654 H   0  0  0  0  0  0  0  0  0  0  0  0
  141.6859   74.2086  221.3859 H   0  0  0  0  0  0  0  0  0  0  0  0
  143.4250   74.7662  219.4667 H   0  0  0  0  0  0  0  0  0  0  0  0
  141.7345   74.3252  218.9958 H   0  0  0  0  0  0  0  0  0  0  0  0
  143.0615   76.5080  218.0730 H   0  0  0  0  0  0  0  0  0  0  0  0
  141.2696   76.3775  218.2161 H   0  0  0  0  0  0  0  0  0  0  0  0
  143.0668   77.4523  220.4489 H   0  0  0  0  0  0  0  0  0  0  0  0
  142.2903   78.5029  219.2445 H   0  0  0  0  0  0  0  0  0  0  0  0
  140.0656   77.7035  219.8870 H   0  0  0  0  0  0  0  0  0  0  0  0
  138.6563   78.4078  221.6886 H   0  0  0  0  0  0  0  0  0  0  0  0
  140.5339   81.0955  224.4841 H   0  0  0  0  0  0  0  0  0  0  0  0
  142.9469   78.7186  221.8118 H   0  0  0  0  0  0  0  0  0  0  0  0
  139.1715   69.8118  222.7068 H   0  0  0  0  0  0  0  0  0  0  0  0
  139.1033   68.3302  224.6819 H   0  0  0  0  0  0  0  0  0  0  0  0
  139.5755   67.9679  226.9973 H   0  0  0  0  0  0  0  0  0  0  0  0
  140.4826   68.8106  229.1382 H   0  0  0  0  0  0  0  0  0  0  0  0
  141.4449   71.1130  229.2745 H   0  0  0  0  0  0  0  0  0  0  0  0
  141.4738   72.5412  227.2396 H   0  0  0  0  0  0  0  0  0  0  0  0
  1  2  2  0
  2  3  1  0
  3  4  1  0
  4  5  1  0
  5  6  2  0
  5  7  1  0
  7  8  1  0
  8  9  1  0
  9 10  1  0
 10 11  1  0
 11 12  1  0
 12 13  1  0
 13 14  2  0
 14 15  1  0
 15 16  1  0
 15 17  2  0
 17 18  1  0
 18 19  1  0
 18 20  2  0
  2 21  1  0
 21 22  2  0
 22 23  1  0
 23 24  2  0
 24 25  1  0
 25 26  2  0
 26 27  1  0
 27 28  2  0
 28 29  1  0
 29 30  2  0
 12  7  1  0
 20 13  1  0
 30 21  1  0
 29 24  1  0
  3 31  1  0
  4 32  1  0
  4 33  1  0
  8 34  1  0
  8 35  1  0
  9 36  1  0
  9 37  1  0
 10 38  1  0
 10 39  1  0
 11 40  1  0
 11 41  1  0
 12 42  1  6
 14 43  1  0
 17 44  1  0
 20 45  1  0
 22 46  1  0
 23 47  1  0
 25 48  1  0
 26 49  1  0
 27 50  1  0
 28 51  1  0
M  END
>  <smiles>  (31) 
O=C(NCC(=O)N1CCCCC1c1cc(Cl)cc(Cl)c1)c1ccc2ccccc2n1

>  <score_type>  (31) 
oracle

>  <origin>  (31) 
autodockgpu

>  <m_score__min__energy>  (31) 
-9.6699999999999999

>  <m_primary>  (31) 
energy

>  <rmsd>  (31) 
2.0587219845165707

>  <m_score__min__rmsd>  (31) 
2.0587219845165707

>  <meeko>  (31) 
{"free_energy": -9.67, "intermolecular_energy": -11.17, "internal_energy": -1.43, "cluster_size": 38, "cluster_id": 1, "rank_in_cluster": 2}

>  <energy>  (31) 
-9.25

>  <cluster_rmsd>  (31) 
1.67

>  <cluster>  (31) 
1

$$$$

     RDKit          3D

 51 54  0  0  0  0  0  0  0  0999 V2000
  141.3630   71.8820  221.5940 O   0  0  0  0  0  0  0  0  0  0  0  0
  140.5170   72.2570  222.4700 C   0  0  0  0  0  0  0  0  0  0  0  0
  139.7960   73.4560  222.2280 N   0  0  0  0  0  0  0  0  0  0  0  0
  140.0970   74.1540  220.9810 C   0  0  0  0  0  0  0  0  0  0  0  0
  139.9680   75.6240  221.1510 C   0  0  0  0  0  0  0  0  0  0  0  0
  139.0300   76.1820  221.7560 O   0  0  0  0  0  0  0  0  0  0  0  0
  140.9760   76.4510  220.5870 N   0  0  0  0  0  0  0  0  0  0  0  0
  142.2700   75.8250  220.2760 C   0  0  0  0  0  0  0  0  0  0  0  0
  142.4260   75.9050  218.7540 C   0  0  0  0  0  0  0  0  0  0  0  0
  141.8990   77.2070  218.2210 C   0  0  0  0  0  0  0  0  0  0  0  0
  141.8850   78.2620  219.3220 C   0  0  0  0  0  0  0  0  0  0  0  0
  140.8120   77.8510  220.3030 C   0  0  2  0  0  0  0  0  0  0  0  0
  140.7540   78.7230  221.4820 C   0  0  0  0  0  0  0  0  0  0  0  0
  139.5360   79.0670  222.0790 C   0  0  0  0  0  0  0  0  0  0  0  0
  139.4720   79.8840  223.1870 C   0  0  0  0  0  0  0  0  0  0  0  0
  137.8770   80.2390  223.8390 Cl  0  0  0  0  0  0  0  0  0  0  0  0
  140.6250   80.4030  223.7560 C   0  0  0  0  0  0  0  0  0  0  0  0
  141.8140   80.0560  223.1580 C   0  0  0  0  0  0  0  0  0  0  0  0
  143.3100   80.6900  223.8460 Cl  0  0  0  0  0  0  0  0  0  0  0  0
  141.9090   79.2410  222.0520 C   0  0  0  0  0  0  0  0  0  0  0  0
  140.3030   71.4780  223.6740 C   0  0  0  0  0  0  0  0  0  0  0  0
  139.5810   70.3020  223.5980 C   0  0  0  0  0  0  0  0  0  0  0  0
  139.3360   69.5070  224.6990 C   0  0  0  0  0  0  0  0  0  0  0  0
  139.8300   69.9060  225.9190 C   0  0  0  0  0  0  0  0  0  0  0  0
  139.5960   69.1250  227.0290 C   0  0  0  0  0  0  0  0  0  0  0  0
  140.0940   69.5320  228.2350 C   0  0  0  0  0  0  0  0  0  0  0  0
  140.8240   70.7150  228.3380 C   0  0  0  0  0  0  0  0  0  0  0  0
  141.0360   71.4720  227.1890 C   0  0  0  0  0  0  0  0  0  0  0  0
  140.5470   71.0850  225.9620 C   0  0  0  0  0  0  0  0  0  0  0  0
  140.7780   71.8490  224.8790 N   0  0  0  0  0  0  0  0  0  0  0  0
  139.0890   73.8100  222.9140 H   0  0  0  0  0  0  0  0  0  0  0  0
  141.1263   73.9160  220.6746 H   0  0  0  0  0  0  0  0  0  0  0  0
  139.3814   73.8252  220.2130 H   0  0  0  0  0  0  0  0  0  0  0  0
  143.0866   76.3695  220.7726 H   0  0  0  0  0  0  0  0  0  0  0  0
  142.3081   74.7841  220.6296 H   0  0  0  0  0  0  0  0  0  0  0  0
  143.4921   75.8177  218.4976 H   0  0  0  0  0  0  0  0  0  0  0  0
  141.8495   75.0847  218.3014 H   0  0  0  0  0  0  0  0  0  0  0  0
  142.5434   77.5498  217.3980 H   0  0  0  0  0  0  0  0  0  0  0  0
  140.8720   77.0555  217.8571 H   0  0  0  0  0  0  0  0  0  0  0  0
  142.8632   78.2995  219.8237 H   0  0  0  0  0  0  0  0  0  0  0  0
  141.6826   79.2616  218.9098 H   0  0  0  0  0  0  0  0  0  0  0  0
  139.8159   77.9874  219.8567 H   0  0  0  0  0  0  0  0  0  0  0  0
  138.6020   78.6737  221.6512 H   0  0  0  0  0  0  0  0  0  0  0  0
  140.5906   81.0578  224.6392 H   0  0  0  0  0  0  0  0  0  0  0  0
  142.8934   79.0021  221.6231 H   0  0  0  0  0  0  0  0  0  0  0  0
  139.1859   69.9872  222.6209 H   0  0  0  0  0  0  0  0  0  0  0  0
  138.7588   68.5755  224.6031 H   0  0  0  0  0  0  0  0  0  0  0  0
  139.0195   68.1918  226.9466 H   0  0  0  0  0  0  0  0  0  0  0  0
  139.9172   68.9206  229.1322 H   0  0  0  0  0  0  0  0  0  0  0  0
  141.2247   71.0440  229.3081 H   0  0  0  0  0  0  0  0  0  0  0  0
  141.6111   72.4067  227.2639 H   0  0  0  0  0  0  0  0  0  0  0  0
  1  2  2  0
  2  3  1  0
  3  4  1  0
  4  5  1  0
  5  6  2  0
  5  7  1  0
  7  8  1  0
  8  9  1  0
  9 10  1  0
 10 11  1  0
 11 12  1  0
 12 13  1  0
 13 14  2  0
 14 15  1  0
 15 16  1  0
 15 17  2  0
 17 18  1  0
 18 19  1  0
 18 20  2  0
  2 21  1  0
 21 22  2  0
 22 23  1  0
 23 24  2  0
 24 25  1  0
 25 26  2  0
 26 27  1  0
 27 28  2  0
 28 29  1  0
 29 30  2  0
 12  7  1  0
 20 13  1  0
 30 21  1  0
 29 24  1  0
  3 31  1  0
  4 32  1  0
  4 33  1  0
  8 34  1  0
  8 35  1  0
  9 36  1  0
  9 37  1  0
 10 38  1  0
 10 39  1  0
 11 40  1  0
 11 41  1  0
 12 42  1  6
 14 43  1  0
 17 44  1  0
 20 45  1  0
 22 46  1  0
 23 47  1  0
 25 48  1  0
 26 49  1  0
 27 50  1  0
 28 51  1  0
M  END
>  <smiles>  (32) 
O=C(NCC(=O)N1CCCCC1c1cc(Cl)cc(Cl)c1)c1ccc2ccccc2n1

>  <score_type>  (32) 
oracle

>  <origin>  (32) 
autodockgpu

>  <m_score__min__energy>  (32) 
-9.6699999999999999

>  <m_primary>  (32) 
energy

>  <rmsd>  (32) 
2.131839898855577

>  <m_score__min__rmsd>  (32) 
2.131839898855577

>  <meeko>  (32) 
{"free_energy": -9.5, "intermolecular_energy": -10.99, "internal_energy": -1.51, "cluster_size": 38, "cluster_id": 1, "rank_in_cluster": 9}

>  <energy>  (32) 
-9.25

>  <cluster_rmsd>  (32) 
1.48

>  <cluster>  (32) 
1

$$$$

     RDKit          3D

 51 54  0  0  0  0  0  0  0  0999 V2000
  136.3210   77.2640  222.8170 O   0  0  0  0  0  0  0  0  0  0  0  0
  136.4390   76.0650  223.2330 C   0  0  0  0  0  0  0  0  0  0  0  0
  137.5130   75.2870  222.7230 N   0  0  0  0  0  0  0  0  0  0  0  0
  138.3890   75.9450  221.7580 C   0  0  0  0  0  0  0  0  0  0  0  0
  139.7090   75.2660  221.6910 C   0  0  0  0  0  0  0  0  0  0  0  0
  139.9340   74.1220  222.1350 O   0  0  0  0  0  0  0  0  0  0  0  0
  140.7860   75.9650  221.0830 N   0  0  0  0  0  0  0  0  0  0  0  0
  142.0490   75.2340  220.8990 C   0  0  0  0  0  0  0  0  0  0  0  0
  142.2650   75.1320  219.3850 C   0  0  0  0  0  0  0  0  0  0  0  0
  141.8390   76.3930  218.6890 C   0  0  0  0  0  0  0  0  0  0  0  0
  141.8500   77.5650  219.6640 C   0  0  0  0  0  0  0  0  0  0  0  0
  140.7190   77.3310  220.6380 C   0  0  2  0  0  0  0  0  0  0  0  0
  140.6730   78.3320  221.7090 C   0  0  0  0  0  0  0  0  0  0  0  0
  139.4600   78.7620  222.2580 C   0  0  0  0  0  0  0  0  0  0  0  0
  139.4070   79.7020  223.2650 C   0  0  0  0  0  0  0  0  0  0  0  0
  137.8170   80.1560  223.8650 Cl  0  0  0  0  0  0  0  0  0  0  0  0
  140.5670   80.2640  223.7750 C   0  0  0  0  0  0  0  0  0  0  0  0
  141.7520   79.8310  223.2260 C   0  0  0  0  0  0  0  0  0  0  0  0
  143.2560   80.5160  223.8430 Cl  0  0  0  0  0  0  0  0  0  0  0  0
  141.8360   78.8940  222.2210 C   0  0  0  0  0  0  0  0  0  0  0  0
  135.5040   75.5200  224.1970 C   0  0  0  0  0  0  0  0  0  0  0  0
  134.6930   76.3810  224.9130 C   0  0  0  0  0  0  0  0  0  0  0  0
  133.7780   75.9380  225.8460 C   0  0  0  0  0  0  0  0  0  0  0  0
  133.6740   74.5840  226.0710 C   0  0  0  0  0  0  0  0  0  0  0  0
  132.7670   74.1230  226.9990 C   0  0  0  0  0  0  0  0  0  0  0  0
  132.6730   72.7760  227.2120 C   0  0  0  0  0  0  0  0  0  0  0  0
  133.4800   71.8880  226.5040 C   0  0  0  0  0  0  0  0  0  0  0  0
  134.3830   72.4000  225.5760 C   0  0  0  0  0  0  0  0  0  0  0  0
  134.4980   73.7510  225.3410 C   0  0  0  0  0  0  0  0  0  0  0  0
  135.3840   74.1990  224.4340 N   0  0  0  0  0  0  0  0  0  0  0  0
  137.6570   74.2970  223.0310 H   0  0  0  0  0  0  0  0  0  0  0  0
  137.9176   75.9147  220.7646 H   0  0  0  0  0  0  0  0  0  0  0  0
  138.5451   76.9859  222.0777 H   0  0  0  0  0  0  0  0  0  0  0  0
  142.8794   75.7831  221.3669 H   0  0  0  0  0  0  0  0  0  0  0  0
  142.0092   74.2393  221.3670 H   0  0  0  0  0  0  0  0  0  0  0  0
  143.3323   74.9555  219.1860 H   0  0  0  0  0  0  0  0  0  0  0  0
  141.6560   74.3000  219.0017 H   0  0  0  0  0  0  0  0  0  0  0  0
  142.5327   76.6028  217.8615 H   0  0  0  0  0  0  0  0  0  0  0  0
  140.8184   76.2601  218.3007 H   0  0  0  0  0  0  0  0  0  0  0  0
  142.8099   77.6031  220.1999 H   0  0  0  0  0  0  0  0  0  0  0  0
  141.7244   78.5210  219.1345 H   0  0  0  0  0  0  0  0  0  0  0  0
  139.7501   77.4736  220.1370 H   0  0  0  0  0  0  0  0  0  0  0  0
  138.5205   78.3373  221.8746 H   0  0  0  0  0  0  0  0  0  0  0  0
  140.5415   81.0168  224.5767 H   0  0  0  0  0  0  0  0  0  0  0  0
  142.8173   78.5922  221.8259 H   0  0  0  0  0  0  0  0  0  0  0  0
  134.7807   77.4624  224.7316 H   0  0  0  0  0  0  0  0  0  0  0  0
  133.1464   76.6503  226.3971 H   0  0  0  0  0  0  0  0  0  0  0  0
  132.1306   74.8249  227.5579 H   0  0  0  0  0  0  0  0  0  0  0  0
  131.9537   72.3897  227.9491 H   0  0  0  0  0  0  0  0  0  0  0  0
  133.4052   70.8039  226.6747 H   0  0  0  0  0  0  0  0  0  0  0  0
  135.0233   71.7041  225.0142 H   0  0  0  0  0  0  0  0  0  0  0  0
  1  2  2  0
  2  3  1  0
  3  4  1  0
  4  5  1  0
  5  6  2  0
  5  7  1  0
  7  8  1  0
  8  9  1  0
  9 10  1  0
 10 11  1  0
 11 12  1  0
 12 13  1  0
 13 14  2  0
 14 15  1  0
 15 16  1  0
 15 17  2  0
 17 18  1  0
 18 19  1  0
 18 20  2  0
  2 21  1  0
 21 22  2  0
 22 23  1  0
 23 24  2  0
 24 25  1  0
 25 26  2  0
 26 27  1  0
 27 28  2  0
 28 29  1  0
 29 30  2  0
 12  7  1  0
 20 13  1  0
 30 21  1  0
 29 24  1  0
  3 31  1  0
  4 32  1  0
  4 33  1  0
  8 34  1  0
  8 35  1  0
  9 36  1  0
  9 37  1  0
 10 38  1  0
 10 39  1  0
 11 40  1  0
 11 41  1  0
 12 42  1  6
 14 43  1  0
 17 44  1  0
 20 45  1  0
 22 46  1  0
 23 47  1  0
 25 48  1  0
 26 49  1  0
 27 50  1  0
 28 51  1  0
M  END
>  <smiles>  (33) 
O=C(NCC(=O)N1CCCCC1c1cc(Cl)cc(Cl)c1)c1ccc2ccccc2n1

>  <score_type>  (33) 
oracle

>  <origin>  (33) 
autodockgpu

>  <m_score__min__energy>  (33) 
-9.6699999999999999

>  <m_primary>  (33) 
energy

>  <rmsd>  (33) 
5.831269966389732

>  <m_score__min__rmsd>  (33) 
5.831269966389732

>  <meeko>  (33) 
{"free_energy": -8.37, "intermolecular_energy": -9.86, "internal_energy": -2.01, "cluster_size": 2, "cluster_id": 4, "rank_in_cluster": 1}

>  <energy>  (33) 
-9.24

>  <cluster_rmsd>  (33) 
1.53

>  <cluster>  (33) 
1

$$$$

     RDKit          3D

 51 54  0  0  0  0  0  0  0  0999 V2000
  141.3420   71.6410  221.5160 O   0  0  0  0  0  0  0  0  0  0  0  0
  140.5330   72.1130  222.3800 C   0  0  0  0  0  0  0  0  0  0  0  0
  139.8680   73.3300  222.0750 N   0  0  0  0  0  0  0  0  0  0  0  0
  140.1810   73.9340  220.7830 C   0  0  0  0  0  0  0  0  0  0  0  0
  140.5570   75.3620  220.9410 C   0  0  0  0  0  0  0  0  0  0  0  0
  141.7010   75.8150  220.7300 O   0  0  0  0  0  0  0  0  0  0  0  0
  139.5510   76.2730  221.3600 N   0  0  0  0  0  0  0  0  0  0  0  0
  138.2630   76.2330  220.6530 C   0  0  0  0  0  0  0  0  0  0  0  0
  137.2230   75.7950  221.6900 C   0  0  0  0  0  0  0  0  0  0  0  0
  137.4990   76.4110  223.0320 C   0  0  0  0  0  0  0  0  0  0  0  0
  138.3400   77.6720  222.8700 C   0  0  0  0  0  0  0  0  0  0  0  0
  139.7130   77.2260  222.4250 C   0  0  2  0  0  0  0  0  0  0  0  0
  140.6080   78.3490  222.1250 C   0  0  0  0  0  0  0  0  0  0  0  0
  141.2960   79.0280  223.1370 C   0  0  0  0  0  0  0  0  0  0  0  0
  142.1390   80.0840  222.8640 C   0  0  0  0  0  0  0  0  0  0  0  0
  142.9420   80.8510  224.2290 Cl  0  0  0  0  0  0  0  0  0  0  0  0
  142.3370   80.5180  221.5630 C   0  0  0  0  0  0  0  0  0  0  0  0
  141.6550   79.8410  220.5790 C   0  0  0  0  0  0  0  0  0  0  0  0
  141.8750   80.3550  218.9060 Cl  0  0  0  0  0  0  0  0  0  0  0  0
  140.8070   78.7830  220.8210 C   0  0  0  0  0  0  0  0  0  0  0  0
  140.3020   71.4210  223.6340 C   0  0  0  0  0  0  0  0  0  0  0  0
  139.5580   70.2560  223.6350 C   0  0  0  0  0  0  0  0  0  0  0  0
  139.2970   69.5420  224.7870 C   0  0  0  0  0  0  0  0  0  0  0  0
  139.7960   70.0140  225.9790 C   0  0  0  0  0  0  0  0  0  0  0  0
  139.5460   69.3140  227.1390 C   0  0  0  0  0  0  0  0  0  0  0  0
  140.0490   69.7940  228.3160 C   0  0  0  0  0  0  0  0  0  0  0  0
  140.8000   70.9670  228.3400 C   0  0  0  0  0  0  0  0  0  0  0  0
  141.0290   71.6400  227.1430 C   0  0  0  0  0  0  0  0  0  0  0  0
  140.5350   71.1800  225.9440 C   0  0  0  0  0  0  0  0  0  0  0  0
  140.7810   71.8640  224.8120 N   0  0  0  0  0  0  0  0  0  0  0  0
  139.1930   73.7610  222.7490 H   0  0  0  0  0  0  0  0  0  0  0  0
  141.0199   73.3895  220.3250 H   0  0  0  0  0  0  0  0  0  0  0  0
  139.2884   73.8751  220.1428 H   0  0  0  0  0  0  0  0  0  0  0  0
  138.0129   77.2289  220.2584 H   0  0  0  0  0  0  0  0  0  0  0  0
  138.2947   75.5412  219.7984 H   0  0  0  0  0  0  0  0  0  0  0  0
  136.2245   76.1076  221.3505 H   0  0  0  0  0  0  0  0  0  0  0  0
  137.2737   74.7010  221.7926 H   0  0  0  0  0  0  0  0  0  0  0  0
  136.5456   76.6699  223.5159 H   0  0  0  0  0  0  0  0  0  0  0  0
  138.0509   75.6888  223.6515 H   0  0  0  0  0  0  0  0  0  0  0  0
  137.8918   78.3314  222.1122 H   0  0  0  0  0  0  0  0  0  0  0  0
  138.3941   78.2346  223.8137 H   0  0  0  0  0  0  0  0  0  0  0  0
  140.2353   76.7206  223.2507 H   0  0  0  0  0  0  0  0  0  0  0  0
  141.1601   78.7097  224.1811 H   0  0  0  0  0  0  0  0  0  0  0  0
  143.0049   81.3602  221.3294 H   0  0  0  0  0  0  0  0  0  0  0  0
  140.2908   78.2851  219.9869 H   0  0  0  0  0  0  0  0  0  0  0  0
  139.1583   69.8834  222.6803 H   0  0  0  0  0  0  0  0  0  0  0  0
  138.7034   68.6165  224.7528 H   0  0  0  0  0  0  0  0  0  0  0  0
  138.9535   68.3874  227.1185 H   0  0  0  0  0  0  0  0  0  0  0  0
  139.8590   69.2491  229.2525 H   0  0  0  0  0  0  0  0  0  0  0  0
  141.2044   71.3542  229.2868 H   0  0  0  0  0  0  0  0  0  0  0  0
  141.6221   72.5663  227.1561 H   0  0  0  0  0  0  0  0  0  0  0  0
  1  2  2  0
  2  3  1  0
  3  4  1  0
  4  5  1  0
  5  6  2  0
  5  7  1  0
  7  8  1  0
  8  9  1  0
  9 10  1  0
 10 11  1  0
 11 12  1  0
 12 13  1  0
 13 14  2  0
 14 15  1  0
 15 16  1  0
 15 17  2  0
 17 18  1  0
 18 19  1  0
 18 20  2  0
  2 21  1  0
 21 22  2  0
 22 23  1  0
 23 24  2  0
 24 25  1  0
 25 26  2  0
 26 27  1  0
 27 28  2  0
 28 29  1  0
 29 30  2  0
 12  7  1  0
 20 13  1  0
 30 21  1  0
 29 24  1  0
  3 31  1  0
  4 32  1  0
  4 33  1  0
  8 34  1  0
  8 35  1  0
  9 36  1  0
  9 37  1  0
 10 38  1  0
 10 39  1  0
 11 40  1  0
 11 41  1  0
 12 42  1  1
 14 43  1  0
 17 44  1  0
 20 45  1  0
 22 46  1  0
 23 47  1  0
 25 48  1  0
 26 49  1  0
 27 50  1  0
 28 51  1  0
M  END
>  <smiles>  (34) 
O=C(NCC(=O)N1CCCCC1c1cc(Cl)cc(Cl)c1)c1ccc2ccccc2n1

>  <score_type>  (34) 
oracle

>  <origin>  (34) 
autodockgpu

>  <m_score__min__energy>  (34) 
-9.6699999999999999

>  <m_primary>  (34) 
energy

>  <rmsd>  (34) 
2.8810724285217546

>  <m_score__min__rmsd>  (34) 
2.8810724285217546

>  <meeko>  (34) 
{"free_energy": -9.3, "intermolecular_energy": -10.79, "internal_energy": -1.52, "cluster_size": 38, "cluster_id": 1, "rank_in_cluster": 29}

>  <energy>  (34) 
-9.23

>  <cluster_rmsd>  (34) 
1.66

>  <cluster>  (34) 
1

$$$$

     RDKit          3D

 51 54  0  0  0  0  0  0  0  0999 V2000
  140.9810   71.8680  221.4440 O   0  0  0  0  0  0  0  0  0  0  0  0
  140.2400   72.2220  222.4180 C   0  0  0  0  0  0  0  0  0  0  0  0
  139.4590   73.3990  222.2660 N   0  0  0  0  0  0  0  0  0  0  0  0
  139.5830   74.1000  220.9910 C   0  0  0  0  0  0  0  0  0  0  0  0
  140.2310   75.4230  221.1730 C   0  0  0  0  0  0  0  0  0  0  0  0
  139.7590   76.3480  221.8650 O   0  0  0  0  0  0  0  0  0  0  0  0
  141.4710   75.6540  220.5180 N   0  0  0  0  0  0  0  0  0  0  0  0
  142.5850   74.7480  220.8350 C   0  0  0  0  0  0  0  0  0  0  0  0
  142.9090   74.0030  219.5360 C   0  0  0  0  0  0  0  0  0  0  0  0
  142.7920   74.9100  218.3450 C   0  0  0  0  0  0  0  0  0  0  0  0
  142.9380   76.3650  218.7720 C   0  0  0  0  0  0  0  0  0  0  0  0
  141.7020   76.7110  219.5700 C   0  0  2  0  0  0  0  0  0  0  0  0
  141.7510   78.0610  220.1420 C   0  0  0  0  0  0  0  0  0  0  0  0
  141.8240   78.2680  221.5240 C   0  0  0  0  0  0  0  0  0  0  0  0
  141.8720   79.5330  222.0710 C   0  0  0  0  0  0  0  0  0  0  0  0
  141.9620   79.6540  223.8230 Cl  0  0  0  0  0  0  0  0  0  0  0  0
  141.8470   80.6580  221.2620 C   0  0  0  0  0  0  0  0  0  0  0  0
  141.7750   80.4390  219.9060 C   0  0  0  0  0  0  0  0  0  0  0  0
  141.7420   81.8400  218.8340 Cl  0  0  0  0  0  0  0  0  0  0  0  0
  141.7280   79.1880  219.3320 C   0  0  0  0  0  0  0  0  0  0  0  0
  140.1990   71.4430  223.6400 C   0  0  0  0  0  0  0  0  0  0  0  0
  139.6440   70.1770  223.6150 C   0  0  0  0  0  0  0  0  0  0  0  0
  139.5700   69.3750  224.7360 C   0  0  0  0  0  0  0  0  0  0  0  0
  140.0670   69.8600  225.9230 C   0  0  0  0  0  0  0  0  0  0  0  0
  140.0020   69.0750  227.0530 C   0  0  0  0  0  0  0  0  0  0  0  0
  140.5010   69.5680  228.2260 C   0  0  0  0  0  0  0  0  0  0  0  0
  141.0640   70.8420  228.2760 C   0  0  0  0  0  0  0  0  0  0  0  0
  141.1090   71.6000  227.1100 C   0  0  0  0  0  0  0  0  0  0  0  0
  140.6140   71.1280  225.9150 C   0  0  0  0  0  0  0  0  0  0  0  0
  140.6800   71.8970  224.8140 N   0  0  0  0  0  0  0  0  0  0  0  0
  138.8320   73.7350  223.0340 H   0  0  0  0  0  0  0  0  0  0  0  0
  140.1911   73.4929  220.3042 H   0  0  0  0  0  0  0  0  0  0  0  0
  138.5758   74.2566  220.5774 H   0  0  0  0  0  0  0  0  0  0  0  0
  143.4597   75.3224  221.1741 H   0  0  0  0  0  0  0  0  0  0  0  0
  142.3186   74.0505  221.6428 H   0  0  0  0  0  0  0  0  0  0  0  0
  143.9368   73.6152  219.5918 H   0  0  0  0  0  0  0  0  0  0  0  0
  142.1891   73.1797  219.4183 H   0  0  0  0  0  0  0  0  0  0  0  0
  143.5831   74.6630  217.6217 H   0  0  0  0  0  0  0  0  0  0  0  0
  141.8030   74.7699  217.8843 H   0  0  0  0  0  0  0  0  0  0  0  0
  143.8372   76.4891  219.3934 H   0  0  0  0  0  0  0  0  0  0  0  0
  143.0415   77.0248  217.8979 H   0  0  0  0  0  0  0  0  0  0  0  0
  140.8249   76.7662  218.9084 H   0  0  0  0  0  0  0  0  0  0  0  0
  141.8437   77.3958  222.1940 H   0  0  0  0  0  0  0  0  0  0  0  0
  141.8829   81.6737  221.6827 H   0  0  0  0  0  0  0  0  0  0  0  0
  141.6726   79.0826  218.2385 H   0  0  0  0  0  0  0  0  0  0  0  0
  139.2456   69.7936  222.6641 H   0  0  0  0  0  0  0  0  0  0  0  0
  139.1238   68.3711  224.6811 H   0  0  0  0  0  0  0  0  0  0  0  0
  139.5567   68.0700  227.0121 H   0  0  0  0  0  0  0  0  0  0  0  0
  140.4579   68.9544  229.1379 H   0  0  0  0  0  0  0  0  0  0  0  0
  141.4652   71.2407  229.2194 H   0  0  0  0  0  0  0  0  0  0  0  0
  141.5530   72.6058  227.1439 H   0  0  0  0  0  0  0  0  0  0  0  0
  1  2  2  0
  2  3  1  0
  3  4  1  0
  4  5  1  0
  5  6  2  0
  5  7  1  0
  7  8  1  0
  8  9  1  0
  9 10  1  0
 10 11  1  0
 11 12  1  0
 12 13  1  0
 13 14  2  0
 14 15  1  0
 15 16  1  0
 15 17  2  0
 17 18  1  0
 18 19  1  0
 18 20  2  0
  2 21  1  0
 21 22  2  0
 22 23  1  0
 23 24  2  0
 24 25  1  0
 25 26  2  0
 26 27  1  0
 27 28  2  0
 28 29  1  0
 29 30  2  0
 12  7  1  0
 20 13  1  0
 30 21  1  0
 29 24  1  0
  3 31  1  0
  4 32  1  0
  4 33  1  0
  8 34  1  0
  8 35  1  0
  9 36  1  0
  9 37  1  0
 10 38  1  0
 10 39  1  0
 11 40  1  0
 11 41  1  0
 12 42  1  6
 14 43  1  0
 17 44  1  0
 20 45  1  0
 22 46  1  0
 23 47  1  0
 25 48  1  0
 26 49  1  0
 27 50  1  0
 28 51  1  0
M  END
>  <smiles>  (35) 
O=C(NCC(=O)N1CCCCC1c1cc(Cl)cc(Cl)c1)c1ccc2ccccc2n1

>  <score_type>  (35) 
oracle

>  <origin>  (35) 
autodockgpu

>  <m_score__min__energy>  (35) 
-9.6699999999999999

>  <m_primary>  (35) 
energy

>  <rmsd>  (35) 
2.228971519450474

>  <m_score__min__rmsd>  (35) 
2.228971519450474

>  <meeko>  (35) 
{"free_energy": -9.34, "intermolecular_energy": -10.83, "internal_energy": -1.54, "cluster_size": 38, "cluster_id": 1, "rank_in_cluster": 26}

>  <energy>  (35) 
-9.13

>  <cluster_rmsd>  (35) 
0.76

>  <cluster>  (35) 
1

$$$$

     RDKit          3D

 51 54  0  0  0  0  0  0  0  0999 V2000
  141.1100   72.5400  222.2870 O   0  0  0  0  0  0  0  0  0  0  0  0
  140.0170   72.2490  222.8760 C   0  0  0  0  0  0  0  0  0  0  0  0
  138.8350   72.9130  222.4510 N   0  0  0  0  0  0  0  0  0  0  0  0
  138.9880   73.8780  221.3660 C   0  0  0  0  0  0  0  0  0  0  0  0
  139.5350   75.1630  221.8720 C   0  0  0  0  0  0  0  0  0  0  0  0
  140.6960   75.3100  222.3050 O   0  0  0  0  0  0  0  0  0  0  0  0
  138.6830   76.2990  221.8640 N   0  0  0  0  0  0  0  0  0  0  0  0
  137.5040   76.2560  220.9850 C   0  0  0  0  0  0  0  0  0  0  0  0
  136.2830   76.2990  221.9110 C   0  0  0  0  0  0  0  0  0  0  0  0
  136.5130   77.2240  223.0720 C   0  0  0  0  0  0  0  0  0  0  0  0
  137.5950   78.2410  222.7310 C   0  0  0  0  0  0  0  0  0  0  0  0
  138.8990   77.4810  222.6550 C   0  0  2  0  0  0  0  0  0  0  0  0
  140.0240   78.3200  222.2270 C   0  0  0  0  0  0  0  0  0  0  0  0
  140.4350   78.3660  220.8900 C   0  0  0  0  0  0  0  0  0  0  0  0
  141.4910   79.1520  220.4790 C   0  0  0  0  0  0  0  0  0  0  0  0
  141.9060   79.1190  218.7700 Cl  0  0  0  0  0  0  0  0  0  0  0  0
  142.1920   79.9320  221.3860 C   0  0  0  0  0  0  0  0  0  0  0  0
  141.7760   79.8750  222.6960 C   0  0  0  0  0  0  0  0  0  0  0  0
  142.6370   80.8510  223.8880 Cl  0  0  0  0  0  0  0  0  0  0  0  0
  140.7260   79.1010  223.1350 C   0  0  0  0  0  0  0  0  0  0  0  0
  139.9890   71.2690  223.9440 C   0  0  0  0  0  0  0  0  0  0  0  0
  139.3590   70.0570  223.7330 C   0  0  0  0  0  0  0  0  0  0  0  0
  139.2910   69.0750  224.7000 C   0  0  0  0  0  0  0  0  0  0  0  0
  139.8750   69.3170  225.9220 C   0  0  0  0  0  0  0  0  0  0  0  0
  139.8180   68.3490  226.9000 C   0  0  0  0  0  0  0  0  0  0  0  0
  140.4010   68.6020  228.1100 C   0  0  0  0  0  0  0  0  0  0  0  0
  141.0420   69.8170  228.3470 C   0  0  0  0  0  0  0  0  0  0  0  0
  141.0750   70.7660  227.3290 C   0  0  0  0  0  0  0  0  0  0  0  0
  140.4960   70.5370  226.1020 C   0  0  0  0  0  0  0  0  0  0  0  0
  140.5530   71.4840  225.1490 N   0  0  0  0  0  0  0  0  0  0  0  0
  137.9110   72.7110  222.8990 H   0  0  0  0  0  0  0  0  0  0  0  0
  139.6751   73.4662  220.6121 H   0  0  0  0  0  0  0  0  0  0  0  0
  137.9994   74.0675  220.9225 H   0  0  0  0  0  0  0  0  0  0  0  0
  137.5006   77.1229  220.3079 H   0  0  0  0  0  0  0  0  0  0  0  0
  137.5021   75.3519  220.3584 H   0  0  0  0  0  0  0  0  0  0  0  0
  135.4115   76.6508  221.3393 H   0  0  0  0  0  0  0  0  0  0  0  0
  136.1074   75.2862  222.3025 H   0  0  0  0  0  0  0  0  0  0  0  0
  135.5775   77.7537  223.3049 H   0  0  0  0  0  0  0  0  0  0  0  0
  136.8379   76.6335  223.9413 H   0  0  0  0  0  0  0  0  0  0  0  0
  137.3766   78.7164  221.7634 H   0  0  0  0  0  0  0  0  0  0  0  0
  137.6443   79.0351  223.4906 H   0  0  0  0  0  0  0  0  0  0  0  0
  139.2116   77.1597  223.6595 H   0  0  0  0  0  0  0  0  0  0  0  0
  139.9004   77.7577  220.1456 H   0  0  0  0  0  0  0  0  0  0  0  0
  143.0369   80.5636  221.0742 H   0  0  0  0  0  0  0  0  0  0  0  0
  140.4449   79.1012  224.1985 H   0  0  0  0  0  0  0  0  0  0  0  0
  138.8930   69.8676  222.7547 H   0  0  0  0  0  0  0  0  0  0  0  0
  138.7818   68.1210  224.4986 H   0  0  0  0  0  0  0  0  0  0  0  0
  139.3128   67.3904  226.7109 H   0  0  0  0  0  0  0  0  0  0  0  0
  140.3641   67.8408  228.9032 H   0  0  0  0  0  0  0  0  0  0  0  0
  141.5128   70.0220  229.3198 H   0  0  0  0  0  0  0  0  0  0  0  0
  141.5786   71.7269  227.5108 H   0  0  0  0  0  0  0  0  0  0  0  0
  1  2  2  0
  2  3  1  0
  3  4  1  0
  4  5  1  0
  5  6  2  0
  5  7  1  0
  7  8  1  0
  8  9  1  0
  9 10  1  0
 10 11  1  0
 11 12  1  0
 12 13  1  0
 13 14  2  0
 14 15  1  0
 15 16  1  0
 15 17  2  0
 17 18  1  0
 18 19  1  0
 18 20  2  0
  2 21  1  0
 21 22  2  0
 22 23  1  0
 23 24  2  0
 24 25  1  0
 25 26  2  0
 26 27  1  0
 27 28  2  0
 28 29  1  0
 29 30  2  0
 12  7  1  0
 20 13  1  0
 30 21  1  0
 29 24  1  0
  3 31  1  0
  4 32  1  0
  4 33  1  0
  8 34  1  0
  8 35  1  0
  9 36  1  0
  9 37  1  0
 10 38  1  0
 10 39  1  0
 11 40  1  0
 11 41  1  0
 12 42  1  1
 14 43  1  0
 17 44  1  0
 20 45  1  0
 22 46  1  0
 23 47  1  0
 25 48  1  0
 26 49  1  0
 27 50  1  0
 28 51  1  0
M  END
>  <smiles>  (36) 
O=C(NCC(=O)N1CCCCC1c1cc(Cl)cc(Cl)c1)c1ccc2ccccc2n1

>  <score_type>  (36) 
oracle

>  <origin>  (36) 
autodockgpu

>  <m_score__min__energy>  (36) 
-9.6699999999999999

>  <m_primary>  (36) 
energy

>  <rmsd>  (36) 
3.0497119998171454

>  <m_score__min__rmsd>  (36) 
3.0497119998171454

>  <meeko>  (36) 
{"free_energy": -9.39, "intermolecular_energy": -10.88, "internal_energy": -1.39, "cluster_size": 38, "cluster_id": 1, "rank_in_cluster": 19}

>  <energy>  (36) 
-9.02

>  <cluster_rmsd>  (36) 
1.06

>  <cluster>  (36) 
1

$$$$

     RDKit          3D

 51 54  0  0  0  0  0  0  0  0999 V2000
  141.2620   72.1750  221.7090 O   0  0  0  0  0  0  0  0  0  0  0  0
  140.3410   72.3740  222.5670 C   0  0  0  0  0  0  0  0  0  0  0  0
  139.4370   73.4450  222.3380 N   0  0  0  0  0  0  0  0  0  0  0  0
  139.6530   74.2260  221.1230 C   0  0  0  0  0  0  0  0  0  0  0  0
  140.4410   75.4510  221.4120 C   0  0  0  0  0  0  0  0  0  0  0  0
  140.1710   76.2620  222.3220 O   0  0  0  0  0  0  0  0  0  0  0  0
  141.5770   75.7190  220.6020 N   0  0  0  0  0  0  0  0  0  0  0  0
  142.7520   74.8530  220.7740 C   0  0  0  0  0  0  0  0  0  0  0  0
  142.9310   74.1110  219.4450 C   0  0  0  0  0  0  0  0  0  0  0  0
  142.6300   75.0060  218.2770 C   0  0  0  0  0  0  0  0  0  0  0  0
  142.7810   76.4680  218.6800 C   0  0  0  0  0  0  0  0  0  0  0  0
  141.6480   76.7770  219.6300 C   0  0  2  0  0  0  0  0  0  0  0  0
  141.7250   78.1310  220.1890 C   0  0  0  0  0  0  0  0  0  0  0  0
  141.6940   79.2650  219.3690 C   0  0  0  0  0  0  0  0  0  0  0  0
  141.7650   80.5410  219.8850 C   0  0  0  0  0  0  0  0  0  0  0  0
  141.7160   81.8790  218.7440 Cl  0  0  0  0  0  0  0  0  0  0  0  0
  141.8730   80.7500  221.2510 C   0  0  0  0  0  0  0  0  0  0  0  0
  141.9030   79.6270  222.0450 C   0  0  0  0  0  0  0  0  0  0  0  0
  142.0380   79.8410  223.7900 Cl  0  0  0  0  0  0  0  0  0  0  0  0
  141.8320   78.3410  221.5580 C   0  0  0  0  0  0  0  0  0  0  0  0
  140.2270   71.5280  223.7390 C   0  0  0  0  0  0  0  0  0  0  0  0
  139.6060   70.2980  223.6270 C   0  0  0  0  0  0  0  0  0  0  0  0
  139.4590   69.4380  224.6960 C   0  0  0  0  0  0  0  0  0  0  0  0
  139.9500   69.8260  225.9210 C   0  0  0  0  0  0  0  0  0  0  0  0
  139.8130   68.9810  227.0000 C   0  0  0  0  0  0  0  0  0  0  0  0
  140.3060   69.3770  228.2120 C   0  0  0  0  0  0  0  0  0  0  0  0
  140.9350   70.6130  228.3510 C   0  0  0  0  0  0  0  0  0  0  0  0
  141.0510   71.4340  227.2330 C   0  0  0  0  0  0  0  0  0  0  0  0
  140.5640   71.0600  226.0010 C   0  0  0  0  0  0  0  0  0  0  0  0
  140.7000   71.8860  224.9490 N   0  0  0  0  0  0  0  0  0  0  0  0
  138.6620   73.6520  223.0100 H   0  0  0  0  0  0  0  0  0  0  0  0
  140.1987   73.6111  220.3922 H   0  0  0  0  0  0  0  0  0  0  0  0
  138.6744   74.5253  220.7197 H   0  0  0  0  0  0  0  0  0  0  0  0
  143.6432   75.4583  220.9964 H   0  0  0  0  0  0  0  0  0  0  0  0
  142.6156   74.1519  221.6106 H   0  0  0  0  0  0  0  0  0  0  0  0
  143.9702   73.7586  219.3682 H   0  0  0  0  0  0  0  0  0  0  0  0
  142.2306   73.2631  219.4230 H   0  0  0  0  0  0  0  0  0  0  0  0
  143.3287   74.7811  217.4577 H   0  0  0  0  0  0  0  0  0  0  0  0
  141.5953   74.8300  217.9479 H   0  0  0  0  0  0  0  0  0  0  0  0
  143.7482   76.6253  219.1799 H   0  0  0  0  0  0  0  0  0  0  0  0
  142.7487   77.1260  217.7991 H   0  0  0  0  0  0  0  0  0  0  0  0
  140.6917   76.7986  219.0868 H   0  0  0  0  0  0  0  0  0  0  0  0
  141.6105   79.1338  218.2801 H   0  0  0  0  0  0  0  0  0  0  0  0
  141.9317   81.7619  221.6783 H   0  0  0  0  0  0  0  0  0  0  0  0
  141.8598   77.4853  222.2487 H   0  0  0  0  0  0  0  0  0  0  0  0
  139.2132   69.9925  222.6460 H   0  0  0  0  0  0  0  0  0  0  0  0
  138.9609   68.4651  224.5716 H   0  0  0  0  0  0  0  0  0  0  0  0
  139.3163   68.0059  226.8886 H   0  0  0  0  0  0  0  0  0  0  0  0
  140.2055   68.7148  229.0846 H   0  0  0  0  0  0  0  0  0  0  0  0
  141.3321   70.9335  229.3255 H   0  0  0  0  0  0  0  0  0  0  0  0
  141.5465   72.4106  227.3370 H   0  0  0  0  0  0  0  0  0  0  0  0
  1  2  2  0
  2  3  1  0
  3  4  1  0
  4  5  1  0
  5  6  2  0
  5  7  1  0
  7  8  1  0
  8  9  1  0
  9 10  1  0
 10 11  1  0
 11 12  1  0
 12 13  1  0
 13 14  2  0
 14 15  1  0
 15 16  1  0
 15 17  2  0
 17 18  1  0
 18 19  1  0
 18 20  2  0
  2 21  1  0
 21 22  2  0
 22 23  1  0
 23 24  2  0
 24 25  1  0
 25 26  2  0
 26 27  1  0
 27 28  2  0
 28 29  1  0
 29 30  2  0
 12  7  1  0
 20 13  1  0
 30 21  1  0
 29 24  1  0
  3 31  1  0
  4 32  1  0
  4 33  1  0
  8 34  1  0
  8 35  1  0
  9 36  1  0
  9 37  1  0
 10 38  1  0
 10 39  1  0
 11 40  1  0
 11 41  1  0
 12 42  1  6
 14 43  1  0
 17 44  1  0
 20 45  1  0
 22 46  1  0
 23 47  1  0
 25 48  1  0
 26 49  1  0
 27 50  1  0
 28 51  1  0
M  END
>  <smiles>  (37) 
O=C(NCC(=O)N1CCCCC1c1cc(Cl)cc(Cl)c1)c1ccc2ccccc2n1

>  <score_type>  (37) 
oracle

>  <origin>  (37) 
autodockgpu

>  <m_score__min__energy>  (37) 
-9.6699999999999999

>  <m_primary>  (37) 
energy

>  <rmsd>  (37) 
2.244389152211421

>  <m_score__min__rmsd>  (37) 
2.244389152211421

>  <meeko>  (37) 
{"free_energy": -9.45, "intermolecular_energy": -10.94, "internal_energy": -1.47, "cluster_size": 38, "cluster_id": 1, "rank_in_cluster": 13}

>  <energy>  (37) 
-8.99

>  <cluster_rmsd>  (37) 
1.06

>  <cluster>  (37) 
1

$$$$

     RDKit          3D

 51 54  0  0  0  0  0  0  0  0999 V2000
  140.8250   72.1430  221.4140 O   0  0  0  0  0  0  0  0  0  0  0  0
  140.0330   72.3790  222.3840 C   0  0  0  0  0  0  0  0  0  0  0  0
  139.1680   73.5010  222.2790 N   0  0  0  0  0  0  0  0  0  0  0  0
  139.2710   74.2860  221.0520 C   0  0  0  0  0  0  0  0  0  0  0  0
  140.3440   75.3060  221.1630 C   0  0  0  0  0  0  0  0  0  0  0  0
  140.6340   75.9100  222.2160 O   0  0  0  0  0  0  0  0  0  0  0  0
  141.0910   75.6170  219.9950 N   0  0  0  0  0  0  0  0  0  0  0  0
  140.3430   75.8090  218.7440 C   0  0  0  0  0  0  0  0  0  0  0  0
  140.5550   77.2730  218.3430 C   0  0  0  0  0  0  0  0  0  0  0  0
  141.9600   77.7190  218.6350 C   0  0  0  0  0  0  0  0  0  0  0  0
  142.8920   76.5150  218.7080 C   0  0  0  0  0  0  0  0  0  0  0  0
  142.5220   75.7540  219.9600 C   0  0  2  0  0  0  0  0  0  0  0  0
  143.2710   74.5010  220.1080 C   0  0  0  0  0  0  0  0  0  0  0  0
  144.4870   74.4520  220.8000 C   0  0  0  0  0  0  0  0  0  0  0  0
  145.1970   73.2800  220.9440 C   0  0  0  0  0  0  0  0  0  0  0  0
  146.7100   73.3560  221.8380 Cl  0  0  0  0  0  0  0  0  0  0  0  0
  144.7290   72.0930  220.4010 C   0  0  0  0  0  0  0  0  0  0  0  0
  143.5340   72.1570  219.7230 C   0  0  0  0  0  0  0  0  0  0  0  0
  142.8960   70.6730  219.0140 Cl  0  0  0  0  0  0  0  0  0  0  0  0
  142.8020   73.3130  219.5640 C   0  0  0  0  0  0  0  0  0  0  0  0
  140.0220   71.5250  223.5560 C   0  0  0  0  0  0  0  0  0  0  0  0
  139.4680   70.2610  223.4650 C   0  0  0  0  0  0  0  0  0  0  0  0
  139.4200   69.3910  224.5350 C   0  0  0  0  0  0  0  0  0  0  0  0
  139.9440   69.8030  225.7390 C   0  0  0  0  0  0  0  0  0  0  0  0
  139.9060   68.9480  226.8180 C   0  0  0  0  0  0  0  0  0  0  0  0
  140.4300   69.3690  228.0080 C   0  0  0  0  0  0  0  0  0  0  0  0
  140.9920   70.6390  228.1250 C   0  0  0  0  0  0  0  0  0  0  0  0
  141.0100   71.4690  227.0070 C   0  0  0  0  0  0  0  0  0  0  0  0
  140.4890   71.0700  225.7970 C   0  0  0  0  0  0  0  0  0  0  0  0
  140.5280   71.9060  224.7450 N   0  0  0  0  0  0  0  0  0  0  0  0
  138.4980   73.7400  223.0460 H   0  0  0  0  0  0  0  0  0  0  0  0
  139.4994   73.6131  220.2123 H   0  0  0  0  0  0  0  0  0  0  0  0
  138.3136   74.8006  220.8831 H   0  0  0  0  0  0  0  0  0  0  0  0
  140.7290   75.1390  217.9616 H   0  0  0  0  0  0  0  0  0  0  0  0
  139.2754   75.5784  218.8745 H   0  0  0  0  0  0  0  0  0  0  0  0
  140.3607   77.3816  217.2657 H   0  0  0  0  0  0  0  0  0  0  0  0
  139.8631   77.8976  218.9271 H   0  0  0  0  0  0  0  0  0  0  0  0
  142.3003   78.3935  217.8355 H   0  0  0  0  0  0  0  0  0  0  0  0
  141.9757   78.2432  219.6019 H   0  0  0  0  0  0  0  0  0  0  0  0
  142.7565   75.8766  217.8225 H   0  0  0  0  0  0  0  0  0  0  0  0
  143.9452   76.8312  218.7342 H   0  0  0  0  0  0  0  0  0  0  0  0
  142.8265   76.3197  220.8529 H   0  0  0  0  0  0  0  0  0  0  0  0
  144.8874   75.3764  221.2418 H   0  0  0  0  0  0  0  0  0  0  0  0
  145.2845   71.1495  220.5069 H   0  0  0  0  0  0  0  0  0  0  0  0
  141.8521   73.2949  219.0096 H   0  0  0  0  0  0  0  0  0  0  0  0
  139.0489   69.9363  222.5012 H   0  0  0  0  0  0  0  0  0  0  0  0
  138.9733   68.3915  224.4281 H   0  0  0  0  0  0  0  0  0  0  0  0
  139.4626   67.9458  226.7239 H   0  0  0  0  0  0  0  0  0  0  0  0
  140.4080   68.6999  228.8808 H   0  0  0  0  0  0  0  0  0  0  0  0
  141.4134   70.9793  229.0824 H   0  0  0  0  0  0  0  0  0  0  0  0
  141.4532   72.4721  227.0933 H   0  0  0  0  0  0  0  0  0  0  0  0
  1  2  2  0
  2  3  1  0
  3  4  1  0
  4  5  1  0
  5  6  2  0
  5  7  1  0
  7  8  1  0
  8  9  1  0
  9 10  1  0
 10 11  1  0
 11 12  1  0
 12 13  1  0
 13 14  2  0
 14 15  1  0
 15 16  1  0
 15 17  2  0
 17 18  1  0
 18 19  1  0
 18 20  2  0
  2 21  1  0
 21 22  2  0
 22 23  1  0
 23 24  2  0
 24 25  1  0
 25 26  2  0
 26 27  1  0
 27 28  2  0
 28 29  1  0
 29 30  2  0
 12  7  1  0
 20 13  1  0
 30 21  1  0
 29 24  1  0
  3 31  1  0
  4 32  1  0
  4 33  1  0
  8 34  1  0
  8 35  1  0
  9 36  1  0
  9 37  1  0
 10 38  1  0
 10 39  1  0
 11 40  1  0
 11 41  1  0
 12 42  1  1
 14 43  1  0
 17 44  1  0
 20 45  1  0
 22 46  1  0
 23 47  1  0
 25 48  1  0
 26 49  1  0
 27 50  1  0
 28 51  1  0
M  END
>  <smiles>  (38) 
O=C(NCC(=O)N1CCCCC1c1cc(Cl)cc(Cl)c1)c1ccc2ccccc2n1

>  <score_type>  (38) 
oracle

>  <origin>  (38) 
autodockgpu

>  <m_score__min__energy>  (38) 
-9.6699999999999999

>  <m_primary>  (38) 
energy

>  <rmsd>  (38) 
1.5875068601620235

>  <m_score__min__rmsd>  (38) 
1.5875068601620235

>  <meeko>  (38) 
{"free_energy": -8.97, "intermolecular_energy": -10.47, "internal_energy": -1.94, "cluster_size": 9, "cluster_id": 2, "rank_in_cluster": 5}

>  <energy>  (38) 
-8.94

>  <cluster_rmsd>  (38) 
1.08

>  <cluster>  (38) 
1

$$$$

     RDKit          3D

 51 54  0  0  0  0  0  0  0  0999 V2000
  141.2450   72.0650  221.6320 O   0  0  0  0  0  0  0  0  0  0  0  0
  140.3830   72.3460  222.5270 C   0  0  0  0  0  0  0  0  0  0  0  0
  139.5710   73.4950  222.3310 N   0  0  0  0  0  0  0  0  0  0  0  0
  139.8060   74.2540  221.1060 C   0  0  0  0  0  0  0  0  0  0  0  0
  140.6170   75.4670  221.3800 C   0  0  0  0  0  0  0  0  0  0  0  0
  140.4560   76.2130  222.3670 O   0  0  0  0  0  0  0  0  0  0  0  0
  141.6460   75.8030  220.4580 N   0  0  0  0  0  0  0  0  0  0  0  0
  142.8670   74.9840  220.4780 C   0  0  0  0  0  0  0  0  0  0  0  0
  142.9290   74.2810  219.1180 C   0  0  0  0  0  0  0  0  0  0  0  0
  142.4670   75.1890  218.0150 C   0  0  0  0  0  0  0  0  0  0  0  0
  142.6020   76.6470  218.4390 C   0  0  0  0  0  0  0  0  0  0  0  0
  141.5670   76.8850  219.5140 C   0  0  2  0  0  0  0  0  0  0  0  0
  141.6510   78.2280  220.0990 C   0  0  0  0  0  0  0  0  0  0  0  0
  141.8330   78.4180  221.4730 C   0  0  0  0  0  0  0  0  0  0  0  0
  141.9130   79.6760  222.0310 C   0  0  0  0  0  0  0  0  0  0  0  0
  142.1430   79.7760  223.7720 Cl  0  0  0  0  0  0  0  0  0  0  0  0
  141.8130   80.8120  221.2420 C   0  0  0  0  0  0  0  0  0  0  0  0
  141.6340   80.6090  219.8930 C   0  0  0  0  0  0  0  0  0  0  0  0
  141.5020   82.0230  218.8460 Cl  0  0  0  0  0  0  0  0  0  0  0  0
  141.5520   79.3650  219.3080 C   0  0  0  0  0  0  0  0  0  0  0  0
  140.2410   71.5150  223.7060 C   0  0  0  0  0  0  0  0  0  0  0  0
  139.6160   70.2870  223.5950 C   0  0  0  0  0  0  0  0  0  0  0  0
  139.4430   69.4400  224.6710 C   0  0  0  0  0  0  0  0  0  0  0  0
  139.9130   69.8380  225.9010 C   0  0  0  0  0  0  0  0  0  0  0  0
  139.7500   69.0060  226.9870 C   0  0  0  0  0  0  0  0  0  0  0  0
  140.2210   69.4140  228.2030 C   0  0  0  0  0  0  0  0  0  0  0  0
  140.8540   70.6470  228.3410 C   0  0  0  0  0  0  0  0  0  0  0  0
  140.9970   71.4550  227.2160 C   0  0  0  0  0  0  0  0  0  0  0  0
  140.5320   71.0700  225.9790 C   0  0  0  0  0  0  0  0  0  0  0  0
  140.6930   71.8840  224.9210 N   0  0  0  0  0  0  0  0  0  0  0  0
  138.8470   73.7720  223.0340 H   0  0  0  0  0  0  0  0  0  0  0  0
  140.3416   73.6181  220.3858 H   0  0  0  0  0  0  0  0  0  0  0  0
  138.8347   74.5668  220.6953 H   0  0  0  0  0  0  0  0  0  0  0  0
  143.7522   75.6216  220.6189 H   0  0  0  0  0  0  0  0  0  0  0  0
  142.8512   74.2589  221.3050 H   0  0  0  0  0  0  0  0  0  0  0  0
  143.9667   73.9748  218.9195 H   0  0  0  0  0  0  0  0  0  0  0  0
  142.2647   73.4047  219.1486 H   0  0  0  0  0  0  0  0  0  0  0  0
  143.0807   75.0132  217.1192 H   0  0  0  0  0  0  0  0  0  0  0  0
  141.4103   74.9765  217.7953 H   0  0  0  0  0  0  0  0  0  0  0  0
  143.6106   76.8344  218.8359 H   0  0  0  0  0  0  0  0  0  0  0  0
  142.4477   77.3230  217.5850 H   0  0  0  0  0  0  0  0  0  0  0  0
  140.5569   76.8782  219.0785 H   0  0  0  0  0  0  0  0  0  0  0  0
  141.9147   77.5376  222.1274 H   0  0  0  0  0  0  0  0  0  0  0  0
  141.8736   81.8226  221.6722 H   0  0  0  0  0  0  0  0  0  0  0  0
  141.4090   79.2726  218.2212 H   0  0  0  0  0  0  0  0  0  0  0  0
  139.2416   69.9723  222.6097 H   0  0  0  0  0  0  0  0  0  0  0  0
  138.9408   68.4691  224.5478 H   0  0  0  0  0  0  0  0  0  0  0  0
  139.2504   68.0322  226.8773 H   0  0  0  0  0  0  0  0  0  0  0  0
  140.0991   68.7627  229.0811 H   0  0  0  0  0  0  0  0  0  0  0  0
  141.2336   70.9760  229.3196 H   0  0  0  0  0  0  0  0  0  0  0  0
  141.4963   72.4297  227.3189 H   0  0  0  0  0  0  0  0  0  0  0  0
  1  2  2  0
  2  3  1  0
  3  4  1  0
  4  5  1  0
  5  6  2  0
  5  7  1  0
  7  8  1  0
  8  9  1  0
  9 10  1  0
 10 11  1  0
 11 12  1  0
 12 13  1  0
 13 14  2  0
 14 15  1  0
 15 16  1  0
 15 17  2  0
 17 18  1  0
 18 19  1  0
 18 20  2  0
  2 21  1  0
 21 22  2  0
 22 23  1  0
 23 24  2  0
 24 25  1  0
 25 26  2  0
 26 27  1  0
 27 28  2  0
 28 29  1  0
 29 30  2  0
 12  7  1  0
 20 13  1  0
 30 21  1  0
 29 24  1  0
  3 31  1  0
  4 32  1  0
  4 33  1  0
  8 34  1  0
  8 35  1  0
  9 36  1  0
  9 37  1  0
 10 38  1  0
 10 39  1  0
 11 40  1  0
 11 41  1  0
 12 42  1  6
 14 43  1  0
 17 44  1  0
 20 45  1  0
 22 46  1  0
 23 47  1  0
 25 48  1  0
 26 49  1  0
 27 50  1  0
 28 51  1  0
M  END
>  <smiles>  (39) 
O=C(NCC(=O)N1CCCCC1c1cc(Cl)cc(Cl)c1)c1ccc2ccccc2n1

>  <score_type>  (39) 
oracle

>  <origin>  (39) 
autodockgpu

>  <m_score__min__energy>  (39) 
-9.6699999999999999

>  <m_primary>  (39) 
energy

>  <rmsd>  (39) 
2.1977449471143005

>  <m_score__min__rmsd>  (39) 
2.1977449471143005

>  <meeko>  (39) 
{"free_energy": -9.49, "intermolecular_energy": -10.99, "internal_energy": -1.43, "cluster_size": 38, "cluster_id": 1, "rank_in_cluster": 10}

>  <energy>  (39) 
-9.16

>  <cluster_rmsd>  (39) 
0.0

>  <cluster>  (39) 
2

$$$$

     RDKit          3D

 51 54  0  0  0  0  0  0  0  0999 V2000
  140.7580   71.4240  221.3440 O   0  0  0  0  0  0  0  0  0  0  0  0
  140.3200   72.0400  222.3700 C   0  0  0  0  0  0  0  0  0  0  0  0
  139.9420   73.4010  222.2180 N   0  0  0  0  0  0  0  0  0  0  0  0
  140.0930   73.9710  220.8820 C   0  0  0  0  0  0  0  0  0  0  0  0
  140.4830   75.4010  220.9560 C   0  0  0  0  0  0  0  0  0  0  0  0
  139.8290   76.2780  221.5570 O   0  0  0  0  0  0  0  0  0  0  0  0
  141.6770   75.8010  220.2980 N   0  0  0  0  0  0  0  0  0  0  0  0
  142.8720   74.9670  220.4970 C   0  0  0  0  0  0  0  0  0  0  0  0
  143.2150   74.3840  219.1220 C   0  0  0  0  0  0  0  0  0  0  0  0
  142.9860   75.3910  218.0310 C   0  0  0  0  0  0  0  0  0  0  0  0
  143.0250   76.8040  218.6000 C   0  0  0  0  0  0  0  0  0  0  0  0
  141.7910   76.9620  219.4570 C   0  0  2  0  0  0  0  0  0  0  0  0
  141.7460   78.2480  220.1620 C   0  0  0  0  0  0  0  0  0  0  0  0
  141.6260   79.4590  219.4690 C   0  0  0  0  0  0  0  0  0  0  0  0
  141.5830   80.6710  220.1230 C   0  0  0  0  0  0  0  0  0  0  0  0
  141.4300   82.1180  219.1340 Cl  0  0  0  0  0  0  0  0  0  0  0  0
  141.6600   80.7370  221.5060 C   0  0  0  0  0  0  0  0  0  0  0  0
  141.7780   79.5400  222.1720 C   0  0  0  0  0  0  0  0  0  0  0  0
  141.8790   79.5710  223.9330 Cl  0  0  0  0  0  0  0  0  0  0  0  0
  141.8230   78.3140  221.5470 C   0  0  0  0  0  0  0  0  0  0  0  0
  140.2150   71.3670  223.6500 C   0  0  0  0  0  0  0  0  0  0  0  0
  139.5900   70.1350  223.7150 C   0  0  0  0  0  0  0  0  0  0  0  0
  139.4510   69.4340  224.8950 C   0  0  0  0  0  0  0  0  0  0  0  0
  139.9560   69.9860  226.0500 C   0  0  0  0  0  0  0  0  0  0  0  0
  139.8270   69.3000  227.2370 C   0  0  0  0  0  0  0  0  0  0  0  0
  140.3330   69.8600  228.3770 C   0  0  0  0  0  0  0  0  0  0  0  0
  140.9660   71.1000  228.3370 C   0  0  0  0  0  0  0  0  0  0  0  0
  141.0740   71.7570  227.1140 C   0  0  0  0  0  0  0  0  0  0  0  0
  140.5740   71.2170  225.9510 C   0  0  0  0  0  0  0  0  0  0  0  0
  140.7010   71.8880  224.7930 N   0  0  0  0  0  0  0  0  0  0  0  0
  139.5760   73.9540  223.0270 H   0  0  0  0  0  0  0  0  0  0  0  0
  140.8702   73.4136  220.3386 H   0  0  0  0  0  0  0  0  0  0  0  0
  139.1288   73.8969  220.3578 H   0  0  0  0  0  0  0  0  0  0  0  0
  143.7063   75.5781  220.8718 H   0  0  0  0  0  0  0  0  0  0  0  0
  142.6904   74.1734  221.2368 H   0  0  0  0  0  0  0  0  0  0  0  0
  144.2725   74.0815  219.1145 H   0  0  0  0  0  0  0  0  0  0  0  0
  142.5619   73.5181  218.9387 H   0  0  0  0  0  0  0  0  0  0  0  0
  143.7716   75.2849  217.2684 H   0  0  0  0  0  0  0  0  0  0  0  0
  141.9981   75.2132  217.5811 H   0  0  0  0  0  0  0  0  0  0  0  0
  143.9301   76.9421  219.2097 H   0  0  0  0  0  0  0  0  0  0  0  0
  143.0461   77.5537  217.7954 H   0  0  0  0  0  0  0  0  0  0  0  0
  140.8925   77.0070  218.8240 H   0  0  0  0  0  0  0  0  0  0  0  0
  141.5643   79.4421  218.3709 H   0  0  0  0  0  0  0  0  0  0  0  0
  141.6283   81.6969  222.0422 H   0  0  0  0  0  0  0  0  0  0  0  0
  141.9193   77.3930  222.1407 H   0  0  0  0  0  0  0  0  0  0  0  0
  139.1880   69.6969  222.7896 H   0  0  0  0  0  0  0  0  0  0  0  0
  138.9479   68.4559  224.9123 H   0  0  0  0  0  0  0  0  0  0  0  0
  139.3267   68.3208  227.2674 H   0  0  0  0  0  0  0  0  0  0  0  0
  140.2393   69.3265  229.3344 H   0  0  0  0  0  0  0  0  0  0  0  0
  141.3728   71.5516  229.2538 H   0  0  0  0  0  0  0  0  0  0  0  0
  141.5736   72.7363  227.0763 H   0  0  0  0  0  0  0  0  0  0  0  0
  1  2  2  0
  2  3  1  0
  3  4  1  0
  4  5  1  0
  5  6  2  0
  5  7  1  0
  7  8  1  0
  8  9  1  0
  9 10  1  0
 10 11  1  0
 11 12  1  0
 12 13  1  0
 13 14  2  0
 14 15  1  0
 15 16  1  0
 15 17  2  0
 17 18  1  0
 18 19  1  0
 18 20  2  0
  2 21  1  0
 21 22  2  0
 22 23  1  0
 23 24  2  0
 24 25  1  0
 25 26  2  0
 26 27  1  0
 27 28  2  0
 28 29  1  0
 29 30  2  0
 12  7  1  0
 20 13  1  0
 30 21  1  0
 29 24  1  0
  3 31  1  0
  4 32  1  0
  4 33  1  0
  8 34  1  0
  8 35  1  0
  9 36  1  0
  9 37  1  0
 10 38  1  0
 10 39  1  0
 11 40  1  0
 11 41  1  0
 12 42  1  6
 14 43  1  0
 17 44  1  0
 20 45  1  0
 22 46  1  0
 23 47  1  0
 25 48  1  0
 26 49  1  0
 27 50  1  0
 28 51  1  0
M  END
>  <smiles>  (40) 
O=C(NCC(=O)N1CCCCC1c1cc(Cl)cc(Cl)c1)c1ccc2ccccc2n1

>  <score_type>  (40) 
oracle

>  <origin>  (40) 
autodockgpu

>  <m_score__min__energy>  (40) 
-9.6699999999999999

>  <m_primary>  (40) 
energy

>  <rmsd>  (40) 
2.289911349266068

>  <m_score__min__rmsd>  (40) 
2.289911349266068

>  <meeko>  (40) 
{"free_energy": -9.25, "intermolecular_energy": -10.74, "internal_energy": -1.51, "cluster_size": 38, "cluster_id": 1, "rank_in_cluster": 32}

>  <energy>  (40) 
-9.14

>  <cluster_rmsd>  (40) 
0.57

>  <cluster>  (40) 
2

$$$$

     RDKit          3D

 51 54  0  0  0  0  0  0  0  0999 V2000
  141.3200   72.2990  222.2250 O   0  0  0  0  0  0  0  0  0  0  0  0
  140.3170   72.2320  223.0080 C   0  0  0  0  0  0  0  0  0  0  0  0
  139.1650   72.9960  222.6810 N   0  0  0  0  0  0  0  0  0  0  0  0
  139.2420   73.7950  221.4610 C   0  0  0  0  0  0  0  0  0  0  0  0
  139.4710   75.2280  221.7790 C   0  0  0  0  0  0  0  0  0  0  0  0
  138.7190   75.9180  222.4980 O   0  0  0  0  0  0  0  0  0  0  0  0
  140.6210   75.8560  221.2300 N   0  0  0  0  0  0  0  0  0  0  0  0
  141.8650   75.0730  221.1840 C   0  0  0  0  0  0  0  0  0  0  0  0
  142.1960   74.8900  219.6990 C   0  0  0  0  0  0  0  0  0  0  0  0
  141.8780   76.1300  218.9130 C   0  0  0  0  0  0  0  0  0  0  0  0
  141.8580   77.3460  219.8310 C   0  0  0  0  0  0  0  0  0  0  0  0
  140.6440   77.2010  220.7190 C   0  0  2  0  0  0  0  0  0  0  0  0
  140.5520   78.2540  221.7360 C   0  0  0  0  0  0  0  0  0  0  0  0
  139.3160   78.6930  222.2260 C   0  0  0  0  0  0  0  0  0  0  0  0
  139.2210   79.6820  223.1810 C   0  0  0  0  0  0  0  0  0  0  0  0
  137.6070   80.1420  223.7100 Cl  0  0  0  0  0  0  0  0  0  0  0  0
  140.3570   80.2860  223.6970 C   0  0  0  0  0  0  0  0  0  0  0  0
  141.5640   79.8440  223.2060 C   0  0  0  0  0  0  0  0  0  0  0  0
  143.0390   80.5810  223.8320 Cl  0  0  0  0  0  0  0  0  0  0  0  0
  141.6900   78.8580  222.2530 C   0  0  0  0  0  0  0  0  0  0  0  0
  140.3570   71.4000  224.1950 C   0  0  0  0  0  0  0  0  0  0  0  0
  140.9710   71.8800  225.3360 C   0  0  0  0  0  0  0  0  0  0  0  0
  141.0500   71.1480  226.5030 C   0  0  0  0  0  0  0  0  0  0  0  0
  140.4940   69.8900  226.5260 C   0  0  0  0  0  0  0  0  0  0  0  0
  140.5630   69.1440  227.6820 C   0  0  0  0  0  0  0  0  0  0  0  0
  140.0070   67.8950  227.6920 C   0  0  0  0  0  0  0  0  0  0  0  0
  139.3830   67.3880  226.5530 C   0  0  0  0  0  0  0  0  0  0  0  0
  139.3380   68.1780  225.4080 C   0  0  0  0  0  0  0  0  0  0  0  0
  139.8890   69.4380  225.3700 C   0  0  0  0  0  0  0  0  0  0  0  0
  139.8210   70.1650  224.2400 N   0  0  0  0  0  0  0  0  0  0  0  0
  138.3130   72.9770  223.2880 H   0  0  0  0  0  0  0  0  0  0  0  0
  140.0726   73.4265  220.8411 H   0  0  0  0  0  0  0  0  0  0  0  0
  138.2886   73.7032  220.9201 H   0  0  0  0  0  0  0  0  0  0  0  0
  142.6763   75.6147  221.6922 H   0  0  0  0  0  0  0  0  0  0  0  0
  141.7499   74.1046  221.6928 H   0  0  0  0  0  0  0  0  0  0  0  0
  143.2678   74.6651  219.5957 H   0  0  0  0  0  0  0  0  0  0  0  0
  141.5857   74.0634  219.3062 H   0  0  0  0  0  0  0  0  0  0  0  0
  142.6436   76.2739  218.1364 H   0  0  0  0  0  0  0  0  0  0  0  0
  140.8876   76.0155  218.4483 H   0  0  0  0  0  0  0  0  0  0  0  0
  142.7727   77.3751  220.4414 H   0  0  0  0  0  0  0  0  0  0  0  0
  141.8137   78.2791  219.2501 H   0  0  0  0  0  0  0  0  0  0  0  0
  139.7248   77.3543  220.1345 H   0  0  0  0  0  0  0  0  0  0  0  0
  138.3943   78.2353  221.8375 H   0  0  0  0  0  0  0  0  0  0  0  0
  140.2967   81.0771  224.4590 H   0  0  0  0  0  0  0  0  0  0  0  0
  142.6867   78.5507  221.9034 H   0  0  0  0  0  0  0  0  0  0  0  0
  141.4147   72.8863  225.3131 H   0  0  0  0  0  0  0  0  0  0  0  0
  141.5459   71.5607  227.3939 H   0  0  0  0  0  0  0  0  0  0  0  0
  141.0559   69.5454  228.5797 H   0  0  0  0  0  0  0  0  0  0  0  0
  140.0524   67.2851  228.6063 H   0  0  0  0  0  0  0  0  0  0  0  0
  138.9350   66.3834  226.5591 H   0  0  0  0  0  0  0  0  0  0  0  0
  138.8471   67.7830  224.5063 H   0  0  0  0  0  0  0  0  0  0  0  0
  1  2  2  0
  2  3  1  0
  3  4  1  0
  4  5  1  0
  5  6  2  0
  5  7  1  0
  7  8  1  0
  8  9  1  0
  9 10  1  0
 10 11  1  0
 11 12  1  0
 12 13  1  0
 13 14  2  0
 14 15  1  0
 15 16  1  0
 15 17  2  0
 17 18  1  0
 18 19  1  0
 18 20  2  0
  2 21  1  0
 21 22  2  0
 22 23  1  0
 23 24  2  0
 24 25  1  0
 25 26  2  0
 26 27  1  0
 27 28  2  0
 28 29  1  0
 29 30  2  0
 12  7  1  0
 20 13  1  0
 30 21  1  0
 29 24  1  0
  3 31  1  0
  4 32  1  0
  4 33  1  0
  8 34  1  0
  8 35  1  0
  9 36  1  0
  9 37  1  0
 10 38  1  0
 10 39  1  0
 11 40  1  0
 11 41  1  0
 12 42  1  6
 14 43  1  0
 17 44  1  0
 20 45  1  0
 22 46  1  0
 23 47  1  0
 25 48  1  0
 26 49  1  0
 27 50  1  0
 28 51  1  0
M  END
>  <smiles>  (41) 
O=C(NCC(=O)N1CCCCC1c1cc(Cl)cc(Cl)c1)c1ccc2ccccc2n1

>  <score_type>  (41) 
oracle

>  <origin>  (41) 
autodockgpu

>  <m_score__min__energy>  (41) 
-9.6699999999999999

>  <m_primary>  (41) 
energy

>  <rmsd>  (41) 
3.070320141388138

>  <m_score__min__rmsd>  (41) 
3.070320141388138

>  <meeko>  (41) 
{"free_energy": -9.36, "intermolecular_energy": -10.85, "internal_energy": -1.5, "cluster_size": 38, "cluster_id": 1, "rank_in_cluster": 24}

>  <energy>  (41) 
-9.12

>  <cluster_rmsd>  (41) 
0.58

>  <cluster>  (41) 
2

$$$$

     RDKit          3D

 51 54  0  0  0  0  0  0  0  0999 V2000
  141.2250   71.9070  221.5980 O   0  0  0  0  0  0  0  0  0  0  0  0
  140.3120   72.1680  222.4480 C   0  0  0  0  0  0  0  0  0  0  0  0
  139.3960   73.2090  222.1410 N   0  0  0  0  0  0  0  0  0  0  0  0
  139.5910   73.8900  220.8640 C   0  0  0  0  0  0  0  0  0  0  0  0
  140.3410   75.1580  221.0470 C   0  0  0  0  0  0  0  0  0  0  0  0
  140.3270   75.8380  222.0930 O   0  0  0  0  0  0  0  0  0  0  0  0
  141.1260   75.6300  219.9610 N   0  0  0  0  0  0  0  0  0  0  0  0
  140.4310   75.9260  218.6990 C   0  0  0  0  0  0  0  0  0  0  0  0
  140.5860   77.4330  218.4720 C   0  0  0  0  0  0  0  0  0  0  0  0
  141.9500   77.9080  218.8850 C   0  0  0  0  0  0  0  0  0  0  0  0
  142.9380   76.7480  218.8770 C   0  0  0  0  0  0  0  0  0  0  0  0
  142.5490   75.8360  220.0180 C   0  0  2  0  0  0  0  0  0  0  0  0
  143.3540   74.6110  220.0690 C   0  0  0  0  0  0  0  0  0  0  0  0
  142.9860   73.4630  219.3570 C   0  0  0  0  0  0  0  0  0  0  0  0
  143.7370   72.3080  219.3980 C   0  0  0  0  0  0  0  0  0  0  0  0
  143.1630   70.9370  218.4570 Cl  0  0  0  0  0  0  0  0  0  0  0  0
  144.8950   72.2390  220.1570 C   0  0  0  0  0  0  0  0  0  0  0  0
  145.2440   73.3740  220.8500 C   0  0  0  0  0  0  0  0  0  0  0  0
  146.7100   73.3370  221.8300 Cl  0  0  0  0  0  0  0  0  0  0  0  0
  144.5150   74.5420  220.8270 C   0  0  0  0  0  0  0  0  0  0  0  0
  140.2180   71.4220  223.6870 C   0  0  0  0  0  0  0  0  0  0  0  0
  139.6210   70.1740  223.6800 C   0  0  0  0  0  0  0  0  0  0  0  0
  139.4950   69.4040  224.8180 C   0  0  0  0  0  0  0  0  0  0  0  0
  139.9820   69.9020  226.0040 C   0  0  0  0  0  0  0  0  0  0  0  0
  139.8650   69.1480  227.1510 C   0  0  0  0  0  0  0  0  0  0  0  0
  140.3530   69.6540  228.3230 C   0  0  0  0  0  0  0  0  0  0  0  0
  140.9580   70.9090  228.3550 C   0  0  0  0  0  0  0  0  0  0  0  0
  141.0550   71.6360  227.1720 C   0  0  0  0  0  0  0  0  0  0  0  0
  140.5720   71.1500  225.9780 C   0  0  0  0  0  0  0  0  0  0  0  0
  140.6870   71.8890  224.8600 N   0  0  0  0  0  0  0  0  0  0  0  0
  138.6270   73.4650  222.8030 H   0  0  0  0  0  0  0  0  0  0  0  0
  140.1565   73.2319  220.1879 H   0  0  0  0  0  0  0  0  0  0  0  0
  138.6046   74.1244  220.4373 H   0  0  0  0  0  0  0  0  0  0  0  0
  140.8891   75.3660  217.8704 H   0  0  0  0  0  0  0  0  0  0  0  0
  139.3716   75.6335  218.7455 H   0  0  0  0  0  0  0  0  0  0  0  0
  140.4381   77.6519  217.4042 H   0  0  0  0  0  0  0  0  0  0  0  0
  139.8356   77.9559  219.0832 H   0  0  0  0  0  0  0  0  0  0  0  0
  142.2930   78.6818  218.1825 H   0  0  0  0  0  0  0  0  0  0  0  0
  141.8921   78.3221  219.9024 H   0  0  0  0  0  0  0  0  0  0  0  0
  142.8782   76.2061  217.9216 H   0  0  0  0  0  0  0  0  0  0  0  0
  143.9708   77.1081  218.9937 H   0  0  0  0  0  0  0  0  0  0  0  0
  142.7809   76.3120  220.9822 H   0  0  0  0  0  0  0  0  0  0  0  0
  142.0708   73.4834  218.7471 H   0  0  0  0  0  0  0  0  0  0  0  0
  145.5032   71.3235  220.2024 H   0  0  0  0  0  0  0  0  0  0  0  0
  144.8506   75.4152  221.4058 H   0  0  0  0  0  0  0  0  0  0  0  0
  139.2314   69.7800  222.7297 H   0  0  0  0  0  0  0  0  0  0  0  0
  139.0161   68.4146  224.7776 H   0  0  0  0  0  0  0  0  0  0  0  0
  139.3878   68.1573  227.1240 H   0  0  0  0  0  0  0  0  0  0  0  0
  140.2675   69.0659  229.2486 H   0  0  0  0  0  0  0  0  0  0  0  0
  141.3515   71.3174  229.2975 H   0  0  0  0  0  0  0  0  0  0  0  0
  141.5313   72.6274  227.1917 H   0  0  0  0  0  0  0  0  0  0  0  0
  1  2  2  0
  2  3  1  0
  3  4  1  0
  4  5  1  0
  5  6  2  0
  5  7  1  0
  7  8  1  0
  8  9  1  0
  9 10  1  0
 10 11  1  0
 11 12  1  0
 12 13  1  0
 13 14  2  0
 14 15  1  0
 15 16  1  0
 15 17  2  0
 17 18  1  0
 18 19  1  0
 18 20  2  0
  2 21  1  0
 21 22  2  0
 22 23  1  0
 23 24  2  0
 24 25  1  0
 25 26  2  0
 26 27  1  0
 27 28  2  0
 28 29  1  0
 29 30  2  0
 12  7  1  0
 20 13  1  0
 30 21  1  0
 29 24  1  0
  3 31  1  0
  4 32  1  0
  4 33  1  0
  8 34  1  0
  8 35  1  0
  9 36  1  0
  9 37  1  0
 10 38  1  0
 10 39  1  0
 11 40  1  0
 11 41  1  0
 12 42  1  1
 14 43  1  0
 17 44  1  0
 20 45  1  0
 22 46  1  0
 23 47  1  0
 25 48  1  0
 26 49  1  0
 27 50  1  0
 28 51  1  0
M  END
>  <smiles>  (42) 
O=C(NCC(=O)N1CCCCC1c1cc(Cl)cc(Cl)c1)c1ccc2ccccc2n1

>  <score_type>  (42) 
oracle

>  <origin>  (42) 
autodockgpu

>  <m_score__min__energy>  (42) 
-9.6699999999999999

>  <m_primary>  (42) 
energy

>  <rmsd>  (42) 
1.6970229481979953

>  <m_score__min__rmsd>  (42) 
1.6970229481979953

>  <meeko>  (42) 
{"free_energy": -9.08, "intermolecular_energy": -10.57, "internal_energy": -1.9, "cluster_size": 9, "cluster_id": 2, "rank_in_cluster": 4}

>  <energy>  (42) 
-9.08

>  <cluster_rmsd>  (42) 
0.62

>  <cluster>  (42) 
2

$$$$

     RDKit          3D

 51 54  0  0  0  0  0  0  0  0999 V2000
  141.4390   71.8970  222.2650 O   0  0  0  0  0  0  0  0  0  0  0  0
  140.4240   71.9060  223.0350 C   0  0  0  0  0  0  0  0  0  0  0  0
  139.2650   72.6020  222.6000 N   0  0  0  0  0  0  0  0  0  0  0  0
  139.3490   73.2490  221.2930 C   0  0  0  0  0  0  0  0  0  0  0  0
  139.8520   74.6400  221.4210 C   0  0  0  0  0  0  0  0  0  0  0  0
  139.6870   75.3570  222.4290 O   0  0  0  0  0  0  0  0  0  0  0  0
  140.5670   75.1940  220.3250 N   0  0  0  0  0  0  0  0  0  0  0  0
  139.8080   75.4930  219.1020 C   0  0  0  0  0  0  0  0  0  0  0  0
  139.8710   77.0140  218.9250 C   0  0  0  0  0  0  0  0  0  0  0  0
  141.2220   77.5500  219.3060 C   0  0  0  0  0  0  0  0  0  0  0  0
  142.2710   76.4490  219.2190 C   0  0  0  0  0  0  0  0  0  0  0  0
  141.9770   75.4770  220.3380 C   0  0  2  0  0  0  0  0  0  0  0  0
  142.8500   74.2980  220.3140 C   0  0  0  0  0  0  0  0  0  0  0  0
  142.4210   73.0810  219.7730 C   0  0  0  0  0  0  0  0  0  0  0  0
  143.2340   71.9680  219.7460 C   0  0  0  0  0  0  0  0  0  0  0  0
  142.5720   70.5000  219.0380 Cl  0  0  0  0  0  0  0  0  0  0  0  0
  144.5200   72.0150  220.2600 C   0  0  0  0  0  0  0  0  0  0  0  0
  144.9280   73.2180  220.7880 C   0  0  0  0  0  0  0  0  0  0  0  0
  146.5580   73.3280  221.4550 Cl  0  0  0  0  0  0  0  0  0  0  0  0
  144.1390   74.3450  220.8280 C   0  0  0  0  0  0  0  0  0  0  0  0
  140.4580   71.2250  224.3150 C   0  0  0  0  0  0  0  0  0  0  0  0
  141.0160   71.8650  225.4060 C   0  0  0  0  0  0  0  0  0  0  0  0
  141.0840   71.2820  226.6550 C   0  0  0  0  0  0  0  0  0  0  0  0
  140.5770   70.0130  226.8160 C   0  0  0  0  0  0  0  0  0  0  0  0
  140.6370   69.4160  228.0550 C   0  0  0  0  0  0  0  0  0  0  0  0
  140.1290   68.1550  228.2010 C   0  0  0  0  0  0  0  0  0  0  0  0
  139.5620   67.4890  227.1160 C   0  0  0  0  0  0  0  0  0  0  0  0
  139.5240   68.1320  225.8820 C   0  0  0  0  0  0  0  0  0  0  0  0
  140.0270   69.4010  225.7070 C   0  0  0  0  0  0  0  0  0  0  0  0
  139.9680   69.9830  224.4960 N   0  0  0  0  0  0  0  0  0  0  0  0
  138.4030   72.6410  223.1920 H   0  0  0  0  0  0  0  0  0  0  0  0
  140.0342   72.6760  220.6510 H   0  0  0  0  0  0  0  0  0  0  0  0
  138.3423   73.2789  220.8507 H   0  0  0  0  0  0  0  0  0  0  0  0
  140.2634   74.9886  218.2370 H   0  0  0  0  0  0  0  0  0  0  0  0
  138.7691   75.1394  219.1768 H   0  0  0  0  0  0  0  0  0  0  0  0
  139.6708   77.2613  217.8720 H   0  0  0  0  0  0  0  0  0  0  0  0
  139.1167   77.4725  219.5813 H   0  0  0  0  0  0  0  0  0  0  0  0
  141.4949   78.3663  218.6210 H   0  0  0  0  0  0  0  0  0  0  0  0
  141.1803   77.9238  220.3397 H   0  0  0  0  0  0  0  0  0  0  0  0
  142.2047   75.9386  218.2468 H   0  0  0  0  0  0  0  0  0  0  0  0
  143.2861   76.8625  219.3117 H   0  0  0  0  0  0  0  0  0  0  0  0
  142.2193   75.9304  221.3105 H   0  0  0  0  0  0  0  0  0  0  0  0
  141.4052   73.0103  219.3570 H   0  0  0  0  0  0  0  0  0  0  0  0
  145.1807   71.1356  220.2465 H   0  0  0  0  0  0  0  0  0  0  0  0
  144.5272   75.2771  221.2644 H   0  0  0  0  0  0  0  0  0  0  0  0
  141.4218   72.8788  225.2733 H   0  0  0  0  0  0  0  0  0  0  0  0
  141.5334   71.8197  227.5028 H   0  0  0  0  0  0  0  0  0  0  0  0
  141.0847   69.9429  228.9105 H   0  0  0  0  0  0  0  0  0  0  0  0
  140.1682   67.6618  229.1835 H   0  0  0  0  0  0  0  0  0  0  0  0
  139.1524   66.4748  227.2325 H   0  0  0  0  0  0  0  0  0  0  0  0
  139.0790   67.6106  225.0217 H   0  0  0  0  0  0  0  0  0  0  0  0
  1  2  2  0
  2  3  1  0
  3  4  1  0
  4  5  1  0
  5  6  2  0
  5  7  1  0
  7  8  1  0
  8  9  1  0
  9 10  1  0
 10 11  1  0
 11 12  1  0
 12 13  1  0
 13 14  2  0
 14 15  1  0
 15 16  1  0
 15 17  2  0
 17 18  1  0
 18 19  1  0
 18 20  2  0
  2 21  1  0
 21 22  2  0
 22 23  1  0
 23 24  2  0
 24 25  1  0
 25 26  2  0
 26 27  1  0
 27 28  2  0
 28 29  1  0
 29 30  2  0
 12  7  1  0
 20 13  1  0
 30 21  1  0
 29 24  1  0
  3 31  1  0
  4 32  1  0
  4 33  1  0
  8 34  1  0
  8 35  1  0
  9 36  1  0
  9 37  1  0
 10 38  1  0
 10 39  1  0
 11 40  1  0
 11 41  1  0
 12 42  1  1
 14 43  1  0
 17 44  1  0
 20 45  1  0
 22 46  1  0
 23 47  1  0
 25 48  1  0
 26 49  1  0
 27 50  1  0
 28 51  1  0
M  END
>  <smiles>  (43) 
O=C(NCC(=O)N1CCCCC1c1cc(Cl)cc(Cl)c1)c1ccc2ccccc2n1

>  <score_type>  (43) 
oracle

>  <origin>  (43) 
autodockgpu

>  <m_score__min__energy>  (43) 
-9.6699999999999999

>  <m_primary>  (43) 
energy

>  <rmsd>  (43) 
2.760330517054267

>  <m_score__min__rmsd>  (43) 
2.760330517054267

>  <meeko>  (43) 
{"free_energy": -8.74, "intermolecular_energy": -10.24, "internal_energy": -1.94, "cluster_size": 9, "cluster_id": 2, "rank_in_cluster": 8}

>  <energy>  (43) 
-8.97

>  <cluster_rmsd>  (43) 
0.73

>  <cluster>  (43) 
2

$$$$

     RDKit          3D

 51 54  0  0  0  0  0  0  0  0999 V2000
  141.2230   72.3600  221.8110 O   0  0  0  0  0  0  0  0  0  0  0  0
  140.1940   72.4230  222.5610 C   0  0  0  0  0  0  0  0  0  0  0  0
  139.1610   73.3280  222.2000 N   0  0  0  0  0  0  0  0  0  0  0  0
  139.3800   74.1110  220.9870 C   0  0  0  0  0  0  0  0  0  0  0  0
  140.4440   75.1260  221.1940 C   0  0  0  0  0  0  0  0  0  0  0  0
  140.7570   75.5990  222.3060 O   0  0  0  0  0  0  0  0  0  0  0  0
  141.1530   75.5910  220.0540 N   0  0  0  0  0  0  0  0  0  0  0  0
  140.3760   75.8570  218.8350 C   0  0  0  0  0  0  0  0  0  0  0  0
  140.4970   77.3620  218.5740 C   0  0  0  0  0  0  0  0  0  0  0  0
  141.8770   77.8610  218.8950 C   0  0  0  0  0  0  0  0  0  0  0  0
  142.8790   76.7140  218.8430 C   0  0  0  0  0  0  0  0  0  0  0  0
  142.5730   75.8160  220.0190 C   0  0  2  0  0  0  0  0  0  0  0  0
  143.3970   74.6020  220.0380 C   0  0  0  0  0  0  0  0  0  0  0  0
  144.5390   74.5040  220.8410 C   0  0  0  0  0  0  0  0  0  0  0  0
  145.3180   73.3670  220.8660 C   0  0  0  0  0  0  0  0  0  0  0  0
  146.7270   73.3750  221.9190 Cl  0  0  0  0  0  0  0  0  0  0  0  0
  144.9960   72.2670  220.0870 C   0  0  0  0  0  0  0  0  0  0  0  0
  143.8710   72.3780  219.3030 C   0  0  0  0  0  0  0  0  0  0  0  0
  143.4190   71.0040  218.2930 Cl  0  0  0  0  0  0  0  0  0  0  0  0
  143.0740   73.4990  219.2580 C   0  0  0  0  0  0  0  0  0  0  0  0
  140.0890   71.5920  223.7450 C   0  0  0  0  0  0  0  0  0  0  0  0
  139.3590   70.4200  223.6850 C   0  0  0  0  0  0  0  0  0  0  0  0
  139.2130   69.5780  224.7690 C   0  0  0  0  0  0  0  0  0  0  0  0
  139.8190   69.9240  225.9540 C   0  0  0  0  0  0  0  0  0  0  0  0
  139.6850   69.0960  227.0470 C   0  0  0  0  0  0  0  0  0  0  0  0
  140.2920   69.4510  228.2180 C   0  0  0  0  0  0  0  0  0  0  0  0
  141.0330   70.6290  228.3040 C   0  0  0  0  0  0  0  0  0  0  0  0
  141.1420   71.4350  227.1750 C   0  0  0  0  0  0  0  0  0  0  0  0
  140.5400   71.1010  225.9820 C   0  0  0  0  0  0  0  0  0  0  0  0
  140.6730   71.9110  224.9170 N   0  0  0  0  0  0  0  0  0  0  0  0
  138.2950   73.4190  222.7790 H   0  0  0  0  0  0  0  0  0  0  0  0
  139.6805   73.4358  220.1723 H   0  0  0  0  0  0  0  0  0  0  0  0
  138.4447   74.6306  220.7315 H   0  0  0  0  0  0  0  0  0  0  0  0
  140.7877   75.2884  217.9882 H   0  0  0  0  0  0  0  0  0  0  0  0
  139.3256   75.5528  218.9536 H   0  0  0  0  0  0  0  0  0  0  0  0
  140.2815   77.5605  217.5137 H   0  0  0  0  0  0  0  0  0  0  0  0
  139.7784   77.8861  219.2212 H   0  0  0  0  0  0  0  0  0  0  0  0
  142.1653   78.6283  218.1614 H   0  0  0  0  0  0  0  0  0  0  0  0
  141.8760   78.2899  219.9079 H   0  0  0  0  0  0  0  0  0  0  0  0
  142.7682   76.1563  217.9013 H   0  0  0  0  0  0  0  0  0  0  0  0
  143.9121   77.0889  218.8899 H   0  0  0  0  0  0  0  0  0  0  0  0
  142.8565   76.3105  220.9598 H   0  0  0  0  0  0  0  0  0  0  0  0
  144.8234   75.3597  221.4710 H   0  0  0  0  0  0  0  0  0  0  0  0
  145.6079   71.3529  220.0951 H   0  0  0  0  0  0  0  0  0  0  0  0
  142.1866   73.5214  218.6083 H   0  0  0  0  0  0  0  0  0  0  0  0
  138.8750   70.1473  222.7356 H   0  0  0  0  0  0  0  0  0  0  0  0
  138.6255   68.6517  224.6869 H   0  0  0  0  0  0  0  0  0  0  0  0
  139.1003   68.1668  226.9779 H   0  0  0  0  0  0  0  0  0  0  0  0
  140.1954   68.8019  229.1008 H   0  0  0  0  0  0  0  0  0  0  0  0
  141.5222   70.9158  229.2466 H   0  0  0  0  0  0  0  0  0  0  0  0
  141.7255   72.3654  227.2370 H   0  0  0  0  0  0  0  0  0  0  0  0
  1  2  2  0
  2  3  1  0
  3  4  1  0
  4  5  1  0
  5  6  2  0
  5  7  1  0
  7  8  1  0
  8  9  1  0
  9 10  1  0
 10 11  1  0
 11 12  1  0
 12 13  1  0
 13 14  2  0
 14 15  1  0
 15 16  1  0
 15 17  2  0
 17 18  1  0
 18 19  1  0
 18 20  2  0
  2 21  1  0
 21 22  2  0
 22 23  1  0
 23 24  2  0
 24 25  1  0
 25 26  2  0
 26 27  1  0
 27 28  2  0
 28 29  1  0
 29 30  2  0
 12  7  1  0
 20 13  1  0
 30 21  1  0
 29 24  1  0
  3 31  1  0
  4 32  1  0
  4 33  1  0
  8 34  1  0
  8 35  1  0
  9 36  1  0
  9 37  1  0
 10 38  1  0
 10 39  1  0
 11 40  1  0
 11 41  1  0
 12 42  1  1
 14 43  1  0
 17 44  1  0
 20 45  1  0
 22 46  1  0
 23 47  1  0
 25 48  1  0
 26 49  1  0
 27 50  1  0
 28 51  1  0
M  END
>  <smiles>  (44) 
O=C(NCC(=O)N1CCCCC1c1cc(Cl)cc(Cl)c1)c1ccc2ccccc2n1

>  <score_type>  (44) 
oracle

>  <origin>  (44) 
autodockgpu

>  <m_score__min__energy>  (44) 
-9.6699999999999999

>  <m_primary>  (44) 
energy

>  <rmsd>  (44) 
1.6861560009087821

>  <m_score__min__rmsd>  (44) 
1.6861560009087821

>  <meeko>  (44) 
{"free_energy": -9.14, "intermolecular_energy": -10.63, "internal_energy": -1.81, "cluster_size": 9, "cluster_id": 2, "rank_in_cluster": 2}

>  <energy>  (44) 
-8.9

>  <cluster_rmsd>  (44) 
1.06

>  <cluster>  (44) 
2

$$$$

     RDKit          3D

 51 54  0  0  0  0  0  0  0  0999 V2000
  139.4690   71.2120  221.3390 O   0  0  0  0  0  0  0  0  0  0  0  0
  139.5660   71.8900  222.4140 C   0  0  0  0  0  0  0  0  0  0  0  0
  139.4220   73.3000  222.3270 N   0  0  0  0  0  0  0  0  0  0  0  0
  139.1720   73.8450  220.9950 C   0  0  0  0  0  0  0  0  0  0  0  0
  139.3940   75.3130  220.9720 C   0  0  0  0  0  0  0  0  0  0  0  0
  138.4840   76.1630  221.0430 O   0  0  0  0  0  0  0  0  0  0  0  0
  140.7310   75.7830  220.8610 N   0  0  0  0  0  0  0  0  0  0  0  0
  141.8110   74.8260  221.1400 C   0  0  0  0  0  0  0  0  0  0  0  0
  142.5730   74.6490  219.8220 C   0  0  0  0  0  0  0  0  0  0  0  0
  142.6870   75.9500  219.0800 C   0  0  0  0  0  0  0  0  0  0  0  0
  142.5320   77.1220  220.0430 C   0  0  0  0  0  0  0  0  0  0  0  0
  141.0900   77.1270  220.4950 C   0  0  2  0  0  0  0  0  0  0  0  0
  140.8150   78.1440  221.5150 C   0  0  0  0  0  0  0  0  0  0  0  0
  141.8490   78.8510  222.1410 C   0  0  0  0  0  0  0  0  0  0  0  0
  141.6000   79.8090  223.1000 C   0  0  0  0  0  0  0  0  0  0  0  0
  142.9890   80.6230  223.8090 Cl  0  0  0  0  0  0  0  0  0  0  0  0
  140.3030   80.1100  223.4850 C   0  0  0  0  0  0  0  0  0  0  0  0
  139.2980   79.4080  222.8610 C   0  0  0  0  0  0  0  0  0  0  0  0
  137.6290   79.7560  223.3160 Cl  0  0  0  0  0  0  0  0  0  0  0  0
  139.5160   78.4470  221.9000 C   0  0  0  0  0  0  0  0  0  0  0  0
  139.8170   71.2350  223.6830 C   0  0  0  0  0  0  0  0  0  0  0  0
  139.5340   69.8880  223.8150 C   0  0  0  0  0  0  0  0  0  0  0  0
  139.7450   69.1950  224.9900 C   0  0  0  0  0  0  0  0  0  0  0  0
  140.2560   69.8770  226.0700 C   0  0  0  0  0  0  0  0  0  0  0  0
  140.4740   69.2020  227.2510 C   0  0  0  0  0  0  0  0  0  0  0  0
  140.9820   69.8910  228.3170 C   0  0  0  0  0  0  0  0  0  0  0  0
  141.2740   71.2490  228.2090 C   0  0  0  0  0  0  0  0  0  0  0  0
  141.0380   71.8900  226.9950 C   0  0  0  0  0  0  0  0  0  0  0  0
  140.5270   71.2210  225.9070 C   0  0  0  0  0  0  0  0  0  0  0  0
  140.3160   71.8820  224.7540 N   0  0  0  0  0  0  0  0  0  0  0  0
  139.4910   73.9050  223.1780 H   0  0  0  0  0  0  0  0  0  0  0  0
  139.8538   73.3665  220.2765 H   0  0  0  0  0  0  0  0  0  0  0  0
  138.1250   73.6440  220.7242 H   0  0  0  0  0  0  0  0  0  0  0  0
  142.4805   75.2220  221.9178 H   0  0  0  0  0  0  0  0  0  0  0  0
  141.4142   73.8678  221.5066 H   0  0  0  0  0  0  0  0  0  0  0  0
  143.5827   74.2707  220.0396 H   0  0  0  0  0  0  0  0  0  0  0  0
  142.0186   73.9372  219.1927 H   0  0  0  0  0  0  0  0  0  0  0  0
  143.6727   76.0063  218.5951 H   0  0  0  0  0  0  0  0  0  0  0  0
  141.8915   76.0012  218.3220 H   0  0  0  0  0  0  0  0  0  0  0  0
  143.1996   76.9927  220.9077 H   0  0  0  0  0  0  0  0  0  0  0  0
  142.7963   78.0718  219.5551 H   0  0  0  0  0  0  0  0  0  0  0  0
  140.4335   77.4369  219.6686 H   0  0  0  0  0  0  0  0  0  0  0  0
  142.8902   78.6355  221.8592 H   0  0  0  0  0  0  0  0  0  0  0  0
  140.0884   80.8708  224.2499 H   0  0  0  0  0  0  0  0  0  0  0  0
  138.6659   77.9221  221.4397 H   0  0  0  0  0  0  0  0  0  0  0  0
  139.1244   69.3471  222.9492 H   0  0  0  0  0  0  0  0  0  0  0  0
  139.5101   68.1227  225.0611 H   0  0  0  0  0  0  0  0  0  0  0  0
  140.2438   68.1296  227.3347 H   0  0  0  0  0  0  0  0  0  0  0  0
  141.1617   69.3686  229.2682 H   0  0  0  0  0  0  0  0  0  0  0  0
  141.6831   71.8043  229.0659 H   0  0  0  0  0  0  0  0  0  0  0  0
  141.2668   72.9621  226.9037 H   0  0  0  0  0  0  0  0  0  0  0  0
  1  2  2  0
  2  3  1  0
  3  4  1  0
  4  5  1  0
  5  6  2  0
  5  7  1  0
  7  8  1  0
  8  9  1  0
  9 10  1  0
 10 11  1  0
 11 12  1  0
 12 13  1  0
 13 14  2  0
 14 15  1  0
 15 16  1  0
 15 17  2  0
 17 18  1  0
 18 19  1  0
 18 20  2  0
  2 21  1  0
 21 22  2  0
 22 23  1  0
 23 24  2  0
 24 25  1  0
 25 26  2  0
 26 27  1  0
 27 28  2  0
 28 29  1  0
 29 30  2  0
 12  7  1  0
 20 13  1  0
 30 21  1  0
 29 24  1  0
  3 31  1  0
  4 32  1  0
  4 33  1  0
  8 34  1  0
  8 35  1  0
  9 36  1  0
  9 37  1  0
 10 38  1  0
 10 39  1  0
 11 40  1  0
 11 41  1  0
 12 42  1  6
 14 43  1  0
 17 44  1  0
 20 45  1  0
 22 46  1  0
 23 47  1  0
 25 48  1  0
 26 49  1  0
 27 50  1  0
 28 51  1  0
M  END
>  <smiles>  (45) 
O=C(NCC(=O)N1CCCCC1c1cc(Cl)cc(Cl)c1)c1ccc2ccccc2n1

>  <score_type>  (45) 
oracle

>  <origin>  (45) 
autodockgpu

>  <m_score__min__energy>  (45) 
-9.6699999999999999

>  <m_primary>  (45) 
energy

>  <rmsd>  (45) 
2.1208147587026125

>  <m_score__min__rmsd>  (45) 
2.1208147587026125

>  <meeko>  (45) 
{"free_energy": -9.38, "intermolecular_energy": -10.88, "internal_energy": -1.39, "cluster_size": 38, "cluster_id": 1, "rank_in_cluster": 21}

>  <energy>  (45) 
-8.87

>  <cluster_rmsd>  (45) 
0.79

>  <cluster>  (45) 
2

$$$$

     RDKit          3D

 51 54  0  0  0  0  0  0  0  0999 V2000
  140.2010   71.3180  221.2980 O   0  0  0  0  0  0  0  0  0  0  0  0
  139.9640   71.9460  222.3810 C   0  0  0  0  0  0  0  0  0  0  0  0
  139.6460   73.3280  222.2930 N   0  0  0  0  0  0  0  0  0  0  0  0
  139.6210   73.9030  220.9510 C   0  0  0  0  0  0  0  0  0  0  0  0
  139.6310   75.3870  221.0090 C   0  0  0  0  0  0  0  0  0  0  0  0
  138.6490   76.0840  221.3360 O   0  0  0  0  0  0  0  0  0  0  0  0
  140.8360   76.0590  220.6700 N   0  0  0  0  0  0  0  0  0  0  0  0
  142.0780   75.2720  220.6830 C   0  0  0  0  0  0  0  0  0  0  0  0
  142.5810   75.2480  219.2360 C   0  0  0  0  0  0  0  0  0  0  0  0
  142.3550   76.5700  218.5600 C   0  0  0  0  0  0  0  0  0  0  0  0
  142.2250   77.6790  219.5970 C   0  0  0  0  0  0  0  0  0  0  0  0
  140.9160   77.4510  220.3160 C   0  0  2  0  0  0  0  0  0  0  0  0
  140.7030   78.3880  221.4250 C   0  0  0  0  0  0  0  0  0  0  0  0
  141.7760   79.0090  222.0740 C   0  0  0  0  0  0  0  0  0  0  0  0
  141.5860   79.8920  223.1160 C   0  0  0  0  0  0  0  0  0  0  0  0
  143.0200   80.6030  223.8460 Cl  0  0  0  0  0  0  0  0  0  0  0  0
  140.3100   80.1980  223.5650 C   0  0  0  0  0  0  0  0  0  0  0  0
  139.2660   79.5800  222.9170 C   0  0  0  0  0  0  0  0  0  0  0  0
  137.6240   79.9380  223.4510 Cl  0  0  0  0  0  0  0  0  0  0  0  0
  139.4260   78.6960  221.8740 C   0  0  0  0  0  0  0  0  0  0  0  0
  140.0190   71.2650  223.6600 C   0  0  0  0  0  0  0  0  0  0  0  0
  139.5530   69.9670  223.7540 C   0  0  0  0  0  0  0  0  0  0  0  0
  139.5720   69.2540  224.9350 C   0  0  0  0  0  0  0  0  0  0  0  0
  140.0740   69.8640  226.0620 C   0  0  0  0  0  0  0  0  0  0  0  0
  140.1020   69.1680  227.2500 C   0  0  0  0  0  0  0  0  0  0  0  0
  140.6040   69.7850  228.3610 C   0  0  0  0  0  0  0  0  0  0  0  0
  141.0790   71.0930  228.2920 C   0  0  0  0  0  0  0  0  0  0  0  0
  141.0320   71.7580  227.0690 C   0  0  0  0  0  0  0  0  0  0  0  0
  140.5310   71.1600  225.9350 C   0  0  0  0  0  0  0  0  0  0  0  0
  140.5060   71.8420  224.7760 N   0  0  0  0  0  0  0  0  0  0  0  0
  139.4420   73.8920  223.1510 H   0  0  0  0  0  0  0  0  0  0  0  0
  140.5056   73.5585  220.3952 H   0  0  0  0  0  0  0  0  0  0  0  0
  138.6991   73.5776  220.4468 H   0  0  0  0  0  0  0  0  0  0  0  0
  142.8234   75.7460  221.3385 H   0  0  0  0  0  0  0  0  0  0  0  0
  141.9054   74.2551  221.0654 H   0  0  0  0  0  0  0  0  0  0  0  0
  143.6579   75.0236  219.2342 H   0  0  0  0  0  0  0  0  0  0  0  0
  142.0228   74.4759  218.6862 H   0  0  0  0  0  0  0  0  0  0  0  0
  143.2061   76.7896  217.8987 H   0  0  0  0  0  0  0  0  0  0  0  0
  141.4258   76.5178  217.9736 H   0  0  0  0  0  0  0  0  0  0  0  0
  143.0619   77.6317  220.3093 H   0  0  0  0  0  0  0  0  0  0  0  0
  142.2469   78.6702  219.1206 H   0  0  0  0  0  0  0  0  0  0  0  0
  140.0713   77.6771  219.6486 H   0  0  0  0  0  0  0  0  0  0  0  0
  142.8012   78.7862  221.7432 H   0  0  0  0  0  0  0  0  0  0  0  0
  140.1416   80.8986  224.3962 H   0  0  0  0  0  0  0  0  0  0  0  0
  138.5468   78.2362  221.3989 H   0  0  0  0  0  0  0  0  0  0  0  0
  139.1511   69.4834  222.8514 H   0  0  0  0  0  0  0  0  0  0  0  0
  139.1946   68.2216  224.9749 H   0  0  0  0  0  0  0  0  0  0  0  0
  139.7274   68.1351  227.3035 H   0  0  0  0  0  0  0  0  0  0  0  0
  140.6334   69.2442  229.3184 H   0  0  0  0  0  0  0  0  0  0  0  0
  141.4832   71.5907  229.1858 H   0  0  0  0  0  0  0  0  0  0  0  0
  141.4060   72.7907  227.0077 H   0  0  0  0  0  0  0  0  0  0  0  0
  1  2  2  0
  2  3  1  0
  3  4  1  0
  4  5  1  0
  5  6  2  0
  5  7  1  0
  7  8  1  0
  8  9  1  0
  9 10  1  0
 10 11  1  0
 11 12  1  0
 12 13  1  0
 13 14  2  0
 14 15  1  0
 15 16  1  0
 15 17  2  0
 17 18  1  0
 18 19  1  0
 18 20  2  0
  2 21  1  0
 21 22  2  0
 22 23  1  0
 23 24  2  0
 24 25  1  0
 25 26  2  0
 26 27  1  0
 27 28  2  0
 28 29  1  0
 29 30  2  0
 12  7  1  0
 20 13  1  0
 30 21  1  0
 29 24  1  0
  3 31  1  0
  4 32  1  0
  4 33  1  0
  8 34  1  0
  8 35  1  0
  9 36  1  0
  9 37  1  0
 10 38  1  0
 10 39  1  0
 11 40  1  0
 11 41  1  0
 12 42  1  6
 14 43  1  0
 17 44  1  0
 20 45  1  0
 22 46  1  0
 23 47  1  0
 25 48  1  0
 26 49  1  0
 27 50  1  0
 28 51  1  0
M  END
>  <smiles>  (46) 
O=C(NCC(=O)N1CCCCC1c1cc(Cl)cc(Cl)c1)c1ccc2ccccc2n1

>  <score_type>  (46) 
oracle

>  <origin>  (46) 
autodockgpu

>  <m_score__min__energy>  (46) 
-9.6699999999999999

>  <m_primary>  (46) 
energy

>  <rmsd>  (46) 
2.044711860485824

>  <m_score__min__rmsd>  (46) 
2.044711860485824

>  <meeko>  (46) 
{"free_energy": -9.46, "intermolecular_energy": -10.95, "internal_energy": -1.44, "cluster_size": 38, "cluster_id": 1, "rank_in_cluster": 12}

>  <energy>  (46) 
-8.74

>  <cluster_rmsd>  (46) 
1.26

>  <cluster>  (46) 
2

$$$$

     RDKit          3D

 51 54  0  0  0  0  0  0  0  0999 V2000
  140.8180   71.4810  221.3540 O   0  0  0  0  0  0  0  0  0  0  0  0
  140.2400   72.0110  222.3580 C   0  0  0  0  0  0  0  0  0  0  0  0
  139.6430   73.2880  222.1860 N   0  0  0  0  0  0  0  0  0  0  0  0
  139.7510   73.8800  220.8550 C   0  0  0  0  0  0  0  0  0  0  0  0
  140.2230   75.2850  220.9360 C   0  0  0  0  0  0  0  0  0  0  0  0
  139.9050   76.0830  221.8410 O   0  0  0  0  0  0  0  0  0  0  0  0
  141.0940   75.7550  219.9160 N   0  0  0  0  0  0  0  0  0  0  0  0
  140.4910   76.1220  218.6260 C   0  0  0  0  0  0  0  0  0  0  0  0
  140.7260   77.6280  218.4600 C   0  0  0  0  0  0  0  0  0  0  0  0
  142.0810   78.0260  218.9710 C   0  0  0  0  0  0  0  0  0  0  0  0
  143.0160   76.8220  218.9830 C   0  0  0  0  0  0  0  0  0  0  0  0
  142.5180   75.8940  220.0660 C   0  0  2  0  0  0  0  0  0  0  0  0
  143.2630   74.6320  220.1230 C   0  0  0  0  0  0  0  0  0  0  0  0
  142.7790   73.4670  219.5160 C   0  0  0  0  0  0  0  0  0  0  0  0
  143.4730   72.2770  219.5640 C   0  0  0  0  0  0  0  0  0  0  0  0
  142.7530   70.8880  218.7600 Cl  0  0  0  0  0  0  0  0  0  0  0  0
  144.6890   72.1890  220.2240 C   0  0  0  0  0  0  0  0  0  0  0  0
  145.1520   73.3420  220.8150 C   0  0  0  0  0  0  0  0  0  0  0  0
  146.6960   73.2810  221.6670 Cl  0  0  0  0  0  0  0  0  0  0  0  0
  144.4820   74.5440  220.7830 C   0  0  0  0  0  0  0  0  0  0  0  0
  140.1960   71.3250  223.6350 C   0  0  0  0  0  0  0  0  0  0  0  0
  139.6350   70.0630  223.7040 C   0  0  0  0  0  0  0  0  0  0  0  0
  139.5570   69.3480  224.8820 C   0  0  0  0  0  0  0  0  0  0  0  0
  140.0580   69.9170  226.0300 C   0  0  0  0  0  0  0  0  0  0  0  0
  139.9890   69.2180  227.2140 C   0  0  0  0  0  0  0  0  0  0  0  0
  140.4910   69.7950  228.3470 C   0  0  0  0  0  0  0  0  0  0  0  0
  141.0610   71.0660  228.3030 C   0  0  0  0  0  0  0  0  0  0  0  0
  141.1090   71.7350  227.0830 C   0  0  0  0  0  0  0  0  0  0  0  0
  140.6110   71.1780  225.9270 C   0  0  0  0  0  0  0  0  0  0  0  0
  140.6800   71.8620  224.7710 N   0  0  0  0  0  0  0  0  0  0  0  0
  139.1540   73.7680  222.9760 H   0  0  0  0  0  0  0  0  0  0  0  0
  140.4650   73.2943  220.2573 H   0  0  0  0  0  0  0  0  0  0  0  0
  138.7567   73.8702  220.3847 H   0  0  0  0  0  0  0  0  0  0  0  0
  140.9736   75.5678  217.8075 H   0  0  0  0  0  0  0  0  0  0  0  0
  139.4189   75.8772  218.5994 H   0  0  0  0  0  0  0  0  0  0  0  0
  140.6546   77.8868  217.3933 H   0  0  0  0  0  0  0  0  0  0  0  0
  139.9627   78.1657  219.0416 H   0  0  0  0  0  0  0  0  0  0  0  0
  142.5008   78.8051  218.3177 H   0  0  0  0  0  0  0  0  0  0  0  0
  141.9783   78.4098  219.9967 H   0  0  0  0  0  0  0  0  0  0  0  0
  142.9915   76.3137  218.0078 H   0  0  0  0  0  0  0  0  0  0  0  0
  144.0545   77.1304  219.1740 H   0  0  0  0  0  0  0  0  0  0  0  0
  142.7110   76.3286  221.0579 H   0  0  0  0  0  0  0  0  0  0  0  0
  141.8163   73.5023  218.9850 H   0  0  0  0  0  0  0  0  0  0  0  0
  145.2542   71.2466  220.2726 H   0  0  0  0  0  0  0  0  0  0  0  0
  144.9092   75.4292  221.2769 H   0  0  0  0  0  0  0  0  0  0  0  0
  139.2353   69.6113  222.7841 H   0  0  0  0  0  0  0  0  0  0  0  0
  139.1044   68.3456  224.9025 H   0  0  0  0  0  0  0  0  0  0  0  0
  139.5388   68.2149  227.2477 H   0  0  0  0  0  0  0  0  0  0  0  0
  140.4446   69.2512  229.3021 H   0  0  0  0  0  0  0  0  0  0  0  0
  141.4650   71.5314  229.2142 H   0  0  0  0  0  0  0  0  0  0  0  0
  141.5581   72.7383  227.0417 H   0  0  0  0  0  0  0  0  0  0  0  0
  1  2  2  0
  2  3  1  0
  3  4  1  0
  4  5  1  0
  5  6  2  0
  5  7  1  0
  7  8  1  0
  8  9  1  0
  9 10  1  0
 10 11  1  0
 11 12  1  0
 12 13  1  0
 13 14  2  0
 14 15  1  0
 15 16  1  0
 15 17  2  0
 17 18  1  0
 18 19  1  0
 18 20  2  0
  2 21  1  0
 21 22  2  0
 22 23  1  0
 23 24  2  0
 24 25  1  0
 25 26  2  0
 26 27  1  0
 27 28  2  0
 28 29  1  0
 29 30  2  0
 12  7  1  0
 20 13  1  0
 30 21  1  0
 29 24  1  0
  3 31  1  0
  4 32  1  0
  4 33  1  0
  8 34  1  0
  8 35  1  0
  9 36  1  0
  9 37  1  0
 10 38  1  0
 10 39  1  0
 11 40  1  0
 11 41  1  0
 12 42  1  1
 14 43  1  0
 17 44  1  0
 20 45  1  0
 22 46  1  0
 23 47  1  0
 25 48  1  0
 26 49  1  0
 27 50  1  0
 28 51  1  0
M  END
>  <smiles>  (47) 
O=C(NCC(=O)N1CCCCC1c1cc(Cl)cc(Cl)c1)c1ccc2ccccc2n1

>  <score_type>  (47) 
oracle

>  <origin>  (47) 
autodockgpu

>  <m_score__min__energy>  (47) 
-9.6699999999999999

>  <m_primary>  (47) 
energy

>  <rmsd>  (47) 
1.7464546751418744

>  <m_score__min__rmsd>  (47) 
1.7464546751418744

>  <meeko>  (47) 
{"free_energy": -8.87, "intermolecular_energy": -10.36, "internal_energy": -2.0, "cluster_size": 9, "cluster_id": 2, "rank_in_cluster": 7}

>  <energy>  (47) 
-8.51

>  <cluster_rmsd>  (47) 
1.25

>  <cluster>  (47) 
2

$$$$

     RDKit          3D

 51 54  0  0  0  0  0  0  0  0999 V2000
  141.4390   71.9390  222.3880 O   0  0  0  0  0  0  0  0  0  0  0  0
  140.4240   71.9360  223.1600 C   0  0  0  0  0  0  0  0  0  0  0  0
  139.2620   72.6320  222.7330 N   0  0  0  0  0  0  0  0  0  0  0  0
  139.3420   73.2930  221.4330 C   0  0  0  0  0  0  0  0  0  0  0  0
  139.8820   74.6690  221.5700 C   0  0  0  0  0  0  0  0  0  0  0  0
  141.0980   74.9480  221.5940 O   0  0  0  0  0  0  0  0  0  0  0  0
  138.9550   75.7400  221.6840 N   0  0  0  0  0  0  0  0  0  0  0  0
  137.7360   75.6710  220.8650 C   0  0  0  0  0  0  0  0  0  0  0  0
  136.5670   75.5650  221.8510 C   0  0  0  0  0  0  0  0  0  0  0  0
  136.7970   76.4260  223.0600 C   0  0  0  0  0  0  0  0  0  0  0  0
  137.7870   77.5380  222.7370 C   0  0  0  0  0  0  0  0  0  0  0  0
  139.1330   76.8800  222.5430 C   0  0  2  0  0  0  0  0  0  0  0  0
  140.1740   77.8230  222.1180 C   0  0  0  0  0  0  0  0  0  0  0  0
  140.8350   78.6460  223.0370 C   0  0  0  0  0  0  0  0  0  0  0  0
  141.8140   79.5350  222.6470 C   0  0  0  0  0  0  0  0  0  0  0  0
  142.5660   80.5110  223.9020 Cl  0  0  0  0  0  0  0  0  0  0  0  0
  142.1820   79.6480  221.3150 C   0  0  0  0  0  0  0  0  0  0  0  0
  141.5240   78.8330  220.4240 C   0  0  0  0  0  0  0  0  0  0  0  0
  141.9570   78.9390  218.7180 Cl  0  0  0  0  0  0  0  0  0  0  0  0
  140.5430   77.9360  220.7840 C   0  0  0  0  0  0  0  0  0  0  0  0
  140.4630   71.2410  224.4320 C   0  0  0  0  0  0  0  0  0  0  0  0
  141.0320   71.8670  225.5260 C   0  0  0  0  0  0  0  0  0  0  0  0
  141.1050   71.2710  226.7680 C   0  0  0  0  0  0  0  0  0  0  0  0
  140.5920   70.0030  226.9190 C   0  0  0  0  0  0  0  0  0  0  0  0
  140.6560   69.3920  228.1520 C   0  0  0  0  0  0  0  0  0  0  0  0
  140.1420   68.1330  228.2880 C   0  0  0  0  0  0  0  0  0  0  0  0
  139.5640   67.4820  227.2000 C   0  0  0  0  0  0  0  0  0  0  0  0
  139.5210   68.1380  225.9730 C   0  0  0  0  0  0  0  0  0  0  0  0
  140.0310   69.4060  225.8080 C   0  0  0  0  0  0  0  0  0  0  0  0
  139.9670   70.0010  224.6030 N   0  0  0  0  0  0  0  0  0  0  0  0
  138.4000   72.6600  223.3260 H   0  0  0  0  0  0  0  0  0  0  0  0
  140.0024   72.7111  220.7733 H   0  0  0  0  0  0  0  0  0  0  0  0
  138.3296   73.3538  221.0071 H   0  0  0  0  0  0  0  0  0  0  0  0
  137.6366   76.5783  220.2511 H   0  0  0  0  0  0  0  0  0  0  0  0
  137.7614   74.8123  220.1780 H   0  0  0  0  0  0  0  0  0  0  0  0
  135.6437   75.8901  221.3492 H   0  0  0  0  0  0  0  0  0  0  0  0
  136.4819   74.5186  222.1794 H   0  0  0  0  0  0  0  0  0  0  0  0
  135.8418   76.8710  223.3755 H   0  0  0  0  0  0  0  0  0  0  0  0
  137.2087   75.8044  223.8687 H   0  0  0  0  0  0  0  0  0  0  0  0
  137.4841   78.0595  221.8170 H   0  0  0  0  0  0  0  0  0  0  0  0
  137.8238   78.2817  223.5467 H   0  0  0  0  0  0  0  0  0  0  0  0
  139.5208   76.5172  223.5063 H   0  0  0  0  0  0  0  0  0  0  0  0
  140.5656   78.5817  224.1016 H   0  0  0  0  0  0  0  0  0  0  0  0
  142.9602   80.3532  220.9878 H   0  0  0  0  0  0  0  0  0  0  0  0
  140.0549   77.3131  220.0199 H   0  0  0  0  0  0  0  0  0  0  0  0
  141.4425   72.8799  225.4009 H   0  0  0  0  0  0  0  0  0  0  0  0
  141.5629   71.7974  227.6184 H   0  0  0  0  0  0  0  0  0  0  0  0
  141.1119   69.9073  229.0102 H   0  0  0  0  0  0  0  0  0  0  0  0
  140.1849   67.6292  229.2649 H   0  0  0  0  0  0  0  0  0  0  0  0
  139.1495   66.4689  227.3086 H   0  0  0  0  0  0  0  0  0  0  0  0
  139.0665   67.6286  225.1105 H   0  0  0  0  0  0  0  0  0  0  0  0
  1  2  2  0
  2  3  1  0
  3  4  1  0
  4  5  1  0
  5  6  2  0
  5  7  1  0
  7  8  1  0
  8  9  1  0
  9 10  1  0
 10 11  1  0
 11 12  1  0
 12 13  1  0
 13 14  2  0
 14 15  1  0
 15 16  1  0
 15 17  2  0
 17 18  1  0
 18 19  1  0
 18 20  2  0
  2 21  1  0
 21 22  2  0
 22 23  1  0
 23 24  2  0
 24 25  1  0
 25 26  2  0
 26 27  1  0
 27 28  2  0
 28 29  1  0
 29 30  2  0
 12  7  1  0
 20 13  1  0
 30 21  1  0
 29 24  1  0
  3 31  1  0
  4 32  1  0
  4 33  1  0
  8 34  1  0
  8 35  1  0
  9 36  1  0
  9 37  1  0
 10 38  1  0
 10 39  1  0
 11 40  1  0
 11 41  1  0
 12 42  1  1
 14 43  1  0
 17 44  1  0
 20 45  1  0
 22 46  1  0
 23 47  1  0
 25 48  1  0
 26 49  1  0
 27 50  1  0
 28 51  1  0
M  END
>  <smiles>  (48) 
O=C(NCC(=O)N1CCCCC1c1cc(Cl)cc(Cl)c1)c1ccc2ccccc2n1

>  <score_type>  (48) 
oracle

>  <origin>  (48) 
autodockgpu

>  <m_score__min__energy>  (48) 
-9.6699999999999999

>  <m_primary>  (48) 
energy

>  <rmsd>  (48) 
3.7124613217909506

>  <m_score__min__rmsd>  (48) 
3.7124613217909506

>  <meeko>  (48) 
{"free_energy": -9.33, "intermolecular_energy": -10.82, "internal_energy": -1.47, "cluster_size": 38, "cluster_id": 1, "rank_in_cluster": 27}

>  <energy>  (48) 
-8.73

>  <cluster_rmsd>  (48) 
0.0

>  <cluster>  (48) 
3

$$$$

     RDKit          3D

 51 54  0  0  0  0  0  0  0  0999 V2000
  141.2250   72.2090  221.7800 O   0  0  0  0  0  0  0  0  0  0  0  0
  140.2520   72.2890  222.5990 C   0  0  0  0  0  0  0  0  0  0  0  0
  139.2330   73.2410  222.3320 N   0  0  0  0  0  0  0  0  0  0  0  0
  139.4010   74.0490  221.1270 C   0  0  0  0  0  0  0  0  0  0  0  0
  139.6300   75.4750  221.4710 C   0  0  0  0  0  0  0  0  0  0  0  0
  138.8560   76.1630  222.1670 O   0  0  0  0  0  0  0  0  0  0  0  0
  140.8060   76.1000  220.9760 N   0  0  0  0  0  0  0  0  0  0  0  0
  142.0240   75.2810  220.8920 C   0  0  0  0  0  0  0  0  0  0  0  0
  142.3690   75.1820  219.4020 C   0  0  0  0  0  0  0  0  0  0  0  0
  142.1010   76.4800  218.6950 C   0  0  0  0  0  0  0  0  0  0  0  0
  142.1080   77.6350  219.6900 C   0  0  0  0  0  0  0  0  0  0  0  0
  140.8790   77.4730  220.5540 C   0  0  2  0  0  0  0  0  0  0  0  0
  140.8080   78.4610  221.6360 C   0  0  0  0  0  0  0  0  0  0  0  0
  139.5830   78.8680  222.1770 C   0  0  0  0  0  0  0  0  0  0  0  0
  139.5070   79.7950  223.1940 C   0  0  0  0  0  0  0  0  0  0  0  0
  137.9040   80.2190  223.7830 Cl  0  0  0  0  0  0  0  0  0  0  0  0
  140.6540   80.3670  223.7230 C   0  0  0  0  0  0  0  0  0  0  0  0
  141.8500   79.9570  223.1810 C   0  0  0  0  0  0  0  0  0  0  0  0
  143.3390   80.6550  223.8210 Cl  0  0  0  0  0  0  0  0  0  0  0  0
  141.9570   79.0330  222.1660 C   0  0  0  0  0  0  0  0  0  0  0  0
  140.1940   71.4300  223.7660 C   0  0  0  0  0  0  0  0  0  0  0  0
  139.6140   70.1800  223.6570 C   0  0  0  0  0  0  0  0  0  0  0  0
  139.5220   69.3070  224.7210 C   0  0  0  0  0  0  0  0  0  0  0  0
  140.0280   69.7010  225.9390 C   0  0  0  0  0  0  0  0  0  0  0  0
  139.9450   68.8430  227.0130 C   0  0  0  0  0  0  0  0  0  0  0  0
  140.4510   69.2470  228.2160 C   0  0  0  0  0  0  0  0  0  0  0  0
  141.0400   70.5030  228.3520 C   0  0  0  0  0  0  0  0  0  0  0  0
  141.1020   71.3360  227.2390 C   0  0  0  0  0  0  0  0  0  0  0  0
  140.6000   70.9550  226.0160 C   0  0  0  0  0  0  0  0  0  0  0  0
  140.6820   71.7950  224.9680 N   0  0  0  0  0  0  0  0  0  0  0  0
  138.4120   73.3480  222.9710 H   0  0  0  0  0  0  0  0  0  0  0  0
  140.2646   73.6727  220.5589 H   0  0  0  0  0  0  0  0  0  0  0  0
  138.4830   73.9764  220.5253 H   0  0  0  0  0  0  0  0  0  0  0  0
  142.8458   75.7618  221.4428 H   0  0  0  0  0  0  0  0  0  0  0  0
  141.8702   74.2861  221.3354 H   0  0  0  0  0  0  0  0  0  0  0  0
  143.4343   74.9292  219.2964 H   0  0  0  0  0  0  0  0  0  0  0  0
  141.7387   74.4023  218.9495 H   0  0  0  0  0  0  0  0  0  0  0  0
  142.8808   76.6486  217.9377 H   0  0  0  0  0  0  0  0  0  0  0  0
  141.1134   76.4282  218.2135 H   0  0  0  0  0  0  0  0  0  0  0  0
  143.0154   77.5950  220.3106 H   0  0  0  0  0  0  0  0  0  0  0  0
  142.1006   78.6044  219.1702 H   0  0  0  0  0  0  0  0  0  0  0  0
  139.9726   77.6937  219.9712 H   0  0  0  0  0  0  0  0  0  0  0  0
  138.6534   78.4352  221.7787 H   0  0  0  0  0  0  0  0  0  0  0  0
  140.6099   81.1095  224.5334 H   0  0  0  0  0  0  0  0  0  0  0  0
  142.9463   78.7497  221.7774 H   0  0  0  0  0  0  0  0  0  0  0  0
  139.2095   69.8689  222.6825 H   0  0  0  0  0  0  0  0  0  0  0  0
  139.0550   68.3186  224.5990 H   0  0  0  0  0  0  0  0  0  0  0  0
  139.4804   67.8519  226.9044 H   0  0  0  0  0  0  0  0  0  0  0  0
  140.3931   68.5751  229.0850 H   0  0  0  0  0  0  0  0  0  0  0  0
  141.4478   70.8293  229.3201 H   0  0  0  0  0  0  0  0  0  0  0  0
  141.5660   72.3282  227.3400 H   0  0  0  0  0  0  0  0  0  0  0  0
  1  2  2  0
  2  3  1  0
  3  4  1  0
  4  5  1  0
  5  6  2  0
  5  7  1  0
  7  8  1  0
  8  9  1  0
  9 10  1  0
 10 11  1  0
 11 12  1  0
 12 13  1  0
 13 14  2  0
 14 15  1  0
 15 16  1  0
 15 17  2  0
 17 18  1  0
 18 19  1  0
 18 20  2  0
  2 21  1  0
 21 22  2  0
 22 23  1  0
 23 24  2  0
 24 25  1  0
 25 26  2  0
 26 27  1  0
 27 28  2  0
 28 29  1  0
 29 30  2  0
 12  7  1  0
 20 13  1  0
 30 21  1  0
 29 24  1  0
  3 31  1  0
  4 32  1  0
  4 33  1  0
  8 34  1  0
  8 35  1  0
  9 36  1  0
  9 37  1  0
 10 38  1  0
 10 39  1  0
 11 40  1  0
 11 41  1  0
 12 42  1  6
 14 43  1  0
 17 44  1  0
 20 45  1  0
 22 46  1  0
 23 47  1  0
 25 48  1  0
 26 49  1  0
 27 50  1  0
 28 51  1  0
M  END
>  <smiles>  (49) 
O=C(NCC(=O)N1CCCCC1c1cc(Cl)cc(Cl)c1)c1ccc2ccccc2n1

>  <score_type>  (49) 
oracle

>  <origin>  (49) 
autodockgpu

>  <m_score__min__energy>  (49) 
-9.6699999999999999

>  <m_primary>  (49) 
energy

>  <rmsd>  (49) 
2.067824767860978

>  <m_score__min__rmsd>  (49) 
2.067824767860978

>  <meeko>  (49) 
{"free_energy": -9.67, "intermolecular_energy": -11.17, "internal_energy": -1.46, "cluster_size": 38, "cluster_id": 1, "rank_in_cluster": 1}

>  <energy>  (49) 
-8.37

>  <cluster_rmsd>  (49) 
0.0

>  <cluster>  (49) 
4

$$$$

     RDKit          3D

 51 54  0  0  0  0  0  0  0  0999 V2000
  141.4020   72.5680  222.3450 O   0  0  0  0  0  0  0  0  0  0  0  0
  140.3350   72.3040  222.9890 C   0  0  0  0  0  0  0  0  0  0  0  0
  139.1240   72.8970  222.5440 N   0  0  0  0  0  0  0  0  0  0  0  0
  139.2200   73.7650  221.3730 C   0  0  0  0  0  0  0  0  0  0  0  0
  139.5640   75.1540  221.7690 C   0  0  0  0  0  0  0  0  0  0  0  0
  139.0020   75.7830  222.6900 O   0  0  0  0  0  0  0  0  0  0  0  0
  140.6000   75.8130  221.0540 N   0  0  0  0  0  0  0  0  0  0  0  0
  141.8540   75.0750  220.8430 C   0  0  0  0  0  0  0  0  0  0  0  0
  141.9790   74.8760  219.3290 C   0  0  0  0  0  0  0  0  0  0  0  0
  141.5070   76.0890  218.5790 C   0  0  0  0  0  0  0  0  0  0  0  0
  141.5700   77.3200  219.4750 C   0  0  0  0  0  0  0  0  0  0  0  0
  140.5000   77.1480  220.5280 C   0  0  2  0  0  0  0  0  0  0  0  0
  140.5120   78.2160  221.5330 C   0  0  0  0  0  0  0  0  0  0  0  0
  141.7050   78.8200  221.9460 C   0  0  0  0  0  0  0  0  0  0  0  0
  141.7260   79.8250  222.8890 C   0  0  0  0  0  0  0  0  0  0  0  0
  143.2940   80.4980  223.3190 Cl  0  0  0  0  0  0  0  0  0  0  0  0
  140.5530   80.2780  223.4720 C   0  0  0  0  0  0  0  0  0  0  0  0
  139.3880   79.6760  223.0560 C   0  0  0  0  0  0  0  0  0  0  0  0
  137.8680   80.2180  223.7680 Cl  0  0  0  0  0  0  0  0  0  0  0  0
  139.3360   78.6710  222.1160 C   0  0  0  0  0  0  0  0  0  0  0  0
  140.3650   71.4230  224.1410 C   0  0  0  0  0  0  0  0  0  0  0  0
  141.0220   71.8320  225.2870 C   0  0  0  0  0  0  0  0  0  0  0  0
  141.0930   71.0510  226.4220 C   0  0  0  0  0  0  0  0  0  0  0  0
  140.4850   69.8170  226.4080 C   0  0  0  0  0  0  0  0  0  0  0  0
  140.5440   69.0230  227.5320 C   0  0  0  0  0  0  0  0  0  0  0  0
  139.9360   67.7990  227.5050 C   0  0  0  0  0  0  0  0  0  0  0  0
  139.2680   67.3650  226.3620 C   0  0  0  0  0  0  0  0  0  0  0  0
  139.2330   68.2010  225.2490 C   0  0  0  0  0  0  0  0  0  0  0  0
  139.8370   69.4380  225.2490 C   0  0  0  0  0  0  0  0  0  0  0  0
  139.7770   70.2110  224.1500 N   0  0  0  0  0  0  0  0  0  0  0  0
  138.2190   72.7140  223.0360 H   0  0  0  0  0  0  0  0  0  0  0  0
  140.0006   73.3784  220.7013 H   0  0  0  0  0  0  0  0  0  0  0  0
  138.2452   73.7763  220.8634 H   0  0  0  0  0  0  0  0  0  0  0  0
  142.7074   75.6553  221.2237 H   0  0  0  0  0  0  0  0  0  0  0  0
  141.8492   74.1129  221.3762 H   0  0  0  0  0  0  0  0  0  0  0  0
  143.0332   74.6872  219.0781 H   0  0  0  0  0  0  0  0  0  0  0  0
  141.3509   74.0212  219.0378 H   0  0  0  0  0  0  0  0  0  0  0  0
  142.1501   76.2459  217.7005 H   0  0  0  0  0  0  0  0  0  0  0  0
  140.4664   75.9308  218.2596 H   0  0  0  0  0  0  0  0  0  0  0  0
  142.5599   77.3931  219.9492 H   0  0  0  0  0  0  0  0  0  0  0  0
  141.4082   78.2400  218.8941 H   0  0  0  0  0  0  0  0  0  0  0  0
  139.5021   77.2573  220.0783 H   0  0  0  0  0  0  0  0  0  0  0  0
  142.6544   78.4825  221.5048 H   0  0  0  0  0  0  0  0  0  0  0  0
  140.5535   81.0772  224.2279 H   0  0  0  0  0  0  0  0  0  0  0  0
  138.3695   78.2313  221.8286 H   0  0  0  0  0  0  0  0  0  0  0  0
  141.5072   72.8192  225.2939 H   0  0  0  0  0  0  0  0  0  0  0  0
  141.6235   71.4068  227.3175 H   0  0  0  0  0  0  0  0  0  0  0  0
  141.0705   69.3674  228.4343 H   0  0  0  0  0  0  0  0  0  0  0  0
  139.9745   67.1512  228.3932 H   0  0  0  0  0  0  0  0  0  0  0  0
  138.7776   66.3806  226.3392 H   0  0  0  0  0  0  0  0  0  0  0  0
  138.7075   67.8632  224.3436 H   0  0  0  0  0  0  0  0  0  0  0  0
  1  2  2  0
  2  3  1  0
  3  4  1  0
  4  5  1  0
  5  6  2  0
  5  7  1  0
  7  8  1  0
  8  9  1  0
  9 10  1  0
 10 11  1  0
 11 12  1  0
 12 13  1  0
 13 14  2  0
 14 15  1  0
 15 16  1  0
 15 17  2  0
 17 18  1  0
 18 19  1  0
 18 20  2  0
  2 21  1  0
 21 22  2  0
 22 23  1  0
 23 24  2  0
 24 25  1  0
 25 26  2  0
 26 27  1  0
 27 28  2  0
 28 29  1  0
 29 30  2  0
 12  7  1  0
 20 13  1  0
 30 21  1  0
 29 24  1  0
  3 31  1  0
  4 32  1  0
  4 33  1  0
  8 34  1  0
  8 35  1  0
  9 36  1  0
  9 37  1  0
 10 38  1  0
 10 39  1  0
 11 40  1  0
 11 41  1  0
 12 42  1  6
 14 43  1  0
 17 44  1  0
 20 45  1  0
 22 46  1  0
 23 47  1  0
 25 48  1  0
 26 49  1  0
 27 50  1  0
 28 51  1  0
M  END
>  <smiles>  (50) 
O=C(NCC(=O)N1CCCCC1c1cc(Cl)cc(Cl)c1)c1ccc2ccccc2n1

>  <score_type>  (50) 
oracle

>  <origin>  (50) 
autodockgpu

>  <m_score__min__energy>  (50) 
-9.6699999999999999

>  <m_primary>  (50) 
energy

>  <rmsd>  (50) 
2.9841752916403403

>  <m_score__min__rmsd>  (50) 
2.9841752916403403

>  <meeko>  (50) 
{"free_energy": -9.13, "intermolecular_energy": -10.62, "internal_energy": -1.54, "cluster_size": 38, "cluster_id": 1, "rank_in_cluster": 35}

>  <energy>  (50) 
-8.13

>  <cluster_rmsd>  (50) 
0.43

>  <cluster>  (50) 
4

$$$$

     RDKit          3D

 51 54  0  0  0  0  0  0  0  0999 V2000
  138.9320   75.2460  221.6770 O   0  0  0  0  0  0  0  0  0  0  0  0
  140.0530   75.7530  221.9330 C   0  0  0  0  0  0  0  0  0  0  0  0
  141.1990   74.9020  221.7660 N   0  0  0  0  0  0  0  0  0  0  0  0
  140.9570   73.5540  221.3210 C   0  0  0  0  0  0  0  0  0  0  0  0
  141.7960   73.2150  220.1270 C   0  0  0  0  0  0  0  0  0  0  0  0
  141.1750   72.9650  219.0620 O   0  0  0  0  0  0  0  0  0  0  0  0
  143.2150   73.1860  220.2310 N   0  0  0  0  0  0  0  0  0  0  0  0
  143.9030   71.9160  220.1130 C   0  0  0  0  0  0  0  0  0  0  0  0
  145.3180   72.1350  219.6420 C   0  0  0  0  0  0  0  0  0  0  0  0
  145.9500   73.0140  220.7300 C   0  0  0  0  0  0  0  0  0  0  0  0
  145.3640   74.3880  220.5190 C   0  0  0  0  0  0  0  0  0  0  0  0
  143.8860   74.4450  220.4530 C   0  0  1  0  0  0  0  0  0  0  0  0
  143.4990   75.4770  219.4500 C   0  0  0  0  0  0  0  0  0  0  0  0
  142.9180   76.6790  219.8030 C   0  0  0  0  0  0  0  0  0  0  0  0
  142.5550   77.6440  218.8960 C   0  0  0  0  0  0  0  0  0  0  0  0
  141.8180   79.1660  219.3750 Cl  0  0  0  0  0  0  0  0  0  0  0  0
  142.7710   77.4280  217.5470 C   0  0  0  0  0  0  0  0  0  0  0  0
  143.3540   76.2300  217.1450 C   0  0  0  0  0  0  0  0  0  0  0  0
  143.6270   75.9600  215.4200 Cl  0  0  0  0  0  0  0  0  0  0  0  0
  143.7070   75.2810  218.0840 C   0  0  0  0  0  0  0  0  0  0  0  0
  140.2270   77.1310  222.3820 C   0  0  0  0  0  0  0  0  0  0  0  0
  139.0670   77.8470  222.6520 C   0  0  0  0  0  0  0  0  0  0  0  0
  139.2330   79.1500  223.0770 C   0  0  0  0  0  0  0  0  0  0  0  0
  140.4980   79.6850  223.2130 C   0  0  0  0  0  0  0  0  0  0  0  0
  140.6300   80.9890  223.6370 C   0  0  0  0  0  0  0  0  0  0  0  0
  141.9100   81.5100  223.7690 C   0  0  0  0  0  0  0  0  0  0  0  0
  143.0280   80.7540  223.4860 C   0  0  0  0  0  0  0  0  0  0  0  0
  142.8980   79.4570  223.0630 C   0  0  0  0  0  0  0  0  0  0  0  0
  141.6240   78.9410  222.9330 C   0  0  0  0  0  0  0  0  0  0  0  0
  141.4490   77.6730  222.5210 N   0  0  0  0  0  0  0  0  0  0  0  0
  142.1720   75.2730  221.9670 H   0  0  0  0  0  0  0  0  0  0  0  0
  141.1990   72.8583  222.1379 H   0  0  0  0  0  0  0  0  0  0  0  0
  139.8980   73.4676  221.0365 H   0  0  0  0  0  0  0  0  0  0  0  0
  143.9190   71.4184  221.0939 H   0  0  0  0  0  0  0  0  0  0  0  0
  143.3738   71.2865  219.3825 H   0  0  0  0  0  0  0  0  0  0  0  0
  145.8523   71.1774  219.5560 H   0  0  0  0  0  0  0  0  0  0  0  0
  145.3615   72.6024  218.6472 H   0  0  0  0  0  0  0  0  0  0  0  0
  145.6930   72.6345  221.7300 H   0  0  0  0  0  0  0  0  0  0  0  0
  147.0481   73.0213  220.6659 H   0  0  0  0  0  0  0  0  0  0  0  0
  145.6914   75.0280  221.3515 H   0  0  0  0  0  0  0  0  0  0  0  0
  145.7244   74.7233  219.5353 H   0  0  0  0  0  0  0  0  0  0  0  0
  143.5345   74.7248  221.4571 H   0  0  0  0  0  0  0  0  0  0  0  0
  142.7359   76.8743  220.8701 H   0  0  0  0  0  0  0  0  0  0  0  0
  142.4871   78.1893  216.8054 H   0  0  0  0  0  0  0  0  0  0  0  0
  144.1666   74.3410  217.7446 H   0  0  0  0  0  0  0  0  0  0  0  0
  138.0693   77.3992  222.5333 H   0  0  0  0  0  0  0  0  0  0  0  0
  138.3514   79.7657  223.3087 H   0  0  0  0  0  0  0  0  0  0  0  0
  139.7449   81.6011  223.8649 H   0  0  0  0  0  0  0  0  0  0  0  0
  142.0352   82.5493  224.1070 H   0  0  0  0  0  0  0  0  0  0  0  0
  144.0295   81.1943  223.6004 H   0  0  0  0  0  0  0  0  0  0  0  0
  143.7828   78.8449  222.8338 H   0  0  0  0  0  0  0  0  0  0  0  0
  1  2  2  0
  2  3  1  0
  3  4  1  0
  4  5  1  0
  5  6  2  0
  5  7  1  0
  7  8  1  0
  8  9  1  0
  9 10  1  0
 10 11  1  0
 11 12  1  0
 12 13  1  0
 13 14  2  0
 14 15  1  0
 15 16  1  0
 15 17  2  0
 17 18  1  0
 18 19  1  0
 18 20  2  0
  2 21  1  0
 21 22  2  0
 22 23  1  0
 23 24  2  0
 24 25  1  0
 25 26  2  0
 26 27  1  0
 27 28  2  0
 28 29  1  0
 29 30  2  0
 12  7  1  0
 20 13  1  0
 30 21  1  0
 29 24  1  0
  3 31  1  0
  4 32  1  0
  4 33  1  0
  8 34  1  0
  8 35  1  0
  9 36  1  0
  9 37  1  0
 10 38  1  0
 10 39  1  0
 11 40  1  0
 11 41  1  0
 12 42  1  1
 14 43  1  0
 17 44  1  0
 20 45  1  0
 22 46  1  0
 23 47  1  0
 25 48  1  0
 26 49  1  0
 27 50  1  0
 28 51  1  0
M  END
>  <smiles>  (51) 
O=C(NCC(=O)N1CCCCC1c1cc(Cl)cc(Cl)c1)c1ccc2ccccc2n1

>  <score_type>  (51) 
oracle

>  <origin>  (51) 
autodockgpu

>  <m_score__min__energy>  (51) 
-9.4399999999999995

>  <m_primary>  (51) 
energy

>  <rmsd>  (51) 
7.70615543047961

>  <m_score__min__rmsd>  (51) 
7.70615543047961

>  <meeko>  (51) 
{"free_energy": -8.5, "intermolecular_energy": -9.99, "internal_energy": -2.73, "cluster_size": 19, "cluster_id": 3, "rank_in_cluster": 5}

>  <energy>  (51) 
-9.44

>  <cluster_rmsd>  (51) 
0.0

>  <cluster>  (51) 
1

$$$$

     RDKit          3D

 51 54  0  0  0  0  0  0  0  0999 V2000
  140.9240   71.6630  221.4280 O   0  0  0  0  0  0  0  0  0  0  0  0
  140.3240   72.1190  222.4360 C   0  0  0  0  0  0  0  0  0  0  0  0
  139.7550   73.4320  222.3060 N   0  0  0  0  0  0  0  0  0  0  0  0
  139.9220   74.0990  221.0420 C   0  0  0  0  0  0  0  0  0  0  0  0
  140.8920   75.2370  221.1490 C   0  0  0  0  0  0  0  0  0  0  0  0
  141.1790   75.6170  222.3130 O   0  0  0  0  0  0  0  0  0  0  0  0
  141.4370   75.8300  219.9760 N   0  0  0  0  0  0  0  0  0  0  0  0
  141.5260   77.2740  219.8940 C   0  0  0  0  0  0  0  0  0  0  0  0
  142.6230   77.6720  218.9410 C   0  0  0  0  0  0  0  0  0  0  0  0
  142.2020   77.0610  217.5970 C   0  0  0  0  0  0  0  0  0  0  0  0
  142.4670   75.5830  217.7340 C   0  0  0  0  0  0  0  0  0  0  0  0
  141.8700   74.9380  218.9260 C   0  0  1  0  0  0  0  0  0  0  0  0
  142.8150   73.8980  219.4220 C   0  0  0  0  0  0  0  0  0  0  0  0
  142.6120   72.5470  219.2180 C   0  0  0  0  0  0  0  0  0  0  0  0
  143.4710   71.5720  219.6640 C   0  0  0  0  0  0  0  0  0  0  0  0
  143.1860   69.8600  219.3880 Cl  0  0  0  0  0  0  0  0  0  0  0  0
  144.6090   71.9340  220.3600 C   0  0  0  0  0  0  0  0  0  0  0  0
  144.8560   73.2840  220.5890 C   0  0  0  0  0  0  0  0  0  0  0  0
  146.3130   73.7390  221.4790 Cl  0  0  0  0  0  0  0  0  0  0  0  0
  143.9710   74.2390  220.1260 C   0  0  0  0  0  0  0  0  0  0  0  0
  140.1920   71.3860  223.6900 C   0  0  0  0  0  0  0  0  0  0  0  0
  139.5550   70.1520  223.6240 C   0  0  0  0  0  0  0  0  0  0  0  0
  139.4310   69.4590  224.8120 C   0  0  0  0  0  0  0  0  0  0  0  0
  139.9210   69.9930  225.9860 C   0  0  0  0  0  0  0  0  0  0  0  0
  139.7790   69.2780  227.1550 C   0  0  0  0  0  0  0  0  0  0  0  0
  140.2790   69.8290  228.3270 C   0  0  0  0  0  0  0  0  0  0  0  0
  140.9020   71.0600  228.3360 C   0  0  0  0  0  0  0  0  0  0  0  0
  141.0420   71.7730  227.1730 C   0  0  0  0  0  0  0  0  0  0  0  0
  140.5450   71.2220  226.0100 C   0  0  0  0  0  0  0  0  0  0  0  0
  140.6610   71.8870  224.8460 N   0  0  0  0  0  0  0  0  0  0  0  0
  139.2370   73.8700  223.1220 H   0  0  0  0  0  0  0  0  0  0  0  0
  140.2979   73.3764  220.3028 H   0  0  0  0  0  0  0  0  0  0  0  0
  138.9470   74.5027  220.7317 H   0  0  0  0  0  0  0  0  0  0  0  0
  140.5679   77.6777  219.5348 H   0  0  0  0  0  0  0  0  0  0  0  0
  141.7520   77.6780  220.8919 H   0  0  0  0  0  0  0  0  0  0  0  0
  142.6945   78.7671  218.8653 H   0  0  0  0  0  0  0  0  0  0  0  0
  143.6120   77.3203  219.2699 H   0  0  0  0  0  0  0  0  0  0  0  0
  141.1343   77.2454  217.4070 H   0  0  0  0  0  0  0  0  0  0  0  0
  142.7549   77.5013  216.7541 H   0  0  0  0  0  0  0  0  0  0  0  0
  142.0659   75.0821  216.8405 H   0  0  0  0  0  0  0  0  0  0  0  0
  143.5563   75.4798  217.8474 H   0  0  0  0  0  0  0  0  0  0  0  0
  140.9239   74.4822  218.5988 H   0  0  0  0  0  0  0  0  0  0  0  0
  141.7123   72.2343  218.6677 H   0  0  0  0  0  0  0  0  0  0  0  0
  145.3077   71.1676  220.7267 H   0  0  0  0  0  0  0  0  0  0  0  0
  144.1842   75.3009  220.3182 H   0  0  0  0  0  0  0  0  0  0  0  0
  139.1701   69.7490  222.6756 H   0  0  0  0  0  0  0  0  0  0  0  0
  138.9386   68.4754  224.8224 H   0  0  0  0  0  0  0  0  0  0  0  0
  139.2825   68.2964  227.1596 H   0  0  0  0  0  0  0  0  0  0  0  0
  140.1762   69.2716  229.2697 H   0  0  0  0  0  0  0  0  0  0  0  0
  141.2881   71.4714  229.2803 H   0  0  0  0  0  0  0  0  0  0  0  0
  141.5362   72.7557  227.1676 H   0  0  0  0  0  0  0  0  0  0  0  0
  1  2  2  0
  2  3  1  0
  3  4  1  0
  4  5  1  0
  5  6  2  0
  5  7  1  0
  7  8  1  0
  8  9  1  0
  9 10  1  0
 10 11  1  0
 11 12  1  0
 12 13  1  0
 13 14  2  0
 14 15  1  0
 15 16  1  0
 15 17  2  0
 17 18  1  0
 18 19  1  0
 18 20  2  0
  2 21  1  0
 21 22  2  0
 22 23  1  0
 23 24  2  0
 24 25  1  0
 25 26  2  0
 26 27  1  0
 27 28  2  0
 28 29  1  0
 29 30  2  0
 12  7  1  0
 20 13  1  0
 30 21  1  0
 29 24  1  0
  3 31  1  0
  4 32  1  0
  4 33  1  0
  8 34  1  0
  8 35  1  0
  9 36  1  0
  9 37  1  0
 10 38  1  0
 10 39  1  0
 11 40  1  0
 11 41  1  0
 12 42  1  6
 14 43  1  0
 17 44  1  0
 20 45  1  0
 22 46  1  0
 23 47  1  0
 25 48  1  0
 26 49  1  0
 27 50  1  0
 28 51  1  0
M  END
>  <smiles>  (52) 
O=C(NCC(=O)N1CCCCC1c1cc(Cl)cc(Cl)c1)c1ccc2ccccc2n1

>  <score_type>  (52) 
oracle

>  <origin>  (52) 
autodockgpu

>  <m_score__min__energy>  (52) 
-9.4399999999999995

>  <m_primary>  (52) 
energy

>  <rmsd>  (52) 
2.248892409035516

>  <m_score__min__rmsd>  (52) 
2.248892409035516

>  <meeko>  (52) 
{"free_energy": -8.99, "intermolecular_energy": -10.48, "internal_energy": -2.1, "cluster_size": 22, "cluster_id": 2, "rank_in_cluster": 3}

>  <energy>  (52) 
-9.43

>  <cluster_rmsd>  (52) 
0.04

>  <cluster>  (52) 
1

$$$$

     RDKit          3D

 51 54  0  0  0  0  0  0  0  0999 V2000
  138.9200   75.2030  221.7300 O   0  0  0  0  0  0  0  0  0  0  0  0
  140.0430   75.7220  221.9560 C   0  0  0  0  0  0  0  0  0  0  0  0
  141.1930   74.8820  221.7570 N   0  0  0  0  0  0  0  0  0  0  0  0
  140.9510   73.5320  221.3190 C   0  0  0  0  0  0  0  0  0  0  0  0
  141.8090   73.1780  220.1430 C   0  0  0  0  0  0  0  0  0  0  0  0
  141.2050   72.9030  219.0740 O   0  0  0  0  0  0  0  0  0  0  0  0
  143.2270   73.1650  220.2660 N   0  0  0  0  0  0  0  0  0  0  0  0
  143.9300   71.9010  220.1660 C   0  0  0  0  0  0  0  0  0  0  0  0
  145.3480   72.1320  219.7130 C   0  0  0  0  0  0  0  0  0  0  0  0
  145.9570   73.0250  220.8030 C   0  0  0  0  0  0  0  0  0  0  0  0
  145.3600   74.3910  220.5740 C   0  0  0  0  0  0  0  0  0  0  0  0
  143.8820   74.4320  220.4880 C   0  0  1  0  0  0  0  0  0  0  0  0
  143.4980   75.4530  219.4720 C   0  0  0  0  0  0  0  0  0  0  0  0
  143.6910   75.2660  218.1170 C   0  0  0  0  0  0  0  0  0  0  0  0
  143.3440   76.1920  217.1640 C   0  0  0  0  0  0  0  0  0  0  0  0
  143.6010   75.9250  215.4450 Cl  0  0  0  0  0  0  0  0  0  0  0  0
  142.7690   77.3870  217.5530 C   0  0  0  0  0  0  0  0  0  0  0  0
  142.5550   77.6200  218.9080 C   0  0  0  0  0  0  0  0  0  0  0  0
  141.8190   79.1500  219.3980 Cl  0  0  0  0  0  0  0  0  0  0  0  0
  142.9160   76.6670  219.8400 C   0  0  0  0  0  0  0  0  0  0  0  0
  140.2160   77.1020  222.3990 C   0  0  0  0  0  0  0  0  0  0  0  0
  139.0550   77.8230  222.6520 C   0  0  0  0  0  0  0  0  0  0  0  0
  139.2200   79.1270  223.0720 C   0  0  0  0  0  0  0  0  0  0  0  0
  140.4840   79.6590  223.2200 C   0  0  0  0  0  0  0  0  0  0  0  0
  140.6150   80.9650  223.6390 C   0  0  0  0  0  0  0  0  0  0  0  0
  141.8950   81.4830  223.7850 C   0  0  0  0  0  0  0  0  0  0  0  0
  143.0140   80.7220  223.5180 C   0  0  0  0  0  0  0  0  0  0  0  0
  142.8850   79.4230  223.1000 C   0  0  0  0  0  0  0  0  0  0  0  0
  141.6120   78.9110  222.9580 C   0  0  0  0  0  0  0  0  0  0  0  0
  141.4380   77.6400  222.5500 N   0  0  0  0  0  0  0  0  0  0  0  0
  142.1670   75.2630  221.9310 H   0  0  0  0  0  0  0  0  0  0  0  0
  141.1743   72.8418  222.1459 H   0  0  0  0  0  0  0  0  0  0  0  0
  139.8967   73.4494  221.0163 H   0  0  0  0  0  0  0  0  0  0  0  0
  143.9379   71.4102  221.1504 H   0  0  0  0  0  0  0  0  0  0  0  0
  143.4175   71.2609  219.4328 H   0  0  0  0  0  0  0  0  0  0  0  0
  145.8934   71.1795  219.6406 H   0  0  0  0  0  0  0  0  0  0  0  0
  145.3994   72.5937  218.7159 H   0  0  0  0  0  0  0  0  0  0  0  0
  145.6906   72.6501  221.8022 H   0  0  0  0  0  0  0  0  0  0  0  0
  147.0557   73.0429  220.7536 H   0  0  0  0  0  0  0  0  0  0  0  0
  145.6697   75.0405  221.4060 H   0  0  0  0  0  0  0  0  0  0  0  0
  145.7300   74.7229  219.5927 H   0  0  0  0  0  0  0  0  0  0  0  0
  143.5143   74.7149  221.4854 H   0  0  0  0  0  0  0  0  0  0  0  0
  144.1480   74.3229  217.7827 H   0  0  0  0  0  0  0  0  0  0  0  0
  142.4853   78.1411  216.8041 H   0  0  0  0  0  0  0  0  0  0  0  0
  142.7392   76.8712  220.9063 H   0  0  0  0  0  0  0  0  0  0  0  0
  138.0573   77.3776  222.5242 H   0  0  0  0  0  0  0  0  0  0  0  0
  138.3376   79.7464  223.2903 H   0  0  0  0  0  0  0  0  0  0  0  0
  139.7290   81.5810  223.8522 H   0  0  0  0  0  0  0  0  0  0  0  0
  142.0194   82.5230  224.1209 H   0  0  0  0  0  0  0  0  0  0  0  0
  144.0155   81.1600  223.6412 H   0  0  0  0  0  0  0  0  0  0  0  0
  143.7704   78.8070  222.8842 H   0  0  0  0  0  0  0  0  0  0  0  0
  1  2  2  0
  2  3  1  0
  3  4  1  0
  4  5  1  0
  5  6  2  0
  5  7  1  0
  7  8  1  0
  8  9  1  0
  9 10  1  0
 10 11  1  0
 11 12  1  0
 12 13  1  0
 13 14  2  0
 14 15  1  0
 15 16  1  0
 15 17  2  0
 17 18  1  0
 18 19  1  0
 18 20  2  0
  2 21  1  0
 21 22  2  0
 22 23  1  0
 23 24  2  0
 24 25  1  0
 25 26  2  0
 26 27  1  0
 27 28  2  0
 28 29  1  0
 29 30  2  0
 12  7  1  0
 20 13  1  0
 30 21  1  0
 29 24  1  0
  3 31  1  0
  4 32  1  0
  4 33  1  0
  8 34  1  0
  8 35  1  0
  9 36  1  0
  9 37  1  0
 10 38  1  0
 10 39  1  0
 11 40  1  0
 11 41  1  0
 12 42  1  1
 14 43  1  0
 17 44  1  0
 20 45  1  0
 22 46  1  0
 23 47  1  0
 25 48  1  0
 26 49  1  0
 27 50  1  0
 28 51  1  0
M  END
>  <smiles>  (53) 
O=C(NCC(=O)N1CCCCC1c1cc(Cl)cc(Cl)c1)c1ccc2ccccc2n1

>  <score_type>  (53) 
oracle

>  <origin>  (53) 
autodockgpu

>  <m_score__min__energy>  (53) 
-9.4399999999999995

>  <m_primary>  (53) 
energy

>  <rmsd>  (53) 
7.6963188104114835

>  <m_score__min__rmsd>  (53) 
7.6963188104114835

>  <meeko>  (53) 
{"free_energy": -8.5, "intermolecular_energy": -9.99, "internal_energy": -2.73, "cluster_size": 19, "cluster_id": 3, "rank_in_cluster": 4}

>  <energy>  (53) 
-9.42

>  <cluster_rmsd>  (53) 
0.06

>  <cluster>  (53) 
1

$$$$

     RDKit          3D

 51 54  0  0  0  0  0  0  0  0999 V2000
  141.0440   71.7200  221.4720 O   0  0  0  0  0  0  0  0  0  0  0  0
  140.3740   72.1480  222.4460 C   0  0  0  0  0  0  0  0  0  0  0  0
  139.7430   73.4290  222.2800 N   0  0  0  0  0  0  0  0  0  0  0  0
  139.9370   74.0980  221.0200 C   0  0  0  0  0  0  0  0  0  0  0  0
  140.8850   75.2500  221.1540 C   0  0  0  0  0  0  0  0  0  0  0  0
  141.1420   75.6290  222.3260 O   0  0  0  0  0  0  0  0  0  0  0  0
  141.4460   75.8580  219.9950 N   0  0  0  0  0  0  0  0  0  0  0  0
  141.5270   77.3040  219.9290 C   0  0  0  0  0  0  0  0  0  0  0  0
  142.6370   77.7170  218.9980 C   0  0  0  0  0  0  0  0  0  0  0  0
  142.2420   77.1170  217.6420 C   0  0  0  0  0  0  0  0  0  0  0  0
  142.5140   75.6390  217.7690 C   0  0  0  0  0  0  0  0  0  0  0  0
  141.9020   74.9790  218.9450 C   0  0  1  0  0  0  0  0  0  0  0  0
  142.8460   73.9400  219.4460 C   0  0  0  0  0  0  0  0  0  0  0  0
  143.9910   74.2520  220.1510 C   0  0  0  0  0  0  0  0  0  0  0  0
  144.8740   73.3110  220.6230 C   0  0  0  0  0  0  0  0  0  0  0  0
  146.3250   73.7390  221.5190 Cl  0  0  0  0  0  0  0  0  0  0  0  0
  144.6280   71.9700  220.3930 C   0  0  0  0  0  0  0  0  0  0  0  0
  143.4850   71.6090  219.6870 C   0  0  0  0  0  0  0  0  0  0  0  0
  143.1770   69.8930  219.3970 Cl  0  0  0  0  0  0  0  0  0  0  0  0
  142.6180   72.5810  219.2260 C   0  0  0  0  0  0  0  0  0  0  0  0
  140.2190   71.4160  223.6990 C   0  0  0  0  0  0  0  0  0  0  0  0
  139.5430   70.2030  223.6290 C   0  0  0  0  0  0  0  0  0  0  0  0
  139.3980   69.5110  224.8150 C   0  0  0  0  0  0  0  0  0  0  0  0
  139.9050   70.0240  225.9900 C   0  0  0  0  0  0  0  0  0  0  0  0
  139.7430   69.3090  227.1560 C   0  0  0  0  0  0  0  0  0  0  0  0
  140.2610   69.8400  228.3300 C   0  0  0  0  0  0  0  0  0  0  0  0
  140.9230   71.0510  228.3420 C   0  0  0  0  0  0  0  0  0  0  0  0
  141.0850   71.7630  227.1820 C   0  0  0  0  0  0  0  0  0  0  0  0
  140.5690   71.2320  226.0170 C   0  0  0  0  0  0  0  0  0  0  0  0
  140.7050   71.8970  224.8550 N   0  0  0  0  0  0  0  0  0  0  0  0
  139.1640   73.8440  223.0660 H   0  0  0  0  0  0  0  0  0  0  0  0
  140.3456   73.3807  220.2930 H   0  0  0  0  0  0  0  0  0  0  0  0
  138.9654   74.4864  220.6807 H   0  0  0  0  0  0  0  0  0  0  0  0
  140.5724   77.7056  219.5581 H   0  0  0  0  0  0  0  0  0  0  0  0
  141.7335   77.6999  220.9343 H   0  0  0  0  0  0  0  0  0  0  0  0
  142.7035   78.8131  218.9339 H   0  0  0  0  0  0  0  0  0  0  0  0
  143.6224   77.3674  219.3398 H   0  0  0  0  0  0  0  0  0  0  0  0
  141.1765   77.2968  217.4363 H   0  0  0  0  0  0  0  0  0  0  0  0
  142.8059   77.5689  216.8126 H   0  0  0  0  0  0  0  0  0  0  0  0
  142.1303   75.1444  216.8645 H   0  0  0  0  0  0  0  0  0  0  0  0
  143.6019   75.5412  217.8988 H   0  0  0  0  0  0  0  0  0  0  0  0
  140.9641   74.5199  218.5991 H   0  0  0  0  0  0  0  0  0  0  0  0
  144.2086   75.3125  220.3457 H   0  0  0  0  0  0  0  0  0  0  0  0
  145.3239   71.2021  220.7618 H   0  0  0  0  0  0  0  0  0  0  0  0
  141.7207   72.2742  218.6686 H   0  0  0  0  0  0  0  0  0  0  0  0
  139.1450   69.8154  222.6796 H   0  0  0  0  0  0  0  0  0  0  0  0
  138.8743   68.5437  224.8224 H   0  0  0  0  0  0  0  0  0  0  0  0
  139.2172   68.3428  227.1573 H   0  0  0  0  0  0  0  0  0  0  0  0
  140.1411   69.2832  229.2711 H   0  0  0  0  0  0  0  0  0  0  0  0
  141.3227   71.4468  229.2873 H   0  0  0  0  0  0  0  0  0  0  0  0
  141.6108   72.7292  227.1795 H   0  0  0  0  0  0  0  0  0  0  0  0
  1  2  2  0
  2  3  1  0
  3  4  1  0
  4  5  1  0
  5  6  2  0
  5  7  1  0
  7  8  1  0
  8  9  1  0
  9 10  1  0
 10 11  1  0
 11 12  1  0
 12 13  1  0
 13 14  2  0
 14 15  1  0
 15 16  1  0
 15 17  2  0
 17 18  1  0
 18 19  1  0
 18 20  2  0
  2 21  1  0
 21 22  2  0
 22 23  1  0
 23 24  2  0
 24 25  1  0
 25 26  2  0
 26 27  1  0
 27 28  2  0
 28 29  1  0
 29 30  2  0
 12  7  1  0
 20 13  1  0
 30 21  1  0
 29 24  1  0
  3 31  1  0
  4 32  1  0
  4 33  1  0
  8 34  1  0
  8 35  1  0
  9 36  1  0
  9 37  1  0
 10 38  1  0
 10 39  1  0
 11 40  1  0
 11 41  1  0
 12 42  1  6
 14 43  1  0
 17 44  1  0
 20 45  1  0
 22 46  1  0
 23 47  1  0
 25 48  1  0
 26 49  1  0
 27 50  1  0
 28 51  1  0
M  END
>  <smiles>  (54) 
O=C(NCC(=O)N1CCCCC1c1cc(Cl)cc(Cl)c1)c1ccc2ccccc2n1

>  <score_type>  (54) 
oracle

>  <origin>  (54) 
autodockgpu

>  <m_score__min__energy>  (54) 
-9.4399999999999995

>  <m_primary>  (54) 
energy

>  <rmsd>  (54) 
2.268321482685944

>  <m_score__min__rmsd>  (54) 
2.268321482685944

>  <meeko>  (54) 
{"free_energy": -9.04, "intermolecular_energy": -10.53, "internal_energy": -2.07, "cluster_size": 22, "cluster_id": 2, "rank_in_cluster": 1}

>  <energy>  (54) 
-9.39

>  <cluster_rmsd>  (54) 
0.12

>  <cluster>  (54) 
1

$$$$

     RDKit          3D

 51 54  0  0  0  0  0  0  0  0999 V2000
  138.9220   75.3230  221.7160 O   0  0  0  0  0  0  0  0  0  0  0  0
  140.0430   75.8430  221.9480 C   0  0  0  0  0  0  0  0  0  0  0  0
  141.1930   74.9940  221.7860 N   0  0  0  0  0  0  0  0  0  0  0  0
  140.9530   73.6360  221.3750 C   0  0  0  0  0  0  0  0  0  0  0  0
  141.7700   73.2790  220.1710 C   0  0  0  0  0  0  0  0  0  0  0  0
  141.1310   73.0360  219.1150 O   0  0  0  0  0  0  0  0  0  0  0  0
  143.1900   73.2270  220.2550 N   0  0  0  0  0  0  0  0  0  0  0  0
  143.8550   71.9450  220.1310 C   0  0  0  0  0  0  0  0  0  0  0  0
  145.2660   72.1400  219.6410 C   0  0  0  0  0  0  0  0  0  0  0  0
  145.9280   73.0110  220.7180 C   0  0  0  0  0  0  0  0  0  0  0  0
  145.3620   74.3940  220.5100 C   0  0  0  0  0  0  0  0  0  0  0  0
  143.8840   74.4750  220.4640 C   0  0  1  0  0  0  0  0  0  0  0  0
  143.5010   75.5110  219.4630 C   0  0  0  0  0  0  0  0  0  0  0  0
  142.9170   76.7100  219.8180 C   0  0  0  0  0  0  0  0  0  0  0  0
  142.5570   77.6790  218.9120 C   0  0  0  0  0  0  0  0  0  0  0  0
  141.8140   79.1980  219.3940 Cl  0  0  0  0  0  0  0  0  0  0  0  0
  142.7790   77.4680  217.5640 C   0  0  0  0  0  0  0  0  0  0  0  0
  143.3660   76.2720  217.1600 C   0  0  0  0  0  0  0  0  0  0  0  0
  143.6480   76.0090  215.4350 Cl  0  0  0  0  0  0  0  0  0  0  0  0
  143.7160   75.3200  218.0970 C   0  0  0  0  0  0  0  0  0  0  0  0
  140.2140   77.2310  222.3640 C   0  0  0  0  0  0  0  0  0  0  0  0
  139.0520   77.9630  222.5800 C   0  0  0  0  0  0  0  0  0  0  0  0
  139.2150   79.2760  222.9730 C   0  0  0  0  0  0  0  0  0  0  0  0
  140.4790   79.8050  223.1320 C   0  0  0  0  0  0  0  0  0  0  0  0
  140.6080   81.1200  223.5240 C   0  0  0  0  0  0  0  0  0  0  0  0
  141.8870   81.6360  223.6800 C   0  0  0  0  0  0  0  0  0  0  0  0
  143.0080   80.8650  223.4510 C   0  0  0  0  0  0  0  0  0  0  0  0
  142.8800   79.5570  223.0600 C   0  0  0  0  0  0  0  0  0  0  0  0
  141.6080   79.0470  222.9060 C   0  0  0  0  0  0  0  0  0  0  0  0
  141.4360   77.7680  222.5240 N   0  0  0  0  0  0  0  0  0  0  0  0
  142.1660   75.3760  221.9670 H   0  0  0  0  0  0  0  0  0  0  0  0
  141.2177   72.9596  222.2010 H   0  0  0  0  0  0  0  0  0  0  0  0
  139.8890   73.5349  221.1149 H   0  0  0  0  0  0  0  0  0  0  0  0
  143.8759   71.4493  221.1128 H   0  0  0  0  0  0  0  0  0  0  0  0
  143.3057   71.3224  219.4094 H   0  0  0  0  0  0  0  0  0  0  0  0
  145.7834   71.1735  219.5499 H   0  0  0  0  0  0  0  0  0  0  0  0
  145.3031   72.6050  218.6448 H   0  0  0  0  0  0  0  0  0  0  0  0
  145.6782   72.6389  221.7226 H   0  0  0  0  0  0  0  0  0  0  0  0
  147.0251   72.9993  220.6396 H   0  0  0  0  0  0  0  0  0  0  0  0
  145.7113   75.0314  221.3357 H   0  0  0  0  0  0  0  0  0  0  0  0
  145.7144   74.7201  219.5203 H   0  0  0  0  0  0  0  0  0  0  0  0
  143.5501   74.7630  221.4717 H   0  0  0  0  0  0  0  0  0  0  0  0
  142.7293   76.9007  220.8849 H   0  0  0  0  0  0  0  0  0  0  0  0
  142.4969   78.2313  216.8239 H   0  0  0  0  0  0  0  0  0  0  0  0
  144.1786   74.3819  217.7564 H   0  0  0  0  0  0  0  0  0  0  0  0
  138.0547   77.5189  222.4448 H   0  0  0  0  0  0  0  0  0  0  0  0
  138.3318   79.9043  223.1605 H   0  0  0  0  0  0  0  0  0  0  0  0
  139.7210   81.7439  223.7083 H   0  0  0  0  0  0  0  0  0  0  0  0
  142.0097   82.6833  223.9933 H   0  0  0  0  0  0  0  0  0  0  0  0
  144.0090   81.3016  223.5827 H   0  0  0  0  0  0  0  0  0  0  0  0
  143.7663   78.9325  222.8745 H   0  0  0  0  0  0  0  0  0  0  0  0
  1  2  2  0
  2  3  1  0
  3  4  1  0
  4  5  1  0
  5  6  2  0
  5  7  1  0
  7  8  1  0
  8  9  1  0
  9 10  1  0
 10 11  1  0
 11 12  1  0
 12 13  1  0
 13 14  2  0
 14 15  1  0
 15 16  1  0
 15 17  2  0
 17 18  1  0
 18 19  1  0
 18 20  2  0
  2 21  1  0
 21 22  2  0
 22 23  1  0
 23 24  2  0
 24 25  1  0
 25 26  2  0
 26 27  1  0
 27 28  2  0
 28 29  1  0
 29 30  2  0
 12  7  1  0
 20 13  1  0
 30 21  1  0
 29 24  1  0
  3 31  1  0
  4 32  1  0
  4 33  1  0
  8 34  1  0
  8 35  1  0
  9 36  1  0
  9 37  1  0
 10 38  1  0
 10 39  1  0
 11 40  1  0
 11 41  1  0
 12 42  1  1
 14 43  1  0
 17 44  1  0
 20 45  1  0
 22 46  1  0
 23 47  1  0
 25 48  1  0
 26 49  1  0
 27 50  1  0
 28 51  1  0
M  END
>  <smiles>  (55) 
O=C(NCC(=O)N1CCCCC1c1cc(Cl)cc(Cl)c1)c1ccc2ccccc2n1

>  <score_type>  (55) 
oracle

>  <origin>  (55) 
autodockgpu

>  <m_score__min__energy>  (55) 
-9.4399999999999995

>  <m_primary>  (55) 
energy

>  <rmsd>  (55) 
7.767774646059106

>  <m_score__min__rmsd>  (55) 
7.767774646059106

>  <meeko>  (55) 
{"free_energy": -8.48, "intermolecular_energy": -9.97, "internal_energy": -2.74, "cluster_size": 19, "cluster_id": 3, "rank_in_cluster": 16}

>  <energy>  (55) 
-9.35

>  <cluster_rmsd>  (55) 
0.14

>  <cluster>  (55) 
1

$$$$

     RDKit          3D

 51 54  0  0  0  0  0  0  0  0999 V2000
  141.2420   71.5450  221.4320 O   0  0  0  0  0  0  0  0  0  0  0  0
  140.5180   72.0410  222.3330 C   0  0  0  0  0  0  0  0  0  0  0  0
  139.9060   73.3090  222.0410 N   0  0  0  0  0  0  0  0  0  0  0  0
  140.1760   73.8880  220.7510 C   0  0  0  0  0  0  0  0  0  0  0  0
  139.5490   75.2420  220.6190 C   0  0  0  0  0  0  0  0  0  0  0  0
  138.4360   75.2860  220.0340 O   0  0  0  0  0  0  0  0  0  0  0  0
  140.2060   76.3920  221.1380 N   0  0  0  0  0  0  0  0  0  0  0  0
  139.9480   76.7910  222.5080 C   0  0  0  0  0  0  0  0  0  0  0  0
  141.1140   77.5790  223.0460 C   0  0  0  0  0  0  0  0  0  0  0  0
  141.2130   78.7970  222.1180 C   0  0  0  0  0  0  0  0  0  0  0  0
  141.7970   78.2690  220.8320 C   0  0  0  0  0  0  0  0  0  0  0  0
  141.0990   77.0980  220.2510 C   0  0  1  0  0  0  0  0  0  0  0  0
  142.1190   76.1980  219.6410 C   0  0  0  0  0  0  0  0  0  0  0  0
  142.3750   76.1740  218.2840 C   0  0  0  0  0  0  0  0  0  0  0  0
  143.3110   75.3540  217.7010 C   0  0  0  0  0  0  0  0  0  0  0  0
  143.6150   75.3460  215.9700 Cl  0  0  0  0  0  0  0  0  0  0  0  0
  144.0510   74.4950  218.4910 C   0  0  0  0  0  0  0  0  0  0  0  0
  143.8270   74.4850  219.8650 C   0  0  0  0  0  0  0  0  0  0  0  0
  144.7770   73.3840  220.8690 Cl  0  0  0  0  0  0  0  0  0  0  0  0
  142.8780   75.3230  220.4190 C   0  0  0  0  0  0  0  0  0  0  0  0
  140.2860   71.3980  223.6210 C   0  0  0  0  0  0  0  0  0  0  0  0
  139.5440   70.2220  223.6040 C   0  0  0  0  0  0  0  0  0  0  0  0
  139.3260   69.6140  224.8240 C   0  0  0  0  0  0  0  0  0  0  0  0
  139.8290   70.1710  225.9810 C   0  0  0  0  0  0  0  0  0  0  0  0
  139.5920   69.5410  227.1840 C   0  0  0  0  0  0  0  0  0  0  0  0
  140.1070   70.1140  228.3380 C   0  0  0  0  0  0  0  0  0  0  0  0
  140.8360   71.2840  228.2980 C   0  0  0  0  0  0  0  0  0  0  0  0
  141.0710   71.9120  227.1030 C   0  0  0  0  0  0  0  0  0  0  0  0
  140.5600   71.3400  225.9570 C   0  0  0  0  0  0  0  0  0  0  0  0
  140.7660   71.9220  224.7620 N   0  0  0  0  0  0  0  0  0  0  0  0
  139.2840   73.7770  222.7610 H   0  0  0  0  0  0  0  0  0  0  0  0
  141.2642   73.9831  220.6218 H   0  0  0  0  0  0  0  0  0  0  0  0
  139.7480   73.2310  219.9796 H   0  0  0  0  0  0  0  0  0  0  0  0
  139.0418   77.4137  222.5411 H   0  0  0  0  0  0  0  0  0  0  0  0
  139.8065   75.8911  223.1245 H   0  0  0  0  0  0  0  0  0  0  0  0
  140.9254   77.8941  224.0829 H   0  0  0  0  0  0  0  0  0  0  0  0
  142.0434   76.9910  223.0663 H   0  0  0  0  0  0  0  0  0  0  0  0
  140.2168   79.2285  221.9405 H   0  0  0  0  0  0  0  0  0  0  0  0
  141.8321   79.5955  222.5529 H   0  0  0  0  0  0  0  0  0  0  0  0
  141.7734   79.0807  220.0900 H   0  0  0  0  0  0  0  0  0  0  0  0
  142.8123   77.9252  221.0787 H   0  0  0  0  0  0  0  0  0  0  0  0
  140.4114   77.4860  219.4851 H   0  0  0  0  0  0  0  0  0  0  0  0
  141.7979   76.8483  217.6342 H   0  0  0  0  0  0  0  0  0  0  0  0
  144.8040   73.8306  218.0420 H   0  0  0  0  0  0  0  0  0  0  0  0
  142.7160   75.2995  221.5068 H   0  0  0  0  0  0  0  0  0  0  0  0
  139.1515   69.7986  222.6677 H   0  0  0  0  0  0  0  0  0  0  0  0
  138.7476   68.6796  224.8736 H   0  0  0  0  0  0  0  0  0  0  0  0
  139.0100   68.6086  227.2279 H   0  0  0  0  0  0  0  0  0  0  0  0
  139.9298   69.6239  229.3067 H   0  0  0  0  0  0  0  0  0  0  0  0
  141.2307   71.7151  229.2299 H   0  0  0  0  0  0  0  0  0  0  0  0
  141.6507   72.8458  227.0591 H   0  0  0  0  0  0  0  0  0  0  0  0
  1  2  2  0
  2  3  1  0
  3  4  1  0
  4  5  1  0
  5  6  2  0
  5  7  1  0
  7  8  1  0
  8  9  1  0
  9 10  1  0
 10 11  1  0
 11 12  1  0
 12 13  1  0
 13 14  2  0
 14 15  1  0
 15 16  1  0
 15 17  2  0
 17 18  1  0
 18 19  1  0
 18 20  2  0
  2 21  1  0
 21 22  2  0
 22 23  1  0
 23 24  2  0
 24 25  1  0
 25 26  2  0
 26 27  1  0
 27 28  2  0
 28 29  1  0
 29 30  2  0
 12  7  1  0
 20 13  1  0
 30 21  1  0
 29 24  1  0
  3 31  1  0
  4 32  1  0
  4 33  1  0
  8 34  1  0
  8 35  1  0
  9 36  1  0
  9 37  1  0
 10 38  1  0
 10 39  1  0
 11 40  1  0
 11 41  1  0
 12 42  1  6
 14 43  1  0
 17 44  1  0
 20 45  1  0
 22 46  1  0
 23 47  1  0
 25 48  1  0
 26 49  1  0
 27 50  1  0
 28 51  1  0
M  END
>  <smiles>  (56) 
O=C(NCC(=O)N1CCCCC1c1cc(Cl)cc(Cl)c1)c1ccc2ccccc2n1

>  <score_type>  (56) 
oracle

>  <origin>  (56) 
autodockgpu

>  <m_score__min__energy>  (56) 
-9.4399999999999995

>  <m_primary>  (56) 
energy

>  <rmsd>  (56) 
2.8783062968837676

>  <m_score__min__rmsd>  (56) 
2.8783062968837676

>  <meeko>  (56) 
{"free_energy": -8.58, "intermolecular_energy": -10.08, "internal_energy": -1.66, "cluster_size": 22, "cluster_id": 2, "rank_in_cluster": 22}

>  <energy>  (56) 
-9.22

>  <cluster_rmsd>  (56) 
0.3

>  <cluster>  (56) 
1

$$$$

     RDKit          3D

 51 54  0  0  0  0  0  0  0  0999 V2000
  140.5430   71.5410  221.3030 O   0  0  0  0  0  0  0  0  0  0  0  0
  140.1900   72.0670  222.3890 C   0  0  0  0  0  0  0  0  0  0  0  0
  139.8380   73.4600  222.3450 N   0  0  0  0  0  0  0  0  0  0  0  0
  139.9200   74.1180  221.0670 C   0  0  0  0  0  0  0  0  0  0  0  0
  140.5850   75.4560  221.1840 C   0  0  0  0  0  0  0  0  0  0  0  0
  140.7710   75.8860  222.3520 O   0  0  0  0  0  0  0  0  0  0  0  0
  140.9710   76.1710  220.0160 N   0  0  0  0  0  0  0  0  0  0  0  0
  140.4700   75.7360  218.7270 C   0  0  0  0  0  0  0  0  0  0  0  0
  140.4590   76.8900  217.7590 C   0  0  0  0  0  0  0  0  0  0  0  0
  141.9270   77.3280  217.6700 C   0  0  0  0  0  0  0  0  0  0  0  0
  142.2050   78.0470  218.9660 C   0  0  0  0  0  0  0  0  0  0  0  0
  141.8520   77.3000  220.1950 C   0  0  1  0  0  0  0  0  0  0  0  0
  141.3320   78.2700  221.2010 C   0  0  0  0  0  0  0  0  0  0  0  0
  139.9830   78.4600  221.4250 C   0  0  0  0  0  0  0  0  0  0  0  0
  139.4820   79.3470  222.3470 C   0  0  0  0  0  0  0  0  0  0  0  0
  137.7580   79.5670  222.6110 Cl  0  0  0  0  0  0  0  0  0  0  0  0
  140.3540   80.1040  223.1070 C   0  0  0  0  0  0  0  0  0  0  0  0
  141.7230   79.9460  222.9160 C   0  0  0  0  0  0  0  0  0  0  0  0
  142.8310   80.9170  223.8910 Cl  0  0  0  0  0  0  0  0  0  0  0  0
  142.1930   79.0450  221.9790 C   0  0  0  0  0  0  0  0  0  0  0  0
  140.1300   71.3390  223.6520 C   0  0  0  0  0  0  0  0  0  0  0  0
  139.5580   70.0720  223.6110 C   0  0  0  0  0  0  0  0  0  0  0  0
  139.5010   69.3840  224.8070 C   0  0  0  0  0  0  0  0  0  0  0  0
  139.9930   69.9520  225.9630 C   0  0  0  0  0  0  0  0  0  0  0  0
  139.9210   69.2400  227.1410 C   0  0  0  0  0  0  0  0  0  0  0  0
  140.4220   69.8260  228.2950 C   0  0  0  0  0  0  0  0  0  0  0  0
  140.9790   71.0890  228.2780 C   0  0  0  0  0  0  0  0  0  0  0  0
  141.0510   71.7980  227.1080 C   0  0  0  0  0  0  0  0  0  0  0  0
  140.5530   71.2130  225.9620 C   0  0  0  0  0  0  0  0  0  0  0  0
  140.6020   71.8730  224.7910 N   0  0  0  0  0  0  0  0  0  0  0  0
  139.5330   73.9600  223.2290 H   0  0  0  0  0  0  0  0  0  0  0  0
  140.5008   73.4885  220.3767 H   0  0  0  0  0  0  0  0  0  0  0  0
  138.8982   74.2704  220.6893 H   0  0  0  0  0  0  0  0  0  0  0  0
  141.1185   74.9386  218.3350 H   0  0  0  0  0  0  0  0  0  0  0  0
  139.4440   75.3586  218.8485 H   0  0  0  0  0  0  0  0  0  0  0  0
  140.0884   76.5686  216.7745 H   0  0  0  0  0  0  0  0  0  0  0  0
  139.7974   77.7055  218.0865 H   0  0  0  0  0  0  0  0  0  0  0  0
  142.5850   76.4527  217.5658 H   0  0  0  0  0  0  0  0  0  0  0  0
  142.1120   77.9700  216.7961 H   0  0  0  0  0  0  0  0  0  0  0  0
  143.2806   78.2743  219.0041 H   0  0  0  0  0  0  0  0  0  0  0  0
  141.5643   78.9411  218.9601 H   0  0  0  0  0  0  0  0  0  0  0  0
  142.7760   76.8223  220.5530 H   0  0  0  0  0  0  0  0  0  0  0  0
  139.2697   77.8684  220.8324 H   0  0  0  0  0  0  0  0  0  0  0  0
  139.9719   80.8192  223.8502 H   0  0  0  0  0  0  0  0  0  0  0  0
  143.2790   78.9356  221.8425 H   0  0  0  0  0  0  0  0  0  0  0  0
  139.1716   69.6409  222.6757 H   0  0  0  0  0  0  0  0  0  0  0  0
  139.0604   68.3766  224.8376 H   0  0  0  0  0  0  0  0  0  0  0  0
  139.4780   68.2335  227.1658 H   0  0  0  0  0  0  0  0  0  0  0  0
  140.3742   69.2719  229.2440 H   0  0  0  0  0  0  0  0  0  0  0  0
  141.3671   71.5284  229.2088 H   0  0  0  0  0  0  0  0  0  0  0  0
  141.4932   72.8049  227.0830 H   0  0  0  0  0  0  0  0  0  0  0  0
  1  2  2  0
  2  3  1  0
  3  4  1  0
  4  5  1  0
  5  6  2  0
  5  7  1  0
  7  8  1  0
  8  9  1  0
  9 10  1  0
 10 11  1  0
 11 12  1  0
 12 13  1  0
 13 14  2  0
 14 15  1  0
 15 16  1  0
 15 17  2  0
 17 18  1  0
 18 19  1  0
 18 20  2  0
  2 21  1  0
 21 22  2  0
 22 23  1  0
 23 24  2  0
 24 25  1  0
 25 26  2  0
 26 27  1  0
 27 28  2  0
 28 29  1  0
 29 30  2  0
 12  7  1  0
 20 13  1  0
 30 21  1  0
 29 24  1  0
  3 31  1  0
  4 32  1  0
  4 33  1  0
  8 34  1  0
  8 35  1  0
  9 36  1  0
  9 37  1  0
 10 38  1  0
 10 39  1  0
 11 40  1  0
 11 41  1  0
 12 42  1  1
 14 43  1  0
 17 44  1  0
 20 45  1  0
 22 46  1  0
 23 47  1  0
 25 48  1  0
 26 49  1  0
 27 50  1  0
 28 51  1  0
M  END
>  <smiles>  (57) 
O=C(NCC(=O)N1CCCCC1c1cc(Cl)cc(Cl)c1)c1ccc2ccccc2n1

>  <score_type>  (57) 
oracle

>  <origin>  (57) 
autodockgpu

>  <m_score__min__energy>  (57) 
-9.4399999999999995

>  <m_primary>  (57) 
energy

>  <rmsd>  (57) 
1.4167925358127686

>  <m_score__min__rmsd>  (57) 
1.4167925358127686

>  <meeko>  (57) 
{"free_energy": -9.35, "intermolecular_energy": -10.84, "internal_energy": -1.56, "cluster_size": 7, "cluster_id": 1, "rank_in_cluster": 5}

>  <energy>  (57) 
-8.64

>  <cluster_rmsd>  (57) 
0.97

>  <cluster>  (57) 
1

$$$$

     RDKit          3D

 51 54  0  0  0  0  0  0  0  0999 V2000
  140.7050   71.5030  221.3490 O   0  0  0  0  0  0  0  0  0  0  0  0
  140.3030   72.0270  222.4190 C   0  0  0  0  0  0  0  0  0  0  0  0
  139.9230   73.4120  222.3540 N   0  0  0  0  0  0  0  0  0  0  0  0
  140.0370   74.0650  221.0760 C   0  0  0  0  0  0  0  0  0  0  0  0
  140.9050   75.2830  221.1610 C   0  0  0  0  0  0  0  0  0  0  0  0
  141.1000   75.7500  222.3120 O   0  0  0  0  0  0  0  0  0  0  0  0
  141.4610   75.8530  219.9810 N   0  0  0  0  0  0  0  0  0  0  0  0
  141.5670   77.2950  219.8790 C   0  0  0  0  0  0  0  0  0  0  0  0
  142.6720   77.6670  218.9250 C   0  0  0  0  0  0  0  0  0  0  0  0
  142.2480   77.0420  217.5880 C   0  0  0  0  0  0  0  0  0  0  0  0
  142.4950   75.5630  217.7470 C   0  0  0  0  0  0  0  0  0  0  0  0
  141.8860   74.9420  218.9460 C   0  0  1  0  0  0  0  0  0  0  0  0
  142.8180   73.8980  219.4590 C   0  0  0  0  0  0  0  0  0  0  0  0
  142.5830   72.5460  219.3020 C   0  0  0  0  0  0  0  0  0  0  0  0
  143.4280   71.5670  219.7660 C   0  0  0  0  0  0  0  0  0  0  0  0
  143.1020   69.8540  219.5510 Cl  0  0  0  0  0  0  0  0  0  0  0  0
  144.5860   71.9260  220.4300 C   0  0  0  0  0  0  0  0  0  0  0  0
  144.8650   73.2780  220.6110 C   0  0  0  0  0  0  0  0  0  0  0  0
  146.3480   73.7290  221.4610 Cl  0  0  0  0  0  0  0  0  0  0  0  0
  143.9930   74.2360  220.1320 C   0  0  0  0  0  0  0  0  0  0  0  0
  140.2120   71.3050  223.6840 C   0  0  0  0  0  0  0  0  0  0  0  0
  139.6210   70.0470  223.6390 C   0  0  0  0  0  0  0  0  0  0  0  0
  139.5360   69.3650  224.8360 C   0  0  0  0  0  0  0  0  0  0  0  0
  140.0200   69.9300  225.9980 C   0  0  0  0  0  0  0  0  0  0  0  0
  139.9190   69.2230  227.1770 C   0  0  0  0  0  0  0  0  0  0  0  0
  140.4130   69.8060  228.3360 C   0  0  0  0  0  0  0  0  0  0  0  0
  140.9900   71.0590  228.3230 C   0  0  0  0  0  0  0  0  0  0  0  0
  141.0900   71.7630  227.1510 C   0  0  0  0  0  0  0  0  0  0  0  0
  140.6000   71.1810  226.0000 C   0  0  0  0  0  0  0  0  0  0  0  0
  140.6770   71.8360  224.8280 N   0  0  0  0  0  0  0  0  0  0  0  0
  139.5750   73.9110  223.2230 H   0  0  0  0  0  0  0  0  0  0  0  0
  140.4761   73.3622  220.3527 H   0  0  0  0  0  0  0  0  0  0  0  0
  139.0321   74.3772  220.7555 H   0  0  0  0  0  0  0  0  0  0  0  0
  140.6150   77.7046  219.5104 H   0  0  0  0  0  0  0  0  0  0  0  0
  141.7938   77.7103  220.8720 H   0  0  0  0  0  0  0  0  0  0  0  0
  142.7566   78.7600  218.8344 H   0  0  0  0  0  0  0  0  0  0  0  0
  143.6558   77.3087  219.2623 H   0  0  0  0  0  0  0  0  0  0  0  0
  141.1832   77.2364  217.3918 H   0  0  0  0  0  0  0  0  0  0  0  0
  142.8088   77.4637  216.7408 H   0  0  0  0  0  0  0  0  0  0  0  0
  142.0912   75.0542  216.8592 H   0  0  0  0  0  0  0  0  0  0  0  0
  143.5825   75.4486  217.8660 H   0  0  0  0  0  0  0  0  0  0  0  0
  140.9351   74.4931  218.6229 H   0  0  0  0  0  0  0  0  0  0  0  0
  141.6681   72.2357  218.7760 H   0  0  0  0  0  0  0  0  0  0  0  0
  145.2751   71.1569  220.8088 H   0  0  0  0  0  0  0  0  0  0  0  0
  144.2321   75.2986  220.2858 H   0  0  0  0  0  0  0  0  0  0  0  0
  139.2416   69.6184  222.6997 H   0  0  0  0  0  0  0  0  0  0  0  0
  139.0794   68.3646  224.8637 H   0  0  0  0  0  0  0  0  0  0  0  0
  139.4594   68.2239  227.1989 H   0  0  0  0  0  0  0  0  0  0  0  0
  140.3427   69.2564  229.2863 H   0  0  0  0  0  0  0  0  0  0  0  0
  141.3718   71.4954  229.2578 H   0  0  0  0  0  0  0  0  0  0  0  0
  141.5477   72.7630  227.1288 H   0  0  0  0  0  0  0  0  0  0  0  0
  1  2  2  0
  2  3  1  0
  3  4  1  0
  4  5  1  0
  5  6  2  0
  5  7  1  0
  7  8  1  0
  8  9  1  0
  9 10  1  0
 10 11  1  0
 11 12  1  0
 12 13  1  0
 13 14  2  0
 14 15  1  0
 15 16  1  0
 15 17  2  0
 17 18  1  0
 18 19  1  0
 18 20  2  0
  2 21  1  0
 21 22  2  0
 22 23  1  0
 23 24  2  0
 24 25  1  0
 25 26  2  0
 26 27  1  0
 27 28  2  0
 28 29  1  0
 29 30  2  0
 12  7  1  0
 20 13  1  0
 30 21  1  0
 29 24  1  0
  3 31  1  0
  4 32  1  0
  4 33  1  0
  8 34  1  0
  8 35  1  0
  9 36  1  0
  9 37  1  0
 10 38  1  0
 10 39  1  0
 11 40  1  0
 11 41  1  0
 12 42  1  6
 14 43  1  0
 17 44  1  0
 20 45  1  0
 22 46  1  0
 23 47  1  0
 25 48  1  0
 26 49  1  0
 27 50  1  0
 28 51  1  0
M  END
>  <smiles>  (58) 
O=C(NCC(=O)N1CCCCC1c1cc(Cl)cc(Cl)c1)c1ccc2ccccc2n1

>  <score_type>  (58) 
oracle

>  <origin>  (58) 
autodockgpu

>  <m_score__min__energy>  (58) 
-9.4399999999999995

>  <m_primary>  (58) 
energy

>  <rmsd>  (58) 
2.259657744277464

>  <m_score__min__rmsd>  (58) 
2.259657744277464

>  <meeko>  (58) 
{"free_energy": -8.92, "intermolecular_energy": -10.41, "internal_energy": -2.23, "cluster_size": 22, "cluster_id": 2, "rank_in_cluster": 15}

>  <energy>  (58) 
-9.04

>  <cluster_rmsd>  (58) 
0.0

>  <cluster>  (58) 
2

$$$$

     RDKit          3D

 51 54  0  0  0  0  0  0  0  0999 V2000
  138.9440   75.1780  221.7590 O   0  0  0  0  0  0  0  0  0  0  0  0
  140.0670   75.7180  221.9320 C   0  0  0  0  0  0  0  0  0  0  0  0
  141.2210   74.9020  221.6710 N   0  0  0  0  0  0  0  0  0  0  0  0
  140.9850   73.5490  221.2390 C   0  0  0  0  0  0  0  0  0  0  0  0
  141.8790   73.1780  220.0960 C   0  0  0  0  0  0  0  0  0  0  0  0
  141.3070   72.8470  219.0250 O   0  0  0  0  0  0  0  0  0  0  0  0
  143.2940   73.2100  220.2500 N   0  0  0  0  0  0  0  0  0  0  0  0
  144.0370   71.9670  220.1750 C   0  0  0  0  0  0  0  0  0  0  0  0
  145.4570   72.2380  219.7520 C   0  0  0  0  0  0  0  0  0  0  0  0
  146.0130   73.1580  220.8480 C   0  0  0  0  0  0  0  0  0  0  0  0
  145.3800   74.5030  220.5940 C   0  0  0  0  0  0  0  0  0  0  0  0
  143.9040   74.4980  220.4760 C   0  0  1  0  0  0  0  0  0  0  0  0
  143.5120   75.4990  219.4440 C   0  0  0  0  0  0  0  0  0  0  0  0
  143.7000   75.2890  218.0920 C   0  0  0  0  0  0  0  0  0  0  0  0
  143.3460   76.1970  217.1240 C   0  0  0  0  0  0  0  0  0  0  0  0
  143.5980   75.9010  215.4090 Cl  0  0  0  0  0  0  0  0  0  0  0  0
  142.7660   77.3960  217.4940 C   0  0  0  0  0  0  0  0  0  0  0  0
  142.5560   77.6510  218.8460 C   0  0  0  0  0  0  0  0  0  0  0  0
  141.8140   79.1860  219.3120 Cl  0  0  0  0  0  0  0  0  0  0  0  0
  142.9250   76.7160  219.7930 C   0  0  0  0  0  0  0  0  0  0  0  0
  140.2340   77.0990  222.3730 C   0  0  0  0  0  0  0  0  0  0  0  0
  139.0700   77.8140  222.6290 C   0  0  0  0  0  0  0  0  0  0  0  0
  139.2300   79.1200  223.0470 C   0  0  0  0  0  0  0  0  0  0  0  0
  140.4920   79.6580  223.1900 C   0  0  0  0  0  0  0  0  0  0  0  0
  140.6180   80.9650  223.6080 C   0  0  0  0  0  0  0  0  0  0  0  0
  141.8950   81.4900  223.7480 C   0  0  0  0  0  0  0  0  0  0  0  0
  143.0180   80.7350  223.4780 C   0  0  0  0  0  0  0  0  0  0  0  0
  142.8930   79.4340  223.0620 C   0  0  0  0  0  0  0  0  0  0  0  0
  141.6230   78.9150  222.9250 C   0  0  0  0  0  0  0  0  0  0  0  0
  141.4540   77.6440  222.5190 N   0  0  0  0  0  0  0  0  0  0  0  0
  142.1950   75.3010  221.7990 H   0  0  0  0  0  0  0  0  0  0  0  0
  141.1765   72.8660  222.0798 H   0  0  0  0  0  0  0  0  0  0  0  0
  139.9408   73.4695  220.9025 H   0  0  0  0  0  0  0  0  0  0  0  0
  144.0376   71.4832  221.1629 H   0  0  0  0  0  0  0  0  0  0  0  0
  143.5606   71.3066  219.4354 H   0  0  0  0  0  0  0  0  0  0  0  0
  146.0330   71.3023  219.7001 H   0  0  0  0  0  0  0  0  0  0  0  0
  145.5171   72.6930  218.7523 H   0  0  0  0  0  0  0  0  0  0  0  0
  145.7352   72.7829  221.8441 H   0  0  0  0  0  0  0  0  0  0  0  0
  147.1115   73.2094  220.8234 H   0  0  0  0  0  0  0  0  0  0  0  0
  145.6517   75.1686  221.4265 H   0  0  0  0  0  0  0  0  0  0  0  0
  145.7610   74.8379  219.6179 H   0  0  0  0  0  0  0  0  0  0  0  0
  143.5053   74.7769  221.4625 H   0  0  0  0  0  0  0  0  0  0  0  0
  144.1589   74.3417  217.7725 H   0  0  0  0  0  0  0  0  0  0  0  0
  142.4756   78.1355  216.7333 H   0  0  0  0  0  0  0  0  0  0  0  0
  142.7507   76.9376  220.8562 H   0  0  0  0  0  0  0  0  0  0  0  0
  138.0743   77.3633  222.5051 H   0  0  0  0  0  0  0  0  0  0  0  0
  138.3454   79.7355  223.2674 H   0  0  0  0  0  0  0  0  0  0  0  0
  139.7296   81.5762  223.8250 H   0  0  0  0  0  0  0  0  0  0  0  0
  142.0146   82.5313  224.0817 H   0  0  0  0  0  0  0  0  0  0  0  0
  144.0177   81.1784  223.5969 H   0  0  0  0  0  0  0  0  0  0  0  0
  143.7807   78.8221  222.8439 H   0  0  0  0  0  0  0  0  0  0  0  0
  1  2  2  0
  2  3  1  0
  3  4  1  0
  4  5  1  0
  5  6  2  0
  5  7  1  0
  7  8  1  0
  8  9  1  0
  9 10  1  0
 10 11  1  0
 11 12  1  0
 12 13  1  0
 13 14  2  0
 14 15  1  0
 15 16  1  0
 15 17  2  0
 17 18  1  0
 18 19  1  0
 18 20  2  0
  2 21  1  0
 21 22  2  0
 22 23  1  0
 23 24  2  0
 24 25  1  0
 25 26  2  0
 26 27  1  0
 27 28  2  0
 28 29  1  0
 29 30  2  0
 12  7  1  0
 20 13  1  0
 30 21  1  0
 29 24  1  0
  3 31  1  0
  4 32  1  0
  4 33  1  0
  8 34  1  0
  8 35  1  0
  9 36  1  0
  9 37  1  0
 10 38  1  0
 10 39  1  0
 11 40  1  0
 11 41  1  0
 12 42  1  1
 14 43  1  0
 17 44  1  0
 20 45  1  0
 22 46  1  0
 23 47  1  0
 25 48  1  0
 26 49  1  0
 27 50  1  0
 28 51  1  0
M  END
>  <smiles>  (59) 
O=C(NCC(=O)N1CCCCC1c1cc(Cl)cc(Cl)c1)c1ccc2ccccc2n1

>  <score_type>  (59) 
oracle

>  <origin>  (59) 
autodockgpu

>  <m_score__min__energy>  (59) 
-9.4399999999999995

>  <m_primary>  (59) 
energy

>  <rmsd>  (59) 
7.709725930336094

>  <m_score__min__rmsd>  (59) 
7.709725930336094

>  <meeko>  (59) 
{"free_energy": -8.5, "intermolecular_energy": -9.99, "internal_energy": -2.69, "cluster_size": 19, "cluster_id": 3, "rank_in_cluster": 9}

>  <energy>  (59) 
-8.99

>  <cluster_rmsd>  (59) 
0.07

>  <cluster>  (59) 
2

$$$$

     RDKit          3D

 51 54  0  0  0  0  0  0  0  0999 V2000
  140.6490   71.6450  221.2580 O   0  0  0  0  0  0  0  0  0  0  0  0
  140.2700   72.1330  222.3530 C   0  0  0  0  0  0  0  0  0  0  0  0
  139.8970   73.5220  222.3440 N   0  0  0  0  0  0  0  0  0  0  0  0
  139.9900   74.2190  221.0880 C   0  0  0  0  0  0  0  0  0  0  0  0
  141.0450   75.2830  221.1320 C   0  0  0  0  0  0  0  0  0  0  0  0
  141.4100   75.6590  222.2760 O   0  0  0  0  0  0  0  0  0  0  0  0
  141.5800   75.8140  219.9250 N   0  0  0  0  0  0  0  0  0  0  0  0
  141.6950   77.2520  219.7800 C   0  0  0  0  0  0  0  0  0  0  0  0
  142.7820   77.5870  218.7920 C   0  0  0  0  0  0  0  0  0  0  0  0
  142.3260   76.9270  217.4840 C   0  0  0  0  0  0  0  0  0  0  0  0
  142.5650   75.4520  217.6800 C   0  0  0  0  0  0  0  0  0  0  0  0
  141.9770   74.8700  218.9080 C   0  0  1  0  0  0  0  0  0  0  0  0
  142.9120   73.8340  219.4320 C   0  0  0  0  0  0  0  0  0  0  0  0
  144.0470   74.1490  220.1520 C   0  0  0  0  0  0  0  0  0  0  0  0
  144.9210   73.2110  220.6450 C   0  0  0  0  0  0  0  0  0  0  0  0
  146.3590   73.6440  221.5600 Cl  0  0  0  0  0  0  0  0  0  0  0  0
  144.6770   71.8690  220.4220 C   0  0  0  0  0  0  0  0  0  0  0  0
  143.5440   71.5030  219.7010 C   0  0  0  0  0  0  0  0  0  0  0  0
  143.2370   69.7860  219.4210 Cl  0  0  0  0  0  0  0  0  0  0  0  0
  142.6860   72.4730  219.2200 C   0  0  0  0  0  0  0  0  0  0  0  0
  140.1990   71.3670  223.5930 C   0  0  0  0  0  0  0  0  0  0  0  0
  139.6360   70.0990  223.5070 C   0  0  0  0  0  0  0  0  0  0  0  0
  139.5700   69.3740  224.6800 C   0  0  0  0  0  0  0  0  0  0  0  0
  140.0440   69.9100  225.8600 C   0  0  0  0  0  0  0  0  0  0  0  0
  139.9620   69.1620  227.0140 C   0  0  0  0  0  0  0  0  0  0  0  0
  140.4450   69.7160  228.1910 C   0  0  0  0  0  0  0  0  0  0  0  0
  140.9940   70.9820  228.2200 C   0  0  0  0  0  0  0  0  0  0  0  0
  141.0750   71.7270  227.0720 C   0  0  0  0  0  0  0  0  0  0  0  0
  140.5950   71.1730  225.9030 C   0  0  0  0  0  0  0  0  0  0  0  0
  140.6540   71.8690  224.7530 N   0  0  0  0  0  0  0  0  0  0  0  0
  139.5690   73.9900  223.2380 H   0  0  0  0  0  0  0  0  0  0  0  0
  140.2410   73.4981  220.2960 H   0  0  0  0  0  0  0  0  0  0  0  0
  139.0213   74.6990  220.8849 H   0  0  0  0  0  0  0  0  0  0  0  0
  140.7384   77.6592  219.4206 H   0  0  0  0  0  0  0  0  0  0  0  0
  141.9465   77.6935  220.7556 H   0  0  0  0  0  0  0  0  0  0  0  0
  142.8725   78.6762  218.6674 H   0  0  0  0  0  0  0  0  0  0  0  0
  143.7700   77.2307  219.1190 H   0  0  0  0  0  0  0  0  0  0  0  0
  141.2588   77.1241  217.3043 H   0  0  0  0  0  0  0  0  0  0  0  0
  142.8725   77.3195  216.6137 H   0  0  0  0  0  0  0  0  0  0  0  0
  142.1389   74.9216  216.8156 H   0  0  0  0  0  0  0  0  0  0  0  0
  143.6539   75.3325  217.7799 H   0  0  0  0  0  0  0  0  0  0  0  0
  141.0169   74.4188  218.6173 H   0  0  0  0  0  0  0  0  0  0  0  0
  144.2636   75.2107  220.3415 H   0  0  0  0  0  0  0  0  0  0  0  0
  145.3663   71.1034  220.8076 H   0  0  0  0  0  0  0  0  0  0  0  0
  141.7965   72.1630  218.6519 H   0  0  0  0  0  0  0  0  0  0  0  0
  139.2627   69.6946  222.5546 H   0  0  0  0  0  0  0  0  0  0  0  0
  139.1369   68.3629  224.6740 H   0  0  0  0  0  0  0  0  0  0  0  0
  139.5253   68.1525  227.0027 H   0  0  0  0  0  0  0  0  0  0  0  0
  140.3891   69.1329  229.1221 H   0  0  0  0  0  0  0  0  0  0  0  0
  141.3682   71.3950  229.1684 H   0  0  0  0  0  0  0  0  0  0  0  0
  141.5101   72.7372  227.0825 H   0  0  0  0  0  0  0  0  0  0  0  0
  1  2  2  0
  2  3  1  0
  3  4  1  0
  4  5  1  0
  5  6  2  0
  5  7  1  0
  7  8  1  0
  8  9  1  0
  9 10  1  0
 10 11  1  0
 11 12  1  0
 12 13  1  0
 13 14  2  0
 14 15  1  0
 15 16  1  0
 15 17  2  0
 17 18  1  0
 18 19  1  0
 18 20  2  0
  2 21  1  0
 21 22  2  0
 22 23  1  0
 23 24  2  0
 24 25  1  0
 25 26  2  0
 26 27  1  0
 27 28  2  0
 28 29  1  0
 29 30  2  0
 12  7  1  0
 20 13  1  0
 30 21  1  0
 29 24  1  0
  3 31  1  0
  4 32  1  0
  4 33  1  0
  8 34  1  0
  8 35  1  0
  9 36  1  0
  9 37  1  0
 10 38  1  0
 10 39  1  0
 11 40  1  0
 11 41  1  0
 12 42  1  6
 14 43  1  0
 17 44  1  0
 20 45  1  0
 22 46  1  0
 23 47  1  0
 25 48  1  0
 26 49  1  0
 27 50  1  0
 28 51  1  0
M  END
>  <smiles>  (60) 
O=C(NCC(=O)N1CCCCC1c1cc(Cl)cc(Cl)c1)c1ccc2ccccc2n1

>  <score_type>  (60) 
oracle

>  <origin>  (60) 
autodockgpu

>  <m_score__min__energy>  (60) 
-9.4399999999999995

>  <m_primary>  (60) 
energy

>  <rmsd>  (60) 
2.2733356808181435

>  <m_score__min__rmsd>  (60) 
2.2733356808181435

>  <meeko>  (60) 
{"free_energy": -8.75, "intermolecular_energy": -10.24, "internal_energy": -2.22, "cluster_size": 22, "cluster_id": 2, "rank_in_cluster": 20}

>  <energy>  (60) 
-8.99

>  <cluster_rmsd>  (60) 
0.06

>  <cluster>  (60) 
2

$$$$

     RDKit          3D

 51 54  0  0  0  0  0  0  0  0999 V2000
  140.7050   71.4010  221.3370 O   0  0  0  0  0  0  0  0  0  0  0  0
  140.3010   71.9460  222.3960 C   0  0  0  0  0  0  0  0  0  0  0  0
  139.9550   73.3390  222.3110 N   0  0  0  0  0  0  0  0  0  0  0  0
  140.1020   73.9750  221.0290 C   0  0  0  0  0  0  0  0  0  0  0  0
  140.8040   75.2930  221.1500 C   0  0  0  0  0  0  0  0  0  0  0  0
  140.8490   75.7960  222.3020 O   0  0  0  0  0  0  0  0  0  0  0  0
  141.3760   75.9110  220.0030 N   0  0  0  0  0  0  0  0  0  0  0  0
  141.4620   77.3570  219.9530 C   0  0  0  0  0  0  0  0  0  0  0  0
  142.5810   77.7780  219.0360 C   0  0  0  0  0  0  0  0  0  0  0  0
  142.1950   77.1940  217.6700 C   0  0  0  0  0  0  0  0  0  0  0  0
  142.4610   75.7140  217.7830 C   0  0  0  0  0  0  0  0  0  0  0  0
  141.8370   75.0430  218.9470 C   0  0  1  0  0  0  0  0  0  0  0  0
  142.7740   73.9950  219.4440 C   0  0  0  0  0  0  0  0  0  0  0  0
  143.9440   74.2980  220.1110 C   0  0  0  0  0  0  0  0  0  0  0  0
  144.8210   73.3500  220.5790 C   0  0  0  0  0  0  0  0  0  0  0  0
  146.3050   73.7660  221.4260 Cl  0  0  0  0  0  0  0  0  0  0  0  0
  144.5430   72.0100  220.3850 C   0  0  0  0  0  0  0  0  0  0  0  0
  143.3740   71.6570  219.7170 C   0  0  0  0  0  0  0  0  0  0  0  0
  143.0240   69.9420  219.4720 Cl  0  0  0  0  0  0  0  0  0  0  0  0
  142.5140   72.6370  219.2600 C   0  0  0  0  0  0  0  0  0  0  0  0
  140.1760   71.2390  223.6670 C   0  0  0  0  0  0  0  0  0  0  0  0
  139.5550   69.9960  223.6270 C   0  0  0  0  0  0  0  0  0  0  0  0
  139.4370   69.3280  224.8290 C   0  0  0  0  0  0  0  0  0  0  0  0
  139.9190   69.8930  225.9920 C   0  0  0  0  0  0  0  0  0  0  0  0
  139.7860   69.2010  227.1760 C   0  0  0  0  0  0  0  0  0  0  0  0
  140.2770   69.7840  228.3360 C   0  0  0  0  0  0  0  0  0  0  0  0
  140.8850   71.0230  228.3180 C   0  0  0  0  0  0  0  0  0  0  0  0
  141.0180   71.7120  227.1410 C   0  0  0  0  0  0  0  0  0  0  0  0
  140.5290   71.1300  225.9890 C   0  0  0  0  0  0  0  0  0  0  0  0
  140.6370   71.7700  224.8110 N   0  0  0  0  0  0  0  0  0  0  0  0
  139.6080   73.8540  223.1710 H   0  0  0  0  0  0  0  0  0  0  0  0
  140.6862   73.3177  220.3683 H   0  0  0  0  0  0  0  0  0  0  0  0
  139.0990   74.1537  220.6142 H   0  0  0  0  0  0  0  0  0  0  0  0
  140.5117   77.7652  219.5785 H   0  0  0  0  0  0  0  0  0  0  0  0
  141.6617   77.7409  220.9643 H   0  0  0  0  0  0  0  0  0  0  0  0
  142.6507   78.8746  218.9849 H   0  0  0  0  0  0  0  0  0  0  0  0
  143.5628   77.4225  219.3818 H   0  0  0  0  0  0  0  0  0  0  0  0
  141.1318   77.3797  217.4577 H   0  0  0  0  0  0  0  0  0  0  0  0
  142.7671   77.6530  216.8503 H   0  0  0  0  0  0  0  0  0  0  0  0
  142.0831   75.2307  216.8700 H   0  0  0  0  0  0  0  0  0  0  0  0
  143.5475   75.6111  217.9206 H   0  0  0  0  0  0  0  0  0  0  0  0
  140.9002   74.5916  218.5883 H   0  0  0  0  0  0  0  0  0  0  0  0
  144.1876   75.3578  220.2770 H   0  0  0  0  0  0  0  0  0  0  0  0
  145.2334   71.2363  220.7520 H   0  0  0  0  0  0  0  0  0  0  0  0
  141.5954   72.3369  218.7345 H   0  0  0  0  0  0  0  0  0  0  0  0
  139.1775   69.5674  222.6869 H   0  0  0  0  0  0  0  0  0  0  0  0
  138.9558   68.3393  224.8601 H   0  0  0  0  0  0  0  0  0  0  0  0
  139.3035   68.2128  227.2013 H   0  0  0  0  0  0  0  0  0  0  0  0
  140.1794   69.2467  229.2909 H   0  0  0  0  0  0  0  0  0  0  0  0
  141.2648   71.4597  229.2535 H   0  0  0  0  0  0  0  0  0  0  0  0
  141.5005   72.7002  227.1151 H   0  0  0  0  0  0  0  0  0  0  0  0
  1  2  2  0
  2  3  1  0
  3  4  1  0
  4  5  1  0
  5  6  2  0
  5  7  1  0
  7  8  1  0
  8  9  1  0
  9 10  1  0
 10 11  1  0
 11 12  1  0
 12 13  1  0
 13 14  2  0
 14 15  1  0
 15 16  1  0
 15 17  2  0
 17 18  1  0
 18 19  1  0
 18 20  2  0
  2 21  1  0
 21 22  2  0
 22 23  1  0
 23 24  2  0
 24 25  1  0
 25 26  2  0
 26 27  1  0
 27 28  2  0
 28 29  1  0
 29 30  2  0
 12  7  1  0
 20 13  1  0
 30 21  1  0
 29 24  1  0
  3 31  1  0
  4 32  1  0
  4 33  1  0
  8 34  1  0
  8 35  1  0
  9 36  1  0
  9 37  1  0
 10 38  1  0
 10 39  1  0
 11 40  1  0
 11 41  1  0
 12 42  1  6
 14 43  1  0
 17 44  1  0
 20 45  1  0
 22 46  1  0
 23 47  1  0
 25 48  1  0
 26 49  1  0
 27 50  1  0
 28 51  1  0
M  END
>  <smiles>  (61) 
O=C(NCC(=O)N1CCCCC1c1cc(Cl)cc(Cl)c1)c1ccc2ccccc2n1

>  <score_type>  (61) 
oracle

>  <origin>  (61) 
autodockgpu

>  <m_score__min__energy>  (61) 
-9.4399999999999995

>  <m_primary>  (61) 
energy

>  <rmsd>  (61) 
2.241012724712033

>  <m_score__min__rmsd>  (61) 
2.241012724712033

>  <meeko>  (61) 
{"free_energy": -8.94, "intermolecular_energy": -10.44, "internal_energy": -2.24, "cluster_size": 22, "cluster_id": 2, "rank_in_cluster": 10}

>  <energy>  (61) 
-8.98

>  <cluster_rmsd>  (61) 
0.13

>  <cluster>  (61) 
2

$$$$

     RDKit          3D

 51 54  0  0  0  0  0  0  0  0999 V2000
  140.4590   71.4510  221.3270 O   0  0  0  0  0  0  0  0  0  0  0  0
  140.1590   71.9960  222.4200 C   0  0  0  0  0  0  0  0  0  0  0  0
  139.8410   73.3980  222.3750 N   0  0  0  0  0  0  0  0  0  0  0  0
  139.8960   74.0420  221.0890 C   0  0  0  0  0  0  0  0  0  0  0  0
  140.4580   75.4270  221.1960 C   0  0  0  0  0  0  0  0  0  0  0  0
  140.4050   75.9640  222.3320 O   0  0  0  0  0  0  0  0  0  0  0  0
  141.0130   76.0680  220.0530 N   0  0  0  0  0  0  0  0  0  0  0  0
  140.6160   75.6190  218.7330 C   0  0  0  0  0  0  0  0  0  0  0  0
  140.7890   76.7330  217.7340 C   0  0  0  0  0  0  0  0  0  0  0  0
  142.2870   77.0640  217.7850 C   0  0  0  0  0  0  0  0  0  0  0  0
  142.4830   77.8110  219.0800 C   0  0  0  0  0  0  0  0  0  0  0  0
  141.9520   77.1390  220.2880 C   0  0  1  0  0  0  0  0  0  0  0  0
  141.4040   78.1810  221.2030 C   0  0  0  0  0  0  0  0  0  0  0  0
  142.2040   78.9310  222.0420 C   0  0  0  0  0  0  0  0  0  0  0  0
  141.7210   79.8960  222.8920 C   0  0  0  0  0  0  0  0  0  0  0  0
  142.7650   80.8370  223.9480 Cl  0  0  0  0  0  0  0  0  0  0  0  0
  140.3630   80.1520  222.9320 C   0  0  0  0  0  0  0  0  0  0  0  0
  139.5180   79.4190  222.1040 C   0  0  0  0  0  0  0  0  0  0  0  0
  137.7830   79.7510  222.1590 Cl  0  0  0  0  0  0  0  0  0  0  0  0
  140.0370   78.4560  221.2610 C   0  0  0  0  0  0  0  0  0  0  0  0
  140.1230   71.2810  223.6910 C   0  0  0  0  0  0  0  0  0  0  0  0
  139.5750   70.0030  223.6690 C   0  0  0  0  0  0  0  0  0  0  0  0
  139.5420   69.3270  224.8720 C   0  0  0  0  0  0  0  0  0  0  0  0
  140.0330   69.9170  226.0180 C   0  0  0  0  0  0  0  0  0  0  0  0
  139.9850   69.2170  227.2040 C   0  0  0  0  0  0  0  0  0  0  0  0
  140.4850   69.8250  228.3470 C   0  0  0  0  0  0  0  0  0  0  0  0
  141.0170   71.0980  228.3120 C   0  0  0  0  0  0  0  0  0  0  0  0
  141.0650   71.7950  227.1330 C   0  0  0  0  0  0  0  0  0  0  0  0
  140.5680   71.1880  225.9990 C   0  0  0  0  0  0  0  0  0  0  0  0
  140.5950   71.8360  224.8200 N   0  0  0  0  0  0  0  0  0  0  0  0
  139.5800   73.9130  223.2640 H   0  0  0  0  0  0  0  0  0  0  0  0
  140.5335   73.4477  220.4179 H   0  0  0  0  0  0  0  0  0  0  0  0
  138.8723   74.1129  220.6927 H   0  0  0  0  0  0  0  0  0  0  0  0
  141.2410   74.7638  218.4363 H   0  0  0  0  0  0  0  0  0  0  0  0
  139.5581   75.3185  218.7578 H   0  0  0  0  0  0  0  0  0  0  0  0
  140.4981   76.4007  216.7265 H   0  0  0  0  0  0  0  0  0  0  0  0
  140.1594   77.6047  217.9656 H   0  0  0  0  0  0  0  0  0  0  0  0
  142.8863   76.1416  217.7772 H   0  0  0  0  0  0  0  0  0  0  0  0
  142.6067   77.6574  216.9157 H   0  0  0  0  0  0  0  0  0  0  0  0
  143.5629   77.9635  219.2236 H   0  0  0  0  0  0  0  0  0  0  0  0
  141.9137   78.7468  218.9790 H   0  0  0  0  0  0  0  0  0  0  0  0
  142.7971   76.6126  220.7557 H   0  0  0  0  0  0  0  0  0  0  0  0
  143.2882   78.7455  222.0291 H   0  0  0  0  0  0  0  0  0  0  0  0
  139.9577   80.9211  223.6060 H   0  0  0  0  0  0  0  0  0  0  0  0
  139.3514   77.8879  220.6150 H   0  0  0  0  0  0  0  0  0  0  0  0
  139.1883   69.5546  222.7420 H   0  0  0  0  0  0  0  0  0  0  0  0
  139.1216   68.3115  224.9170 H   0  0  0  0  0  0  0  0  0  0  0  0
  139.5614   68.2026  227.2438 H   0  0  0  0  0  0  0  0  0  0  0  0
  140.4567   69.2801  229.3021 H   0  0  0  0  0  0  0  0  0  0  0  0
  141.4042   71.5552  229.2345 H   0  0  0  0  0  0  0  0  0  0  0  0
  141.4879   72.8096  227.0925 H   0  0  0  0  0  0  0  0  0  0  0  0
  1  2  2  0
  2  3  1  0
  3  4  1  0
  4  5  1  0
  5  6  2  0
  5  7  1  0
  7  8  1  0
  8  9  1  0
  9 10  1  0
 10 11  1  0
 11 12  1  0
 12 13  1  0
 13 14  2  0
 14 15  1  0
 15 16  1  0
 15 17  2  0
 17 18  1  0
 18 19  1  0
 18 20  2  0
  2 21  1  0
 21 22  2  0
 22 23  1  0
 23 24  2  0
 24 25  1  0
 25 26  2  0
 26 27  1  0
 27 28  2  0
 28 29  1  0
 29 30  2  0
 12  7  1  0
 20 13  1  0
 30 21  1  0
 29 24  1  0
  3 31  1  0
  4 32  1  0
  4 33  1  0
  8 34  1  0
  8 35  1  0
  9 36  1  0
  9 37  1  0
 10 38  1  0
 10 39  1  0
 11 40  1  0
 11 41  1  0
 12 42  1  1
 14 43  1  0
 17 44  1  0
 20 45  1  0
 22 46  1  0
 23 47  1  0
 25 48  1  0
 26 49  1  0
 27 50  1  0
 28 51  1  0
M  END
>  <smiles>  (62) 
O=C(NCC(=O)N1CCCCC1c1cc(Cl)cc(Cl)c1)c1ccc2ccccc2n1

>  <score_type>  (62) 
oracle

>  <origin>  (62) 
autodockgpu

>  <m_score__min__energy>  (62) 
-9.4399999999999995

>  <m_primary>  (62) 
energy

>  <rmsd>  (62) 
1.4313511810825779

>  <m_score__min__rmsd>  (62) 
1.4313511810825779

>  <meeko>  (62) 
{"free_energy": -9.22, "intermolecular_energy": -10.71, "internal_energy": -1.52, "cluster_size": 7, "cluster_id": 1, "rank_in_cluster": 6}

>  <energy>  (62) 
-8.98

>  <cluster_rmsd>  (62) 
0.13

>  <cluster>  (62) 
2

$$$$

     RDKit          3D

 51 54  0  0  0  0  0  0  0  0999 V2000
  140.7700   71.5520  221.3680 O   0  0  0  0  0  0  0  0  0  0  0  0
  140.3090   72.0570  222.4240 C   0  0  0  0  0  0  0  0  0  0  0  0
  139.8700   73.4240  222.3460 N   0  0  0  0  0  0  0  0  0  0  0  0
  139.9980   74.0830  221.0730 C   0  0  0  0  0  0  0  0  0  0  0  0
  140.9250   75.2570  221.1580 C   0  0  0  0  0  0  0  0  0  0  0  0
  141.1820   75.6830  222.3130 O   0  0  0  0  0  0  0  0  0  0  0  0
  141.4660   75.8330  219.9740 N   0  0  0  0  0  0  0  0  0  0  0  0
  141.5610   77.2760  219.8740 C   0  0  0  0  0  0  0  0  0  0  0  0
  142.6540   77.6570  218.9100 C   0  0  0  0  0  0  0  0  0  0  0  0
  142.2210   77.0320  217.5760 C   0  0  0  0  0  0  0  0  0  0  0  0
  142.4810   75.5550  217.7290 C   0  0  0  0  0  0  0  0  0  0  0  0
  141.8880   74.9270  218.9330 C   0  0  1  0  0  0  0  0  0  0  0  0
  142.8320   73.8890  219.4350 C   0  0  0  0  0  0  0  0  0  0  0  0
  142.6280   72.5370  219.2370 C   0  0  0  0  0  0  0  0  0  0  0  0
  143.4850   71.5640  219.6900 C   0  0  0  0  0  0  0  0  0  0  0  0
  143.1990   69.8500  219.4220 Cl  0  0  0  0  0  0  0  0  0  0  0  0
  144.6230   71.9280  220.3860 C   0  0  0  0  0  0  0  0  0  0  0  0
  144.8700   73.2790  220.6090 C   0  0  0  0  0  0  0  0  0  0  0  0
  146.3270   73.7370  221.4990 Cl  0  0  0  0  0  0  0  0  0  0  0  0
  143.9870   74.2320  220.1390 C   0  0  0  0  0  0  0  0  0  0  0  0
  140.2060   71.3290  223.6840 C   0  0  0  0  0  0  0  0  0  0  0  0
  139.6170   70.0710  223.6290 C   0  0  0  0  0  0  0  0  0  0  0  0
  139.5210   69.3830  224.8220 C   0  0  0  0  0  0  0  0  0  0  0  0
  139.9930   69.9430  225.9910 C   0  0  0  0  0  0  0  0  0  0  0  0
  139.8820   69.2320  227.1650 C   0  0  0  0  0  0  0  0  0  0  0  0
  140.3640   69.8100  228.3320 C   0  0  0  0  0  0  0  0  0  0  0  0
  140.9390   71.0630  228.3300 C   0  0  0  0  0  0  0  0  0  0  0  0
  141.0500   71.7720  227.1620 C   0  0  0  0  0  0  0  0  0  0  0  0
  140.5710   71.1950  226.0040 C   0  0  0  0  0  0  0  0  0  0  0  0
  140.6590   71.8550  224.8350 N   0  0  0  0  0  0  0  0  0  0  0  0
  139.4710   73.9040  223.2030 H   0  0  0  0  0  0  0  0  0  0  0  0
  140.3931   73.3671  220.3371 H   0  0  0  0  0  0  0  0  0  0  0  0
  139.0052   74.4461  220.7689 H   0  0  0  0  0  0  0  0  0  0  0  0
  140.6026   77.6798  219.5155 H   0  0  0  0  0  0  0  0  0  0  0  0
  141.7945   77.6911  220.8655 H   0  0  0  0  0  0  0  0  0  0  0  0
  142.7307   78.7507  218.8208 H   0  0  0  0  0  0  0  0  0  0  0  0
  143.6433   77.3044  219.2369 H   0  0  0  0  0  0  0  0  0  0  0  0
  141.1528   77.2186  217.3913 H   0  0  0  0  0  0  0  0  0  0  0  0
  142.7696   77.4600  216.7240 H   0  0  0  0  0  0  0  0  0  0  0  0
  142.0726   75.0450  216.8441 H   0  0  0  0  0  0  0  0  0  0  0  0
  143.5705   75.4485  217.8368 H   0  0  0  0  0  0  0  0  0  0  0  0
  140.9375   74.4717  218.6180 H   0  0  0  0  0  0  0  0  0  0  0  0
  141.7294   72.2224  218.6860 H   0  0  0  0  0  0  0  0  0  0  0  0
  145.3208   71.1629  220.7569 H   0  0  0  0  0  0  0  0  0  0  0  0
  144.2012   75.2947  220.3257 H   0  0  0  0  0  0  0  0  0  0  0  0
  139.2468   69.6460  222.6843 H   0  0  0  0  0  0  0  0  0  0  0  0
  139.0653   68.3820  224.8405 H   0  0  0  0  0  0  0  0  0  0  0  0
  139.4235   68.2322  227.1781 H   0  0  0  0  0  0  0  0  0  0  0  0
  140.2853   69.2559  229.2790 H   0  0  0  0  0  0  0  0  0  0  0  0
  141.3106   71.4960  229.2704 H   0  0  0  0  0  0  0  0  0  0  0  0
  141.5078   72.7721  227.1485 H   0  0  0  0  0  0  0  0  0  0  0  0
  1  2  2  0
  2  3  1  0
  3  4  1  0
  4  5  1  0
  5  6  2  0
  5  7  1  0
  7  8  1  0
  8  9  1  0
  9 10  1  0
 10 11  1  0
 11 12  1  0
 12 13  1  0
 13 14  2  0
 14 15  1  0
 15 16  1  0
 15 17  2  0
 17 18  1  0
 18 19  1  0
 18 20  2  0
  2 21  1  0
 21 22  2  0
 22 23  1  0
 23 24  2  0
 24 25  1  0
 25 26  2  0
 26 27  1  0
 27 28  2  0
 28 29  1  0
 29 30  2  0
 12  7  1  0
 20 13  1  0
 30 21  1  0
 29 24  1  0
  3 31  1  0
  4 32  1  0
  4 33  1  0
  8 34  1  0
  8 35  1  0
  9 36  1  0
  9 37  1  0
 10 38  1  0
 10 39  1  0
 11 40  1  0
 11 41  1  0
 12 42  1  6
 14 43  1  0
 17 44  1  0
 20 45  1  0
 22 46  1  0
 23 47  1  0
 25 48  1  0
 26 49  1  0
 27 50  1  0
 28 51  1  0
M  END
>  <smiles>  (63) 
O=C(NCC(=O)N1CCCCC1c1cc(Cl)cc(Cl)c1)c1ccc2ccccc2n1

>  <score_type>  (63) 
oracle

>  <origin>  (63) 
autodockgpu

>  <m_score__min__energy>  (63) 
-9.4399999999999995

>  <m_primary>  (63) 
energy

>  <rmsd>  (63) 
2.2539097181722783

>  <m_score__min__rmsd>  (63) 
2.2539097181722783

>  <meeko>  (63) 
{"free_energy": -8.92, "intermolecular_energy": -10.42, "internal_energy": -2.19, "cluster_size": 22, "cluster_id": 2, "rank_in_cluster": 14}

>  <energy>  (63) 
-8.97

>  <cluster_rmsd>  (63) 
0.16

>  <cluster>  (63) 
2

$$$$

     RDKit          3D

 51 54  0  0  0  0  0  0  0  0999 V2000
  138.9270   75.2440  221.6650 O   0  0  0  0  0  0  0  0  0  0  0  0
  140.0480   75.7510  221.9280 C   0  0  0  0  0  0  0  0  0  0  0  0
  141.1940   74.8980  221.7670 N   0  0  0  0  0  0  0  0  0  0  0  0
  140.9520   73.5510  221.3210 C   0  0  0  0  0  0  0  0  0  0  0  0
  141.7970   73.2100  220.1320 C   0  0  0  0  0  0  0  0  0  0  0  0
  141.1820   72.9560  219.0640 O   0  0  0  0  0  0  0  0  0  0  0  0
  143.2160   73.1840  220.2420 N   0  0  0  0  0  0  0  0  0  0  0  0
  143.9080   71.9160  220.1250 C   0  0  0  0  0  0  0  0  0  0  0  0
  145.3240   72.1390  219.6620 C   0  0  0  0  0  0  0  0  0  0  0  0
  145.9490   73.0180  220.7540 C   0  0  0  0  0  0  0  0  0  0  0  0
  145.3610   74.3910  220.5420 C   0  0  0  0  0  0  0  0  0  0  0  0
  143.8830   74.4440  220.4700 C   0  0  1  0  0  0  0  0  0  0  0  0
  143.4980   75.4770  219.4660 C   0  0  0  0  0  0  0  0  0  0  0  0
  142.9180   76.6790  219.8180 C   0  0  0  0  0  0  0  0  0  0  0  0
  142.5570   77.6450  218.9100 C   0  0  0  0  0  0  0  0  0  0  0  0
  141.8190   79.1680  219.3890 Cl  0  0  0  0  0  0  0  0  0  0  0  0
  142.7750   77.4290  217.5620 C   0  0  0  0  0  0  0  0  0  0  0  0
  143.3580   76.2310  217.1600 C   0  0  0  0  0  0  0  0  0  0  0  0
  143.6340   75.9610  215.4360 Cl  0  0  0  0  0  0  0  0  0  0  0  0
  143.7090   75.2810  218.1000 C   0  0  0  0  0  0  0  0  0  0  0  0
  140.2210   77.1290  222.3770 C   0  0  0  0  0  0  0  0  0  0  0  0
  139.0600   77.8440  222.6490 C   0  0  0  0  0  0  0  0  0  0  0  0
  139.2250   79.1470  223.0740 C   0  0  0  0  0  0  0  0  0  0  0  0
  140.4890   79.6820  223.2090 C   0  0  0  0  0  0  0  0  0  0  0  0
  140.6200   80.9860  223.6330 C   0  0  0  0  0  0  0  0  0  0  0  0
  141.8990   81.5090  223.7650 C   0  0  0  0  0  0  0  0  0  0  0  0
  143.0190   80.7540  223.4800 C   0  0  0  0  0  0  0  0  0  0  0  0
  142.8890   79.4570  223.0560 C   0  0  0  0  0  0  0  0  0  0  0  0
  141.6160   78.9400  222.9270 C   0  0  0  0  0  0  0  0  0  0  0  0
  141.4420   77.6720  222.5150 N   0  0  0  0  0  0  0  0  0  0  0  0
  142.1660   75.2690  221.9730 H   0  0  0  0  0  0  0  0  0  0  0  0
  141.1879   72.8550  222.1395 H   0  0  0  0  0  0  0  0  0  0  0  0
  139.8944   73.4668  221.0303 H   0  0  0  0  0  0  0  0  0  0  0  0
  143.9202   71.4165  221.1050 H   0  0  0  0  0  0  0  0  0  0  0  0
  143.3842   71.2868  219.3903 H   0  0  0  0  0  0  0  0  0  0  0  0
  145.8610   71.1827  219.5774 H   0  0  0  0  0  0  0  0  0  0  0  0
  145.3711   72.6082  218.6682 H   0  0  0  0  0  0  0  0  0  0  0  0
  145.6882   72.6367  221.7523 H   0  0  0  0  0  0  0  0  0  0  0  0
  147.0474   73.0278  220.6950 H   0  0  0  0  0  0  0  0  0  0  0  0
  145.6834   75.0310  221.3766 H   0  0  0  0  0  0  0  0  0  0  0  0
  145.7249   74.7286  219.5604 H   0  0  0  0  0  0  0  0  0  0  0  0
  143.5266   74.7205  221.4733 H   0  0  0  0  0  0  0  0  0  0  0  0
  142.7346   76.8745  220.8848 H   0  0  0  0  0  0  0  0  0  0  0  0
  142.4926   78.1906  216.8203 H   0  0  0  0  0  0  0  0  0  0  0  0
  144.1690   74.3409  217.7614 H   0  0  0  0  0  0  0  0  0  0  0  0
  138.0626   77.3951  222.5317 H   0  0  0  0  0  0  0  0  0  0  0  0
  138.3432   79.7622  223.3064 H   0  0  0  0  0  0  0  0  0  0  0  0
  139.7342   81.5970  223.8610 H   0  0  0  0  0  0  0  0  0  0  0  0
  142.0228   82.5480  224.1042 H   0  0  0  0  0  0  0  0  0  0  0  0
  144.0202   81.1952  223.5937 H   0  0  0  0  0  0  0  0  0  0  0  0
  143.7740   78.8458  222.8252 H   0  0  0  0  0  0  0  0  0  0  0  0
  1  2  2  0
  2  3  1  0
  3  4  1  0
  4  5  1  0
  5  6  2  0
  5  7  1  0
  7  8  1  0
  8  9  1  0
  9 10  1  0
 10 11  1  0
 11 12  1  0
 12 13  1  0
 13 14  2  0
 14 15  1  0
 15 16  1  0
 15 17  2  0
 17 18  1  0
 18 19  1  0
 18 20  2  0
  2 21  1  0
 21 22  2  0
 22 23  1  0
 23 24  2  0
 24 25  1  0
 25 26  2  0
 26 27  1  0
 27 28  2  0
 28 29  1  0
 29 30  2  0
 12  7  1  0
 20 13  1  0
 30 21  1  0
 29 24  1  0
  3 31  1  0
  4 32  1  0
  4 33  1  0
  8 34  1  0
  8 35  1  0
  9 36  1  0
  9 37  1  0
 10 38  1  0
 10 39  1  0
 11 40  1  0
 11 41  1  0
 12 42  1  1
 14 43  1  0
 17 44  1  0
 20 45  1  0
 22 46  1  0
 23 47  1  0
 25 48  1  0
 26 49  1  0
 27 50  1  0
 28 51  1  0
M  END
>  <smiles>  (64) 
O=C(NCC(=O)N1CCCCC1c1cc(Cl)cc(Cl)c1)c1ccc2ccccc2n1

>  <score_type>  (64) 
oracle

>  <origin>  (64) 
autodockgpu

>  <m_score__min__energy>  (64) 
-9.4399999999999995

>  <m_primary>  (64) 
energy

>  <rmsd>  (64) 
7.706475296133755

>  <m_score__min__rmsd>  (64) 
7.706475296133755

>  <meeko>  (64) 
{"free_energy": -8.5, "intermolecular_energy": -9.99, "internal_energy": -2.74, "cluster_size": 19, "cluster_id": 3, "rank_in_cluster": 7}

>  <energy>  (64) 
-8.97

>  <cluster_rmsd>  (64) 
0.15

>  <cluster>  (64) 
2

$$$$

     RDKit          3D

 51 54  0  0  0  0  0  0  0  0999 V2000
  138.9380   75.2280  221.7370 O   0  0  0  0  0  0  0  0  0  0  0  0
  140.0570   75.7640  221.9420 C   0  0  0  0  0  0  0  0  0  0  0  0
  141.2140   74.9350  221.7440 N   0  0  0  0  0  0  0  0  0  0  0  0
  140.9850   73.5750  221.3310 C   0  0  0  0  0  0  0  0  0  0  0  0
  141.8370   73.2120  220.1540 C   0  0  0  0  0  0  0  0  0  0  0  0
  141.2280   72.9170  219.0930 O   0  0  0  0  0  0  0  0  0  0  0  0
  143.2560   73.2110  220.2670 N   0  0  0  0  0  0  0  0  0  0  0  0
  143.9690   71.9520  220.1740 C   0  0  0  0  0  0  0  0  0  0  0  0
  145.3820   72.1890  219.7100 C   0  0  0  0  0  0  0  0  0  0  0  0
  145.9900   73.0980  220.7870 C   0  0  0  0  0  0  0  0  0  0  0  0
  145.3810   74.4570  220.5480 C   0  0  0  0  0  0  0  0  0  0  0  0
  143.9020   74.4850  220.4720 C   0  0  1  0  0  0  0  0  0  0  0  0
  143.5030   75.4930  219.4490 C   0  0  0  0  0  0  0  0  0  0  0  0
  143.6910   75.2960  218.0950 C   0  0  0  0  0  0  0  0  0  0  0  0
  143.3310   76.2100  217.1350 C   0  0  0  0  0  0  0  0  0  0  0  0
  143.5820   75.9300  215.4180 Cl  0  0  0  0  0  0  0  0  0  0  0  0
  142.7460   77.4030  217.5160 C   0  0  0  0  0  0  0  0  0  0  0  0
  142.5360   77.6450  218.8710 C   0  0  0  0  0  0  0  0  0  0  0  0
  141.7870   79.1730  219.3510 Cl  0  0  0  0  0  0  0  0  0  0  0  0
  142.9110   76.7040  219.8100 C   0  0  0  0  0  0  0  0  0  0  0  0
  140.2170   77.1530  222.3610 C   0  0  0  0  0  0  0  0  0  0  0  0
  139.0490   77.8790  222.5660 C   0  0  0  0  0  0  0  0  0  0  0  0
  139.2030   79.1920  222.9630 C   0  0  0  0  0  0  0  0  0  0  0  0
  140.4620   79.7270  223.1360 C   0  0  0  0  0  0  0  0  0  0  0  0
  140.5820   81.0410  223.5310 C   0  0  0  0  0  0  0  0  0  0  0  0
  141.8570   81.5630  223.7010 C   0  0  0  0  0  0  0  0  0  0  0  0
  142.9830   80.7970  223.4820 C   0  0  0  0  0  0  0  0  0  0  0  0
  142.8660   79.4890  223.0880 C   0  0  0  0  0  0  0  0  0  0  0  0
  141.5970   78.9740  222.9210 C   0  0  0  0  0  0  0  0  0  0  0  0
  141.4340   77.6950  222.5350 N   0  0  0  0  0  0  0  0  0  0  0  0
  142.1860   75.3300  221.9020 H   0  0  0  0  0  0  0  0  0  0  0  0
  141.2239   72.9016  222.1674 H   0  0  0  0  0  0  0  0  0  0  0  0
  139.9292   73.4743  221.0391 H   0  0  0  0  0  0  0  0  0  0  0  0
  143.9870   71.4704  221.1628 H   0  0  0  0  0  0  0  0  0  0  0  0
  143.4570   71.3016  219.4495 H   0  0  0  0  0  0  0  0  0  0  0  0
  145.9345   71.2401  219.6443 H   0  0  0  0  0  0  0  0  0  0  0  0
  145.4241   72.6403  218.7077 H   0  0  0  0  0  0  0  0  0  0  0  0
  145.7325   72.7312  221.7916 H   0  0  0  0  0  0  0  0  0  0  0  0
  147.0882   73.1241  220.7306 H   0  0  0  0  0  0  0  0  0  0  0  0
  145.6913   75.1176  221.3710 H   0  0  0  0  0  0  0  0  0  0  0  0
  145.7418   74.7819  219.5610 H   0  0  0  0  0  0  0  0  0  0  0  0
  143.5386   74.7744  221.4691 H   0  0  0  0  0  0  0  0  0  0  0  0
  144.1551   74.3542  217.7670 H   0  0  0  0  0  0  0  0  0  0  0  0
  142.4516   78.1480  216.7621 H   0  0  0  0  0  0  0  0  0  0  0  0
  142.7376   76.9158  220.8754 H   0  0  0  0  0  0  0  0  0  0  0  0
  138.0551   77.4309  222.4196 H   0  0  0  0  0  0  0  0  0  0  0  0
  138.3151   79.8160  223.1426 H   0  0  0  0  0  0  0  0  0  0  0  0
  139.6905   81.6608  223.7072 H   0  0  0  0  0  0  0  0  0  0  0  0
  141.9719   82.6103  224.0172 H   0  0  0  0  0  0  0  0  0  0  0  0
  143.9806   81.2381  223.6243 H   0  0  0  0  0  0  0  0  0  0  0  0
  143.7570   78.8689  222.9104 H   0  0  0  0  0  0  0  0  0  0  0  0
  1  2  2  0
  2  3  1  0
  3  4  1  0
  4  5  1  0
  5  6  2  0
  5  7  1  0
  7  8  1  0
  8  9  1  0
  9 10  1  0
 10 11  1  0
 11 12  1  0
 12 13  1  0
 13 14  2  0
 14 15  1  0
 15 16  1  0
 15 17  2  0
 17 18  1  0
 18 19  1  0
 18 20  2  0
  2 21  1  0
 21 22  2  0
 22 23  1  0
 23 24  2  0
 24 25  1  0
 25 26  2  0
 26 27  1  0
 27 28  2  0
 28 29  1  0
 29 30  2  0
 12  7  1  0
 20 13  1  0
 30 21  1  0
 29 24  1  0
  3 31  1  0
  4 32  1  0
  4 33  1  0
  8 34  1  0
  8 35  1  0
  9 36  1  0
  9 37  1  0
 10 38  1  0
 10 39  1  0
 11 40  1  0
 11 41  1  0
 12 42  1  1
 14 43  1  0
 17 44  1  0
 20 45  1  0
 22 46  1  0
 23 47  1  0
 25 48  1  0
 26 49  1  0
 27 50  1  0
 28 51  1  0
M  END
>  <smiles>  (65) 
O=C(NCC(=O)N1CCCCC1c1cc(Cl)cc(Cl)c1)c1ccc2ccccc2n1

>  <score_type>  (65) 
oracle

>  <origin>  (65) 
autodockgpu

>  <m_score__min__energy>  (65) 
-9.4399999999999995

>  <m_primary>  (65) 
energy

>  <rmsd>  (65) 
7.738604991898026

>  <m_score__min__rmsd>  (65) 
7.738604991898026

>  <meeko>  (65) 
{"free_energy": -8.49, "intermolecular_energy": -9.98, "internal_energy": -2.73, "cluster_size": 19, "cluster_id": 3, "rank_in_cluster": 12}

>  <energy>  (65) 
-8.96

>  <cluster_rmsd>  (65) 
0.13

>  <cluster>  (65) 
2

$$$$

     RDKit          3D

 51 54  0  0  0  0  0  0  0  0999 V2000
  138.9260   75.1820  221.8220 O   0  0  0  0  0  0  0  0  0  0  0  0
  140.0480   75.7380  221.9410 C   0  0  0  0  0  0  0  0  0  0  0  0
  141.2000   74.9320  221.6410 N   0  0  0  0  0  0  0  0  0  0  0  0
  140.9620   73.5720  221.2330 C   0  0  0  0  0  0  0  0  0  0  0  0
  141.8460   73.1840  220.0870 C   0  0  0  0  0  0  0  0  0  0  0  0
  141.2650   72.8570  219.0200 O   0  0  0  0  0  0  0  0  0  0  0  0
  143.2620   73.1980  220.2340 N   0  0  0  0  0  0  0  0  0  0  0  0
  143.9900   71.9470  220.1480 C   0  0  0  0  0  0  0  0  0  0  0  0
  145.4110   72.2040  219.7190 C   0  0  0  0  0  0  0  0  0  0  0  0
  145.9840   73.1100  220.8180 C   0  0  0  0  0  0  0  0  0  0  0  0
  145.3660   74.4640  220.5760 C   0  0  0  0  0  0  0  0  0  0  0  0
  143.8890   74.4770  220.4650 C   0  0  1  0  0  0  0  0  0  0  0  0
  143.5040   75.4890  219.4410 C   0  0  0  0  0  0  0  0  0  0  0  0
  142.9210   76.6980  219.7690 C   0  0  0  0  0  0  0  0  0  0  0  0
  142.5590   77.6450  218.8420 C   0  0  0  0  0  0  0  0  0  0  0  0
  141.8200   79.1750  219.2910 Cl  0  0  0  0  0  0  0  0  0  0  0  0
  142.7790   77.4020  217.4990 C   0  0  0  0  0  0  0  0  0  0  0  0
  143.3640   76.1970  217.1210 C   0  0  0  0  0  0  0  0  0  0  0  0
  143.6410   75.8940  215.4020 Cl  0  0  0  0  0  0  0  0  0  0  0  0
  143.7150   75.2670  218.0800 C   0  0  0  0  0  0  0  0  0  0  0  0
  140.2170   77.1250  222.3610 C   0  0  0  0  0  0  0  0  0  0  0  0
  139.0530   77.8450  222.6070 C   0  0  0  0  0  0  0  0  0  0  0  0
  139.2150   79.1570  223.0040 C   0  0  0  0  0  0  0  0  0  0  0  0
  140.4770   79.6960  223.1380 C   0  0  0  0  0  0  0  0  0  0  0  0
  140.6050   81.0100  223.5350 C   0  0  0  0  0  0  0  0  0  0  0  0
  141.8830   81.5360  223.6660 C   0  0  0  0  0  0  0  0  0  0  0  0
  143.0040   80.7750  223.4060 C   0  0  0  0  0  0  0  0  0  0  0  0
  142.8790   79.4690  223.0110 C   0  0  0  0  0  0  0  0  0  0  0  0
  141.6070   78.9490  222.8830 C   0  0  0  0  0  0  0  0  0  0  0  0
  141.4370   77.6710  222.4970 N   0  0  0  0  0  0  0  0  0  0  0  0
  142.1740   75.3440  221.7230 H   0  0  0  0  0  0  0  0  0  0  0  0
  141.1626   72.9028  222.0827 H   0  0  0  0  0  0  0  0  0  0  0  0
  139.9147   73.4856  220.9079 H   0  0  0  0  0  0  0  0  0  0  0  0
  143.9901   71.4576  221.1331 H   0  0  0  0  0  0  0  0  0  0  0  0
  143.5021   71.2965  219.4072 H   0  0  0  0  0  0  0  0  0  0  0  0
  145.9755   71.2619  219.6577 H   0  0  0  0  0  0  0  0  0  0  0  0
  145.4710   72.6650  218.7221 H   0  0  0  0  0  0  0  0  0  0  0  0
  145.7070   72.7318  221.8131 H   0  0  0  0  0  0  0  0  0  0  0  0
  147.0829   73.1483  220.7879 H   0  0  0  0  0  0  0  0  0  0  0  0
  145.6494   75.1208  221.4117 H   0  0  0  0  0  0  0  0  0  0  0  0
  145.7465   74.8011  219.6005 H   0  0  0  0  0  0  0  0  0  0  0  0
  143.4988   74.7541  221.4554 H   0  0  0  0  0  0  0  0  0  0  0  0
  142.7365   76.9143  220.8316 H   0  0  0  0  0  0  0  0  0  0  0  0
  142.4965   78.1484  216.7419 H   0  0  0  0  0  0  0  0  0  0  0  0
  144.1758   74.3207  217.7603 H   0  0  0  0  0  0  0  0  0  0  0  0
  138.0567   77.3932  222.4914 H   0  0  0  0  0  0  0  0  0  0  0  0
  138.3311   79.7769  223.2150 H   0  0  0  0  0  0  0  0  0  0  0  0
  139.7174   81.6257  223.7426 H   0  0  0  0  0  0  0  0  0  0  0  0
  142.0045   82.5820  223.9839 H   0  0  0  0  0  0  0  0  0  0  0  0
  144.0041   81.2194  223.5165 H   0  0  0  0  0  0  0  0  0  0  0  0
  143.7662   78.8532  222.8021 H   0  0  0  0  0  0  0  0  0  0  0  0
  1  2  2  0
  2  3  1  0
  3  4  1  0
  4  5  1  0
  5  6  2  0
  5  7  1  0
  7  8  1  0
  8  9  1  0
  9 10  1  0
 10 11  1  0
 11 12  1  0
 12 13  1  0
 13 14  2  0
 14 15  1  0
 15 16  1  0
 15 17  2  0
 17 18  1  0
 18 19  1  0
 18 20  2  0
  2 21  1  0
 21 22  2  0
 22 23  1  0
 23 24  2  0
 24 25  1  0
 25 26  2  0
 26 27  1  0
 27 28  2  0
 28 29  1  0
 29 30  2  0
 12  7  1  0
 20 13  1  0
 30 21  1  0
 29 24  1  0
  3 31  1  0
  4 32  1  0
  4 33  1  0
  8 34  1  0
  8 35  1  0
  9 36  1  0
  9 37  1  0
 10 38  1  0
 10 39  1  0
 11 40  1  0
 11 41  1  0
 12 42  1  1
 14 43  1  0
 17 44  1  0
 20 45  1  0
 22 46  1  0
 23 47  1  0
 25 48  1  0
 26 49  1  0
 27 50  1  0
 28 51  1  0
M  END
>  <smiles>  (66) 
O=C(NCC(=O)N1CCCCC1c1cc(Cl)cc(Cl)c1)c1ccc2ccccc2n1

>  <score_type>  (66) 
oracle

>  <origin>  (66) 
autodockgpu

>  <m_score__min__energy>  (66) 
-9.4399999999999995

>  <m_primary>  (66) 
energy

>  <rmsd>  (66) 
7.731629586510794

>  <m_score__min__rmsd>  (66) 
7.731629586510794

>  <meeko>  (66) 
{"free_energy": -8.49, "intermolecular_energy": -9.98, "internal_energy": -2.68, "cluster_size": 19, "cluster_id": 3, "rank_in_cluster": 14}

>  <energy>  (66) 
-8.95

>  <cluster_rmsd>  (66) 
0.18

>  <cluster>  (66) 
2

$$$$

     RDKit          3D

 51 54  0  0  0  0  0  0  0  0999 V2000
  138.9200   75.2190  221.6940 O   0  0  0  0  0  0  0  0  0  0  0  0
  140.0450   75.7310  221.9280 C   0  0  0  0  0  0  0  0  0  0  0  0
  141.1920   74.8890  221.7200 N   0  0  0  0  0  0  0  0  0  0  0  0
  140.9460   73.5460  221.2650 C   0  0  0  0  0  0  0  0  0  0  0  0
  141.8200   73.1960  220.0990 C   0  0  0  0  0  0  0  0  0  0  0  0
  141.2310   72.9100  219.0250 O   0  0  0  0  0  0  0  0  0  0  0  0
  143.2370   73.1980  220.2370 N   0  0  0  0  0  0  0  0  0  0  0  0
  143.9550   71.9430  220.1380 C   0  0  0  0  0  0  0  0  0  0  0  0
  145.3750   72.1920  219.7020 C   0  0  0  0  0  0  0  0  0  0  0  0
  145.9620   73.0860  220.8030 C   0  0  0  0  0  0  0  0  0  0  0  0
  145.3520   74.4460  220.5740 C   0  0  0  0  0  0  0  0  0  0  0  0
  143.8750   74.4710  220.4730 C   0  0  1  0  0  0  0  0  0  0  0  0
  143.4900   75.4930  219.4580 C   0  0  0  0  0  0  0  0  0  0  0  0
  142.9140   76.7010  219.7980 C   0  0  0  0  0  0  0  0  0  0  0  0
  142.5530   77.6570  218.8800 C   0  0  0  0  0  0  0  0  0  0  0  0
  141.8200   79.1870  219.3430 Cl  0  0  0  0  0  0  0  0  0  0  0  0
  142.7670   77.4250  217.5340 C   0  0  0  0  0  0  0  0  0  0  0  0
  143.3460   76.2210  217.1440 C   0  0  0  0  0  0  0  0  0  0  0  0
  143.6170   75.9300  215.4220 Cl  0  0  0  0  0  0  0  0  0  0  0  0
  143.6970   75.2810  218.0940 C   0  0  0  0  0  0  0  0  0  0  0  0
  140.2220   77.1040  222.3880 C   0  0  0  0  0  0  0  0  0  0  0  0
  139.0630   77.8210  222.6640 C   0  0  0  0  0  0  0  0  0  0  0  0
  139.2320   79.1200  223.1000 C   0  0  0  0  0  0  0  0  0  0  0  0
  140.4980   79.6500  223.2420 C   0  0  0  0  0  0  0  0  0  0  0  0
  140.6330   80.9500  223.6780 C   0  0  0  0  0  0  0  0  0  0  0  0
  141.9140   81.4670  223.8170 C   0  0  0  0  0  0  0  0  0  0  0  0
  143.0310   80.7100  223.5280 C   0  0  0  0  0  0  0  0  0  0  0  0
  142.8970   79.4170  223.0930 C   0  0  0  0  0  0  0  0  0  0  0  0
  141.6230   78.9060  222.9570 C   0  0  0  0  0  0  0  0  0  0  0  0
  141.4450   77.6410  222.5340 N   0  0  0  0  0  0  0  0  0  0  0  0
  142.1670   75.2650  221.9000 H   0  0  0  0  0  0  0  0  0  0  0  0
  141.1503   72.8459  222.0885 H   0  0  0  0  0  0  0  0  0  0  0  0
  139.8960   73.4754  220.9447 H   0  0  0  0  0  0  0  0  0  0  0  0
  143.9576   71.4469  221.1198 H   0  0  0  0  0  0  0  0  0  0  0  0
  143.4578   71.3014  219.3957 H   0  0  0  0  0  0  0  0  0  0  0  0
  145.9318   71.2460  219.6308 H   0  0  0  0  0  0  0  0  0  0  0  0
  145.4322   72.6594  218.7079 H   0  0  0  0  0  0  0  0  0  0  0  0
  145.6890   72.7031  221.7974 H   0  0  0  0  0  0  0  0  0  0  0  0
  147.0610   73.1164  220.7660 H   0  0  0  0  0  0  0  0  0  0  0  0
  145.6458   75.0951  221.4120 H   0  0  0  0  0  0  0  0  0  0  0  0
  145.7282   74.7864  219.5980 H   0  0  0  0  0  0  0  0  0  0  0  0
  143.4939   74.7446  221.4679 H   0  0  0  0  0  0  0  0  0  0  0  0
  142.7343   76.9093  220.8630 H   0  0  0  0  0  0  0  0  0  0  0  0
  142.4846   78.1789  216.7844 H   0  0  0  0  0  0  0  0  0  0  0  0
  144.1539   74.3360  217.7650 H   0  0  0  0  0  0  0  0  0  0  0  0
  138.0642   77.3767  222.5414 H   0  0  0  0  0  0  0  0  0  0  0  0
  138.3519   79.7363  223.3357 H   0  0  0  0  0  0  0  0  0  0  0  0
  139.7490   81.5622  223.9099 H   0  0  0  0  0  0  0  0  0  0  0  0
  142.0413   82.5027  224.1651 H   0  0  0  0  0  0  0  0  0  0  0  0
  144.0337   81.1462  223.6473 H   0  0  0  0  0  0  0  0  0  0  0  0
  143.7802   78.8044  222.8591 H   0  0  0  0  0  0  0  0  0  0  0  0
  1  2  2  0
  2  3  1  0
  3  4  1  0
  4  5  1  0
  5  6  2  0
  5  7  1  0
  7  8  1  0
  8  9  1  0
  9 10  1  0
 10 11  1  0
 11 12  1  0
 12 13  1  0
 13 14  2  0
 14 15  1  0
 15 16  1  0
 15 17  2  0
 17 18  1  0
 18 19  1  0
 18 20  2  0
  2 21  1  0
 21 22  2  0
 22 23  1  0
 23 24  2  0
 24 25  1  0
 25 26  2  0
 26 27  1  0
 27 28  2  0
 28 29  1  0
 29 30  2  0
 12  7  1  0
 20 13  1  0
 30 21  1  0
 29 24  1  0
  3 31  1  0
  4 32  1  0
  4 33  1  0
  8 34  1  0
  8 35  1  0
  9 36  1  0
  9 37  1  0
 10 38  1  0
 10 39  1  0
 11 40  1  0
 11 41  1  0
 12 42  1  1
 14 43  1  0
 17 44  1  0
 20 45  1  0
 22 46  1  0
 23 47  1  0
 25 48  1  0
 26 49  1  0
 27 50  1  0
 28 51  1  0
M  END
>  <smiles>  (67) 
O=C(NCC(=O)N1CCCCC1c1cc(Cl)cc(Cl)c1)c1ccc2ccccc2n1

>  <score_type>  (67) 
oracle

>  <origin>  (67) 
autodockgpu

>  <m_score__min__energy>  (67) 
-9.4399999999999995

>  <m_primary>  (67) 
energy

>  <rmsd>  (67) 
7.686219644454966

>  <m_score__min__rmsd>  (67) 
7.686219644454966

>  <meeko>  (67) 
{"free_energy": -8.51, "intermolecular_energy": -10.0, "internal_energy": -2.72, "cluster_size": 19, "cluster_id": 3, "rank_in_cluster": 1}

>  <energy>  (67) 
-8.94

>  <cluster_rmsd>  (67) 
0.18

>  <cluster>  (67) 
2

$$$$

     RDKit          3D

 51 54  0  0  0  0  0  0  0  0999 V2000
  140.7140   71.4900  221.3480 O   0  0  0  0  0  0  0  0  0  0  0  0
  140.3030   72.0160  222.4140 C   0  0  0  0  0  0  0  0  0  0  0  0
  139.9190   73.3990  222.3450 N   0  0  0  0  0  0  0  0  0  0  0  0
  140.0390   74.0500  221.0660 C   0  0  0  0  0  0  0  0  0  0  0  0
  140.8710   75.2930  221.1630 C   0  0  0  0  0  0  0  0  0  0  0  0
  141.0460   75.7590  222.3190 O   0  0  0  0  0  0  0  0  0  0  0  0
  141.4180   75.8850  219.9900 N   0  0  0  0  0  0  0  0  0  0  0  0
  141.5160   77.3290  219.9120 C   0  0  0  0  0  0  0  0  0  0  0  0
  142.6130   77.7230  218.9580 C   0  0  0  0  0  0  0  0  0  0  0  0
  142.1850   77.1180  217.6130 C   0  0  0  0  0  0  0  0  0  0  0  0
  142.4420   75.6380  217.7460 C   0  0  0  0  0  0  0  0  0  0  0  0
  141.8430   74.9940  218.9380 C   0  0  1  0  0  0  0  0  0  0  0  0
  142.7830   73.9460  219.4290 C   0  0  0  0  0  0  0  0  0  0  0  0
  142.5530   72.5960  219.2540 C   0  0  0  0  0  0  0  0  0  0  0  0
  143.4060   71.6150  219.6960 C   0  0  0  0  0  0  0  0  0  0  0  0
  143.0850   69.9030  219.4580 Cl  0  0  0  0  0  0  0  0  0  0  0  0
  144.5670   71.9690  220.3580 C   0  0  0  0  0  0  0  0  0  0  0  0
  144.8410   73.3190  220.5570 C   0  0  0  0  0  0  0  0  0  0  0  0
  146.3280   73.7640  221.4030 Cl  0  0  0  0  0  0  0  0  0  0  0  0
  143.9610   74.2800  220.0980 C   0  0  0  0  0  0  0  0  0  0  0  0
  140.2060   71.2940  223.6790 C   0  0  0  0  0  0  0  0  0  0  0  0
  139.6110   70.0390  223.6340 C   0  0  0  0  0  0  0  0  0  0  0  0
  139.5200   69.3580  224.8310 C   0  0  0  0  0  0  0  0  0  0  0  0
  140.0020   69.9220  225.9940 C   0  0  0  0  0  0  0  0  0  0  0  0
  139.8950   69.2170  227.1730 C   0  0  0  0  0  0  0  0  0  0  0  0
  140.3870   69.7990  228.3330 C   0  0  0  0  0  0  0  0  0  0  0  0
  140.9680   71.0500  228.3210 C   0  0  0  0  0  0  0  0  0  0  0  0
  141.0740   71.7530  227.1490 C   0  0  0  0  0  0  0  0  0  0  0  0
  140.5850   71.1710  225.9970 C   0  0  0  0  0  0  0  0  0  0  0  0
  140.6680   71.8250  224.8240 N   0  0  0  0  0  0  0  0  0  0  0  0
  139.5640   73.8980  223.2110 H   0  0  0  0  0  0  0  0  0  0  0  0
  140.5117   73.3571  220.3543 H   0  0  0  0  0  0  0  0  0  0  0  0
  139.0322   74.3322  220.7244 H   0  0  0  0  0  0  0  0  0  0  0  0
  140.5596   77.7398  219.5562 H   0  0  0  0  0  0  0  0  0  0  0  0
  141.7469   77.7285  220.9106 H   0  0  0  0  0  0  0  0  0  0  0  0
  142.6909   78.8178  218.8852 H   0  0  0  0  0  0  0  0  0  0  0  0
  143.6007   77.3646  219.2837 H   0  0  0  0  0  0  0  0  0  0  0  0
  141.1180   77.3090  217.4261 H   0  0  0  0  0  0  0  0  0  0  0  0
  142.7381   77.5574  216.7698 H   0  0  0  0  0  0  0  0  0  0  0  0
  142.0365   75.1414  216.8521 H   0  0  0  0  0  0  0  0  0  0  0  0
  143.5309   75.5281  217.8569 H   0  0  0  0  0  0  0  0  0  0  0  0
  140.8929   74.5455  218.6122 H   0  0  0  0  0  0  0  0  0  0  0  0
  141.6351   72.2891  218.7313 H   0  0  0  0  0  0  0  0  0  0  0  0
  145.2619   71.1974  220.7210 H   0  0  0  0  0  0  0  0  0  0  0  0
  144.1963   75.3415  220.2652 H   0  0  0  0  0  0  0  0  0  0  0  0
  139.2325   69.6110  222.6940 H   0  0  0  0  0  0  0  0  0  0  0  0
  139.0602   68.3591  224.8578 H   0  0  0  0  0  0  0  0  0  0  0  0
  139.4320   68.2194  227.1943 H   0  0  0  0  0  0  0  0  0  0  0  0
  140.3119   69.2503  229.2834 H   0  0  0  0  0  0  0  0  0  0  0  0
  141.3482   71.4857  229.2567 H   0  0  0  0  0  0  0  0  0  0  0  0
  141.5351   72.7514  227.1273 H   0  0  0  0  0  0  0  0  0  0  0  0
  1  2  2  0
  2  3  1  0
  3  4  1  0
  4  5  1  0
  5  6  2  0
  5  7  1  0
  7  8  1  0
  8  9  1  0
  9 10  1  0
 10 11  1  0
 11 12  1  0
 12 13  1  0
 13 14  2  0
 14 15  1  0
 15 16  1  0
 15 17  2  0
 17 18  1  0
 18 19  1  0
 18 20  2  0
  2 21  1  0
 21 22  2  0
 22 23  1  0
 23 24  2  0
 24 25  1  0
 25 26  2  0
 26 27  1  0
 27 28  2  0
 28 29  1  0
 29 30  2  0
 12  7  1  0
 20 13  1  0
 30 21  1  0
 29 24  1  0
  3 31  1  0
  4 32  1  0
  4 33  1  0
  8 34  1  0
  8 35  1  0
  9 36  1  0
  9 37  1  0
 10 38  1  0
 10 39  1  0
 11 40  1  0
 11 41  1  0
 12 42  1  6
 14 43  1  0
 17 44  1  0
 20 45  1  0
 22 46  1  0
 23 47  1  0
 25 48  1  0
 26 49  1  0
 27 50  1  0
 28 51  1  0
M  END
>  <smiles>  (68) 
O=C(NCC(=O)N1CCCCC1c1cc(Cl)cc(Cl)c1)c1ccc2ccccc2n1

>  <score_type>  (68) 
oracle

>  <origin>  (68) 
autodockgpu

>  <m_score__min__energy>  (68) 
-9.4399999999999995

>  <m_primary>  (68) 
energy

>  <rmsd>  (68) 
2.246661133088048

>  <m_score__min__rmsd>  (68) 
2.246661133088048

>  <meeko>  (68) 
{"free_energy": -8.97, "intermolecular_energy": -10.46, "internal_energy": -2.22, "cluster_size": 22, "cluster_id": 2, "rank_in_cluster": 7}

>  <energy>  (68) 
-8.94

>  <cluster_rmsd>  (68) 
0.08

>  <cluster>  (68) 
2

$$$$

     RDKit          3D

 51 54  0  0  0  0  0  0  0  0999 V2000
  140.7920   71.5400  221.3720 O   0  0  0  0  0  0  0  0  0  0  0  0
  140.3410   72.0600  222.4250 C   0  0  0  0  0  0  0  0  0  0  0  0
  139.9360   73.4370  222.3400 N   0  0  0  0  0  0  0  0  0  0  0  0
  140.0830   74.0870  221.0640 C   0  0  0  0  0  0  0  0  0  0  0  0
  141.0340   75.2420  221.1460 C   0  0  0  0  0  0  0  0  0  0  0  0
  141.2780   75.6820  222.2990 O   0  0  0  0  0  0  0  0  0  0  0  0
  141.6100   75.7850  219.9630 N   0  0  0  0  0  0  0  0  0  0  0  0
  141.7780   77.2210  219.8580 C   0  0  0  0  0  0  0  0  0  0  0  0
  142.8940   77.5420  218.8990 C   0  0  0  0  0  0  0  0  0  0  0  0
  142.4400   76.9330  217.5650 C   0  0  0  0  0  0  0  0  0  0  0  0
  142.6250   75.4450  217.7270 C   0  0  0  0  0  0  0  0  0  0  0  0
  141.9930   74.8540  218.9290 C   0  0  1  0  0  0  0  0  0  0  0  0
  142.8820   73.7720  219.4430 C   0  0  0  0  0  0  0  0  0  0  0  0
  144.0250   74.0300  220.1720 C   0  0  0  0  0  0  0  0  0  0  0  0
  144.8570   73.0490  220.6560 C   0  0  0  0  0  0  0  0  0  0  0  0
  146.3070   73.4090  221.5820 Cl  0  0  0  0  0  0  0  0  0  0  0  0
  144.5580   71.7220  220.4130 C   0  0  0  0  0  0  0  0  0  0  0  0
  143.4140   71.4140  219.6820 C   0  0  0  0  0  0  0  0  0  0  0  0
  143.0380   69.7140  219.3760 Cl  0  0  0  0  0  0  0  0  0  0  0  0
  142.6000   72.4250  219.2110 C   0  0  0  0  0  0  0  0  0  0  0  0
  140.2190   71.3410  223.6880 C   0  0  0  0  0  0  0  0  0  0  0  0
  139.6020   70.0960  223.6360 C   0  0  0  0  0  0  0  0  0  0  0  0
  139.4880   69.4160  224.8320 C   0  0  0  0  0  0  0  0  0  0  0  0
  139.9680   69.9710  226.0000 C   0  0  0  0  0  0  0  0  0  0  0  0
  139.8380   69.2670  227.1770 C   0  0  0  0  0  0  0  0  0  0  0  0
  140.3280   69.8400  228.3430 C   0  0  0  0  0  0  0  0  0  0  0  0
  140.9310   71.0810  228.3370 C   0  0  0  0  0  0  0  0  0  0  0  0
  141.0610   71.7820  227.1660 C   0  0  0  0  0  0  0  0  0  0  0  0
  140.5740   71.2100  226.0090 C   0  0  0  0  0  0  0  0  0  0  0  0
  140.6790   71.8620  224.8380 N   0  0  0  0  0  0  0  0  0  0  0  0
  139.5470   73.9310  223.1940 H   0  0  0  0  0  0  0  0  0  0  0  0
  140.4658   73.3592  220.3334 H   0  0  0  0  0  0  0  0  0  0  0  0
  139.0991   74.4695  220.7546 H   0  0  0  0  0  0  0  0  0  0  0  0
  140.8432   77.6710  219.4924 H   0  0  0  0  0  0  0  0  0  0  0  0
  142.0264   77.6282  220.8492 H   0  0  0  0  0  0  0  0  0  0  0  0
  143.0254   78.6301  218.8052 H   0  0  0  0  0  0  0  0  0  0  0  0
  143.8622   77.1416  219.2341 H   0  0  0  0  0  0  0  0  0  0  0  0
  141.3838   77.1717  217.3715 H   0  0  0  0  0  0  0  0  0  0  0  0
  143.0152   77.3289  216.7151 H   0  0  0  0  0  0  0  0  0  0  0  0
  142.1980   74.9514  216.8415 H   0  0  0  0  0  0  0  0  0  0  0  0
  143.7070   75.2847  217.8434 H   0  0  0  0  0  0  0  0  0  0  0  0
  141.0229   74.4456  218.6094 H   0  0  0  0  0  0  0  0  0  0  0  0
  144.2846   75.0791  220.3771 H   0  0  0  0  0  0  0  0  0  0  0  0
  145.2127   70.9228  220.7906 H   0  0  0  0  0  0  0  0  0  0  0  0
  141.7011   72.1604  218.6348 H   0  0  0  0  0  0  0  0  0  0  0  0
  139.2248   69.6753  222.6922 H   0  0  0  0  0  0  0  0  0  0  0  0
  139.0112   68.4249  224.8537 H   0  0  0  0  0  0  0  0  0  0  0  0
  139.3587   68.2771  227.1927 H   0  0  0  0  0  0  0  0  0  0  0  0
  140.2334   69.2925  229.2924 H   0  0  0  0  0  0  0  0  0  0  0  0
  141.3093   71.5101  229.2765 H   0  0  0  0  0  0  0  0  0  0  0  0
  141.5399   72.7721  227.1495 H   0  0  0  0  0  0  0  0  0  0  0  0
  1  2  2  0
  2  3  1  0
  3  4  1  0
  4  5  1  0
  5  6  2  0
  5  7  1  0
  7  8  1  0
  8  9  1  0
  9 10  1  0
 10 11  1  0
 11 12  1  0
 12 13  1  0
 13 14  2  0
 14 15  1  0
 15 16  1  0
 15 17  2  0
 17 18  1  0
 18 19  1  0
 18 20  2  0
  2 21  1  0
 21 22  2  0
 22 23  1  0
 23 24  2  0
 24 25  1  0
 25 26  2  0
 26 27  1  0
 27 28  2  0
 28 29  1  0
 29 30  2  0
 12  7  1  0
 20 13  1  0
 30 21  1  0
 29 24  1  0
  3 31  1  0
  4 32  1  0
  4 33  1  0
  8 34  1  0
  8 35  1  0
  9 36  1  0
  9 37  1  0
 10 38  1  0
 10 39  1  0
 11 40  1  0
 11 41  1  0
 12 42  1  6
 14 43  1  0
 17 44  1  0
 20 45  1  0
 22 46  1  0
 23 47  1  0
 25 48  1  0
 26 49  1  0
 27 50  1  0
 28 51  1  0
M  END
>  <smiles>  (69) 
O=C(NCC(=O)N1CCCCC1c1cc(Cl)cc(Cl)c1)c1ccc2ccccc2n1

>  <score_type>  (69) 
oracle

>  <origin>  (69) 
autodockgpu

>  <m_score__min__energy>  (69) 
-9.4399999999999995

>  <m_primary>  (69) 
energy

>  <rmsd>  (69) 
2.324710737064166

>  <m_score__min__rmsd>  (69) 
2.324710737064166

>  <meeko>  (69) 
{"free_energy": -8.93, "intermolecular_energy": -10.42, "internal_energy": -2.2, "cluster_size": 22, "cluster_id": 2, "rank_in_cluster": 12}

>  <energy>  (69) 
-8.93

>  <cluster_rmsd>  (69) 
0.2

>  <cluster>  (69) 
2

$$$$

     RDKit          3D

 51 54  0  0  0  0  0  0  0  0999 V2000
  140.7280   77.0230  218.3220 O   0  0  0  0  0  0  0  0  0  0  0  0
  141.9190   76.9730  218.7230 C   0  0  0  0  0  0  0  0  0  0  0  0
  142.5700   78.2320  218.9650 N   0  0  0  0  0  0  0  0  0  0  0  0
  141.8000   79.4250  218.7260 C   0  0  0  0  0  0  0  0  0  0  0  0
  140.8590   79.7030  219.8580 C   0  0  0  0  0  0  0  0  0  0  0  0
  139.6330   79.7090  219.5760 O   0  0  0  0  0  0  0  0  0  0  0  0
  141.3620   79.9420  221.1690 N   0  0  0  0  0  0  0  0  0  0  0  0
  141.4060   81.3020  221.6680 C   0  0  0  0  0  0  0  0  0  0  0  0
  141.3640   81.3030  223.1730 C   0  0  0  0  0  0  0  0  0  0  0  0
  142.6130   80.5140  223.5900 C   0  0  0  0  0  0  0  0  0  0  0  0
  142.2850   79.0710  223.2980 C   0  0  0  0  0  0  0  0  0  0  0  0
  141.8030   78.7950  221.9250 C   0  0  1  0  0  0  0  0  0  0  0  0
  140.7630   77.7300  221.9970 C   0  0  0  0  0  0  0  0  0  0  0  0
  139.4390   77.9990  222.2820 C   0  0  0  0  0  0  0  0  0  0  0  0
  138.4640   77.0340  222.3530 C   0  0  0  0  0  0  0  0  0  0  0  0
  136.7850   77.4080  222.7180 Cl  0  0  0  0  0  0  0  0  0  0  0  0
  138.7980   75.7110  222.1310 C   0  0  0  0  0  0  0  0  0  0  0  0
  140.1210   75.3920  221.8400 C   0  0  0  0  0  0  0  0  0  0  0  0
  140.5400   73.6990  221.5570 Cl  0  0  0  0  0  0  0  0  0  0  0  0
  141.0760   76.3880  221.7770 C   0  0  0  0  0  0  0  0  0  0  0  0
  142.6410   75.7250  218.9450 C   0  0  0  0  0  0  0  0  0  0  0  0
  142.1440   74.5970  218.3010 C   0  0  0  0  0  0  0  0  0  0  0  0
  142.8280   73.4170  218.5110 C   0  0  0  0  0  0  0  0  0  0  0  0
  143.9410   73.3900  219.3250 C   0  0  0  0  0  0  0  0  0  0  0  0
  144.6010   72.1960  219.5160 C   0  0  0  0  0  0  0  0  0  0  0  0
  145.7200   72.1880  220.3370 C   0  0  0  0  0  0  0  0  0  0  0  0
  146.1700   73.3370  220.9530 C   0  0  0  0  0  0  0  0  0  0  0  0
  145.5140   74.5260  220.7640 C   0  0  0  0  0  0  0  0  0  0  0  0
  144.4020   74.5310  219.9470 C   0  0  0  0  0  0  0  0  0  0  0  0
  143.7270   75.6750  219.7340 N   0  0  0  0  0  0  0  0  0  0  0  0
  143.5740   78.2560  219.3040 H   0  0  0  0  0  0  0  0  0  0  0  0
  142.4861   80.2774  218.6131 H   0  0  0  0  0  0  0  0  0  0  0  0
  141.2075   79.2776  217.8110 H   0  0  0  0  0  0  0  0  0  0  0  0
  142.3353   81.7837  221.3297 H   0  0  0  0  0  0  0  0  0  0  0  0
  140.5362   81.8547  221.2834 H   0  0  0  0  0  0  0  0  0  0  0  0
  141.4046   82.3308  223.5629 H   0  0  0  0  0  0  0  0  0  0  0  0
  140.4373   80.8603  223.5670 H   0  0  0  0  0  0  0  0  0  0  0  0
  143.4866   80.8371  223.0047 H   0  0  0  0  0  0  0  0  0  0  0  0
  142.8647   80.6722  224.6491 H   0  0  0  0  0  0  0  0  0  0  0  0
  143.1949   78.4756  223.4645 H   0  0  0  0  0  0  0  0  0  0  0  0
  141.4550   78.8066  223.9698 H   0  0  0  0  0  0  0  0  0  0  0  0
  142.6732   78.4527  221.3458 H   0  0  0  0  0  0  0  0  0  0  0  0
  139.1488   79.0446  222.4623 H   0  0  0  0  0  0  0  0  0  0  0  0
  138.0313   74.9240  222.1835 H   0  0  0  0  0  0  0  0  0  0  0  0
  142.1162   76.1147  221.5461 H   0  0  0  0  0  0  0  0  0  0  0  0
  141.2526   74.6430  217.6581 H   0  0  0  0  0  0  0  0  0  0  0  0
  142.4832   72.4919  218.0260 H   0  0  0  0  0  0  0  0  0  0  0  0
  144.2504   71.2732  219.0306 H   0  0  0  0  0  0  0  0  0  0  0  0
  146.2603   71.2438  220.5001 H   0  0  0  0  0  0  0  0  0  0  0  0
  147.0595   73.2993  221.5990 H   0  0  0  0  0  0  0  0  0  0  0  0
  145.8639   75.4490  221.2495 H   0  0  0  0  0  0  0  0  0  0  0  0
  1  2  2  0
  2  3  1  0
  3  4  1  0
  4  5  1  0
  5  6  2  0
  5  7  1  0
  7  8  1  0
  8  9  1  0
  9 10  1  0
 10 11  1  0
 11 12  1  0
 12 13  1  0
 13 14  2  0
 14 15  1  0
 15 16  1  0
 15 17  2  0
 17 18  1  0
 18 19  1  0
 18 20  2  0
  2 21  1  0
 21 22  2  0
 22 23  1  0
 23 24  2  0
 24 25  1  0
 25 26  2  0
 26 27  1  0
 27 28  2  0
 28 29  1  0
 29 30  2  0
 12  7  1  0
 20 13  1  0
 30 21  1  0
 29 24  1  0
  3 31  1  0
  4 32  1  0
  4 33  1  0
  8 34  1  0
  8 35  1  0
  9 36  1  0
  9 37  1  0
 10 38  1  0
 10 39  1  0
 11 40  1  0
 11 41  1  0
 12 42  1  6
 14 43  1  0
 17 44  1  0
 20 45  1  0
 22 46  1  0
 23 47  1  0
 25 48  1  0
 26 49  1  0
 27 50  1  0
 28 51  1  0
M  END
>  <smiles>  (70) 
O=C(NCC(=O)N1CCCCC1c1cc(Cl)cc(Cl)c1)c1ccc2ccccc2n1

>  <score_type>  (70) 
oracle

>  <origin>  (70) 
autodockgpu

>  <m_score__min__energy>  (70) 
-9.4399999999999995

>  <m_primary>  (70) 
energy

>  <rmsd>  (70) 
7.552086251383513

>  <m_score__min__rmsd>  (70) 
7.552086251383513

>  <meeko>  (70) 
{"free_energy": -7.78, "intermolecular_energy": -9.27, "internal_energy": -2.92, "cluster_size": 2, "cluster_id": 4, "rank_in_cluster": 2}

>  <energy>  (70) 
-8.93

>  <cluster_rmsd>  (70) 
0.09

>  <cluster>  (70) 
2

$$$$

     RDKit          3D

 51 54  0  0  0  0  0  0  0  0999 V2000
  140.7330   71.4700  221.3510 O   0  0  0  0  0  0  0  0  0  0  0  0
  140.3170   72.0050  222.4100 C   0  0  0  0  0  0  0  0  0  0  0  0
  139.9470   73.3920  222.3280 N   0  0  0  0  0  0  0  0  0  0  0  0
  140.0850   74.0340  221.0480 C   0  0  0  0  0  0  0  0  0  0  0  0
  140.8440   75.3210  221.1620 C   0  0  0  0  0  0  0  0  0  0  0  0
  140.9400   75.8120  222.3160 O   0  0  0  0  0  0  0  0  0  0  0  0
  141.4100   75.9260  220.0050 N   0  0  0  0  0  0  0  0  0  0  0  0
  141.5050   77.3710  219.9420 C   0  0  0  0  0  0  0  0  0  0  0  0
  142.6190   77.7770  219.0120 C   0  0  0  0  0  0  0  0  0  0  0  0
  142.2190   77.1840  217.6540 C   0  0  0  0  0  0  0  0  0  0  0  0
  142.4770   75.7030  217.7780 C   0  0  0  0  0  0  0  0  0  0  0  0
  141.8580   75.0460  218.9520 C   0  0  1  0  0  0  0  0  0  0  0  0
  142.7920   73.9970  219.4510 C   0  0  0  0  0  0  0  0  0  0  0  0
  143.9640   74.2980  220.1170 C   0  0  0  0  0  0  0  0  0  0  0  0
  144.8390   73.3480  220.5860 C   0  0  0  0  0  0  0  0  0  0  0  0
  146.3230   73.7620  221.4310 Cl  0  0  0  0  0  0  0  0  0  0  0  0
  144.5560   72.0080  220.3940 C   0  0  0  0  0  0  0  0  0  0  0  0
  143.3860   71.6570  219.7280 C   0  0  0  0  0  0  0  0  0  0  0  0
  143.0310   69.9430  219.4870 Cl  0  0  0  0  0  0  0  0  0  0  0  0
  142.5280   72.6390  219.2690 C   0  0  0  0  0  0  0  0  0  0  0  0
  140.2020   71.2930  223.6780 C   0  0  0  0  0  0  0  0  0  0  0  0
  139.5870   70.0470  223.6370 C   0  0  0  0  0  0  0  0  0  0  0  0
  139.4790   69.3740  224.8370 C   0  0  0  0  0  0  0  0  0  0  0  0
  139.9640   69.9370  226.0000 C   0  0  0  0  0  0  0  0  0  0  0  0
  139.8400   69.2400  227.1820 C   0  0  0  0  0  0  0  0  0  0  0  0
  140.3350   69.8210  228.3420 C   0  0  0  0  0  0  0  0  0  0  0  0
  140.9360   71.0620  228.3260 C   0  0  0  0  0  0  0  0  0  0  0  0
  141.0590   71.7560  227.1500 C   0  0  0  0  0  0  0  0  0  0  0  0
  140.5670   71.1760  225.9990 C   0  0  0  0  0  0  0  0  0  0  0  0
  140.6670   71.8220  224.8230 N   0  0  0  0  0  0  0  0  0  0  0  0
  139.5890   73.8990  223.1890 H   0  0  0  0  0  0  0  0  0  0  0  0
  140.6235   73.3600  220.3655 H   0  0  0  0  0  0  0  0  0  0  0  0
  139.0795   74.2576  220.6621 H   0  0  0  0  0  0  0  0  0  0  0  0
  140.5542   77.7823  219.5721 H   0  0  0  0  0  0  0  0  0  0  0  0
  141.7158   77.7620  220.9483 H   0  0  0  0  0  0  0  0  0  0  0  0
  142.6950   78.8727  218.9509 H   0  0  0  0  0  0  0  0  0  0  0  0
  143.6012   77.4179  219.3530 H   0  0  0  0  0  0  0  0  0  0  0  0
  141.1553   77.3744  217.4482 H   0  0  0  0  0  0  0  0  0  0  0  0
  142.7874   77.6325  216.8259 H   0  0  0  0  0  0  0  0  0  0  0  0
  142.0894   75.2141  216.8721 H   0  0  0  0  0  0  0  0  0  0  0  0
  143.5639   75.5948  217.9085 H   0  0  0  0  0  0  0  0  0  0  0  0
  140.9159   74.5976  218.6037 H   0  0  0  0  0  0  0  0  0  0  0  0
  144.2107   75.3573  220.2811 H   0  0  0  0  0  0  0  0  0  0  0  0
  145.2443   71.2328  220.7616 H   0  0  0  0  0  0  0  0  0  0  0  0
  141.6086   72.3405  218.7440 H   0  0  0  0  0  0  0  0  0  0  0  0
  139.2064   69.6199  222.6974 H   0  0  0  0  0  0  0  0  0  0  0  0
  139.0034   68.3826  224.8667 H   0  0  0  0  0  0  0  0  0  0  0  0
  139.3616   68.2497  227.2061 H   0  0  0  0  0  0  0  0  0  0  0  0
  140.2457   69.2791  229.2951 H   0  0  0  0  0  0  0  0  0  0  0  0
  141.3185   71.4971  229.2611 H   0  0  0  0  0  0  0  0  0  0  0  0
  141.5363   72.7468  227.1249 H   0  0  0  0  0  0  0  0  0  0  0  0
  1  2  2  0
  2  3  1  0
  3  4  1  0
  4  5  1  0
  5  6  2  0
  5  7  1  0
  7  8  1  0
  8  9  1  0
  9 10  1  0
 10 11  1  0
 11 12  1  0
 12 13  1  0
 13 14  2  0
 14 15  1  0
 15 16  1  0
 15 17  2  0
 17 18  1  0
 18 19  1  0
 18 20  2  0
  2 21  1  0
 21 22  2  0
 22 23  1  0
 23 24  2  0
 24 25  1  0
 25 26  2  0
 26 27  1  0
 27 28  2  0
 28 29  1  0
 29 30  2  0
 12  7  1  0
 20 13  1  0
 30 21  1  0
 29 24  1  0
  3 31  1  0
  4 32  1  0
  4 33  1  0
  8 34  1  0
  8 35  1  0
  9 36  1  0
  9 37  1  0
 10 38  1  0
 10 39  1  0
 11 40  1  0
 11 41  1  0
 12 42  1  6
 14 43  1  0
 17 44  1  0
 20 45  1  0
 22 46  1  0
 23 47  1  0
 25 48  1  0
 26 49  1  0
 27 50  1  0
 28 51  1  0
M  END
>  <smiles>  (71) 
O=C(NCC(=O)N1CCCCC1c1cc(Cl)cc(Cl)c1)c1ccc2ccccc2n1

>  <score_type>  (71) 
oracle

>  <origin>  (71) 
autodockgpu

>  <m_score__min__energy>  (71) 
-9.4399999999999995

>  <m_primary>  (71) 
energy

>  <rmsd>  (71) 
2.2589280275247234

>  <m_score__min__rmsd>  (71) 
2.2589280275247234

>  <meeko>  (71) 
{"free_energy": -8.97, "intermolecular_energy": -10.46, "internal_energy": -2.22, "cluster_size": 22, "cluster_id": 2, "rank_in_cluster": 6}

>  <energy>  (71) 
-8.92

>  <cluster_rmsd>  (71) 
0.12

>  <cluster>  (71) 
2

$$$$

     RDKit          3D

 51 54  0  0  0  0  0  0  0  0999 V2000
  138.9030   75.3310  221.5970 O   0  0  0  0  0  0  0  0  0  0  0  0
  140.0260   75.8090  221.8990 C   0  0  0  0  0  0  0  0  0  0  0  0
  141.1570   74.9330  221.7570 N   0  0  0  0  0  0  0  0  0  0  0  0
  140.8990   73.5980  221.2840 C   0  0  0  0  0  0  0  0  0  0  0  0
  141.7530   73.2640  220.0990 C   0  0  0  0  0  0  0  0  0  0  0  0
  141.1450   73.0290  219.0230 O   0  0  0  0  0  0  0  0  0  0  0  0
  143.1700   73.2250  220.2220 N   0  0  0  0  0  0  0  0  0  0  0  0
  143.8500   71.9490  220.1210 C   0  0  0  0  0  0  0  0  0  0  0  0
  145.2720   72.1540  219.6690 C   0  0  0  0  0  0  0  0  0  0  0  0
  145.8960   73.0350  220.7600 C   0  0  0  0  0  0  0  0  0  0  0  0
  145.3250   74.4120  220.5310 C   0  0  0  0  0  0  0  0  0  0  0  0
  143.8480   74.4800  220.4450 C   0  0  1  0  0  0  0  0  0  0  0  0
  143.4830   75.5080  219.4300 C   0  0  0  0  0  0  0  0  0  0  0  0
  143.6980   75.3300  218.0780 C   0  0  0  0  0  0  0  0  0  0  0  0
  143.3690   76.2640  217.1250 C   0  0  0  0  0  0  0  0  0  0  0  0
  143.6560   76.0080  215.4090 Cl  0  0  0  0  0  0  0  0  0  0  0  0
  142.7890   77.4570  217.5120 C   0  0  0  0  0  0  0  0  0  0  0  0
  142.5520   77.6810  218.8650 C   0  0  0  0  0  0  0  0  0  0  0  0
  141.8100   79.2080  219.3540 Cl  0  0  0  0  0  0  0  0  0  0  0  0
  142.8960   76.7200  219.7970 C   0  0  0  0  0  0  0  0  0  0  0  0
  140.2160   77.1750  222.3730 C   0  0  0  0  0  0  0  0  0  0  0  0
  139.0660   77.8890  222.6870 C   0  0  0  0  0  0  0  0  0  0  0  0
  139.2470   79.1820  223.1360 C   0  0  0  0  0  0  0  0  0  0  0  0
  140.5170   79.7090  223.2540 C   0  0  0  0  0  0  0  0  0  0  0  0
  140.6640   81.0030  223.7030 C   0  0  0  0  0  0  0  0  0  0  0  0
  141.9490   81.5160  223.8170 C   0  0  0  0  0  0  0  0  0  0  0  0
  143.0570   80.7630  223.4900 C   0  0  0  0  0  0  0  0  0  0  0  0
  142.9110   79.4760  223.0410 C   0  0  0  0  0  0  0  0  0  0  0  0
  141.6340   78.9680  222.9310 C   0  0  0  0  0  0  0  0  0  0  0  0
  141.4430   77.7090  222.4950 N   0  0  0  0  0  0  0  0  0  0  0  0
  142.1310   75.2780  221.9970 H   0  0  0  0  0  0  0  0  0  0  0  0
  141.1137   72.8839  222.0927 H   0  0  0  0  0  0  0  0  0  0  0  0
  139.8439   73.5363  220.9791 H   0  0  0  0  0  0  0  0  0  0  0  0
  143.8484   71.4571  221.1049 H   0  0  0  0  0  0  0  0  0  0  0  0
  143.3263   71.3194  219.3866 H   0  0  0  0  0  0  0  0  0  0  0  0
  145.8000   71.1917  219.5965 H   0  0  0  0  0  0  0  0  0  0  0  0
  145.3328   72.6149  218.6721 H   0  0  0  0  0  0  0  0  0  0  0  0
  145.6214   72.6647  221.7587 H   0  0  0  0  0  0  0  0  0  0  0  0
  146.9949   73.0324  220.7119 H   0  0  0  0  0  0  0  0  0  0  0  0
  145.6467   75.0556  221.3630 H   0  0  0  0  0  0  0  0  0  0  0  0
  145.7014   74.7374  219.5500 H   0  0  0  0  0  0  0  0  0  0  0  0
  143.4854   74.7690  221.4425 H   0  0  0  0  0  0  0  0  0  0  0  0
  144.1583   74.3881  217.7449 H   0  0  0  0  0  0  0  0  0  0  0  0
  142.5192   78.2166  216.7635 H   0  0  0  0  0  0  0  0  0  0  0  0
  142.7010   76.9166  220.8616 H   0  0  0  0  0  0  0  0  0  0  0  0
  138.0640   77.4472  222.5833 H   0  0  0  0  0  0  0  0  0  0  0  0
  138.3736   79.7958  223.4013 H   0  0  0  0  0  0  0  0  0  0  0  0
  139.7869   81.6133  223.9642 H   0  0  0  0  0  0  0  0  0  0  0  0
  142.0864   82.5465  224.1763 H   0  0  0  0  0  0  0  0  0  0  0  0
  144.0628   81.1971  223.5899 H   0  0  0  0  0  0  0  0  0  0  0  0
  143.7874   78.8662  222.7761 H   0  0  0  0  0  0  0  0  0  0  0  0
  1  2  2  0
  2  3  1  0
  3  4  1  0
  4  5  1  0
  5  6  2  0
  5  7  1  0
  7  8  1  0
  8  9  1  0
  9 10  1  0
 10 11  1  0
 11 12  1  0
 12 13  1  0
 13 14  2  0
 14 15  1  0
 15 16  1  0
 15 17  2  0
 17 18  1  0
 18 19  1  0
 18 20  2  0
  2 21  1  0
 21 22  2  0
 22 23  1  0
 23 24  2  0
 24 25  1  0
 25 26  2  0
 26 27  1  0
 27 28  2  0
 28 29  1  0
 29 30  2  0
 12  7  1  0
 20 13  1  0
 30 21  1  0
 29 24  1  0
  3 31  1  0
  4 32  1  0
  4 33  1  0
  8 34  1  0
  8 35  1  0
  9 36  1  0
  9 37  1  0
 10 38  1  0
 10 39  1  0
 11 40  1  0
 11 41  1  0
 12 42  1  1
 14 43  1  0
 17 44  1  0
 20 45  1  0
 22 46  1  0
 23 47  1  0
 25 48  1  0
 26 49  1  0
 27 50  1  0
 28 51  1  0
M  END
>  <smiles>  (72) 
O=C(NCC(=O)N1CCCCC1c1cc(Cl)cc(Cl)c1)c1ccc2ccccc2n1

>  <score_type>  (72) 
oracle

>  <origin>  (72) 
autodockgpu

>  <m_score__min__energy>  (72) 
-9.4399999999999995

>  <m_primary>  (72) 
energy

>  <rmsd>  (72) 
7.704364250153976

>  <m_score__min__rmsd>  (72) 
7.704364250153976

>  <meeko>  (72) 
{"free_energy": -8.47, "intermolecular_energy": -9.96, "internal_energy": -2.73, "cluster_size": 19, "cluster_id": 3, "rank_in_cluster": 17}

>  <energy>  (72) 
-8.92

>  <cluster_rmsd>  (72) 
0.15

>  <cluster>  (72) 
2

$$$$

     RDKit          3D

 51 54  0  0  0  0  0  0  0  0999 V2000
  140.7270   71.5290  221.3470 O   0  0  0  0  0  0  0  0  0  0  0  0
  140.3100   72.0620  222.4070 C   0  0  0  0  0  0  0  0  0  0  0  0
  139.9300   73.4470  222.3250 N   0  0  0  0  0  0  0  0  0  0  0  0
  140.0610   74.0890  221.0440 C   0  0  0  0  0  0  0  0  0  0  0  0
  140.7290   75.4240  221.1680 C   0  0  0  0  0  0  0  0  0  0  0  0
  140.9740   75.8190  222.3380 O   0  0  0  0  0  0  0  0  0  0  0  0
  141.0520   76.1780  220.0050 N   0  0  0  0  0  0  0  0  0  0  0  0
  140.5210   75.7560  218.7240 C   0  0  0  0  0  0  0  0  0  0  0  0
  140.4410   76.9310  217.7850 C   0  0  0  0  0  0  0  0  0  0  0  0
  141.8910   77.4170  217.6560 C   0  0  0  0  0  0  0  0  0  0  0  0
  142.1920   78.1140  218.9580 C   0  0  0  0  0  0  0  0  0  0  0  0
  141.9040   77.3290  220.1810 C   0  0  1  0  0  0  0  0  0  0  0  0
  141.3900   78.2590  221.2260 C   0  0  0  0  0  0  0  0  0  0  0  0
  140.0440   78.4070  221.4960 C   0  0  0  0  0  0  0  0  0  0  0  0
  139.5490   79.2570  222.4550 C   0  0  0  0  0  0  0  0  0  0  0  0
  137.8280   79.4230  222.7760 Cl  0  0  0  0  0  0  0  0  0  0  0  0
  140.4230   80.0180  223.2080 C   0  0  0  0  0  0  0  0  0  0  0  0
  141.7900   79.9020  222.9710 C   0  0  0  0  0  0  0  0  0  0  0  0
  142.9020   80.8790  223.9370 Cl  0  0  0  0  0  0  0  0  0  0  0  0
  142.2540   79.0380  221.9980 C   0  0  0  0  0  0  0  0  0  0  0  0
  140.2030   71.3500  223.6760 C   0  0  0  0  0  0  0  0  0  0  0  0
  139.5970   70.0990  223.6370 C   0  0  0  0  0  0  0  0  0  0  0  0
  139.4960   69.4270  224.8380 C   0  0  0  0  0  0  0  0  0  0  0  0
  139.9790   69.9940  225.9990 C   0  0  0  0  0  0  0  0  0  0  0  0
  139.8620   69.2980  227.1820 C   0  0  0  0  0  0  0  0  0  0  0  0
  140.3540   69.8830  228.3410 C   0  0  0  0  0  0  0  0  0  0  0  0
  140.9450   71.1290  228.3230 C   0  0  0  0  0  0  0  0  0  0  0  0
  141.0610   71.8230  227.1460 C   0  0  0  0  0  0  0  0  0  0  0  0
  140.5720   71.2390  225.9960 C   0  0  0  0  0  0  0  0  0  0  0  0
  140.6650   71.8840  224.8200 N   0  0  0  0  0  0  0  0  0  0  0  0
  139.5710   73.9520  223.1860 H   0  0  0  0  0  0  0  0  0  0  0  0
  140.6620   73.4481  220.3822 H   0  0  0  0  0  0  0  0  0  0  0  0
  139.0540   74.2428  220.6290 H   0  0  0  0  0  0  0  0  0  0  0  0
  141.1802   74.9889  218.2917 H   0  0  0  0  0  0  0  0  0  0  0  0
  139.5122   75.3427  218.8707 H   0  0  0  0  0  0  0  0  0  0  0  0
  140.0461   76.6208  216.8063 H   0  0  0  0  0  0  0  0  0  0  0  0
  139.7668   77.7176  218.1547 H   0  0  0  0  0  0  0  0  0  0  0  0
  142.5714   76.5654  217.5081 H   0  0  0  0  0  0  0  0  0  0  0  0
  142.0254   78.0844  216.7920 H   0  0  0  0  0  0  0  0  0  0  0  0
  143.2611   78.3729  218.9650 H   0  0  0  0  0  0  0  0  0  0  0  0
  141.5249   78.9879  218.9950 H   0  0  0  0  0  0  0  0  0  0  0  0
  142.8537   76.8726  220.4967 H   0  0  0  0  0  0  0  0  0  0  0  0
  139.3283   77.8111  220.9106 H   0  0  0  0  0  0  0  0  0  0  0  0
  140.0452   80.7033  223.9810 H   0  0  0  0  0  0  0  0  0  0  0  0
  143.3378   78.9614  221.8262 H   0  0  0  0  0  0  0  0  0  0  0  0
  139.2182   69.6680  222.6985 H   0  0  0  0  0  0  0  0  0  0  0  0
  139.0271   68.4324  224.8697 H   0  0  0  0  0  0  0  0  0  0  0  0
  139.3909   68.3043  227.2077 H   0  0  0  0  0  0  0  0  0  0  0  0
  140.2706   69.3409  229.2945 H   0  0  0  0  0  0  0  0  0  0  0  0
  141.3251   71.5681  229.2572 H   0  0  0  0  0  0  0  0  0  0  0  0
  141.5307   72.8173  227.1197 H   0  0  0  0  0  0  0  0  0  0  0  0
  1  2  2  0
  2  3  1  0
  3  4  1  0
  4  5  1  0
  5  6  2  0
  5  7  1  0
  7  8  1  0
  8  9  1  0
  9 10  1  0
 10 11  1  0
 11 12  1  0
 12 13  1  0
 13 14  2  0
 14 15  1  0
 15 16  1  0
 15 17  2  0
 17 18  1  0
 18 19  1  0
 18 20  2  0
  2 21  1  0
 21 22  2  0
 22 23  1  0
 23 24  2  0
 24 25  1  0
 25 26  2  0
 26 27  1  0
 27 28  2  0
 28 29  1  0
 29 30  2  0
 12  7  1  0
 20 13  1  0
 30 21  1  0
 29 24  1  0
  3 31  1  0
  4 32  1  0
  4 33  1  0
  8 34  1  0
  8 35  1  0
  9 36  1  0
  9 37  1  0
 10 38  1  0
 10 39  1  0
 11 40  1  0
 11 41  1  0
 12 42  1  1
 14 43  1  0
 17 44  1  0
 20 45  1  0
 22 46  1  0
 23 47  1  0
 25 48  1  0
 26 49  1  0
 27 50  1  0
 28 51  1  0
M  END
>  <smiles>  (73) 
O=C(NCC(=O)N1CCCCC1c1cc(Cl)cc(Cl)c1)c1ccc2ccccc2n1

>  <score_type>  (73) 
oracle

>  <origin>  (73) 
autodockgpu

>  <m_score__min__energy>  (73) 
-9.4399999999999995

>  <m_primary>  (73) 
energy

>  <rmsd>  (73) 
1.481745840844237

>  <m_score__min__rmsd>  (73) 
1.481745840844237

>  <meeko>  (73) 
{"free_energy": -9.43, "intermolecular_energy": -10.92, "internal_energy": -1.53, "cluster_size": 7, "cluster_id": 1, "rank_in_cluster": 2}

>  <energy>  (73) 
-8.92

>  <cluster_rmsd>  (73) 
0.23

>  <cluster>  (73) 
2

$$$$

     RDKit          3D

 51 54  0  0  0  0  0  0  0  0999 V2000
  140.9410   71.6210  221.4320 O   0  0  0  0  0  0  0  0  0  0  0  0
  140.3580   72.0830  222.4470 C   0  0  0  0  0  0  0  0  0  0  0  0
  139.8060   73.4050  222.3260 N   0  0  0  0  0  0  0  0  0  0  0  0
  139.9700   74.0720  221.0610 C   0  0  0  0  0  0  0  0  0  0  0  0
  140.9200   75.2250  221.1710 C   0  0  0  0  0  0  0  0  0  0  0  0
  141.1870   75.6180  222.3360 O   0  0  0  0  0  0  0  0  0  0  0  0
  141.4700   75.8180  219.9990 N   0  0  0  0  0  0  0  0  0  0  0  0
  141.5510   77.2620  219.9140 C   0  0  0  0  0  0  0  0  0  0  0  0
  142.6530   77.6640  218.9680 C   0  0  0  0  0  0  0  0  0  0  0  0
  142.2450   77.0460  217.6230 C   0  0  0  0  0  0  0  0  0  0  0  0
  142.5180   75.5700  217.7660 C   0  0  0  0  0  0  0  0  0  0  0  0
  141.9160   74.9250  218.9560 C   0  0  1  0  0  0  0  0  0  0  0  0
  142.8640   73.8930  219.4620 C   0  0  0  0  0  0  0  0  0  0  0  0
  144.0030   74.2110  220.1750 C   0  0  0  0  0  0  0  0  0  0  0  0
  144.8900   73.2760  220.6510 C   0  0  0  0  0  0  0  0  0  0  0  0
  146.3310   73.7130  221.5580 Cl  0  0  0  0  0  0  0  0  0  0  0  0
  144.6550   71.9340  220.4180 C   0  0  0  0  0  0  0  0  0  0  0  0
  143.5190   71.5650  219.7030 C   0  0  0  0  0  0  0  0  0  0  0  0
  143.2260   69.8480  219.4080 Cl  0  0  0  0  0  0  0  0  0  0  0  0
  142.6480   72.5320  219.2380 C   0  0  0  0  0  0  0  0  0  0  0  0
  140.2280   71.3500  223.7020 C   0  0  0  0  0  0  0  0  0  0  0  0
  139.5970   70.1130  223.6360 C   0  0  0  0  0  0  0  0  0  0  0  0
  139.4750   69.4210  224.8230 C   0  0  0  0  0  0  0  0  0  0  0  0
  139.9620   69.9560  225.9970 C   0  0  0  0  0  0  0  0  0  0  0  0
  139.8230   69.2410  227.1670 C   0  0  0  0  0  0  0  0  0  0  0  0
  140.3200   69.7940  228.3390 C   0  0  0  0  0  0  0  0  0  0  0  0
  140.9380   71.0280  228.3470 C   0  0  0  0  0  0  0  0  0  0  0  0
  141.0750   71.7410  227.1850 C   0  0  0  0  0  0  0  0  0  0  0  0
  140.5810   71.1880  226.0210 C   0  0  0  0  0  0  0  0  0  0  0  0
  140.6950   71.8530  224.8570 N   0  0  0  0  0  0  0  0  0  0  0  0
  139.3030   73.8490  223.1470 H   0  0  0  0  0  0  0  0  0  0  0  0
  140.3621   73.3539  220.3258 H   0  0  0  0  0  0  0  0  0  0  0  0
  138.9904   74.4591  220.7438 H   0  0  0  0  0  0  0  0  0  0  0  0
  140.5932   77.6591  219.5466 H   0  0  0  0  0  0  0  0  0  0  0  0
  141.7670   77.6699  220.9125 H   0  0  0  0  0  0  0  0  0  0  0  0
  142.7184   78.7592  218.8894 H   0  0  0  0  0  0  0  0  0  0  0  0
  143.6418   77.3197  219.3052 H   0  0  0  0  0  0  0  0  0  0  0  0
  141.1775   77.2233  217.4252 H   0  0  0  0  0  0  0  0  0  0  0  0
  142.8012   77.4871  216.7827 H   0  0  0  0  0  0  0  0  0  0  0  0
  142.1263   75.0641  216.8712 H   0  0  0  0  0  0  0  0  0  0  0  0
  143.6070   75.4735  217.8872 H   0  0  0  0  0  0  0  0  0  0  0  0
  140.9751   74.4617  218.6241 H   0  0  0  0  0  0  0  0  0  0  0  0
  144.2119   75.2727  220.3730 H   0  0  0  0  0  0  0  0  0  0  0  0
  145.3536   71.1707  220.7911 H   0  0  0  0  0  0  0  0  0  0  0  0
  141.7568   72.2196  218.6739 H   0  0  0  0  0  0  0  0  0  0  0  0
  139.2152   69.7075  222.6874 H   0  0  0  0  0  0  0  0  0  0  0  0
  138.9860   68.4357  224.8332 H   0  0  0  0  0  0  0  0  0  0  0  0
  139.3308   68.2573  227.1719 H   0  0  0  0  0  0  0  0  0  0  0  0
  140.2192   69.2366  229.2820 H   0  0  0  0  0  0  0  0  0  0  0  0
  141.3226   71.4413  229.2911 H   0  0  0  0  0  0  0  0  0  0  0  0
  141.5647   72.7260  227.1800 H   0  0  0  0  0  0  0  0  0  0  0  0
  1  2  2  0
  2  3  1  0
  3  4  1  0
  4  5  1  0
  5  6  2  0
  5  7  1  0
  7  8  1  0
  8  9  1  0
  9 10  1  0
 10 11  1  0
 11 12  1  0
 12 13  1  0
 13 14  2  0
 14 15  1  0
 15 16  1  0
 15 17  2  0
 17 18  1  0
 18 19  1  0
 18 20  2  0
  2 21  1  0
 21 22  2  0
 22 23  1  0
 23 24  2  0
 24 25  1  0
 25 26  2  0
 26 27  1  0
 27 28  2  0
 28 29  1  0
 29 30  2  0
 12  7  1  0
 20 13  1  0
 30 21  1  0
 29 24  1  0
  3 31  1  0
  4 32  1  0
  4 33  1  0
  8 34  1  0
  8 35  1  0
  9 36  1  0
  9 37  1  0
 10 38  1  0
 10 39  1  0
 11 40  1  0
 11 41  1  0
 12 42  1  6
 14 43  1  0
 17 44  1  0
 20 45  1  0
 22 46  1  0
 23 47  1  0
 25 48  1  0
 26 49  1  0
 27 50  1  0
 28 51  1  0
M  END
>  <smiles>  (74) 
O=C(NCC(=O)N1CCCCC1c1cc(Cl)cc(Cl)c1)c1ccc2ccccc2n1

>  <score_type>  (74) 
oracle

>  <origin>  (74) 
autodockgpu

>  <m_score__min__energy>  (74) 
-9.4399999999999995

>  <m_primary>  (74) 
energy

>  <rmsd>  (74) 
2.2607881916573134

>  <m_score__min__rmsd>  (74) 
2.2607881916573134

>  <meeko>  (74) 
{"free_energy": -8.99, "intermolecular_energy": -10.48, "internal_energy": -2.12, "cluster_size": 22, "cluster_id": 2, "rank_in_cluster": 2}

>  <energy>  (74) 
-8.92

>  <cluster_rmsd>  (74) 
0.2

>  <cluster>  (74) 
2

$$$$

     RDKit          3D

 51 54  0  0  0  0  0  0  0  0999 V2000
  140.8910   71.6420  221.4030 O   0  0  0  0  0  0  0  0  0  0  0  0
  140.3230   72.0990  222.4280 C   0  0  0  0  0  0  0  0  0  0  0  0
  139.7760   73.4250  222.3240 N   0  0  0  0  0  0  0  0  0  0  0  0
  139.9290   74.1010  221.0620 C   0  0  0  0  0  0  0  0  0  0  0  0
  140.9270   75.2140  221.1570 C   0  0  0  0  0  0  0  0  0  0  0  0
  141.2410   75.5850  222.3180 O   0  0  0  0  0  0  0  0  0  0  0  0
  141.4690   75.7970  219.9770 N   0  0  0  0  0  0  0  0  0  0  0  0
  141.5650   77.2400  219.8840 C   0  0  0  0  0  0  0  0  0  0  0  0
  142.6580   77.6260  218.9230 C   0  0  0  0  0  0  0  0  0  0  0  0
  142.2270   77.0080  217.5860 C   0  0  0  0  0  0  0  0  0  0  0  0
  142.4870   75.5290  217.7320 C   0  0  0  0  0  0  0  0  0  0  0  0
  141.8920   74.8950  218.9320 C   0  0  1  0  0  0  0  0  0  0  0  0
  142.8360   73.8550  219.4300 C   0  0  0  0  0  0  0  0  0  0  0  0
  142.6360   72.5050  219.2180 C   0  0  0  0  0  0  0  0  0  0  0  0
  143.4930   71.5290  219.6670 C   0  0  0  0  0  0  0  0  0  0  0  0
  143.2120   69.8170  219.3820 Cl  0  0  0  0  0  0  0  0  0  0  0  0
  144.6260   71.8890  220.3720 C   0  0  0  0  0  0  0  0  0  0  0  0
  144.8690   73.2390  220.6090 C   0  0  0  0  0  0  0  0  0  0  0  0
  146.3200   73.6920  221.5110 Cl  0  0  0  0  0  0  0  0  0  0  0  0
  143.9860   74.1940  220.1430 C   0  0  0  0  0  0  0  0  0  0  0  0
  140.2040   71.3570  223.6780 C   0  0  0  0  0  0  0  0  0  0  0  0
  139.5910   70.1110  223.6040 C   0  0  0  0  0  0  0  0  0  0  0  0
  139.4790   69.4090  224.7880 C   0  0  0  0  0  0  0  0  0  0  0  0
  139.9590   69.9450  225.9650 C   0  0  0  0  0  0  0  0  0  0  0  0
  139.8310   69.2200  227.1300 C   0  0  0  0  0  0  0  0  0  0  0  0
  140.3200   69.7740  228.3050 C   0  0  0  0  0  0  0  0  0  0  0  0
  140.9190   71.0160  228.3210 C   0  0  0  0  0  0  0  0  0  0  0  0
  141.0460   71.7380  227.1630 C   0  0  0  0  0  0  0  0  0  0  0  0
  140.5600   71.1850  225.9970 C   0  0  0  0  0  0  0  0  0  0  0  0
  140.6630   71.8590  224.8370 N   0  0  0  0  0  0  0  0  0  0  0  0
  139.2860   73.8650  223.1550 H   0  0  0  0  0  0  0  0  0  0  0  0
  140.2704   73.3773  220.3072 H   0  0  0  0  0  0  0  0  0  0  0  0
  138.9567   74.5304  220.7785 H   0  0  0  0  0  0  0  0  0  0  0  0
  140.6069   77.6459  219.5271 H   0  0  0  0  0  0  0  0  0  0  0  0
  141.7987   77.6496  220.8778 H   0  0  0  0  0  0  0  0  0  0  0  0
  142.7342   78.7202  218.8394 H   0  0  0  0  0  0  0  0  0  0  0  0
  143.6471   77.2719  219.2490 H   0  0  0  0  0  0  0  0  0  0  0  0
  141.1590   77.1955  217.4008 H   0  0  0  0  0  0  0  0  0  0  0  0
  142.7767   77.4403  216.7369 H   0  0  0  0  0  0  0  0  0  0  0  0
  142.0800   75.0235  216.8439 H   0  0  0  0  0  0  0  0  0  0  0  0
  143.5763   75.4218  217.8409 H   0  0  0  0  0  0  0  0  0  0  0  0
  140.9419   74.4408  218.6142 H   0  0  0  0  0  0  0  0  0  0  0  0
  141.7413   72.1938  218.6589 H   0  0  0  0  0  0  0  0  0  0  0  0
  145.3236   71.1220  220.7394 H   0  0  0  0  0  0  0  0  0  0  0  0
  144.1965   75.2554  220.3406 H   0  0  0  0  0  0  0  0  0  0  0  0
  139.2152   69.7060  222.6528 H   0  0  0  0  0  0  0  0  0  0  0  0
  139.0043   68.4167  224.7926 H   0  0  0  0  0  0  0  0  0  0  0  0
  139.3540   68.2288  227.1288 H   0  0  0  0  0  0  0  0  0  0  0  0
  140.2276   69.2096  229.2446 H   0  0  0  0  0  0  0  0  0  0  0  0
  141.2967   71.4293  229.2678 H   0  0  0  0  0  0  0  0  0  0  0  0
  141.5218   72.7298  227.1637 H   0  0  0  0  0  0  0  0  0  0  0  0
  1  2  2  0
  2  3  1  0
  3  4  1  0
  4  5  1  0
  5  6  2  0
  5  7  1  0
  7  8  1  0
  8  9  1  0
  9 10  1  0
 10 11  1  0
 11 12  1  0
 12 13  1  0
 13 14  2  0
 14 15  1  0
 15 16  1  0
 15 17  2  0
 17 18  1  0
 18 19  1  0
 18 20  2  0
  2 21  1  0
 21 22  2  0
 22 23  1  0
 23 24  2  0
 24 25  1  0
 25 26  2  0
 26 27  1  0
 27 28  2  0
 28 29  1  0
 29 30  2  0
 12  7  1  0
 20 13  1  0
 30 21  1  0
 29 24  1  0
  3 31  1  0
  4 32  1  0
  4 33  1  0
  8 34  1  0
  8 35  1  0
  9 36  1  0
  9 37  1  0
 10 38  1  0
 10 39  1  0
 11 40  1  0
 11 41  1  0
 12 42  1  6
 14 43  1  0
 17 44  1  0
 20 45  1  0
 22 46  1  0
 23 47  1  0
 25 48  1  0
 26 49  1  0
 27 50  1  0
 28 51  1  0
M  END
>  <smiles>  (75) 
O=C(NCC(=O)N1CCCCC1c1cc(Cl)cc(Cl)c1)c1ccc2ccccc2n1

>  <score_type>  (75) 
oracle

>  <origin>  (75) 
autodockgpu

>  <m_score__min__energy>  (75) 
-9.4399999999999995

>  <m_primary>  (75) 
energy

>  <rmsd>  (75) 
2.2488593627350215

>  <m_score__min__rmsd>  (75) 
2.2488593627350215

>  <meeko>  (75) 
{"free_energy": -8.93, "intermolecular_energy": -10.42, "internal_energy": -2.12, "cluster_size": 22, "cluster_id": 2, "rank_in_cluster": 13}

>  <energy>  (75) 
-8.89

>  <cluster_rmsd>  (75) 
0.22

>  <cluster>  (75) 
2

$$$$

     RDKit          3D

 51 54  0  0  0  0  0  0  0  0999 V2000
  140.7930   71.5480  221.3770 O   0  0  0  0  0  0  0  0  0  0  0  0
  140.3450   72.0710  222.4300 C   0  0  0  0  0  0  0  0  0  0  0  0
  139.9450   73.4490  222.3440 N   0  0  0  0  0  0  0  0  0  0  0  0
  140.0940   74.0980  221.0670 C   0  0  0  0  0  0  0  0  0  0  0  0
  141.0640   75.2370  221.1440 C   0  0  0  0  0  0  0  0  0  0  0  0
  141.3210   75.6750  222.2950 O   0  0  0  0  0  0  0  0  0  0  0  0
  141.6430   75.7690  219.9570 N   0  0  0  0  0  0  0  0  0  0  0  0
  141.8290   77.2020  219.8470 C   0  0  0  0  0  0  0  0  0  0  0  0
  142.9460   77.5070  218.8840 C   0  0  0  0  0  0  0  0  0  0  0  0
  142.4790   76.9000  217.5530 C   0  0  0  0  0  0  0  0  0  0  0  0
  142.6440   75.4100  217.7180 C   0  0  0  0  0  0  0  0  0  0  0  0
  142.0100   74.8300  218.9240 C   0  0  1  0  0  0  0  0  0  0  0  0
  142.8860   73.7380  219.4370 C   0  0  0  0  0  0  0  0  0  0  0  0
  142.6190   72.4020  219.2130 C   0  0  0  0  0  0  0  0  0  0  0  0
  143.4130   71.3800  219.6750 C   0  0  0  0  0  0  0  0  0  0  0  0
  143.0480   69.6870  219.3730 Cl  0  0  0  0  0  0  0  0  0  0  0  0
  144.5470   71.6760  220.4080 C   0  0  0  0  0  0  0  0  0  0  0  0
  144.8550   73.0090  220.6590 C   0  0  0  0  0  0  0  0  0  0  0  0
  146.3070   73.3810  221.5960 Cl  0  0  0  0  0  0  0  0  0  0  0  0
  144.0350   74.0130  220.1790 C   0  0  0  0  0  0  0  0  0  0  0  0
  140.2210   71.3530  223.6940 C   0  0  0  0  0  0  0  0  0  0  0  0
  139.5950   70.1130  223.6450 C   0  0  0  0  0  0  0  0  0  0  0  0
  139.4780   69.4340  224.8410 C   0  0  0  0  0  0  0  0  0  0  0  0
  139.9670   69.9860  226.0070 C   0  0  0  0  0  0  0  0  0  0  0  0
  139.8340   69.2850  227.1860 C   0  0  0  0  0  0  0  0  0  0  0  0
  140.3330   69.8540  228.3490 C   0  0  0  0  0  0  0  0  0  0  0  0
  140.9460   71.0900  228.3410 C   0  0  0  0  0  0  0  0  0  0  0  0
  141.0770   71.7890  227.1690 C   0  0  0  0  0  0  0  0  0  0  0  0
  140.5820   71.2200  226.0140 C   0  0  0  0  0  0  0  0  0  0  0  0
  140.6890   71.8710  224.8420 N   0  0  0  0  0  0  0  0  0  0  0  0
  139.5600   73.9460  223.1980 H   0  0  0  0  0  0  0  0  0  0  0  0
  140.4601   73.3648  220.3332 H   0  0  0  0  0  0  0  0  0  0  0  0
  139.1145   74.4966  220.7643 H   0  0  0  0  0  0  0  0  0  0  0  0
  140.8988   77.6626  219.4828 H   0  0  0  0  0  0  0  0  0  0  0  0
  142.0858   77.6085  220.8363 H   0  0  0  0  0  0  0  0  0  0  0  0
  143.0907   78.5931  218.7870 H   0  0  0  0  0  0  0  0  0  0  0  0
  143.9105   77.0960  219.2168 H   0  0  0  0  0  0  0  0  0  0  0  0
  141.4255   77.1526  217.3625 H   0  0  0  0  0  0  0  0  0  0  0  0
  143.0570   77.2856  216.7002 H   0  0  0  0  0  0  0  0  0  0  0  0
  142.2060   74.9204  216.8357 H   0  0  0  0  0  0  0  0  0  0  0  0
  143.7243   75.2355  217.8301 H   0  0  0  0  0  0  0  0  0  0  0  0
  141.0336   74.4328  218.6094 H   0  0  0  0  0  0  0  0  0  0  0  0
  141.7215   72.1414  218.6329 H   0  0  0  0  0  0  0  0  0  0  0  0
  145.1946   70.8713  220.7863 H   0  0  0  0  0  0  0  0  0  0  0  0
  144.2964   75.0608  220.3885 H   0  0  0  0  0  0  0  0  0  0  0  0
  139.2128   69.6946  222.7022 H   0  0  0  0  0  0  0  0  0  0  0  0
  138.9922   68.4474  224.8646 H   0  0  0  0  0  0  0  0  0  0  0  0
  139.3449   68.2999  227.2046 H   0  0  0  0  0  0  0  0  0  0  0  0
  140.2377   69.3073  229.2988 H   0  0  0  0  0  0  0  0  0  0  0  0
  141.3312   71.5164  229.2790 H   0  0  0  0  0  0  0  0  0  0  0  0
  141.5630   72.7756  227.1502 H   0  0  0  0  0  0  0  0  0  0  0  0
  1  2  2  0
  2  3  1  0
  3  4  1  0
  4  5  1  0
  5  6  2  0
  5  7  1  0
  7  8  1  0
  8  9  1  0
  9 10  1  0
 10 11  1  0
 11 12  1  0
 12 13  1  0
 13 14  2  0
 14 15  1  0
 15 16  1  0
 15 17  2  0
 17 18  1  0
 18 19  1  0
 18 20  2  0
  2 21  1  0
 21 22  2  0
 22 23  1  0
 23 24  2  0
 24 25  1  0
 25 26  2  0
 26 27  1  0
 27 28  2  0
 28 29  1  0
 29 30  2  0
 12  7  1  0
 20 13  1  0
 30 21  1  0
 29 24  1  0
  3 31  1  0
  4 32  1  0
  4 33  1  0
  8 34  1  0
  8 35  1  0
  9 36  1  0
  9 37  1  0
 10 38  1  0
 10 39  1  0
 11 40  1  0
 11 41  1  0
 12 42  1  6
 14 43  1  0
 17 44  1  0
 20 45  1  0
 22 46  1  0
 23 47  1  0
 25 48  1  0
 26 49  1  0
 27 50  1  0
 28 51  1  0
M  END
>  <smiles>  (76) 
O=C(NCC(=O)N1CCCCC1c1cc(Cl)cc(Cl)c1)c1ccc2ccccc2n1

>  <score_type>  (76) 
oracle

>  <origin>  (76) 
autodockgpu

>  <m_score__min__energy>  (76) 
-9.4399999999999995

>  <m_primary>  (76) 
energy

>  <rmsd>  (76) 
2.3411126014192676

>  <m_score__min__rmsd>  (76) 
2.3411126014192676

>  <meeko>  (76) 
{"free_energy": -8.92, "intermolecular_energy": -10.41, "internal_energy": -2.19, "cluster_size": 22, "cluster_id": 2, "rank_in_cluster": 16}

>  <energy>  (76) 
-8.8

>  <cluster_rmsd>  (76) 
0.19

>  <cluster>  (76) 
2

$$$$

     RDKit          3D

 51 54  0  0  0  0  0  0  0  0999 V2000
  138.9150   75.1890  221.8440 O   0  0  0  0  0  0  0  0  0  0  0  0
  140.0340   75.7570  221.9380 C   0  0  0  0  0  0  0  0  0  0  0  0
  141.1870   74.9670  221.6050 N   0  0  0  0  0  0  0  0  0  0  0  0
  140.9560   73.6070  221.1960 C   0  0  0  0  0  0  0  0  0  0  0  0
  141.8700   73.2100  220.0780 C   0  0  0  0  0  0  0  0  0  0  0  0
  141.3180   72.8590  219.0030 O   0  0  0  0  0  0  0  0  0  0  0  0
  143.2820   73.2400  220.2580 N   0  0  0  0  0  0  0  0  0  0  0  0
  144.0260   71.9980  220.2010 C   0  0  0  0  0  0  0  0  0  0  0  0
  145.4530   72.2660  219.8030 C   0  0  0  0  0  0  0  0  0  0  0  0
  145.9900   73.1880  220.9070 C   0  0  0  0  0  0  0  0  0  0  0  0
  145.3630   74.5330  220.6390 C   0  0  0  0  0  0  0  0  0  0  0  0
  143.8890   74.5290  220.4930 C   0  0  1  0  0  0  0  0  0  0  0  0
  143.5170   75.5280  219.4510 C   0  0  0  0  0  0  0  0  0  0  0  0
  143.7270   75.3130  218.1030 C   0  0  0  0  0  0  0  0  0  0  0  0
  143.3910   76.2180  217.1260 C   0  0  0  0  0  0  0  0  0  0  0  0
  143.6710   75.9150  215.4170 Cl  0  0  0  0  0  0  0  0  0  0  0  0
  142.8100   77.4200  217.4830 C   0  0  0  0  0  0  0  0  0  0  0  0
  142.5780   77.6810  218.8300 C   0  0  0  0  0  0  0  0  0  0  0  0
  141.8340   79.2200  219.2790 Cl  0  0  0  0  0  0  0  0  0  0  0  0
  142.9290   76.7480  219.7870 C   0  0  0  0  0  0  0  0  0  0  0  0
  140.1960   77.1450  222.3600 C   0  0  0  0  0  0  0  0  0  0  0  0
  139.0300   77.8560  222.6200 C   0  0  0  0  0  0  0  0  0  0  0  0
  139.1850   79.1680  223.0190 C   0  0  0  0  0  0  0  0  0  0  0  0
  140.4450   79.7160  223.1420 C   0  0  0  0  0  0  0  0  0  0  0  0
  140.5670   81.0290  223.5420 C   0  0  0  0  0  0  0  0  0  0  0  0
  141.8420   81.5640  223.6620 C   0  0  0  0  0  0  0  0  0  0  0  0
  142.9670   80.8120  223.3900 C   0  0  0  0  0  0  0  0  0  0  0  0
  142.8470   79.5060  222.9920 C   0  0  0  0  0  0  0  0  0  0  0  0
  141.5780   78.9770  222.8740 C   0  0  0  0  0  0  0  0  0  0  0  0
  141.4140   77.6990  222.4860 N   0  0  0  0  0  0  0  0  0  0  0  0
  142.1580   75.3910  221.6650 H   0  0  0  0  0  0  0  0  0  0  0  0
  141.1296   72.9408  222.0539 H   0  0  0  0  0  0  0  0  0  0  0  0
  139.9182   73.5237  220.8410 H   0  0  0  0  0  0  0  0  0  0  0  0
  144.0086   71.5180  221.1906 H   0  0  0  0  0  0  0  0  0  0  0  0
  143.5630   71.3356  219.4548 H   0  0  0  0  0  0  0  0  0  0  0  0
  146.0287   71.3295  219.7636 H   0  0  0  0  0  0  0  0  0  0  0  0
  145.5319   72.7184  218.8034 H   0  0  0  0  0  0  0  0  0  0  0  0
  145.6940   72.8152  221.8987 H   0  0  0  0  0  0  0  0  0  0  0  0
  147.0888   73.2384  220.9020 H   0  0  0  0  0  0  0  0  0  0  0  0
  145.6194   75.1997  221.4755 H   0  0  0  0  0  0  0  0  0  0  0  0
  145.7627   74.8661  219.6698 H   0  0  0  0  0  0  0  0  0  0  0  0
  143.4722   74.8107  221.4712 H   0  0  0  0  0  0  0  0  0  0  0  0
  144.1893   74.3637  217.7945 H   0  0  0  0  0  0  0  0  0  0  0  0
  142.5355   78.1582  216.7151 H   0  0  0  0  0  0  0  0  0  0  0  0
  142.7390   76.9741  220.8466 H   0  0  0  0  0  0  0  0  0  0  0  0
  138.0361   77.3970  222.5133 H   0  0  0  0  0  0  0  0  0  0  0  0
  138.2985   79.7805  223.2403 H   0  0  0  0  0  0  0  0  0  0  0  0
  139.6769   81.6373  223.7605 H   0  0  0  0  0  0  0  0  0  0  0  0
  141.9585   82.6103  223.9809 H   0  0  0  0  0  0  0  0  0  0  0  0
  143.9649   81.2631  223.4932 H   0  0  0  0  0  0  0  0  0  0  0  0
  143.7366   78.8971  222.7730 H   0  0  0  0  0  0  0  0  0  0  0  0
  1  2  2  0
  2  3  1  0
  3  4  1  0
  4  5  1  0
  5  6  2  0
  5  7  1  0
  7  8  1  0
  8  9  1  0
  9 10  1  0
 10 11  1  0
 11 12  1  0
 12 13  1  0
 13 14  2  0
 14 15  1  0
 15 16  1  0
 15 17  2  0
 17 18  1  0
 18 19  1  0
 18 20  2  0
  2 21  1  0
 21 22  2  0
 22 23  1  0
 23 24  2  0
 24 25  1  0
 25 26  2  0
 26 27  1  0
 27 28  2  0
 28 29  1  0
 29 30  2  0
 12  7  1  0
 20 13  1  0
 30 21  1  0
 29 24  1  0
  3 31  1  0
  4 32  1  0
  4 33  1  0
  8 34  1  0
  8 35  1  0
  9 36  1  0
  9 37  1  0
 10 38  1  0
 10 39  1  0
 11 40  1  0
 11 41  1  0
 12 42  1  1
 14 43  1  0
 17 44  1  0
 20 45  1  0
 22 46  1  0
 23 47  1  0
 25 48  1  0
 26 49  1  0
 27 50  1  0
 28 51  1  0
M  END
>  <smiles>  (77) 
O=C(NCC(=O)N1CCCCC1c1cc(Cl)cc(Cl)c1)c1ccc2ccccc2n1

>  <score_type>  (77) 
oracle

>  <origin>  (77) 
autodockgpu

>  <m_score__min__energy>  (77) 
-9.4399999999999995

>  <m_primary>  (77) 
energy

>  <rmsd>  (77) 
7.745176575813458

>  <m_score__min__rmsd>  (77) 
7.745176575813458

>  <meeko>  (77) 
{"free_energy": -8.45, "intermolecular_energy": -9.94, "internal_energy": -2.65, "cluster_size": 19, "cluster_id": 3, "rank_in_cluster": 19}

>  <energy>  (77) 
-8.75

>  <cluster_rmsd>  (77) 
0.21

>  <cluster>  (77) 
2

$$$$

     RDKit          3D

 51 54  0  0  0  0  0  0  0  0999 V2000
  140.7500   71.5310  221.3670 O   0  0  0  0  0  0  0  0  0  0  0  0
  140.3190   72.0570  222.4260 C   0  0  0  0  0  0  0  0  0  0  0  0
  139.9250   73.4370  222.3440 N   0  0  0  0  0  0  0  0  0  0  0  0
  140.0570   74.0840  221.0650 C   0  0  0  0  0  0  0  0  0  0  0  0
  140.8950   75.3220  221.1640 C   0  0  0  0  0  0  0  0  0  0  0  0
  141.0700   75.7870  222.3200 O   0  0  0  0  0  0  0  0  0  0  0  0
  141.4470   75.9120  219.9930 N   0  0  0  0  0  0  0  0  0  0  0  0
  141.5400   77.3570  219.9090 C   0  0  0  0  0  0  0  0  0  0  0  0
  142.6420   77.7500  218.9610 C   0  0  0  0  0  0  0  0  0  0  0  0
  142.2250   77.1390  217.6160 C   0  0  0  0  0  0  0  0  0  0  0  0
  142.4860   75.6600  217.7560 C   0  0  0  0  0  0  0  0  0  0  0  0
  141.8820   75.0180  218.9460 C   0  0  1  0  0  0  0  0  0  0  0  0
  142.8230   73.9770  219.4470 C   0  0  0  0  0  0  0  0  0  0  0  0
  143.9830   74.2860  220.1300 C   0  0  0  0  0  0  0  0  0  0  0  0
  144.8630   73.3430  220.6020 C   0  0  0  0  0  0  0  0  0  0  0  0
  146.3320   73.7670  221.4690 Cl  0  0  0  0  0  0  0  0  0  0  0  0
  144.6000   72.0010  220.3950 C   0  0  0  0  0  0  0  0  0  0  0  0
  143.4420   71.6420  219.7110 C   0  0  0  0  0  0  0  0  0  0  0  0
  143.1120   69.9260  219.4510 Cl  0  0  0  0  0  0  0  0  0  0  0  0
  142.5790   72.6170  219.2510 C   0  0  0  0  0  0  0  0  0  0  0  0
  140.2110   71.3410  223.6920 C   0  0  0  0  0  0  0  0  0  0  0  0
  139.5940   70.0960  223.6500 C   0  0  0  0  0  0  0  0  0  0  0  0
  139.4920   69.4190  224.8490 C   0  0  0  0  0  0  0  0  0  0  0  0
  139.9850   69.9770  226.0100 C   0  0  0  0  0  0  0  0  0  0  0  0
  139.8670   69.2770  227.1910 C   0  0  0  0  0  0  0  0  0  0  0  0
  140.3690   69.8530  228.3500 C   0  0  0  0  0  0  0  0  0  0  0  0
  140.9720   71.0940  228.3340 C   0  0  0  0  0  0  0  0  0  0  0  0
  141.0890   71.7920  227.1600 C   0  0  0  0  0  0  0  0  0  0  0  0
  140.5900   71.2160  226.0100 C   0  0  0  0  0  0  0  0  0  0  0  0
  140.6830   71.8660  224.8360 N   0  0  0  0  0  0  0  0  0  0  0  0
  139.5540   73.9360  223.2040 H   0  0  0  0  0  0  0  0  0  0  0  0
  140.5303   73.3867  220.3581 H   0  0  0  0  0  0  0  0  0  0  0  0
  139.0540   74.3712  220.7165 H   0  0  0  0  0  0  0  0  0  0  0  0
  140.5846   77.7626  219.5446 H   0  0  0  0  0  0  0  0  0  0  0  0
  141.7620   77.7623  220.9072 H   0  0  0  0  0  0  0  0  0  0  0  0
  142.7175   78.8447  218.8844 H   0  0  0  0  0  0  0  0  0  0  0  0
  143.6283   77.3953  219.2947 H   0  0  0  0  0  0  0  0  0  0  0  0
  141.1586   77.3259  217.4214 H   0  0  0  0  0  0  0  0  0  0  0  0
  142.7822   77.5771  216.7748 H   0  0  0  0  0  0  0  0  0  0  0  0
  142.0878   75.1590  216.8613 H   0  0  0  0  0  0  0  0  0  0  0  0
  143.5745   75.5543  217.8744 H   0  0  0  0  0  0  0  0  0  0  0  0
  140.9360   74.5642  218.6156 H   0  0  0  0  0  0  0  0  0  0  0  0
  144.2151   75.3468  220.3058 H   0  0  0  0  0  0  0  0  0  0  0  0
  145.2935   71.2311  220.7643 H   0  0  0  0  0  0  0  0  0  0  0  0
  141.6696   72.3117  218.7126 H   0  0  0  0  0  0  0  0  0  0  0  0
  139.2075   69.6726  222.7112 H   0  0  0  0  0  0  0  0  0  0  0  0
  139.0146   68.4284  224.8785 H   0  0  0  0  0  0  0  0  0  0  0  0
  139.3874   68.2873  227.2148 H   0  0  0  0  0  0  0  0  0  0  0  0
  140.2842   69.3082  229.3019 H   0  0  0  0  0  0  0  0  0  0  0  0
  141.3608   71.5255  229.2682 H   0  0  0  0  0  0  0  0  0  0  0  0
  141.5668   72.7825  227.1356 H   0  0  0  0  0  0  0  0  0  0  0  0
  1  2  2  0
  2  3  1  0
  3  4  1  0
  4  5  1  0
  5  6  2  0
  5  7  1  0
  7  8  1  0
  8  9  1  0
  9 10  1  0
 10 11  1  0
 11 12  1  0
 12 13  1  0
 13 14  2  0
 14 15  1  0
 15 16  1  0
 15 17  2  0
 17 18  1  0
 18 19  1  0
 18 20  2  0
  2 21  1  0
 21 22  2  0
 22 23  1  0
 23 24  2  0
 24 25  1  0
 25 26  2  0
 26 27  1  0
 27 28  2  0
 28 29  1  0
 29 30  2  0
 12  7  1  0
 20 13  1  0
 30 21  1  0
 29 24  1  0
  3 31  1  0
  4 32  1  0
  4 33  1  0
  8 34  1  0
  8 35  1  0
  9 36  1  0
  9 37  1  0
 10 38  1  0
 10 39  1  0
 11 40  1  0
 11 41  1  0
 12 42  1  6
 14 43  1  0
 17 44  1  0
 20 45  1  0
 22 46  1  0
 23 47  1  0
 25 48  1  0
 26 49  1  0
 27 50  1  0
 28 51  1  0
M  END
>  <smiles>  (78) 
O=C(NCC(=O)N1CCCCC1c1cc(Cl)cc(Cl)c1)c1ccc2ccccc2n1

>  <score_type>  (78) 
oracle

>  <origin>  (78) 
autodockgpu

>  <m_score__min__energy>  (78) 
-9.4399999999999995

>  <m_primary>  (78) 
energy

>  <rmsd>  (78) 
2.2690401881334994

>  <m_score__min__rmsd>  (78) 
2.2690401881334994

>  <meeko>  (78) 
{"free_energy": -8.98, "intermolecular_energy": -10.47, "internal_energy": -2.21, "cluster_size": 22, "cluster_id": 2, "rank_in_cluster": 4}

>  <energy>  (78) 
-8.68

>  <cluster_rmsd>  (78) 
0.24

>  <cluster>  (78) 
2

$$$$

     RDKit          3D

 51 54  0  0  0  0  0  0  0  0999 V2000
  140.7480   71.5140  221.3700 O   0  0  0  0  0  0  0  0  0  0  0  0
  140.3180   72.0410  222.4280 C   0  0  0  0  0  0  0  0  0  0  0  0
  139.9240   73.4210  222.3450 N   0  0  0  0  0  0  0  0  0  0  0  0
  140.0580   74.0670  221.0660 C   0  0  0  0  0  0  0  0  0  0  0  0
  140.8870   75.3110  221.1660 C   0  0  0  0  0  0  0  0  0  0  0  0
  141.0480   75.7820  222.3210 O   0  0  0  0  0  0  0  0  0  0  0  0
  141.4460   75.8980  219.9970 N   0  0  0  0  0  0  0  0  0  0  0  0
  141.5430   77.3420  219.9120 C   0  0  0  0  0  0  0  0  0  0  0  0
  142.6500   77.7330  218.9690 C   0  0  0  0  0  0  0  0  0  0  0  0
  142.2390   77.1200  217.6230 C   0  0  0  0  0  0  0  0  0  0  0  0
  142.4960   75.6410  217.7660 C   0  0  0  0  0  0  0  0  0  0  0  0
  141.8850   75.0020  218.9540 C   0  0  1  0  0  0  0  0  0  0  0  0
  142.8210   73.9590  219.4610 C   0  0  0  0  0  0  0  0  0  0  0  0
  143.9780   74.2670  220.1480 C   0  0  0  0  0  0  0  0  0  0  0  0
  144.8550   73.3220  220.6250 C   0  0  0  0  0  0  0  0  0  0  0  0
  146.3210   73.7450  221.4980 Cl  0  0  0  0  0  0  0  0  0  0  0  0
  144.5890   71.9810  220.4190 C   0  0  0  0  0  0  0  0  0  0  0  0
  143.4340   71.6240  219.7310 C   0  0  0  0  0  0  0  0  0  0  0  0
  143.1000   69.9070  219.4720 Cl  0  0  0  0  0  0  0  0  0  0  0  0
  142.5740   72.5990  219.2650 C   0  0  0  0  0  0  0  0  0  0  0  0
  140.2080   71.3250  223.6950 C   0  0  0  0  0  0  0  0  0  0  0  0
  139.6010   70.0750  223.6520 C   0  0  0  0  0  0  0  0  0  0  0  0
  139.4990   69.4000  224.8510 C   0  0  0  0  0  0  0  0  0  0  0  0
  139.9810   69.9630  226.0140 C   0  0  0  0  0  0  0  0  0  0  0  0
  139.8630   69.2640  227.1950 C   0  0  0  0  0  0  0  0  0  0  0  0
  140.3550   69.8450  228.3550 C   0  0  0  0  0  0  0  0  0  0  0  0
  140.9490   71.0910  228.3410 C   0  0  0  0  0  0  0  0  0  0  0  0
  141.0660   71.7880  227.1660 C   0  0  0  0  0  0  0  0  0  0  0  0
  140.5770   71.2070  226.0150 C   0  0  0  0  0  0  0  0  0  0  0  0
  140.6710   71.8550  224.8400 N   0  0  0  0  0  0  0  0  0  0  0  0
  139.5540   73.9210  223.2040 H   0  0  0  0  0  0  0  0  0  0  0  0
  140.5394   73.3717  220.3626 H   0  0  0  0  0  0  0  0  0  0  0  0
  139.0546   74.3471  220.7128 H   0  0  0  0  0  0  0  0  0  0  0  0
  140.5902   77.7493  219.5429 H   0  0  0  0  0  0  0  0  0  0  0  0
  141.7620   77.7470  220.9110 H   0  0  0  0  0  0  0  0  0  0  0  0
  142.7265   78.8276  218.8911 H   0  0  0  0  0  0  0  0  0  0  0  0
  143.6345   77.3785  219.3081 H   0  0  0  0  0  0  0  0  0  0  0  0
  141.1740   77.3087  217.4226 H   0  0  0  0  0  0  0  0  0  0  0  0
  142.8020   77.5555  216.7844 H   0  0  0  0  0  0  0  0  0  0  0  0
  142.1009   75.1397  216.8701 H   0  0  0  0  0  0  0  0  0  0  0  0
  143.5837   75.5330  217.8896 H   0  0  0  0  0  0  0  0  0  0  0  0
  140.9397   74.5497  218.6196 H   0  0  0  0  0  0  0  0  0  0  0  0
  144.2112   75.3276  220.3235 H   0  0  0  0  0  0  0  0  0  0  0  0
  145.2787   71.2099  220.7927 H   0  0  0  0  0  0  0  0  0  0  0  0
  141.6666   72.2947  218.7228 H   0  0  0  0  0  0  0  0  0  0  0  0
  139.2222   69.6469  222.7121 H   0  0  0  0  0  0  0  0  0  0  0  0
  139.0298   68.4055  224.8795 H   0  0  0  0  0  0  0  0  0  0  0  0
  139.3909   68.2707  227.2179 H   0  0  0  0  0  0  0  0  0  0  0  0
  140.2698   69.3006  229.3070 H   0  0  0  0  0  0  0  0  0  0  0  0
  141.3301   71.5266  229.2764 H   0  0  0  0  0  0  0  0  0  0  0  0
  141.5364   72.7821  227.1422 H   0  0  0  0  0  0  0  0  0  0  0  0
  1  2  2  0
  2  3  1  0
  3  4  1  0
  4  5  1  0
  5  6  2  0
  5  7  1  0
  7  8  1  0
  8  9  1  0
  9 10  1  0
 10 11  1  0
 11 12  1  0
 12 13  1  0
 13 14  2  0
 14 15  1  0
 15 16  1  0
 15 17  2  0
 17 18  1  0
 18 19  1  0
 18 20  2  0
  2 21  1  0
 21 22  2  0
 22 23  1  0
 23 24  2  0
 24 25  1  0
 25 26  2  0
 26 27  1  0
 27 28  2  0
 28 29  1  0
 29 30  2  0
 12  7  1  0
 20 13  1  0
 30 21  1  0
 29 24  1  0
  3 31  1  0
  4 32  1  0
  4 33  1  0
  8 34  1  0
  8 35  1  0
  9 36  1  0
  9 37  1  0
 10 38  1  0
 10 39  1  0
 11 40  1  0
 11 41  1  0
 12 42  1  6
 14 43  1  0
 17 44  1  0
 20 45  1  0
 22 46  1  0
 23 47  1  0
 25 48  1  0
 26 49  1  0
 27 50  1  0
 28 51  1  0
M  END
>  <smiles>  (79) 
O=C(NCC(=O)N1CCCCC1c1cc(Cl)cc(Cl)c1)c1ccc2ccccc2n1

>  <score_type>  (79) 
oracle

>  <origin>  (79) 
autodockgpu

>  <m_score__min__energy>  (79) 
-9.4399999999999995

>  <m_primary>  (79) 
energy

>  <rmsd>  (79) 
2.2674280985889514

>  <m_score__min__rmsd>  (79) 
2.2674280985889514

>  <meeko>  (79) 
{"free_energy": -8.98, "intermolecular_energy": -10.47, "internal_energy": -2.22, "cluster_size": 22, "cluster_id": 2, "rank_in_cluster": 5}

>  <energy>  (79) 
-8.58

>  <cluster_rmsd>  (79) 
1.87

>  <cluster>  (79) 
2

$$$$

     RDKit          3D

 51 54  0  0  0  0  0  0  0  0999 V2000
  138.9350   75.2410  221.7380 O   0  0  0  0  0  0  0  0  0  0  0  0
  140.0590   75.7680  221.9440 C   0  0  0  0  0  0  0  0  0  0  0  0
  141.2090   74.9310  221.7410 N   0  0  0  0  0  0  0  0  0  0  0  0
  140.9690   73.5750  221.3210 C   0  0  0  0  0  0  0  0  0  0  0  0
  141.8150   73.2110  220.1390 C   0  0  0  0  0  0  0  0  0  0  0  0
  141.2000   72.9370  219.0760 O   0  0  0  0  0  0  0  0  0  0  0  0
  143.2330   73.1880  220.2510 N   0  0  0  0  0  0  0  0  0  0  0  0
  143.9260   71.9190  220.1500 C   0  0  0  0  0  0  0  0  0  0  0  0
  145.3420   72.1370  219.6850 C   0  0  0  0  0  0  0  0  0  0  0  0
  145.9660   73.0300  220.7660 C   0  0  0  0  0  0  0  0  0  0  0  0
  145.3770   74.3990  220.5360 C   0  0  0  0  0  0  0  0  0  0  0  0
  143.8990   74.4510  220.4620 C   0  0  1  0  0  0  0  0  0  0  0  0
  143.5150   75.4710  219.4440 C   0  0  0  0  0  0  0  0  0  0  0  0
  143.7200   75.2870  218.0910 C   0  0  0  0  0  0  0  0  0  0  0  0
  143.3730   76.2120  217.1370 C   0  0  0  0  0  0  0  0  0  0  0  0
  143.6460   75.9500  215.4200 Cl  0  0  0  0  0  0  0  0  0  0  0  0
  142.7840   77.4020  217.5230 C   0  0  0  0  0  0  0  0  0  0  0  0
  142.5570   77.6300  218.8770 C   0  0  0  0  0  0  0  0  0  0  0  0
  141.8040   79.1530  219.3640 Cl  0  0  0  0  0  0  0  0  0  0  0  0
  142.9190   76.6780  219.8110 C   0  0  0  0  0  0  0  0  0  0  0  0
  140.2300   77.1530  222.3700 C   0  0  0  0  0  0  0  0  0  0  0  0
  139.0680   77.8790  222.6060 C   0  0  0  0  0  0  0  0  0  0  0  0
  139.2320   79.1890  223.0080 C   0  0  0  0  0  0  0  0  0  0  0  0
  140.4960   79.7210  223.1570 C   0  0  0  0  0  0  0  0  0  0  0  0
  140.6260   81.0330  223.5590 C   0  0  0  0  0  0  0  0  0  0  0  0
  141.9050   81.5510  223.7050 C   0  0  0  0  0  0  0  0  0  0  0  0
  143.0260   80.7860  223.4550 C   0  0  0  0  0  0  0  0  0  0  0  0
  142.8970   79.4810  223.0550 C   0  0  0  0  0  0  0  0  0  0  0  0
  141.6250   78.9680  222.9120 C   0  0  0  0  0  0  0  0  0  0  0  0
  141.4520   77.6930  222.5200 N   0  0  0  0  0  0  0  0  0  0  0  0
  142.1840   75.3180  221.8980 H   0  0  0  0  0  0  0  0  0  0  0  0
  141.2052   72.8954  222.1531 H   0  0  0  0  0  0  0  0  0  0  0  0
  139.9118   73.4843  221.0312 H   0  0  0  0  0  0  0  0  0  0  0  0
  143.9380   71.4317  221.1361 H   0  0  0  0  0  0  0  0  0  0  0  0
  143.4030   71.2805  219.4228 H   0  0  0  0  0  0  0  0  0  0  0  0
  145.8796   71.1800  219.6127 H   0  0  0  0  0  0  0  0  0  0  0  0
  145.3893   72.5937  218.6854 H   0  0  0  0  0  0  0  0  0  0  0  0
  145.7050   72.6613  221.7690 H   0  0  0  0  0  0  0  0  0  0  0  0
  147.0644   73.0398  220.7077 H   0  0  0  0  0  0  0  0  0  0  0  0
  145.6984   75.0498  221.3625 H   0  0  0  0  0  0  0  0  0  0  0  0
  145.7411   74.7235  219.5500 H   0  0  0  0  0  0  0  0  0  0  0  0
  143.5409   74.7411  221.4608 H   0  0  0  0  0  0  0  0  0  0  0  0
  144.1869   74.3480  217.7590 H   0  0  0  0  0  0  0  0  0  0  0  0
  142.4999   78.1551  216.7732 H   0  0  0  0  0  0  0  0  0  0  0  0
  142.7316   76.8779  220.8763 H   0  0  0  0  0  0  0  0  0  0  0  0
  138.0706   77.4328  222.4790 H   0  0  0  0  0  0  0  0  0  0  0  0
  138.3491   79.8130  223.2109 H   0  0  0  0  0  0  0  0  0  0  0  0
  139.7395   81.6529  223.7588 H   0  0  0  0  0  0  0  0  0  0  0  0
  142.0282   82.5954  224.0274 H   0  0  0  0  0  0  0  0  0  0  0  0
  144.0272   81.2251  223.5772 H   0  0  0  0  0  0  0  0  0  0  0  0
  143.7830   78.8608  222.8538 H   0  0  0  0  0  0  0  0  0  0  0  0
  1  2  2  0
  2  3  1  0
  3  4  1  0
  4  5  1  0
  5  6  2  0
  5  7  1  0
  7  8  1  0
  8  9  1  0
  9 10  1  0
 10 11  1  0
 11 12  1  0
 12 13  1  0
 13 14  2  0
 14 15  1  0
 15 16  1  0
 15 17  2  0
 17 18  1  0
 18 19  1  0
 18 20  2  0
  2 21  1  0
 21 22  2  0
 22 23  1  0
 23 24  2  0
 24 25  1  0
 25 26  2  0
 26 27  1  0
 27 28  2  0
 28 29  1  0
 29 30  2  0
 12  7  1  0
 20 13  1  0
 30 21  1  0
 29 24  1  0
  3 31  1  0
  4 32  1  0
  4 33  1  0
  8 34  1  0
  8 35  1  0
  9 36  1  0
  9 37  1  0
 10 38  1  0
 10 39  1  0
 11 40  1  0
 11 41  1  0
 12 42  1  1
 14 43  1  0
 17 44  1  0
 20 45  1  0
 22 46  1  0
 23 47  1  0
 25 48  1  0
 26 49  1  0
 27 50  1  0
 28 51  1  0
M  END
>  <smiles>  (80) 
O=C(NCC(=O)N1CCCCC1c1cc(Cl)cc(Cl)c1)c1ccc2ccccc2n1

>  <score_type>  (80) 
oracle

>  <origin>  (80) 
autodockgpu

>  <m_score__min__energy>  (80) 
-9.4399999999999995

>  <m_primary>  (80) 
energy

>  <rmsd>  (80) 
7.736736246411624

>  <m_score__min__rmsd>  (80) 
7.736736246411624

>  <meeko>  (80) 
{"free_energy": -8.48, "intermolecular_energy": -9.98, "internal_energy": -2.73, "cluster_size": 19, "cluster_id": 3, "rank_in_cluster": 15}

>  <energy>  (80) 
-8.51

>  <cluster_rmsd>  (80) 
0.0

>  <cluster>  (80) 
3

$$$$

     RDKit          3D

 51 54  0  0  0  0  0  0  0  0999 V2000
  138.9050   75.3310  221.5640 O   0  0  0  0  0  0  0  0  0  0  0  0
  140.0270   75.8040  221.8780 C   0  0  0  0  0  0  0  0  0  0  0  0
  141.1560   74.9240  221.7490 N   0  0  0  0  0  0  0  0  0  0  0  0
  140.8980   73.5900  221.2740 C   0  0  0  0  0  0  0  0  0  0  0  0
  141.7600   73.2550  220.0950 C   0  0  0  0  0  0  0  0  0  0  0  0
  141.1600   73.0140  219.0150 O   0  0  0  0  0  0  0  0  0  0  0  0
  143.1760   73.2200  220.2270 N   0  0  0  0  0  0  0  0  0  0  0  0
  143.8610   71.9450  220.1320 C   0  0  0  0  0  0  0  0  0  0  0  0
  145.2850   72.1540  219.6880 C   0  0  0  0  0  0  0  0  0  0  0  0
  145.9000   73.0380  220.7820 C   0  0  0  0  0  0  0  0  0  0  0  0
  145.3250   74.4130  220.5490 C   0  0  0  0  0  0  0  0  0  0  0  0
  143.8490   74.4770  220.4540 C   0  0  1  0  0  0  0  0  0  0  0  0
  143.4880   75.5030  219.4350 C   0  0  0  0  0  0  0  0  0  0  0  0
  143.7070   75.3220  218.0840 C   0  0  0  0  0  0  0  0  0  0  0  0
  143.3810   76.2540  217.1280 C   0  0  0  0  0  0  0  0  0  0  0  0
  143.6710   75.9940  215.4140 Cl  0  0  0  0  0  0  0  0  0  0  0  0
  142.8000   77.4480  217.5110 C   0  0  0  0  0  0  0  0  0  0  0  0
  142.5600   77.6750  218.8640 C   0  0  0  0  0  0  0  0  0  0  0  0
  141.8180   79.2040  219.3470 Cl  0  0  0  0  0  0  0  0  0  0  0  0
  142.9010   76.7160  219.7980 C   0  0  0  0  0  0  0  0  0  0  0  0
  140.2180   77.1700  222.3550 C   0  0  0  0  0  0  0  0  0  0  0  0
  139.0670   77.8870  222.6630 C   0  0  0  0  0  0  0  0  0  0  0  0
  139.2490   79.1790  223.1140 C   0  0  0  0  0  0  0  0  0  0  0  0
  140.5190   79.7030  223.2390 C   0  0  0  0  0  0  0  0  0  0  0  0
  140.6670   80.9960  223.6900 C   0  0  0  0  0  0  0  0  0  0  0  0
  141.9520   81.5070  223.8110 C   0  0  0  0  0  0  0  0  0  0  0  0
  143.0610   80.7510  223.4890 C   0  0  0  0  0  0  0  0  0  0  0  0
  142.9140   79.4650  223.0390 C   0  0  0  0  0  0  0  0  0  0  0  0
  141.6360   78.9590  222.9210 C   0  0  0  0  0  0  0  0  0  0  0  0
  141.4450   77.7020  222.4830 N   0  0  0  0  0  0  0  0  0  0  0  0
  142.1290   75.2660  221.9990 H   0  0  0  0  0  0  0  0  0  0  0  0
  141.1052   72.8751  222.0839 H   0  0  0  0  0  0  0  0  0  0  0  0
  139.8449   73.5305  220.9619 H   0  0  0  0  0  0  0  0  0  0  0  0
  143.8552   71.4547  221.1167 H   0  0  0  0  0  0  0  0  0  0  0  0
  143.3436   71.3124  219.3957 H   0  0  0  0  0  0  0  0  0  0  0  0
  145.8163   71.1933  219.6194 H   0  0  0  0  0  0  0  0  0  0  0  0
  145.3502   72.6142  218.6910 H   0  0  0  0  0  0  0  0  0  0  0  0
  145.6214   72.6673  221.7795 H   0  0  0  0  0  0  0  0  0  0  0  0
  146.9992   73.0394  220.7399 H   0  0  0  0  0  0  0  0  0  0  0  0
  145.6396   75.0580  221.3827 H   0  0  0  0  0  0  0  0  0  0  0  0
  145.7058   74.7385  219.5697 H   0  0  0  0  0  0  0  0  0  0  0  0
  143.4793   74.7658  221.4489 H   0  0  0  0  0  0  0  0  0  0  0  0
  144.1681   74.3793  217.7543 H   0  0  0  0  0  0  0  0  0  0  0  0
  142.5318   78.2059  216.7603 H   0  0  0  0  0  0  0  0  0  0  0  0
  142.7036   76.9148  220.8617 H   0  0  0  0  0  0  0  0  0  0  0  0
  138.0645   77.4479  222.5531 H   0  0  0  0  0  0  0  0  0  0  0  0
  138.3757   79.7946  223.3754 H   0  0  0  0  0  0  0  0  0  0  0  0
  139.7898   81.6077  223.9476 H   0  0  0  0  0  0  0  0  0  0  0  0
  142.0895   82.5371  224.1715 H   0  0  0  0  0  0  0  0  0  0  0  0
  144.0673   81.1827  223.5941 H   0  0  0  0  0  0  0  0  0  0  0  0
  143.7905   78.8533  222.7791 H   0  0  0  0  0  0  0  0  0  0  0  0
  1  2  2  0
  2  3  1  0
  3  4  1  0
  4  5  1  0
  5  6  2  0
  5  7  1  0
  7  8  1  0
  8  9  1  0
  9 10  1  0
 10 11  1  0
 11 12  1  0
 12 13  1  0
 13 14  2  0
 14 15  1  0
 15 16  1  0
 15 17  2  0
 17 18  1  0
 18 19  1  0
 18 20  2  0
  2 21  1  0
 21 22  2  0
 22 23  1  0
 23 24  2  0
 24 25  1  0
 25 26  2  0
 26 27  1  0
 27 28  2  0
 28 29  1  0
 29 30  2  0
 12  7  1  0
 20 13  1  0
 30 21  1  0
 29 24  1  0
  3 31  1  0
  4 32  1  0
  4 33  1  0
  8 34  1  0
  8 35  1  0
  9 36  1  0
  9 37  1  0
 10 38  1  0
 10 39  1  0
 11 40  1  0
 11 41  1  0
 12 42  1  1
 14 43  1  0
 17 44  1  0
 20 45  1  0
 22 46  1  0
 23 47  1  0
 25 48  1  0
 26 49  1  0
 27 50  1  0
 28 51  1  0
M  END
>  <smiles>  (81) 
O=C(NCC(=O)N1CCCCC1c1cc(Cl)cc(Cl)c1)c1ccc2ccccc2n1

>  <score_type>  (81) 
oracle

>  <origin>  (81) 
autodockgpu

>  <m_score__min__energy>  (81) 
-9.4399999999999995

>  <m_primary>  (81) 
energy

>  <rmsd>  (81) 
7.704536283770096

>  <m_score__min__rmsd>  (81) 
7.704536283770096

>  <meeko>  (81) 
{"free_energy": -8.47, "intermolecular_energy": -9.96, "internal_energy": -2.73, "cluster_size": 19, "cluster_id": 3, "rank_in_cluster": 18}

>  <energy>  (81) 
-8.51

>  <cluster_rmsd>  (81) 
0.05

>  <cluster>  (81) 
3

$$$$

     RDKit          3D

 51 54  0  0  0  0  0  0  0  0999 V2000
  138.9220   75.2520  221.6790 O   0  0  0  0  0  0  0  0  0  0  0  0
  140.0470   75.7560  221.9280 C   0  0  0  0  0  0  0  0  0  0  0  0
  141.1900   74.9040  221.7420 N   0  0  0  0  0  0  0  0  0  0  0  0
  140.9400   73.5610  221.2880 C   0  0  0  0  0  0  0  0  0  0  0  0
  141.8090   73.2110  220.1190 C   0  0  0  0  0  0  0  0  0  0  0  0
  141.2140   72.9330  219.0450 O   0  0  0  0  0  0  0  0  0  0  0  0
  143.2260   73.2020  220.2530 N   0  0  0  0  0  0  0  0  0  0  0  0
  143.9340   71.9410  220.1580 C   0  0  0  0  0  0  0  0  0  0  0  0
  145.3550   72.1770  219.7160 C   0  0  0  0  0  0  0  0  0  0  0  0
  145.9520   73.0720  220.8110 C   0  0  0  0  0  0  0  0  0  0  0  0
  145.3520   74.4360  220.5780 C   0  0  0  0  0  0  0  0  0  0  0  0
  143.8740   74.4720  220.4800 C   0  0  1  0  0  0  0  0  0  0  0  0
  143.4950   75.4920  219.4620 C   0  0  0  0  0  0  0  0  0  0  0  0
  143.6930   75.3030  218.1080 C   0  0  0  0  0  0  0  0  0  0  0  0
  143.3510   76.2280  217.1520 C   0  0  0  0  0  0  0  0  0  0  0  0
  143.6150   75.9590  215.4350 Cl  0  0  0  0  0  0  0  0  0  0  0  0
  142.7730   77.4240  217.5370 C   0  0  0  0  0  0  0  0  0  0  0  0
  142.5540   77.6580  218.8920 C   0  0  0  0  0  0  0  0  0  0  0  0
  141.8150   79.1880  219.3770 Cl  0  0  0  0  0  0  0  0  0  0  0  0
  142.9110   76.7050  219.8270 C   0  0  0  0  0  0  0  0  0  0  0  0
  140.2270   77.1300  222.3860 C   0  0  0  0  0  0  0  0  0  0  0  0
  139.0700   77.8510  222.6590 C   0  0  0  0  0  0  0  0  0  0  0  0
  139.2430   79.1500  223.0930 C   0  0  0  0  0  0  0  0  0  0  0  0
  140.5100   79.6760  223.2350 C   0  0  0  0  0  0  0  0  0  0  0  0
  140.6480   80.9760  223.6690 C   0  0  0  0  0  0  0  0  0  0  0  0
  141.9300   81.4890  223.8090 C   0  0  0  0  0  0  0  0  0  0  0  0
  143.0450   80.7290  223.5230 C   0  0  0  0  0  0  0  0  0  0  0  0
  142.9090   79.4350  223.0900 C   0  0  0  0  0  0  0  0  0  0  0  0
  141.6330   78.9280  222.9540 C   0  0  0  0  0  0  0  0  0  0  0  0
  141.4520   77.6630  222.5320 N   0  0  0  0  0  0  0  0  0  0  0  0
  142.1650   75.2720  221.9360 H   0  0  0  0  0  0  0  0  0  0  0  0
  141.1466   72.8604  222.1105 H   0  0  0  0  0  0  0  0  0  0  0  0
  139.8886   73.4913  220.9722 H   0  0  0  0  0  0  0  0  0  0  0  0
  143.9360   71.4498  221.1422 H   0  0  0  0  0  0  0  0  0  0  0  0
  143.4294   71.2995  219.4205 H   0  0  0  0  0  0  0  0  0  0  0  0
  145.9043   71.2264  219.6478 H   0  0  0  0  0  0  0  0  0  0  0  0
  145.4128   72.6388  218.7193 H   0  0  0  0  0  0  0  0  0  0  0  0
  145.6791   72.6958  221.8080 H   0  0  0  0  0  0  0  0  0  0  0  0
  147.0510   73.0940  220.7701 H   0  0  0  0  0  0  0  0  0  0  0  0
  145.6527   75.0861  221.4129 H   0  0  0  0  0  0  0  0  0  0  0  0
  145.7288   74.7697  219.5999 H   0  0  0  0  0  0  0  0  0  0  0  0
  143.4962   74.7537  221.4739 H   0  0  0  0  0  0  0  0  0  0  0  0
  144.1501   74.3589  217.7769 H   0  0  0  0  0  0  0  0  0  0  0  0
  142.4913   78.1769  216.7862 H   0  0  0  0  0  0  0  0  0  0  0  0
  142.7289   76.9094  220.8924 H   0  0  0  0  0  0  0  0  0  0  0  0
  138.0699   77.4098  222.5357 H   0  0  0  0  0  0  0  0  0  0  0  0
  138.3647   79.7695  223.3271 H   0  0  0  0  0  0  0  0  0  0  0  0
  139.7655   81.5913  223.8986 H   0  0  0  0  0  0  0  0  0  0  0  0
  142.0598   82.5248  224.1558 H   0  0  0  0  0  0  0  0  0  0  0  0
  144.0485   81.1632  223.6429 H   0  0  0  0  0  0  0  0  0  0  0  0
  143.7908   78.8196  222.8580 H   0  0  0  0  0  0  0  0  0  0  0  0
  1  2  2  0
  2  3  1  0
  3  4  1  0
  4  5  1  0
  5  6  2  0
  5  7  1  0
  7  8  1  0
  8  9  1  0
  9 10  1  0
 10 11  1  0
 11 12  1  0
 12 13  1  0
 13 14  2  0
 14 15  1  0
 15 16  1  0
 15 17  2  0
 17 18  1  0
 18 19  1  0
 18 20  2  0
  2 21  1  0
 21 22  2  0
 22 23  1  0
 23 24  2  0
 24 25  1  0
 25 26  2  0
 26 27  1  0
 27 28  2  0
 28 29  1  0
 29 30  2  0
 12  7  1  0
 20 13  1  0
 30 21  1  0
 29 24  1  0
  3 31  1  0
  4 32  1  0
  4 33  1  0
  8 34  1  0
  8 35  1  0
  9 36  1  0
  9 37  1  0
 10 38  1  0
 10 39  1  0
 11 40  1  0
 11 41  1  0
 12 42  1  1
 14 43  1  0
 17 44  1  0
 20 45  1  0
 22 46  1  0
 23 47  1  0
 25 48  1  0
 26 49  1  0
 27 50  1  0
 28 51  1  0
M  END
>  <smiles>  (82) 
O=C(NCC(=O)N1CCCCC1c1cc(Cl)cc(Cl)c1)c1ccc2ccccc2n1

>  <score_type>  (82) 
oracle

>  <origin>  (82) 
autodockgpu

>  <m_score__min__energy>  (82) 
-9.4399999999999995

>  <m_primary>  (82) 
energy

>  <rmsd>  (82) 
7.700103029295645

>  <m_score__min__rmsd>  (82) 
7.700103029295645

>  <meeko>  (82) 
{"free_energy": -8.5, "intermolecular_energy": -9.99, "internal_energy": -2.72, "cluster_size": 19, "cluster_id": 3, "rank_in_cluster": 3}

>  <energy>  (82) 
-8.5

>  <cluster_rmsd>  (82) 
0.03

>  <cluster>  (82) 
3

$$$$

     RDKit          3D

 51 54  0  0  0  0  0  0  0  0999 V2000
  138.9180   75.2540  221.6490 O   0  0  0  0  0  0  0  0  0  0  0  0
  140.0390   75.7570  221.9160 C   0  0  0  0  0  0  0  0  0  0  0  0
  141.1840   74.9030  221.7520 N   0  0  0  0  0  0  0  0  0  0  0  0
  140.9410   73.5580  221.3000 C   0  0  0  0  0  0  0  0  0  0  0  0
  141.7980   73.2170  220.1190 C   0  0  0  0  0  0  0  0  0  0  0  0
  141.1930   72.9560  219.0470 O   0  0  0  0  0  0  0  0  0  0  0  0
  143.2160   73.1980  220.2420 N   0  0  0  0  0  0  0  0  0  0  0  0
  143.9140   71.9320  220.1340 C   0  0  0  0  0  0  0  0  0  0  0  0
  145.3330   72.1610  219.6820 C   0  0  0  0  0  0  0  0  0  0  0  0
  145.9450   73.0450  220.7770 C   0  0  0  0  0  0  0  0  0  0  0  0
  145.3530   74.4140  220.5570 C   0  0  0  0  0  0  0  0  0  0  0  0
  143.8750   74.4610  220.4720 C   0  0  1  0  0  0  0  0  0  0  0  0
  143.4940   75.4900  219.4620 C   0  0  0  0  0  0  0  0  0  0  0  0
  142.9130   76.6940  219.8080 C   0  0  0  0  0  0  0  0  0  0  0  0
  142.5560   77.6560  218.8950 C   0  0  0  0  0  0  0  0  0  0  0  0
  141.8180   79.1810  219.3650 Cl  0  0  0  0  0  0  0  0  0  0  0  0
  142.7780   77.4340  217.5480 C   0  0  0  0  0  0  0  0  0  0  0  0
  143.3620   76.2340  217.1530 C   0  0  0  0  0  0  0  0  0  0  0  0
  143.6430   75.9570  215.4310 Cl  0  0  0  0  0  0  0  0  0  0  0  0
  143.7090   75.2880  218.0980 C   0  0  0  0  0  0  0  0  0  0  0  0
  140.2140   77.1330  222.3710 C   0  0  0  0  0  0  0  0  0  0  0  0
  139.0540   77.8500  222.6380 C   0  0  0  0  0  0  0  0  0  0  0  0
  139.2210   79.1510  223.0690 C   0  0  0  0  0  0  0  0  0  0  0  0
  140.4850   79.6820  223.2150 C   0  0  0  0  0  0  0  0  0  0  0  0
  140.6180   80.9840  223.6450 C   0  0  0  0  0  0  0  0  0  0  0  0
  141.8980   81.5010  223.7880 C   0  0  0  0  0  0  0  0  0  0  0  0
  143.0170   80.7440  223.5070 C   0  0  0  0  0  0  0  0  0  0  0  0
  142.8860   79.4490  223.0780 C   0  0  0  0  0  0  0  0  0  0  0  0
  141.6120   78.9370  222.9380 C   0  0  0  0  0  0  0  0  0  0  0  0
  141.4360   77.6700  222.5190 N   0  0  0  0  0  0  0  0  0  0  0  0
  142.1570   75.2710  221.9620 H   0  0  0  0  0  0  0  0  0  0  0  0
  141.1651   72.8588  222.1191 H   0  0  0  0  0  0  0  0  0  0  0  0
  139.8863   73.4786  220.9979 H   0  0  0  0  0  0  0  0  0  0  0  0
  143.9203   71.4350  221.1153 H   0  0  0  0  0  0  0  0  0  0  0  0
  143.3989   71.2982  219.3972 H   0  0  0  0  0  0  0  0  0  0  0  0
  145.8752   71.2071  219.6037 H   0  0  0  0  0  0  0  0  0  0  0  0
  145.3858   72.6286  218.6877 H   0  0  0  0  0  0  0  0  0  0  0  0
  145.6776   72.6648  221.7740 H   0  0  0  0  0  0  0  0  0  0  0  0
  147.0438   73.0595  220.7272 H   0  0  0  0  0  0  0  0  0  0  0  0
  145.6654   75.0571  221.3929 H   0  0  0  0  0  0  0  0  0  0  0  0
  145.7237   74.7506  219.5776 H   0  0  0  0  0  0  0  0  0  0  0  0
  143.5087   74.7392  221.4712 H   0  0  0  0  0  0  0  0  0  0  0  0
  142.7258   76.8936  220.8734 H   0  0  0  0  0  0  0  0  0  0  0  0
  142.4980   78.1924  216.8021 H   0  0  0  0  0  0  0  0  0  0  0  0
  144.1692   74.3460  217.7649 H   0  0  0  0  0  0  0  0  0  0  0  0
  138.0560   77.4048  222.5127 H   0  0  0  0  0  0  0  0  0  0  0  0
  138.3395   79.7681  223.2975 H   0  0  0  0  0  0  0  0  0  0  0  0
  139.7330   81.5977  223.8691 H   0  0  0  0  0  0  0  0  0  0  0  0
  142.0234   82.5379  224.1332 H   0  0  0  0  0  0  0  0  0  0  0  0
  144.0188   81.1820  223.6279 H   0  0  0  0  0  0  0  0  0  0  0  0
  143.7706   78.8355  222.8518 H   0  0  0  0  0  0  0  0  0  0  0  0
  1  2  2  0
  2  3  1  0
  3  4  1  0
  4  5  1  0
  5  6  2  0
  5  7  1  0
  7  8  1  0
  8  9  1  0
  9 10  1  0
 10 11  1  0
 11 12  1  0
 12 13  1  0
 13 14  2  0
 14 15  1  0
 15 16  1  0
 15 17  2  0
 17 18  1  0
 18 19  1  0
 18 20  2  0
  2 21  1  0
 21 22  2  0
 22 23  1  0
 23 24  2  0
 24 25  1  0
 25 26  2  0
 26 27  1  0
 27 28  2  0
 28 29  1  0
 29 30  2  0
 12  7  1  0
 20 13  1  0
 30 21  1  0
 29 24  1  0
  3 31  1  0
  4 32  1  0
  4 33  1  0
  8 34  1  0
  8 35  1  0
  9 36  1  0
  9 37  1  0
 10 38  1  0
 10 39  1  0
 11 40  1  0
 11 41  1  0
 12 42  1  1
 14 43  1  0
 17 44  1  0
 20 45  1  0
 22 46  1  0
 23 47  1  0
 25 48  1  0
 26 49  1  0
 27 50  1  0
 28 51  1  0
M  END
>  <smiles>  (83) 
O=C(NCC(=O)N1CCCCC1c1cc(Cl)cc(Cl)c1)c1ccc2ccccc2n1

>  <score_type>  (83) 
oracle

>  <origin>  (83) 
autodockgpu

>  <m_score__min__energy>  (83) 
-9.4399999999999995

>  <m_primary>  (83) 
energy

>  <rmsd>  (83) 
7.7017900982504175

>  <m_score__min__rmsd>  (83) 
7.7017900982504175

>  <meeko>  (83) 
{"free_energy": -8.5, "intermolecular_energy": -9.99, "internal_energy": -2.73, "cluster_size": 19, "cluster_id": 3, "rank_in_cluster": 6}

>  <energy>  (83) 
-8.5

>  <cluster_rmsd>  (83) 
0.04

>  <cluster>  (83) 
3

$$$$

     RDKit          3D

 51 54  0  0  0  0  0  0  0  0999 V2000
  140.7690   71.5180  221.3750 O   0  0  0  0  0  0  0  0  0  0  0  0
  140.3160   72.0330  222.4290 C   0  0  0  0  0  0  0  0  0  0  0  0
  139.8970   73.4060  222.3460 N   0  0  0  0  0  0  0  0  0  0  0  0
  140.0350   74.0590  221.0700 C   0  0  0  0  0  0  0  0  0  0  0  0
  140.9170   75.2660  221.1680 C   0  0  0  0  0  0  0  0  0  0  0  0
  141.1200   75.7160  222.3250 O   0  0  0  0  0  0  0  0  0  0  0  0
  141.4760   75.8450  219.9940 N   0  0  0  0  0  0  0  0  0  0  0  0
  141.5780   77.2880  219.9020 C   0  0  0  0  0  0  0  0  0  0  0  0
  142.6850   77.6690  218.9540 C   0  0  0  0  0  0  0  0  0  0  0  0
  142.2680   77.0510  217.6120 C   0  0  0  0  0  0  0  0  0  0  0  0
  142.5190   75.5720  217.7620 C   0  0  0  0  0  0  0  0  0  0  0  0
  141.9080   74.9420  218.9550 C   0  0  1  0  0  0  0  0  0  0  0  0
  142.8410   73.8970  219.4650 C   0  0  0  0  0  0  0  0  0  0  0  0
  143.9890   74.2030  220.1690 C   0  0  0  0  0  0  0  0  0  0  0  0
  144.8620   73.2570  220.6490 C   0  0  0  0  0  0  0  0  0  0  0  0
  146.3170   73.6770  221.5420 Cl  0  0  0  0  0  0  0  0  0  0  0  0
  144.6020   71.9170  220.4300 C   0  0  0  0  0  0  0  0  0  0  0  0
  143.4560   71.5610  219.7260 C   0  0  0  0  0  0  0  0  0  0  0  0
  143.1300   69.8460  219.4500 Cl  0  0  0  0  0  0  0  0  0  0  0  0
  142.6000   72.5380  219.2570 C   0  0  0  0  0  0  0  0  0  0  0  0
  140.2030   71.3110  223.6920 C   0  0  0  0  0  0  0  0  0  0  0  0
  139.6010   70.0590  223.6400 C   0  0  0  0  0  0  0  0  0  0  0  0
  139.4960   69.3770  224.8350 C   0  0  0  0  0  0  0  0  0  0  0  0
  139.9710   69.9370  226.0030 C   0  0  0  0  0  0  0  0  0  0  0  0
  139.8490   69.2310  227.1800 C   0  0  0  0  0  0  0  0  0  0  0  0
  140.3340   69.8090  228.3460 C   0  0  0  0  0  0  0  0  0  0  0  0
  140.9220   71.0570  228.3400 C   0  0  0  0  0  0  0  0  0  0  0  0
  141.0430   71.7600  227.1700 C   0  0  0  0  0  0  0  0  0  0  0  0
  140.5610   71.1830  226.0130 C   0  0  0  0  0  0  0  0  0  0  0  0
  140.6580   71.8370  224.8420 N   0  0  0  0  0  0  0  0  0  0  0  0
  139.5060   73.8960  223.2020 H   0  0  0  0  0  0  0  0  0  0  0  0
  140.4745   73.3516  220.3513 H   0  0  0  0  0  0  0  0  0  0  0  0
  139.0382   74.3839  220.7370 H   0  0  0  0  0  0  0  0  0  0  0  0
  140.6260   77.6973  219.5330 H   0  0  0  0  0  0  0  0  0  0  0  0
  141.8002   77.6976  220.8984 H   0  0  0  0  0  0  0  0  0  0  0  0
  142.7665   78.7628  218.8703 H   0  0  0  0  0  0  0  0  0  0  0  0
  143.6686   77.3115  219.2926 H   0  0  0  0  0  0  0  0  0  0  0  0
  141.2033   77.2432  217.4132 H   0  0  0  0  0  0  0  0  0  0  0  0
  142.8308   77.4798  216.7697 H   0  0  0  0  0  0  0  0  0  0  0  0
  142.1195   75.0677  216.8697 H   0  0  0  0  0  0  0  0  0  0  0  0
  143.6065   75.4598  217.8833 H   0  0  0  0  0  0  0  0  0  0  0  0
  140.9597   74.4924  218.6255 H   0  0  0  0  0  0  0  0  0  0  0  0
  144.2170   75.2628  220.3558 H   0  0  0  0  0  0  0  0  0  0  0  0
  145.2897   71.1452  220.8060 H   0  0  0  0  0  0  0  0  0  0  0  0
  141.6997   72.2356  218.7019 H   0  0  0  0  0  0  0  0  0  0  0  0
  139.2281   69.6345  222.6962 H   0  0  0  0  0  0  0  0  0  0  0  0
  139.0306   68.3805  224.8565 H   0  0  0  0  0  0  0  0  0  0  0  0
  139.3800   68.2361  227.1957 H   0  0  0  0  0  0  0  0  0  0  0  0
  140.2474   69.2597  229.2951 H   0  0  0  0  0  0  0  0  0  0  0  0
  141.2957   71.4901  229.2795 H   0  0  0  0  0  0  0  0  0  0  0  0
  141.5108   72.7554  227.1536 H   0  0  0  0  0  0  0  0  0  0  0  0
  1  2  2  0
  2  3  1  0
  3  4  1  0
  4  5  1  0
  5  6  2  0
  5  7  1  0
  7  8  1  0
  8  9  1  0
  9 10  1  0
 10 11  1  0
 11 12  1  0
 12 13  1  0
 13 14  2  0
 14 15  1  0
 15 16  1  0
 15 17  2  0
 17 18  1  0
 18 19  1  0
 18 20  2  0
  2 21  1  0
 21 22  2  0
 22 23  1  0
 23 24  2  0
 24 25  1  0
 25 26  2  0
 26 27  1  0
 27 28  2  0
 28 29  1  0
 29 30  2  0
 12  7  1  0
 20 13  1  0
 30 21  1  0
 29 24  1  0
  3 31  1  0
  4 32  1  0
  4 33  1  0
  8 34  1  0
  8 35  1  0
  9 36  1  0
  9 37  1  0
 10 38  1  0
 10 39  1  0
 11 40  1  0
 11 41  1  0
 12 42  1  6
 14 43  1  0
 17 44  1  0
 20 45  1  0
 22 46  1  0
 23 47  1  0
 25 48  1  0
 26 49  1  0
 27 50  1  0
 28 51  1  0
M  END
>  <smiles>  (84) 
O=C(NCC(=O)N1CCCCC1c1cc(Cl)cc(Cl)c1)c1ccc2ccccc2n1

>  <score_type>  (84) 
oracle

>  <origin>  (84) 
autodockgpu

>  <m_score__min__energy>  (84) 
-9.4399999999999995

>  <m_primary>  (84) 
energy

>  <rmsd>  (84) 
2.2656952386647373

>  <m_score__min__rmsd>  (84) 
2.2656952386647373

>  <meeko>  (84) 
{"free_energy": -8.96, "intermolecular_energy": -10.45, "internal_energy": -2.2, "cluster_size": 22, "cluster_id": 2, "rank_in_cluster": 8}

>  <energy>  (84) 
-8.5

>  <cluster_rmsd>  (84) 
0.05

>  <cluster>  (84) 
3

$$$$

     RDKit          3D

 51 54  0  0  0  0  0  0  0  0999 V2000
  140.6630   71.3730  221.3330 O   0  0  0  0  0  0  0  0  0  0  0  0
  140.2720   71.9190  222.3970 C   0  0  0  0  0  0  0  0  0  0  0  0
  139.9370   73.3150  222.3190 N   0  0  0  0  0  0  0  0  0  0  0  0
  140.0800   73.9530  221.0370 C   0  0  0  0  0  0  0  0  0  0  0  0
  140.7850   75.2700  221.1580 C   0  0  0  0  0  0  0  0  0  0  0  0
  140.8290   75.7750  222.3090 O   0  0  0  0  0  0  0  0  0  0  0  0
  141.3620   75.8840  220.0110 N   0  0  0  0  0  0  0  0  0  0  0  0
  141.4550   77.3300  219.9600 C   0  0  0  0  0  0  0  0  0  0  0  0
  142.5770   77.7440  219.0450 C   0  0  0  0  0  0  0  0  0  0  0  0
  142.1920   77.1600  217.6790 C   0  0  0  0  0  0  0  0  0  0  0  0
  142.4520   75.6790  217.7940 C   0  0  0  0  0  0  0  0  0  0  0  0
  141.8220   75.0120  218.9570 C   0  0  1  0  0  0  0  0  0  0  0  0
  142.7530   73.9620  219.4580 C   0  0  0  0  0  0  0  0  0  0  0  0
  142.5070   72.6120  219.3020 C   0  0  0  0  0  0  0  0  0  0  0  0
  143.3520   71.6270  219.7540 C   0  0  0  0  0  0  0  0  0  0  0  0
  143.0120   69.9160  219.5400 Cl  0  0  0  0  0  0  0  0  0  0  0  0
  144.5200   71.9770  220.4050 C   0  0  0  0  0  0  0  0  0  0  0  0
  144.8100   73.3260  220.5850 C   0  0  0  0  0  0  0  0  0  0  0  0
  146.3050   73.7670  221.4180 Cl  0  0  0  0  0  0  0  0  0  0  0  0
  143.9380   74.2910  220.1180 C   0  0  0  0  0  0  0  0  0  0  0  0
  140.1510   71.2090  223.6660 C   0  0  0  0  0  0  0  0  0  0  0  0
  139.5690   69.9480  223.6190 C   0  0  0  0  0  0  0  0  0  0  0  0
  139.4550   69.2770  224.8200 C   0  0  0  0  0  0  0  0  0  0  0  0
  139.9040   69.8570  225.9890 C   0  0  0  0  0  0  0  0  0  0  0  0
  139.7750   69.1630  227.1720 C   0  0  0  0  0  0  0  0  0  0  0  0
  140.2330   69.7610  228.3380 C   0  0  0  0  0  0  0  0  0  0  0  0
  140.8030   71.0170  228.3270 C   0  0  0  0  0  0  0  0  0  0  0  0
  140.9310   71.7090  227.1510 C   0  0  0  0  0  0  0  0  0  0  0  0
  140.4760   71.1120  225.9930 C   0  0  0  0  0  0  0  0  0  0  0  0
  140.5810   71.7550  224.8160 N   0  0  0  0  0  0  0  0  0  0  0  0
  139.6020   73.8300  223.1830 H   0  0  0  0  0  0  0  0  0  0  0  0
  140.6605   73.2958  220.3728 H   0  0  0  0  0  0  0  0  0  0  0  0
  139.0758   74.1340  220.6261 H   0  0  0  0  0  0  0  0  0  0  0  0
  140.5073   77.7426  219.5835 H   0  0  0  0  0  0  0  0  0  0  0  0
  141.6546   77.7140  220.9713 H   0  0  0  0  0  0  0  0  0  0  0  0
  142.6518   78.8402  218.9924 H   0  0  0  0  0  0  0  0  0  0  0  0
  143.5563   77.3841  219.3935 H   0  0  0  0  0  0  0  0  0  0  0  0
  141.1300   77.3495  217.4640 H   0  0  0  0  0  0  0  0  0  0  0  0
  142.7679   77.6159  216.8602 H   0  0  0  0  0  0  0  0  0  0  0  0
  142.0747   75.1962  216.8804 H   0  0  0  0  0  0  0  0  0  0  0  0
  143.5377   75.5718  217.9344 H   0  0  0  0  0  0  0  0  0  0  0  0
  140.8845   74.5636  218.5963 H   0  0  0  0  0  0  0  0  0  0  0  0
  141.5834   72.3083  218.7874 H   0  0  0  0  0  0  0  0  0  0  0  0
  145.2083   71.2026  220.7744 H   0  0  0  0  0  0  0  0  0  0  0  0
  144.1856   75.3518  220.2712 H   0  0  0  0  0  0  0  0  0  0  0  0
  139.2175   69.5076  222.6743 H   0  0  0  0  0  0  0  0  0  0  0  0
  139.0036   68.2742  224.8454 H   0  0  0  0  0  0  0  0  0  0  0  0
  139.3210   68.1613  227.1921 H   0  0  0  0  0  0  0  0  0  0  0  0
  140.1393   69.2213  229.2919 H   0  0  0  0  0  0  0  0  0  0  0  0
  141.1567   71.4656  229.2670 H   0  0  0  0  0  0  0  0  0  0  0  0
  141.3834   72.7115  227.1307 H   0  0  0  0  0  0  0  0  0  0  0  0
  1  2  2  0
  2  3  1  0
  3  4  1  0
  4  5  1  0
  5  6  2  0
  5  7  1  0
  7  8  1  0
  8  9  1  0
  9 10  1  0
 10 11  1  0
 11 12  1  0
 12 13  1  0
 13 14  2  0
 14 15  1  0
 15 16  1  0
 15 17  2  0
 17 18  1  0
 18 19  1  0
 18 20  2  0
  2 21  1  0
 21 22  2  0
 22 23  1  0
 23 24  2  0
 24 25  1  0
 25 26  2  0
 26 27  1  0
 27 28  2  0
 28 29  1  0
 29 30  2  0
 12  7  1  0
 20 13  1  0
 30 21  1  0
 29 24  1  0
  3 31  1  0
  4 32  1  0
  4 33  1  0
  8 34  1  0
  8 35  1  0
  9 36  1  0
  9 37  1  0
 10 38  1  0
 10 39  1  0
 11 40  1  0
 11 41  1  0
 12 42  1  6
 14 43  1  0
 17 44  1  0
 20 45  1  0
 22 46  1  0
 23 47  1  0
 25 48  1  0
 26 49  1  0
 27 50  1  0
 28 51  1  0
M  END
>  <smiles>  (85) 
O=C(NCC(=O)N1CCCCC1c1cc(Cl)cc(Cl)c1)c1ccc2ccccc2n1

>  <score_type>  (85) 
oracle

>  <origin>  (85) 
autodockgpu

>  <m_score__min__energy>  (85) 
-9.4399999999999995

>  <m_primary>  (85) 
energy

>  <rmsd>  (85) 
2.2283623302424225

>  <m_score__min__rmsd>  (85) 
2.2283623302424225

>  <meeko>  (85) 
{"free_energy": -8.92, "intermolecular_energy": -10.41, "internal_energy": -2.25, "cluster_size": 22, "cluster_id": 2, "rank_in_cluster": 17}

>  <energy>  (85) 
-8.5

>  <cluster_rmsd>  (85) 
0.04

>  <cluster>  (85) 
3

$$$$

     RDKit          3D

 51 54  0  0  0  0  0  0  0  0999 V2000
  140.7230   71.5510  221.3470 O   0  0  0  0  0  0  0  0  0  0  0  0
  140.2990   72.0790  222.4070 C   0  0  0  0  0  0  0  0  0  0  0  0
  139.9160   73.4620  222.3280 N   0  0  0  0  0  0  0  0  0  0  0  0
  140.0530   74.1100  221.0500 C   0  0  0  0  0  0  0  0  0  0  0  0
  140.7590   75.4250  221.1780 C   0  0  0  0  0  0  0  0  0  0  0  0
  141.0540   75.7890  222.3450 O   0  0  0  0  0  0  0  0  0  0  0  0
  141.0620   76.1940  220.0190 N   0  0  0  0  0  0  0  0  0  0  0  0
  140.5170   75.7830  218.7400 C   0  0  0  0  0  0  0  0  0  0  0  0
  140.4170   76.9680  217.8150 C   0  0  0  0  0  0  0  0  0  0  0  0
  141.8620   77.4650  217.6730 C   0  0  0  0  0  0  0  0  0  0  0  0
  142.1750   78.1500  218.9800 C   0  0  0  0  0  0  0  0  0  0  0  0
  141.9080   77.3500  220.1970 C   0  0  1  0  0  0  0  0  0  0  0  0
  141.4010   78.2640  221.2590 C   0  0  0  0  0  0  0  0  0  0  0  0
  142.2380   79.0450  222.0320 C   0  0  0  0  0  0  0  0  0  0  0  0
  141.7920   79.8950  223.0150 C   0  0  0  0  0  0  0  0  0  0  0  0
  142.8820   80.8780  223.9830 Cl  0  0  0  0  0  0  0  0  0  0  0  0
  140.4370   79.9940  223.2670 C   0  0  0  0  0  0  0  0  0  0  0  0
  139.5560   79.2250  222.5130 C   0  0  0  0  0  0  0  0  0  0  0  0
  137.8240   79.3570  222.8410 Cl  0  0  0  0  0  0  0  0  0  0  0  0
  140.0380   78.3800  221.5320 C   0  0  0  0  0  0  0  0  0  0  0  0
  140.1850   71.3610  223.6720 C   0  0  0  0  0  0  0  0  0  0  0  0
  139.5660   70.1170  223.6270 C   0  0  0  0  0  0  0  0  0  0  0  0
  139.4600   69.4400  224.8250 C   0  0  0  0  0  0  0  0  0  0  0  0
  139.9500   69.9960  225.9880 C   0  0  0  0  0  0  0  0  0  0  0  0
  139.8280   69.2940  227.1680 C   0  0  0  0  0  0  0  0  0  0  0  0
  140.3280   69.8680  228.3280 C   0  0  0  0  0  0  0  0  0  0  0  0
  140.9340   71.1080  228.3160 C   0  0  0  0  0  0  0  0  0  0  0  0
  141.0560   71.8060  227.1430 C   0  0  0  0  0  0  0  0  0  0  0  0
  140.5580   71.2330  225.9910 C   0  0  0  0  0  0  0  0  0  0  0  0
  140.6560   71.8830  224.8170 N   0  0  0  0  0  0  0  0  0  0  0  0
  139.5510   73.9630  223.1890 H   0  0  0  0  0  0  0  0  0  0  0  0
  140.6299   73.4578  220.3778 H   0  0  0  0  0  0  0  0  0  0  0  0
  139.0469   74.2946  220.6453 H   0  0  0  0  0  0  0  0  0  0  0  0
  141.1755   75.0251  218.2905 H   0  0  0  0  0  0  0  0  0  0  0  0
  139.5128   75.3616  218.8952 H   0  0  0  0  0  0  0  0  0  0  0  0
  140.0116   76.6660  216.8381 H   0  0  0  0  0  0  0  0  0  0  0  0
  139.7424   77.7459  218.2019 H   0  0  0  0  0  0  0  0  0  0  0  0
  142.5461   76.6197  217.5070 H   0  0  0  0  0  0  0  0  0  0  0  0
  141.9811   78.1427  216.8148 H   0  0  0  0  0  0  0  0  0  0  0  0
  143.2423   78.4162  218.9764 H   0  0  0  0  0  0  0  0  0  0  0  0
  141.5025   79.0187  219.0352 H   0  0  0  0  0  0  0  0  0  0  0  0
  142.8651   76.8973  220.4953 H   0  0  0  0  0  0  0  0  0  0  0  0
  143.3212   78.9830  221.8506 H   0  0  0  0  0  0  0  0  0  0  0  0
  140.0613   80.6690  224.0501 H   0  0  0  0  0  0  0  0  0  0  0  0
  139.3247   77.7800  220.9480 H   0  0  0  0  0  0  0  0  0  0  0  0
  139.1813   69.6949  222.6869 H   0  0  0  0  0  0  0  0  0  0  0  0
  138.9813   68.4500  224.8524 H   0  0  0  0  0  0  0  0  0  0  0  0
  139.3470   68.3050  227.1894 H   0  0  0  0  0  0  0  0  0  0  0  0
  140.2394   69.3223  229.2790 H   0  0  0  0  0  0  0  0  0  0  0  0
  141.3207   71.5378  229.2518 H   0  0  0  0  0  0  0  0  0  0  0  0
  141.5372   72.7949  227.1206 H   0  0  0  0  0  0  0  0  0  0  0  0
  1  2  2  0
  2  3  1  0
  3  4  1  0
  4  5  1  0
  5  6  2  0
  5  7  1  0
  7  8  1  0
  8  9  1  0
  9 10  1  0
 10 11  1  0
 11 12  1  0
 12 13  1  0
 13 14  2  0
 14 15  1  0
 15 16  1  0
 15 17  2  0
 17 18  1  0
 18 19  1  0
 18 20  2  0
  2 21  1  0
 21 22  2  0
 22 23  1  0
 23 24  2  0
 24 25  1  0
 25 26  2  0
 26 27  1  0
 27 28  2  0
 28 29  1  0
 29 30  2  0
 12  7  1  0
 20 13  1  0
 30 21  1  0
 29 24  1  0
  3 31  1  0
  4 32  1  0
  4 33  1  0
  8 34  1  0
  8 35  1  0
  9 36  1  0
  9 37  1  0
 10 38  1  0
 10 39  1  0
 11 40  1  0
 11 41  1  0
 12 42  1  1
 14 43  1  0
 17 44  1  0
 20 45  1  0
 22 46  1  0
 23 47  1  0
 25 48  1  0
 26 49  1  0
 27 50  1  0
 28 51  1  0
M  END
>  <smiles>  (86) 
O=C(NCC(=O)N1CCCCC1c1cc(Cl)cc(Cl)c1)c1ccc2ccccc2n1

>  <score_type>  (86) 
oracle

>  <origin>  (86) 
autodockgpu

>  <m_score__min__energy>  (86) 
-9.4399999999999995

>  <m_primary>  (86) 
energy

>  <rmsd>  (86) 
1.486680247448168

>  <m_score__min__rmsd>  (86) 
1.486680247448168

>  <meeko>  (86) 
{"free_energy": -9.44, "intermolecular_energy": -10.93, "internal_energy": -1.51, "cluster_size": 7, "cluster_id": 1, "rank_in_cluster": 1}

>  <energy>  (86) 
-8.5

>  <cluster_rmsd>  (86) 
0.05

>  <cluster>  (86) 
3

$$$$

     RDKit          3D

 51 54  0  0  0  0  0  0  0  0999 V2000
  140.6070   71.7530  221.1850 O   0  0  0  0  0  0  0  0  0  0  0  0
  140.1980   72.2020  222.2870 C   0  0  0  0  0  0  0  0  0  0  0  0
  139.7850   73.5790  222.3080 N   0  0  0  0  0  0  0  0  0  0  0  0
  139.8760   74.3110  221.0720 C   0  0  0  0  0  0  0  0  0  0  0  0
  141.0050   75.2950  221.1040 C   0  0  0  0  0  0  0  0  0  0  0  0
  141.4380   75.6120  222.2420 O   0  0  0  0  0  0  0  0  0  0  0  0
  141.5330   75.8230  219.8920 N   0  0  0  0  0  0  0  0  0  0  0  0
  141.6390   77.2600  219.7370 C   0  0  0  0  0  0  0  0  0  0  0  0
  142.7200   77.5960  218.7440 C   0  0  0  0  0  0  0  0  0  0  0  0
  142.2640   76.9250  217.4410 C   0  0  0  0  0  0  0  0  0  0  0  0
  142.5150   75.4520  217.6460 C   0  0  0  0  0  0  0  0  0  0  0  0
  141.9340   74.8750  218.8800 C   0  0  1  0  0  0  0  0  0  0  0  0
  142.8770   73.8480  219.4080 C   0  0  0  0  0  0  0  0  0  0  0  0
  144.0130   74.1760  220.1200 C   0  0  0  0  0  0  0  0  0  0  0  0
  144.8950   73.2470  220.6160 C   0  0  0  0  0  0  0  0  0  0  0  0
  146.3340   73.6950  221.5210 Cl  0  0  0  0  0  0  0  0  0  0  0  0
  144.6570   71.9010  220.4060 C   0  0  0  0  0  0  0  0  0  0  0  0
  143.5230   71.5230  219.6930 C   0  0  0  0  0  0  0  0  0  0  0  0
  143.2250   69.8020  219.4270 Cl  0  0  0  0  0  0  0  0  0  0  0  0
  142.6580   72.4840  219.2070 C   0  0  0  0  0  0  0  0  0  0  0  0
  140.1310   71.4010  223.5050 C   0  0  0  0  0  0  0  0  0  0  0  0
  139.5500   70.1430  223.3900 C   0  0  0  0  0  0  0  0  0  0  0  0
  139.4880   69.3860  224.5430 C   0  0  0  0  0  0  0  0  0  0  0  0
  139.9830   69.8820  225.7310 C   0  0  0  0  0  0  0  0  0  0  0  0
  139.9040   69.1030  226.8640 C   0  0  0  0  0  0  0  0  0  0  0  0
  140.4080   69.6170  228.0510 C   0  0  0  0  0  0  0  0  0  0  0  0
  140.9740   70.8740  228.1090 C   0  0  0  0  0  0  0  0  0  0  0  0
  141.0510   71.6510  226.9820 C   0  0  0  0  0  0  0  0  0  0  0  0
  140.5510   71.1360  225.8040 C   0  0  0  0  0  0  0  0  0  0  0  0
  140.6060   71.8640  224.6730 N   0  0  0  0  0  0  0  0  0  0  0  0
  139.4300   74.0140  223.2080 H   0  0  0  0  0  0  0  0  0  0  0  0
  140.0417   73.6023  220.2472 H   0  0  0  0  0  0  0  0  0  0  0  0
  138.9368   74.8648  220.9266 H   0  0  0  0  0  0  0  0  0  0  0  0
  140.6788   77.6589  219.3781 H   0  0  0  0  0  0  0  0  0  0  0  0
  141.8914   77.7089  220.7090 H   0  0  0  0  0  0  0  0  0  0  0  0
  142.8030   78.6850  218.6126 H   0  0  0  0  0  0  0  0  0  0  0  0
  143.7113   77.2481  219.0699 H   0  0  0  0  0  0  0  0  0  0  0  0
  141.1948   77.1131  217.2639 H   0  0  0  0  0  0  0  0  0  0  0  0
  142.8040   77.3163  216.5662 H   0  0  0  0  0  0  0  0  0  0  0  0
  142.0906   74.9125  216.7865 H   0  0  0  0  0  0  0  0  0  0  0  0
  143.6050   75.3406  217.7430 H   0  0  0  0  0  0  0  0  0  0  0  0
  140.9756   74.4163  218.5952 H   0  0  0  0  0  0  0  0  0  0  0  0
  144.2238   75.2405  220.3003 H   0  0  0  0  0  0  0  0  0  0  0  0
  145.3517   71.1424  220.7957 H   0  0  0  0  0  0  0  0  0  0  0  0
  141.7687   72.1645  218.6439 H   0  0  0  0  0  0  0  0  0  0  0  0
  139.1604   69.7706  222.4311 H   0  0  0  0  0  0  0  0  0  0  0  0
  139.0412   68.3813  224.5140 H   0  0  0  0  0  0  0  0  0  0  0  0
  139.4535   68.1001  226.8293 H   0  0  0  0  0  0  0  0  0  0  0  0
  140.3549   69.0085  228.9658 H   0  0  0  0  0  0  0  0  0  0  0  0
  141.3653   71.2546  229.0640 H   0  0  0  0  0  0  0  0  0  0  0  0
  141.4983   72.6554  227.0161 H   0  0  0  0  0  0  0  0  0  0  0  0
  1  2  2  0
  2  3  1  0
  3  4  1  0
  4  5  1  0
  5  6  2  0
  5  7  1  0
  7  8  1  0
  8  9  1  0
  9 10  1  0
 10 11  1  0
 11 12  1  0
 12 13  1  0
 13 14  2  0
 14 15  1  0
 15 16  1  0
 15 17  2  0
 17 18  1  0
 18 19  1  0
 18 20  2  0
  2 21  1  0
 21 22  2  0
 22 23  1  0
 23 24  2  0
 24 25  1  0
 25 26  2  0
 26 27  1  0
 27 28  2  0
 28 29  1  0
 29 30  2  0
 12  7  1  0
 20 13  1  0
 30 21  1  0
 29 24  1  0
  3 31  1  0
  4 32  1  0
  4 33  1  0
  8 34  1  0
  8 35  1  0
  9 36  1  0
  9 37  1  0
 10 38  1  0
 10 39  1  0
 11 40  1  0
 11 41  1  0
 12 42  1  6
 14 43  1  0
 17 44  1  0
 20 45  1  0
 22 46  1  0
 23 47  1  0
 25 48  1  0
 26 49  1  0
 27 50  1  0
 28 51  1  0
M  END
>  <smiles>  (87) 
O=C(NCC(=O)N1CCCCC1c1cc(Cl)cc(Cl)c1)c1ccc2ccccc2n1

>  <score_type>  (87) 
oracle

>  <origin>  (87) 
autodockgpu

>  <m_score__min__energy>  (87) 
-9.4399999999999995

>  <m_primary>  (87) 
energy

>  <rmsd>  (87) 
2.233909796611562

>  <m_score__min__rmsd>  (87) 
2.233909796611562

>  <meeko>  (87) 
{"free_energy": -8.68, "intermolecular_energy": -10.18, "internal_energy": -2.18, "cluster_size": 22, "cluster_id": 2, "rank_in_cluster": 21}

>  <energy>  (87) 
-8.5

>  <cluster_rmsd>  (87) 
0.05

>  <cluster>  (87) 
3

$$$$

     RDKit          3D

 51 54  0  0  0  0  0  0  0  0999 V2000
  140.5880   71.3720  221.3330 O   0  0  0  0  0  0  0  0  0  0  0  0
  140.2210   71.9200  222.4040 C   0  0  0  0  0  0  0  0  0  0  0  0
  139.9060   73.3210  222.3350 N   0  0  0  0  0  0  0  0  0  0  0  0
  140.0380   73.9610  221.0530 C   0  0  0  0  0  0  0  0  0  0  0  0
  140.7660   75.2660  221.1680 C   0  0  0  0  0  0  0  0  0  0  0  0
  140.8300   75.7700  222.3190 O   0  0  0  0  0  0  0  0  0  0  0  0
  141.3420   75.8720  220.0150 N   0  0  0  0  0  0  0  0  0  0  0  0
  141.4390   77.3170  219.9550 C   0  0  0  0  0  0  0  0  0  0  0  0
  142.5600   77.7220  219.0330 C   0  0  0  0  0  0  0  0  0  0  0  0
  142.1680   77.1300  217.6720 C   0  0  0  0  0  0  0  0  0  0  0  0
  142.4230   75.6490  217.7960 C   0  0  0  0  0  0  0  0  0  0  0  0
  141.7950   74.9920  218.9650 C   0  0  1  0  0  0  0  0  0  0  0  0
  142.7240   73.9410  219.4690 C   0  0  0  0  0  0  0  0  0  0  0  0
  142.4710   72.5910  219.3250 C   0  0  0  0  0  0  0  0  0  0  0  0
  143.3140   71.6060  219.7800 C   0  0  0  0  0  0  0  0  0  0  0  0
  142.9650   69.8940  219.5830 Cl  0  0  0  0  0  0  0  0  0  0  0  0
  144.4870   71.9560  220.4220 C   0  0  0  0  0  0  0  0  0  0  0  0
  144.7840   73.3050  220.5890 C   0  0  0  0  0  0  0  0  0  0  0  0
  146.2860   73.7460  221.4100 Cl  0  0  0  0  0  0  0  0  0  0  0  0
  143.9140   74.2700  220.1190 C   0  0  0  0  0  0  0  0  0  0  0  0
  140.1090   71.2080  223.6720 C   0  0  0  0  0  0  0  0  0  0  0  0
  139.5500   69.9360  223.6230 C   0  0  0  0  0  0  0  0  0  0  0  0
  139.4440   69.2630  224.8240 C   0  0  0  0  0  0  0  0  0  0  0  0
  139.8780   69.8510  225.9940 C   0  0  0  0  0  0  0  0  0  0  0  0
  139.7570   69.1540  227.1770 C   0  0  0  0  0  0  0  0  0  0  0  0
  140.2000   69.7600  228.3440 C   0  0  0  0  0  0  0  0  0  0  0  0
  140.7460   71.0270  228.3360 C   0  0  0  0  0  0  0  0  0  0  0  0
  140.8660   71.7210  227.1600 C   0  0  0  0  0  0  0  0  0  0  0  0
  140.4260   71.1160  226.0010 C   0  0  0  0  0  0  0  0  0  0  0  0
  140.5240   71.7610  224.8240 N   0  0  0  0  0  0  0  0  0  0  0  0
  139.5900   73.8380  223.2060 H   0  0  0  0  0  0  0  0  0  0  0  0
  140.5970   73.2972  220.3770 H   0  0  0  0  0  0  0  0  0  0  0  0
  139.0304   74.1592  220.6586 H   0  0  0  0  0  0  0  0  0  0  0  0
  140.4913   77.7301  219.5792 H   0  0  0  0  0  0  0  0  0  0  0  0
  141.6430   77.7067  220.9632 H   0  0  0  0  0  0  0  0  0  0  0  0
  142.6380   78.8176  218.9730 H   0  0  0  0  0  0  0  0  0  0  0  0
  143.5395   77.3616  219.3805 H   0  0  0  0  0  0  0  0  0  0  0  0
  141.1059   77.3219  217.4595 H   0  0  0  0  0  0  0  0  0  0  0  0
  142.7427   77.5783  216.8481 H   0  0  0  0  0  0  0  0  0  0  0  0
  142.0409   75.1616  216.8869 H   0  0  0  0  0  0  0  0  0  0  0  0
  143.5088   75.5389  217.9336 H   0  0  0  0  0  0  0  0  0  0  0  0
  140.8544   74.5451  218.6106 H   0  0  0  0  0  0  0  0  0  0  0  0
  141.5432   72.2875  218.8180 H   0  0  0  0  0  0  0  0  0  0  0  0
  145.1737   71.1815  220.7944 H   0  0  0  0  0  0  0  0  0  0  0  0
  144.1675   75.3308  220.2617 H   0  0  0  0  0  0  0  0  0  0  0  0
  139.2100   69.4892  222.6771 H   0  0  0  0  0  0  0  0  0  0  0  0
  139.0110   68.2521  224.8480 H   0  0  0  0  0  0  0  0  0  0  0  0
  139.3209   68.1443  227.1955 H   0  0  0  0  0  0  0  0  0  0  0  0
  140.1139   69.2179  229.2972 H   0  0  0  0  0  0  0  0  0  0  0  0
  141.0866   71.4823  229.2776 H   0  0  0  0  0  0  0  0  0  0  0  0
  141.3007   72.7313  227.1410 H   0  0  0  0  0  0  0  0  0  0  0  0
  1  2  2  0
  2  3  1  0
  3  4  1  0
  4  5  1  0
  5  6  2  0
  5  7  1  0
  7  8  1  0
  8  9  1  0
  9 10  1  0
 10 11  1  0
 11 12  1  0
 12 13  1  0
 13 14  2  0
 14 15  1  0
 15 16  1  0
 15 17  2  0
 17 18  1  0
 18 19  1  0
 18 20  2  0
  2 21  1  0
 21 22  2  0
 22 23  1  0
 23 24  2  0
 24 25  1  0
 25 26  2  0
 26 27  1  0
 27 28  2  0
 28 29  1  0
 29 30  2  0
 12  7  1  0
 20 13  1  0
 30 21  1  0
 29 24  1  0
  3 31  1  0
  4 32  1  0
  4 33  1  0
  8 34  1  0
  8 35  1  0
  9 36  1  0
  9 37  1  0
 10 38  1  0
 10 39  1  0
 11 40  1  0
 11 41  1  0
 12 42  1  6
 14 43  1  0
 17 44  1  0
 20 45  1  0
 22 46  1  0
 23 47  1  0
 25 48  1  0
 26 49  1  0
 27 50  1  0
 28 51  1  0
M  END
>  <smiles>  (88) 
O=C(NCC(=O)N1CCCCC1c1cc(Cl)cc(Cl)c1)c1ccc2ccccc2n1

>  <score_type>  (88) 
oracle

>  <origin>  (88) 
autodockgpu

>  <m_score__min__energy>  (88) 
-9.4399999999999995

>  <m_primary>  (88) 
energy

>  <rmsd>  (88) 
2.2136948524107196

>  <m_score__min__rmsd>  (88) 
2.2136948524107196

>  <meeko>  (88) 
{"free_energy": -8.89, "intermolecular_energy": -10.38, "internal_energy": -2.27, "cluster_size": 22, "cluster_id": 2, "rank_in_cluster": 18}

>  <energy>  (88) 
-8.5

>  <cluster_rmsd>  (88) 
0.06

>  <cluster>  (88) 
3

$$$$

     RDKit          3D

 51 54  0  0  0  0  0  0  0  0999 V2000
  140.7280   71.4090  221.3390 O   0  0  0  0  0  0  0  0  0  0  0  0
  140.3140   71.9520  222.3960 C   0  0  0  0  0  0  0  0  0  0  0  0
  139.9590   73.3420  222.3090 N   0  0  0  0  0  0  0  0  0  0  0  0
  140.1090   73.9800  221.0280 C   0  0  0  0  0  0  0  0  0  0  0  0
  140.8110   75.2970  221.1530 C   0  0  0  0  0  0  0  0  0  0  0  0
  140.8600   75.7960  222.3060 O   0  0  0  0  0  0  0  0  0  0  0  0
  141.3790   75.9210  220.0060 N   0  0  0  0  0  0  0  0  0  0  0  0
  141.4650   77.3670  219.9620 C   0  0  0  0  0  0  0  0  0  0  0  0
  142.5810   77.7920  219.0430 C   0  0  0  0  0  0  0  0  0  0  0  0
  142.1910   77.2130  217.6760 C   0  0  0  0  0  0  0  0  0  0  0  0
  142.4590   75.7320  217.7820 C   0  0  0  0  0  0  0  0  0  0  0  0
  141.8380   75.0560  218.9450 C   0  0  1  0  0  0  0  0  0  0  0  0
  142.7770   74.0070  219.4350 C   0  0  0  0  0  0  0  0  0  0  0  0
  143.9460   74.3080  220.1050 C   0  0  0  0  0  0  0  0  0  0  0  0
  144.8250   73.3580  220.5660 C   0  0  0  0  0  0  0  0  0  0  0  0
  146.3070   73.7710  221.4160 Cl  0  0  0  0  0  0  0  0  0  0  0  0
  144.5490   72.0190  220.3620 C   0  0  0  0  0  0  0  0  0  0  0  0
  143.3800   71.6680  219.6920 C   0  0  0  0  0  0  0  0  0  0  0  0
  143.0340   69.9540  219.4350 Cl  0  0  0  0  0  0  0  0  0  0  0  0
  142.5190   72.6500  219.2410 C   0  0  0  0  0  0  0  0  0  0  0  0
  140.1860   71.2440  223.6650 C   0  0  0  0  0  0  0  0  0  0  0  0
  139.5560   70.0050  223.6250 C   0  0  0  0  0  0  0  0  0  0  0  0
  139.4360   69.3360  224.8260 C   0  0  0  0  0  0  0  0  0  0  0  0
  139.9240   69.8960  225.9890 C   0  0  0  0  0  0  0  0  0  0  0  0
  139.7870   69.2030  227.1720 C   0  0  0  0  0  0  0  0  0  0  0  0
  140.2850   69.7810  228.3320 C   0  0  0  0  0  0  0  0  0  0  0  0
  140.9010   71.0150  228.3160 C   0  0  0  0  0  0  0  0  0  0  0  0
  141.0360   71.7050  227.1390 C   0  0  0  0  0  0  0  0  0  0  0  0
  140.5420   71.1280  225.9870 C   0  0  0  0  0  0  0  0  0  0  0  0
  140.6530   71.7700  224.8100 N   0  0  0  0  0  0  0  0  0  0  0  0
  139.6040   73.8550  223.1670 H   0  0  0  0  0  0  0  0  0  0  0  0
  140.6944   73.3235  220.3675 H   0  0  0  0  0  0  0  0  0  0  0  0
  139.1071   74.1597  220.6110 H   0  0  0  0  0  0  0  0  0  0  0  0
  140.5135   77.7769  219.5925 H   0  0  0  0  0  0  0  0  0  0  0  0
  141.6682   77.7464  220.9743 H   0  0  0  0  0  0  0  0  0  0  0  0
  142.6501   78.8888  218.9958 H   0  0  0  0  0  0  0  0  0  0  0  0
  143.5641   77.4356  219.3844 H   0  0  0  0  0  0  0  0  0  0  0  0
  141.1269   77.3984  217.4680 H   0  0  0  0  0  0  0  0  0  0  0  0
  142.7600   77.6759  216.8562 H   0  0  0  0  0  0  0  0  0  0  0  0
  142.0795   75.2520  216.8679 H   0  0  0  0  0  0  0  0  0  0  0  0
  143.5459   75.6293  217.9162 H   0  0  0  0  0  0  0  0  0  0  0  0
  140.9004   74.6050  218.5878 H   0  0  0  0  0  0  0  0  0  0  0  0
  144.1870   75.3670  220.2794 H   0  0  0  0  0  0  0  0  0  0  0  0
  145.2411   71.2439  220.7228 H   0  0  0  0  0  0  0  0  0  0  0  0
  141.6014   72.3524  218.7124 H   0  0  0  0  0  0  0  0  0  0  0  0
  139.1733   69.5804  222.6852 H   0  0  0  0  0  0  0  0  0  0  0  0
  138.9484   68.3504  224.8565 H   0  0  0  0  0  0  0  0  0  0  0  0
  139.2965   68.2187  227.1967 H   0  0  0  0  0  0  0  0  0  0  0  0
  140.1860   69.2423  229.2859 H   0  0  0  0  0  0  0  0  0  0  0  0
  141.2856   71.4473  229.2515 H   0  0  0  0  0  0  0  0  0  0  0  0
  141.5242   72.6904  227.1137 H   0  0  0  0  0  0  0  0  0  0  0  0
  1  2  2  0
  2  3  1  0
  3  4  1  0
  4  5  1  0
  5  6  2  0
  5  7  1  0
  7  8  1  0
  8  9  1  0
  9 10  1  0
 10 11  1  0
 11 12  1  0
 12 13  1  0
 13 14  2  0
 14 15  1  0
 15 16  1  0
 15 17  2  0
 17 18  1  0
 18 19  1  0
 18 20  2  0
  2 21  1  0
 21 22  2  0
 22 23  1  0
 23 24  2  0
 24 25  1  0
 25 26  2  0
 26 27  1  0
 27 28  2  0
 28 29  1  0
 29 30  2  0
 12  7  1  0
 20 13  1  0
 30 21  1  0
 29 24  1  0
  3 31  1  0
  4 32  1  0
  4 33  1  0
  8 34  1  0
  8 35  1  0
  9 36  1  0
  9 37  1  0
 10 38  1  0
 10 39  1  0
 11 40  1  0
 11 41  1  0
 12 42  1  6
 14 43  1  0
 17 44  1  0
 20 45  1  0
 22 46  1  0
 23 47  1  0
 25 48  1  0
 26 49  1  0
 27 50  1  0
 28 51  1  0
M  END
>  <smiles>  (89) 
O=C(NCC(=O)N1CCCCC1c1cc(Cl)cc(Cl)c1)c1ccc2ccccc2n1

>  <score_type>  (89) 
oracle

>  <origin>  (89) 
autodockgpu

>  <m_score__min__energy>  (89) 
-9.4399999999999995

>  <m_primary>  (89) 
energy

>  <rmsd>  (89) 
2.24491625322052

>  <m_score__min__rmsd>  (89) 
2.24491625322052

>  <meeko>  (89) 
{"free_energy": -8.95, "intermolecular_energy": -10.44, "internal_energy": -2.22, "cluster_size": 22, "cluster_id": 2, "rank_in_cluster": 9}

>  <energy>  (89) 
-8.49

>  <cluster_rmsd>  (89) 
0.07

>  <cluster>  (89) 
3

$$$$

     RDKit          3D

 51 54  0  0  0  0  0  0  0  0999 V2000
  138.9270   75.2520  221.7180 O   0  0  0  0  0  0  0  0  0  0  0  0
  140.0490   75.7650  221.9610 C   0  0  0  0  0  0  0  0  0  0  0  0
  141.1970   74.9190  221.7770 N   0  0  0  0  0  0  0  0  0  0  0  0
  140.9560   73.5710  221.3330 C   0  0  0  0  0  0  0  0  0  0  0  0
  141.8040   73.2280  220.1460 C   0  0  0  0  0  0  0  0  0  0  0  0
  141.1910   72.9670  219.0790 O   0  0  0  0  0  0  0  0  0  0  0  0
  143.2230   73.2080  220.2590 N   0  0  0  0  0  0  0  0  0  0  0  0
  143.9190   71.9420  220.1470 C   0  0  0  0  0  0  0  0  0  0  0  0
  145.3350   72.1690  219.6850 C   0  0  0  0  0  0  0  0  0  0  0  0
  145.9550   73.0530  220.7750 C   0  0  0  0  0  0  0  0  0  0  0  0
  145.3630   74.4230  220.5580 C   0  0  0  0  0  0  0  0  0  0  0  0
  143.8840   74.4710  220.4830 C   0  0  1  0  0  0  0  0  0  0  0  0
  143.4970   75.4990  219.4760 C   0  0  0  0  0  0  0  0  0  0  0  0
  142.9190   76.7040  219.8240 C   0  0  0  0  0  0  0  0  0  0  0  0
  142.5560   77.6660  218.9130 C   0  0  0  0  0  0  0  0  0  0  0  0
  141.8220   79.1910  219.3880 Cl  0  0  0  0  0  0  0  0  0  0  0  0
  142.7690   77.4430  217.5660 C   0  0  0  0  0  0  0  0  0  0  0  0
  143.3500   76.2420  217.1680 C   0  0  0  0  0  0  0  0  0  0  0  0
  143.6200   75.9640  215.4430 Cl  0  0  0  0  0  0  0  0  0  0  0  0
  143.7030   75.2970  218.1110 C   0  0  0  0  0  0  0  0  0  0  0  0
  140.2230   77.1420  222.4100 C   0  0  0  0  0  0  0  0  0  0  0  0
  139.0610   77.8610  222.6710 C   0  0  0  0  0  0  0  0  0  0  0  0
  139.2270   79.1640  223.0960 C   0  0  0  0  0  0  0  0  0  0  0  0
  140.4910   79.6960  223.2420 C   0  0  0  0  0  0  0  0  0  0  0  0
  140.6220   81.0000  223.6660 C   0  0  0  0  0  0  0  0  0  0  0  0
  141.9020   81.5190  223.8080 C   0  0  0  0  0  0  0  0  0  0  0  0
  143.0210   80.7610  223.5330 C   0  0  0  0  0  0  0  0  0  0  0  0
  142.8920   79.4640  223.1100 C   0  0  0  0  0  0  0  0  0  0  0  0
  141.6190   78.9500  222.9710 C   0  0  0  0  0  0  0  0  0  0  0  0
  141.4440   77.6820  222.5580 N   0  0  0  0  0  0  0  0  0  0  0  0
  142.1710   75.2950  221.9670 H   0  0  0  0  0  0  0  0  0  0  0  0
  141.1902   72.8765  222.1532 H   0  0  0  0  0  0  0  0  0  0  0  0
  139.8991   73.4860  221.0403 H   0  0  0  0  0  0  0  0  0  0  0  0
  143.9317   71.4457  221.1286 H   0  0  0  0  0  0  0  0  0  0  0  0
  143.3982   71.3084  219.4140 H   0  0  0  0  0  0  0  0  0  0  0  0
  145.8757   71.2145  219.6037 H   0  0  0  0  0  0  0  0  0  0  0  0
  145.3817   72.6355  218.6899 H   0  0  0  0  0  0  0  0  0  0  0  0
  145.6937   72.6738  221.7740 H   0  0  0  0  0  0  0  0  0  0  0  0
  147.0534   73.0663  220.7178 H   0  0  0  0  0  0  0  0  0  0  0  0
  145.6817   75.0664  221.3913 H   0  0  0  0  0  0  0  0  0  0  0  0
  145.7276   74.7589  219.5761 H   0  0  0  0  0  0  0  0  0  0  0  0
  143.5242   74.7504  221.4842 H   0  0  0  0  0  0  0  0  0  0  0  0
  142.7392   76.9048  220.8905 H   0  0  0  0  0  0  0  0  0  0  0  0
  142.4845   78.2010  216.8213 H   0  0  0  0  0  0  0  0  0  0  0  0
  144.1612   74.3550  217.7753 H   0  0  0  0  0  0  0  0  0  0  0  0
  138.0633   77.4152  222.5455 H   0  0  0  0  0  0  0  0  0  0  0  0
  138.3450   79.7821  223.3197 H   0  0  0  0  0  0  0  0  0  0  0  0
  139.7362   81.6138  223.8862 H   0  0  0  0  0  0  0  0  0  0  0  0
  142.0264   82.5579  224.1474 H   0  0  0  0  0  0  0  0  0  0  0  0
  144.0223   81.2000  223.6539 H   0  0  0  0  0  0  0  0  0  0  0  0
  143.7775   78.8504  222.8877 H   0  0  0  0  0  0  0  0  0  0  0  0
  1  2  2  0
  2  3  1  0
  3  4  1  0
  4  5  1  0
  5  6  2  0
  5  7  1  0
  7  8  1  0
  8  9  1  0
  9 10  1  0
 10 11  1  0
 11 12  1  0
 12 13  1  0
 13 14  2  0
 14 15  1  0
 15 16  1  0
 15 17  2  0
 17 18  1  0
 18 19  1  0
 18 20  2  0
  2 21  1  0
 21 22  2  0
 22 23  1  0
 23 24  2  0
 24 25  1  0
 25 26  2  0
 26 27  1  0
 27 28  2  0
 28 29  1  0
 29 30  2  0
 12  7  1  0
 20 13  1  0
 30 21  1  0
 29 24  1  0
  3 31  1  0
  4 32  1  0
  4 33  1  0
  8 34  1  0
  8 35  1  0
  9 36  1  0
  9 37  1  0
 10 38  1  0
 10 39  1  0
 11 40  1  0
 11 41  1  0
 12 42  1  1
 14 43  1  0
 17 44  1  0
 20 45  1  0
 22 46  1  0
 23 47  1  0
 25 48  1  0
 26 49  1  0
 27 50  1  0
 28 51  1  0
M  END
>  <smiles>  (90) 
O=C(NCC(=O)N1CCCCC1c1cc(Cl)cc(Cl)c1)c1ccc2ccccc2n1

>  <score_type>  (90) 
oracle

>  <origin>  (90) 
autodockgpu

>  <m_score__min__energy>  (90) 
-9.4399999999999995

>  <m_primary>  (90) 
energy

>  <rmsd>  (90) 
7.707560864556981

>  <m_score__min__rmsd>  (90) 
7.707560864556981

>  <meeko>  (90) 
{"free_energy": -8.51, "intermolecular_energy": -10.0, "internal_energy": -2.74, "cluster_size": 19, "cluster_id": 3, "rank_in_cluster": 2}

>  <energy>  (90) 
-8.49

>  <cluster_rmsd>  (90) 
0.13

>  <cluster>  (90) 
3

$$$$

     RDKit          3D

 51 54  0  0  0  0  0  0  0  0999 V2000
  140.6820   71.4940  221.3570 O   0  0  0  0  0  0  0  0  0  0  0  0
  140.2890   72.0310  222.4240 C   0  0  0  0  0  0  0  0  0  0  0  0
  139.9380   73.4230  222.3530 N   0  0  0  0  0  0  0  0  0  0  0  0
  140.0690   74.0690  221.0730 C   0  0  0  0  0  0  0  0  0  0  0  0
  140.6230   75.4540  221.2140 C   0  0  0  0  0  0  0  0  0  0  0  0
  140.8080   75.8630  222.3890 O   0  0  0  0  0  0  0  0  0  0  0  0
  140.9120   76.2340  220.0590 N   0  0  0  0  0  0  0  0  0  0  0  0
  140.3340   75.8480  218.7870 C   0  0  0  0  0  0  0  0  0  0  0  0
  140.2290   77.0460  217.8810 C   0  0  0  0  0  0  0  0  0  0  0  0
  141.6780   77.5260  217.7140 C   0  0  0  0  0  0  0  0  0  0  0  0
  142.0280   78.1890  219.0220 C   0  0  0  0  0  0  0  0  0  0  0  0
  141.7770   77.3750  220.2340 C   0  0  1  0  0  0  0  0  0  0  0  0
  141.3060   78.2820  221.3200 C   0  0  0  0  0  0  0  0  0  0  0  0
  139.9720   78.4260  221.6440 C   0  0  0  0  0  0  0  0  0  0  0  0
  139.5160   79.2550  222.6400 C   0  0  0  0  0  0  0  0  0  0  0  0
  137.8090   79.4170  223.0300 Cl  0  0  0  0  0  0  0  0  0  0  0  0
  140.4200   79.9970  223.3760 C   0  0  0  0  0  0  0  0  0  0  0  0
  141.7760   79.8830  223.0850 C   0  0  0  0  0  0  0  0  0  0  0  0
  142.9270   80.8350  224.0300 Cl  0  0  0  0  0  0  0  0  0  0  0  0
  142.2010   79.0410  222.0760 C   0  0  0  0  0  0  0  0  0  0  0  0
  140.1800   71.3150  223.6910 C   0  0  0  0  0  0  0  0  0  0  0  0
  139.5830   70.0600  223.6460 C   0  0  0  0  0  0  0  0  0  0  0  0
  139.4810   69.3840  224.8450 C   0  0  0  0  0  0  0  0  0  0  0  0
  139.9540   69.9520  226.0090 C   0  0  0  0  0  0  0  0  0  0  0  0
  139.8360   69.2520  227.1900 C   0  0  0  0  0  0  0  0  0  0  0  0
  140.3190   69.8370  228.3520 C   0  0  0  0  0  0  0  0  0  0  0  0
  140.9020   71.0880  228.3400 C   0  0  0  0  0  0  0  0  0  0  0  0
  141.0190   71.7850  227.1660 C   0  0  0  0  0  0  0  0  0  0  0  0
  140.5390   71.2000  226.0120 C   0  0  0  0  0  0  0  0  0  0  0  0
  140.6330   71.8490  224.8380 N   0  0  0  0  0  0  0  0  0  0  0  0
  139.5990   73.9320  223.2200 H   0  0  0  0  0  0  0  0  0  0  0  0
  140.7454   73.4757  220.4402 H   0  0  0  0  0  0  0  0  0  0  0  0
  139.0704   74.1402  220.6172 H   0  0  0  0  0  0  0  0  0  0  0  0
  140.9727   75.0882  218.3128 H   0  0  0  0  0  0  0  0  0  0  0  0
  139.3280   75.4374  218.9587 H   0  0  0  0  0  0  0  0  0  0  0  0
  139.7983   76.7627  216.9093 H   0  0  0  0  0  0  0  0  0  0  0  0
  139.5731   77.8272  218.2928 H   0  0  0  0  0  0  0  0  0  0  0  0
  142.3469   76.6741  217.5222 H   0  0  0  0  0  0  0  0  0  0  0  0
  141.7878   78.2134  216.8623 H   0  0  0  0  0  0  0  0  0  0  0  0
  143.0983   78.4418  218.9986 H   0  0  0  0  0  0  0  0  0  0  0  0
  141.3685   79.0656  219.1036 H   0  0  0  0  0  0  0  0  0  0  0  0
  142.7338   76.9047  220.5049 H   0  0  0  0  0  0  0  0  0  0  0  0
  139.2330   77.8447  221.0730 H   0  0  0  0  0  0  0  0  0  0  0  0
  140.0739   80.6659  224.1777 H   0  0  0  0  0  0  0  0  0  0  0  0
  143.2773   78.9662  221.8617 H   0  0  0  0  0  0  0  0  0  0  0  0
  139.2117   69.6288  222.7046 H   0  0  0  0  0  0  0  0  0  0  0  0
  139.0195   68.3859  224.8722 H   0  0  0  0  0  0  0  0  0  0  0  0
  139.3710   68.2553  227.2112 H   0  0  0  0  0  0  0  0  0  0  0  0
  140.2354   69.2917  229.3036 H   0  0  0  0  0  0  0  0  0  0  0  0
  141.2744   71.5275  229.2771 H   0  0  0  0  0  0  0  0  0  0  0  0
  141.4823   72.7824  227.1441 H   0  0  0  0  0  0  0  0  0  0  0  0
  1  2  2  0
  2  3  1  0
  3  4  1  0
  4  5  1  0
  5  6  2  0
  5  7  1  0
  7  8  1  0
  8  9  1  0
  9 10  1  0
 10 11  1  0
 11 12  1  0
 12 13  1  0
 13 14  2  0
 14 15  1  0
 15 16  1  0
 15 17  2  0
 17 18  1  0
 18 19  1  0
 18 20  2  0
  2 21  1  0
 21 22  2  0
 22 23  1  0
 23 24  2  0
 24 25  1  0
 25 26  2  0
 26 27  1  0
 27 28  2  0
 28 29  1  0
 29 30  2  0
 12  7  1  0
 20 13  1  0
 30 21  1  0
 29 24  1  0
  3 31  1  0
  4 32  1  0
  4 33  1  0
  8 34  1  0
  8 35  1  0
  9 36  1  0
  9 37  1  0
 10 38  1  0
 10 39  1  0
 11 40  1  0
 11 41  1  0
 12 42  1  1
 14 43  1  0
 17 44  1  0
 20 45  1  0
 22 46  1  0
 23 47  1  0
 25 48  1  0
 26 49  1  0
 27 50  1  0
 28 51  1  0
M  END
>  <smiles>  (91) 
O=C(NCC(=O)N1CCCCC1c1cc(Cl)cc(Cl)c1)c1ccc2ccccc2n1

>  <score_type>  (91) 
oracle

>  <origin>  (91) 
autodockgpu

>  <m_score__min__energy>  (91) 
-9.4399999999999995

>  <m_primary>  (91) 
energy

>  <rmsd>  (91) 
1.4626447453419644

>  <m_score__min__rmsd>  (91) 
1.4626447453419644

>  <meeko>  (91) 
{"free_energy": -9.39, "intermolecular_energy": -10.88, "internal_energy": -1.53, "cluster_size": 7, "cluster_id": 1, "rank_in_cluster": 4}

>  <energy>  (91) 
-8.49

>  <cluster_rmsd>  (91) 
0.08

>  <cluster>  (91) 
3

$$$$

     RDKit          3D

 51 54  0  0  0  0  0  0  0  0999 V2000
  138.9310   75.2470  221.7470 O   0  0  0  0  0  0  0  0  0  0  0  0
  140.0520   75.7780  221.9530 C   0  0  0  0  0  0  0  0  0  0  0  0
  141.2060   74.9430  221.7530 N   0  0  0  0  0  0  0  0  0  0  0  0
  140.9700   73.5860  221.3370 C   0  0  0  0  0  0  0  0  0  0  0  0
  141.8190   73.2210  220.1580 C   0  0  0  0  0  0  0  0  0  0  0  0
  141.2070   72.9350  219.0960 O   0  0  0  0  0  0  0  0  0  0  0  0
  143.2380   73.2100  220.2700 N   0  0  0  0  0  0  0  0  0  0  0  0
  143.9410   71.9460  220.1750 C   0  0  0  0  0  0  0  0  0  0  0  0
  145.3560   72.1740  219.7090 C   0  0  0  0  0  0  0  0  0  0  0  0
  145.9720   73.0770  220.7870 C   0  0  0  0  0  0  0  0  0  0  0  0
  145.3720   74.4400  220.5510 C   0  0  0  0  0  0  0  0  0  0  0  0
  143.8930   74.4790  220.4760 C   0  0  1  0  0  0  0  0  0  0  0  0
  143.5010   75.4920  219.4550 C   0  0  0  0  0  0  0  0  0  0  0  0
  143.6940   75.2980  218.1010 C   0  0  0  0  0  0  0  0  0  0  0  0
  143.3390   76.2160  217.1430 C   0  0  0  0  0  0  0  0  0  0  0  0
  143.5970   75.9410  215.4260 Cl  0  0  0  0  0  0  0  0  0  0  0  0
  142.7550   77.4090  217.5260 C   0  0  0  0  0  0  0  0  0  0  0  0
  142.5410   77.6480  218.8800 C   0  0  0  0  0  0  0  0  0  0  0  0
  141.7940   79.1750  219.3620 Cl  0  0  0  0  0  0  0  0  0  0  0  0
  142.9100   76.7030  219.8170 C   0  0  0  0  0  0  0  0  0  0  0  0
  140.2190   77.1650  222.3750 C   0  0  0  0  0  0  0  0  0  0  0  0
  139.0540   77.8950  222.5810 C   0  0  0  0  0  0  0  0  0  0  0  0
  139.2140   79.2070  222.9810 C   0  0  0  0  0  0  0  0  0  0  0  0
  140.4760   79.7360  223.1540 C   0  0  0  0  0  0  0  0  0  0  0  0
  140.6020   81.0490  223.5520 C   0  0  0  0  0  0  0  0  0  0  0  0
  141.8790   81.5640  223.7240 C   0  0  0  0  0  0  0  0  0  0  0  0
  143.0020   80.7940  223.5030 C   0  0  0  0  0  0  0  0  0  0  0  0
  142.8780   79.4870  223.1060 C   0  0  0  0  0  0  0  0  0  0  0  0
  141.6070   78.9780  222.9380 C   0  0  0  0  0  0  0  0  0  0  0  0
  141.4390   77.7010  222.5490 N   0  0  0  0  0  0  0  0  0  0  0  0
  142.1790   75.3340  221.9110 H   0  0  0  0  0  0  0  0  0  0  0  0
  141.2063   72.9095  222.1715 H   0  0  0  0  0  0  0  0  0  0  0  0
  139.9135   73.4917  221.0457 H   0  0  0  0  0  0  0  0  0  0  0  0
  143.9568   71.4633  221.1633 H   0  0  0  0  0  0  0  0  0  0  0  0
  143.4233   71.2997  219.4510 H   0  0  0  0  0  0  0  0  0  0  0  0
  145.9017   71.2213  219.6408 H   0  0  0  0  0  0  0  0  0  0  0  0
  145.3999   72.6268  218.7075 H   0  0  0  0  0  0  0  0  0  0  0  0
  145.7134   72.7103  221.7913 H   0  0  0  0  0  0  0  0  0  0  0  0
  147.0703   73.0957  220.7293 H   0  0  0  0  0  0  0  0  0  0  0  0
  145.6874   75.0969  221.3750 H   0  0  0  0  0  0  0  0  0  0  0  0
  145.7341   74.7637  219.5640 H   0  0  0  0  0  0  0  0  0  0  0  0
  143.5317   74.7695  221.4735 H   0  0  0  0  0  0  0  0  0  0  0  0
  144.1576   74.3563  217.7719 H   0  0  0  0  0  0  0  0  0  0  0  0
  142.4644   78.1566  216.7732 H   0  0  0  0  0  0  0  0  0  0  0  0
  142.7324   76.9116  220.8823 H   0  0  0  0  0  0  0  0  0  0  0  0
  138.0583   77.4514  222.4333 H   0  0  0  0  0  0  0  0  0  0  0  0
  138.3290   79.8345  223.1629 H   0  0  0  0  0  0  0  0  0  0  0  0
  139.7134   81.6728  223.7288 H   0  0  0  0  0  0  0  0  0  0  0  0
  141.9985   82.6097  224.0437 H   0  0  0  0  0  0  0  0  0  0  0  0
  144.0016   81.2302  223.6458 H   0  0  0  0  0  0  0  0  0  0  0  0
  143.7660   78.8630  222.9268 H   0  0  0  0  0  0  0  0  0  0  0  0
  1  2  2  0
  2  3  1  0
  3  4  1  0
  4  5  1  0
  5  6  2  0
  5  7  1  0
  7  8  1  0
  8  9  1  0
  9 10  1  0
 10 11  1  0
 11 12  1  0
 12 13  1  0
 13 14  2  0
 14 15  1  0
 15 16  1  0
 15 17  2  0
 17 18  1  0
 18 19  1  0
 18 20  2  0
  2 21  1  0
 21 22  2  0
 22 23  1  0
 23 24  2  0
 24 25  1  0
 25 26  2  0
 26 27  1  0
 27 28  2  0
 28 29  1  0
 29 30  2  0
 12  7  1  0
 20 13  1  0
 30 21  1  0
 29 24  1  0
  3 31  1  0
  4 32  1  0
  4 33  1  0
  8 34  1  0
  8 35  1  0
  9 36  1  0
  9 37  1  0
 10 38  1  0
 10 39  1  0
 11 40  1  0
 11 41  1  0
 12 42  1  1
 14 43  1  0
 17 44  1  0
 20 45  1  0
 22 46  1  0
 23 47  1  0
 25 48  1  0
 26 49  1  0
 27 50  1  0
 28 51  1  0
M  END
>  <smiles>  (92) 
O=C(NCC(=O)N1CCCCC1c1cc(Cl)cc(Cl)c1)c1ccc2ccccc2n1

>  <score_type>  (92) 
oracle

>  <origin>  (92) 
autodockgpu

>  <m_score__min__energy>  (92) 
-9.4399999999999995

>  <m_primary>  (92) 
energy

>  <rmsd>  (92) 
7.737902881023054

>  <m_score__min__rmsd>  (92) 
7.737902881023054

>  <meeko>  (92) 
{"free_energy": -8.49, "intermolecular_energy": -9.98, "internal_energy": -2.73, "cluster_size": 19, "cluster_id": 3, "rank_in_cluster": 10}

>  <energy>  (92) 
-8.49

>  <cluster_rmsd>  (92) 
0.06

>  <cluster>  (92) 
3

$$$$

     RDKit          3D

 51 54  0  0  0  0  0  0  0  0999 V2000
  140.7530   71.6400  221.2780 O   0  0  0  0  0  0  0  0  0  0  0  0
  140.2960   72.1200  222.3470 C   0  0  0  0  0  0  0  0  0  0  0  0
  139.8560   73.4880  222.3020 N   0  0  0  0  0  0  0  0  0  0  0  0
  139.9780   74.1750  221.0430 C   0  0  0  0  0  0  0  0  0  0  0  0
  141.0290   75.2410  221.1030 C   0  0  0  0  0  0  0  0  0  0  0  0
  141.3910   75.6040  222.2510 O   0  0  0  0  0  0  0  0  0  0  0  0
  141.5660   75.7900  219.9040 N   0  0  0  0  0  0  0  0  0  0  0  0
  141.6690   77.2290  219.7730 C   0  0  0  0  0  0  0  0  0  0  0  0
  142.7580   77.5840  218.7950 C   0  0  0  0  0  0  0  0  0  0  0  0
  142.3130   76.9340  217.4770 C   0  0  0  0  0  0  0  0  0  0  0  0
  142.5650   75.4590  217.6590 C   0  0  0  0  0  0  0  0  0  0  0  0
  141.9760   74.8590  218.8790 C   0  0  1  0  0  0  0  0  0  0  0  0
  142.9170   73.8260  219.3970 C   0  0  0  0  0  0  0  0  0  0  0  0
  144.0460   74.1440  220.1260 C   0  0  0  0  0  0  0  0  0  0  0  0
  144.9260   73.2080  220.6140 C   0  0  0  0  0  0  0  0  0  0  0  0
  146.3550   73.6440  221.5400 Cl  0  0  0  0  0  0  0  0  0  0  0  0
  144.6940   71.8660  220.3760 C   0  0  0  0  0  0  0  0  0  0  0  0
  143.5680   71.4980  219.6450 C   0  0  0  0  0  0  0  0  0  0  0  0
  143.2780   69.7810  219.3450 Cl  0  0  0  0  0  0  0  0  0  0  0  0
  142.7040   72.4660  219.1690 C   0  0  0  0  0  0  0  0  0  0  0  0
  140.2020   71.3640  223.5910 C   0  0  0  0  0  0  0  0  0  0  0  0
  139.6090   70.1090  223.5120 C   0  0  0  0  0  0  0  0  0  0  0  0
  139.5210   69.3940  224.6900 C   0  0  0  0  0  0  0  0  0  0  0  0
  140.0020   69.9270  225.8670 C   0  0  0  0  0  0  0  0  0  0  0  0
  139.8970   69.1900  227.0260 C   0  0  0  0  0  0  0  0  0  0  0  0
  140.3880   69.7410  228.2020 C   0  0  0  0  0  0  0  0  0  0  0  0
  140.9660   70.9930  228.2250 C   0  0  0  0  0  0  0  0  0  0  0  0
  141.0700   71.7280  227.0720 C   0  0  0  0  0  0  0  0  0  0  0  0
  140.5820   71.1780  225.9050 C   0  0  0  0  0  0  0  0  0  0  0  0
  140.6630   71.8630  224.7500 N   0  0  0  0  0  0  0  0  0  0  0  0
  139.4620   73.9490  223.1710 H   0  0  0  0  0  0  0  0  0  0  0  0
  140.2492   73.4481  220.2632 H   0  0  0  0  0  0  0  0  0  0  0  0
  139.0136   74.6515  220.8131 H   0  0  0  0  0  0  0  0  0  0  0  0
  140.7108   77.6308  219.4119 H   0  0  0  0  0  0  0  0  0  0  0  0
  141.9114   77.6630  220.7543 H   0  0  0  0  0  0  0  0  0  0  0  0
  142.8401   78.6752  218.6828 H   0  0  0  0  0  0  0  0  0  0  0  0
  143.7475   77.2329  219.1230 H   0  0  0  0  0  0  0  0  0  0  0  0
  141.2448   77.1233  217.2949 H   0  0  0  0  0  0  0  0  0  0  0  0
  142.8589   77.3409  216.6130 H   0  0  0  0  0  0  0  0  0  0  0  0
  142.1481   74.9335  216.7872 H   0  0  0  0  0  0  0  0  0  0  0  0
  143.6545   75.3484  217.7627 H   0  0  0  0  0  0  0  0  0  0  0  0
  141.0213   74.4022  218.5792 H   0  0  0  0  0  0  0  0  0  0  0  0
  144.2524   75.2056  220.3273 H   0  0  0  0  0  0  0  0  0  0  0  0
  145.3874   71.1021  220.7578 H   0  0  0  0  0  0  0  0  0  0  0  0
  141.8206   72.1545  218.5923 H   0  0  0  0  0  0  0  0  0  0  0  0
  139.2298   69.7068  222.5610 H   0  0  0  0  0  0  0  0  0  0  0  0
  139.0644   68.3932  224.6893 H   0  0  0  0  0  0  0  0  0  0  0  0
  139.4363   68.1912  227.0200 H   0  0  0  0  0  0  0  0  0  0  0  0
  140.3143   69.1658  229.1367 H   0  0  0  0  0  0  0  0  0  0  0  0
  141.3452   71.4038  229.1724 H   0  0  0  0  0  0  0  0  0  0  0  0
  141.5294   72.7275  227.0776 H   0  0  0  0  0  0  0  0  0  0  0  0
  1  2  2  0
  2  3  1  0
  3  4  1  0
  4  5  1  0
  5  6  2  0
  5  7  1  0
  7  8  1  0
  8  9  1  0
  9 10  1  0
 10 11  1  0
 11 12  1  0
 12 13  1  0
 13 14  2  0
 14 15  1  0
 15 16  1  0
 15 17  2  0
 17 18  1  0
 18 19  1  0
 18 20  2  0
  2 21  1  0
 21 22  2  0
 22 23  1  0
 23 24  2  0
 24 25  1  0
 25 26  2  0
 26 27  1  0
 27 28  2  0
 28 29  1  0
 29 30  2  0
 12  7  1  0
 20 13  1  0
 30 21  1  0
 29 24  1  0
  3 31  1  0
  4 32  1  0
  4 33  1  0
  8 34  1  0
  8 35  1  0
  9 36  1  0
  9 37  1  0
 10 38  1  0
 10 39  1  0
 11 40  1  0
 11 41  1  0
 12 42  1  6
 14 43  1  0
 17 44  1  0
 20 45  1  0
 22 46  1  0
 23 47  1  0
 25 48  1  0
 26 49  1  0
 27 50  1  0
 28 51  1  0
M  END
>  <smiles>  (93) 
O=C(NCC(=O)N1CCCCC1c1cc(Cl)cc(Cl)c1)c1ccc2ccccc2n1

>  <score_type>  (93) 
oracle

>  <origin>  (93) 
autodockgpu

>  <m_score__min__energy>  (93) 
-9.4399999999999995

>  <m_primary>  (93) 
energy

>  <rmsd>  (93) 
2.2671751454534497

>  <m_score__min__rmsd>  (93) 
2.2671751454534497

>  <meeko>  (93) 
{"free_energy": -8.8, "intermolecular_energy": -10.29, "internal_energy": -2.17, "cluster_size": 22, "cluster_id": 2, "rank_in_cluster": 19}

>  <energy>  (93) 
-8.49

>  <cluster_rmsd>  (93) 
0.08

>  <cluster>  (93) 
3

$$$$

     RDKit          3D

 51 54  0  0  0  0  0  0  0  0999 V2000
  138.9380   75.2840  221.8010 O   0  0  0  0  0  0  0  0  0  0  0  0
  140.0600   75.8230  221.9840 C   0  0  0  0  0  0  0  0  0  0  0  0
  141.2140   74.9890  221.7840 N   0  0  0  0  0  0  0  0  0  0  0  0
  140.9780   73.6240  221.3940 C   0  0  0  0  0  0  0  0  0  0  0  0
  141.7880   73.2530  220.1890 C   0  0  0  0  0  0  0  0  0  0  0  0
  141.1430   72.9970  219.1400 O   0  0  0  0  0  0  0  0  0  0  0  0
  143.2090   73.2050  220.2650 N   0  0  0  0  0  0  0  0  0  0  0  0
  143.8760   71.9250  220.1390 C   0  0  0  0  0  0  0  0  0  0  0  0
  145.2840   72.1220  219.6400 C   0  0  0  0  0  0  0  0  0  0  0  0
  145.9500   72.9960  220.7110 C   0  0  0  0  0  0  0  0  0  0  0  0
  145.3800   74.3770  220.5050 C   0  0  0  0  0  0  0  0  0  0  0  0
  143.9010   74.4550  220.4690 C   0  0  1  0  0  0  0  0  0  0  0  0
  143.5090   75.4880  219.4680 C   0  0  0  0  0  0  0  0  0  0  0  0
  142.9210   76.6850  219.8250 C   0  0  0  0  0  0  0  0  0  0  0  0
  142.5530   77.6520  218.9210 C   0  0  0  0  0  0  0  0  0  0  0  0
  141.8050   79.1670  219.4050 Cl  0  0  0  0  0  0  0  0  0  0  0  0
  142.7720   77.4420  217.5720 C   0  0  0  0  0  0  0  0  0  0  0  0
  143.3640   76.2490  217.1660 C   0  0  0  0  0  0  0  0  0  0  0  0
  143.6410   75.9870  215.4400 Cl  0  0  0  0  0  0  0  0  0  0  0  0
  143.7210   75.2980  218.1020 C   0  0  0  0  0  0  0  0  0  0  0  0
  140.2260   77.2170  222.3810 C   0  0  0  0  0  0  0  0  0  0  0  0
  139.0620   77.9540  222.5630 C   0  0  0  0  0  0  0  0  0  0  0  0
  139.2210   79.2730  222.9380 C   0  0  0  0  0  0  0  0  0  0  0  0
  140.4830   79.8020  223.1130 C   0  0  0  0  0  0  0  0  0  0  0  0
  140.6080   81.1220  223.4860 C   0  0  0  0  0  0  0  0  0  0  0  0
  141.8850   81.6380  223.6590 C   0  0  0  0  0  0  0  0  0  0  0  0
  143.0080   80.8610  223.4630 C   0  0  0  0  0  0  0  0  0  0  0  0
  142.8850   79.5470  223.0900 C   0  0  0  0  0  0  0  0  0  0  0  0
  141.6140   79.0370  222.9210 C   0  0  0  0  0  0  0  0  0  0  0  0
  141.4460   77.7540  222.5560 N   0  0  0  0  0  0  0  0  0  0  0  0
  142.1870   75.3860  221.9240 H   0  0  0  0  0  0  0  0  0  0  0  0
  141.2520   72.9609  222.2277 H   0  0  0  0  0  0  0  0  0  0  0  0
  139.9127   73.5144  221.1428 H   0  0  0  0  0  0  0  0  0  0  0  0
  143.9039   71.4310  221.1214 H   0  0  0  0  0  0  0  0  0  0  0  0
  143.3238   71.3002  219.4216 H   0  0  0  0  0  0  0  0  0  0  0  0
  145.8029   71.1565  219.5477 H   0  0  0  0  0  0  0  0  0  0  0  0
  145.3143   72.5851  218.6427 H   0  0  0  0  0  0  0  0  0  0  0  0
  145.7073   72.6247  221.7176 H   0  0  0  0  0  0  0  0  0  0  0  0
  147.0466   72.9869  220.6255 H   0  0  0  0  0  0  0  0  0  0  0  0
  145.7337   75.0163  221.3274 H   0  0  0  0  0  0  0  0  0  0  0  0
  145.7250   74.7024  219.5125 H   0  0  0  0  0  0  0  0  0  0  0  0
  143.5734   74.7442  221.4785 H   0  0  0  0  0  0  0  0  0  0  0  0
  142.7369   76.8751  220.8927 H   0  0  0  0  0  0  0  0  0  0  0  0
  142.4837   78.2039  216.8328 H   0  0  0  0  0  0  0  0  0  0  0  0
  144.1868   74.3620  217.7600 H   0  0  0  0  0  0  0  0  0  0  0  0
  138.0665   77.5098  222.4160 H   0  0  0  0  0  0  0  0  0  0  0  0
  138.3359   79.9062  223.0983 H   0  0  0  0  0  0  0  0  0  0  0  0
  139.7192   81.7508  223.6427 H   0  0  0  0  0  0  0  0  0  0  0  0
  142.0041   82.6896  223.9590 H   0  0  0  0  0  0  0  0  0  0  0  0
  144.0073   81.2977  223.6067 H   0  0  0  0  0  0  0  0  0  0  0  0
  143.7733   78.9182  222.9303 H   0  0  0  0  0  0  0  0  0  0  0  0
  1  2  2  0
  2  3  1  0
  3  4  1  0
  4  5  1  0
  5  6  2  0
  5  7  1  0
  7  8  1  0
  8  9  1  0
  9 10  1  0
 10 11  1  0
 11 12  1  0
 12 13  1  0
 13 14  2  0
 14 15  1  0
 15 16  1  0
 15 17  2  0
 17 18  1  0
 18 19  1  0
 18 20  2  0
  2 21  1  0
 21 22  2  0
 22 23  1  0
 23 24  2  0
 24 25  1  0
 25 26  2  0
 26 27  1  0
 27 28  2  0
 28 29  1  0
 29 30  2  0
 12  7  1  0
 20 13  1  0
 30 21  1  0
 29 24  1  0
  3 31  1  0
  4 32  1  0
  4 33  1  0
  8 34  1  0
  8 35  1  0
  9 36  1  0
  9 37  1  0
 10 38  1  0
 10 39  1  0
 11 40  1  0
 11 41  1  0
 12 42  1  1
 14 43  1  0
 17 44  1  0
 20 45  1  0
 22 46  1  0
 23 47  1  0
 25 48  1  0
 26 49  1  0
 27 50  1  0
 28 51  1  0
M  END
>  <smiles>  (94) 
O=C(NCC(=O)N1CCCCC1c1cc(Cl)cc(Cl)c1)c1ccc2ccccc2n1

>  <score_type>  (94) 
oracle

>  <origin>  (94) 
autodockgpu

>  <m_score__min__energy>  (94) 
-9.4399999999999995

>  <m_primary>  (94) 
energy

>  <rmsd>  (94) 
7.773268447473821

>  <m_score__min__rmsd>  (94) 
7.773268447473821

>  <meeko>  (94) 
{"free_energy": -8.49, "intermolecular_energy": -9.98, "internal_energy": -2.73, "cluster_size": 19, "cluster_id": 3, "rank_in_cluster": 11}

>  <energy>  (94) 
-8.48

>  <cluster_rmsd>  (94) 
0.07

>  <cluster>  (94) 
3

$$$$

     RDKit          3D

 51 54  0  0  0  0  0  0  0  0999 V2000
  140.6900   71.5090  221.3390 O   0  0  0  0  0  0  0  0  0  0  0  0
  140.2810   72.0370  222.4040 C   0  0  0  0  0  0  0  0  0  0  0  0
  139.9000   73.4220  222.3310 N   0  0  0  0  0  0  0  0  0  0  0  0
  140.0220   74.0690  221.0520 C   0  0  0  0  0  0  0  0  0  0  0  0
  140.6780   75.4100  221.1790 C   0  0  0  0  0  0  0  0  0  0  0  0
  140.9120   75.8080  222.3490 O   0  0  0  0  0  0  0  0  0  0  0  0
  141.0030   76.1650  220.0170 N   0  0  0  0  0  0  0  0  0  0  0  0
  140.4630   75.7520  218.7360 C   0  0  0  0  0  0  0  0  0  0  0  0
  140.3900   76.9310  217.8010 C   0  0  0  0  0  0  0  0  0  0  0  0
  141.8440   77.4040  217.6680 C   0  0  0  0  0  0  0  0  0  0  0  0
  142.1550   78.0950  218.9720 C   0  0  0  0  0  0  0  0  0  0  0  0
  141.8660   77.3090  220.1930 C   0  0  1  0  0  0  0  0  0  0  0  0
  141.3640   78.2390  221.2430 C   0  0  0  0  0  0  0  0  0  0  0  0
  142.2050   79.0110  222.0190 C   0  0  0  0  0  0  0  0  0  0  0  0
  141.7650   79.8760  222.9920 C   0  0  0  0  0  0  0  0  0  0  0  0
  142.8610   80.8470  223.9640 Cl  0  0  0  0  0  0  0  0  0  0  0  0
  140.4090   80.0000  223.2290 C   0  0  0  0  0  0  0  0  0  0  0  0
  139.5220   79.2420  222.4700 C   0  0  0  0  0  0  0  0  0  0  0  0
  137.7890   79.4060  222.7790 Cl  0  0  0  0  0  0  0  0  0  0  0  0
  139.9990   78.3820  221.5010 C   0  0  0  0  0  0  0  0  0  0  0  0
  140.1830   71.3190  223.6710 C   0  0  0  0  0  0  0  0  0  0  0  0
  139.5870   70.0640  223.6290 C   0  0  0  0  0  0  0  0  0  0  0  0
  139.4950   69.3860  224.8280 C   0  0  0  0  0  0  0  0  0  0  0  0
  139.9770   69.9530  225.9890 C   0  0  0  0  0  0  0  0  0  0  0  0
  139.8700   69.2510  227.1700 C   0  0  0  0  0  0  0  0  0  0  0  0
  140.3610   69.8350  228.3290 C   0  0  0  0  0  0  0  0  0  0  0  0
  140.9430   71.0860  228.3140 C   0  0  0  0  0  0  0  0  0  0  0  0
  141.0500   71.7860  227.1400 C   0  0  0  0  0  0  0  0  0  0  0  0
  140.5620   71.2020  225.9890 C   0  0  0  0  0  0  0  0  0  0  0  0
  140.6450   71.8520  224.8150 N   0  0  0  0  0  0  0  0  0  0  0  0
  139.5480   73.9230  223.1970 H   0  0  0  0  0  0  0  0  0  0  0  0
  140.6274   73.4358  220.3868 H   0  0  0  0  0  0  0  0  0  0  0  0
  139.0127   74.2146  220.6396 H   0  0  0  0  0  0  0  0  0  0  0  0
  141.1136   74.9804  218.2985 H   0  0  0  0  0  0  0  0  0  0  0  0
  139.4510   75.3475  218.8852 H   0  0  0  0  0  0  0  0  0  0  0  0
  139.9884   76.6277  216.8229 H   0  0  0  0  0  0  0  0  0  0  0  0
  139.7244   77.7225  218.1758 H   0  0  0  0  0  0  0  0  0  0  0  0
  142.5162   76.5468  217.5156 H   0  0  0  0  0  0  0  0  0  0  0  0
  141.9820   78.0721  216.8051 H   0  0  0  0  0  0  0  0  0  0  0  0
  143.2260   78.3461  218.9758 H   0  0  0  0  0  0  0  0  0  0  0  0
  141.4943   78.9735  219.0141 H   0  0  0  0  0  0  0  0  0  0  0  0
  142.8136   76.8442  220.5028 H   0  0  0  0  0  0  0  0  0  0  0  0
  143.2887   78.9292  221.8489 H   0  0  0  0  0  0  0  0  0  0  0  0
  140.0371   80.6861  224.0043 H   0  0  0  0  0  0  0  0  0  0  0  0
  139.2811   77.7907  220.9136 H   0  0  0  0  0  0  0  0  0  0  0  0
  139.2086   69.6338  222.6900 H   0  0  0  0  0  0  0  0  0  0  0  0
  139.0344   68.3875  224.8575 H   0  0  0  0  0  0  0  0  0  0  0  0
  139.4072   68.2533  227.1933 H   0  0  0  0  0  0  0  0  0  0  0  0
  140.2846   69.2887  229.2807 H   0  0  0  0  0  0  0  0  0  0  0  0
  141.3231   71.5239  229.2488 H   0  0  0  0  0  0  0  0  0  0  0  0
  141.5115   72.7842  227.1163 H   0  0  0  0  0  0  0  0  0  0  0  0
  1  2  2  0
  2  3  1  0
  3  4  1  0
  4  5  1  0
  5  6  2  0
  5  7  1  0
  7  8  1  0
  8  9  1  0
  9 10  1  0
 10 11  1  0
 11 12  1  0
 12 13  1  0
 13 14  2  0
 14 15  1  0
 15 16  1  0
 15 17  2  0
 17 18  1  0
 18 19  1  0
 18 20  2  0
  2 21  1  0
 21 22  2  0
 22 23  1  0
 23 24  2  0
 24 25  1  0
 25 26  2  0
 26 27  1  0
 27 28  2  0
 28 29  1  0
 29 30  2  0
 12  7  1  0
 20 13  1  0
 30 21  1  0
 29 24  1  0
  3 31  1  0
  4 32  1  0
  4 33  1  0
  8 34  1  0
  8 35  1  0
  9 36  1  0
  9 37  1  0
 10 38  1  0
 10 39  1  0
 11 40  1  0
 11 41  1  0
 12 42  1  1
 14 43  1  0
 17 44  1  0
 20 45  1  0
 22 46  1  0
 23 47  1  0
 25 48  1  0
 26 49  1  0
 27 50  1  0
 28 51  1  0
M  END
>  <smiles>  (95) 
O=C(NCC(=O)N1CCCCC1c1cc(Cl)cc(Cl)c1)c1ccc2ccccc2n1

>  <score_type>  (95) 
oracle

>  <origin>  (95) 
autodockgpu

>  <m_score__min__energy>  (95) 
-9.4399999999999995

>  <m_primary>  (95) 
energy

>  <rmsd>  (95) 
1.4476149718854692

>  <m_score__min__rmsd>  (95) 
1.4476149718854692

>  <meeko>  (95) 
{"free_energy": -9.42, "intermolecular_energy": -10.92, "internal_energy": -1.52, "cluster_size": 7, "cluster_id": 1, "rank_in_cluster": 3}

>  <energy>  (95) 
-8.48

>  <cluster_rmsd>  (95) 
0.13

>  <cluster>  (95) 
3

$$$$

     RDKit          3D

 51 54  0  0  0  0  0  0  0  0999 V2000
  138.9430   75.1710  221.7610 O   0  0  0  0  0  0  0  0  0  0  0  0
  140.0650   75.7140  221.9260 C   0  0  0  0  0  0  0  0  0  0  0  0
  141.2200   74.9000  221.6550 N   0  0  0  0  0  0  0  0  0  0  0  0
  140.9830   73.5480  221.2220 C   0  0  0  0  0  0  0  0  0  0  0  0
  141.8840   73.1740  220.0860 C   0  0  0  0  0  0  0  0  0  0  0  0
  141.3200   72.8380  219.0130 O   0  0  0  0  0  0  0  0  0  0  0  0
  143.2980   73.2080  220.2480 N   0  0  0  0  0  0  0  0  0  0  0  0
  144.0440   71.9670  220.1740 C   0  0  0  0  0  0  0  0  0  0  0  0
  145.4660   72.2420  219.7600 C   0  0  0  0  0  0  0  0  0  0  0  0
  146.0140   73.1600  220.8620 C   0  0  0  0  0  0  0  0  0  0  0  0
  145.3800   74.5040  220.6090 C   0  0  0  0  0  0  0  0  0  0  0  0
  143.9040   74.4970  220.4820 C   0  0  1  0  0  0  0  0  0  0  0  0
  143.5160   75.5000  219.4500 C   0  0  0  0  0  0  0  0  0  0  0  0
  143.7140   75.2950  218.0990 C   0  0  0  0  0  0  0  0  0  0  0  0
  143.3630   76.2050  217.1320 C   0  0  0  0  0  0  0  0  0  0  0  0
  143.6270   75.9150  215.4180 Cl  0  0  0  0  0  0  0  0  0  0  0  0
  142.7780   77.4010  217.5020 C   0  0  0  0  0  0  0  0  0  0  0  0
  142.5590   77.6520  218.8530 C   0  0  0  0  0  0  0  0  0  0  0  0
  141.8110   79.1840  219.3200 Cl  0  0  0  0  0  0  0  0  0  0  0  0
  142.9240   76.7150  219.8000 C   0  0  0  0  0  0  0  0  0  0  0  0
  140.2330   77.0940  222.3690 C   0  0  0  0  0  0  0  0  0  0  0  0
  139.0690   77.8110  222.6220 C   0  0  0  0  0  0  0  0  0  0  0  0
  139.2290   79.1160  223.0410 C   0  0  0  0  0  0  0  0  0  0  0  0
  140.4910   79.6520  223.1880 C   0  0  0  0  0  0  0  0  0  0  0  0
  140.6170   80.9590  223.6070 C   0  0  0  0  0  0  0  0  0  0  0  0
  141.8950   81.4820  223.7520 C   0  0  0  0  0  0  0  0  0  0  0  0
  143.0180   80.7250  223.4860 C   0  0  0  0  0  0  0  0  0  0  0  0
  142.8930   79.4260  223.0680 C   0  0  0  0  0  0  0  0  0  0  0  0
  141.6220   78.9080  222.9260 C   0  0  0  0  0  0  0  0  0  0  0  0
  141.4530   77.6370  222.5190 N   0  0  0  0  0  0  0  0  0  0  0  0
  142.1940   75.3020  221.7760 H   0  0  0  0  0  0  0  0  0  0  0  0
  141.1662   72.8648  222.0644 H   0  0  0  0  0  0  0  0  0  0  0  0
  139.9410   73.4715  220.8780 H   0  0  0  0  0  0  0  0  0  0  0  0
  144.0399   71.4806  221.1606 H   0  0  0  0  0  0  0  0  0  0  0  0
  143.5733   71.3077  219.4298 H   0  0  0  0  0  0  0  0  0  0  0  0
  146.0441   71.3075  219.7087 H   0  0  0  0  0  0  0  0  0  0  0  0
  145.5310   72.7001  218.7620 H   0  0  0  0  0  0  0  0  0  0  0  0
  145.7315   72.7812  221.8553 H   0  0  0  0  0  0  0  0  0  0  0  0
  147.1125   73.2138  220.8434 H   0  0  0  0  0  0  0  0  0  0  0  0
  145.6454   75.1672  221.4455 H   0  0  0  0  0  0  0  0  0  0  0  0
  145.7661   74.8427  219.6363 H   0  0  0  0  0  0  0  0  0  0  0  0
  143.4990   74.7729  221.4668 H   0  0  0  0  0  0  0  0  0  0  0  0
  144.1786   74.3505  217.7794 H   0  0  0  0  0  0  0  0  0  0  0  0
  142.4904   78.1419  216.7415 H   0  0  0  0  0  0  0  0  0  0  0  0
  142.7426   76.9328  220.8628 H   0  0  0  0  0  0  0  0  0  0  0  0
  138.0730   77.3617  222.4949 H   0  0  0  0  0  0  0  0  0  0  0  0
  138.3445   79.7325  223.2591 H   0  0  0  0  0  0  0  0  0  0  0  0
  139.7287   81.5715  223.8208 H   0  0  0  0  0  0  0  0  0  0  0  0
  142.0152   82.5230  224.0864 H   0  0  0  0  0  0  0  0  0  0  0  0
  144.0179   81.1664  223.6101 H   0  0  0  0  0  0  0  0  0  0  0  0
  143.7808   78.8135  222.8518 H   0  0  0  0  0  0  0  0  0  0  0  0
  1  2  2  0
  2  3  1  0
  3  4  1  0
  4  5  1  0
  5  6  2  0
  5  7  1  0
  7  8  1  0
  8  9  1  0
  9 10  1  0
 10 11  1  0
 11 12  1  0
 12 13  1  0
 13 14  2  0
 14 15  1  0
 15 16  1  0
 15 17  2  0
 17 18  1  0
 18 19  1  0
 18 20  2  0
  2 21  1  0
 21 22  2  0
 22 23  1  0
 23 24  2  0
 24 25  1  0
 25 26  2  0
 26 27  1  0
 27 28  2  0
 28 29  1  0
 29 30  2  0
 12  7  1  0
 20 13  1  0
 30 21  1  0
 29 24  1  0
  3 31  1  0
  4 32  1  0
  4 33  1  0
  8 34  1  0
  8 35  1  0
  9 36  1  0
  9 37  1  0
 10 38  1  0
 10 39  1  0
 11 40  1  0
 11 41  1  0
 12 42  1  1
 14 43  1  0
 17 44  1  0
 20 45  1  0
 22 46  1  0
 23 47  1  0
 25 48  1  0
 26 49  1  0
 27 50  1  0
 28 51  1  0
M  END
>  <smiles>  (96) 
O=C(NCC(=O)N1CCCCC1c1cc(Cl)cc(Cl)c1)c1ccc2ccccc2n1

>  <score_type>  (96) 
oracle

>  <origin>  (96) 
autodockgpu

>  <m_score__min__energy>  (96) 
-9.4399999999999995

>  <m_primary>  (96) 
energy

>  <rmsd>  (96) 
7.707548913065774

>  <m_score__min__rmsd>  (96) 
7.707548913065774

>  <meeko>  (96) 
{"free_energy": -8.49, "intermolecular_energy": -9.98, "internal_energy": -2.69, "cluster_size": 19, "cluster_id": 3, "rank_in_cluster": 13}

>  <energy>  (96) 
-8.47

>  <cluster_rmsd>  (96) 
0.08

>  <cluster>  (96) 
3

$$$$

     RDKit          3D

 51 54  0  0  0  0  0  0  0  0999 V2000
  141.4110   72.0430  221.5660 O   0  0  0  0  0  0  0  0  0  0  0  0
  140.6190   72.3720  222.4860 C   0  0  0  0  0  0  0  0  0  0  0  0
  139.9740   73.6510  222.3540 N   0  0  0  0  0  0  0  0  0  0  0  0
  140.2930   74.4290  221.1860 C   0  0  0  0  0  0  0  0  0  0  0  0
  139.7340   75.8150  221.2850 C   0  0  0  0  0  0  0  0  0  0  0  0
  139.3540   76.1830  222.4260 O   0  0  0  0  0  0  0  0  0  0  0  0
  139.6530   76.6420  220.1290 N   0  0  0  0  0  0  0  0  0  0  0  0
  138.6300   76.3680  219.1390 C   0  0  0  0  0  0  0  0  0  0  0  0
  138.3060   77.6220  218.3690 C   0  0  0  0  0  0  0  0  0  0  0  0
  139.6330   78.0180  217.7080 C   0  0  0  0  0  0  0  0  0  0  0  0
  140.4780   78.5800  218.8230 C   0  0  0  0  0  0  0  0  0  0  0  0
  140.6120   77.7150  220.0170 C   0  0  1  0  0  0  0  0  0  0  0  0
  140.6330   78.5840  221.2280 C   0  0  0  0  0  0  0  0  0  0  0  0
  141.8020   79.0800  221.7690 C   0  0  0  0  0  0  0  0  0  0  0  0
  141.8450   79.8830  222.8830 C   0  0  0  0  0  0  0  0  0  0  0  0
  143.3500   80.5000  223.5490 Cl  0  0  0  0  0  0  0  0  0  0  0  0
  140.6670   80.2300  223.5180 C   0  0  0  0  0  0  0  0  0  0  0  0
  139.4630   79.7540  223.0070 C   0  0  0  0  0  0  0  0  0  0  0  0
  137.9610   80.2020  223.8230 Cl  0  0  0  0  0  0  0  0  0  0  0  0
  139.4570   78.9480  221.8850 C   0  0  0  0  0  0  0  0  0  0  0  0
  140.3410   71.5320  223.6460 C   0  0  0  0  0  0  0  0  0  0  0  0
  139.6330   70.3590  223.4080 C   0  0  0  0  0  0  0  0  0  0  0  0
  139.3710   69.5650  224.5060 C   0  0  0  0  0  0  0  0  0  0  0  0
  139.8020   69.9440  225.7610 C   0  0  0  0  0  0  0  0  0  0  0  0
  139.5230   69.1290  226.8370 C   0  0  0  0  0  0  0  0  0  0  0  0
  139.9650   69.5250  228.0920 C   0  0  0  0  0  0  0  0  0  0  0  0
  140.6640   70.7010  228.2710 C   0  0  0  0  0  0  0  0  0  0  0  0
  140.9410   71.5120  227.2020 C   0  0  0  0  0  0  0  0  0  0  0  0
  140.5010   71.1160  225.9550 C   0  0  0  0  0  0  0  0  0  0  0  0
  140.7500   71.8810  224.8770 N   0  0  0  0  0  0  0  0  0  0  0  0
  139.2960   73.9840  223.0980 H   0  0  0  0  0  0  0  0  0  0  0  0
  141.3866   74.4903  221.0842 H   0  0  0  0  0  0  0  0  0  0  0  0
  139.8470   73.9370  220.3091 H   0  0  0  0  0  0  0  0  0  0  0  0
  138.9940   75.5976  218.4433 H   0  0  0  0  0  0  0  0  0  0  0  0
  137.7218   76.0132  219.6482 H   0  0  0  0  0  0  0  0  0  0  0  0
  137.5363   77.4238  217.6085 H   0  0  0  0  0  0  0  0  0  0  0  0
  137.9050   78.4179  219.0137 H   0  0  0  0  0  0  0  0  0  0  0  0
  140.1192   77.1381  217.2615 H   0  0  0  0  0  0  0  0  0  0  0  0
  139.4868   78.7457  216.8962 H   0  0  0  0  0  0  0  0  0  0  0  0
  141.4861   78.7660  218.4240 H   0  0  0  0  0  0  0  0  0  0  0  0
  139.9625   79.4897  219.1645 H   0  0  0  0  0  0  0  0  0  0  0  0
  141.5622   77.1713  219.9099 H   0  0  0  0  0  0  0  0  0  0  0  0
  142.7523   78.8177  221.2810 H   0  0  0  0  0  0  0  0  0  0  0  0
  140.6810   80.8712  224.4117 H   0  0  0  0  0  0  0  0  0  0  0  0
  138.4949   78.5817  221.4974 H   0  0  0  0  0  0  0  0  0  0  0  0
  139.2994   70.0788  222.3980 H   0  0  0  0  0  0  0  0  0  0  0  0
  138.8152   68.6242  224.3800 H   0  0  0  0  0  0  0  0  0  0  0  0
  138.9652   68.1902  226.7049 H   0  0  0  0  0  0  0  0  0  0  0  0
  139.7533   68.8872  228.9628 H   0  0  0  0  0  0  0  0  0  0  0  0
  141.0008   70.9891  229.2777 H   0  0  0  0  0  0  0  0  0  0  0  0
  141.4979   72.4515  227.3336 H   0  0  0  0  0  0  0  0  0  0  0  0
  1  2  2  0
  2  3  1  0
  3  4  1  0
  4  5  1  0
  5  6  2  0
  5  7  1  0
  7  8  1  0
  8  9  1  0
  9 10  1  0
 10 11  1  0
 11 12  1  0
 12 13  1  0
 13 14  2  0
 14 15  1  0
 15 16  1  0
 15 17  2  0
 17 18  1  0
 18 19  1  0
 18 20  2  0
  2 21  1  0
 21 22  2  0
 22 23  1  0
 23 24  2  0
 24 25  1  0
 25 26  2  0
 26 27  1  0
 27 28  2  0
 28 29  1  0
 29 30  2  0
 12  7  1  0
 20 13  1  0
 30 21  1  0
 29 24  1  0
  3 31  1  0
  4 32  1  0
  4 33  1  0
  8 34  1  0
  8 35  1  0
  9 36  1  0
  9 37  1  0
 10 38  1  0
 10 39  1  0
 11 40  1  0
 11 41  1  0
 12 42  1  6
 14 43  1  0
 17 44  1  0
 20 45  1  0
 22 46  1  0
 23 47  1  0
 25 48  1  0
 26 49  1  0
 27 50  1  0
 28 51  1  0
M  END
>  <smiles>  (97) 
O=C(NCC(=O)N1CCCCC1c1cc(Cl)cc(Cl)c1)c1ccc2ccccc2n1

>  <score_type>  (97) 
oracle

>  <origin>  (97) 
autodockgpu

>  <m_score__min__energy>  (97) 
-9.4399999999999995

>  <m_primary>  (97) 
energy

>  <rmsd>  (97) 
1.761066781467563

>  <m_score__min__rmsd>  (97) 
1.761066781467563

>  <meeko>  (97) 
{"free_energy": -8.64, "intermolecular_energy": -10.13, "internal_energy": -1.78, "cluster_size": 7, "cluster_id": 1, "rank_in_cluster": 7}

>  <energy>  (97) 
-8.47

>  <cluster_rmsd>  (97) 
0.07

>  <cluster>  (97) 
3

$$$$

     RDKit          3D

 51 54  0  0  0  0  0  0  0  0999 V2000
  140.6690   77.1780  218.4800 O   0  0  0  0  0  0  0  0  0  0  0  0
  141.8820   77.1120  218.8060 C   0  0  0  0  0  0  0  0  0  0  0  0
  142.5640   78.3610  219.0100 N   0  0  0  0  0  0  0  0  0  0  0  0
  141.7970   79.5650  218.8240 C   0  0  0  0  0  0  0  0  0  0  0  0
  140.8780   79.8110  219.9820 C   0  0  0  0  0  0  0  0  0  0  0  0
  139.6480   79.8390  219.7220 O   0  0  0  0  0  0  0  0  0  0  0  0
  141.4060   79.9990  221.2900 N   0  0  0  0  0  0  0  0  0  0  0  0
  141.4810   81.3410  221.8330 C   0  0  0  0  0  0  0  0  0  0  0  0
  141.4630   81.2930  223.3380 C   0  0  0  0  0  0  0  0  0  0  0  0
  142.7050   80.4710  223.7090 C   0  0  0  0  0  0  0  0  0  0  0  0
  142.3480   79.0440  223.3750 C   0  0  0  0  0  0  0  0  0  0  0  0
  141.8400   78.8210  222.0020 C   0  0  1  0  0  0  0  0  0  0  0  0
  140.7830   77.7710  222.0570 C   0  0  0  0  0  0  0  0  0  0  0  0
  139.4600   78.0590  222.3290 C   0  0  0  0  0  0  0  0  0  0  0  0
  138.4700   77.1080  222.3830 C   0  0  0  0  0  0  0  0  0  0  0  0
  136.7930   77.5060  222.7320 Cl  0  0  0  0  0  0  0  0  0  0  0  0
  138.7860   75.7820  222.1580 C   0  0  0  0  0  0  0  0  0  0  0  0
  140.1070   75.4440  221.8790 C   0  0  0  0  0  0  0  0  0  0  0  0
  140.5040   73.7460  221.5910 Cl  0  0  0  0  0  0  0  0  0  0  0  0
  141.0780   76.4260  221.8320 C   0  0  0  0  0  0  0  0  0  0  0  0
  142.6000   75.8530  218.9780 C   0  0  0  0  0  0  0  0  0  0  0  0
  142.1300   74.7660  218.2500 C   0  0  0  0  0  0  0  0  0  0  0  0
  142.8090   73.5760  218.4130 C   0  0  0  0  0  0  0  0  0  0  0  0
  143.8920   73.5010  219.2640 C   0  0  0  0  0  0  0  0  0  0  0  0
  144.5490   72.2980  219.4070 C   0  0  0  0  0  0  0  0  0  0  0  0
  145.6370   72.2410  220.2660 C   0  0  0  0  0  0  0  0  0  0  0  0
  146.0610   73.3520  220.9670 C   0  0  0  0  0  0  0  0  0  0  0  0
  145.4080   74.5490  220.8260 C   0  0  0  0  0  0  0  0  0  0  0  0
  144.3270   74.6030  219.9710 C   0  0  0  0  0  0  0  0  0  0  0  0
  143.6570   75.7570  219.8020 N   0  0  0  0  0  0  0  0  0  0  0  0
  143.5880   78.3700  219.2860 H   0  0  0  0  0  0  0  0  0  0  0  0
  142.4859   80.4170  218.7263 H   0  0  0  0  0  0  0  0  0  0  0  0
  141.1872   79.4507  217.9157 H   0  0  0  0  0  0  0  0  0  0  0  0
  142.4128   81.8183  221.4955 H   0  0  0  0  0  0  0  0  0  0  0  0
  140.6145   81.9202  221.4812 H   0  0  0  0  0  0  0  0  0  0  0  0
  141.5267   82.3066  223.7605 H   0  0  0  0  0  0  0  0  0  0  0  0
  140.5355   80.8522  223.7322 H   0  0  0  0  0  0  0  0  0  0  0  0
  143.5747   80.7990  223.1208 H   0  0  0  0  0  0  0  0  0  0  0  0
  142.9759   80.5902  224.7684 H   0  0  0  0  0  0  0  0  0  0  0  0
  143.2502   78.4287  223.5072 H   0  0  0  0  0  0  0  0  0  0  0  0
  141.5241   78.7715  224.0510 H   0  0  0  0  0  0  0  0  0  0  0  0
  142.6954   78.4841  221.3980 H   0  0  0  0  0  0  0  0  0  0  0  0
  139.1836   79.1078  222.5125 H   0  0  0  0  0  0  0  0  0  0  0  0
  138.0068   75.0066  222.1987 H   0  0  0  0  0  0  0  0  0  0  0  0
  142.1163   76.1383  221.6102 H   0  0  0  0  0  0  0  0  0  0  0  0
  141.2623   74.8502  217.5792 H   0  0  0  0  0  0  0  0  0  0  0  0
  142.4847   72.6816  217.8609 H   0  0  0  0  0  0  0  0  0  0  0  0
  144.2193   71.4059  218.8543 H   0  0  0  0  0  0  0  0  0  0  0  0
  146.1738   71.2891  220.3913 H   0  0  0  0  0  0  0  0  0  0  0  0
  146.9266   73.2765  221.6416 H   0  0  0  0  0  0  0  0  0  0  0  0
  145.7368   75.4412  221.3791 H   0  0  0  0  0  0  0  0  0  0  0  0
  1  2  2  0
  2  3  1  0
  3  4  1  0
  4  5  1  0
  5  6  2  0
  5  7  1  0
  7  8  1  0
  8  9  1  0
  9 10  1  0
 10 11  1  0
 11 12  1  0
 12 13  1  0
 13 14  2  0
 14 15  1  0
 15 16  1  0
 15 17  2  0
 17 18  1  0
 18 19  1  0
 18 20  2  0
  2 21  1  0
 21 22  2  0
 22 23  1  0
 23 24  2  0
 24 25  1  0
 25 26  2  0
 26 27  1  0
 27 28  2  0
 28 29  1  0
 29 30  2  0
 12  7  1  0
 20 13  1  0
 30 21  1  0
 29 24  1  0
  3 31  1  0
  4 32  1  0
  4 33  1  0
  8 34  1  0
  8 35  1  0
  9 36  1  0
  9 37  1  0
 10 38  1  0
 10 39  1  0
 11 40  1  0
 11 41  1  0
 12 42  1  6
 14 43  1  0
 17 44  1  0
 20 45  1  0
 22 46  1  0
 23 47  1  0
 25 48  1  0
 26 49  1  0
 27 50  1  0
 28 51  1  0
M  END
>  <smiles>  (98) 
O=C(NCC(=O)N1CCCCC1c1cc(Cl)cc(Cl)c1)c1ccc2ccccc2n1

>  <score_type>  (98) 
oracle

>  <origin>  (98) 
autodockgpu

>  <m_score__min__energy>  (98) 
-9.4399999999999995

>  <m_primary>  (98) 
energy

>  <rmsd>  (98) 
7.61999437431218

>  <m_score__min__rmsd>  (98) 
7.61999437431218

>  <meeko>  (98) 
{"free_energy": -7.78, "intermolecular_energy": -9.28, "internal_energy": -2.91, "cluster_size": 2, "cluster_id": 4, "rank_in_cluster": 1}

>  <energy>  (98) 
-8.45

>  <cluster_rmsd>  (98) 
0.12

>  <cluster>  (98) 
3

$$$$

     RDKit          3D

 51 54  0  0  0  0  0  0  0  0999 V2000
  138.9320   75.2390  221.7250 O   0  0  0  0  0  0  0  0  0  0  0  0
  140.0550   75.7640  221.9380 C   0  0  0  0  0  0  0  0  0  0  0  0
  141.2060   74.9260  221.7340 N   0  0  0  0  0  0  0  0  0  0  0  0
  140.9660   73.5730  221.3050 C   0  0  0  0  0  0  0  0  0  0  0  0
  141.8270   73.2110  220.1340 C   0  0  0  0  0  0  0  0  0  0  0  0
  141.2270   72.9270  219.0660 O   0  0  0  0  0  0  0  0  0  0  0  0
  143.2450   73.1990  220.2610 N   0  0  0  0  0  0  0  0  0  0  0  0
  143.9490   71.9350  220.1700 C   0  0  0  0  0  0  0  0  0  0  0  0
  145.3680   72.1650  219.7200 C   0  0  0  0  0  0  0  0  0  0  0  0
  145.9730   73.0640  220.8070 C   0  0  0  0  0  0  0  0  0  0  0  0
  145.3760   74.4280  220.5690 C   0  0  0  0  0  0  0  0  0  0  0  0
  143.8980   74.4680  220.4790 C   0  0  1  0  0  0  0  0  0  0  0  0
  143.5160   75.4830  219.4560 C   0  0  0  0  0  0  0  0  0  0  0  0
  143.7170   75.2910  218.1040 C   0  0  0  0  0  0  0  0  0  0  0  0
  143.3730   76.2120  217.1450 C   0  0  0  0  0  0  0  0  0  0  0  0
  143.6410   75.9390  215.4290 Cl  0  0  0  0  0  0  0  0  0  0  0  0
  142.7910   77.4070  217.5250 C   0  0  0  0  0  0  0  0  0  0  0  0
  142.5690   77.6450  218.8790 C   0  0  0  0  0  0  0  0  0  0  0  0
  141.8250   79.1740  219.3590 Cl  0  0  0  0  0  0  0  0  0  0  0  0
  142.9280   76.6960  219.8170 C   0  0  0  0  0  0  0  0  0  0  0  0
  140.2270   77.1460  222.3730 C   0  0  0  0  0  0  0  0  0  0  0  0
  139.0650   77.8720  222.6070 C   0  0  0  0  0  0  0  0  0  0  0  0
  139.2290   79.1800  223.0180 C   0  0  0  0  0  0  0  0  0  0  0  0
  140.4930   79.7090  223.1770 C   0  0  0  0  0  0  0  0  0  0  0  0
  140.6230   81.0170  223.5870 C   0  0  0  0  0  0  0  0  0  0  0  0
  141.9020   81.5330  223.7430 C   0  0  0  0  0  0  0  0  0  0  0  0
  143.0220   80.7670  223.4960 C   0  0  0  0  0  0  0  0  0  0  0  0
  142.8940   79.4650  223.0860 C   0  0  0  0  0  0  0  0  0  0  0  0
  141.6210   78.9550  222.9330 C   0  0  0  0  0  0  0  0  0  0  0  0
  141.4480   77.6820  222.5330 N   0  0  0  0  0  0  0  0  0  0  0  0
  142.1810   75.3110  221.8980 H   0  0  0  0  0  0  0  0  0  0  0  0
  141.1875   72.8888  222.1374 H   0  0  0  0  0  0  0  0  0  0  0  0
  139.9126   73.4878  221.0001 H   0  0  0  0  0  0  0  0  0  0  0  0
  143.9543   71.4495  221.1570 H   0  0  0  0  0  0  0  0  0  0  0  0
  143.4391   71.2903  219.4390 H   0  0  0  0  0  0  0  0  0  0  0  0
  145.9145   71.2126  219.6540 H   0  0  0  0  0  0  0  0  0  0  0  0
  145.4219   72.6217  218.7207 H   0  0  0  0  0  0  0  0  0  0  0  0
  145.7038   72.6943  221.8074 H   0  0  0  0  0  0  0  0  0  0  0  0
  147.0719   73.0823  220.7609 H   0  0  0  0  0  0  0  0  0  0  0  0
  145.6833   75.0823  221.3982 H   0  0  0  0  0  0  0  0  0  0  0  0
  145.7483   74.7545  219.5868 H   0  0  0  0  0  0  0  0  0  0  0  0
  143.5274   74.7565  221.4737 H   0  0  0  0  0  0  0  0  0  0  0  0
  144.1784   74.3477  217.7764 H   0  0  0  0  0  0  0  0  0  0  0  0
  142.5083   78.1566  216.7712 H   0  0  0  0  0  0  0  0  0  0  0  0
  142.7445   76.9032  220.8816 H   0  0  0  0  0  0  0  0  0  0  0  0
  138.0677   77.4281  222.4719 H   0  0  0  0  0  0  0  0  0  0  0  0
  138.3460   79.8042  223.2199 H   0  0  0  0  0  0  0  0  0  0  0  0
  139.7363   81.6369  223.7858 H   0  0  0  0  0  0  0  0  0  0  0  0
  142.0251   82.5758  224.0708 H   0  0  0  0  0  0  0  0  0  0  0  0
  144.0232   81.2029  223.6287 H   0  0  0  0  0  0  0  0  0  0  0  0
  143.7802   78.8451  222.8849 H   0  0  0  0  0  0  0  0  0  0  0  0
  1  2  2  0
  2  3  1  0
  3  4  1  0
  4  5  1  0
  5  6  2  0
  5  7  1  0
  7  8  1  0
  8  9  1  0
  9 10  1  0
 10 11  1  0
 11 12  1  0
 12 13  1  0
 13 14  2  0
 14 15  1  0
 15 16  1  0
 15 17  2  0
 17 18  1  0
 18 19  1  0
 18 20  2  0
  2 21  1  0
 21 22  2  0
 22 23  1  0
 23 24  2  0
 24 25  1  0
 25 26  2  0
 26 27  1  0
 27 28  2  0
 28 29  1  0
 29 30  2  0
 12  7  1  0
 20 13  1  0
 30 21  1  0
 29 24  1  0
  3 31  1  0
  4 32  1  0
  4 33  1  0
  8 34  1  0
  8 35  1  0
  9 36  1  0
  9 37  1  0
 10 38  1  0
 10 39  1  0
 11 40  1  0
 11 41  1  0
 12 42  1  1
 14 43  1  0
 17 44  1  0
 20 45  1  0
 22 46  1  0
 23 47  1  0
 25 48  1  0
 26 49  1  0
 27 50  1  0
 28 51  1  0
M  END
>  <smiles>  (99) 
O=C(NCC(=O)N1CCCCC1c1cc(Cl)cc(Cl)c1)c1ccc2ccccc2n1

>  <score_type>  (99) 
oracle

>  <origin>  (99) 
autodockgpu

>  <m_score__min__energy>  (99) 
-9.4399999999999995

>  <m_primary>  (99) 
energy

>  <rmsd>  (99) 
7.727542136563529

>  <m_score__min__rmsd>  (99) 
7.727542136563529

>  <meeko>  (99) 
{"free_energy": -8.5, "intermolecular_energy": -9.99, "internal_energy": -2.72, "cluster_size": 19, "cluster_id": 3, "rank_in_cluster": 8}

>  <energy>  (99) 
-7.78

>  <cluster_rmsd>  (99) 
0.0

>  <cluster>  (99) 
4

$$$$

     RDKit          3D

 51 54  0  0  0  0  0  0  0  0999 V2000
  140.9080   71.6900  221.4120 O   0  0  0  0  0  0  0  0  0  0  0  0
  140.3210   72.1370  222.4300 C   0  0  0  0  0  0  0  0  0  0  0  0
  139.7590   73.4560  222.3210 N   0  0  0  0  0  0  0  0  0  0  0  0
  139.9200   74.1370  221.0630 C   0  0  0  0  0  0  0  0  0  0  0  0
  140.9380   75.2320  221.1620 C   0  0  0  0  0  0  0  0  0  0  0  0
  141.2650   75.5870  222.3240 O   0  0  0  0  0  0  0  0  0  0  0  0
  141.4820   75.8160  219.9830 N   0  0  0  0  0  0  0  0  0  0  0  0
  141.5730   77.2600  219.8910 C   0  0  0  0  0  0  0  0  0  0  0  0
  142.6690   77.6500  218.9340 C   0  0  0  0  0  0  0  0  0  0  0  0
  142.2450   77.0300  217.5950 C   0  0  0  0  0  0  0  0  0  0  0  0
  142.5090   75.5520  217.7430 C   0  0  0  0  0  0  0  0  0  0  0  0
  141.9120   74.9160  218.9400 C   0  0  1  0  0  0  0  0  0  0  0  0
  142.8580   73.8790  219.4410 C   0  0  0  0  0  0  0  0  0  0  0  0
  143.9900   74.1900  220.1680 C   0  0  0  0  0  0  0  0  0  0  0  0
  144.8740   73.2510  220.6410 C   0  0  0  0  0  0  0  0  0  0  0  0
  146.3070   73.6780  221.5640 Cl  0  0  0  0  0  0  0  0  0  0  0  0
  144.6420   71.9110  220.3900 C   0  0  0  0  0  0  0  0  0  0  0  0
  143.5130   71.5500  219.6610 C   0  0  0  0  0  0  0  0  0  0  0  0
  143.2240   69.8350  219.3440 Cl  0  0  0  0  0  0  0  0  0  0  0  0
  142.6450   72.5210  219.2010 C   0  0  0  0  0  0  0  0  0  0  0  0
  140.1940   71.3910  223.6770 C   0  0  0  0  0  0  0  0  0  0  0  0
  139.5710   70.1500  223.5980 C   0  0  0  0  0  0  0  0  0  0  0  0
  139.4520   69.4450  224.7780 C   0  0  0  0  0  0  0  0  0  0  0  0
  139.9340   69.9720  225.9580 C   0  0  0  0  0  0  0  0  0  0  0  0
  139.7980   69.2440  227.1200 C   0  0  0  0  0  0  0  0  0  0  0  0
  140.2900   69.7890  228.2980 C   0  0  0  0  0  0  0  0  0  0  0  0
  140.8990   71.0270  228.3200 C   0  0  0  0  0  0  0  0  0  0  0  0
  141.0330   71.7530  227.1650 C   0  0  0  0  0  0  0  0  0  0  0  0
  140.5450   71.2080  225.9960 C   0  0  0  0  0  0  0  0  0  0  0  0
  140.6550   71.8850  224.8380 N   0  0  0  0  0  0  0  0  0  0  0  0
  139.2510   73.8880  223.1460 H   0  0  0  0  0  0  0  0  0  0  0  0
  140.2464   73.4122  220.3026 H   0  0  0  0  0  0  0  0  0  0  0  0
  138.9546   74.5851  220.7852 H   0  0  0  0  0  0  0  0  0  0  0  0
  140.6149   77.6626  219.5305 H   0  0  0  0  0  0  0  0  0  0  0  0
  141.8010   77.6703  220.8858 H   0  0  0  0  0  0  0  0  0  0  0  0
  142.7417   78.7444  218.8506 H   0  0  0  0  0  0  0  0  0  0  0  0
  143.6581   77.2996  219.2639 H   0  0  0  0  0  0  0  0  0  0  0  0
  141.1772   77.2141  217.4054 H   0  0  0  0  0  0  0  0  0  0  0  0
  142.7966   77.4636  216.7478 H   0  0  0  0  0  0  0  0  0  0  0  0
  142.1072   75.0449  216.8534 H   0  0  0  0  0  0  0  0  0  0  0  0
  143.5982   75.4489  217.8569 H   0  0  0  0  0  0  0  0  0  0  0  0
  140.9646   74.4585  218.6190 H   0  0  0  0  0  0  0  0  0  0  0  0
  144.1955   75.2496  220.3804 H   0  0  0  0  0  0  0  0  0  0  0  0
  145.3379   71.1438  220.7602 H   0  0  0  0  0  0  0  0  0  0  0  0
  141.7580   72.2141  218.6275 H   0  0  0  0  0  0  0  0  0  0  0  0
  139.1930   69.7516  222.6449 H   0  0  0  0  0  0  0  0  0  0  0  0
  138.9697   68.4564  224.7777 H   0  0  0  0  0  0  0  0  0  0  0  0
  139.3124   68.2570  227.1142 H   0  0  0  0  0  0  0  0  0  0  0  0
  140.1922   69.2212  229.2350 H   0  0  0  0  0  0  0  0  0  0  0  0
  141.2788   71.4333  229.2690 H   0  0  0  0  0  0  0  0  0  0  0  0
  141.5157   72.7414  227.1705 H   0  0  0  0  0  0  0  0  0  0  0  0
  1  2  2  0
  2  3  1  0
  3  4  1  0
  4  5  1  0
  5  6  2  0
  5  7  1  0
  7  8  1  0
  8  9  1  0
  9 10  1  0
 10 11  1  0
 11 12  1  0
 12 13  1  0
 13 14  2  0
 14 15  1  0
 15 16  1  0
 15 17  2  0
 17 18  1  0
 18 19  1  0
 18 20  2  0
  2 21  1  0
 21 22  2  0
 22 23  1  0
 23 24  2  0
 24 25  1  0
 25 26  2  0
 26 27  1  0
 27 28  2  0
 28 29  1  0
 29 30  2  0
 12  7  1  0
 20 13  1  0
 30 21  1  0
 29 24  1  0
  3 31  1  0
  4 32  1  0
  4 33  1  0
  8 34  1  0
  8 35  1  0
  9 36  1  0
  9 37  1  0
 10 38  1  0
 10 39  1  0
 11 40  1  0
 11 41  1  0
 12 42  1  6
 14 43  1  0
 17 44  1  0
 20 45  1  0
 22 46  1  0
 23 47  1  0
 25 48  1  0
 26 49  1  0
 27 50  1  0
 28 51  1  0
M  END
>  <smiles>  (100) 
O=C(NCC(=O)N1CCCCC1c1cc(Cl)cc(Cl)c1)c1ccc2ccccc2n1

>  <score_type>  (100) 
oracle

>  <origin>  (100) 
autodockgpu

>  <m_score__min__energy>  (100) 
-9.4399999999999995

>  <m_primary>  (100) 
energy

>  <rmsd>  (100) 
2.257140924497502

>  <m_score__min__rmsd>  (100) 
2.257140924497502

>  <meeko>  (100) 
{"free_energy": -8.94, "intermolecular_energy": -10.43, "internal_energy": -2.11, "cluster_size": 22, "cluster_id": 2, "rank_in_cluster": 11}

>  <energy>  (100) 
-7.78

>  <cluster_rmsd>  (100) 
0.14

>  <cluster>  (100) 
4

$$$$
