
     RDKit          3D

 54 57  0  0  0  0  0  0  0  0999 V2000
  139.3060   71.8720  220.5230 O   0  0  0  0  0  0  0  0  0  0  0  0
  139.2010   72.3620  221.6950 C   0  0  0  0  0  0  0  0  0  0  0  0
  138.8840   73.7420  221.9030 N   0  0  0  0  0  0  0  0  0  0  0  0
  138.6820   74.5820  220.7070 C   0  0  0  0  0  0  0  0  0  0  0  0
  138.9900   75.9810  221.0730 C   0  0  0  0  0  0  0  0  0  0  0  0
  138.0970   76.8610  221.2720 O   0  0  0  0  0  0  0  0  0  0  0  0
  140.3450   76.4690  221.2380 N   0  0  0  0  0  0  0  0  0  0  0  0
  141.2060   75.4210  221.7490 C   0  0  0  0  0  0  0  0  0  0  0  0
  141.9850   74.7500  220.6700 C   0  0  0  0  0  0  0  0  0  0  0  0
  142.5220   75.7200  219.6780 C   0  0  0  0  0  0  0  0  0  0  0  0
  141.5340   76.5320  218.9370 C   0  0  0  0  0  0  0  0  0  0  0  0
  141.2160   77.8780  219.5150 C   0  0  0  0  0  0  0  0  0  0  0  0
  140.5320   77.8440  220.8600 C   0  0  2  0  0  0  0  0  0  0  0  0
  141.2120   78.6970  221.8520 C   0  0  0  0  0  0  0  0  0  0  0  0
  141.9580   79.8130  221.5410 C   0  0  0  0  0  0  0  0  0  0  0  0
  142.5990   80.5780  222.5140 C   0  0  0  0  0  0  0  0  0  0  0  0
  142.5140   80.2510  223.8490 C   0  0  0  0  0  0  0  0  0  0  0  0
  141.7720   79.1380  224.1780 C   0  0  0  0  0  0  0  0  0  0  0  0
  141.1410   78.3860  223.2130 C   0  0  0  0  0  0  0  0  0  0  0  0
  139.4080   71.4980  222.8490 C   0  0  0  0  0  0  0  0  0  0  0  0
  139.0260   70.1770  222.8090 C   0  0  0  0  0  0  0  0  0  0  0  0
  139.1970   69.3110  223.8720 C   0  0  0  0  0  0  0  0  0  0  0  0
  139.7780   69.7980  225.0270 C   0  0  0  0  0  0  0  0  0  0  0  0
  139.9780   68.9780  226.1350 C   0  0  0  0  0  0  0  0  0  0  0  0
  140.5650   69.4910  227.2840 C   0  0  0  0  0  0  0  0  0  0  0  0
  140.8370   68.4880  228.7090 Cl  0  0  0  0  0  0  0  0  0  0  0  0
  140.9560   70.8330  227.3360 C   0  0  0  0  0  0  0  0  0  0  0  0
  140.7460   71.6250  226.2240 C   0  0  0  0  0  0  0  0  0  0  0  0
  140.1640   71.1350  225.0650 C   0  0  0  0  0  0  0  0  0  0  0  0
  139.9720   71.9510  223.9860 N   0  0  0  0  0  0  0  0  0  0  0  0
  138.8010   74.1300  222.8670 H   0  0  0  0  0  0  0  0  0  0  0  0
  139.3530   74.2508  219.9007 H   0  0  0  0  0  0  0  0  0  0  0  0
  137.6436   74.4996  220.3535 H   0  0  0  0  0  0  0  0  0  0  0  0
  141.9093   75.8620  222.4707 H   0  0  0  0  0  0  0  0  0  0  0  0
  140.5661   74.6620  222.2226 H   0  0  0  0  0  0  0  0  0  0  0  0
  142.8262   74.2071  221.1257 H   0  0  0  0  0  0  0  0  0  0  0  0
  141.3067   74.0654  220.1397 H   0  0  0  0  0  0  0  0  0  0  0  0
  143.1857   76.4129  220.2159 H   0  0  0  0  0  0  0  0  0  0  0  0
  143.0194   75.1044  218.9140 H   0  0  0  0  0  0  0  0  0  0  0  0
  141.9225   76.6870  217.9196 H   0  0  0  0  0  0  0  0  0  0  0  0
  140.5935   75.9633  218.9811 H   0  0  0  0  0  0  0  0  0  0  0  0
  142.1584   78.4347  219.6244 H   0  0  0  0  0  0  0  0  0  0  0  0
  140.5087   78.3541  218.8200 H   0  0  0  0  0  0  0  0  0  0  0  0
  139.5312   78.2970  220.8032 H   0  0  0  0  0  0  0  0  0  0  0  0
  142.0511   80.1111  220.4863 H   0  0  0  0  0  0  0  0  0  0  0  0
  143.1834   81.4589  222.2100 H   0  0  0  0  0  0  0  0  0  0  0  0
  143.0173   80.8530  224.6199 H   0  0  0  0  0  0  0  0  0  0  0  0
  141.6818   78.8440  225.2341 H   0  0  0  0  0  0  0  0  0  0  0  0
  140.5585   77.5065  223.5248 H   0  0  0  0  0  0  0  0  0  0  0  0
  138.5630   69.7924  221.8883 H   0  0  0  0  0  0  0  0  0  0  0  0
  138.8786   68.2605  223.8005 H   0  0  0  0  0  0  0  0  0  0  0  0
  139.6705   67.9225  226.0997 H   0  0  0  0  0  0  0  0  0  0  0  0
  141.4205   71.2485  228.2425 H   0  0  0  0  0  0  0  0  0  0  0  0
  141.0512   72.6812  226.2592 H   0  0  0  0  0  0  0  0  0  0  0  0
  1  2  2  0
  2  3  1  0
  3  4  1  0
  4  5  1  0
  5  6  2  0
  5  7  1  0
  7  8  1  0
  8  9  1  0
  9 10  1  0
 10 11  1  0
 11 12  1  0
 12 13  1  0
 13 14  1  0
 14 15  2  0
 15 16  1  0
 16 17  2  0
 17 18  1  0
 18 19  2  0
  2 20  1  0
 20 21  2  0
 21 22  1  0
 22 23  2  0
 23 24  1  0
 24 25  2  0
 25 26  1  0
 25 27  1  0
 27 28  2  0
 28 29  1  0
 29 30  2  0
 13  7  1  0
 19 14  1  0
 30 20  1  0
 29 23  1  0
  3 31  1  0
  4 32  1  0
  4 33  1  0
  8 34  1  0
  8 35  1  0
  9 36  1  0
  9 37  1  0
 10 38  1  0
 10 39  1  0
 11 40  1  0
 11 41  1  0
 12 42  1  0
 12 43  1  0
 13 44  1  6
 15 45  1  0
 16 46  1  0
 17 47  1  0
 18 48  1  0
 19 49  1  0
 21 50  1  0
 22 51  1  0
 24 52  1  0
 27 53  1  0
 28 54  1  0
M  END
>  <smiles>  (1) 
O=C(NCC(=O)N1CCCCCC1c1ccccc1)c1ccc2cc(Cl)ccc2n1

>  <score_type>  (1) 
oracle

>  <origin>  (1) 
autodockgpu

>  <m_score__min__energy>  (1) 
-6.9699999999999998

>  <m_primary>  (1) 
energy

>  <rmsd>  (1) 
2.165854423147969

>  <m_score__min__rmsd>  (1) 
2.165854423147969

>  <meeko>  (1) 
{"free_energy": -6.0, "intermolecular_energy": -9.28, "internal_energy": -1.78, "cluster_size": 15, "cluster_id": 1, "rank_in_cluster": 10}

>  <energy>  (1) 
-6.97

>  <cluster_rmsd>  (1) 
0.0

>  <cluster>  (1) 
1

$$$$

     RDKit          3D

 54 57  0  0  0  0  0  0  0  0999 V2000
  136.4160   77.8920  222.2820 O   0  0  0  0  0  0  0  0  0  0  0  0
  136.5820   76.7310  222.7800 C   0  0  0  0  0  0  0  0  0  0  0  0
  137.7580   75.9630  222.5090 N   0  0  0  0  0  0  0  0  0  0  0  0
  138.7780   76.5650  221.6300 C   0  0  0  0  0  0  0  0  0  0  0  0
  139.9480   75.6620  221.6010 C   0  0  0  0  0  0  0  0  0  0  0  0
  139.9460   74.5060  222.1250 O   0  0  0  0  0  0  0  0  0  0  0  0
  141.2010   76.0210  220.9670 N   0  0  0  0  0  0  0  0  0  0  0  0
  142.0960   74.8830  220.9260 C   0  0  0  0  0  0  0  0  0  0  0  0
  142.1960   74.2870  219.5640 C   0  0  0  0  0  0  0  0  0  0  0  0
  142.8810   75.1930  218.6030 C   0  0  0  0  0  0  0  0  0  0  0  0
  142.2610   76.5150  218.3750 C   0  0  0  0  0  0  0  0  0  0  0  0
  142.3710   77.4960  219.4950 C   0  0  0  0  0  0  0  0  0  0  0  0
  141.2720   77.3880  220.5240 C   0  0  2  0  0  0  0  0  0  0  0  0
  141.4020   78.4030  221.5860 C   0  0  0  0  0  0  0  0  0  0  0  0
  141.6430   79.7400  221.3610 C   0  0  0  0  0  0  0  0  0  0  0  0
  141.7760   80.6600  222.4010 C   0  0  0  0  0  0  0  0  0  0  0  0
  141.6720   80.2690  223.7170 C   0  0  0  0  0  0  0  0  0  0  0  0
  141.4310   78.9340  223.9600 C   0  0  0  0  0  0  0  0  0  0  0  0
  141.2990   78.0310  222.9300 C   0  0  0  0  0  0  0  0  0  0  0  0
  135.5500   76.1730  223.6450 C   0  0  0  0  0  0  0  0  0  0  0  0
  134.5650   76.9790  224.1660 C   0  0  0  0  0  0  0  0  0  0  0  0
  133.5630   76.5070  224.9910 C   0  0  0  0  0  0  0  0  0  0  0  0
  133.5530   75.1600  225.3050 C   0  0  0  0  0  0  0  0  0  0  0  0
  132.5710   74.6210  226.1320 C   0  0  0  0  0  0  0  0  0  0  0  0
  132.5830   73.2650  226.4320 C   0  0  0  0  0  0  0  0  0  0  0  0
  131.3580   72.5400  227.4750 Cl  0  0  0  0  0  0  0  0  0  0  0  0
  133.5800   72.4360  225.9090 C   0  0  0  0  0  0  0  0  0  0  0  0
  134.5420   72.9970  225.0920 C   0  0  0  0  0  0  0  0  0  0  0  0
  134.5510   74.3480  224.7760 C   0  0  0  0  0  0  0  0  0  0  0  0
  135.5210   74.8650  223.9650 N   0  0  0  0  0  0  0  0  0  0  0  0
  137.8820   75.0130  222.9240 H   0  0  0  0  0  0  0  0  0  0  0  0
  138.3725   76.6831  220.6143 H   0  0  0  0  0  0  0  0  0  0  0  0
  139.0701   77.5561  222.0073 H   0  0  0  0  0  0  0  0  0  0  0  0
  143.0974   75.2097  221.2429 H   0  0  0  0  0  0  0  0  0  0  0  0
  141.6908   74.1135  221.5996 H   0  0  0  0  0  0  0  0  0  0  0  0
  142.7626   73.3465  219.6296 H   0  0  0  0  0  0  0  0  0  0  0  0
  141.1742   74.1139  219.1953 H   0  0  0  0  0  0  0  0  0  0  0  0
  143.9014   75.3641  218.9766 H   0  0  0  0  0  0  0  0  0  0  0  0
  142.8253   74.6780  217.6326 H   0  0  0  0  0  0  0  0  0  0  0  0
  142.7378   76.9612  217.4898 H   0  0  0  0  0  0  0  0  0  0  0  0
  141.1847   76.3196  218.2591 H   0  0  0  0  0  0  0  0  0  0  0  0
  143.3342   77.3347  220.0012 H   0  0  0  0  0  0  0  0  0  0  0  0
  142.2865   78.4971  219.0470 H   0  0  0  0  0  0  0  0  0  0  0  0
  140.2942   77.6307  220.0825 H   0  0  0  0  0  0  0  0  0  0  0  0
  141.7339   80.0952  220.3239 H   0  0  0  0  0  0  0  0  0  0  0  0
  141.9675   81.7173  222.1654 H   0  0  0  0  0  0  0  0  0  0  0  0
  141.7768   80.9916  224.5397 H   0  0  0  0  0  0  0  0  0  0  0  0
  141.3423   78.5830  224.9987 H   0  0  0  0  0  0  0  0  0  0  0  0
  141.1050   76.9759  223.1733 H   0  0  0  0  0  0  0  0  0  0  0  0
  134.5757   78.0497  223.9138 H   0  0  0  0  0  0  0  0  0  0  0  0
  132.7929   77.1847  225.3881 H   0  0  0  0  0  0  0  0  0  0  0  0
  131.7856   75.2693  226.5478 H   0  0  0  0  0  0  0  0  0  0  0  0
  133.5978   71.3613  226.1429 H   0  0  0  0  0  0  0  0  0  0  0  0
  135.3289   72.3499  224.6772 H   0  0  0  0  0  0  0  0  0  0  0  0
  1  2  2  0
  2  3  1  0
  3  4  1  0
  4  5  1  0
  5  6  2  0
  5  7  1  0
  7  8  1  0
  8  9  1  0
  9 10  1  0
 10 11  1  0
 11 12  1  0
 12 13  1  0
 13 14  1  0
 14 15  2  0
 15 16  1  0
 16 17  2  0
 17 18  1  0
 18 19  2  0
  2 20  1  0
 20 21  2  0
 21 22  1  0
 22 23  2  0
 23 24  1  0
 24 25  2  0
 25 26  1  0
 25 27  1  0
 27 28  2  0
 28 29  1  0
 29 30  2  0
 13  7  1  0
 19 14  1  0
 30 20  1  0
 29 23  1  0
  3 31  1  0
  4 32  1  0
  4 33  1  0
  8 34  1  0
  8 35  1  0
  9 36  1  0
  9 37  1  0
 10 38  1  0
 10 39  1  0
 11 40  1  0
 11 41  1  0
 12 42  1  0
 12 43  1  0
 13 44  1  6
 15 45  1  0
 16 46  1  0
 17 47  1  0
 18 48  1  0
 19 49  1  0
 21 50  1  0
 22 51  1  0
 24 52  1  0
 27 53  1  0
 28 54  1  0
M  END
>  <smiles>  (2) 
O=C(NCC(=O)N1CCCCCC1c1ccccc1)c1ccc2cc(Cl)ccc2n1

>  <score_type>  (2) 
oracle

>  <origin>  (2) 
autodockgpu

>  <m_score__min__energy>  (2) 
-6.9699999999999998

>  <m_primary>  (2) 
energy

>  <rmsd>  (2) 
6.111250084585602

>  <m_score__min__rmsd>  (2) 
6.111250084585602

>  <meeko>  (2) 
{"free_energy": -5.68, "intermolecular_energy": -8.96, "internal_energy": -2.07, "cluster_size": 1, "cluster_id": 8, "rank_in_cluster": 1}

>  <energy>  (2) 
-6.92

>  <cluster_rmsd>  (2) 
0.49

>  <cluster>  (2) 
1

$$$$

     RDKit          3D

 54 57  0  0  0  0  0  0  0  0999 V2000
  141.0240   72.9480  221.3060 O   0  0  0  0  0  0  0  0  0  0  0  0
  140.1020   72.9300  222.1850 C   0  0  0  0  0  0  0  0  0  0  0  0
  139.0280   73.8760  222.1620 N   0  0  0  0  0  0  0  0  0  0  0  0
  139.0250   74.8760  221.0770 C   0  0  0  0  0  0  0  0  0  0  0  0
  140.0900   75.8610  221.3610 C   0  0  0  0  0  0  0  0  0  0  0  0
  140.5670   76.0540  222.5210 O   0  0  0  0  0  0  0  0  0  0  0  0
  140.6830   76.6930  220.3330 N   0  0  0  0  0  0  0  0  0  0  0  0
  141.5520   75.9070  219.4800 C   0  0  0  0  0  0  0  0  0  0  0  0
  142.9030   76.5180  219.3280 C   0  0  0  0  0  0  0  0  0  0  0  0
  142.8870   77.7020  218.4280 C   0  0  0  0  0  0  0  0  0  0  0  0
  142.1570   78.8940  218.9070 C   0  0  0  0  0  0  0  0  0  0  0  0
  140.6850   78.7300  219.0830 C   0  0  0  0  0  0  0  0  0  0  0  0
  140.2820   78.0730  220.3810 C   0  0  2  0  0  0  0  0  0  0  0  0
  140.7410   78.8360  221.5560 C   0  0  0  0  0  0  0  0  0  0  0  0
  139.9360   79.6560  222.3170 C   0  0  0  0  0  0  0  0  0  0  0  0
  140.4210   80.3730  223.4100 C   0  0  0  0  0  0  0  0  0  0  0  0
  141.7440   80.2940  223.7850 C   0  0  0  0  0  0  0  0  0  0  0  0
  142.5630   79.4780  223.0350 C   0  0  0  0  0  0  0  0  0  0  0  0
  142.0790   78.7730  221.9580 C   0  0  0  0  0  0  0  0  0  0  0  0
  140.1430   71.9250  223.2390 C   0  0  0  0  0  0  0  0  0  0  0  0
  139.6750   70.6520  223.0070 C   0  0  0  0  0  0  0  0  0  0  0  0
  139.6870   69.6590  223.9680 C   0  0  0  0  0  0  0  0  0  0  0  0
  140.1940   69.9620  225.2180 C   0  0  0  0  0  0  0  0  0  0  0  0
  140.2350   69.0060  226.2300 C   0  0  0  0  0  0  0  0  0  0  0  0
  140.7490   69.3360  227.4770 C   0  0  0  0  0  0  0  0  0  0  0  0
  140.8190   68.1570  228.7870 Cl  0  0  0  0  0  0  0  0  0  0  0  0
  141.2260   70.6270  227.7240 C   0  0  0  0  0  0  0  0  0  0  0  0
  141.1740   71.5560  226.7030 C   0  0  0  0  0  0  0  0  0  0  0  0
  140.6660   71.2500  225.4490 C   0  0  0  0  0  0  0  0  0  0  0  0
  140.6310   72.1980  224.4650 N   0  0  0  0  0  0  0  0  0  0  0  0
  138.2790   73.8490  222.8870 H   0  0  0  0  0  0  0  0  0  0  0  0
  139.2204   74.3822  220.1137 H   0  0  0  0  0  0  0  0  0  0  0  0
  138.0469   75.3761  221.0208 H   0  0  0  0  0  0  0  0  0  0  0  0
  141.6650   74.9045  219.9186 H   0  0  0  0  0  0  0  0  0  0  0  0
  141.0906   75.8609  218.4825 H   0  0  0  0  0  0  0  0  0  0  0  0
  143.2634   76.8313  220.3189 H   0  0  0  0  0  0  0  0  0  0  0  0
  143.5662   75.7631  218.8806 H   0  0  0  0  0  0  0  0  0  0  0  0
  143.9311   78.0000  218.2517 H   0  0  0  0  0  0  0  0  0  0  0  0
  142.3431   77.3733  217.5302 H   0  0  0  0  0  0  0  0  0  0  0  0
  142.5827   79.1814  219.8797 H   0  0  0  0  0  0  0  0  0  0  0  0
  142.2797   79.6537  218.1210 H   0  0  0  0  0  0  0  0  0  0  0  0
  140.2205   79.7263  219.0429 H   0  0  0  0  0  0  0  0  0  0  0  0
  140.3442   78.0654  218.2754 H   0  0  0  0  0  0  0  0  0  0  0  0
  139.1889   78.0819  220.5037 H   0  0  0  0  0  0  0  0  0  0  0  0
  138.8723   79.7481  222.0525 H   0  0  0  0  0  0  0  0  0  0  0  0
  139.7346   81.0134  223.9833 H   0  0  0  0  0  0  0  0  0  0  0  0
  142.1304   80.8583  224.6466 H   0  0  0  0  0  0  0  0  0  0  0  0
  143.6260   79.3887  223.3034 H   0  0  0  0  0  0  0  0  0  0  0  0
  142.7716   78.1343  221.3903 H   0  0  0  0  0  0  0  0  0  0  0  0
  139.2730   70.4139  222.0112 H   0  0  0  0  0  0  0  0  0  0  0  0
  139.3028   68.6529  223.7440 H   0  0  0  0  0  0  0  0  0  0  0  0
  139.8601   67.9892  226.0414 H   0  0  0  0  0  0  0  0  0  0  0  0
  141.6336   70.8968  228.7094 H   0  0  0  0  0  0  0  0  0  0  0  0
  141.5482   72.5732  226.8908 H   0  0  0  0  0  0  0  0  0  0  0  0
  1  2  2  0
  2  3  1  0
  3  4  1  0
  4  5  1  0
  5  6  2  0
  5  7  1  0
  7  8  1  0
  8  9  1  0
  9 10  1  0
 10 11  1  0
 11 12  1  0
 12 13  1  0
 13 14  1  0
 14 15  2  0
 15 16  1  0
 16 17  2  0
 17 18  1  0
 18 19  2  0
  2 20  1  0
 20 21  2  0
 21 22  1  0
 22 23  2  0
 23 24  1  0
 24 25  2  0
 25 26  1  0
 25 27  1  0
 27 28  2  0
 28 29  1  0
 29 30  2  0
 13  7  1  0
 19 14  1  0
 30 20  1  0
 29 23  1  0
  3 31  1  0
  4 32  1  0
  4 33  1  0
  8 34  1  0
  8 35  1  0
  9 36  1  0
  9 37  1  0
 10 38  1  0
 10 39  1  0
 11 40  1  0
 11 41  1  0
 12 42  1  0
 12 43  1  0
 13 44  1  6
 15 45  1  0
 16 46  1  0
 17 47  1  0
 18 48  1  0
 19 49  1  0
 21 50  1  0
 22 51  1  0
 24 52  1  0
 27 53  1  0
 28 54  1  0
M  END
>  <smiles>  (3) 
O=C(NCC(=O)N1CCCCCC1c1ccccc1)c1ccc2cc(Cl)ccc2n1

>  <score_type>  (3) 
oracle

>  <origin>  (3) 
autodockgpu

>  <m_score__min__energy>  (3) 
-6.9699999999999998

>  <m_primary>  (3) 
energy

>  <rmsd>  (3) 
1.9438528653414548

>  <m_score__min__rmsd>  (3) 
1.9438528653414548

>  <meeko>  (3) 
{"free_energy": -6.54, "intermolecular_energy": -9.82, "internal_energy": -1.63, "cluster_size": 15, "cluster_id": 1, "rank_in_cluster": 7}

>  <energy>  (3) 
-6.91

>  <cluster_rmsd>  (3) 
0.23

>  <cluster>  (3) 
1

$$$$

     RDKit          3D

 54 57  0  0  0  0  0  0  0  0999 V2000
  140.1280   72.5150  220.7970 O   0  0  0  0  0  0  0  0  0  0  0  0
  139.8280   72.8800  221.9800 C   0  0  0  0  0  0  0  0  0  0  0  0
  139.4340   74.2240  222.2710 N   0  0  0  0  0  0  0  0  0  0  0  0
  139.3860   75.1780  221.1470 C   0  0  0  0  0  0  0  0  0  0  0  0
  140.4490   76.1840  221.3560 C   0  0  0  0  0  0  0  0  0  0  0  0
  141.6840   75.9300  221.2120 O   0  0  0  0  0  0  0  0  0  0  0  0
  140.1690   77.5520  221.7440 N   0  0  0  0  0  0  0  0  0  0  0  0
  138.7800   77.7000  222.1270 C   0  0  0  0  0  0  0  0  0  0  0  0
  138.4730   79.0670  222.6350 C   0  0  0  0  0  0  0  0  0  0  0  0
  139.2730   79.4110  223.8420 C   0  0  0  0  0  0  0  0  0  0  0  0
  140.6460   79.9040  223.6130 C   0  0  0  0  0  0  0  0  0  0  0  0
  141.6190   78.9140  223.0700 C   0  0  0  0  0  0  0  0  0  0  0  0
  141.3040   78.4340  221.6750 C   0  0  2  0  0  0  0  0  0  0  0  0
  141.1950   79.5480  220.7140 C   0  0  0  0  0  0  0  0  0  0  0  0
  140.6200   79.4490  219.4660 C   0  0  0  0  0  0  0  0  0  0  0  0
  140.5580   80.5280  218.5850 C   0  0  0  0  0  0  0  0  0  0  0  0
  141.0750   81.7580  218.9260 C   0  0  0  0  0  0  0  0  0  0  0  0
  141.6530   81.8740  220.1710 C   0  0  0  0  0  0  0  0  0  0  0  0
  141.7120   80.8060  221.0370 C   0  0  0  0  0  0  0  0  0  0  0  0
  139.8870   71.9050  223.0620 C   0  0  0  0  0  0  0  0  0  0  0  0
  139.4520   70.6160  222.8640 C   0  0  0  0  0  0  0  0  0  0  0  0
  139.4840   69.6500  223.8520 C   0  0  0  0  0  0  0  0  0  0  0  0
  139.9750   70.0000  225.0950 C   0  0  0  0  0  0  0  0  0  0  0  0
  140.0340   69.0740  226.1340 C   0  0  0  0  0  0  0  0  0  0  0  0
  140.5330   69.4510  227.3740 C   0  0  0  0  0  0  0  0  0  0  0  0
  140.6250   68.3110  228.7170 Cl  0  0  0  0  0  0  0  0  0  0  0  0
  140.9770   70.7600  227.5870 C   0  0  0  0  0  0  0  0  0  0  0  0
  140.9080   71.6580  226.5400 C   0  0  0  0  0  0  0  0  0  0  0  0
  140.4150   71.3060  225.2920 C   0  0  0  0  0  0  0  0  0  0  0  0
  140.3620   72.2240  224.2820 N   0  0  0  0  0  0  0  0  0  0  0  0
  139.1890   74.5090  223.2450 H   0  0  0  0  0  0  0  0  0  0  0  0
  139.5560   74.6467  220.1989 H   0  0  0  0  0  0  0  0  0  0  0  0
  138.4013   75.6662  221.1019 H   0  0  0  0  0  0  0  0  0  0  0  0
  138.1483   77.4993  221.2492 H   0  0  0  0  0  0  0  0  0  0  0  0
  138.5787   76.9871  222.9402 H   0  0  0  0  0  0  0  0  0  0  0  0
  138.6949   79.7974  221.8430 H   0  0  0  0  0  0  0  0  0  0  0  0
  137.4098   79.0919  222.9161 H   0  0  0  0  0  0  0  0  0  0  0  0
  138.7267   80.1915  224.3919 H   0  0  0  0  0  0  0  0  0  0  0  0
  139.3949   78.4628  224.3861 H   0  0  0  0  0  0  0  0  0  0  0  0
  140.5876   80.7416  222.9024 H   0  0  0  0  0  0  0  0  0  0  0  0
  141.0295   80.1789  224.6067 H   0  0  0  0  0  0  0  0  0  0  0  0
  142.6147   79.3814  223.0568 H   0  0  0  0  0  0  0  0  0  0  0  0
  141.5691   78.0318  223.7252 H   0  0  0  0  0  0  0  0  0  0  0  0
  142.1385   77.8463  221.2649 H   0  0  0  0  0  0  0  0  0  0  0  0
  140.1945   78.4840  219.1533 H   0  0  0  0  0  0  0  0  0  0  0  0
  140.0876   80.3943  217.5997 H   0  0  0  0  0  0  0  0  0  0  0  0
  141.0284   82.6115  218.2337 H   0  0  0  0  0  0  0  0  0  0  0  0
  142.0765   82.8411  220.4797 H   0  0  0  0  0  0  0  0  0  0  0  0
  142.1838   80.9476  222.0205 H   0  0  0  0  0  0  0  0  0  0  0  0
  139.0604   70.3407  221.8736 H   0  0  0  0  0  0  0  0  0  0  0  0
  139.1275   68.6284  223.6537 H   0  0  0  0  0  0  0  0  0  0  0  0
  139.6851   68.0434  225.9722 H   0  0  0  0  0  0  0  0  0  0  0  0
  141.3723   71.0674  228.5664 H   0  0  0  0  0  0  0  0  0  0  0  0
  141.2563   72.6888  226.7014 H   0  0  0  0  0  0  0  0  0  0  0  0
  1  2  2  0
  2  3  1  0
  3  4  1  0
  4  5  1  0
  5  6  2  0
  5  7  1  0
  7  8  1  0
  8  9  1  0
  9 10  1  0
 10 11  1  0
 11 12  1  0
 12 13  1  0
 13 14  1  0
 14 15  2  0
 15 16  1  0
 16 17  2  0
 17 18  1  0
 18 19  2  0
  2 20  1  0
 20 21  2  0
 21 22  1  0
 22 23  2  0
 23 24  1  0
 24 25  2  0
 25 26  1  0
 25 27  1  0
 27 28  2  0
 28 29  1  0
 29 30  2  0
 13  7  1  0
 19 14  1  0
 30 20  1  0
 29 23  1  0
  3 31  1  0
  4 32  1  0
  4 33  1  0
  8 34  1  0
  8 35  1  0
  9 36  1  0
  9 37  1  0
 10 38  1  0
 10 39  1  0
 11 40  1  0
 11 41  1  0
 12 42  1  0
 12 43  1  0
 13 44  1  6
 15 45  1  0
 16 46  1  0
 17 47  1  0
 18 48  1  0
 19 49  1  0
 21 50  1  0
 22 51  1  0
 24 52  1  0
 27 53  1  0
 28 54  1  0
M  END
>  <smiles>  (4) 
O=C(NCC(=O)N1CCCCCC1c1ccccc1)c1ccc2cc(Cl)ccc2n1

>  <score_type>  (4) 
oracle

>  <origin>  (4) 
autodockgpu

>  <m_score__min__energy>  (4) 
-6.9699999999999998

>  <m_primary>  (4) 
energy

>  <rmsd>  (4) 
3.1883902288091424

>  <m_score__min__rmsd>  (4) 
3.1883902288091424

>  <meeko>  (4) 
{"free_energy": -6.56, "intermolecular_energy": -9.84, "internal_energy": -1.47, "cluster_size": 4, "cluster_id": 2, "rank_in_cluster": 1}

>  <energy>  (4) 
-6.7

>  <cluster_rmsd>  (4) 
0.76

>  <cluster>  (4) 
1

$$$$

     RDKit          3D

 54 57  0  0  0  0  0  0  0  0999 V2000
  138.2760   79.8160  220.8840 O   0  0  0  0  0  0  0  0  0  0  0  0
  138.1860   79.6480  222.1440 C   0  0  0  0  0  0  0  0  0  0  0  0
  138.5520   78.4100  222.7620 N   0  0  0  0  0  0  0  0  0  0  0  0
  139.0400   77.3300  221.8840 C   0  0  0  0  0  0  0  0  0  0  0  0
  140.4850   77.1510  222.1400 C   0  0  0  0  0  0  0  0  0  0  0  0
  141.0300   76.0140  222.2880 O   0  0  0  0  0  0  0  0  0  0  0  0
  141.4070   78.2640  222.2440 N   0  0  0  0  0  0  0  0  0  0  0  0
  141.5940   78.6440  223.6300 C   0  0  0  0  0  0  0  0  0  0  0  0
  141.9790   80.0760  223.7790 C   0  0  0  0  0  0  0  0  0  0  0  0
  141.1310   80.9760  222.9520 C   0  0  0  0  0  0  0  0  0  0  0  0
  141.5250   81.1520  221.5390 C   0  0  0  0  0  0  0  0  0  0  0  0
  141.2240   80.0140  220.6260 C   0  0  0  0  0  0  0  0  0  0  0  0
  141.9260   78.7260  220.9850 C   0  0  2  0  0  0  0  0  0  0  0  0
  141.8960   77.7500  219.8800 C   0  0  0  0  0  0  0  0  0  0  0  0
  140.9210   77.7020  218.9070 C   0  0  0  0  0  0  0  0  0  0  0  0
  140.9260   76.7460  217.8920 C   0  0  0  0  0  0  0  0  0  0  0  0
  141.9190   75.7950  217.8120 C   0  0  0  0  0  0  0  0  0  0  0  0
  142.9020   75.8300  218.7760 C   0  0  0  0  0  0  0  0  0  0  0  0
  142.8920   76.7750  219.7760 C   0  0  0  0  0  0  0  0  0  0  0  0
  137.6990   80.7410  222.9760 C   0  0  0  0  0  0  0  0  0  0  0  0
  137.4170   81.9680  222.4200 C   0  0  0  0  0  0  0  0  0  0  0  0
  136.9540   83.0400  223.1580 C   0  0  0  0  0  0  0  0  0  0  0  0
  136.7670   82.8690  224.5170 C   0  0  0  0  0  0  0  0  0  0  0  0
  136.3030   83.9100  225.3170 C   0  0  0  0  0  0  0  0  0  0  0  0
  136.1230   83.7120  226.6800 C   0  0  0  0  0  0  0  0  0  0  0  0
  135.5370   85.0030  227.7300 Cl  0  0  0  0  0  0  0  0  0  0  0  0
  136.4070   82.4690  227.2550 C   0  0  0  0  0  0  0  0  0  0  0  0
  136.8660   81.4550  226.4390 C   0  0  0  0  0  0  0  0  0  0  0  0
  137.0530   81.6270  225.0750 C   0  0  0  0  0  0  0  0  0  0  0  0
  137.5090   80.5980  224.3020 N   0  0  0  0  0  0  0  0  0  0  0  0
  138.4740   78.2860  223.7950 H   0  0  0  0  0  0  0  0  0  0  0  0
  138.5029   76.3963  222.1069 H   0  0  0  0  0  0  0  0  0  0  0  0
  138.8680   77.5883  220.8287 H   0  0  0  0  0  0  0  0  0  0  0  0
  140.6530   78.4727  224.1734 H   0  0  0  0  0  0  0  0  0  0  0  0
  142.4120   78.0323  224.0383 H   0  0  0  0  0  0  0  0  0  0  0  0
  141.8739   80.3628  224.8358 H   0  0  0  0  0  0  0  0  0  0  0  0
  143.0187   80.1831  223.4361 H   0  0  0  0  0  0  0  0  0  0  0  0
  140.1077   80.5726  222.9641 H   0  0  0  0  0  0  0  0  0  0  0  0
  141.2402   81.9716  223.4068 H   0  0  0  0  0  0  0  0  0  0  0  0
  141.0023   82.0395  221.1528 H   0  0  0  0  0  0  0  0  0  0  0  0
  142.6214   81.2405  221.5478 H   0  0  0  0  0  0  0  0  0  0  0  0
  140.1393   79.8326  220.6478 H   0  0  0  0  0  0  0  0  0  0  0  0
  141.5893   80.3045  219.6299 H   0  0  0  0  0  0  0  0  0  0  0  0
  143.0041   78.8920  221.1271 H   0  0  0  0  0  0  0  0  0  0  0  0
  140.1098   78.4445  218.9321 H   0  0  0  0  0  0  0  0  0  0  0  0
  140.1220   76.7515  217.1413 H   0  0  0  0  0  0  0  0  0  0  0  0
  141.9267   75.0397  217.0123 H   0  0  0  0  0  0  0  0  0  0  0  0
  143.7123   75.0867  218.7458 H   0  0  0  0  0  0  0  0  0  0  0  0
  143.6995   76.7627  220.5229 H   0  0  0  0  0  0  0  0  0  0  0  0
  137.5672   82.1011  221.3385 H   0  0  0  0  0  0  0  0  0  0  0  0
  136.7395   84.0054  222.6764 H   0  0  0  0  0  0  0  0  0  0  0  0
  136.0789   84.8895  224.8694 H   0  0  0  0  0  0  0  0  0  0  0  0
  136.2676   82.3033  228.3335 H   0  0  0  0  0  0  0  0  0  0  0  0
  137.0916   80.4755  226.8859 H   0  0  0  0  0  0  0  0  0  0  0  0
  1  2  2  0
  2  3  1  0
  3  4  1  0
  4  5  1  0
  5  6  2  0
  5  7  1  0
  7  8  1  0
  8  9  1  0
  9 10  1  0
 10 11  1  0
 11 12  1  0
 12 13  1  0
 13 14  1  0
 14 15  2  0
 15 16  1  0
 16 17  2  0
 17 18  1  0
 18 19  2  0
  2 20  1  0
 20 21  2  0
 21 22  1  0
 22 23  2  0
 23 24  1  0
 24 25  2  0
 25 26  1  0
 25 27  1  0
 27 28  2  0
 28 29  1  0
 29 30  2  0
 13  7  1  0
 19 14  1  0
 30 20  1  0
 29 23  1  0
  3 31  1  0
  4 32  1  0
  4 33  1  0
  8 34  1  0
  8 35  1  0
  9 36  1  0
  9 37  1  0
 10 38  1  0
 10 39  1  0
 11 40  1  0
 11 41  1  0
 12 42  1  0
 12 43  1  0
 13 44  1  1
 15 45  1  0
 16 46  1  0
 17 47  1  0
 18 48  1  0
 19 49  1  0
 21 50  1  0
 22 51  1  0
 24 52  1  0
 27 53  1  0
 28 54  1  0
M  END
>  <smiles>  (5) 
O=C(NCC(=O)N1CCCCCC1c1ccccc1)c1ccc2cc(Cl)ccc2n1

>  <score_type>  (5) 
oracle

>  <origin>  (5) 
autodockgpu

>  <m_score__min__energy>  (5) 
-6.9699999999999998

>  <m_primary>  (5) 
energy

>  <rmsd>  (5) 
9.58750719166938

>  <m_score__min__rmsd>  (5) 
9.58750719166938

>  <meeko>  (5) 
{"free_energy": -4.59, "intermolecular_energy": -7.87, "internal_energy": -2.7, "cluster_size": 1, "cluster_id": 15, "rank_in_cluster": 1}

>  <energy>  (5) 
-6.59

>  <cluster_rmsd>  (5) 
1.13

>  <cluster>  (5) 
1

$$$$

     RDKit          3D

 54 57  0  0  0  0  0  0  0  0999 V2000
  141.5980   75.1940  221.0390 O   0  0  0  0  0  0  0  0  0  0  0  0
  140.5670   75.2430  221.7870 C   0  0  0  0  0  0  0  0  0  0  0  0
  139.8500   74.0590  222.1510 N   0  0  0  0  0  0  0  0  0  0  0  0
  140.3490   72.7730  221.6280 C   0  0  0  0  0  0  0  0  0  0  0  0
  139.2690   71.7740  221.7650 C   0  0  0  0  0  0  0  0  0  0  0  0
  138.6450   71.2830  220.7740 O   0  0  0  0  0  0  0  0  0  0  0  0
  138.8290   71.2660  223.0490 N   0  0  0  0  0  0  0  0  0  0  0  0
  137.5630   71.8610  223.4270 C   0  0  0  0  0  0  0  0  0  0  0  0
  136.6480   70.8830  224.0800 C   0  0  0  0  0  0  0  0  0  0  0  0
  136.7370   69.5310  223.4650 C   0  0  0  0  0  0  0  0  0  0  0  0
  137.8320   68.6560  223.9340 C   0  0  0  0  0  0  0  0  0  0  0  0
  139.1800   68.9220  223.3590 C   0  0  0  0  0  0  0  0  0  0  0  0
  139.7170   70.3030  223.6440 C   0  0  2  0  0  0  0  0  0  0  0  0
  140.0150   70.5000  225.0750 C   0  0  0  0  0  0  0  0  0  0  0  0
  140.4870   71.6740  225.6190 C   0  0  0  0  0  0  0  0  0  0  0  0
  140.7720   71.8060  226.9780 C   0  0  0  0  0  0  0  0  0  0  0  0
  140.5920   70.7550  227.8500 C   0  0  0  0  0  0  0  0  0  0  0  0
  140.1200   69.5730  227.3220 C   0  0  0  0  0  0  0  0  0  0  0  0
  139.8400   69.4490  225.9800 C   0  0  0  0  0  0  0  0  0  0  0  0
  140.1080   76.5340  222.2830 C   0  0  0  0  0  0  0  0  0  0  0  0
  141.0130   77.4970  222.6640 C   0  0  0  0  0  0  0  0  0  0  0  0
  140.6370   78.7370  223.1420 C   0  0  0  0  0  0  0  0  0  0  0  0
  139.2870   79.0200  223.2410 C   0  0  0  0  0  0  0  0  0  0  0  0
  138.8420   80.2510  223.7150 C   0  0  0  0  0  0  0  0  0  0  0  0
  137.4800   80.5100  223.8040 C   0  0  0  0  0  0  0  0  0  0  0  0
  136.8720   82.0550  224.3990 Cl  0  0  0  0  0  0  0  0  0  0  0  0
  136.5510   79.5380  223.4210 C   0  0  0  0  0  0  0  0  0  0  0  0
  137.0200   78.3250  222.9540 C   0  0  0  0  0  0  0  0  0  0  0  0
  138.3740   78.0430  222.8550 C   0  0  0  0  0  0  0  0  0  0  0  0
  138.7980   76.8310  222.3880 N   0  0  0  0  0  0  0  0  0  0  0  0
  139.0090   74.1130  222.7640 H   0  0  0  0  0  0  0  0  0  0  0  0
  140.6240   72.8824  220.5686 H   0  0  0  0  0  0  0  0  0  0  0  0
  141.2394   72.4523  222.1887 H   0  0  0  0  0  0  0  0  0  0  0  0
  137.7560   72.6866  224.1279 H   0  0  0  0  0  0  0  0  0  0  0  0
  137.0728   72.2176  222.5091 H   0  0  0  0  0  0  0  0  0  0  0  0
  136.9137   70.8058  225.1446 H   0  0  0  0  0  0  0  0  0  0  0  0
  135.6178   71.2458  223.9492 H   0  0  0  0  0  0  0  0  0  0  0  0
  135.7878   69.0118  223.6639 H   0  0  0  0  0  0  0  0  0  0  0  0
  136.9493   69.7123  222.4010 H   0  0  0  0  0  0  0  0  0  0  0  0
  137.9054   68.7666  225.0260 H   0  0  0  0  0  0  0  0  0  0  0  0
  137.5637   67.6436  223.5978 H   0  0  0  0  0  0  0  0  0  0  0  0
  139.8834   68.1863  223.7762 H   0  0  0  0  0  0  0  0  0  0  0  0
  139.0766   68.8443  222.2666 H   0  0  0  0  0  0  0  0  0  0  0  0
  140.7014   70.4464  223.1745 H   0  0  0  0  0  0  0  0  0  0  0  0
  140.6449   72.5388  224.9578 H   0  0  0  0  0  0  0  0  0  0  0  0
  141.1473   72.7667  227.3603 H   0  0  0  0  0  0  0  0  0  0  0  0
  140.8156   70.8550  228.9224 H   0  0  0  0  0  0  0  0  0  0  0  0
  139.9637   68.7106  227.9867 H   0  0  0  0  0  0  0  0  0  0  0  0
  139.4640   68.4856  225.6052 H   0  0  0  0  0  0  0  0  0  0  0  0
  142.0862   77.2690  222.5843 H   0  0  0  0  0  0  0  0  0  0  0  0
  141.3922   79.4806  223.4365 H   0  0  0  0  0  0  0  0  0  0  0  0
  139.5688   81.0186  224.0191 H   0  0  0  0  0  0  0  0  0  0  0  0
  135.4709   79.7344  223.4899 H   0  0  0  0  0  0  0  0  0  0  0  0
  136.2940   77.5564  222.6502 H   0  0  0  0  0  0  0  0  0  0  0  0
  1  2  2  0
  2  3  1  0
  3  4  1  0
  4  5  1  0
  5  6  2  0
  5  7  1  0
  7  8  1  0
  8  9  1  0
  9 10  1  0
 10 11  1  0
 11 12  1  0
 12 13  1  0
 13 14  1  0
 14 15  2  0
 15 16  1  0
 16 17  2  0
 17 18  1  0
 18 19  2  0
  2 20  1  0
 20 21  2  0
 21 22  1  0
 22 23  2  0
 23 24  1  0
 24 25  2  0
 25 26  1  0
 25 27  1  0
 27 28  2  0
 28 29  1  0
 29 30  2  0
 13  7  1  0
 19 14  1  0
 30 20  1  0
 29 23  1  0
  3 31  1  0
  4 32  1  0
  4 33  1  0
  8 34  1  0
  8 35  1  0
  9 36  1  0
  9 37  1  0
 10 38  1  0
 10 39  1  0
 11 40  1  0
 11 41  1  0
 12 42  1  0
 12 43  1  0
 13 44  1  6
 15 45  1  0
 16 46  1  0
 17 47  1  0
 18 48  1  0
 19 49  1  0
 21 50  1  0
 22 51  1  0
 24 52  1  0
 27 53  1  0
 28 54  1  0
M  END
>  <smiles>  (6) 
O=C(NCC(=O)N1CCCCCC1c1ccccc1)c1ccc2cc(Cl)ccc2n1

>  <score_type>  (6) 
oracle

>  <origin>  (6) 
autodockgpu

>  <m_score__min__energy>  (6) 
-6.9699999999999998

>  <m_primary>  (6) 
energy

>  <rmsd>  (6) 
8.28273677585168

>  <m_score__min__rmsd>  (6) 
8.28273677585168

>  <meeko>  (6) 
{"free_energy": -5.98, "intermolecular_energy": -9.27, "internal_energy": -1.62, "cluster_size": 6, "cluster_id": 4, "rank_in_cluster": 1}

>  <energy>  (6) 
-6.57

>  <cluster_rmsd>  (6) 
0.82

>  <cluster>  (6) 
1

$$$$

     RDKit          3D

 54 57  0  0  0  0  0  0  0  0999 V2000
  139.1930   72.9070  220.3190 O   0  0  0  0  0  0  0  0  0  0  0  0
  140.1480   72.8400  221.1600 C   0  0  0  0  0  0  0  0  0  0  0  0
  141.3790   73.5400  220.9510 N   0  0  0  0  0  0  0  0  0  0  0  0
  141.5030   74.3470  219.7220 C   0  0  0  0  0  0  0  0  0  0  0  0
  141.7340   75.7520  220.1190 C   0  0  0  0  0  0  0  0  0  0  0  0
  142.8720   76.3120  220.0640 O   0  0  0  0  0  0  0  0  0  0  0  0
  140.6750   76.6140  220.6060 N   0  0  0  0  0  0  0  0  0  0  0  0
  139.7380   76.9200  219.5450 C   0  0  0  0  0  0  0  0  0  0  0  0
  138.5100   76.0780  219.6100 C   0  0  0  0  0  0  0  0  0  0  0  0
  137.7150   76.3370  220.8400 C   0  0  0  0  0  0  0  0  0  0  0  0
  138.2890   77.2830  221.8190 C   0  0  0  0  0  0  0  0  0  0  0  0
  139.4270   76.7720  222.6380 C   0  0  0  0  0  0  0  0  0  0  0  0
  140.7810   76.9560  221.9990 C   0  0  2  0  0  0  0  0  0  0  0  0
  141.3610   78.2800  222.2940 C   0  0  0  0  0  0  0  0  0  0  0  0
  141.6540   79.2320  221.3430 C   0  0  0  0  0  0  0  0  0  0  0  0
  142.2200   80.4640  221.6700 C   0  0  0  0  0  0  0  0  0  0  0  0
  142.5150   80.7900  222.9750 C   0  0  0  0  0  0  0  0  0  0  0  0
  142.2270   79.8490  223.9390 C   0  0  0  0  0  0  0  0  0  0  0  0
  141.6690   78.6350  223.6110 C   0  0  0  0  0  0  0  0  0  0  0  0
  139.9840   72.0330  222.3610 C   0  0  0  0  0  0  0  0  0  0  0  0
  139.1260   70.9580  222.3670 C   0  0  0  0  0  0  0  0  0  0  0  0
  138.9290   70.1570  223.4760 C   0  0  0  0  0  0  0  0  0  0  0  0
  139.6280   70.4540  224.6310 C   0  0  0  0  0  0  0  0  0  0  0  0
  139.4750   69.6870  225.7830 C   0  0  0  0  0  0  0  0  0  0  0  0
  140.1890   70.0060  226.9310 C   0  0  0  0  0  0  0  0  0  0  0  0
  140.0260   69.0620  228.4120 Cl  0  0  0  0  0  0  0  0  0  0  0  0
  141.0640   71.0970  226.9360 C   0  0  0  0  0  0  0  0  0  0  0  0
  141.1970   71.8410  225.7800 C   0  0  0  0  0  0  0  0  0  0  0  0
  140.4950   71.5420  224.6210 C   0  0  0  0  0  0  0  0  0  0  0  0
  140.6540   72.3030  223.4980 N   0  0  0  0  0  0  0  0  0  0  0  0
  142.1520   73.4770  221.6480 H   0  0  0  0  0  0  0  0  0  0  0  0
  142.3505   73.9847  219.1215 H   0  0  0  0  0  0  0  0  0  0  0  0
  140.5872   74.2664  219.1181 H   0  0  0  0  0  0  0  0  0  0  0  0
  139.4458   77.9774  219.6260 H   0  0  0  0  0  0  0  0  0  0  0  0
  140.2369   76.7115  218.5870 H   0  0  0  0  0  0  0  0  0  0  0  0
  137.8845   76.2956  218.7317 H   0  0  0  0  0  0  0  0  0  0  0  0
  138.8241   75.0239  219.6269 H   0  0  0  0  0  0  0  0  0  0  0  0
  136.7382   76.7343  220.5270 H   0  0  0  0  0  0  0  0  0  0  0  0
  137.6741   75.3708  221.3642 H   0  0  0  0  0  0  0  0  0  0  0  0
  138.6430   78.1653  221.2657 H   0  0  0  0  0  0  0  0  0  0  0  0
  137.4809   77.4927  222.5353 H   0  0  0  0  0  0  0  0  0  0  0  0
  139.4250   77.3037  223.6009 H   0  0  0  0  0  0  0  0  0  0  0  0
  139.2747   75.6883  222.7489 H   0  0  0  0  0  0  0  0  0  0  0  0
  141.5191   76.2695  222.4394 H   0  0  0  0  0  0  0  0  0  0  0  0
  141.4338   79.0129  220.2878 H   0  0  0  0  0  0  0  0  0  0  0  0
  142.4347   81.1886  220.8708 H   0  0  0  0  0  0  0  0  0  0  0  0
  142.9616   81.7606  223.2366 H   0  0  0  0  0  0  0  0  0  0  0  0
  142.4478   80.0729  224.9931 H   0  0  0  0  0  0  0  0  0  0  0  0
  141.4570   77.9158  224.4159 H   0  0  0  0  0  0  0  0  0  0  0  0
  138.5708   70.7249  221.4464 H   0  0  0  0  0  0  0  0  0  0  0  0
  138.2339   69.3052  223.4404 H   0  0  0  0  0  0  0  0  0  0  0  0
  138.7882   68.8278  225.7840 H   0  0  0  0  0  0  0  0  0  0  0  0
  141.6336   71.3568  227.8405 H   0  0  0  0  0  0  0  0  0  0  0  0
  141.8834   72.7006  225.7780 H   0  0  0  0  0  0  0  0  0  0  0  0
  1  2  2  0
  2  3  1  0
  3  4  1  0
  4  5  1  0
  5  6  2  0
  5  7  1  0
  7  8  1  0
  8  9  1  0
  9 10  1  0
 10 11  1  0
 11 12  1  0
 12 13  1  0
 13 14  1  0
 14 15  2  0
 15 16  1  0
 16 17  2  0
 17 18  1  0
 18 19  2  0
  2 20  1  0
 20 21  2  0
 21 22  1  0
 22 23  2  0
 23 24  1  0
 24 25  2  0
 25 26  1  0
 25 27  1  0
 27 28  2  0
 28 29  1  0
 29 30  2  0
 13  7  1  0
 19 14  1  0
 30 20  1  0
 29 23  1  0
  3 31  1  0
  4 32  1  0
  4 33  1  0
  8 34  1  0
  8 35  1  0
  9 36  1  0
  9 37  1  0
 10 38  1  0
 10 39  1  0
 11 40  1  0
 11 41  1  0
 12 42  1  0
 12 43  1  0
 13 44  1  1
 15 45  1  0
 16 46  1  0
 17 47  1  0
 18 48  1  0
 19 49  1  0
 21 50  1  0
 22 51  1  0
 24 52  1  0
 27 53  1  0
 28 54  1  0
M  END
>  <smiles>  (7) 
O=C(NCC(=O)N1CCCCCC1c1ccccc1)c1ccc2cc(Cl)ccc2n1

>  <score_type>  (7) 
oracle

>  <origin>  (7) 
autodockgpu

>  <m_score__min__energy>  (7) 
-6.9699999999999998

>  <m_primary>  (7) 
energy

>  <rmsd>  (7) 
2.867300419631345

>  <m_score__min__rmsd>  (7) 
2.867300419631345

>  <meeko>  (7) 
{"free_energy": -5.8, "intermolecular_energy": -9.08, "internal_energy": -2.18, "cluster_size": 1, "cluster_id": 6, "rank_in_cluster": 1}

>  <energy>  (7) 
-6.54

>  <cluster_rmsd>  (7) 
0.76

>  <cluster>  (7) 
1

$$$$

     RDKit          3D

 54 57  0  0  0  0  0  0  0  0999 V2000
  139.2990   74.7300  222.2770 O   0  0  0  0  0  0  0  0  0  0  0  0
  140.4800   75.0250  221.8990 C   0  0  0  0  0  0  0  0  0  0  0  0
  140.9700   76.3680  221.9600 N   0  0  0  0  0  0  0  0  0  0  0  0
  140.0570   77.4040  222.4790 C   0  0  0  0  0  0  0  0  0  0  0  0
  140.8780   78.5010  223.0340 C   0  0  0  0  0  0  0  0  0  0  0  0
  141.8690   78.3070  223.8040 O   0  0  0  0  0  0  0  0  0  0  0  0
  140.6220   79.8970  222.7430 N   0  0  0  0  0  0  0  0  0  0  0  0
  139.3690   80.3200  223.3360 C   0  0  0  0  0  0  0  0  0  0  0  0
  138.4520   80.9450  222.3420 C   0  0  0  0  0  0  0  0  0  0  0  0
  138.8810   82.3190  221.9670 C   0  0  0  0  0  0  0  0  0  0  0  0
  140.1590   82.4430  221.2350 C   0  0  0  0  0  0  0  0  0  0  0  0
  141.3860   82.0270  221.9720 C   0  0  0  0  0  0  0  0  0  0  0  0
  141.6430   80.5390  221.9610 C   0  0  2  0  0  0  0  0  0  0  0  0
  141.8310   80.0170  220.5950 C   0  0  0  0  0  0  0  0  0  0  0  0
  141.8120   78.6810  220.2610 C   0  0  0  0  0  0  0  0  0  0  0  0
  142.0140   78.2340  218.9550 C   0  0  0  0  0  0  0  0  0  0  0  0
  142.2430   79.1200  217.9260 C   0  0  0  0  0  0  0  0  0  0  0  0
  142.2660   80.4600  218.2420 C   0  0  0  0  0  0  0  0  0  0  0  0
  142.0660   80.8960  219.5320 C   0  0  0  0  0  0  0  0  0  0  0  0
  141.3500   73.9720  221.3930 C   0  0  0  0  0  0  0  0  0  0  0  0
  140.9100   72.6700  221.3400 C   0  0  0  0  0  0  0  0  0  0  0  0
  141.6900   71.6300  220.8710 C   0  0  0  0  0  0  0  0  0  0  0  0
  142.9710   71.9160  220.4370 C   0  0  0  0  0  0  0  0  0  0  0  0
  143.8080   70.9130  219.9530 C   0  0  0  0  0  0  0  0  0  0  0  0
  145.0910   71.2260  219.5230 C   0  0  0  0  0  0  0  0  0  0  0  0
  146.1840   69.9890  218.9030 Cl  0  0  0  0  0  0  0  0  0  0  0  0
  145.5490   72.5470  219.5730 C   0  0  0  0  0  0  0  0  0  0  0  0
  144.6980   73.5210  220.0580 C   0  0  0  0  0  0  0  0  0  0  0  0
  143.4120   73.2340  220.4920 C   0  0  0  0  0  0  0  0  0  0  0  0
  142.6020   74.2270  220.9650 N   0  0  0  0  0  0  0  0  0  0  0  0
  141.9390   76.5960  221.6480 H   0  0  0  0  0  0  0  0  0  0  0  0
  139.4249   77.7865  221.6641 H   0  0  0  0  0  0  0  0  0  0  0  0
  139.4053   76.9828  223.2586 H   0  0  0  0  0  0  0  0  0  0  0  0
  138.8708   79.4419  223.7728 H   0  0  0  0  0  0  0  0  0  0  0  0
  139.5988   81.0758  224.1015 H   0  0  0  0  0  0  0  0  0  0  0  0
  138.4325   80.3206  221.4366 H   0  0  0  0  0  0  0  0  0  0  0  0
  137.4549   81.0164  222.8010 H   0  0  0  0  0  0  0  0  0  0  0  0
  138.0922   82.7527  221.3347 H   0  0  0  0  0  0  0  0  0  0  0  0
  139.0454   82.8393  222.9221 H   0  0  0  0  0  0  0  0  0  0  0  0
  140.0870   81.8245  220.3282 H   0  0  0  0  0  0  0  0  0  0  0  0
  140.2833   83.5189  221.0428 H   0  0  0  0  0  0  0  0  0  0  0  0
  142.2504   82.5293  221.5132 H   0  0  0  0  0  0  0  0  0  0  0  0
  141.2340   82.3127  223.0233 H   0  0  0  0  0  0  0  0  0  0  0  0
  142.6047   80.3031  222.4401 H   0  0  0  0  0  0  0  0  0  0  0  0
  141.6309   77.9393  221.0529 H   0  0  0  0  0  0  0  0  0  0  0  0
  141.9899   77.1548  218.7435 H   0  0  0  0  0  0  0  0  0  0  0  0
  142.4009   78.7718  216.8946 H   0  0  0  0  0  0  0  0  0  0  0  0
  142.4481   81.1976  217.4466 H   0  0  0  0  0  0  0  0  0  0  0  0
  142.0919   81.9768  219.7351 H   0  0  0  0  0  0  0  0  0  0  0  0
  139.8904   72.4462  221.6868 H   0  0  0  0  0  0  0  0  0  0  0  0
  141.3016   70.6012  220.8438 H   0  0  0  0  0  0  0  0  0  0  0  0
  143.4526   69.8728  219.9114 H   0  0  0  0  0  0  0  0  0  0  0  0
  146.5634   72.8041  219.2339 H   0  0  0  0  0  0  0  0  0  0  0  0
  145.0527   74.5613  220.1016 H   0  0  0  0  0  0  0  0  0  0  0  0
  1  2  2  0
  2  3  1  0
  3  4  1  0
  4  5  1  0
  5  6  2  0
  5  7  1  0
  7  8  1  0
  8  9  1  0
  9 10  1  0
 10 11  1  0
 11 12  1  0
 12 13  1  0
 13 14  1  0
 14 15  2  0
 15 16  1  0
 16 17  2  0
 17 18  1  0
 18 19  2  0
  2 20  1  0
 20 21  2  0
 21 22  1  0
 22 23  2  0
 23 24  1  0
 24 25  2  0
 25 26  1  0
 25 27  1  0
 27 28  2  0
 28 29  1  0
 29 30  2  0
 13  7  1  0
 19 14  1  0
 30 20  1  0
 29 23  1  0
  3 31  1  0
  4 32  1  0
  4 33  1  0
  8 34  1  0
  8 35  1  0
  9 36  1  0
  9 37  1  0
 10 38  1  0
 10 39  1  0
 11 40  1  0
 11 41  1  0
 12 42  1  0
 12 43  1  0
 13 44  1  1
 15 45  1  0
 16 46  1  0
 17 47  1  0
 18 48  1  0
 19 49  1  0
 21 50  1  0
 22 51  1  0
 24 52  1  0
 27 53  1  0
 28 54  1  0
M  END
>  <smiles>  (8) 
O=C(NCC(=O)N1CCCCCC1c1ccccc1)c1ccc2cc(Cl)ccc2n1

>  <score_type>  (8) 
oracle

>  <origin>  (8) 
autodockgpu

>  <m_score__min__energy>  (8) 
-6.9699999999999998

>  <m_primary>  (8) 
energy

>  <rmsd>  (8) 
6.41643212621316

>  <m_score__min__rmsd>  (8) 
6.41643212621316

>  <meeko>  (8) 
{"free_energy": -5.55, "intermolecular_energy": -8.83, "internal_energy": -1.69, "cluster_size": 4, "cluster_id": 10, "rank_in_cluster": 1}

>  <energy>  (8) 
-6.47

>  <cluster_rmsd>  (8) 
1.16

>  <cluster>  (8) 
1

$$$$

     RDKit          3D

 54 57  0  0  0  0  0  0  0  0999 V2000
  139.1530   73.6210  222.3320 O   0  0  0  0  0  0  0  0  0  0  0  0
  139.8860   72.5860  222.2060 C   0  0  0  0  0  0  0  0  0  0  0  0
  140.6440   72.3450  221.0160 N   0  0  0  0  0  0  0  0  0  0  0  0
  140.5460   73.3430  219.9340 C   0  0  0  0  0  0  0  0  0  0  0  0
  141.1780   74.5930  220.4060 C   0  0  0  0  0  0  0  0  0  0  0  0
  141.4280   74.8270  221.6290 O   0  0  0  0  0  0  0  0  0  0  0  0
  141.5690   75.6620  219.5090 N   0  0  0  0  0  0  0  0  0  0  0  0
  140.4020   76.2750  218.9070 C   0  0  0  0  0  0  0  0  0  0  0  0
  140.4250   77.7610  219.0080 C   0  0  0  0  0  0  0  0  0  0  0  0
  141.3840   78.3750  218.0500 C   0  0  0  0  0  0  0  0  0  0  0  0
  142.8200   78.1220  218.2900 C   0  0  0  0  0  0  0  0  0  0  0  0
  143.2700   76.7050  218.1940 C   0  0  0  0  0  0  0  0  0  0  0  0
  142.9880   75.8780  219.4240 C   0  0  2  0  0  0  0  0  0  0  0  0
  143.8280   74.6680  219.4860 C   0  0  0  0  0  0  0  0  0  0  0  0
  143.7690   73.6300  218.5820 C   0  0  0  0  0  0  0  0  0  0  0  0
  144.5720   72.4950  218.6930 C   0  0  0  0  0  0  0  0  0  0  0  0
  145.4740   72.3590  219.7250 C   0  0  0  0  0  0  0  0  0  0  0  0
  145.5470   73.3880  220.6380 C   0  0  0  0  0  0  0  0  0  0  0  0
  144.7520   74.5060  220.5230 C   0  0  0  0  0  0  0  0  0  0  0  0
  139.9550   71.6260  223.3000 C   0  0  0  0  0  0  0  0  0  0  0  0
  139.5120   70.3350  223.1250 C   0  0  0  0  0  0  0  0  0  0  0  0
  139.5520   69.3830  224.1240 C   0  0  0  0  0  0  0  0  0  0  0  0
  140.0600   69.7470  225.3570 C   0  0  0  0  0  0  0  0  0  0  0  0
  140.1280   68.8350  226.4070 C   0  0  0  0  0  0  0  0  0  0  0  0
  140.6440   69.2260  227.6360 C   0  0  0  0  0  0  0  0  0  0  0  0
  140.7480   68.1030  228.9930 Cl  0  0  0  0  0  0  0  0  0  0  0  0
  141.0960   70.5350  227.8260 C   0  0  0  0  0  0  0  0  0  0  0  0
  141.0180   71.4200  226.7680 C   0  0  0  0  0  0  0  0  0  0  0  0
  140.5080   71.0530  225.5310 C   0  0  0  0  0  0  0  0  0  0  0  0
  140.4460   71.9580  224.5100 N   0  0  0  0  0  0  0  0  0  0  0  0
  141.2410   71.4940  220.9280 H   0  0  0  0  0  0  0  0  0  0  0  0
  141.0689   72.9754  219.0388 H   0  0  0  0  0  0  0  0  0  0  0  0
  139.4923   73.5224  219.6743 H   0  0  0  0  0  0  0  0  0  0  0  0
  140.3639   75.9938  217.8442 H   0  0  0  0  0  0  0  0  0  0  0  0
  139.5162   75.9156  219.4512 H   0  0  0  0  0  0  0  0  0  0  0  0
  139.4167   78.1461  218.7957 H   0  0  0  0  0  0  0  0  0  0  0  0
  140.7485   78.0252  220.0256 H   0  0  0  0  0  0  0  0  0  0  0  0
  141.1421   77.9940  217.0468 H   0  0  0  0  0  0  0  0  0  0  0  0
  141.2586   79.4608  218.1735 H   0  0  0  0  0  0  0  0  0  0  0  0
  143.3901   78.7046  217.5513 H   0  0  0  0  0  0  0  0  0  0  0  0
  142.9963   78.4134  219.3359 H   0  0  0  0  0  0  0  0  0  0  0  0
  142.7572   76.2380  217.3402 H   0  0  0  0  0  0  0  0  0  0  0  0
  144.3633   76.7296  218.0755 H   0  0  0  0  0  0  0  0  0  0  0  0
  143.2821   76.4181  220.3361 H   0  0  0  0  0  0  0  0  0  0  0  0
  143.0625   73.6989  217.7417 H   0  0  0  0  0  0  0  0  0  0  0  0
  144.4834   71.6948  217.9435 H   0  0  0  0  0  0  0  0  0  0  0  0
  146.1096   71.4659  219.8164 H   0  0  0  0  0  0  0  0  0  0  0  0
  146.2553   73.3148  221.4764 H   0  0  0  0  0  0  0  0  0  0  0  0
  144.8473   75.3024  221.2757 H   0  0  0  0  0  0  0  0  0  0  0  0
  139.1071   70.0482  222.1433 H   0  0  0  0  0  0  0  0  0  0  0  0
  139.1888   68.3605  223.9434 H   0  0  0  0  0  0  0  0  0  0  0  0
  139.7728   67.8039  226.2631 H   0  0  0  0  0  0  0  0  0  0  0  0
  141.5047   70.8534  228.7964 H   0  0  0  0  0  0  0  0  0  0  0  0
  141.3726   72.4514  226.9113 H   0  0  0  0  0  0  0  0  0  0  0  0
  1  2  2  0
  2  3  1  0
  3  4  1  0
  4  5  1  0
  5  6  2  0
  5  7  1  0
  7  8  1  0
  8  9  1  0
  9 10  1  0
 10 11  1  0
 11 12  1  0
 12 13  1  0
 13 14  1  0
 14 15  2  0
 15 16  1  0
 16 17  2  0
 17 18  1  0
 18 19  2  0
  2 20  1  0
 20 21  2  0
 21 22  1  0
 22 23  2  0
 23 24  1  0
 24 25  2  0
 25 26  1  0
 25 27  1  0
 27 28  2  0
 28 29  1  0
 29 30  2  0
 13  7  1  0
 19 14  1  0
 30 20  1  0
 29 23  1  0
  3 31  1  0
  4 32  1  0
  4 33  1  0
  8 34  1  0
  8 35  1  0
  9 36  1  0
  9 37  1  0
 10 38  1  0
 10 39  1  0
 11 40  1  0
 11 41  1  0
 12 42  1  0
 12 43  1  0
 13 44  1  1
 15 45  1  0
 16 46  1  0
 17 47  1  0
 18 48  1  0
 19 49  1  0
 21 50  1  0
 22 51  1  0
 24 52  1  0
 27 53  1  0
 28 54  1  0
M  END
>  <smiles>  (9) 
O=C(NCC(=O)N1CCCCCC1c1ccccc1)c1ccc2cc(Cl)ccc2n1

>  <score_type>  (9) 
oracle

>  <origin>  (9) 
autodockgpu

>  <m_score__min__energy>  (9) 
-6.9699999999999998

>  <m_primary>  (9) 
energy

>  <rmsd>  (9) 
2.094185437366258

>  <m_score__min__rmsd>  (9) 
2.094185437366258

>  <meeko>  (9) 
{"free_energy": -6.03, "intermolecular_energy": -9.31, "internal_energy": -1.54, "cluster_size": 3, "cluster_id": 3, "rank_in_cluster": 1}

>  <energy>  (9) 
-6.17

>  <cluster_rmsd>  (9) 
1.1

>  <cluster>  (9) 
1

$$$$

     RDKit          3D

 54 57  0  0  0  0  0  0  0  0999 V2000
  139.8090   72.0770  220.7000 O   0  0  0  0  0  0  0  0  0  0  0  0
  139.7540   72.5120  221.8960 C   0  0  0  0  0  0  0  0  0  0  0  0
  139.5750   73.9040  222.1790 N   0  0  0  0  0  0  0  0  0  0  0  0
  139.4550   74.8220  221.0310 C   0  0  0  0  0  0  0  0  0  0  0  0
  139.9720   76.1430  221.4460 C   0  0  0  0  0  0  0  0  0  0  0  0
  141.1610   76.3280  221.8510 O   0  0  0  0  0  0  0  0  0  0  0  0
  139.1620   77.3450  221.4250 N   0  0  0  0  0  0  0  0  0  0  0  0
  138.4120   77.4330  220.1890 C   0  0  0  0  0  0  0  0  0  0  0  0
  138.2850   78.8350  219.6990 C   0  0  0  0  0  0  0  0  0  0  0  0
  137.3090   79.6230  220.4980 C   0  0  0  0  0  0  0  0  0  0  0  0
  137.7170   80.0000  221.8670 C   0  0  0  0  0  0  0  0  0  0  0  0
  137.9600   78.8720  222.8160 C   0  0  0  0  0  0  0  0  0  0  0  0
  139.2720   78.1560  222.6070 C   0  0  2  0  0  0  0  0  0  0  0  0
  140.4220   79.0790  222.6500 C   0  0  0  0  0  0  0  0  0  0  0  0
  140.8910   79.6880  223.7930 C   0  0  0  0  0  0  0  0  0  0  0  0
  141.9720   80.5690  223.7800 C   0  0  0  0  0  0  0  0  0  0  0  0
  142.6290   80.8740  222.6080 C   0  0  0  0  0  0  0  0  0  0  0  0
  142.1720   80.2740  221.4560 C   0  0  0  0  0  0  0  0  0  0  0  0
  141.1060   79.4050  221.4750 C   0  0  0  0  0  0  0  0  0  0  0  0
  139.8760   71.5710  223.0020 C   0  0  0  0  0  0  0  0  0  0  0  0
  139.4600   70.2680  222.8580 C   0  0  0  0  0  0  0  0  0  0  0  0
  139.5500   69.3330  223.8710 C   0  0  0  0  0  0  0  0  0  0  0  0
  140.0850   69.7280  225.0830 C   0  0  0  0  0  0  0  0  0  0  0  0
  140.2030   68.8340  226.1450 C   0  0  0  0  0  0  0  0  0  0  0  0
  140.7440   69.2560  227.3520 C   0  0  0  0  0  0  0  0  0  0  0  0
  140.9130   68.1580  228.7220 Cl  0  0  0  0  0  0  0  0  0  0  0  0
  141.1700   70.5790  227.5090 C   0  0  0  0  0  0  0  0  0  0  0  0
  141.0410   71.4450  226.4410 C   0  0  0  0  0  0  0  0  0  0  0  0
  140.5050   71.0470  225.2250 C   0  0  0  0  0  0  0  0  0  0  0  0
  140.3940   71.9340  224.1920 N   0  0  0  0  0  0  0  0  0  0  0  0
  139.5310   74.2460  223.1630 H   0  0  0  0  0  0  0  0  0  0  0  0
  140.0442   74.4398  220.1844 H   0  0  0  0  0  0  0  0  0  0  0  0
  138.4042   74.9048  220.7163 H   0  0  0  0  0  0  0  0  0  0  0  0
  138.9255   76.8357  219.4211 H   0  0  0  0  0  0  0  0  0  0  0  0
  137.3983   77.0533  220.3845 H   0  0  0  0  0  0  0  0  0  0  0  0
  139.2691   79.3225  219.7610 H   0  0  0  0  0  0  0  0  0  0  0  0
  137.9210   78.7985  218.6616 H   0  0  0  0  0  0  0  0  0  0  0  0
  137.0998   80.5511  219.9459 H   0  0  0  0  0  0  0  0  0  0  0  0
  136.4423   78.9584  220.6294 H   0  0  0  0  0  0  0  0  0  0  0  0
  138.6474   80.5820  221.7919 H   0  0  0  0  0  0  0  0  0  0  0  0
  136.8665   80.5587  222.2848 H   0  0  0  0  0  0  0  0  0  0  0  0
  137.9463   79.2741  223.8398 H   0  0  0  0  0  0  0  0  0  0  0  0
  137.1656   78.1326  222.6363 H   0  0  0  0  0  0  0  0  0  0  0  0
  139.4842   77.4722  223.4421 H   0  0  0  0  0  0  0  0  0  0  0  0
  140.3950   79.4716  224.7507 H   0  0  0  0  0  0  0  0  0  0  0  0
  142.3060   81.0285  224.7220 H   0  0  0  0  0  0  0  0  0  0  0  0
  143.4826   81.5676  222.5932 H   0  0  0  0  0  0  0  0  0  0  0  0
  142.6700   80.4943  220.5002 H   0  0  0  0  0  0  0  0  0  0  0  0
  140.7789   78.9488  220.5290 H   0  0  0  0  0  0  0  0  0  0  0  0
  139.0362   69.9561  221.8920 H   0  0  0  0  0  0  0  0  0  0  0  0
  139.2046   68.3000  223.7171 H   0  0  0  0  0  0  0  0  0  0  0  0
  139.8673   67.7931  226.0271 H   0  0  0  0  0  0  0  0  0  0  0  0
  141.5984   70.9222  228.4623 H   0  0  0  0  0  0  0  0  0  0  0  0
  141.3749   72.4865  226.5586 H   0  0  0  0  0  0  0  0  0  0  0  0
  1  2  2  0
  2  3  1  0
  3  4  1  0
  4  5  1  0
  5  6  2  0
  5  7  1  0
  7  8  1  0
  8  9  1  0
  9 10  1  0
 10 11  1  0
 11 12  1  0
 12 13  1  0
 13 14  1  0
 14 15  2  0
 15 16  1  0
 16 17  2  0
 17 18  1  0
 18 19  2  0
  2 20  1  0
 20 21  2  0
 21 22  1  0
 22 23  2  0
 23 24  1  0
 24 25  2  0
 25 26  1  0
 25 27  1  0
 27 28  2  0
 28 29  1  0
 29 30  2  0
 13  7  1  0
 19 14  1  0
 30 20  1  0
 29 23  1  0
  3 31  1  0
  4 32  1  0
  4 33  1  0
  8 34  1  0
  8 35  1  0
  9 36  1  0
  9 37  1  0
 10 38  1  0
 10 39  1  0
 11 40  1  0
 11 41  1  0
 12 42  1  0
 12 43  1  0
 13 44  1  1
 15 45  1  0
 16 46  1  0
 17 47  1  0
 18 48  1  0
 19 49  1  0
 21 50  1  0
 22 51  1  0
 24 52  1  0
 27 53  1  0
 28 54  1  0
M  END
>  <smiles>  (10) 
O=C(NCC(=O)N1CCCCCC1c1ccccc1)c1ccc2cc(Cl)ccc2n1

>  <score_type>  (10) 
oracle

>  <origin>  (10) 
autodockgpu

>  <m_score__min__energy>  (10) 
-6.9699999999999998

>  <m_primary>  (10) 
energy

>  <rmsd>  (10) 
2.855860889874725

>  <m_score__min__rmsd>  (10) 
2.855860889874725

>  <meeko>  (10) 
{"free_energy": -6.16, "intermolecular_energy": -9.44, "internal_energy": -1.71, "cluster_size": 4, "cluster_id": 2, "rank_in_cluster": 2}

>  <energy>  (10) 
-6.0

>  <cluster_rmsd>  (10) 
1.29

>  <cluster>  (10) 
1

$$$$

     RDKit          3D

 54 57  0  0  0  0  0  0  0  0999 V2000
  140.1360   72.4610  220.6760 O   0  0  0  0  0  0  0  0  0  0  0  0
  139.9690   72.8820  221.8680 C   0  0  0  0  0  0  0  0  0  0  0  0
  139.7430   74.2670  222.1480 N   0  0  0  0  0  0  0  0  0  0  0  0
  139.7080   75.1960  221.0030 C   0  0  0  0  0  0  0  0  0  0  0  0
  139.9720   76.5580  221.5110 C   0  0  0  0  0  0  0  0  0  0  0  0
  139.8760   76.8730  222.7370 O   0  0  0  0  0  0  0  0  0  0  0  0
  140.3660   77.6550  220.6500 N   0  0  0  0  0  0  0  0  0  0  0  0
  141.0520   77.1590  219.4740 C   0  0  0  0  0  0  0  0  0  0  0  0
  142.1180   78.0880  219.0030 C   0  0  0  0  0  0  0  0  0  0  0  0
  141.5570   79.2950  218.3360 C   0  0  0  0  0  0  0  0  0  0  0  0
  140.9020   80.2930  219.2060 C   0  0  0  0  0  0  0  0  0  0  0  0
  139.6940   79.8380  219.9470 C   0  0  0  0  0  0  0  0  0  0  0  0
  139.9910   78.9560  221.1350 C   0  0  2  0  0  0  0  0  0  0  0  0
  140.9350   79.5890  222.0750 C   0  0  0  0  0  0  0  0  0  0  0  0
  142.2300   79.1670  222.2830 C   0  0  0  0  0  0  0  0  0  0  0  0
  143.0790   79.7870  223.1990 C   0  0  0  0  0  0  0  0  0  0  0  0
  142.6580   80.8650  223.9460 C   0  0  0  0  0  0  0  0  0  0  0  0
  141.3660   81.3000  223.7500 C   0  0  0  0  0  0  0  0  0  0  0  0
  140.5320   80.6840  222.8450 C   0  0  0  0  0  0  0  0  0  0  0  0
  140.0100   71.9300  222.9710 C   0  0  0  0  0  0  0  0  0  0  0  0
  139.5530   70.6440  222.8000 C   0  0  0  0  0  0  0  0  0  0  0  0
  139.5670   69.7000  223.8080 C   0  0  0  0  0  0  0  0  0  0  0  0
  140.0630   70.0680  225.0440 C   0  0  0  0  0  0  0  0  0  0  0  0
  140.1050   69.1640  226.1030 C   0  0  0  0  0  0  0  0  0  0  0  0
  140.6090   69.5590  227.3350 C   0  0  0  0  0  0  0  0  0  0  0  0
  140.6800   68.4460  228.7030 Cl  0  0  0  0  0  0  0  0  0  0  0  0
  141.0760   70.8640  227.5210 C   0  0  0  0  0  0  0  0  0  0  0  0
  141.0230   71.7400  226.4540 C   0  0  0  0  0  0  0  0  0  0  0  0
  140.5250   71.3700  225.2140 C   0  0  0  0  0  0  0  0  0  0  0  0
  140.4900   72.2670  224.1840 N   0  0  0  0  0  0  0  0  0  0  0  0
  139.6080   74.5970  223.1280 H   0  0  0  0  0  0  0  0  0  0  0  0
  140.4791   74.9149  220.2707 H   0  0  0  0  0  0  0  0  0  0  0  0
  138.7259   75.1564  220.5091 H   0  0  0  0  0  0  0  0  0  0  0  0
  141.5106   76.1888  219.7156 H   0  0  0  0  0  0  0  0  0  0  0  0
  140.3096   77.0647  218.6678 H   0  0  0  0  0  0  0  0  0  0  0  0
  142.7172   78.4076  219.8683 H   0  0  0  0  0  0  0  0  0  0  0  0
  142.7336   77.5504  218.2667 H   0  0  0  0  0  0  0  0  0  0  0  0
  142.3825   79.8001  217.8131 H   0  0  0  0  0  0  0  0  0  0  0  0
  140.7588   78.9167  217.6804 H   0  0  0  0  0  0  0  0  0  0  0  0
  141.6426   80.6272  219.9475 H   0  0  0  0  0  0  0  0  0  0  0  0
  140.5466   81.0821  218.5270 H   0  0  0  0  0  0  0  0  0  0  0  0
  139.1536   80.7270  220.3043 H   0  0  0  0  0  0  0  0  0  0  0  0
  139.1025   79.2324  219.2446 H   0  0  0  0  0  0  0  0  0  0  0  0
  139.0937   78.8170  221.7559 H   0  0  0  0  0  0  0  0  0  0  0  0
  142.6077   78.3102  221.7057 H   0  0  0  0  0  0  0  0  0  0  0  0
  144.1037   79.4083  223.3274 H   0  0  0  0  0  0  0  0  0  0  0  0
  143.3254   81.3576  224.6685 H   0  0  0  0  0  0  0  0  0  0  0  0
  140.9929   82.1577  224.3289 H   0  0  0  0  0  0  0  0  0  0  0  0
  139.5085   81.0682  222.7228 H   0  0  0  0  0  0  0  0  0  0  0  0
  139.1582   70.3541  221.8151 H   0  0  0  0  0  0  0  0  0  0  0  0
  139.1927   68.6808  223.6313 H   0  0  0  0  0  0  0  0  0  0  0  0
  139.7386   68.1363  225.9631 H   0  0  0  0  0  0  0  0  0  0  0  0
  141.4761   71.1854  228.4939 H   0  0  0  0  0  0  0  0  0  0  0  0
  141.3890   72.7679  226.5932 H   0  0  0  0  0  0  0  0  0  0  0  0
  1  2  2  0
  2  3  1  0
  3  4  1  0
  4  5  1  0
  5  6  2  0
  5  7  1  0
  7  8  1  0
  8  9  1  0
  9 10  1  0
 10 11  1  0
 11 12  1  0
 12 13  1  0
 13 14  1  0
 14 15  2  0
 15 16  1  0
 16 17  2  0
 17 18  1  0
 18 19  2  0
  2 20  1  0
 20 21  2  0
 21 22  1  0
 22 23  2  0
 23 24  1  0
 24 25  2  0
 25 26  1  0
 25 27  1  0
 27 28  2  0
 28 29  1  0
 29 30  2  0
 13  7  1  0
 19 14  1  0
 30 20  1  0
 29 23  1  0
  3 31  1  0
  4 32  1  0
  4 33  1  0
  8 34  1  0
  8 35  1  0
  9 36  1  0
  9 37  1  0
 10 38  1  0
 10 39  1  0
 11 40  1  0
 11 41  1  0
 12 42  1  0
 12 43  1  0
 13 44  1  1
 15 45  1  0
 16 46  1  0
 17 47  1  0
 18 48  1  0
 19 49  1  0
 21 50  1  0
 22 51  1  0
 24 52  1  0
 27 53  1  0
 28 54  1  0
M  END
>  <smiles>  (11) 
O=C(NCC(=O)N1CCCCCC1c1ccccc1)c1ccc2cc(Cl)ccc2n1

>  <score_type>  (11) 
oracle

>  <origin>  (11) 
autodockgpu

>  <m_score__min__energy>  (11) 
-6.9699999999999998

>  <m_primary>  (11) 
energy

>  <rmsd>  (11) 
2.38462931179161

>  <m_score__min__rmsd>  (11) 
2.38462931179161

>  <meeko>  (11) 
{"free_energy": -6.47, "intermolecular_energy": -9.76, "internal_energy": -2.1, "cluster_size": 15, "cluster_id": 1, "rank_in_cluster": 8}

>  <energy>  (11) 
-5.97

>  <cluster_rmsd>  (11) 
1.97

>  <cluster>  (11) 
1

$$$$

     RDKit          3D

 54 57  0  0  0  0  0  0  0  0999 V2000
  139.3860   80.7980  219.7280 O   0  0  0  0  0  0  0  0  0  0  0  0
  139.2050   79.5400  219.8290 C   0  0  0  0  0  0  0  0  0  0  0  0
  137.9010   78.9860  220.0290 N   0  0  0  0  0  0  0  0  0  0  0  0
  136.7670   79.9260  220.1130 C   0  0  0  0  0  0  0  0  0  0  0  0
  136.6190   80.3380  221.5250 C   0  0  0  0  0  0  0  0  0  0  0  0
  135.5340   80.2200  222.1740 O   0  0  0  0  0  0  0  0  0  0  0  0
  137.7060   80.9130  222.2930 N   0  0  0  0  0  0  0  0  0  0  0  0
  137.8710   82.3160  221.9700 C   0  0  0  0  0  0  0  0  0  0  0  0
  137.2520   83.2100  222.9880 C   0  0  0  0  0  0  0  0  0  0  0  0
  136.7100   82.4520  224.1480 C   0  0  0  0  0  0  0  0  0  0  0  0
  137.6780   81.6710  224.9460 C   0  0  0  0  0  0  0  0  0  0  0  0
  137.8250   80.2300  224.5810 C   0  0  0  0  0  0  0  0  0  0  0  0
  138.3540   79.9920  223.1870 C   0  0  2  0  0  0  0  0  0  0  0  0
  139.8290   79.9860  223.1460 C   0  0  0  0  0  0  0  0  0  0  0  0
  140.6100   81.1090  222.9850 C   0  0  0  0  0  0  0  0  0  0  0  0
  142.0020   81.0500  222.9330 C   0  0  0  0  0  0  0  0  0  0  0  0
  142.6690   79.8490  223.0420 C   0  0  0  0  0  0  0  0  0  0  0  0
  141.9030   78.7160  223.2030 C   0  0  0  0  0  0  0  0  0  0  0  0
  140.5290   78.7810  223.2540 C   0  0  0  0  0  0  0  0  0  0  0  0
  140.3520   78.6460  219.7390 C   0  0  0  0  0  0  0  0  0  0  0  0
  141.4600   79.0050  219.0070 C   0  0  0  0  0  0  0  0  0  0  0  0
  142.5750   78.1990  218.8850 C   0  0  0  0  0  0  0  0  0  0  0  0
  142.5740   76.9760  219.5310 C   0  0  0  0  0  0  0  0  0  0  0  0
  143.6670   76.1170  219.4480 C   0  0  0  0  0  0  0  0  0  0  0  0
  143.6410   74.8940  220.1070 C   0  0  0  0  0  0  0  0  0  0  0  0
  145.0030   73.7750  220.0290 Cl  0  0  0  0  0  0  0  0  0  0  0  0
  142.5200   74.5190  220.8540 C   0  0  0  0  0  0  0  0  0  0  0  0
  141.4500   75.3900  220.9180 C   0  0  0  0  0  0  0  0  0  0  0  0
  141.4520   76.6170  220.2710 C   0  0  0  0  0  0  0  0  0  0  0  0
  140.3730   77.4500  220.3600 N   0  0  0  0  0  0  0  0  0  0  0  0
  137.7670   77.9550  220.1090 H   0  0  0  0  0  0  0  0  0  0  0  0
  136.9656   80.8075  219.4857 H   0  0  0  0  0  0  0  0  0  0  0  0
  135.8444   79.4447  219.7566 H   0  0  0  0  0  0  0  0  0  0  0  0
  138.9462   82.5405  221.9098 H   0  0  0  0  0  0  0  0  0  0  0  0
  137.3662   82.5007  221.0103 H   0  0  0  0  0  0  0  0  0  0  0  0
  138.0146   83.9148  223.3508 H   0  0  0  0  0  0  0  0  0  0  0  0
  136.4142   83.7376  222.5087 H   0  0  0  0  0  0  0  0  0  0  0  0
  136.2297   83.1757  224.8230 H   0  0  0  0  0  0  0  0  0  0  0  0
  136.0297   81.7061  223.7112 H   0  0  0  0  0  0  0  0  0  0  0  0
  138.6637   82.1468  224.8370 H   0  0  0  0  0  0  0  0  0  0  0  0
  137.2834   81.6752  225.9728 H   0  0  0  0  0  0  0  0  0  0  0  0
  138.5174   79.7625  225.2965 H   0  0  0  0  0  0  0  0  0  0  0  0
  136.8162   79.7928  224.6135 H   0  0  0  0  0  0  0  0  0  0  0  0
  138.1009   78.9799  222.8382 H   0  0  0  0  0  0  0  0  0  0  0  0
  140.1174   82.0883  222.8941 H   0  0  0  0  0  0  0  0  0  0  0  0
  142.5778   81.9782  222.8027 H   0  0  0  0  0  0  0  0  0  0  0  0
  143.7671   79.7976  223.0021 H   0  0  0  0  0  0  0  0  0  0  0  0
  142.3995   77.7386  223.2927 H   0  0  0  0  0  0  0  0  0  0  0  0
  139.9600   77.8487  223.3848 H   0  0  0  0  0  0  0  0  0  0  0  0
  141.4579   79.9787  218.4953 H   0  0  0  0  0  0  0  0  0  0  0  0
  143.4417   78.5215  218.2893 H   0  0  0  0  0  0  0  0  0  0  0  0
  144.5509   76.4067  218.8608 H   0  0  0  0  0  0  0  0  0  0  0  0
  142.4910   73.5526  221.3786 H   0  0  0  0  0  0  0  0  0  0  0  0
  140.5646   75.1003  221.5029 H   0  0  0  0  0  0  0  0  0  0  0  0
  1  2  2  0
  2  3  1  0
  3  4  1  0
  4  5  1  0
  5  6  2  0
  5  7  1  0
  7  8  1  0
  8  9  1  0
  9 10  1  0
 10 11  1  0
 11 12  1  0
 12 13  1  0
 13 14  1  0
 14 15  2  0
 15 16  1  0
 16 17  2  0
 17 18  1  0
 18 19  2  0
  2 20  1  0
 20 21  2  0
 21 22  1  0
 22 23  2  0
 23 24  1  0
 24 25  2  0
 25 26  1  0
 25 27  1  0
 27 28  2  0
 28 29  1  0
 29 30  2  0
 13  7  1  0
 19 14  1  0
 30 20  1  0
 29 23  1  0
  3 31  1  0
  4 32  1  0
  4 33  1  0
  8 34  1  0
  8 35  1  0
  9 36  1  0
  9 37  1  0
 10 38  1  0
 10 39  1  0
 11 40  1  0
 11 41  1  0
 12 42  1  0
 12 43  1  0
 13 44  1  6
 15 45  1  0
 16 46  1  0
 17 47  1  0
 18 48  1  0
 19 49  1  0
 21 50  1  0
 22 51  1  0
 24 52  1  0
 27 53  1  0
 28 54  1  0
M  END
>  <smiles>  (12) 
O=C(NCC(=O)N1CCCCCC1c1ccccc1)c1ccc2cc(Cl)ccc2n1

>  <score_type>  (12) 
oracle

>  <origin>  (12) 
autodockgpu

>  <m_score__min__energy>  (12) 
-6.9699999999999998

>  <m_primary>  (12) 
energy

>  <rmsd>  (12) 
8.702325563949136

>  <m_score__min__rmsd>  (12) 
8.702325563949136

>  <meeko>  (12) 
{"free_energy": -4.05, "intermolecular_energy": -7.33, "internal_energy": -3.15, "cluster_size": 3, "cluster_id": 14, "rank_in_cluster": 3}

>  <energy>  (12) 
-5.86

>  <cluster_rmsd>  (12) 
1.22

>  <cluster>  (12) 
1

$$$$

     RDKit          3D

 54 57  0  0  0  0  0  0  0  0999 V2000
  140.5710   72.5350  220.8190 O   0  0  0  0  0  0  0  0  0  0  0  0
  140.1150   72.8930  221.9540 C   0  0  0  0  0  0  0  0  0  0  0  0
  139.6720   74.2330  222.1930 N   0  0  0  0  0  0  0  0  0  0  0  0
  139.7610   75.1890  221.0730 C   0  0  0  0  0  0  0  0  0  0  0  0
  140.7770   76.2060  221.4190 C   0  0  0  0  0  0  0  0  0  0  0  0
  141.0490   76.5370  222.6140 O   0  0  0  0  0  0  0  0  0  0  0  0
  141.5520   76.9130  220.4190 N   0  0  0  0  0  0  0  0  0  0  0  0
  142.4880   76.0160  219.7710 C   0  0  0  0  0  0  0  0  0  0  0  0
  142.2240   75.8770  218.3110 C   0  0  0  0  0  0  0  0  0  0  0  0
  142.6230   77.0920  217.5500 C   0  0  0  0  0  0  0  0  0  0  0  0
  141.8960   78.3410  217.8590 C   0  0  0  0  0  0  0  0  0  0  0  0
  142.1090   78.9060  219.2230 C   0  0  0  0  0  0  0  0  0  0  0  0
  141.2230   78.3070  220.2890 C   0  0  2  0  0  0  0  0  0  0  0  0
  141.2450   79.0930  221.5360 C   0  0  0  0  0  0  0  0  0  0  0  0
  142.3860   79.4060  222.2410 C   0  0  0  0  0  0  0  0  0  0  0  0
  142.3540   80.1370  223.4290 C   0  0  0  0  0  0  0  0  0  0  0  0
  141.1640   80.5860  223.9570 C   0  0  0  0  0  0  0  0  0  0  0  0
  140.0120   80.2810  223.2650 C   0  0  0  0  0  0  0  0  0  0  0  0
  140.0500   79.5590  222.0940 C   0  0  0  0  0  0  0  0  0  0  0  0
  140.0440   71.9170  223.0330 C   0  0  0  0  0  0  0  0  0  0  0  0
  139.4840   70.6790  222.8180 C   0  0  0  0  0  0  0  0  0  0  0  0
  139.3890   69.7150  223.8030 C   0  0  0  0  0  0  0  0  0  0  0  0
  139.8800   70.0110  225.0610 C   0  0  0  0  0  0  0  0  0  0  0  0
  139.8140   69.0830  226.0970 C   0  0  0  0  0  0  0  0  0  0  0  0
  140.3150   69.4050  227.3520 C   0  0  0  0  0  0  0  0  0  0  0  0
  140.2520   68.2600  228.6920 Cl  0  0  0  0  0  0  0  0  0  0  0  0
  140.8850   70.6610  227.5820 C   0  0  0  0  0  0  0  0  0  0  0  0
  140.9370   71.5630  226.5370 C   0  0  0  0  0  0  0  0  0  0  0  0
  140.4450   71.2640  225.2750 C   0  0  0  0  0  0  0  0  0  0  0  0
  140.5160   72.1840  224.2670 N   0  0  0  0  0  0  0  0  0  0  0  0
  139.3010   74.5130  223.1260 H   0  0  0  0  0  0  0  0  0  0  0  0
  140.0587   74.6614  220.1548 H   0  0  0  0  0  0  0  0  0  0  0  0
  138.7854   75.6671  220.9007 H   0  0  0  0  0  0  0  0  0  0  0  0
  143.5065   76.4076  219.9101 H   0  0  0  0  0  0  0  0  0  0  0  0
  142.3720   75.0225  220.2288 H   0  0  0  0  0  0  0  0  0  0  0  0
  142.7926   75.0166  217.9284 H   0  0  0  0  0  0  0  0  0  0  0  0
  141.1419   75.7335  218.1754 H   0  0  0  0  0  0  0  0  0  0  0  0
  143.6905   77.2714  217.7455 H   0  0  0  0  0  0  0  0  0  0  0  0
  142.3774   76.8681  216.5014 H   0  0  0  0  0  0  0  0  0  0  0  0
  142.2089   79.1012  217.1281 H   0  0  0  0  0  0  0  0  0  0  0  0
  140.8285   78.0800  217.8115 H   0  0  0  0  0  0  0  0  0  0  0  0
  143.1570   78.7319  219.5082 H   0  0  0  0  0  0  0  0  0  0  0  0
  141.8536   79.9744  219.1649 H   0  0  0  0  0  0  0  0  0  0  0  0
  140.1641   78.3573  219.9953 H   0  0  0  0  0  0  0  0  0  0  0  0
  143.3581   79.0673  221.8533 H   0  0  0  0  0  0  0  0  0  0  0  0
  143.2955   80.3585  223.9529 H   0  0  0  0  0  0  0  0  0  0  0  0
  141.1343   81.1641  224.8923 H   0  0  0  0  0  0  0  0  0  0  0  0
  139.0421   80.6216  223.6566 H   0  0  0  0  0  0  0  0  0  0  0  0
  139.1042   79.3399  221.5769 H   0  0  0  0  0  0  0  0  0  0  0  0
  139.0941   70.4461  221.8161 H   0  0  0  0  0  0  0  0  0  0  0  0
  138.9340   68.7361  223.5916 H   0  0  0  0  0  0  0  0  0  0  0  0
  139.3649   68.0943  225.9215 H   0  0  0  0  0  0  0  0  0  0  0  0
  141.2831   70.9249  228.5729 H   0  0  0  0  0  0  0  0  0  0  0  0
  141.3841   72.5527  226.7117 H   0  0  0  0  0  0  0  0  0  0  0  0
  1  2  2  0
  2  3  1  0
  3  4  1  0
  4  5  1  0
  5  6  2  0
  5  7  1  0
  7  8  1  0
  8  9  1  0
  9 10  1  0
 10 11  1  0
 11 12  1  0
 12 13  1  0
 13 14  1  0
 14 15  2  0
 15 16  1  0
 16 17  2  0
 17 18  1  0
 18 19  2  0
  2 20  1  0
 20 21  2  0
 21 22  1  0
 22 23  2  0
 23 24  1  0
 24 25  2  0
 25 26  1  0
 25 27  1  0
 27 28  2  0
 28 29  1  0
 29 30  2  0
 13  7  1  0
 19 14  1  0
 30 20  1  0
 29 23  1  0
  3 31  1  0
  4 32  1  0
  4 33  1  0
  8 34  1  0
  8 35  1  0
  9 36  1  0
  9 37  1  0
 10 38  1  0
 10 39  1  0
 11 40  1  0
 11 41  1  0
 12 42  1  0
 12 43  1  0
 13 44  1  6
 15 45  1  0
 16 46  1  0
 17 47  1  0
 18 48  1  0
 19 49  1  0
 21 50  1  0
 22 51  1  0
 24 52  1  0
 27 53  1  0
 28 54  1  0
M  END
>  <smiles>  (13) 
O=C(NCC(=O)N1CCCCCC1c1ccccc1)c1ccc2cc(Cl)ccc2n1

>  <score_type>  (13) 
oracle

>  <origin>  (13) 
autodockgpu

>  <m_score__min__energy>  (13) 
-6.9699999999999998

>  <m_primary>  (13) 
energy

>  <rmsd>  (13) 
2.1850279124448115

>  <m_score__min__rmsd>  (13) 
2.1850279124448115

>  <meeko>  (13) 
{"free_energy": -6.91, "intermolecular_energy": -10.19, "internal_energy": -1.67, "cluster_size": 15, "cluster_id": 1, "rank_in_cluster": 3}

>  <energy>  (13) 
-5.81

>  <cluster_rmsd>  (13) 
1.84

>  <cluster>  (13) 
1

$$$$

     RDKit          3D

 54 57  0  0  0  0  0  0  0  0999 V2000
  139.1760   74.3390  222.3050 O   0  0  0  0  0  0  0  0  0  0  0  0
  140.3510   74.6870  221.9530 C   0  0  0  0  0  0  0  0  0  0  0  0
  140.8120   76.0320  222.1140 N   0  0  0  0  0  0  0  0  0  0  0  0
  139.8760   77.0070  222.7050 C   0  0  0  0  0  0  0  0  0  0  0  0
  140.1090   78.3150  222.0570 C   0  0  0  0  0  0  0  0  0  0  0  0
  139.2260   78.9180  221.3720 O   0  0  0  0  0  0  0  0  0  0  0  0
  141.3700   79.0230  222.1490 N   0  0  0  0  0  0  0  0  0  0  0  0
  141.6740   79.3450  223.5290 C   0  0  0  0  0  0  0  0  0  0  0  0
  141.4160   80.7780  223.8480 C   0  0  0  0  0  0  0  0  0  0  0  0
  141.7840   81.6790  222.7220 C   0  0  0  0  0  0  0  0  0  0  0  0
  141.0560   81.4900  221.4510 C   0  0  0  0  0  0  0  0  0  0  0  0
  141.7300   80.6410  220.4270 C   0  0  0  0  0  0  0  0  0  0  0  0
  142.0270   79.2350  220.8880 C   0  0  2  0  0  0  0  0  0  0  0  0
  141.7450   78.2350  219.8400 C   0  0  0  0  0  0  0  0  0  0  0  0
  140.7110   78.3250  218.9340 C   0  0  0  0  0  0  0  0  0  0  0  0
  140.4730   77.3430  217.9720 C   0  0  0  0  0  0  0  0  0  0  0  0
  141.2720   76.2250  217.8820 C   0  0  0  0  0  0  0  0  0  0  0  0
  142.3110   76.1200  218.7800 C   0  0  0  0  0  0  0  0  0  0  0  0
  142.5410   77.0920  219.7270 C   0  0  0  0  0  0  0  0  0  0  0  0
  141.2440   73.6920  221.3740 C   0  0  0  0  0  0  0  0  0  0  0  0
  140.7950   72.4190  221.1140 C   0  0  0  0  0  0  0  0  0  0  0  0
  141.5950   71.4350  220.5660 C   0  0  0  0  0  0  0  0  0  0  0  0
  142.9090   71.7490  220.2680 C   0  0  0  0  0  0  0  0  0  0  0  0
  143.7680   70.8020  219.7150 C   0  0  0  0  0  0  0  0  0  0  0  0
  145.0830   71.1430  219.4250 C   0  0  0  0  0  0  0  0  0  0  0  0
  146.2050   69.9770  218.7240 Cl  0  0  0  0  0  0  0  0  0  0  0  0
  145.5500   72.4350  219.6860 C   0  0  0  0  0  0  0  0  0  0  0  0
  144.6770   73.3540  220.2350 C   0  0  0  0  0  0  0  0  0  0  0  0
  143.3600   73.0380  220.5330 C   0  0  0  0  0  0  0  0  0  0  0  0
  142.5270   73.9750  221.0760 N   0  0  0  0  0  0  0  0  0  0  0  0
  141.7760   76.3030  221.8220 H   0  0  0  0  0  0  0  0  0  0  0  0
  138.8395   76.6830  222.5297 H   0  0  0  0  0  0  0  0  0  0  0  0
  140.0392   77.0838  223.7901 H   0  0  0  0  0  0  0  0  0  0  0  0
  141.0495   78.7193  224.1836 H   0  0  0  0  0  0  0  0  0  0  0  0
  142.7450   79.1530  223.6902 H   0  0  0  0  0  0  0  0  0  0  0  0
  140.3458   80.9049  224.0682 H   0  0  0  0  0  0  0  0  0  0  0  0
  142.0374   81.0486  224.7144 H   0  0  0  0  0  0  0  0  0  0  0  0
  141.6110   82.7134  223.0537 H   0  0  0  0  0  0  0  0  0  0  0  0
  142.8320   81.4372  222.4914 H   0  0  0  0  0  0  0  0  0  0  0  0
  140.0860   81.0271  221.6853 H   0  0  0  0  0  0  0  0  0  0  0  0
  140.9827   82.4914  221.0017 H   0  0  0  0  0  0  0  0  0  0  0  0
  141.0781   80.5838  219.5429 H   0  0  0  0  0  0  0  0  0  0  0  0
  142.6992   81.1146  220.2116 H   0  0  0  0  0  0  0  0  0  0  0  0
  143.1042   79.0991  221.0645 H   0  0  0  0  0  0  0  0  0  0  0  0
  140.0491   79.2028  218.9704 H   0  0  0  0  0  0  0  0  0  0  0  0
  139.6323   77.4639  217.2730 H   0  0  0  0  0  0  0  0  0  0  0  0
  141.0882   75.4485  217.1248 H   0  0  0  0  0  0  0  0  0  0  0  0
  142.9709   75.2409  218.7395 H   0  0  0  0  0  0  0  0  0  0  0  0
  143.3841   76.9641  220.4219 H   0  0  0  0  0  0  0  0  0  0  0  0
  139.7501   72.1724  221.3534 H   0  0  0  0  0  0  0  0  0  0  0  0
  141.1975   70.4279  220.3716 H   0  0  0  0  0  0  0  0  0  0  0  0
  143.4051   69.7844  219.5080 H   0  0  0  0  0  0  0  0  0  0  0  0
  146.5897   72.7134  219.4591 H   0  0  0  0  0  0  0  0  0  0  0  0
  145.0390   74.3717  220.4430 H   0  0  0  0  0  0  0  0  0  0  0  0
  1  2  2  0
  2  3  1  0
  3  4  1  0
  4  5  1  0
  5  6  2  0
  5  7  1  0
  7  8  1  0
  8  9  1  0
  9 10  1  0
 10 11  1  0
 11 12  1  0
 12 13  1  0
 13 14  1  0
 14 15  2  0
 15 16  1  0
 16 17  2  0
 17 18  1  0
 18 19  2  0
  2 20  1  0
 20 21  2  0
 21 22  1  0
 22 23  2  0
 23 24  1  0
 24 25  2  0
 25 26  1  0
 25 27  1  0
 27 28  2  0
 28 29  1  0
 29 30  2  0
 13  7  1  0
 19 14  1  0
 30 20  1  0
 29 23  1  0
  3 31  1  0
  4 32  1  0
  4 33  1  0
  8 34  1  0
  8 35  1  0
  9 36  1  0
  9 37  1  0
 10 38  1  0
 10 39  1  0
 11 40  1  0
 11 41  1  0
 12 42  1  0
 12 43  1  0
 13 44  1  1
 15 45  1  0
 16 46  1  0
 17 47  1  0
 18 48  1  0
 19 49  1  0
 21 50  1  0
 22 51  1  0
 24 52  1  0
 27 53  1  0
 28 54  1  0
M  END
>  <smiles>  (14) 
O=C(NCC(=O)N1CCCCCC1c1ccccc1)c1ccc2cc(Cl)ccc2n1

>  <score_type>  (14) 
oracle

>  <origin>  (14) 
autodockgpu

>  <m_score__min__energy>  (14) 
-6.9699999999999998

>  <m_primary>  (14) 
energy

>  <rmsd>  (14) 
6.169602588320226

>  <m_score__min__rmsd>  (14) 
6.169602588320226

>  <meeko>  (14) 
{"free_energy": -4.66, "intermolecular_energy": -7.94, "internal_energy": -2.59, "cluster_size": 4, "cluster_id": 10, "rank_in_cluster": 4}

>  <energy>  (14) 
-5.75

>  <cluster_rmsd>  (14) 
1.1

>  <cluster>  (14) 
1

$$$$

     RDKit          3D

 54 57  0  0  0  0  0  0  0  0999 V2000
  138.8310   71.8230  220.5760 O   0  0  0  0  0  0  0  0  0  0  0  0
  138.6330   72.2830  221.7480 C   0  0  0  0  0  0  0  0  0  0  0  0
  138.1100   73.5980  221.9570 N   0  0  0  0  0  0  0  0  0  0  0  0
  137.8050   74.4080  220.7620 C   0  0  0  0  0  0  0  0  0  0  0  0
  138.7480   75.5460  220.7290 C   0  0  0  0  0  0  0  0  0  0  0  0
  139.3120   75.9500  219.6660 O   0  0  0  0  0  0  0  0  0  0  0  0
  139.1080   76.3010  221.9120 N   0  0  0  0  0  0  0  0  0  0  0  0
  137.9500   76.9820  222.4550 C   0  0  0  0  0  0  0  0  0  0  0  0
  137.8210   78.3770  221.9480 C   0  0  0  0  0  0  0  0  0  0  0  0
  139.0870   79.1450  222.0850 C   0  0  0  0  0  0  0  0  0  0  0  0
  140.1090   78.5890  222.9960 C   0  0  0  0  0  0  0  0  0  0  0  0
  141.0540   77.6000  222.4020 C   0  0  0  0  0  0  0  0  0  0  0  0
  140.4950   76.2040  222.2800 C   0  0  2  0  0  0  0  0  0  0  0  0
  141.3300   75.3440  221.4200 C   0  0  0  0  0  0  0  0  0  0  0  0
  141.3880   73.9700  221.5120 C   0  0  0  0  0  0  0  0  0  0  0  0
  142.2080   73.2010  220.6870 C   0  0  0  0  0  0  0  0  0  0  0  0
  143.0080   73.7860  219.7310 C   0  0  0  0  0  0  0  0  0  0  0  0
  142.9620   75.1580  219.6260 C   0  0  0  0  0  0  0  0  0  0  0  0
  142.1510   75.9130  220.4420 C   0  0  0  0  0  0  0  0  0  0  0  0
  138.9470   71.4500  222.9020 C   0  0  0  0  0  0  0  0  0  0  0  0
  138.5060   70.1480  222.9620 C   0  0  0  0  0  0  0  0  0  0  0  0
  138.7720   69.3130  224.0300 C   0  0  0  0  0  0  0  0  0  0  0  0
  139.5150   69.8110  225.0840 C   0  0  0  0  0  0  0  0  0  0  0  0
  139.8180   69.0210  226.1900 C   0  0  0  0  0  0  0  0  0  0  0  0
  140.5660   69.5460  227.2350 C   0  0  0  0  0  0  0  0  0  0  0  0
  140.9720   68.5800  228.6550 Cl  0  0  0  0  0  0  0  0  0  0  0  0
  141.0180   70.8680  227.1840 C   0  0  0  0  0  0  0  0  0  0  0  0
  140.7040   71.6300  226.0760 C   0  0  0  0  0  0  0  0  0  0  0  0
  139.9590   71.1280  225.0190 C   0  0  0  0  0  0  0  0  0  0  0  0
  139.6690   71.9150  223.9400 N   0  0  0  0  0  0  0  0  0  0  0  0
  137.9520   73.9620  222.9220 H   0  0  0  0  0  0  0  0  0  0  0  0
  137.9259   73.7965  219.8557 H   0  0  0  0  0  0  0  0  0  0  0  0
  136.7677   74.7721  220.8015 H   0  0  0  0  0  0  0  0  0  0  0  0
  137.0466   76.4199  222.1758 H   0  0  0  0  0  0  0  0  0  0  0  0
  138.0724   77.0324  223.5470 H   0  0  0  0  0  0  0  0  0  0  0  0
  137.5410   78.3428  220.8848 H   0  0  0  0  0  0  0  0  0  0  0  0
  137.0521   78.8844  222.5490 H   0  0  0  0  0  0  0  0  0  0  0  0
  139.5392   79.2221  221.0852 H   0  0  0  0  0  0  0  0  0  0  0  0
  138.7936   80.1054  222.5339 H   0  0  0  0  0  0  0  0  0  0  0  0
  140.7033   79.4286  223.3857 H   0  0  0  0  0  0  0  0  0  0  0  0
  139.5484   78.0354  223.7637 H   0  0  0  0  0  0  0  0  0  0  0  0
  141.3313   77.9493  221.3965 H   0  0  0  0  0  0  0  0  0  0  0  0
  141.9143   77.5366  223.0845 H   0  0  0  0  0  0  0  0  0  0  0  0
  140.5305   75.6811  223.2471 H   0  0  0  0  0  0  0  0  0  0  0  0
  140.7652   73.4620  222.2630 H   0  0  0  0  0  0  0  0  0  0  0  0
  142.2159   72.1070  220.8020 H   0  0  0  0  0  0  0  0  0  0  0  0
  143.6564   73.1826  219.0787 H   0  0  0  0  0  0  0  0  0  0  0  0
  143.5870   75.6615  218.8737 H   0  0  0  0  0  0  0  0  0  0  0  0
  142.1486   77.0062  220.3201 H   0  0  0  0  0  0  0  0  0  0  0  0
  137.9151   69.7543  222.1219 H   0  0  0  0  0  0  0  0  0  0  0  0
  138.4017   68.2773  224.0414 H   0  0  0  0  0  0  0  0  0  0  0  0
  139.4644   67.9804  226.2357 H   0  0  0  0  0  0  0  0  0  0  0  0
  141.6106   71.2917  228.0082 H   0  0  0  0  0  0  0  0  0  0  0  0
  141.0568   72.6709  226.0300 H   0  0  0  0  0  0  0  0  0  0  0  0
  1  2  2  0
  2  3  1  0
  3  4  1  0
  4  5  1  0
  5  6  2  0
  5  7  1  0
  7  8  1  0
  8  9  1  0
  9 10  1  0
 10 11  1  0
 11 12  1  0
 12 13  1  0
 13 14  1  0
 14 15  2  0
 15 16  1  0
 16 17  2  0
 17 18  1  0
 18 19  2  0
  2 20  1  0
 20 21  2  0
 21 22  1  0
 22 23  2  0
 23 24  1  0
 24 25  2  0
 25 26  1  0
 25 27  1  0
 27 28  2  0
 28 29  1  0
 29 30  2  0
 13  7  1  0
 19 14  1  0
 30 20  1  0
 29 23  1  0
  3 31  1  0
  4 32  1  0
  4 33  1  0
  8 34  1  0
  8 35  1  0
  9 36  1  0
  9 37  1  0
 10 38  1  0
 10 39  1  0
 11 40  1  0
 11 41  1  0
 12 42  1  0
 12 43  1  0
 13 44  1  1
 15 45  1  0
 16 46  1  0
 17 47  1  0
 18 48  1  0
 19 49  1  0
 21 50  1  0
 22 51  1  0
 24 52  1  0
 27 53  1  0
 28 54  1  0
M  END
>  <smiles>  (15) 
O=C(NCC(=O)N1CCCCCC1c1ccccc1)c1ccc2cc(Cl)ccc2n1

>  <score_type>  (15) 
oracle

>  <origin>  (15) 
autodockgpu

>  <m_score__min__energy>  (15) 
-6.9699999999999998

>  <m_primary>  (15) 
energy

>  <rmsd>  (15) 
2.8125461448648124

>  <m_score__min__rmsd>  (15) 
2.8125461448648124

>  <meeko>  (15) 
{"free_energy": -5.75, "intermolecular_energy": -9.03, "internal_energy": -2.13, "cluster_size": 3, "cluster_id": 7, "rank_in_cluster": 1}

>  <energy>  (15) 
-5.38

>  <cluster_rmsd>  (15) 
1.32

>  <cluster>  (15) 
1

$$$$

     RDKit          3D

 54 57  0  0  0  0  0  0  0  0999 V2000
  138.6250   70.7050  221.0790 O   0  0  0  0  0  0  0  0  0  0  0  0
  139.4470   71.4250  221.7340 C   0  0  0  0  0  0  0  0  0  0  0  0
  139.9950   72.6260  221.1820 N   0  0  0  0  0  0  0  0  0  0  0  0
  139.5710   73.0040  219.8200 C   0  0  0  0  0  0  0  0  0  0  0  0
  140.7250   72.8220  218.9150 C   0  0  0  0  0  0  0  0  0  0  0  0
  140.9640   71.7370  218.3020 O   0  0  0  0  0  0  0  0  0  0  0  0
  141.6870   73.8740  218.6490 N   0  0  0  0  0  0  0  0  0  0  0  0
  141.7120   74.1960  217.2360 C   0  0  0  0  0  0  0  0  0  0  0  0
  142.9650   74.8970  216.8360 C   0  0  0  0  0  0  0  0  0  0  0  0
  143.0260   76.2860  217.3650 C   0  0  0  0  0  0  0  0  0  0  0  0
  143.3630   76.4410  218.7950 C   0  0  0  0  0  0  0  0  0  0  0  0
  142.3900   75.8660  219.7670 C   0  0  0  0  0  0  0  0  0  0  0  0
  142.3770   74.3570  219.8140 C   0  0  2  0  0  0  0  0  0  0  0  0
  143.7210   73.7960  220.0450 C   0  0  0  0  0  0  0  0  0  0  0  0
  144.7130   74.4210  220.7690 C   0  0  0  0  0  0  0  0  0  0  0  0
  145.9770   73.8580  220.9440 C   0  0  0  0  0  0  0  0  0  0  0  0
  146.2960   72.6360  220.3940 C   0  0  0  0  0  0  0  0  0  0  0  0
  145.3150   71.9980  219.6670 C   0  0  0  0  0  0  0  0  0  0  0  0
  144.0700   72.5580  219.4980 C   0  0  0  0  0  0  0  0  0  0  0  0
  139.8390   71.0150  223.0770 C   0  0  0  0  0  0  0  0  0  0  0  0
  140.5560   71.8670  223.8840 C   0  0  0  0  0  0  0  0  0  0  0  0
  140.9550   71.5340  225.1640 C   0  0  0  0  0  0  0  0  0  0  0  0
  140.6170   70.2850  225.6520 C   0  0  0  0  0  0  0  0  0  0  0  0
  140.9900   69.8870  226.9340 C   0  0  0  0  0  0  0  0  0  0  0  0
  140.6380   68.6270  227.4000 C   0  0  0  0  0  0  0  0  0  0  0  0
  141.0880   68.0830  229.0160 Cl  0  0  0  0  0  0  0  0  0  0  0  0
  139.9100   67.7530  226.5870 C   0  0  0  0  0  0  0  0  0  0  0  0
  139.5540   68.1730  225.3200 C   0  0  0  0  0  0  0  0  0  0  0  0
  139.8920   69.4260  224.8320 C   0  0  0  0  0  0  0  0  0  0  0  0
  139.5220   69.8040  223.5730 N   0  0  0  0  0  0  0  0  0  0  0  0
  140.6670   73.2060  221.7290 H   0  0  0  0  0  0  0  0  0  0  0  0
  138.7383   72.3621  219.4967 H   0  0  0  0  0  0  0  0  0  0  0  0
  139.2328   74.0505  219.8019 H   0  0  0  0  0  0  0  0  0  0  0  0
  141.6296   73.2629  216.6594 H   0  0  0  0  0  0  0  0  0  0  0  0
  140.8689   74.8720  217.0307 H   0  0  0  0  0  0  0  0  0  0  0  0
  143.8258   74.3324  217.2235 H   0  0  0  0  0  0  0  0  0  0  0  0
  142.9843   74.9532  215.7376 H   0  0  0  0  0  0  0  0  0  0  0  0
  143.7848   76.8303  216.7836 H   0  0  0  0  0  0  0  0  0  0  0  0
  142.0021   76.6760  217.2672 H   0  0  0  0  0  0  0  0  0  0  0  0
  144.3347   75.9545  218.9654 H   0  0  0  0  0  0  0  0  0  0  0  0
  143.3600   77.5250  218.9821 H   0  0  0  0  0  0  0  0  0  0  0  0
  142.6433   76.2398  220.7701 H   0  0  0  0  0  0  0  0  0  0  0  0
  141.3895   76.1795  219.4341 H   0  0  0  0  0  0  0  0  0  0  0  0
  141.8153   73.9958  220.6881 H   0  0  0  0  0  0  0  0  0  0  0  0
  144.5003   75.3990  221.2253 H   0  0  0  0  0  0  0  0  0  0  0  0
  146.7328   74.3996  221.5318 H   0  0  0  0  0  0  0  0  0  0  0  0
  147.2917   72.1886  220.5295 H   0  0  0  0  0  0  0  0  0  0  0  0
  145.5319   71.0202  219.2121 H   0  0  0  0  0  0  0  0  0  0  0  0
  143.3196   72.0100  218.9093 H   0  0  0  0  0  0  0  0  0  0  0  0
  140.8241   72.8593  223.4923 H   0  0  0  0  0  0  0  0  0  0  0  0
  141.5269   72.2442  225.7793 H   0  0  0  0  0  0  0  0  0  0  0  0
  141.5634   70.5708  227.5772 H   0  0  0  0  0  0  0  0  0  0  0  0
  139.6270   66.7533  226.9482 H   0  0  0  0  0  0  0  0  0  0  0  0
  138.9822   67.4892  224.6755 H   0  0  0  0  0  0  0  0  0  0  0  0
  1  2  2  0
  2  3  1  0
  3  4  1  0
  4  5  1  0
  5  6  2  0
  5  7  1  0
  7  8  1  0
  8  9  1  0
  9 10  1  0
 10 11  1  0
 11 12  1  0
 12 13  1  0
 13 14  1  0
 14 15  2  0
 15 16  1  0
 16 17  2  0
 17 18  1  0
 18 19  2  0
  2 20  1  0
 20 21  2  0
 21 22  1  0
 22 23  2  0
 23 24  1  0
 24 25  2  0
 25 26  1  0
 25 27  1  0
 27 28  2  0
 28 29  1  0
 29 30  2  0
 13  7  1  0
 19 14  1  0
 30 20  1  0
 29 23  1  0
  3 31  1  0
  4 32  1  0
  4 33  1  0
  8 34  1  0
  8 35  1  0
  9 36  1  0
  9 37  1  0
 10 38  1  0
 10 39  1  0
 11 40  1  0
 11 41  1  0
 12 42  1  0
 12 43  1  0
 13 44  1  1
 15 45  1  0
 16 46  1  0
 17 47  1  0
 18 48  1  0
 19 49  1  0
 21 50  1  0
 22 51  1  0
 24 52  1  0
 27 53  1  0
 28 54  1  0
M  END
>  <smiles>  (16) 
O=C(NCC(=O)N1CCCCCC1c1ccccc1)c1ccc2cc(Cl)ccc2n1

>  <score_type>  (16) 
oracle

>  <origin>  (16) 
autodockgpu

>  <m_score__min__energy>  (16) 
-6.9699999999999998

>  <m_primary>  (16) 
energy

>  <rmsd>  (16) 
3.104212257178919

>  <m_score__min__rmsd>  (16) 
3.104212257178919

>  <meeko>  (16) 
{"free_energy": -5.11, "intermolecular_energy": -8.39, "internal_energy": -1.69, "cluster_size": 3, "cluster_id": 3, "rank_in_cluster": 2}

>  <energy>  (16) 
-6.56

>  <cluster_rmsd>  (16) 
0.0

>  <cluster>  (16) 
2

$$$$

     RDKit          3D

 54 57  0  0  0  0  0  0  0  0999 V2000
  138.5100   71.4820  220.5330 O   0  0  0  0  0  0  0  0  0  0  0  0
  138.7230   72.0620  221.6470 C   0  0  0  0  0  0  0  0  0  0  0  0
  138.6340   73.4840  221.7790 N   0  0  0  0  0  0  0  0  0  0  0  0
  138.2830   74.2590  220.5740 C   0  0  0  0  0  0  0  0  0  0  0  0
  138.8240   75.6250  220.7370 C   0  0  0  0  0  0  0  0  0  0  0  0
  139.0040   76.4220  219.7640 O   0  0  0  0  0  0  0  0  0  0  0  0
  139.1960   76.1740  222.0250 N   0  0  0  0  0  0  0  0  0  0  0  0
  138.0170   76.5610  222.7740 C   0  0  0  0  0  0  0  0  0  0  0  0
  137.6920   78.0060  222.6150 C   0  0  0  0  0  0  0  0  0  0  0  0
  138.8870   78.8740  222.7900 C   0  0  0  0  0  0  0  0  0  0  0  0
  140.0300   78.6260  221.8860 C   0  0  0  0  0  0  0  0  0  0  0  0
  141.0480   77.6460  222.3650 C   0  0  0  0  0  0  0  0  0  0  0  0
  140.6120   76.2040  222.2720 C   0  0  2  0  0  0  0  0  0  0  0  0
  141.4460   75.4310  221.3330 C   0  0  0  0  0  0  0  0  0  0  0  0
  142.1850   75.9820  220.3100 C   0  0  0  0  0  0  0  0  0  0  0  0
  142.9450   75.2060  219.4340 C   0  0  0  0  0  0  0  0  0  0  0  0
  142.9910   73.8350  219.5550 C   0  0  0  0  0  0  0  0  0  0  0  0
  142.2570   73.2670  220.5730 C   0  0  0  0  0  0  0  0  0  0  0  0
  141.5100   74.0380  221.4340 C   0  0  0  0  0  0  0  0  0  0  0  0
  139.0660   71.2590  222.8140 C   0  0  0  0  0  0  0  0  0  0  0  0
  138.7280   69.9260  222.8670 C   0  0  0  0  0  0  0  0  0  0  0  0
  139.0260   69.1160  223.9460 C   0  0  0  0  0  0  0  0  0  0  0  0
  139.6940   69.6750  225.0200 C   0  0  0  0  0  0  0  0  0  0  0  0
  140.0240   68.9130  226.1380 C   0  0  0  0  0  0  0  0  0  0  0  0
  140.6960   69.4970  227.2030 C   0  0  0  0  0  0  0  0  0  0  0  0
  141.1330   68.5700  228.6390 Cl  0  0  0  0  0  0  0  0  0  0  0  0
  141.0440   70.8510  227.1600 C   0  0  0  0  0  0  0  0  0  0  0  0
  140.7050   71.5830  226.0400 C   0  0  0  0  0  0  0  0  0  0  0  0
  140.0350   71.0220  224.9620 C   0  0  0  0  0  0  0  0  0  0  0  0
  139.7170   71.7810  223.8710 N   0  0  0  0  0  0  0  0  0  0  0  0
  138.8100   73.9460  222.6980 H   0  0  0  0  0  0  0  0  0  0  0  0
  138.7243   73.7862  219.6842 H   0  0  0  0  0  0  0  0  0  0  0  0
  137.1911   74.2928  220.4455 H   0  0  0  0  0  0  0  0  0  0  0  0
  137.1624   75.9657  222.4200 H   0  0  0  0  0  0  0  0  0  0  0  0
  138.2217   76.3786  223.8393 H   0  0  0  0  0  0  0  0  0  0  0  0
  137.2813   78.1678  221.6075 H   0  0  0  0  0  0  0  0  0  0  0  0
  136.9626   78.2753  223.3931 H   0  0  0  0  0  0  0  0  0  0  0  0
  138.5660   79.9157  222.6422 H   0  0  0  0  0  0  0  0  0  0  0  0
  139.2630   78.6456  223.7982 H   0  0  0  0  0  0  0  0  0  0  0  0
  139.6287   78.2537  220.9319 H   0  0  0  0  0  0  0  0  0  0  0  0
  140.5594   79.5872  221.8103 H   0  0  0  0  0  0  0  0  0  0  0  0
  141.9581   77.7707  221.7599 H   0  0  0  0  0  0  0  0  0  0  0  0
  141.2125   77.8578  223.4318 H   0  0  0  0  0  0  0  0  0  0  0  0
  140.7785   75.6804  223.2250 H   0  0  0  0  0  0  0  0  0  0  0  0
  142.1759   77.0741  220.1785 H   0  0  0  0  0  0  0  0  0  0  0  0
  143.5170   75.6977  218.6333 H   0  0  0  0  0  0  0  0  0  0  0  0
  143.5890   73.2190  218.8673 H   0  0  0  0  0  0  0  0  0  0  0  0
  142.2682   72.1744  220.7003 H   0  0  0  0  0  0  0  0  0  0  0  0
  140.9413   73.5391  222.2325 H   0  0  0  0  0  0  0  0  0  0  0  0
  138.1961   69.4851  222.0110 H   0  0  0  0  0  0  0  0  0  0  0  0
  138.7393   68.0540  223.9505 H   0  0  0  0  0  0  0  0  0  0  0  0
  139.7520   67.8479  226.1771 H   0  0  0  0  0  0  0  0  0  0  0  0
  141.5759   71.3219  227.9999 H   0  0  0  0  0  0  0  0  0  0  0  0
  140.9754   72.6485  226.0005 H   0  0  0  0  0  0  0  0  0  0  0  0
  1  2  2  0
  2  3  1  0
  3  4  1  0
  4  5  1  0
  5  6  2  0
  5  7  1  0
  7  8  1  0
  8  9  1  0
  9 10  1  0
 10 11  1  0
 11 12  1  0
 12 13  1  0
 13 14  1  0
 14 15  2  0
 15 16  1  0
 16 17  2  0
 17 18  1  0
 18 19  2  0
  2 20  1  0
 20 21  2  0
 21 22  1  0
 22 23  2  0
 23 24  1  0
 24 25  2  0
 25 26  1  0
 25 27  1  0
 27 28  2  0
 28 29  1  0
 29 30  2  0
 13  7  1  0
 19 14  1  0
 30 20  1  0
 29 23  1  0
  3 31  1  0
  4 32  1  0
  4 33  1  0
  8 34  1  0
  8 35  1  0
  9 36  1  0
  9 37  1  0
 10 38  1  0
 10 39  1  0
 11 40  1  0
 11 41  1  0
 12 42  1  0
 12 43  1  0
 13 44  1  1
 15 45  1  0
 16 46  1  0
 17 47  1  0
 18 48  1  0
 19 49  1  0
 21 50  1  0
 22 51  1  0
 24 52  1  0
 27 53  1  0
 28 54  1  0
M  END
>  <smiles>  (17) 
O=C(NCC(=O)N1CCCCCC1c1ccccc1)c1ccc2cc(Cl)ccc2n1

>  <score_type>  (17) 
oracle

>  <origin>  (17) 
autodockgpu

>  <m_score__min__energy>  (17) 
-6.9699999999999998

>  <m_primary>  (17) 
energy

>  <rmsd>  (17) 
2.9246285918291473

>  <m_score__min__rmsd>  (17) 
2.9246285918291473

>  <meeko>  (17) 
{"free_energy": -5.67, "intermolecular_energy": -8.95, "internal_energy": -2.28, "cluster_size": 3, "cluster_id": 7, "rank_in_cluster": 3}

>  <energy>  (17) 
-6.16

>  <cluster_rmsd>  (17) 
1.65

>  <cluster>  (17) 
2

$$$$

     RDKit          3D

 54 57  0  0  0  0  0  0  0  0999 V2000
  139.2090   72.1380  220.4940 O   0  0  0  0  0  0  0  0  0  0  0  0
  139.6310   72.5960  221.6060 C   0  0  0  0  0  0  0  0  0  0  0  0
  140.0060   73.9690  221.7540 N   0  0  0  0  0  0  0  0  0  0  0  0
  139.8870   74.8400  220.5700 C   0  0  0  0  0  0  0  0  0  0  0  0
  140.9370   75.8770  220.6570 C   0  0  0  0  0  0  0  0  0  0  0  0
  141.3230   76.3850  221.7540 O   0  0  0  0  0  0  0  0  0  0  0  0
  141.6190   76.4020  219.4910 N   0  0  0  0  0  0  0  0  0  0  0  0
  140.6930   77.1160  218.6360 C   0  0  0  0  0  0  0  0  0  0  0  0
  140.4190   76.3900  217.3640 C   0  0  0  0  0  0  0  0  0  0  0  0
  141.5970   76.3850  216.4550 C   0  0  0  0  0  0  0  0  0  0  0  0
  142.8270   75.7420  216.9620 C   0  0  0  0  0  0  0  0  0  0  0  0
  143.5380   76.4500  218.0660 C   0  0  0  0  0  0  0  0  0  0  0  0
  143.0280   76.1140  219.4470 C   0  0  2  0  0  0  0  0  0  0  0  0
  143.4210   74.7570  219.8700 C   0  0  0  0  0  0  0  0  0  0  0  0
  142.6620   73.6260  219.6670 C   0  0  0  0  0  0  0  0  0  0  0  0
  143.0680   72.3650  220.1040 C   0  0  0  0  0  0  0  0  0  0  0  0
  144.2630   72.1910  220.7660 C   0  0  0  0  0  0  0  0  0  0  0  0
  145.0350   73.3130  220.9770 C   0  0  0  0  0  0  0  0  0  0  0  0
  144.6290   74.5540  220.5440 C   0  0  0  0  0  0  0  0  0  0  0  0
  139.7330   71.7020  222.7520 C   0  0  0  0  0  0  0  0  0  0  0  0
  139.2950   70.4010  222.6630 C   0  0  0  0  0  0  0  0  0  0  0  0
  139.3660   69.5090  223.7150 C   0  0  0  0  0  0  0  0  0  0  0  0
  139.9020   69.9490  224.9120 C   0  0  0  0  0  0  0  0  0  0  0  0
  140.0020   69.0990  226.0110 C   0  0  0  0  0  0  0  0  0  0  0  0
  140.5440   69.5650  227.2020 C   0  0  0  0  0  0  0  0  0  0  0  0
  140.6890   68.5240  228.6190 Cl  0  0  0  0  0  0  0  0  0  0  0  0
  140.9910   70.8860  227.3040 C   0  0  0  0  0  0  0  0  0  0  0  0
  140.8800   71.7070  226.1990 C   0  0  0  0  0  0  0  0  0  0  0  0
  140.3440   71.2650  224.9980 C   0  0  0  0  0  0  0  0  0  0  0  0
  140.2510   72.1080  223.9270 N   0  0  0  0  0  0  0  0  0  0  0  0
  140.3490   74.3320  222.6710 H   0  0  0  0  0  0  0  0  0  0  0  0
  140.0243   74.2459  219.6545 H   0  0  0  0  0  0  0  0  0  0  0  0
  138.8914   75.3067  220.5380 H   0  0  0  0  0  0  0  0  0  0  0  0
  139.7448   77.2508  219.1771 H   0  0  0  0  0  0  0  0  0  0  0  0
  141.1512   78.0823  218.3786 H   0  0  0  0  0  0  0  0  0  0  0  0
  140.1496   75.3501  217.6006 H   0  0  0  0  0  0  0  0  0  0  0  0
  139.5972   76.9091  216.8491 H   0  0  0  0  0  0  0  0  0  0  0  0
  141.3037   75.8617  215.5330 H   0  0  0  0  0  0  0  0  0  0  0  0
  141.8607   77.4443  216.3198 H   0  0  0  0  0  0  0  0  0  0  0  0
  142.5553   74.7405  217.3268 H   0  0  0  0  0  0  0  0  0  0  0  0
  143.5282   75.7429  216.1145 H   0  0  0  0  0  0  0  0  0  0  0  0
  144.6038   76.1822  218.0173 H   0  0  0  0  0  0  0  0  0  0  0  0
  143.3612   77.5254  217.9170 H   0  0  0  0  0  0  0  0  0  0  0  0
  143.5061   76.7481  220.2082 H   0  0  0  0  0  0  0  0  0  0  0  0
  141.7005   73.7204  219.1411 H   0  0  0  0  0  0  0  0  0  0  0  0
  142.4223   71.4944  219.9165 H   0  0  0  0  0  0  0  0  0  0  0  0
  144.5876   71.1985  221.1117 H   0  0  0  0  0  0  0  0  0  0  0  0
  145.9961   73.2141  221.5028 H   0  0  0  0  0  0  0  0  0  0  0  0
  145.2798   75.4199  220.7354 H   0  0  0  0  0  0  0  0  0  0  0  0
  138.8685   70.0551  221.7099 H   0  0  0  0  0  0  0  0  0  0  0  0
  139.0057   68.4756  223.6040 H   0  0  0  0  0  0  0  0  0  0  0  0
  139.6518   68.0589  225.9357 H   0  0  0  0  0  0  0  0  0  0  0  0
  141.4215   71.2629  228.2435 H   0  0  0  0  0  0  0  0  0  0  0  0
  141.2287   72.7476  226.2737 H   0  0  0  0  0  0  0  0  0  0  0  0
  1  2  2  0
  2  3  1  0
  3  4  1  0
  4  5  1  0
  5  6  2  0
  5  7  1  0
  7  8  1  0
  8  9  1  0
  9 10  1  0
 10 11  1  0
 11 12  1  0
 12 13  1  0
 13 14  1  0
 14 15  2  0
 15 16  1  0
 16 17  2  0
 17 18  1  0
 18 19  2  0
  2 20  1  0
 20 21  2  0
 21 22  1  0
 22 23  2  0
 23 24  1  0
 24 25  2  0
 25 26  1  0
 25 27  1  0
 27 28  2  0
 28 29  1  0
 29 30  2  0
 13  7  1  0
 19 14  1  0
 30 20  1  0
 29 23  1  0
  3 31  1  0
  4 32  1  0
  4 33  1  0
  8 34  1  0
  8 35  1  0
  9 36  1  0
  9 37  1  0
 10 38  1  0
 10 39  1  0
 11 40  1  0
 11 41  1  0
 12 42  1  0
 12 43  1  0
 13 44  1  1
 15 45  1  0
 16 46  1  0
 17 47  1  0
 18 48  1  0
 19 49  1  0
 21 50  1  0
 22 51  1  0
 24 52  1  0
 27 53  1  0
 28 54  1  0
M  END
>  <smiles>  (18) 
O=C(NCC(=O)N1CCCCCC1c1ccccc1)c1ccc2cc(Cl)ccc2n1

>  <score_type>  (18) 
oracle

>  <origin>  (18) 
autodockgpu

>  <m_score__min__energy>  (18) 
-6.9699999999999998

>  <m_primary>  (18) 
energy

>  <rmsd>  (18) 
2.010765347165117

>  <m_score__min__rmsd>  (18) 
2.010765347165117

>  <meeko>  (18) 
{"free_energy": -4.91, "intermolecular_energy": -8.19, "internal_energy": -2.41, "cluster_size": 3, "cluster_id": 3, "rank_in_cluster": 3}

>  <energy>  (18) 
-6.03

>  <cluster_rmsd>  (18) 
1.99

>  <cluster>  (18) 
2

$$$$

     RDKit          3D

 54 57  0  0  0  0  0  0  0  0999 V2000
  135.9280   71.2740  222.6450 O   0  0  0  0  0  0  0  0  0  0  0  0
  135.7310   71.2280  223.9040 C   0  0  0  0  0  0  0  0  0  0  0  0
  136.0710   70.0700  224.6720 N   0  0  0  0  0  0  0  0  0  0  0  0
  136.6610   68.9250  223.9530 C   0  0  0  0  0  0  0  0  0  0  0  0
  138.1060   68.8840  224.2660 C   0  0  0  0  0  0  0  0  0  0  0  0
  138.6120   68.0800  225.1080 O   0  0  0  0  0  0  0  0  0  0  0  0
  139.0700   69.7620  223.6340 N   0  0  0  0  0  0  0  0  0  0  0  0
  139.5850   69.1640  222.4190 C   0  0  0  0  0  0  0  0  0  0  0  0
  139.2340   69.9530  221.2050 C   0  0  0  0  0  0  0  0  0  0  0  0
  138.5730   71.2420  221.5440 C   0  0  0  0  0  0  0  0  0  0  0  0
  139.4190   72.2850  222.1600 C   0  0  0  0  0  0  0  0  0  0  0  0
  140.0990   71.9100  223.4360 C   0  0  0  0  0  0  0  0  0  0  0  0
  139.2900   71.0020  224.3290 C   0  0  2  0  0  0  0  0  0  0  0  0
  139.8700   70.8880  225.6800 C   0  0  0  0  0  0  0  0  0  0  0  0
  139.4790   69.9620  226.6220 C   0  0  0  0  0  0  0  0  0  0  0  0
  140.0460   69.9060  227.8950 C   0  0  0  0  0  0  0  0  0  0  0  0
  141.0360   70.7850  228.2740 C   0  0  0  0  0  0  0  0  0  0  0  0
  141.4390   71.7180  227.3440 C   0  0  0  0  0  0  0  0  0  0  0  0
  140.8770   71.7690  226.0890 C   0  0  0  0  0  0  0  0  0  0  0  0
  135.1460   72.3810  224.5750 C   0  0  0  0  0  0  0  0  0  0  0  0
  135.5730   73.6540  224.2750 C   0  0  0  0  0  0  0  0  0  0  0  0
  135.0560   74.7840  224.8790 C   0  0  0  0  0  0  0  0  0  0  0  0
  134.0650   74.6240  225.8290 C   0  0  0  0  0  0  0  0  0  0  0  0
  133.5020   75.7220  226.4760 C   0  0  0  0  0  0  0  0  0  0  0  0
  132.5070   75.5340  227.4260 C   0  0  0  0  0  0  0  0  0  0  0  0
  131.7680   76.8960  228.2690 Cl  0  0  0  0  0  0  0  0  0  0  0  0
  132.0660   74.2440  227.7400 C   0  0  0  0  0  0  0  0  0  0  0  0
  132.6410   73.1740  227.0850 C   0  0  0  0  0  0  0  0  0  0  0  0
  133.6350   73.3350  226.1310 C   0  0  0  0  0  0  0  0  0  0  0  0
  134.1790   72.2500  225.5050 N   0  0  0  0  0  0  0  0  0  0  0  0
  135.9050   70.0460  225.7020 H   0  0  0  0  0  0  0  0  0  0  0  0
  136.1814   67.9910  224.2810 H   0  0  0  0  0  0  0  0  0  0  0  0
  136.5078   69.0344  222.8692 H   0  0  0  0  0  0  0  0  0  0  0  0
  140.6806   69.0994  222.4939 H   0  0  0  0  0  0  0  0  0  0  0  0
  139.1288   68.1684  222.3156 H   0  0  0  0  0  0  0  0  0  0  0  0
  140.1548   70.1645  220.6416 H   0  0  0  0  0  0  0  0  0  0  0  0
  138.5272   69.3578  220.6082 H   0  0  0  0  0  0  0  0  0  0  0  0
  138.1578   71.6573  220.6139 H   0  0  0  0  0  0  0  0  0  0  0  0
  137.8262   70.9885  222.3108 H   0  0  0  0  0  0  0  0  0  0  0  0
  140.1971   72.5598  221.4326 H   0  0  0  0  0  0  0  0  0  0  0  0
  138.7343   73.1058  222.4199 H   0  0  0  0  0  0  0  0  0  0  0  0
  141.0403   71.3982  223.1869 H   0  0  0  0  0  0  0  0  0  0  0  0
  140.2544   72.8442  223.9956 H   0  0  0  0  0  0  0  0  0  0  0  0
  138.2985   71.4330  224.5319 H   0  0  0  0  0  0  0  0  0  0  0  0
  138.6909   69.2405  226.3606 H   0  0  0  0  0  0  0  0  0  0  0  0
  139.6961   69.1460  228.6091 H   0  0  0  0  0  0  0  0  0  0  0  0
  141.4860   70.7439  229.2769 H   0  0  0  0  0  0  0  0  0  0  0  0
  142.2270   72.4377  227.6104 H   0  0  0  0  0  0  0  0  0  0  0  0
  141.2330   72.5314  225.3804 H   0  0  0  0  0  0  0  0  0  0  0  0
  136.3626   73.7779  223.5192 H   0  0  0  0  0  0  0  0  0  0  0  0
  135.4237   75.7854  224.6106 H   0  0  0  0  0  0  0  0  0  0  0  0
  133.8460   76.7384  226.2340 H   0  0  0  0  0  0  0  0  0  0  0  0
  131.2788   74.0862  228.4919 H   0  0  0  0  0  0  0  0  0  0  0  0
  132.2989   72.1572  227.3281 H   0  0  0  0  0  0  0  0  0  0  0  0
  1  2  2  0
  2  3  1  0
  3  4  1  0
  4  5  1  0
  5  6  2  0
  5  7  1  0
  7  8  1  0
  8  9  1  0
  9 10  1  0
 10 11  1  0
 11 12  1  0
 12 13  1  0
 13 14  1  0
 14 15  2  0
 15 16  1  0
 16 17  2  0
 17 18  1  0
 18 19  2  0
  2 20  1  0
 20 21  2  0
 21 22  1  0
 22 23  2  0
 23 24  1  0
 24 25  2  0
 25 26  1  0
 25 27  1  0
 27 28  2  0
 28 29  1  0
 29 30  2  0
 13  7  1  0
 19 14  1  0
 30 20  1  0
 29 23  1  0
  3 31  1  0
  4 32  1  0
  4 33  1  0
  8 34  1  0
  8 35  1  0
  9 36  1  0
  9 37  1  0
 10 38  1  0
 10 39  1  0
 11 40  1  0
 11 41  1  0
 12 42  1  0
 12 43  1  0
 13 44  1  1
 15 45  1  0
 16 46  1  0
 17 47  1  0
 18 48  1  0
 19 49  1  0
 21 50  1  0
 22 51  1  0
 24 52  1  0
 27 53  1  0
 28 54  1  0
M  END
>  <smiles>  (19) 
O=C(NCC(=O)N1CCCCCC1c1ccccc1)c1ccc2cc(Cl)ccc2n1

>  <score_type>  (19) 
oracle

>  <origin>  (19) 
autodockgpu

>  <m_score__min__energy>  (19) 
-6.9699999999999998

>  <m_primary>  (19) 
energy

>  <rmsd>  (19) 
7.381414001848909

>  <m_score__min__rmsd>  (19) 
7.381414001848909

>  <meeko>  (19) 
{"free_energy": -5.56, "intermolecular_energy": -8.84, "internal_energy": -1.77, "cluster_size": 1, "cluster_id": 9, "rank_in_cluster": 1}

>  <energy>  (19) 
-6.01

>  <cluster_rmsd>  (19) 
1.96

>  <cluster>  (19) 
2

$$$$

     RDKit          3D

 54 57  0  0  0  0  0  0  0  0999 V2000
  141.8350   73.3180  221.0330 O   0  0  0  0  0  0  0  0  0  0  0  0
  141.0050   74.1090  221.5900 C   0  0  0  0  0  0  0  0  0  0  0  0
  139.8870   73.6160  222.3350 N   0  0  0  0  0  0  0  0  0  0  0  0
  139.7290   72.1530  222.4370 C   0  0  0  0  0  0  0  0  0  0  0  0
  138.3590   71.8750  222.9200 C   0  0  0  0  0  0  0  0  0  0  0  0
  137.3840   72.6660  222.7370 O   0  0  0  0  0  0  0  0  0  0  0  0
  138.0130   70.6690  223.6450 N   0  0  0  0  0  0  0  0  0  0  0  0
  136.6120   70.6800  224.0140 C   0  0  0  0  0  0  0  0  0  0  0  0
  136.0640   69.3070  224.2050 C   0  0  0  0  0  0  0  0  0  0  0  0
  136.2230   68.4640  222.9900 C   0  0  0  0  0  0  0  0  0  0  0  0
  137.5250   68.5330  222.2960 C   0  0  0  0  0  0  0  0  0  0  0  0
  138.7400   68.4450  223.1560 C   0  0  0  0  0  0  0  0  0  0  0  0
  139.1040   69.7490  223.8240 C   0  0  2  0  0  0  0  0  0  0  0  0
  139.5610   69.5550  225.2120 C   0  0  0  0  0  0  0  0  0  0  0  0
  140.0430   70.5600  226.0230 C   0  0  0  0  0  0  0  0  0  0  0  0
  140.4820   70.3230  227.3250 C   0  0  0  0  0  0  0  0  0  0  0  0
  140.4520   69.0580  227.8690 C   0  0  0  0  0  0  0  0  0  0  0  0
  139.9730   68.0410  227.0720 C   0  0  0  0  0  0  0  0  0  0  0  0
  139.5410   68.2810  225.7870 C   0  0  0  0  0  0  0  0  0  0  0  0
  141.1990   75.5480  221.4640 C   0  0  0  0  0  0  0  0  0  0  0  0
  141.9460   76.0630  220.4310 C   0  0  0  0  0  0  0  0  0  0  0  0
  142.1650   77.4170  220.2620 C   0  0  0  0  0  0  0  0  0  0  0  0
  141.6050   78.2900  221.1770 C   0  0  0  0  0  0  0  0  0  0  0  0
  141.7870   79.6670  221.0630 C   0  0  0  0  0  0  0  0  0  0  0  0
  141.2140   80.5230  221.9940 C   0  0  0  0  0  0  0  0  0  0  0  0
  141.4190   82.2710  221.8890 Cl  0  0  0  0  0  0  0  0  0  0  0  0
  140.4530   80.0090  223.0490 C   0  0  0  0  0  0  0  0  0  0  0  0
  140.2880   78.6410  223.1380 C   0  0  0  0  0  0  0  0  0  0  0  0
  140.8500   77.7650  222.2200 C   0  0  0  0  0  0  0  0  0  0  0  0
  140.6640   76.4170  222.3430 N   0  0  0  0  0  0  0  0  0  0  0  0
  139.2160   74.2750  222.7860 H   0  0  0  0  0  0  0  0  0  0  0  0
  139.8778   71.6915  221.4496 H   0  0  0  0  0  0  0  0  0  0  0  0
  140.4720   71.7355  223.1324 H   0  0  0  0  0  0  0  0  0  0  0  0
  136.4987   71.2396  224.9543 H   0  0  0  0  0  0  0  0  0  0  0  0
  136.0527   71.1532  223.1935 H   0  0  0  0  0  0  0  0  0  0  0  0
  136.5942   68.8272  225.0408 H   0  0  0  0  0  0  0  0  0  0  0  0
  134.9878   69.3991  224.4133 H   0  0  0  0  0  0  0  0  0  0  0  0
  136.0598   67.4177  223.2875 H   0  0  0  0  0  0  0  0  0  0  0  0
  135.4918   68.8583  222.2690 H   0  0  0  0  0  0  0  0  0  0  0  0
  137.5644   67.7031  221.5751 H   0  0  0  0  0  0  0  0  0  0  0  0
  137.5609   69.5338  221.8409 H   0  0  0  0  0  0  0  0  0  0  0  0
  138.5589   67.6926  223.9377 H   0  0  0  0  0  0  0  0  0  0  0  0
  139.5802   68.1733  222.5001 H   0  0  0  0  0  0  0  0  0  0  0  0
  139.9844   70.2031  223.3457 H   0  0  0  0  0  0  0  0  0  0  0  0
  140.0827   71.5861  225.6287 H   0  0  0  0  0  0  0  0  0  0  0  0
  140.8592   71.1616  227.9287 H   0  0  0  0  0  0  0  0  0  0  0  0
  140.7959   68.8676  228.8964 H   0  0  0  0  0  0  0  0  0  0  0  0
  139.9350   67.0165  227.4706 H   0  0  0  0  0  0  0  0  0  0  0  0
  139.1654   67.4373  225.1894 H   0  0  0  0  0  0  0  0  0  0  0  0
  142.3898   75.3652  219.7057 H   0  0  0  0  0  0  0  0  0  0  0  0
  142.7688   77.7906  219.4218 H   0  0  0  0  0  0  0  0  0  0  0  0
  142.3849   80.0759  220.2351 H   0  0  0  0  0  0  0  0  0  0  0  0
  139.9960   80.6798  223.7914 H   0  0  0  0  0  0  0  0  0  0  0  0
  139.6902   78.2312  223.9655 H   0  0  0  0  0  0  0  0  0  0  0  0
  1  2  2  0
  2  3  1  0
  3  4  1  0
  4  5  1  0
  5  6  2  0
  5  7  1  0
  7  8  1  0
  8  9  1  0
  9 10  1  0
 10 11  1  0
 11 12  1  0
 12 13  1  0
 13 14  1  0
 14 15  2  0
 15 16  1  0
 16 17  2  0
 17 18  1  0
 18 19  2  0
  2 20  1  0
 20 21  2  0
 21 22  1  0
 22 23  2  0
 23 24  1  0
 24 25  2  0
 25 26  1  0
 25 27  1  0
 27 28  2  0
 28 29  1  0
 29 30  2  0
 13  7  1  0
 19 14  1  0
 30 20  1  0
 29 23  1  0
  3 31  1  0
  4 32  1  0
  4 33  1  0
  8 34  1  0
  8 35  1  0
  9 36  1  0
  9 37  1  0
 10 38  1  0
 10 39  1  0
 11 40  1  0
 11 41  1  0
 12 42  1  0
 12 43  1  0
 13 44  1  6
 15 45  1  0
 16 46  1  0
 17 47  1  0
 18 48  1  0
 19 49  1  0
 21 50  1  0
 22 51  1  0
 24 52  1  0
 27 53  1  0
 28 54  1  0
M  END
>  <smiles>  (20) 
O=C(NCC(=O)N1CCCCCC1c1ccccc1)c1ccc2cc(Cl)ccc2n1

>  <score_type>  (20) 
oracle

>  <origin>  (20) 
autodockgpu

>  <m_score__min__energy>  (20) 
-6.9699999999999998

>  <m_primary>  (20) 
energy

>  <rmsd>  (20) 
8.477615398939244

>  <m_score__min__rmsd>  (20) 
8.477615398939244

>  <meeko>  (20) 
{"free_energy": -5.45, "intermolecular_energy": -8.73, "internal_energy": -2.01, "cluster_size": 6, "cluster_id": 4, "rank_in_cluster": 5}

>  <energy>  (20) 
-6.03

>  <cluster_rmsd>  (20) 
0.0

>  <cluster>  (20) 
3

$$$$

     RDKit          3D

 54 57  0  0  0  0  0  0  0  0999 V2000
  138.4310   70.9510  221.4620 O   0  0  0  0  0  0  0  0  0  0  0  0
  138.8170   71.7640  222.3640 C   0  0  0  0  0  0  0  0  0  0  0  0
  138.6780   73.1800  222.2040 N   0  0  0  0  0  0  0  0  0  0  0  0
  138.0680   73.6670  220.9530 C   0  0  0  0  0  0  0  0  0  0  0  0
  138.4950   75.0680  220.7510 C   0  0  0  0  0  0  0  0  0  0  0  0
  138.8600   75.5280  219.6260 O   0  0  0  0  0  0  0  0  0  0  0  0
  138.5320   76.0390  221.8270 N   0  0  0  0  0  0  0  0  0  0  0  0
  137.1920   76.4610  222.1800 C   0  0  0  0  0  0  0  0  0  0  0  0
  137.1250   77.9080  222.5300 C   0  0  0  0  0  0  0  0  0  0  0  0
  137.8120   78.7620  221.5240 C   0  0  0  0  0  0  0  0  0  0  0  0
  139.2850   78.6590  221.4560 C   0  0  0  0  0  0  0  0  0  0  0  0
  139.9380   77.8440  222.5190 C   0  0  0  0  0  0  0  0  0  0  0  0
  139.8540   76.3530  222.2980 C   0  0  2  0  0  0  0  0  0  0  0  0
  140.9680   75.8500  221.4740 C   0  0  0  0  0  0  0  0  0  0  0  0
  141.4590   74.5630  221.5270 C   0  0  0  0  0  0  0  0  0  0  0  0
  142.5290   74.1390  220.7390 C   0  0  0  0  0  0  0  0  0  0  0  0
  143.1520   74.9970  219.8600 C   0  0  0  0  0  0  0  0  0  0  0  0
  142.6730   76.2870  219.7940 C   0  0  0  0  0  0  0  0  0  0  0  0
  141.6170   76.7000  220.5730 C   0  0  0  0  0  0  0  0  0  0  0  0
  139.4140   71.2410  223.5870 C   0  0  0  0  0  0  0  0  0  0  0  0
  140.3950   71.9480  224.2420 C   0  0  0  0  0  0  0  0  0  0  0  0
  140.9960   71.5020  225.4030 C   0  0  0  0  0  0  0  0  0  0  0  0
  140.5910   70.2890  225.9270 C   0  0  0  0  0  0  0  0  0  0  0  0
  141.1580   69.7830  227.0940 C   0  0  0  0  0  0  0  0  0  0  0  0
  140.7330   68.5610  227.6000 C   0  0  0  0  0  0  0  0  0  0  0  0
  141.4240   67.8830  229.0750 Cl  0  0  0  0  0  0  0  0  0  0  0  0
  139.7370   67.8330  226.9410 C   0  0  0  0  0  0  0  0  0  0  0  0
  139.1920   68.3580  225.7860 C   0  0  0  0  0  0  0  0  0  0  0  0
  139.5990   69.5760  225.2610 C   0  0  0  0  0  0  0  0  0  0  0  0
  139.0350   70.0610  224.1150 N   0  0  0  0  0  0  0  0  0  0  0  0
  138.9980   73.8340  222.9510 H   0  0  0  0  0  0  0  0  0  0  0  0
  138.4051   73.0486  220.1080 H   0  0  0  0  0  0  0  0  0  0  0  0
  136.9713   73.6071  221.0143 H   0  0  0  0  0  0  0  0  0  0  0  0
  136.5259   76.2733  221.3249 H   0  0  0  0  0  0  0  0  0  0  0  0
  136.8825   75.8873  223.0660 H   0  0  0  0  0  0  0  0  0  0  0  0
  136.0688   78.2097  222.5887 H   0  0  0  0  0  0  0  0  0  0  0  0
  137.6350   78.0460  223.4948 H   0  0  0  0  0  0  0  0  0  0  0  0
  137.4138   78.4954  220.5339 H   0  0  0  0  0  0  0  0  0  0  0  0
  137.6103   79.7964  221.8392 H   0  0  0  0  0  0  0  0  0  0  0  0
  139.5457   78.2140  220.4844 H   0  0  0  0  0  0  0  0  0  0  0  0
  139.6584   79.6836  221.6000 H   0  0  0  0  0  0  0  0  0  0  0  0
  141.0002   78.1261  222.5658 H   0  0  0  0  0  0  0  0  0  0  0  0
  139.3982   78.0549  223.4540 H   0  0  0  0  0  0  0  0  0  0  0  0
  139.9917   75.8066  223.2427 H   0  0  0  0  0  0  0  0  0  0  0  0
  140.9901   73.8446  222.2155 H   0  0  0  0  0  0  0  0  0  0  0  0
  142.8817   73.1003  220.8211 H   0  0  0  0  0  0  0  0  0  0  0  0
  143.9962   74.6663  219.2371 H   0  0  0  0  0  0  0  0  0  0  0  0
  143.1449   77.0019  219.1039 H   0  0  0  0  0  0  0  0  0  0  0  0
  141.2695   77.7398  220.4836 H   0  0  0  0  0  0  0  0  0  0  0  0
  140.7157   72.9128  223.8222 H   0  0  0  0  0  0  0  0  0  0  0  0
  141.7773   72.0974  225.8980 H   0  0  0  0  0  0  0  0  0  0  0  0
  141.9426   70.3511  227.6153 H   0  0  0  0  0  0  0  0  0  0  0  0
  139.3955   66.8640  227.3340 H   0  0  0  0  0  0  0  0  0  0  0  0
  138.4076   67.7906  225.2638 H   0  0  0  0  0  0  0  0  0  0  0  0
  1  2  2  0
  2  3  1  0
  3  4  1  0
  4  5  1  0
  5  6  2  0
  5  7  1  0
  7  8  1  0
  8  9  1  0
  9 10  1  0
 10 11  1  0
 11 12  1  0
 12 13  1  0
 13 14  1  0
 14 15  2  0
 15 16  1  0
 16 17  2  0
 17 18  1  0
 18 19  2  0
  2 20  1  0
 20 21  2  0
 21 22  1  0
 22 23  2  0
 23 24  1  0
 24 25  2  0
 25 26  1  0
 25 27  1  0
 27 28  2  0
 28 29  1  0
 29 30  2  0
 13  7  1  0
 19 14  1  0
 30 20  1  0
 29 23  1  0
  3 31  1  0
  4 32  1  0
  4 33  1  0
  8 34  1  0
  8 35  1  0
  9 36  1  0
  9 37  1  0
 10 38  1  0
 10 39  1  0
 11 40  1  0
 11 41  1  0
 12 42  1  0
 12 43  1  0
 13 44  1  1
 15 45  1  0
 16 46  1  0
 17 47  1  0
 18 48  1  0
 19 49  1  0
 21 50  1  0
 22 51  1  0
 24 52  1  0
 27 53  1  0
 28 54  1  0
M  END
>  <smiles>  (21) 
O=C(NCC(=O)N1CCCCCC1c1ccccc1)c1ccc2cc(Cl)ccc2n1

>  <score_type>  (21) 
oracle

>  <origin>  (21) 
autodockgpu

>  <m_score__min__energy>  (21) 
-6.9699999999999998

>  <m_primary>  (21) 
energy

>  <rmsd>  (21) 
3.65035891200189

>  <m_score__min__rmsd>  (21) 
3.65035891200189

>  <meeko>  (21) 
{"free_energy": -5.73, "intermolecular_energy": -9.01, "internal_energy": -1.83, "cluster_size": 3, "cluster_id": 7, "rank_in_cluster": 2}

>  <energy>  (21) 
-5.11

>  <cluster_rmsd>  (21) 
1.68

>  <cluster>  (21) 
3

$$$$

     RDKit          3D

 54 57  0  0  0  0  0  0  0  0999 V2000
  137.7510   77.1490  221.6250 O   0  0  0  0  0  0  0  0  0  0  0  0
  136.9390   77.4430  222.5620 C   0  0  0  0  0  0  0  0  0  0  0  0
  136.7100   78.8000  222.9560 N   0  0  0  0  0  0  0  0  0  0  0  0
  137.4490   79.8520  222.2330 C   0  0  0  0  0  0  0  0  0  0  0  0
  138.4990   80.3740  223.1350 C   0  0  0  0  0  0  0  0  0  0  0  0
  138.2460   81.0640  224.1700 O   0  0  0  0  0  0  0  0  0  0  0  0
  139.9120   80.1420  222.9120 N   0  0  0  0  0  0  0  0  0  0  0  0
  140.5400   81.3200  222.3500 C   0  0  0  0  0  0  0  0  0  0  0  0
  141.7820   80.9950  221.5920 C   0  0  0  0  0  0  0  0  0  0  0  0
  142.7790   80.2750  222.4290 C   0  0  0  0  0  0  0  0  0  0  0  0
  142.4580   80.1190  223.8630 C   0  0  0  0  0  0  0  0  0  0  0  0
  141.5490   78.9910  224.2190 C   0  0  0  0  0  0  0  0  0  0  0  0
  140.3660   78.8320  223.2950 C   0  0  2  0  0  0  0  0  0  0  0  0
  140.6460   77.8980  222.1890 C   0  0  0  0  0  0  0  0  0  0  0  0
  140.7200   78.2610  220.8610 C   0  0  0  0  0  0  0  0  0  0  0  0
  140.9690   77.3370  219.8470 C   0  0  0  0  0  0  0  0  0  0  0  0
  141.1550   76.0010  220.1290 C   0  0  0  0  0  0  0  0  0  0  0  0
  141.0840   75.6220  221.4510 C   0  0  0  0  0  0  0  0  0  0  0  0
  140.8380   76.5380  222.4480 C   0  0  0  0  0  0  0  0  0  0  0  0
  136.2280   76.3730  223.2500 C   0  0  0  0  0  0  0  0  0  0  0  0
  136.4010   75.0630  222.8670 C   0  0  0  0  0  0  0  0  0  0  0  0
  135.7540   74.0080  223.4810 C   0  0  0  0  0  0  0  0  0  0  0  0
  134.8930   74.2860  224.5270 C   0  0  0  0  0  0  0  0  0  0  0  0
  134.2100   73.2680  225.1880 C   0  0  0  0  0  0  0  0  0  0  0  0
  133.3520   73.5730  226.2360 C   0  0  0  0  0  0  0  0  0  0  0  0
  132.4670   72.3160  227.1000 Cl  0  0  0  0  0  0  0  0  0  0  0  0
  133.1680   74.9020  226.6330 C   0  0  0  0  0  0  0  0  0  0  0  0
  133.8580   75.8910  225.9600 C   0  0  0  0  0  0  0  0  0  0  0  0
  134.7210   75.6120  224.9110 C   0  0  0  0  0  0  0  0  0  0  0  0
  135.3850   76.6200  224.2710 N   0  0  0  0  0  0  0  0  0  0  0  0
  136.0420   79.0260  223.7240 H   0  0  0  0  0  0  0  0  0  0  0  0
  137.9102   79.4297  221.3280 H   0  0  0  0  0  0  0  0  0  0  0  0
  136.7668   80.6606  221.9319 H   0  0  0  0  0  0  0  0  0  0  0  0
  139.8281   81.8089  221.6687 H   0  0  0  0  0  0  0  0  0  0  0  0
  140.8191   81.9813  223.1836 H   0  0  0  0  0  0  0  0  0  0  0  0
  141.5170   80.3612  220.7328 H   0  0  0  0  0  0  0  0  0  0  0  0
  142.2361   81.9423  221.2658 H   0  0  0  0  0  0  0  0  0  0  0  0
  142.9041   79.2679  222.0047 H   0  0  0  0  0  0  0  0  0  0  0  0
  143.6823   80.9022  222.4033 H   0  0  0  0  0  0  0  0  0  0  0  0
  143.4042   79.9701  224.4038 H   0  0  0  0  0  0  0  0  0  0  0  0
  141.9136   81.0331  224.1423 H   0  0  0  0  0  0  0  0  0  0  0  0
  142.1318   78.0584  224.1962 H   0  0  0  0  0  0  0  0  0  0  0  0
  141.1423   79.2164  225.2159 H   0  0  0  0  0  0  0  0  0  0  0  0
  139.5262   78.3436  223.8110 H   0  0  0  0  0  0  0  0  0  0  0  0
  140.5774   79.3179  220.5917 H   0  0  0  0  0  0  0  0  0  0  0  0
  141.0178   77.6806  218.8032 H   0  0  0  0  0  0  0  0  0  0  0  0
  141.3518   75.2686  219.3322 H   0  0  0  0  0  0  0  0  0  0  0  0
  141.2271   74.5640  221.7158 H   0  0  0  0  0  0  0  0  0  0  0  0
  140.7906   76.1863  223.4892 H   0  0  0  0  0  0  0  0  0  0  0  0
  137.0857   74.8457  222.0339 H   0  0  0  0  0  0  0  0  0  0  0  0
  135.9194   72.9733  223.1465 H   0  0  0  0  0  0  0  0  0  0  0  0
  134.3505   72.2215  224.8795 H   0  0  0  0  0  0  0  0  0  0  0  0
  132.4897   75.1532  227.4617 H   0  0  0  0  0  0  0  0  0  0  0  0
  133.7180   76.9379  226.2672 H   0  0  0  0  0  0  0  0  0  0  0  0
  1  2  2  0
  2  3  1  0
  3  4  1  0
  4  5  1  0
  5  6  2  0
  5  7  1  0
  7  8  1  0
  8  9  1  0
  9 10  1  0
 10 11  1  0
 11 12  1  0
 12 13  1  0
 13 14  1  0
 14 15  2  0
 15 16  1  0
 16 17  2  0
 17 18  1  0
 18 19  2  0
  2 20  1  0
 20 21  2  0
 21 22  1  0
 22 23  2  0
 23 24  1  0
 24 25  2  0
 25 26  1  0
 25 27  1  0
 27 28  2  0
 28 29  1  0
 29 30  2  0
 13  7  1  0
 19 14  1  0
 30 20  1  0
 29 23  1  0
  3 31  1  0
  4 32  1  0
  4 33  1  0
  8 34  1  0
  8 35  1  0
  9 36  1  0
  9 37  1  0
 10 38  1  0
 10 39  1  0
 11 40  1  0
 11 41  1  0
 12 42  1  0
 12 43  1  0
 13 44  1  1
 15 45  1  0
 16 46  1  0
 17 47  1  0
 18 48  1  0
 19 49  1  0
 21 50  1  0
 22 51  1  0
 24 52  1  0
 27 53  1  0
 28 54  1  0
M  END
>  <smiles>  (22) 
O=C(NCC(=O)N1CCCCCC1c1ccccc1)c1ccc2cc(Cl)ccc2n1

>  <score_type>  (22) 
oracle

>  <origin>  (22) 
autodockgpu

>  <m_score__min__energy>  (22) 
-6.9699999999999998

>  <m_primary>  (22) 
energy

>  <rmsd>  (22) 
6.951556090929264

>  <m_score__min__rmsd>  (22) 
6.951556090929264

>  <meeko>  (22) 
{"free_energy": -5.04, "intermolecular_energy": -8.32, "internal_energy": -2.28, "cluster_size": 2, "cluster_id": 12, "rank_in_cluster": 1}

>  <energy>  (22) 
-4.91

>  <cluster_rmsd>  (22) 
1.31

>  <cluster>  (22) 
3

$$$$

     RDKit          3D

 54 57  0  0  0  0  0  0  0  0999 V2000
  140.0420   72.4470  220.7310 O   0  0  0  0  0  0  0  0  0  0  0  0
  139.7860   72.8290  221.9200 C   0  0  0  0  0  0  0  0  0  0  0  0
  139.4340   74.1860  222.2100 N   0  0  0  0  0  0  0  0  0  0  0  0
  139.3760   75.1310  221.0790 C   0  0  0  0  0  0  0  0  0  0  0  0
  138.9190   76.4370  221.5980 C   0  0  0  0  0  0  0  0  0  0  0  0
  138.7810   76.6840  222.8350 O   0  0  0  0  0  0  0  0  0  0  0  0
  138.5900   77.5530  220.7340 N   0  0  0  0  0  0  0  0  0  0  0  0
  138.2250   77.0840  219.4120 C   0  0  0  0  0  0  0  0  0  0  0  0
  139.1630   77.5660  218.3590 C   0  0  0  0  0  0  0  0  0  0  0  0
  138.9910   79.0160  218.0740 C   0  0  0  0  0  0  0  0  0  0  0  0
  139.2750   79.9530  219.1810 C   0  0  0  0  0  0  0  0  0  0  0  0
  138.3420   79.8980  220.3420 C   0  0  0  0  0  0  0  0  0  0  0  0
  138.6860   78.8420  221.3650 C   0  0  2  0  0  0  0  0  0  0  0  0
  139.9570   79.1280  222.0540 C   0  0  0  0  0  0  0  0  0  0  0  0
  140.0560   79.7150  223.2970 C   0  0  0  0  0  0  0  0  0  0  0  0
  141.2850   79.9830  223.9010 C   0  0  0  0  0  0  0  0  0  0  0  0
  142.4700   79.6680  223.2750 C   0  0  0  0  0  0  0  0  0  0  0  0
  142.3890   79.0800  222.0320 C   0  0  0  0  0  0  0  0  0  0  0  0
  141.1750   78.8180  221.4410 C   0  0  0  0  0  0  0  0  0  0  0  0
  139.8540   71.8630  223.0090 C   0  0  0  0  0  0  0  0  0  0  0  0
  139.4070   70.5750  222.8270 C   0  0  0  0  0  0  0  0  0  0  0  0
  139.4450   69.6170  223.8220 C   0  0  0  0  0  0  0  0  0  0  0  0
  139.9580   69.9740  225.0560 C   0  0  0  0  0  0  0  0  0  0  0  0
  140.0250   69.0560  226.1010 C   0  0  0  0  0  0  0  0  0  0  0  0
  140.5450   69.4380  227.3300 C   0  0  0  0  0  0  0  0  0  0  0  0
  140.6480   68.3080  228.6810 Cl  0  0  0  0  0  0  0  0  0  0  0  0
  141.0020   70.7460  227.5260 C   0  0  0  0  0  0  0  0  0  0  0  0
  140.9240   71.6360  226.4730 C   0  0  0  0  0  0  0  0  0  0  0  0
  140.4100   71.2770  225.2350 C   0  0  0  0  0  0  0  0  0  0  0  0
  140.3500   72.1880  224.2190 N   0  0  0  0  0  0  0  0  0  0  0  0
  139.2260   74.4850  223.1870 H   0  0  0  0  0  0  0  0  0  0  0  0
  140.3743   75.2367  220.6293 H   0  0  0  0  0  0  0  0  0  0  0  0
  138.6831   74.7624  220.3083 H   0  0  0  0  0  0  0  0  0  0  0  0
  138.2306   75.9840  219.4134 H   0  0  0  0  0  0  0  0  0  0  0  0
  137.2263   77.4818  219.1790 H   0  0  0  0  0  0  0  0  0  0  0  0
  140.1951   77.3914  218.6971 H   0  0  0  0  0  0  0  0  0  0  0  0
  138.9456   77.0120  217.4339 H   0  0  0  0  0  0  0  0  0  0  0  0
  139.6617   79.2728  217.2408 H   0  0  0  0  0  0  0  0  0  0  0  0
  137.9193   79.1412  217.8600 H   0  0  0  0  0  0  0  0  0  0  0  0
  140.2874   79.7369  219.5529 H   0  0  0  0  0  0  0  0  0  0  0  0
  139.1563   80.9597  218.7539 H   0  0  0  0  0  0  0  0  0  0  0  0
  138.3545   80.8783  220.8409 H   0  0  0  0  0  0  0  0  0  0  0  0
  137.3524   79.6364  219.9392 H   0  0  0  0  0  0  0  0  0  0  0  0
  137.9615   78.8455  222.1927 H   0  0  0  0  0  0  0  0  0  0  0  0
  139.1328   79.9819  223.8323 H   0  0  0  0  0  0  0  0  0  0  0  0
  141.3074   80.4542  224.8947 H   0  0  0  0  0  0  0  0  0  0  0  0
  143.4410   79.8771  223.7477 H   0  0  0  0  0  0  0  0  0  0  0  0
  143.3149   78.8143  221.5008 H   0  0  0  0  0  0  0  0  0  0  0  0
  141.1617   78.3462  220.4474 H   0  0  0  0  0  0  0  0  0  0  0  0
  139.0005   70.2947  221.8440 H   0  0  0  0  0  0  0  0  0  0  0  0
  139.0769   68.5970  223.6376 H   0  0  0  0  0  0  0  0  0  0  0  0
  139.6655   68.0271  225.9524 H   0  0  0  0  0  0  0  0  0  0  0  0
  141.4141   71.0582  228.4969 H   0  0  0  0  0  0  0  0  0  0  0  0
  141.2818   72.6656  226.6208 H   0  0  0  0  0  0  0  0  0  0  0  0
  1  2  2  0
  2  3  1  0
  3  4  1  0
  4  5  1  0
  5  6  2  0
  5  7  1  0
  7  8  1  0
  8  9  1  0
  9 10  1  0
 10 11  1  0
 11 12  1  0
 12 13  1  0
 13 14  1  0
 14 15  2  0
 15 16  1  0
 16 17  2  0
 17 18  1  0
 18 19  2  0
  2 20  1  0
 20 21  2  0
 21 22  1  0
 22 23  2  0
 23 24  1  0
 24 25  2  0
 25 26  1  0
 25 27  1  0
 27 28  2  0
 28 29  1  0
 29 30  2  0
 13  7  1  0
 19 14  1  0
 30 20  1  0
 29 23  1  0
  3 31  1  0
  4 32  1  0
  4 33  1  0
  8 34  1  0
  8 35  1  0
  9 36  1  0
  9 37  1  0
 10 38  1  0
 10 39  1  0
 11 40  1  0
 11 41  1  0
 12 42  1  0
 12 43  1  0
 13 44  1  1
 15 45  1  0
 16 46  1  0
 17 47  1  0
 18 48  1  0
 19 49  1  0
 21 50  1  0
 22 51  1  0
 24 52  1  0
 27 53  1  0
 28 54  1  0
M  END
>  <smiles>  (23) 
O=C(NCC(=O)N1CCCCCC1c1ccccc1)c1ccc2cc(Cl)ccc2n1

>  <score_type>  (23) 
oracle

>  <origin>  (23) 
autodockgpu

>  <m_score__min__energy>  (23) 
-6.9699999999999998

>  <m_primary>  (23) 
energy

>  <rmsd>  (23) 
2.439015638001354

>  <m_score__min__rmsd>  (23) 
2.439015638001354

>  <meeko>  (23) 
{"free_energy": -5.81, "intermolecular_energy": -9.09, "internal_energy": -2.07, "cluster_size": 15, "cluster_id": 1, "rank_in_cluster": 13}

>  <energy>  (23) 
-5.98

>  <cluster_rmsd>  (23) 
0.0

>  <cluster>  (23) 
4

$$$$

     RDKit          3D

 54 57  0  0  0  0  0  0  0  0999 V2000
  140.2900   73.8130  220.7480 O   0  0  0  0  0  0  0  0  0  0  0  0
  139.5910   73.8540  221.8130 C   0  0  0  0  0  0  0  0  0  0  0  0
  138.9740   75.0660  222.2560 N   0  0  0  0  0  0  0  0  0  0  0  0
  139.1750   76.2740  221.4340 C   0  0  0  0  0  0  0  0  0  0  0  0
  140.6150   76.6080  221.4570 C   0  0  0  0  0  0  0  0  0  0  0  0
  141.4240   76.1390  222.3170 O   0  0  0  0  0  0  0  0  0  0  0  0
  141.2290   77.5020  220.4960 N   0  0  0  0  0  0  0  0  0  0  0  0
  142.1630   76.7820  219.6540 C   0  0  0  0  0  0  0  0  0  0  0  0
  141.6530   76.6020  218.2650 C   0  0  0  0  0  0  0  0  0  0  0  0
  141.6050   77.8850  217.5130 C   0  0  0  0  0  0  0  0  0  0  0  0
  140.7420   78.9490  218.0650 C   0  0  0  0  0  0  0  0  0  0  0  0
  141.2100   79.5870  219.3280 C   0  0  0  0  0  0  0  0  0  0  0  0
  140.7810   78.8660  220.5830 C   0  0  2  0  0  0  0  0  0  0  0  0
  141.1700   79.5950  221.8040 C   0  0  0  0  0  0  0  0  0  0  0  0
  140.3570   80.4810  222.4760 C   0  0  0  0  0  0  0  0  0  0  0  0
  140.7780   81.1620  223.6190 C   0  0  0  0  0  0  0  0  0  0  0  0
  142.0410   80.9760  224.1350 C   0  0  0  0  0  0  0  0  0  0  0  0
  142.8670   80.0930  223.4740 C   0  0  0  0  0  0  0  0  0  0  0  0
  142.4470   79.4240  222.3480 C   0  0  0  0  0  0  0  0  0  0  0  0
  139.4160   72.6380  222.5960 C   0  0  0  0  0  0  0  0  0  0  0  0
  138.3720   71.7820  222.3320 C   0  0  0  0  0  0  0  0  0  0  0  0
  138.1550   70.6160  223.0410 C   0  0  0  0  0  0  0  0  0  0  0  0
  139.0310   70.2990  224.0630 C   0  0  0  0  0  0  0  0  0  0  0  0
  138.8690   69.1380  224.8160 C   0  0  0  0  0  0  0  0  0  0  0  0
  139.7630   68.8420  225.8370 C   0  0  0  0  0  0  0  0  0  0  0  0
  139.5950   67.3840  226.8160 Cl  0  0  0  0  0  0  0  0  0  0  0  0
  140.8280   69.7050  226.1150 C   0  0  0  0  0  0  0  0  0  0  0  0
  140.9650   70.8490  225.3520 C   0  0  0  0  0  0  0  0  0  0  0  0
  140.0860   71.1660  224.3270 C   0  0  0  0  0  0  0  0  0  0  0  0
  140.2560   72.3080  223.5960 N   0  0  0  0  0  0  0  0  0  0  0  0
  138.4030   75.0850  223.1300 H   0  0  0  0  0  0  0  0  0  0  0  0
  138.8533   76.0798  220.4002 H   0  0  0  0  0  0  0  0  0  0  0  0
  138.5824   77.1105  221.8328 H   0  0  0  0  0  0  0  0  0  0  0  0
  143.1078   77.3439  219.6135 H   0  0  0  0  0  0  0  0  0  0  0  0
  142.3070   75.7827  220.0907 H   0  0  0  0  0  0  0  0  0  0  0  0
  142.3152   75.9037  217.7322 H   0  0  0  0  0  0  0  0  0  0  0  0
  140.6272   76.2103  218.3301 H   0  0  0  0  0  0  0  0  0  0  0  0
  142.6303   78.2803  217.4637 H   0  0  0  0  0  0  0  0  0  0  0  0
  141.1613   77.6311  216.5390 H   0  0  0  0  0  0  0  0  0  0  0  0
  140.6531   79.7378  217.3035 H   0  0  0  0  0  0  0  0  0  0  0  0
  139.7923   78.4555  218.3189 H   0  0  0  0  0  0  0  0  0  0  0  0
  142.3093   79.6225  219.3095 H   0  0  0  0  0  0  0  0  0  0  0  0
  140.7512   80.5860  219.3656 H   0  0  0  0  0  0  0  0  0  0  0  0
  139.6844   78.8357  220.6642 H   0  0  0  0  0  0  0  0  0  0  0  0
  139.3393   80.6581  222.0980 H   0  0  0  0  0  0  0  0  0  0  0  0
  140.0886   81.8599  224.1167 H   0  0  0  0  0  0  0  0  0  0  0  0
  142.3764   81.5096  225.0366 H   0  0  0  0  0  0  0  0  0  0  0  0
  143.8842   79.9194  223.8551 H   0  0  0  0  0  0  0  0  0  0  0  0
  143.1423   78.7276  221.8564 H   0  0  0  0  0  0  0  0  0  0  0  0
  137.6773   72.0377  221.5183 H   0  0  0  0  0  0  0  0  0  0  0  0
  137.3079   69.9574  222.7989 H   0  0  0  0  0  0  0  0  0  0  0  0
  138.0331   68.4558  224.6019 H   0  0  0  0  0  0  0  0  0  0  0  0
  141.5400   69.4784  226.9223 H   0  0  0  0  0  0  0  0  0  0  0  0
  141.8004   71.5321  225.5650 H   0  0  0  0  0  0  0  0  0  0  0  0
  1  2  2  0
  2  3  1  0
  3  4  1  0
  4  5  1  0
  5  6  2  0
  5  7  1  0
  7  8  1  0
  8  9  1  0
  9 10  1  0
 10 11  1  0
 11 12  1  0
 12 13  1  0
 13 14  1  0
 14 15  2  0
 15 16  1  0
 16 17  2  0
 17 18  1  0
 18 19  2  0
  2 20  1  0
 20 21  2  0
 21 22  1  0
 22 23  2  0
 23 24  1  0
 24 25  2  0
 25 26  1  0
 25 27  1  0
 27 28  2  0
 28 29  1  0
 29 30  2  0
 13  7  1  0
 19 14  1  0
 30 20  1  0
 29 23  1  0
  3 31  1  0
  4 32  1  0
  4 33  1  0
  8 34  1  0
  8 35  1  0
  9 36  1  0
  9 37  1  0
 10 38  1  0
 10 39  1  0
 11 40  1  0
 11 41  1  0
 12 42  1  0
 12 43  1  0
 13 44  1  6
 15 45  1  0
 16 46  1  0
 17 47  1  0
 18 48  1  0
 19 49  1  0
 21 50  1  0
 22 51  1  0
 24 52  1  0
 27 53  1  0
 28 54  1  0
M  END
>  <smiles>  (24) 
O=C(NCC(=O)N1CCCCCC1c1ccccc1)c1ccc2cc(Cl)ccc2n1

>  <score_type>  (24) 
oracle

>  <origin>  (24) 
autodockgpu

>  <m_score__min__energy>  (24) 
-6.9699999999999998

>  <m_primary>  (24) 
energy

>  <rmsd>  (24) 
2.729303195608378

>  <m_score__min__rmsd>  (24) 
2.729303195608378

>  <meeko>  (24) 
{"free_energy": -6.17, "intermolecular_energy": -9.45, "internal_energy": -1.61, "cluster_size": 15, "cluster_id": 1, "rank_in_cluster": 9}

>  <energy>  (24) 
-5.92

>  <cluster_rmsd>  (24) 
1.5

>  <cluster>  (24) 
4

$$$$

     RDKit          3D

 54 57  0  0  0  0  0  0  0  0999 V2000
  137.0130   74.6800  221.6410 O   0  0  0  0  0  0  0  0  0  0  0  0
  138.2490   74.8440  221.9090 C   0  0  0  0  0  0  0  0  0  0  0  0
  139.1570   73.7390  221.9540 N   0  0  0  0  0  0  0  0  0  0  0  0
  138.6120   72.3970  221.6790 C   0  0  0  0  0  0  0  0  0  0  0  0
  139.3370   71.4260  222.5250 C   0  0  0  0  0  0  0  0  0  0  0  0
  140.5570   71.1230  222.3460 O   0  0  0  0  0  0  0  0  0  0  0  0
  138.7150   70.7340  223.6360 N   0  0  0  0  0  0  0  0  0  0  0  0
  137.3060   71.0610  223.7150 C   0  0  0  0  0  0  0  0  0  0  0  0
  136.4800   69.9070  224.1720 C   0  0  0  0  0  0  0  0  0  0  0  0
  136.7370   68.6800  223.3710 C   0  0  0  0  0  0  0  0  0  0  0  0
  138.0990   68.1100  223.4420 C   0  0  0  0  0  0  0  0  0  0  0  0
  138.9420   68.5540  224.5880 C   0  0  0  0  0  0  0  0  0  0  0  0
  139.6080   69.8930  224.3880 C   0  0  2  0  0  0  0  0  0  0  0  0
  140.1120   70.4590  225.6530 C   0  0  0  0  0  0  0  0  0  0  0  0
  140.9090   71.5790  225.7440 C   0  0  0  0  0  0  0  0  0  0  0  0
  141.3770   72.0650  226.9650 C   0  0  0  0  0  0  0  0  0  0  0  0
  141.0600   71.4400  228.1500 C   0  0  0  0  0  0  0  0  0  0  0  0
  140.2630   70.3180  228.0770 C   0  0  0  0  0  0  0  0  0  0  0  0
  139.8040   69.8430  226.8700 C   0  0  0  0  0  0  0  0  0  0  0  0
  138.7470   76.1870  222.1740 C   0  0  0  0  0  0  0  0  0  0  0  0
  137.9350   77.2820  221.9890 C   0  0  0  0  0  0  0  0  0  0  0  0
  138.3530   78.5780  222.2240 C   0  0  0  0  0  0  0  0  0  0  0  0
  139.6480   78.7790  222.6640 C   0  0  0  0  0  0  0  0  0  0  0  0
  140.1310   80.0610  222.9180 C   0  0  0  0  0  0  0  0  0  0  0  0
  141.4360   80.2370  223.3600 C   0  0  0  0  0  0  0  0  0  0  0  0
  142.0890   81.8410  223.6940 Cl  0  0  0  0  0  0  0  0  0  0  0  0
  142.2710   79.1310  223.5500 C   0  0  0  0  0  0  0  0  0  0  0  0
  141.7660   77.8720  223.2900 C   0  0  0  0  0  0  0  0  0  0  0  0
  140.4670   77.6700  222.8490 C   0  0  0  0  0  0  0  0  0  0  0  0
  140.0050   76.4080  222.6030 N   0  0  0  0  0  0  0  0  0  0  0  0
  140.1660   73.8880  222.1730 H   0  0  0  0  0  0  0  0  0  0  0  0
  137.5390   72.3736  221.9200 H   0  0  0  0  0  0  0  0  0  0  0  0
  138.7373   72.1448  220.6157 H   0  0  0  0  0  0  0  0  0  0  0  0
  137.1753   71.8918  224.4240 H   0  0  0  0  0  0  0  0  0  0  0  0
  136.9682   71.3364  222.7050 H   0  0  0  0  0  0  0  0  0  0  0  0
  136.7157   69.6979  225.2259 H   0  0  0  0  0  0  0  0  0  0  0  0
  135.4215   70.1779  224.0447 H   0  0  0  0  0  0  0  0  0  0  0  0
  136.0343   67.9061  223.7133 H   0  0  0  0  0  0  0  0  0  0  0  0
  136.6088   68.9887  222.3230 H   0  0  0  0  0  0  0  0  0  0  0  0
  138.0017   67.0159  223.5017 H   0  0  0  0  0  0  0  0  0  0  0  0
  138.6155   68.4717  222.5407 H   0  0  0  0  0  0  0  0  0  0  0  0
  138.3031   68.6172  225.4812 H   0  0  0  0  0  0  0  0  0  0  0  0
  139.7489   67.8135  224.6904 H   0  0  0  0  0  0  0  0  0  0  0  0
  140.5265   69.7899  223.7916 H   0  0  0  0  0  0  0  0  0  0  0  0
  141.1863   72.1090  224.8209 H   0  0  0  0  0  0  0  0  0  0  0  0
  142.0108   72.9639  226.9813 H   0  0  0  0  0  0  0  0  0  0  0  0
  141.4274   71.8202  229.1146 H   0  0  0  0  0  0  0  0  0  0  0  0
  139.9882   69.7914  229.0028 H   0  0  0  0  0  0  0  0  0  0  0  0
  139.1703   68.9439  226.8621 H   0  0  0  0  0  0  0  0  0  0  0  0
  136.9055   77.1183  221.6378 H   0  0  0  0  0  0  0  0  0  0  0  0
  137.6728   79.4278  222.0650 H   0  0  0  0  0  0  0  0  0  0  0  0
  139.4787   80.9340  222.7685 H   0  0  0  0  0  0  0  0  0  0  0  0
  143.3062   79.2609  223.8985 H   0  0  0  0  0  0  0  0  0  0  0  0
  142.4177   76.9983  223.4381 H   0  0  0  0  0  0  0  0  0  0  0  0
  1  2  2  0
  2  3  1  0
  3  4  1  0
  4  5  1  0
  5  6  2  0
  5  7  1  0
  7  8  1  0
  8  9  1  0
  9 10  1  0
 10 11  1  0
 11 12  1  0
 12 13  1  0
 13 14  1  0
 14 15  2  0
 15 16  1  0
 16 17  2  0
 17 18  1  0
 18 19  2  0
  2 20  1  0
 20 21  2  0
 21 22  1  0
 22 23  2  0
 23 24  1  0
 24 25  2  0
 25 26  1  0
 25 27  1  0
 27 28  2  0
 28 29  1  0
 29 30  2  0
 13  7  1  0
 19 14  1  0
 30 20  1  0
 29 23  1  0
  3 31  1  0
  4 32  1  0
  4 33  1  0
  8 34  1  0
  8 35  1  0
  9 36  1  0
  9 37  1  0
 10 38  1  0
 10 39  1  0
 11 40  1  0
 11 41  1  0
 12 42  1  0
 12 43  1  0
 13 44  1  6
 15 45  1  0
 16 46  1  0
 17 47  1  0
 18 48  1  0
 19 49  1  0
 21 50  1  0
 22 51  1  0
 24 52  1  0
 27 53  1  0
 28 54  1  0
M  END
>  <smiles>  (25) 
O=C(NCC(=O)N1CCCCCC1c1ccccc1)c1ccc2cc(Cl)ccc2n1

>  <score_type>  (25) 
oracle

>  <origin>  (25) 
autodockgpu

>  <m_score__min__energy>  (25) 
-6.9699999999999998

>  <m_primary>  (25) 
energy

>  <rmsd>  (25) 
8.272071723892447

>  <m_score__min__rmsd>  (25) 
8.272071723892447

>  <meeko>  (25) 
{"free_energy": -5.8, "intermolecular_energy": -9.08, "internal_energy": -1.91, "cluster_size": 6, "cluster_id": 4, "rank_in_cluster": 4}

>  <energy>  (25) 
-5.81

>  <cluster_rmsd>  (25) 
1.85

>  <cluster>  (25) 
4

$$$$

     RDKit          3D

 54 57  0  0  0  0  0  0  0  0999 V2000
  140.1750   73.4090  222.6890 O   0  0  0  0  0  0  0  0  0  0  0  0
  140.6080   73.7790  221.5490 C   0  0  0  0  0  0  0  0  0  0  0  0
  140.8880   72.8320  220.5120 N   0  0  0  0  0  0  0  0  0  0  0  0
  140.6570   71.4070  220.8110 C   0  0  0  0  0  0  0  0  0  0  0  0
  139.2430   71.2480  221.2120 C   0  0  0  0  0  0  0  0  0  0  0  0
  138.2810   71.2450  220.3840 O   0  0  0  0  0  0  0  0  0  0  0  0
  138.8330   71.0790  222.5920 N   0  0  0  0  0  0  0  0  0  0  0  0
  137.7290   71.9640  222.9080 C   0  0  0  0  0  0  0  0  0  0  0  0
  136.4840   71.2190  223.2470 C   0  0  0  0  0  0  0  0  0  0  0  0
  136.5550   69.7900  222.8400 C   0  0  0  0  0  0  0  0  0  0  0  0
  137.3940   68.9010  223.6690 C   0  0  0  0  0  0  0  0  0  0  0  0
  138.8260   68.7890  223.2760 C   0  0  0  0  0  0  0  0  0  0  0  0
  139.5850   70.0930  223.3200 C   0  0  2  0  0  0  0  0  0  0  0  0
  139.9750   70.4640  224.6930 C   0  0  0  0  0  0  0  0  0  0  0  0
  140.6920   71.5940  225.0220 C   0  0  0  0  0  0  0  0  0  0  0  0
  141.0530   71.8920  226.3360 C   0  0  0  0  0  0  0  0  0  0  0  0
  140.7040   71.0620  227.3780 C   0  0  0  0  0  0  0  0  0  0  0  0
  139.9870   69.9280  227.0660 C   0  0  0  0  0  0  0  0  0  0  0  0
  139.6330   69.6380  225.7680 C   0  0  0  0  0  0  0  0  0  0  0  0
  140.8230   75.1970  221.2950 C   0  0  0  0  0  0  0  0  0  0  0  0
  141.0240   75.6540  220.0130 C   0  0  0  0  0  0  0  0  0  0  0  0
  141.2330   76.9860  219.7120 C   0  0  0  0  0  0  0  0  0  0  0  0
  141.2400   77.8990  220.7500 C   0  0  0  0  0  0  0  0  0  0  0  0
  141.4450   79.2560  220.5140 C   0  0  0  0  0  0  0  0  0  0  0  0
  141.4470   80.1530  221.5740 C   0  0  0  0  0  0  0  0  0  0  0  0
  141.7030   81.8800  221.3210 Cl  0  0  0  0  0  0  0  0  0  0  0  0
  141.2440   79.7000  222.8820 C   0  0  0  0  0  0  0  0  0  0  0  0
  141.0430   78.3490  223.0870 C   0  0  0  0  0  0  0  0  0  0  0  0
  141.0360   77.4340  222.0450 C   0  0  0  0  0  0  0  0  0  0  0  0
  140.8340   76.1050  222.2900 N   0  0  0  0  0  0  0  0  0  0  0  0
  141.2420   73.1490  219.5830 H   0  0  0  0  0  0  0  0  0  0  0  0
  140.8620   70.7999  219.9169 H   0  0  0  0  0  0  0  0  0  0  0  0
  141.3236   71.0732  221.6199 H   0  0  0  0  0  0  0  0  0  0  0  0
  138.0120   72.5890  223.7678 H   0  0  0  0  0  0  0  0  0  0  0  0
  137.5226   72.5748  222.0168 H   0  0  0  0  0  0  0  0  0  0  0  0
  136.3257   71.2701  224.3343 H   0  0  0  0  0  0  0  0  0  0  0  0
  135.6521   71.6850  222.6986 H   0  0  0  0  0  0  0  0  0  0  0  0
  135.5308   69.3890  222.8541 H   0  0  0  0  0  0  0  0  0  0  0  0
  137.0347   69.7968  221.8501 H   0  0  0  0  0  0  0  0  0  0  0  0
  137.3586   69.2750  224.7029 H   0  0  0  0  0  0  0  0  0  0  0  0
  136.9738   67.8932  223.5357 H   0  0  0  0  0  0  0  0  0  0  0  0
  139.3169   68.0812  223.9602 H   0  0  0  0  0  0  0  0  0  0  0  0
  138.8404   68.4508  222.2294 H   0  0  0  0  0  0  0  0  0  0  0  0
  140.5576   69.9993  222.8147 H   0  0  0  0  0  0  0  0  0  0  0  0
  140.9902   72.2854  224.2201 H   0  0  0  0  0  0  0  0  0  0  0  0
  141.6271   72.8070  226.5438 H   0  0  0  0  0  0  0  0  0  0  0  0
  140.9859   71.2947  228.4155 H   0  0  0  0  0  0  0  0  0  0  0  0
  139.6911   69.2396  227.8713 H   0  0  0  0  0  0  0  0  0  0  0  0
  139.0589   68.7211  225.5687 H   0  0  0  0  0  0  0  0  0  0  0  0
  141.0180   74.9249  219.1894 H   0  0  0  0  0  0  0  0  0  0  0  0
  141.3898   77.3117  218.6731 H   0  0  0  0  0  0  0  0  0  0  0  0
  141.6054   79.6175  219.4876 H   0  0  0  0  0  0  0  0  0  0  0  0
  141.2445   80.4035  223.7276 H   0  0  0  0  0  0  0  0  0  0  0  0
  140.8828   77.9860  224.1130 H   0  0  0  0  0  0  0  0  0  0  0  0
  1  2  2  0
  2  3  1  0
  3  4  1  0
  4  5  1  0
  5  6  2  0
  5  7  1  0
  7  8  1  0
  8  9  1  0
  9 10  1  0
 10 11  1  0
 11 12  1  0
 12 13  1  0
 13 14  1  0
 14 15  2  0
 15 16  1  0
 16 17  2  0
 17 18  1  0
 18 19  2  0
  2 20  1  0
 20 21  2  0
 21 22  1  0
 22 23  2  0
 23 24  1  0
 24 25  2  0
 25 26  1  0
 25 27  1  0
 27 28  2  0
 28 29  1  0
 29 30  2  0
 13  7  1  0
 19 14  1  0
 30 20  1  0
 29 23  1  0
  3 31  1  0
  4 32  1  0
  4 33  1  0
  8 34  1  0
  8 35  1  0
  9 36  1  0
  9 37  1  0
 10 38  1  0
 10 39  1  0
 11 40  1  0
 11 41  1  0
 12 42  1  0
 12 43  1  0
 13 44  1  6
 15 45  1  0
 16 46  1  0
 17 47  1  0
 18 48  1  0
 19 49  1  0
 21 50  1  0
 22 51  1  0
 24 52  1  0
 27 53  1  0
 28 54  1  0
M  END
>  <smiles>  (26) 
O=C(NCC(=O)N1CCCCCC1c1ccccc1)c1ccc2cc(Cl)ccc2n1

>  <score_type>  (26) 
oracle

>  <origin>  (26) 
autodockgpu

>  <m_score__min__energy>  (26) 
-6.9699999999999998

>  <m_primary>  (26) 
energy

>  <rmsd>  (26) 
8.023658297838123

>  <m_score__min__rmsd>  (26) 
8.023658297838123

>  <meeko>  (26) 
{"free_energy": -5.81, "intermolecular_energy": -9.09, "internal_energy": -1.73, "cluster_size": 6, "cluster_id": 4, "rank_in_cluster": 3}

>  <energy>  (26) 
-5.8

>  <cluster_rmsd>  (26) 
1.6

>  <cluster>  (26) 
4

$$$$

     RDKit          3D

 54 57  0  0  0  0  0  0  0  0999 V2000
  139.8000   71.9850  220.4000 O   0  0  0  0  0  0  0  0  0  0  0  0
  139.5560   72.4860  221.5460 C   0  0  0  0  0  0  0  0  0  0  0  0
  139.1700   73.8560  221.6960 N   0  0  0  0  0  0  0  0  0  0  0  0
  139.0620   74.6710  220.4710 C   0  0  0  0  0  0  0  0  0  0  0  0
  138.7950   76.0680  220.8740 C   0  0  0  0  0  0  0  0  0  0  0  0
  138.1770   76.8980  220.1380 O   0  0  0  0  0  0  0  0  0  0  0  0
  139.2170   76.6120  222.1500 N   0  0  0  0  0  0  0  0  0  0  0  0
  138.0740   76.8380  223.0110 C   0  0  0  0  0  0  0  0  0  0  0  0
  137.5270   78.2180  222.8790 C   0  0  0  0  0  0  0  0  0  0  0  0
  138.6020   79.2390  222.7580 C   0  0  0  0  0  0  0  0  0  0  0  0
  139.8970   78.9240  223.3980 C   0  0  0  0  0  0  0  0  0  0  0  0
  140.9100   78.2540  222.5360 C   0  0  0  0  0  0  0  0  0  0  0  0
  140.6380   76.7920  222.2780 C   0  0  2  0  0  0  0  0  0  0  0  0
  141.4570   76.2600  221.1730 C   0  0  0  0  0  0  0  0  0  0  0  0
  142.0010   74.9950  221.1440 C   0  0  0  0  0  0  0  0  0  0  0  0
  142.7860   74.5430  220.0830 C   0  0  0  0  0  0  0  0  0  0  0  0
  143.0550   75.3520  219.0000 C   0  0  0  0  0  0  0  0  0  0  0  0
  142.5180   76.6200  219.0140 C   0  0  0  0  0  0  0  0  0  0  0  0
  141.7450   77.0600  220.0630 C   0  0  0  0  0  0  0  0  0  0  0  0
  139.6740   71.6460  222.7300 C   0  0  0  0  0  0  0  0  0  0  0  0
  139.1670   70.3670  222.7310 C   0  0  0  0  0  0  0  0  0  0  0  0
  139.2490   69.5260  223.8240 C   0  0  0  0  0  0  0  0  0  0  0  0
  139.8690   69.9950  224.9680 C   0  0  0  0  0  0  0  0  0  0  0  0
  139.9840   69.1970  226.1040 C   0  0  0  0  0  0  0  0  0  0  0  0
  140.6120   69.6910  227.2390 C   0  0  0  0  0  0  0  0  0  0  0  0
  140.7790   68.7160  228.7000 Cl  0  0  0  0  0  0  0  0  0  0  0  0
  141.1300   70.9900  227.2500 C   0  0  0  0  0  0  0  0  0  0  0  0
  141.0020   71.7600  226.1100 C   0  0  0  0  0  0  0  0  0  0  0  0
  140.3800   71.2890  224.9630 C   0  0  0  0  0  0  0  0  0  0  0  0
  140.2740   72.0810  223.8560 N   0  0  0  0  0  0  0  0  0  0  0  0
  138.9730   74.2540  222.6400 H   0  0  0  0  0  0  0  0  0  0  0  0
  140.0032   74.6194  219.9041 H   0  0  0  0  0  0  0  0  0  0  0  0
  138.2489   74.2954  219.8325 H   0  0  0  0  0  0  0  0  0  0  0  0
  137.2850   76.1185  222.7467 H   0  0  0  0  0  0  0  0  0  0  0  0
  138.4069   76.7074  224.0513 H   0  0  0  0  0  0  0  0  0  0  0  0
  136.8926   78.2633  221.9815 H   0  0  0  0  0  0  0  0  0  0  0  0
  136.9500   78.4411  223.7885 H   0  0  0  0  0  0  0  0  0  0  0  0
  138.7907   79.3978  221.6860 H   0  0  0  0  0  0  0  0  0  0  0  0
  138.2228   80.1206  223.2955 H   0  0  0  0  0  0  0  0  0  0  0  0
  140.3329   79.8682  223.7564 H   0  0  0  0  0  0  0  0  0  0  0  0
  139.6641   78.2021  224.1946 H   0  0  0  0  0  0  0  0  0  0  0  0
  140.9371   78.7753  221.5677 H   0  0  0  0  0  0  0  0  0  0  0  0
  141.8666   78.3054  223.0767 H   0  0  0  0  0  0  0  0  0  0  0  0
  140.9605   76.1756  223.1301 H   0  0  0  0  0  0  0  0  0  0  0  0
  141.8095   74.3163  221.9882 H   0  0  0  0  0  0  0  0  0  0  0  0
  143.1974   73.5232  220.1112 H   0  0  0  0  0  0  0  0  0  0  0  0
  143.6722   74.9998  218.1604 H   0  0  0  0  0  0  0  0  0  0  0  0
  142.7115   77.2956  218.1678 H   0  0  0  0  0  0  0  0  0  0  0  0
  141.3374   78.0811  220.0274 H   0  0  0  0  0  0  0  0  0  0  0  0
  138.6739   69.9971  221.8200 H   0  0  0  0  0  0  0  0  0  0  0  0
  138.8317   68.5090  223.7854 H   0  0  0  0  0  0  0  0  0  0  0  0
  139.5770   68.1751  226.1016 H   0  0  0  0  0  0  0  0  0  0  0  0
  141.6280   71.3895  228.1458 H   0  0  0  0  0  0  0  0  0  0  0  0
  141.4076   72.7825  226.1120 H   0  0  0  0  0  0  0  0  0  0  0  0
  1  2  2  0
  2  3  1  0
  3  4  1  0
  4  5  1  0
  5  6  2  0
  5  7  1  0
  7  8  1  0
  8  9  1  0
  9 10  1  0
 10 11  1  0
 11 12  1  0
 12 13  1  0
 13 14  1  0
 14 15  2  0
 15 16  1  0
 16 17  2  0
 17 18  1  0
 18 19  2  0
  2 20  1  0
 20 21  2  0
 21 22  1  0
 22 23  2  0
 23 24  1  0
 24 25  2  0
 25 26  1  0
 25 27  1  0
 27 28  2  0
 28 29  1  0
 29 30  2  0
 13  7  1  0
 19 14  1  0
 30 20  1  0
 29 23  1  0
  3 31  1  0
  4 32  1  0
  4 33  1  0
  8 34  1  0
  8 35  1  0
  9 36  1  0
  9 37  1  0
 10 38  1  0
 10 39  1  0
 11 40  1  0
 11 41  1  0
 12 42  1  0
 12 43  1  0
 13 44  1  1
 15 45  1  0
 16 46  1  0
 17 47  1  0
 18 48  1  0
 19 49  1  0
 21 50  1  0
 22 51  1  0
 24 52  1  0
 27 53  1  0
 28 54  1  0
M  END
>  <smiles>  (27) 
O=C(NCC(=O)N1CCCCCC1c1ccccc1)c1ccc2cc(Cl)ccc2n1

>  <score_type>  (27) 
oracle

>  <origin>  (27) 
autodockgpu

>  <m_score__min__energy>  (27) 
-6.9699999999999998

>  <m_primary>  (27) 
energy

>  <rmsd>  (27) 
3.1013216413105584

>  <m_score__min__rmsd>  (27) 
3.1013216413105584

>  <meeko>  (27) 
{"free_energy": -6.01, "intermolecular_energy": -9.29, "internal_energy": -1.83, "cluster_size": 4, "cluster_id": 2, "rank_in_cluster": 4}

>  <energy>  (27) 
-5.45

>  <cluster_rmsd>  (27) 
1.71

>  <cluster>  (27) 
4

$$$$

     RDKit          3D

 54 57  0  0  0  0  0  0  0  0999 V2000
  140.5930   72.5570  220.7010 O   0  0  0  0  0  0  0  0  0  0  0  0
  140.0440   72.9500  221.7820 C   0  0  0  0  0  0  0  0  0  0  0  0
  139.5190   74.2750  221.9160 N   0  0  0  0  0  0  0  0  0  0  0  0
  139.6350   75.1740  220.7530 C   0  0  0  0  0  0  0  0  0  0  0  0
  140.9990   75.7440  220.7500 C   0  0  0  0  0  0  0  0  0  0  0  0
  141.9030   75.3890  221.5680 O   0  0  0  0  0  0  0  0  0  0  0  0
  141.4220   76.7620  219.8080 N   0  0  0  0  0  0  0  0  0  0  0  0
  142.2190   76.1760  218.7490 C   0  0  0  0  0  0  0  0  0  0  0  0
  141.5440   76.2510  217.4230 C   0  0  0  0  0  0  0  0  0  0  0  0
  141.5170   77.6370  216.8820 C   0  0  0  0  0  0  0  0  0  0  0  0
  140.7780   78.6450  217.6690 C   0  0  0  0  0  0  0  0  0  0  0  0
  141.3620   79.0070  218.9910 C   0  0  0  0  0  0  0  0  0  0  0  0
  140.9620   78.0880  220.1200 C   0  0  2  0  0  0  0  0  0  0  0  0
  141.3650   78.6160  221.4360 C   0  0  0  0  0  0  0  0  0  0  0  0
  140.9990   78.0640  222.6440 C   0  0  0  0  0  0  0  0  0  0  0  0
  141.3910   78.6120  223.8660 C   0  0  0  0  0  0  0  0  0  0  0  0
  142.1720   79.7440  223.9210 C   0  0  0  0  0  0  0  0  0  0  0  0
  142.5470   80.3100  222.7230 C   0  0  0  0  0  0  0  0  0  0  0  0
  142.1580   79.7650  221.5200 C   0  0  0  0  0  0  0  0  0  0  0  0
  139.9500   72.0290  222.9080 C   0  0  0  0  0  0  0  0  0  0  0  0
  139.2040   70.8780  222.8060 C   0  0  0  0  0  0  0  0  0  0  0  0
  139.0770   69.9690  223.8390 C   0  0  0  0  0  0  0  0  0  0  0  0
  139.7320   70.2330  225.0280 C   0  0  0  0  0  0  0  0  0  0  0  0
  139.6450   69.3580  226.1080 C   0  0  0  0  0  0  0  0  0  0  0  0
  140.3120   69.6450  227.2910 C   0  0  0  0  0  0  0  0  0  0  0  0
  140.2290   68.5650  228.6830 Cl  0  0  0  0  0  0  0  0  0  0  0  0
  141.0730   70.8130  227.4060 C   0  0  0  0  0  0  0  0  0  0  0  0
  141.1420   71.6640  226.3200 C   0  0  0  0  0  0  0  0  0  0  0  0
  140.4860   71.3980  225.1270 C   0  0  0  0  0  0  0  0  0  0  0  0
  140.5790   72.2660  224.0750 N   0  0  0  0  0  0  0  0  0  0  0  0
  139.0720   74.5830  222.8070 H   0  0  0  0  0  0  0  0  0  0  0  0
  139.4650   74.6079  219.8253 H   0  0  0  0  0  0  0  0  0  0  0  0
  138.8856   75.9769  220.8146 H   0  0  0  0  0  0  0  0  0  0  0  0
  143.1768   76.7136  218.6888 H   0  0  0  0  0  0  0  0  0  0  0  0
  142.3681   75.1131  218.9901 H   0  0  0  0  0  0  0  0  0  0  0  0
  142.0829   75.6049  216.7144 H   0  0  0  0  0  0  0  0  0  0  0  0
  140.5032   75.9205  217.5554 H   0  0  0  0  0  0  0  0  0  0  0  0
  142.5583   77.9807  216.7952 H   0  0  0  0  0  0  0  0  0  0  0  0
  140.9748   77.5629  215.9278 H   0  0  0  0  0  0  0  0  0  0  0  0
  140.7181   79.5631  217.0661 H   0  0  0  0  0  0  0  0  0  0  0  0
  139.8041   78.1857  217.8940 H   0  0  0  0  0  0  0  0  0  0  0  0
  142.4581   78.9851  218.9009 H   0  0  0  0  0  0  0  0  0  0  0  0
  140.9735   80.0044  219.2443 H   0  0  0  0  0  0  0  0  0  0  0  0
  139.8673   78.0310  220.2119 H   0  0  0  0  0  0  0  0  0  0  0  0
  140.3749   77.1582  222.6453 H   0  0  0  0  0  0  0  0  0  0  0  0
  141.0702   78.1308  224.8017 H   0  0  0  0  0  0  0  0  0  0  0  0
  142.4837   80.1786  224.8822 H   0  0  0  0  0  0  0  0  0  0  0  0
  143.1703   81.2164  222.7273 H   0  0  0  0  0  0  0  0  0  0  0  0
  142.4835   80.2521  220.5890 H   0  0  0  0  0  0  0  0  0  0  0  0
  138.6846   70.6716  221.8586 H   0  0  0  0  0  0  0  0  0  0  0  0
  138.4707   69.0591  223.7187 H   0  0  0  0  0  0  0  0  0  0  0  0
  139.0471   68.4385  226.0235 H   0  0  0  0  0  0  0  0  0  0  0  0
  141.6044   71.0485  228.3399 H   0  0  0  0  0  0  0  0  0  0  0  0
  141.7380   72.5847  226.4042 H   0  0  0  0  0  0  0  0  0  0  0  0
  1  2  2  0
  2  3  1  0
  3  4  1  0
  4  5  1  0
  5  6  2  0
  5  7  1  0
  7  8  1  0
  8  9  1  0
  9 10  1  0
 10 11  1  0
 11 12  1  0
 12 13  1  0
 13 14  1  0
 14 15  2  0
 15 16  1  0
 16 17  2  0
 17 18  1  0
 18 19  2  0
  2 20  1  0
 20 21  2  0
 21 22  1  0
 22 23  2  0
 23 24  1  0
 24 25  2  0
 25 26  1  0
 25 27  1  0
 27 28  2  0
 28 29  1  0
 29 30  2  0
 13  7  1  0
 19 14  1  0
 30 20  1  0
 29 23  1  0
  3 31  1  0
  4 32  1  0
  4 33  1  0
  8 34  1  0
  8 35  1  0
  9 36  1  0
  9 37  1  0
 10 38  1  0
 10 39  1  0
 11 40  1  0
 11 41  1  0
 12 42  1  0
 12 43  1  0
 13 44  1  1
 15 45  1  0
 16 46  1  0
 17 47  1  0
 18 48  1  0
 19 49  1  0
 21 50  1  0
 22 51  1  0
 24 52  1  0
 27 53  1  0
 28 54  1  0
M  END
>  <smiles>  (28) 
O=C(NCC(=O)N1CCCCCC1c1ccccc1)c1ccc2cc(Cl)ccc2n1

>  <score_type>  (28) 
oracle

>  <origin>  (28) 
autodockgpu

>  <m_score__min__energy>  (28) 
-6.9699999999999998

>  <m_primary>  (28) 
energy

>  <rmsd>  (28) 
2.055612415295871

>  <m_score__min__rmsd>  (28) 
2.055612415295871

>  <meeko>  (28) 
{"free_energy": -6.7, "intermolecular_energy": -9.98, "internal_energy": -1.48, "cluster_size": 15, "cluster_id": 1, "rank_in_cluster": 4}

>  <energy>  (28) 
-5.27

>  <cluster_rmsd>  (28) 
1.73

>  <cluster>  (28) 
4

$$$$

     RDKit          3D

 54 57  0  0  0  0  0  0  0  0999 V2000
  139.0610   72.2320  220.6100 O   0  0  0  0  0  0  0  0  0  0  0  0
  139.8050   72.5590  221.5920 C   0  0  0  0  0  0  0  0  0  0  0  0
  140.5890   73.7560  221.5700 N   0  0  0  0  0  0  0  0  0  0  0  0
  140.5040   74.6040  220.3660 C   0  0  0  0  0  0  0  0  0  0  0  0
  141.4340   75.7400  220.5400 C   0  0  0  0  0  0  0  0  0  0  0  0
  142.6960   75.6170  220.5020 O   0  0  0  0  0  0  0  0  0  0  0  0
  140.9800   77.0970  220.7700 N   0  0  0  0  0  0  0  0  0  0  0  0
  140.8600   77.8140  219.5160 C   0  0  0  0  0  0  0  0  0  0  0  0
  139.4500   77.9000  219.0430 C   0  0  0  0  0  0  0  0  0  0  0  0
  138.4940   77.3040  220.0150 C   0  0  0  0  0  0  0  0  0  0  0  0
  138.4160   77.9370  221.3480 C   0  0  0  0  0  0  0  0  0  0  0  0
  139.2630   77.3370  222.4150 C   0  0  0  0  0  0  0  0  0  0  0  0
  140.7470   77.4210  222.1520 C   0  0  2  0  0  0  0  0  0  0  0  0
  141.3240   78.6940  222.6210 C   0  0  0  0  0  0  0  0  0  0  0  0
  142.0580   78.8380  223.7780 C   0  0  0  0  0  0  0  0  0  0  0  0
  142.5680   80.0680  224.1910 C   0  0  0  0  0  0  0  0  0  0  0  0
  142.3600   81.2110  223.4510 C   0  0  0  0  0  0  0  0  0  0  0  0
  141.6290   81.0840  222.2900 C   0  0  0  0  0  0  0  0  0  0  0  0
  141.1280   79.8680  221.8880 C   0  0  0  0  0  0  0  0  0  0  0  0
  139.8600   71.6940  222.7630 C   0  0  0  0  0  0  0  0  0  0  0  0
  139.2980   70.4390  222.7290 C   0  0  0  0  0  0  0  0  0  0  0  0
  139.3180   69.5750  223.8080 C   0  0  0  0  0  0  0  0  0  0  0  0
  139.9320   69.9960  224.9730 C   0  0  0  0  0  0  0  0  0  0  0  0
  139.9870   69.1740  226.0960 C   0  0  0  0  0  0  0  0  0  0  0  0
  140.6100   69.6210  227.2540 C   0  0  0  0  0  0  0  0  0  0  0  0
  140.7020   68.6130  228.6990 Cl  0  0  0  0  0  0  0  0  0  0  0  0
  141.1840   70.8950  227.2990 C   0  0  0  0  0  0  0  0  0  0  0  0
  141.1150   71.6900  226.1720 C   0  0  0  0  0  0  0  0  0  0  0  0
  140.5000   71.2660  225.0030 C   0  0  0  0  0  0  0  0  0  0  0  0
  140.4520   72.0830  223.9080 N   0  0  0  0  0  0  0  0  0  0  0  0
  141.1930   74.0120  222.3810 H   0  0  0  0  0  0  0  0  0  0  0  0
  140.7892   74.0209  219.4779 H   0  0  0  0  0  0  0  0  0  0  0  0
  139.4758   74.9699  220.2284 H   0  0  0  0  0  0  0  0  0  0  0  0
  141.2491   78.8336  219.6536 H   0  0  0  0  0  0  0  0  0  0  0  0
  141.4347   77.2618  218.7579 H   0  0  0  0  0  0  0  0  0  0  0  0
  139.1902   78.9585  218.8941 H   0  0  0  0  0  0  0  0  0  0  0  0
  139.3737   77.3332  218.1034 H   0  0  0  0  0  0  0  0  0  0  0  0
  137.4910   77.3500  219.5658 H   0  0  0  0  0  0  0  0  0  0  0  0
  138.8701   76.2872  220.2013 H   0  0  0  0  0  0  0  0  0  0  0  0
  138.7137   78.9901  221.2366 H   0  0  0  0  0  0  0  0  0  0  0  0
  137.3780   77.7906  221.6813 H   0  0  0  0  0  0  0  0  0  0  0  0
  139.0504   77.8607  223.3587 H   0  0  0  0  0  0  0  0  0  0  0  0
  139.0103   76.2671  222.4529 H   0  0  0  0  0  0  0  0  0  0  0  0
  141.2952   76.6778  222.7495 H   0  0  0  0  0  0  0  0  0  0  0  0
  142.2486   77.9500  224.3986 H   0  0  0  0  0  0  0  0  0  0  0  0
  143.1469   80.1268  225.1245 H   0  0  0  0  0  0  0  0  0  0  0  0
  142.7604   82.1836  223.7732 H   0  0  0  0  0  0  0  0  0  0  0  0
  141.4421   81.9742  221.6715 H   0  0  0  0  0  0  0  0  0  0  0  0
  140.5505   79.8172  220.9532 H   0  0  0  0  0  0  0  0  0  0  0  0
  138.8102   70.1076  221.8005 H   0  0  0  0  0  0  0  0  0  0  0  0
  138.8573   68.5783  223.7414 H   0  0  0  0  0  0  0  0  0  0  0  0
  139.5370   68.1707  226.0658 H   0  0  0  0  0  0  0  0  0  0  0  0
  141.6797   71.2562  228.2121 H   0  0  0  0  0  0  0  0  0  0  0  0
  141.5631   72.6941  226.2022 H   0  0  0  0  0  0  0  0  0  0  0  0
  1  2  2  0
  2  3  1  0
  3  4  1  0
  4  5  1  0
  5  6  2  0
  5  7  1  0
  7  8  1  0
  8  9  1  0
  9 10  1  0
 10 11  1  0
 11 12  1  0
 12 13  1  0
 13 14  1  0
 14 15  2  0
 15 16  1  0
 16 17  2  0
 17 18  1  0
 18 19  2  0
  2 20  1  0
 20 21  2  0
 21 22  1  0
 22 23  2  0
 23 24  1  0
 24 25  2  0
 25 26  1  0
 25 27  1  0
 27 28  2  0
 28 29  1  0
 29 30  2  0
 13  7  1  0
 19 14  1  0
 30 20  1  0
 29 23  1  0
  3 31  1  0
  4 32  1  0
  4 33  1  0
  8 34  1  0
  8 35  1  0
  9 36  1  0
  9 37  1  0
 10 38  1  0
 10 39  1  0
 11 40  1  0
 11 41  1  0
 12 42  1  0
 12 43  1  0
 13 44  1  1
 15 45  1  0
 16 46  1  0
 17 47  1  0
 18 48  1  0
 19 49  1  0
 21 50  1  0
 22 51  1  0
 24 52  1  0
 27 53  1  0
 28 54  1  0
M  END
>  <smiles>  (29) 
O=C(NCC(=O)N1CCCCCC1c1ccccc1)c1ccc2cc(Cl)ccc2n1

>  <score_type>  (29) 
oracle

>  <origin>  (29) 
autodockgpu

>  <m_score__min__energy>  (29) 
-6.9699999999999998

>  <m_primary>  (29) 
energy

>  <rmsd>  (29) 
2.6427392914243537

>  <m_score__min__rmsd>  (29) 
2.6427392914243537

>  <meeko>  (29) 
{"free_energy": -5.97, "intermolecular_energy": -9.25, "internal_energy": -1.81, "cluster_size": 15, "cluster_id": 1, "rank_in_cluster": 11}

>  <energy>  (29) 
-5.93

>  <cluster_rmsd>  (29) 
0.0

>  <cluster>  (29) 
5

$$$$

     RDKit          3D

 54 57  0  0  0  0  0  0  0  0999 V2000
  138.4370   74.0740  219.8740 O   0  0  0  0  0  0  0  0  0  0  0  0
  138.4550   74.4980  221.0750 C   0  0  0  0  0  0  0  0  0  0  0  0
  137.6750   73.8740  222.1010 N   0  0  0  0  0  0  0  0  0  0  0  0
  136.8470   72.7160  221.7160 C   0  0  0  0  0  0  0  0  0  0  0  0
  137.6180   71.4870  222.0020 C   0  0  0  0  0  0  0  0  0  0  0  0
  137.1440   70.5050  222.6520 O   0  0  0  0  0  0  0  0  0  0  0  0
  138.9860   71.2990  221.5630 N   0  0  0  0  0  0  0  0  0  0  0  0
  139.0210   70.6560  220.2640 C   0  0  0  0  0  0  0  0  0  0  0  0
  139.5420   71.5580  219.1980 C   0  0  0  0  0  0  0  0  0  0  0  0
  141.0060   71.7930  219.3280 C   0  0  0  0  0  0  0  0  0  0  0  0
  141.4670   72.4590  220.5640 C   0  0  0  0  0  0  0  0  0  0  0  0
  141.3320   71.6750  221.8240 C   0  0  0  0  0  0  0  0  0  0  0  0
  139.9780   71.7860  222.4830 C   0  0  2  0  0  0  0  0  0  0  0  0
  139.9620   71.1800  223.8270 C   0  0  0  0  0  0  0  0  0  0  0  0
  140.3720   71.8210  224.9760 C   0  0  0  0  0  0  0  0  0  0  0  0
  140.3560   71.1980  226.2240 C   0  0  0  0  0  0  0  0  0  0  0  0
  139.9230   69.8980  226.3670 C   0  0  0  0  0  0  0  0  0  0  0  0
  139.5100   69.2440  225.2280 C   0  0  0  0  0  0  0  0  0  0  0  0
  139.5280   69.8630  223.9990 C   0  0  0  0  0  0  0  0  0  0  0  0
  139.2880   75.6450  221.4130 C   0  0  0  0  0  0  0  0  0  0  0  0
  140.5510   75.7690  220.8850 C   0  0  0  0  0  0  0  0  0  0  0  0
  141.3860   76.8330  221.1690 C   0  0  0  0  0  0  0  0  0  0  0  0
  140.9250   77.8160  222.0250 C   0  0  0  0  0  0  0  0  0  0  0  0
  141.7170   78.9140  222.3530 C   0  0  0  0  0  0  0  0  0  0  0  0
  141.2310   79.8890  223.2150 C   0  0  0  0  0  0  0  0  0  0  0  0
  142.1990   81.2950  223.6570 Cl  0  0  0  0  0  0  0  0  0  0  0  0
  139.9480   79.7720  223.7590 C   0  0  0  0  0  0  0  0  0  0  0  0
  139.1840   78.6730  223.4170 C   0  0  0  0  0  0  0  0  0  0  0  0
  139.6470   77.6870  222.5580 C   0  0  0  0  0  0  0  0  0  0  0  0
  138.8600   76.6150  222.2450 N   0  0  0  0  0  0  0  0  0  0  0  0
  137.7000   74.2310  223.0800 H   0  0  0  0  0  0  0  0  0  0  0  0
  135.9135   72.7148  222.2978 H   0  0  0  0  0  0  0  0  0  0  0  0
  136.5924   72.7671  220.6471 H   0  0  0  0  0  0  0  0  0  0  0  0
  139.6701   69.7700  220.3256 H   0  0  0  0  0  0  0  0  0  0  0  0
  137.9896   70.3819  219.9973 H   0  0  0  0  0  0  0  0  0  0  0  0
  139.3421   71.1007  218.2177 H   0  0  0  0  0  0  0  0  0  0  0  0
  139.0335   72.5283  219.2976 H   0  0  0  0  0  0  0  0  0  0  0  0
  141.5064   70.8151  219.2705 H   0  0  0  0  0  0  0  0  0  0  0  0
  141.2590   72.4890  218.5146 H   0  0  0  0  0  0  0  0  0  0  0  0
  142.5311   72.7062  220.4350 H   0  0  0  0  0  0  0  0  0  0  0  0
  140.8108   73.3328  220.6896 H   0  0  0  0  0  0  0  0  0  0  0  0
  141.5164   70.6157  221.5920 H   0  0  0  0  0  0  0  0  0  0  0  0
  142.0626   72.0908  222.5335 H   0  0  0  0  0  0  0  0  0  0  0  0
  139.7279   72.8364  222.6931 H   0  0  0  0  0  0  0  0  0  0  0  0
  140.7243   72.8607  224.9065 H   0  0  0  0  0  0  0  0  0  0  0  0
  140.6953   71.7548  227.1099 H   0  0  0  0  0  0  0  0  0  0  0  0
  139.9079   69.4035  227.3495 H   0  0  0  0  0  0  0  0  0  0  0  0
  139.1581   68.2044  225.3019 H   0  0  0  0  0  0  0  0  0  0  0  0
  139.1876   69.2992  223.1180 H   0  0  0  0  0  0  0  0  0  0  0  0
  140.9141   74.9847  220.2046 H   0  0  0  0  0  0  0  0  0  0  0  0
  142.3908   76.8961  220.7258 H   0  0  0  0  0  0  0  0  0  0  0  0
  142.7277   79.0091  221.9293 H   0  0  0  0  0  0  0  0  0  0  0  0
  139.5558   80.5381  224.4441 H   0  0  0  0  0  0  0  0  0  0  0  0
  138.1734   78.5764  223.8406 H   0  0  0  0  0  0  0  0  0  0  0  0
  1  2  2  0
  2  3  1  0
  3  4  1  0
  4  5  1  0
  5  6  2  0
  5  7  1  0
  7  8  1  0
  8  9  1  0
  9 10  1  0
 10 11  1  0
 11 12  1  0
 12 13  1  0
 13 14  1  0
 14 15  2  0
 15 16  1  0
 16 17  2  0
 17 18  1  0
 18 19  2  0
  2 20  1  0
 20 21  2  0
 21 22  1  0
 22 23  2  0
 23 24  1  0
 24 25  2  0
 25 26  1  0
 25 27  1  0
 27 28  2  0
 28 29  1  0
 29 30  2  0
 13  7  1  0
 19 14  1  0
 30 20  1  0
 29 23  1  0
  3 31  1  0
  4 32  1  0
  4 33  1  0
  8 34  1  0
  8 35  1  0
  9 36  1  0
  9 37  1  0
 10 38  1  0
 10 39  1  0
 11 40  1  0
 11 41  1  0
 12 42  1  0
 12 43  1  0
 13 44  1  1
 15 45  1  0
 16 46  1  0
 17 47  1  0
 18 48  1  0
 19 49  1  0
 21 50  1  0
 22 51  1  0
 24 52  1  0
 27 53  1  0
 28 54  1  0
M  END
>  <smiles>  (30) 
O=C(NCC(=O)N1CCCCCC1c1ccccc1)c1ccc2cc(Cl)ccc2n1

>  <score_type>  (30) 
oracle

>  <origin>  (30) 
autodockgpu

>  <m_score__min__energy>  (30) 
-6.9699999999999998

>  <m_primary>  (30) 
energy

>  <rmsd>  (30) 
6.930104732011773

>  <m_score__min__rmsd>  (30) 
6.930104732011773

>  <meeko>  (30) 
{"free_energy": -5.0, "intermolecular_energy": -8.28, "internal_energy": -2.34, "cluster_size": 1, "cluster_id": 13, "rank_in_cluster": 1}

>  <energy>  (30) 
-5.54

>  <cluster_rmsd>  (30) 
1.66

>  <cluster>  (30) 
5

$$$$

     RDKit          3D

 54 57  0  0  0  0  0  0  0  0999 V2000
  140.0770   72.1910  220.7070 O   0  0  0  0  0  0  0  0  0  0  0  0
  139.9080   72.6050  221.9000 C   0  0  0  0  0  0  0  0  0  0  0  0
  139.6760   73.9880  222.1870 N   0  0  0  0  0  0  0  0  0  0  0  0
  139.6380   74.9220  221.0460 C   0  0  0  0  0  0  0  0  0  0  0  0
  140.7020   75.9290  221.2440 C   0  0  0  0  0  0  0  0  0  0  0  0
  141.4080   75.9960  222.2970 O   0  0  0  0  0  0  0  0  0  0  0  0
  141.0320   76.9280  220.2470 N   0  0  0  0  0  0  0  0  0  0  0  0
  141.8000   76.3390  219.1690 C   0  0  0  0  0  0  0  0  0  0  0  0
  142.9740   77.1730  218.7850 C   0  0  0  0  0  0  0  0  0  0  0  0
  142.5780   78.3730  218.0000 C   0  0  0  0  0  0  0  0  0  0  0  0
  141.8320   79.4260  218.7210 C   0  0  0  0  0  0  0  0  0  0  0  0
  140.4920   79.0320  219.2490 C   0  0  0  0  0  0  0  0  0  0  0  0
  140.5300   78.2440  220.5360 C   0  0  2  0  0  0  0  0  0  0  0  0
  141.2230   78.9740  221.6150 C   0  0  0  0  0  0  0  0  0  0  0  0
  141.2520   78.5750  222.9330 C   0  0  0  0  0  0  0  0  0  0  0  0
  141.9060   79.3110  223.9220 C   0  0  0  0  0  0  0  0  0  0  0  0
  142.5610   80.4850  223.6220 C   0  0  0  0  0  0  0  0  0  0  0  0
  142.5410   80.8980  222.3080 C   0  0  0  0  0  0  0  0  0  0  0  0
  141.8950   80.1690  221.3360 C   0  0  0  0  0  0  0  0  0  0  0  0
  139.9530   71.6480  222.9990 C   0  0  0  0  0  0  0  0  0  0  0  0
  139.4840   70.3670  222.8270 C   0  0  0  0  0  0  0  0  0  0  0  0
  139.5010   69.4180  223.8310 C   0  0  0  0  0  0  0  0  0  0  0  0
  140.0120   69.7780  225.0640 C   0  0  0  0  0  0  0  0  0  0  0  0
  140.0560   68.8680  226.1180 C   0  0  0  0  0  0  0  0  0  0  0  0
  140.5750   69.2540  227.3470 C   0  0  0  0  0  0  0  0  0  0  0  0
  140.6510   68.1360  228.7090 Cl  0  0  0  0  0  0  0  0  0  0  0  0
  141.0530   70.5550  227.5340 C   0  0  0  0  0  0  0  0  0  0  0  0
  140.9970   71.4360  226.4720 C   0  0  0  0  0  0  0  0  0  0  0  0
  140.4850   71.0750  225.2340 C   0  0  0  0  0  0  0  0  0  0  0  0
  140.4460   71.9760  224.2090 N   0  0  0  0  0  0  0  0  0  0  0  0
  139.5380   74.3130  223.1680 H   0  0  0  0  0  0  0  0  0  0  0  0
  139.8129   74.3735  220.1087 H   0  0  0  0  0  0  0  0  0  0  0  0
  138.6549   75.4118  220.9858 H   0  0  0  0  0  0  0  0  0  0  0  0
  142.1593   75.3503  219.4907 H   0  0  0  0  0  0  0  0  0  0  0  0
  141.1415   76.2631  218.2911 H   0  0  0  0  0  0  0  0  0  0  0  0
  143.4891   77.5021  219.6995 H   0  0  0  0  0  0  0  0  0  0  0  0
  143.6327   76.5586  218.1536 H   0  0  0  0  0  0  0  0  0  0  0  0
  143.4970   78.8290  217.6032 H   0  0  0  0  0  0  0  0  0  0  0  0
  141.8809   77.9991  217.2356 H   0  0  0  0  0  0  0  0  0  0  0  0
  142.4472   79.7515  219.5728 H   0  0  0  0  0  0  0  0  0  0  0  0
  141.6389   80.2146  217.9788 H   0  0  0  0  0  0  0  0  0  0  0  0
  139.9097   79.9485  219.4250 H   0  0  0  0  0  0  0  0  0  0  0  0
  140.0410   78.3724  218.4931 H   0  0  0  0  0  0  0  0  0  0  0  0
  139.5179   78.1146  220.9471 H   0  0  0  0  0  0  0  0  0  0  0  0
  140.7413   77.6428  223.2162 H   0  0  0  0  0  0  0  0  0  0  0  0
  141.8983   78.9470  224.9600 H   0  0  0  0  0  0  0  0  0  0  0  0
  143.0780   81.0679  224.3985 H   0  0  0  0  0  0  0  0  0  0  0  0
  143.0527   81.8311  222.0296 H   0  0  0  0  0  0  0  0  0  0  0  0
  141.9074   80.5398  220.3005 H   0  0  0  0  0  0  0  0  0  0  0  0
  139.0765   70.0848  221.8450 H   0  0  0  0  0  0  0  0  0  0  0  0
  139.1178   68.4022  223.6538 H   0  0  0  0  0  0  0  0  0  0  0  0
  139.6798   67.8440  225.9768 H   0  0  0  0  0  0  0  0  0  0  0  0
  141.4641   70.8693  228.5047 H   0  0  0  0  0  0  0  0  0  0  0  0
  141.3717   72.4606  226.6126 H   0  0  0  0  0  0  0  0  0  0  0  0
  1  2  2  0
  2  3  1  0
  3  4  1  0
  4  5  1  0
  5  6  2  0
  5  7  1  0
  7  8  1  0
  8  9  1  0
  9 10  1  0
 10 11  1  0
 11 12  1  0
 12 13  1  0
 13 14  1  0
 14 15  2  0
 15 16  1  0
 16 17  2  0
 17 18  1  0
 18 19  2  0
  2 20  1  0
 20 21  2  0
 21 22  1  0
 22 23  2  0
 23 24  1  0
 24 25  2  0
 25 26  1  0
 25 27  1  0
 27 28  2  0
 28 29  1  0
 29 30  2  0
 13  7  1  0
 19 14  1  0
 30 20  1  0
 29 23  1  0
  3 31  1  0
  4 32  1  0
  4 33  1  0
  8 34  1  0
  8 35  1  0
  9 36  1  0
  9 37  1  0
 10 38  1  0
 10 39  1  0
 11 40  1  0
 11 41  1  0
 12 42  1  0
 12 43  1  0
 13 44  1  1
 15 45  1  0
 16 46  1  0
 17 47  1  0
 18 48  1  0
 19 49  1  0
 21 50  1  0
 22 51  1  0
 24 52  1  0
 27 53  1  0
 28 54  1  0
M  END
>  <smiles>  (31) 
O=C(NCC(=O)N1CCCCCC1c1ccccc1)c1ccc2cc(Cl)ccc2n1

>  <score_type>  (31) 
oracle

>  <origin>  (31) 
autodockgpu

>  <m_score__min__energy>  (31) 
-6.9699999999999998

>  <m_primary>  (31) 
energy

>  <rmsd>  (31) 
2.0021416197368493

>  <m_score__min__rmsd>  (31) 
2.0021416197368493

>  <meeko>  (31) 
{"free_energy": -6.57, "intermolecular_energy": -9.85, "internal_energy": -1.03, "cluster_size": 15, "cluster_id": 1, "rank_in_cluster": 6}

>  <energy>  (31) 
-5.8

>  <cluster_rmsd>  (31) 
0.0

>  <cluster>  (31) 
6

$$$$

     RDKit          3D

 54 57  0  0  0  0  0  0  0  0999 V2000
  139.7120   73.7340  222.3310 O   0  0  0  0  0  0  0  0  0  0  0  0
  139.6030   72.4840  222.1070 C   0  0  0  0  0  0  0  0  0  0  0  0
  139.3760   71.9770  220.7880 N   0  0  0  0  0  0  0  0  0  0  0  0
  139.2710   72.9580  219.6910 C   0  0  0  0  0  0  0  0  0  0  0  0
  140.6420   73.3300  219.2790 C   0  0  0  0  0  0  0  0  0  0  0  0
  141.1850   72.9070  218.2120 O   0  0  0  0  0  0  0  0  0  0  0  0
  141.4840   74.2130  220.0610 N   0  0  0  0  0  0  0  0  0  0  0  0
  142.4470   73.4510  220.8290 C   0  0  0  0  0  0  0  0  0  0  0  0
  143.7910   73.4210  220.1860 C   0  0  0  0  0  0  0  0  0  0  0  0
  144.4060   74.7740  220.1060 C   0  0  0  0  0  0  0  0  0  0  0  0
  143.6480   75.8090  219.3730 C   0  0  0  0  0  0  0  0  0  0  0  0
  142.4710   76.3890  220.0820 C   0  0  0  0  0  0  0  0  0  0  0  0
  141.1910   75.6120  219.8980 C   0  0  2  0  0  0  0  0  0  0  0  0
  140.0940   76.1400  220.7300 C   0  0  0  0  0  0  0  0  0  0  0  0
  140.2650   76.7370  221.9600 C   0  0  0  0  0  0  0  0  0  0  0  0
  139.1930   77.2050  222.7190 C   0  0  0  0  0  0  0  0  0  0  0  0
  137.8970   77.0920  222.2680 C   0  0  0  0  0  0  0  0  0  0  0  0
  137.7080   76.4980  221.0390 C   0  0  0  0  0  0  0  0  0  0  0  0
  138.7690   76.0380  220.2940 C   0  0  0  0  0  0  0  0  0  0  0  0
  139.7130   71.5490  223.2190 C   0  0  0  0  0  0  0  0  0  0  0  0
  139.1840   70.2830  223.1220 C   0  0  0  0  0  0  0  0  0  0  0  0
  139.2570   69.3560  224.1430 C   0  0  0  0  0  0  0  0  0  0  0  0
  139.8930   69.7200  225.3150 C   0  0  0  0  0  0  0  0  0  0  0  0
  140.0010   68.8320  226.3830 C   0  0  0  0  0  0  0  0  0  0  0  0
  140.6440   69.2220  227.5500 C   0  0  0  0  0  0  0  0  0  0  0  0
  140.8030   68.1300  228.9260 Cl  0  0  0  0  0  0  0  0  0  0  0  0
  141.1860   70.5070  227.6600 C   0  0  0  0  0  0  0  0  0  0  0  0
  141.0640   71.3680  226.5870 C   0  0  0  0  0  0  0  0  0  0  0  0
  140.4270   71.0010  225.4100 C   0  0  0  0  0  0  0  0  0  0  0  0
  140.3280   71.8820  224.3710 N   0  0  0  0  0  0  0  0  0  0  0  0
  139.2900   70.9520  220.6190 H   0  0  0  0  0  0  0  0  0  0  0  0
  138.7337   72.5118  218.8411 H   0  0  0  0  0  0  0  0  0  0  0  0
  138.7173   73.8478  220.0252 H   0  0  0  0  0  0  0  0  0  0  0  0
  142.5426   73.9055  221.8261 H   0  0  0  0  0  0  0  0  0  0  0  0
  142.0820   72.4152  220.8912 H   0  0  0  0  0  0  0  0  0  0  0  0
  144.4507   72.7662  220.7743 H   0  0  0  0  0  0  0  0  0  0  0  0
  143.6662   73.0455  219.1597 H   0  0  0  0  0  0  0  0  0  0  0  0
  144.5516   75.1346  221.1350 H   0  0  0  0  0  0  0  0  0  0  0  0
  145.3329   74.6348  219.5303 H   0  0  0  0  0  0  0  0  0  0  0  0
  144.3403   76.6322  219.1429 H   0  0  0  0  0  0  0  0  0  0  0  0
  143.2376   75.3016  218.4875 H   0  0  0  0  0  0  0  0  0  0  0  0
  142.7002   76.4258  221.1572 H   0  0  0  0  0  0  0  0  0  0  0  0
  142.3004   77.3849  219.6471 H   0  0  0  0  0  0  0  0  0  0  0  0
  140.7980   75.7387  218.8784 H   0  0  0  0  0  0  0  0  0  0  0  0
  141.2845   76.8485  222.3577 H   0  0  0  0  0  0  0  0  0  0  0  0
  139.3862   77.6729  223.6956 H   0  0  0  0  0  0  0  0  0  0  0  0
  137.0485   77.4602  222.8634 H   0  0  0  0  0  0  0  0  0  0  0  0
  136.6867   76.3893  220.6452 H   0  0  0  0  0  0  0  0  0  0  0  0
  138.5676   75.5721  219.3181 H   0  0  0  0  0  0  0  0  0  0  0  0
  138.6794   69.9956  222.1878 H   0  0  0  0  0  0  0  0  0  0  0  0
  138.8200   68.3533  224.0265 H   0  0  0  0  0  0  0  0  0  0  0  0
  139.5763   67.8206  226.3015 H   0  0  0  0  0  0  0  0  0  0  0  0
  141.6979   70.8245  228.5804 H   0  0  0  0  0  0  0  0  0  0  0  0
  141.4866   72.3803  226.6682 H   0  0  0  0  0  0  0  0  0  0  0  0
  1  2  2  0
  2  3  1  0
  3  4  1  0
  4  5  1  0
  5  6  2  0
  5  7  1  0
  7  8  1  0
  8  9  1  0
  9 10  1  0
 10 11  1  0
 11 12  1  0
 12 13  1  0
 13 14  1  0
 14 15  2  0
 15 16  1  0
 16 17  2  0
 17 18  1  0
 18 19  2  0
  2 20  1  0
 20 21  2  0
 21 22  1  0
 22 23  2  0
 23 24  1  0
 24 25  2  0
 25 26  1  0
 25 27  1  0
 27 28  2  0
 28 29  1  0
 29 30  2  0
 13  7  1  0
 19 14  1  0
 30 20  1  0
 29 23  1  0
  3 31  1  0
  4 32  1  0
  4 33  1  0
  8 34  1  0
  8 35  1  0
  9 36  1  0
  9 37  1  0
 10 38  1  0
 10 39  1  0
 11 40  1  0
 11 41  1  0
 12 42  1  0
 12 43  1  0
 13 44  1  6
 15 45  1  0
 16 46  1  0
 17 47  1  0
 18 48  1  0
 19 49  1  0
 21 50  1  0
 22 51  1  0
 24 52  1  0
 27 53  1  0
 28 54  1  0
M  END
>  <smiles>  (32) 
O=C(NCC(=O)N1CCCCCC1c1ccccc1)c1ccc2cc(Cl)ccc2n1

>  <score_type>  (32) 
oracle

>  <origin>  (32) 
autodockgpu

>  <m_score__min__energy>  (32) 
-6.9699999999999998

>  <m_primary>  (32) 
energy

>  <rmsd>  (32) 
2.6620263898153333

>  <m_score__min__rmsd>  (32) 
2.6620263898153333

>  <meeko>  (32) 
{"free_energy": -5.54, "intermolecular_energy": -8.82, "internal_energy": -2.05, "cluster_size": 2, "cluster_id": 5, "rank_in_cluster": 2}

>  <energy>  (32) 
-5.75

>  <cluster_rmsd>  (32) 
0.0

>  <cluster>  (32) 
7

$$$$

     RDKit          3D

 54 57  0  0  0  0  0  0  0  0999 V2000
  142.8440   78.6140  218.5590 O   0  0  0  0  0  0  0  0  0  0  0  0
  142.1450   77.5510  218.6230 C   0  0  0  0  0  0  0  0  0  0  0  0
  140.7300   77.5970  218.8310 N   0  0  0  0  0  0  0  0  0  0  0  0
  140.1040   78.9260  218.9670 C   0  0  0  0  0  0  0  0  0  0  0  0
  139.6820   79.0900  220.3740 C   0  0  0  0  0  0  0  0  0  0  0  0
  138.4660   79.1040  220.7380 O   0  0  0  0  0  0  0  0  0  0  0  0
  140.6260   79.2490  221.4630 N   0  0  0  0  0  0  0  0  0  0  0  0
  141.5770   80.3010  221.1640 C   0  0  0  0  0  0  0  0  0  0  0  0
  141.6580   81.3190  222.2490 C   0  0  0  0  0  0  0  0  0  0  0  0
  142.4000   80.8170  223.4370 C   0  0  0  0  0  0  0  0  0  0  0  0
  141.7730   79.7170  224.1990 C   0  0  0  0  0  0  0  0  0  0  0  0
  141.6170   78.4220  223.4750 C   0  0  0  0  0  0  0  0  0  0  0  0
  140.4090   78.3600  222.5720 C   0  0  2  0  0  0  0  0  0  0  0  0
  140.0460   76.9730  222.2240 C   0  0  0  0  0  0  0  0  0  0  0  0
  138.7730   76.4530  222.3170 C   0  0  0  0  0  0  0  0  0  0  0  0
  138.4830   75.1280  221.9930 C   0  0  0  0  0  0  0  0  0  0  0  0
  139.4670   74.2670  221.5600 C   0  0  0  0  0  0  0  0  0  0  0  0
  140.7450   74.7720  221.4610 C   0  0  0  0  0  0  0  0  0  0  0  0
  141.0260   76.0800  221.7820 C   0  0  0  0  0  0  0  0  0  0  0  0
  142.8020   76.2580  218.4830 C   0  0  0  0  0  0  0  0  0  0  0  0
  143.1630   75.7910  217.2400 C   0  0  0  0  0  0  0  0  0  0  0  0
  143.7880   74.5740  217.0460 C   0  0  0  0  0  0  0  0  0  0  0  0
  144.0600   73.7920  218.1540 C   0  0  0  0  0  0  0  0  0  0  0  0
  144.6870   72.5550  218.0260 C   0  0  0  0  0  0  0  0  0  0  0  0
  144.9490   71.7890  219.1550 C   0  0  0  0  0  0  0  0  0  0  0  0
  145.7410   70.2170  219.0390 Cl  0  0  0  0  0  0  0  0  0  0  0  0
  144.5850   72.2540  220.4220 C   0  0  0  0  0  0  0  0  0  0  0  0
  143.9650   73.4840  220.5200 C   0  0  0  0  0  0  0  0  0  0  0  0
  143.6930   74.2680  219.4090 C   0  0  0  0  0  0  0  0  0  0  0  0
  143.0770   75.4790  219.5470 N   0  0  0  0  0  0  0  0  0  0  0  0
  140.1700   76.7180  218.8800 H   0  0  0  0  0  0  0  0  0  0  0  0
  140.8291   79.7092  218.7010 H   0  0  0  0  0  0  0  0  0  0  0  0
  139.2368   79.0106  218.2955 H   0  0  0  0  0  0  0  0  0  0  0  0
  142.5711   79.8502  221.0277 H   0  0  0  0  0  0  0  0  0  0  0  0
  141.2368   80.8109  220.2506 H   0  0  0  0  0  0  0  0  0  0  0  0
  142.1726   82.2103  221.8607 H   0  0  0  0  0  0  0  0  0  0  0  0
  140.6319   81.5556  222.5671 H   0  0  0  0  0  0  0  0  0  0  0  0
  143.3826   80.4640  223.0908 H   0  0  0  0  0  0  0  0  0  0  0  0
  142.4347   81.6668  224.1346 H   0  0  0  0  0  0  0  0  0  0  0  0
  142.3902   79.5313  225.0904 H   0  0  0  0  0  0  0  0  0  0  0  0
  140.7504   80.0566  224.4203 H   0  0  0  0  0  0  0  0  0  0  0  0
  142.5153   78.2594  222.8613 H   0  0  0  0  0  0  0  0  0  0  0  0
  141.4788   77.6456  224.2419 H   0  0  0  0  0  0  0  0  0  0  0  0
  139.5093   78.7182  223.0938 H   0  0  0  0  0  0  0  0  0  0  0  0
  137.9568   77.1063  222.6589 H   0  0  0  0  0  0  0  0  0  0  0  0
  137.4492   74.7637  222.0849 H   0  0  0  0  0  0  0  0  0  0  0  0
  139.2421   73.2211  221.3042 H   0  0  0  0  0  0  0  0  0  0  0  0
  141.5581   74.1154  221.1180 H   0  0  0  0  0  0  0  0  0  0  0  0
  142.0622   76.4368  221.6871 H   0  0  0  0  0  0  0  0  0  0  0  0
  142.9441   76.4148  216.3608 H   0  0  0  0  0  0  0  0  0  0  0  0
  144.0623   74.2356  216.0359 H   0  0  0  0  0  0  0  0  0  0  0  0
  144.9747   72.1845  217.0310 H   0  0  0  0  0  0  0  0  0  0  0  0
  144.7879   71.6535  221.3210 H   0  0  0  0  0  0  0  0  0  0  0  0
  143.6767   73.8550  221.5146 H   0  0  0  0  0  0  0  0  0  0  0  0
  1  2  2  0
  2  3  1  0
  3  4  1  0
  4  5  1  0
  5  6  2  0
  5  7  1  0
  7  8  1  0
  8  9  1  0
  9 10  1  0
 10 11  1  0
 11 12  1  0
 12 13  1  0
 13 14  1  0
 14 15  2  0
 15 16  1  0
 16 17  2  0
 17 18  1  0
 18 19  2  0
  2 20  1  0
 20 21  2  0
 21 22  1  0
 22 23  2  0
 23 24  1  0
 24 25  2  0
 25 26  1  0
 25 27  1  0
 27 28  2  0
 28 29  1  0
 29 30  2  0
 13  7  1  0
 19 14  1  0
 30 20  1  0
 29 23  1  0
  3 31  1  0
  4 32  1  0
  4 33  1  0
  8 34  1  0
  8 35  1  0
  9 36  1  0
  9 37  1  0
 10 38  1  0
 10 39  1  0
 11 40  1  0
 11 41  1  0
 12 42  1  0
 12 43  1  0
 13 44  1  1
 15 45  1  0
 16 46  1  0
 17 47  1  0
 18 48  1  0
 19 49  1  0
 21 50  1  0
 22 51  1  0
 24 52  1  0
 27 53  1  0
 28 54  1  0
M  END
>  <smiles>  (33) 
O=C(NCC(=O)N1CCCCCC1c1ccccc1)c1ccc2cc(Cl)ccc2n1

>  <score_type>  (33) 
oracle

>  <origin>  (33) 
autodockgpu

>  <m_score__min__energy>  (33) 
-6.9699999999999998

>  <m_primary>  (33) 
energy

>  <rmsd>  (33) 
7.665962182700759

>  <m_score__min__rmsd>  (33) 
7.665962182700759

>  <meeko>  (33) 
{"free_energy": -4.1, "intermolecular_energy": -7.38, "internal_energy": -2.53, "cluster_size": 2, "cluster_id": 16, "rank_in_cluster": 2}

>  <energy>  (33) 
-5.73

>  <cluster_rmsd>  (33) 
1.01

>  <cluster>  (33) 
7

$$$$

     RDKit          3D

 54 57  0  0  0  0  0  0  0  0999 V2000
  138.2300   72.2440  221.5740 O   0  0  0  0  0  0  0  0  0  0  0  0
  139.2520   72.3970  222.3190 C   0  0  0  0  0  0  0  0  0  0  0  0
  140.1840   73.4620  222.1030 N   0  0  0  0  0  0  0  0  0  0  0  0
  139.9170   74.3820  220.9810 C   0  0  0  0  0  0  0  0  0  0  0  0
  140.8570   75.5180  221.0880 C   0  0  0  0  0  0  0  0  0  0  0  0
  142.1130   75.3720  221.2040 O   0  0  0  0  0  0  0  0  0  0  0  0
  140.4220   76.9000  221.0680 N   0  0  0  0  0  0  0  0  0  0  0  0
  140.4620   77.4280  219.7190 C   0  0  0  0  0  0  0  0  0  0  0  0
  139.1500   77.3050  219.0230 C   0  0  0  0  0  0  0  0  0  0  0  0
  138.0260   77.0960  219.9740 C   0  0  0  0  0  0  0  0  0  0  0  0
  137.9400   78.0240  221.1210 C   0  0  0  0  0  0  0  0  0  0  0  0
  138.5470   77.5550  222.3980 C   0  0  0  0  0  0  0  0  0  0  0  0
  140.0500   77.4250  222.3550 C   0  0  2  0  0  0  0  0  0  0  0  0
  140.7290   78.6680  222.7640 C   0  0  0  0  0  0  0  0  0  0  0  0
  140.1330   79.6830  223.4790 C   0  0  0  0  0  0  0  0  0  0  0  0
  140.8110   80.8510  223.8270 C   0  0  0  0  0  0  0  0  0  0  0  0
  142.1270   81.0450  223.4660 C   0  0  0  0  0  0  0  0  0  0  0  0
  142.7380   80.0400  222.7510 C   0  0  0  0  0  0  0  0  0  0  0  0
  142.0640   78.8900  222.4110 C   0  0  0  0  0  0  0  0  0  0  0  0
  139.4780   71.4670  223.4180 C   0  0  0  0  0  0  0  0  0  0  0  0
  139.1150   70.1460  223.2980 C   0  0  0  0  0  0  0  0  0  0  0  0
  139.3030   69.2190  224.3050 C   0  0  0  0  0  0  0  0  0  0  0  0
  139.8850   69.6430  225.4860 C   0  0  0  0  0  0  0  0  0  0  0  0
  140.1030   68.7580  226.5400 C   0  0  0  0  0  0  0  0  0  0  0  0
  140.6890   69.2090  227.7150 C   0  0  0  0  0  0  0  0  0  0  0  0
  140.9840   68.1240  229.0750 Cl  0  0  0  0  0  0  0  0  0  0  0  0
  141.0620   70.5500  227.8480 C   0  0  0  0  0  0  0  0  0  0  0  0
  140.8350   71.4060  226.7870 C   0  0  0  0  0  0  0  0  0  0  0  0
  140.2520   70.9790  225.6030 C   0  0  0  0  0  0  0  0  0  0  0  0
  140.0430   71.8570  224.5770 N   0  0  0  0  0  0  0  0  0  0  0  0
  141.0160   73.5760  222.7210 H   0  0  0  0  0  0  0  0  0  0  0  0
  140.0702   73.8595  220.0252 H   0  0  0  0  0  0  0  0  0  0  0  0
  138.8779   74.7409  221.0201 H   0  0  0  0  0  0  0  0  0  0  0  0
  140.7401   78.4913  219.7637 H   0  0  0  0  0  0  0  0  0  0  0  0
  141.1999   76.8426  219.1508 H   0  0  0  0  0  0  0  0  0  0  0  0
  138.9642   78.2268  218.4523 H   0  0  0  0  0  0  0  0  0  0  0  0
  139.1999   76.4274  218.3617 H   0  0  0  0  0  0  0  0  0  0  0  0
  137.0886   77.1830  219.4050 H   0  0  0  0  0  0  0  0  0  0  0  0
  138.2065   76.1062  220.4186 H   0  0  0  0  0  0  0  0  0  0  0  0
  138.4440   78.9587  220.8341 H   0  0  0  0  0  0  0  0  0  0  0  0
  136.8655   78.1322  221.3300 H   0  0  0  0  0  0  0  0  0  0  0  0
  138.2849   78.2729  223.1891 H   0  0  0  0  0  0  0  0  0  0  0  0
  138.1470   76.5481  222.5882 H   0  0  0  0  0  0  0  0  0  0  0  0
  140.4036   76.7040  223.1068 H   0  0  0  0  0  0  0  0  0  0  0  0
  139.0833   79.5682  223.7870 H   0  0  0  0  0  0  0  0  0  0  0  0
  140.2867   81.6305  224.3992 H   0  0  0  0  0  0  0  0  0  0  0  0
  142.6663   81.9644  223.7379 H   0  0  0  0  0  0  0  0  0  0  0  0
  143.7878   80.1590  222.4449 H   0  0  0  0  0  0  0  0  0  0  0  0
  142.5956   78.1150  221.8393 H   0  0  0  0  0  0  0  0  0  0  0  0
  138.6537   69.8121  222.3569 H   0  0  0  0  0  0  0  0  0  0  0  0
  138.9977   68.1707  224.1710 H   0  0  0  0  0  0  0  0  0  0  0  0
  139.8108   67.7021  226.4411 H   0  0  0  0  0  0  0  0  0  0  0  0
  141.5256   70.9154  228.7762 H   0  0  0  0  0  0  0  0  0  0  0  0
  141.1267   72.4621  226.8848 H   0  0  0  0  0  0  0  0  0  0  0  0
  1  2  2  0
  2  3  1  0
  3  4  1  0
  4  5  1  0
  5  6  2  0
  5  7  1  0
  7  8  1  0
  8  9  1  0
  9 10  1  0
 10 11  1  0
 11 12  1  0
 12 13  1  0
 13 14  1  0
 14 15  2  0
 15 16  1  0
 16 17  2  0
 17 18  1  0
 18 19  2  0
  2 20  1  0
 20 21  2  0
 21 22  1  0
 22 23  2  0
 23 24  1  0
 24 25  2  0
 25 26  1  0
 25 27  1  0
 27 28  2  0
 28 29  1  0
 29 30  2  0
 13  7  1  0
 19 14  1  0
 30 20  1  0
 29 23  1  0
  3 31  1  0
  4 32  1  0
  4 33  1  0
  8 34  1  0
  8 35  1  0
  9 36  1  0
  9 37  1  0
 10 38  1  0
 10 39  1  0
 11 40  1  0
 11 41  1  0
 12 42  1  0
 12 43  1  0
 13 44  1  1
 15 45  1  0
 16 46  1  0
 17 47  1  0
 18 48  1  0
 19 49  1  0
 21 50  1  0
 22 51  1  0
 24 52  1  0
 27 53  1  0
 28 54  1  0
M  END
>  <smiles>  (34) 
O=C(NCC(=O)N1CCCCCC1c1ccccc1)c1ccc2cc(Cl)ccc2n1

>  <score_type>  (34) 
oracle

>  <origin>  (34) 
autodockgpu

>  <m_score__min__energy>  (34) 
-6.9699999999999998

>  <m_primary>  (34) 
energy

>  <rmsd>  (34) 
2.47323002193556

>  <m_score__min__rmsd>  (34) 
2.47323002193556

>  <meeko>  (34) 
{"free_energy": -6.03, "intermolecular_energy": -9.31, "internal_energy": -1.87, "cluster_size": 4, "cluster_id": 2, "rank_in_cluster": 3}

>  <energy>  (34) 
-5.67

>  <cluster_rmsd>  (34) 
0.45

>  <cluster>  (34) 
7

$$$$

     RDKit          3D

 54 57  0  0  0  0  0  0  0  0999 V2000
  138.5880   72.8790  221.1960 O   0  0  0  0  0  0  0  0  0  0  0  0
  139.5870   72.8770  221.9880 C   0  0  0  0  0  0  0  0  0  0  0  0
  140.6810   73.7820  221.8120 N   0  0  0  0  0  0  0  0  0  0  0  0
  140.6130   74.7220  220.6770 C   0  0  0  0  0  0  0  0  0  0  0  0
  141.9440   75.3460  220.5200 C   0  0  0  0  0  0  0  0  0  0  0  0
  143.0230   74.7840  220.8840 O   0  0  0  0  0  0  0  0  0  0  0  0
  142.1310   76.6580  219.9330 N   0  0  0  0  0  0  0  0  0  0  0  0
  143.3290   76.6860  219.1180 C   0  0  0  0  0  0  0  0  0  0  0  0
  143.0450   76.4120  217.6810 C   0  0  0  0  0  0  0  0  0  0  0  0
  142.0200   77.3350  217.1240 C   0  0  0  0  0  0  0  0  0  0  0  0
  141.6330   78.4870  217.9650 C   0  0  0  0  0  0  0  0  0  0  0  0
  140.5850   78.2210  218.9940 C   0  0  0  0  0  0  0  0  0  0  0  0
  141.1090   77.6110  220.2720 C   0  0  2  0  0  0  0  0  0  0  0  0
  141.4880   78.6360  221.2620 C   0  0  0  0  0  0  0  0  0  0  0  0
  141.8550   79.9270  220.9480 C   0  0  0  0  0  0  0  0  0  0  0  0
  142.2240   80.8560  221.9200 C   0  0  0  0  0  0  0  0  0  0  0  0
  142.2400   80.5220  223.2570 C   0  0  0  0  0  0  0  0  0  0  0  0
  141.8760   79.2350  223.5880 C   0  0  0  0  0  0  0  0  0  0  0  0
  141.5120   78.3230  222.6240 C   0  0  0  0  0  0  0  0  0  0  0  0
  139.6140   71.9330  223.0970 C   0  0  0  0  0  0  0  0  0  0  0  0
  138.8620   70.7830  223.0530 C   0  0  0  0  0  0  0  0  0  0  0  0
  138.8470   69.8520  224.0740 C   0  0  0  0  0  0  0  0  0  0  0  0
  139.6270   70.0920  225.1910 C   0  0  0  0  0  0  0  0  0  0  0  0
  139.6570   69.1940  226.2550 C   0  0  0  0  0  0  0  0  0  0  0  0
  140.4500   69.4580  227.3650 C   0  0  0  0  0  0  0  0  0  0  0  0
  140.5180   68.3490  228.7350 Cl  0  0  0  0  0  0  0  0  0  0  0  0
  141.2180   70.6250  227.4210 C   0  0  0  0  0  0  0  0  0  0  0  0
  141.1700   71.4980  226.3520 C   0  0  0  0  0  0  0  0  0  0  0  0
  140.3880   71.2570  225.2320 C   0  0  0  0  0  0  0  0  0  0  0  0
  140.3660   72.1460  224.1950 N   0  0  0  0  0  0  0  0  0  0  0  0
  141.4920   73.7710  222.4690 H   0  0  0  0  0  0  0  0  0  0  0  0
  140.3445   74.1794  219.7586 H   0  0  0  0  0  0  0  0  0  0  0  0
  139.8498   75.4918  220.8637 H   0  0  0  0  0  0  0  0  0  0  0  0
  143.7912   77.6805  219.2034 H   0  0  0  0  0  0  0  0  0  0  0  0
  144.0018   75.8962  219.4834 H   0  0  0  0  0  0  0  0  0  0  0  0
  143.9762   76.5293  217.1074 H   0  0  0  0  0  0  0  0  0  0  0  0
  142.6533   75.3870  217.6040 H   0  0  0  0  0  0  0  0  0  0  0  0
  142.4101   77.7319  216.1752 H   0  0  0  0  0  0  0  0  0  0  0  0
  141.1074   76.7282  217.0295 H   0  0  0  0  0  0  0  0  0  0  0  0
  142.5345   78.8416  218.4861 H   0  0  0  0  0  0  0  0  0  0  0  0
  141.1933   79.2235  217.2763 H   0  0  0  0  0  0  0  0  0  0  0  0
  140.0965   79.1747  219.2426 H   0  0  0  0  0  0  0  0  0  0  0  0
  139.8926   77.4872  218.5557 H   0  0  0  0  0  0  0  0  0  0  0  0
  140.3176   77.0547  220.7957 H   0  0  0  0  0  0  0  0  0  0  0  0
  141.8568   80.2356  219.8922 H   0  0  0  0  0  0  0  0  0  0  0  0
  142.5075   81.8739  221.6142 H   0  0  0  0  0  0  0  0  0  0  0  0
  142.5309   81.2517  224.0270 H   0  0  0  0  0  0  0  0  0  0  0  0
  141.8764   78.9302  224.6449 H   0  0  0  0  0  0  0  0  0  0  0  0
  141.2287   77.3075  222.9377 H   0  0  0  0  0  0  0  0  0  0  0  0
  138.2432   70.5951  222.1632 H   0  0  0  0  0  0  0  0  0  0  0  0
  138.2309   68.9437  224.0005 H   0  0  0  0  0  0  0  0  0  0  0  0
  139.0528   68.2756  226.2167 H   0  0  0  0  0  0  0  0  0  0  0  0
  141.8465   70.8429  228.2971 H   0  0  0  0  0  0  0  0  0  0  0  0
  141.7733   72.4170  226.3901 H   0  0  0  0  0  0  0  0  0  0  0  0
  1  2  2  0
  2  3  1  0
  3  4  1  0
  4  5  1  0
  5  6  2  0
  5  7  1  0
  7  8  1  0
  8  9  1  0
  9 10  1  0
 10 11  1  0
 11 12  1  0
 12 13  1  0
 13 14  1  0
 14 15  2  0
 15 16  1  0
 16 17  2  0
 17 18  1  0
 18 19  2  0
  2 20  1  0
 20 21  2  0
 21 22  1  0
 22 23  2  0
 23 24  1  0
 24 25  2  0
 25 26  1  0
 25 27  1  0
 27 28  2  0
 28 29  1  0
 29 30  2  0
 13  7  1  0
 19 14  1  0
 30 20  1  0
 29 23  1  0
  3 31  1  0
  4 32  1  0
  4 33  1  0
  8 34  1  0
  8 35  1  0
  9 36  1  0
  9 37  1  0
 10 38  1  0
 10 39  1  0
 11 40  1  0
 11 41  1  0
 12 42  1  0
 12 43  1  0
 13 44  1  1
 15 45  1  0
 16 46  1  0
 17 47  1  0
 18 48  1  0
 19 49  1  0
 21 50  1  0
 22 51  1  0
 24 52  1  0
 27 53  1  0
 28 54  1  0
M  END
>  <smiles>  (35) 
O=C(NCC(=O)N1CCCCCC1c1ccccc1)c1ccc2cc(Cl)ccc2n1

>  <score_type>  (35) 
oracle

>  <origin>  (35) 
autodockgpu

>  <m_score__min__energy>  (35) 
-6.9699999999999998

>  <m_primary>  (35) 
energy

>  <rmsd>  (35) 
2.4035576929593057

>  <m_score__min__rmsd>  (35) 
2.4035576929593057

>  <meeko>  (35) 
{"free_energy": -5.75, "intermolecular_energy": -9.03, "internal_energy": -1.99, "cluster_size": 15, "cluster_id": 1, "rank_in_cluster": 14}

>  <energy>  (35) 
-5.68

>  <cluster_rmsd>  (35) 
0.0

>  <cluster>  (35) 
8

$$$$

     RDKit          3D

 54 57  0  0  0  0  0  0  0  0999 V2000
  138.4580   76.4010  223.1590 O   0  0  0  0  0  0  0  0  0  0  0  0
  138.7530   76.5850  221.9330 C   0  0  0  0  0  0  0  0  0  0  0  0
  137.8380   77.2130  221.0290 N   0  0  0  0  0  0  0  0  0  0  0  0
  136.5340   77.6420  221.5690 C   0  0  0  0  0  0  0  0  0  0  0  0
  136.7740   78.7570  222.5100 C   0  0  0  0  0  0  0  0  0  0  0  0
  136.0670   78.9570  223.5450 O   0  0  0  0  0  0  0  0  0  0  0  0
  137.8410   79.7200  222.3290 N   0  0  0  0  0  0  0  0  0  0  0  0
  137.8750   80.1930  220.9600 C   0  0  0  0  0  0  0  0  0  0  0  0
  137.2200   81.5220  220.8010 C   0  0  0  0  0  0  0  0  0  0  0  0
  137.5210   82.4360  221.9360 C   0  0  0  0  0  0  0  0  0  0  0  0
  137.0900   81.9960  223.2790 C   0  0  0  0  0  0  0  0  0  0  0  0
  138.1230   81.3010  224.1000 C   0  0  0  0  0  0  0  0  0  0  0  0
  138.6030   79.9930  223.5180 C   0  0  2  0  0  0  0  0  0  0  0  0
  140.0690   79.9570  223.3650 C   0  0  0  0  0  0  0  0  0  0  0  0
  140.8350   81.0190  222.9350 C   0  0  0  0  0  0  0  0  0  0  0  0
  142.2200   80.9300  222.7880 C   0  0  0  0  0  0  0  0  0  0  0  0
  142.8930   79.7620  223.0690 C   0  0  0  0  0  0  0  0  0  0  0  0
  142.1420   78.6910  223.5000 C   0  0  0  0  0  0  0  0  0  0  0  0
  140.7770   78.7840  223.6440 C   0  0  0  0  0  0  0  0  0  0  0  0
  140.0520   76.1470  221.4400 C   0  0  0  0  0  0  0  0  0  0  0  0
  140.9100   77.0420  220.8440 C   0  0  0  0  0  0  0  0  0  0  0  0
  142.1530   76.6840  220.3580 C   0  0  0  0  0  0  0  0  0  0  0  0
  142.5490   75.3650  220.4770 C   0  0  0  0  0  0  0  0  0  0  0  0
  143.7890   74.9390  220.0070 C   0  0  0  0  0  0  0  0  0  0  0  0
  144.1630   73.6080  220.1400 C   0  0  0  0  0  0  0  0  0  0  0  0
  145.7230   73.0260  219.5590 Cl  0  0  0  0  0  0  0  0  0  0  0  0
  143.2980   72.6900  220.7430 C   0  0  0  0  0  0  0  0  0  0  0  0
  142.0740   73.1380  221.2000 C   0  0  0  0  0  0  0  0  0  0  0  0
  141.6780   74.4620  221.0810 C   0  0  0  0  0  0  0  0  0  0  0  0
  140.4590   74.8670  221.5450 N   0  0  0  0  0  0  0  0  0  0  0  0
  138.0930   77.3580  220.0280 H   0  0  0  0  0  0  0  0  0  0  0  0
  135.8829   77.9791  220.7489 H   0  0  0  0  0  0  0  0  0  0  0  0
  136.0402   76.8056  222.0853 H   0  0  0  0  0  0  0  0  0  0  0  0
  138.9245   80.2761  220.6411 H   0  0  0  0  0  0  0  0  0  0  0  0
  137.3216   79.4706  220.3421 H   0  0  0  0  0  0  0  0  0  0  0  0
  137.5781   81.9843  219.8693 H   0  0  0  0  0  0  0  0  0  0  0  0
  136.1321   81.3616  220.7757 H   0  0  0  0  0  0  0  0  0  0  0  0
  138.6111   82.5799  221.9671 H   0  0  0  0  0  0  0  0  0  0  0  0
  136.9407   83.3480  221.7323 H   0  0  0  0  0  0  0  0  0  0  0  0
  136.7601   82.8858  223.8353 H   0  0  0  0  0  0  0  0  0  0  0  0
  136.2966   81.2534  223.1083 H   0  0  0  0  0  0  0  0  0  0  0  0
  138.9894   81.9709  224.2026 H   0  0  0  0  0  0  0  0  0  0  0  0
  137.6505   81.0621  225.0642 H   0  0  0  0  0  0  0  0  0  0  0  0
  138.4159   79.1613  224.2132 H   0  0  0  0  0  0  0  0  0  0  0  0
  140.3368   81.9710  222.6992 H   0  0  0  0  0  0  0  0  0  0  0  0
  142.7840   81.8085  222.4415 H   0  0  0  0  0  0  0  0  0  0  0  0
  143.9844   79.6875  222.9541 H   0  0  0  0  0  0  0  0  0  0  0  0
  142.6444   77.7408  223.7341 H   0  0  0  0  0  0  0  0  0  0  0  0
  140.2209   77.9011  223.9922 H   0  0  0  0  0  0  0  0  0  0  0  0
  140.5920   78.0908  220.7500 H   0  0  0  0  0  0  0  0  0  0  0  0
  142.8109   77.4300  219.8882 H   0  0  0  0  0  0  0  0  0  0  0  0
  144.4725   75.6571  219.5302 H   0  0  0  0  0  0  0  0  0  0  0  0
  143.5860   71.6339  220.8511 H   0  0  0  0  0  0  0  0  0  0  0  0
  141.3894   72.4198  221.6749 H   0  0  0  0  0  0  0  0  0  0  0  0
  1  2  2  0
  2  3  1  0
  3  4  1  0
  4  5  1  0
  5  6  2  0
  5  7  1  0
  7  8  1  0
  8  9  1  0
  9 10  1  0
 10 11  1  0
 11 12  1  0
 12 13  1  0
 13 14  1  0
 14 15  2  0
 15 16  1  0
 16 17  2  0
 17 18  1  0
 18 19  2  0
  2 20  1  0
 20 21  2  0
 21 22  1  0
 22 23  2  0
 23 24  1  0
 24 25  2  0
 25 26  1  0
 25 27  1  0
 27 28  2  0
 28 29  1  0
 29 30  2  0
 13  7  1  0
 19 14  1  0
 30 20  1  0
 29 23  1  0
  3 31  1  0
  4 32  1  0
  4 33  1  0
  8 34  1  0
  8 35  1  0
  9 36  1  0
  9 37  1  0
 10 38  1  0
 10 39  1  0
 11 40  1  0
 11 41  1  0
 12 42  1  0
 12 43  1  0
 13 44  1  1
 15 45  1  0
 16 46  1  0
 17 47  1  0
 18 48  1  0
 19 49  1  0
 21 50  1  0
 22 51  1  0
 24 52  1  0
 27 53  1  0
 28 54  1  0
M  END
>  <smiles>  (36) 
O=C(NCC(=O)N1CCCCCC1c1ccccc1)c1ccc2cc(Cl)ccc2n1

>  <score_type>  (36) 
oracle

>  <origin>  (36) 
autodockgpu

>  <m_score__min__energy>  (36) 
-6.9699999999999998

>  <m_primary>  (36) 
energy

>  <rmsd>  (36) 
7.173526118505444

>  <m_score__min__rmsd>  (36) 
7.173526118505444

>  <meeko>  (36) 
{"free_energy": -4.45, "intermolecular_energy": -7.73, "internal_energy": -2.55, "cluster_size": 3, "cluster_id": 14, "rank_in_cluster": 2}

>  <energy>  (36) 
-5.56

>  <cluster_rmsd>  (36) 
0.0

>  <cluster>  (36) 
9

$$$$

     RDKit          3D

 54 57  0  0  0  0  0  0  0  0999 V2000
  138.6360   72.7390  221.2030 O   0  0  0  0  0  0  0  0  0  0  0  0
  139.6370   72.7880  221.9900 C   0  0  0  0  0  0  0  0  0  0  0  0
  140.6750   73.7580  221.8190 N   0  0  0  0  0  0  0  0  0  0  0  0
  140.5450   74.7050  220.6950 C   0  0  0  0  0  0  0  0  0  0  0  0
  141.8330   75.4160  220.5450 C   0  0  0  0  0  0  0  0  0  0  0  0
  142.9540   74.8880  220.8180 O   0  0  0  0  0  0  0  0  0  0  0  0
  141.9240   76.7820  220.0700 N   0  0  0  0  0  0  0  0  0  0  0  0
  142.9710   76.9090  219.0780 C   0  0  0  0  0  0  0  0  0  0  0  0
  142.6170   77.8720  217.9970 C   0  0  0  0  0  0  0  0  0  0  0  0
  141.2760   77.5940  217.4140 C   0  0  0  0  0  0  0  0  0  0  0  0
  140.1090   77.8040  218.2950 C   0  0  0  0  0  0  0  0  0  0  0  0
  140.3770   78.5360  219.5740 C   0  0  0  0  0  0  0  0  0  0  0  0
  140.9740   77.6830  220.6670 C   0  0  2  0  0  0  0  0  0  0  0  0
  141.4740   78.4920  221.7930 C   0  0  0  0  0  0  0  0  0  0  0  0
  141.3400   78.1490  223.1210 C   0  0  0  0  0  0  0  0  0  0  0  0
  141.8140   78.9580  224.1530 C   0  0  0  0  0  0  0  0  0  0  0  0
  142.4470   80.1530  223.8900 C   0  0  0  0  0  0  0  0  0  0  0  0
  142.5900   80.5110  222.5670 C   0  0  0  0  0  0  0  0  0  0  0  0
  142.1210   79.7090  221.5530 C   0  0  0  0  0  0  0  0  0  0  0  0
  139.7270   71.8350  223.0880 C   0  0  0  0  0  0  0  0  0  0  0  0
  139.1850   70.5770  222.9660 C   0  0  0  0  0  0  0  0  0  0  0  0
  139.2390   69.6330  223.9730 C   0  0  0  0  0  0  0  0  0  0  0  0
  139.8670   69.9720  225.1570 C   0  0  0  0  0  0  0  0  0  0  0  0
  139.9550   69.0660  226.2110 C   0  0  0  0  0  0  0  0  0  0  0  0
  140.5920   69.4320  227.3900 C   0  0  0  0  0  0  0  0  0  0  0  0
  140.7270   68.3170  228.7500 Cl  0  0  0  0  0  0  0  0  0  0  0  0
  141.1460   70.7090  227.5260 C   0  0  0  0  0  0  0  0  0  0  0  0
  141.0440   71.5870  226.4650 C   0  0  0  0  0  0  0  0  0  0  0  0
  140.4140   71.2460  225.2770 C   0  0  0  0  0  0  0  0  0  0  0  0
  140.3340   72.1440  224.2510 N   0  0  0  0  0  0  0  0  0  0  0  0
  141.4890   73.7880  222.4710 H   0  0  0  0  0  0  0  0  0  0  0  0
  140.3112   74.1570  219.7703 H   0  0  0  0  0  0  0  0  0  0  0  0
  139.7336   75.4215  220.8909 H   0  0  0  0  0  0  0  0  0  0  0  0
  143.8881   77.2579  219.5753 H   0  0  0  0  0  0  0  0  0  0  0  0
  143.1141   75.9221  218.6138 H   0  0  0  0  0  0  0  0  0  0  0  0
  142.6177   78.8896  218.4147 H   0  0  0  0  0  0  0  0  0  0  0  0
  143.3624   77.7683  217.1947 H   0  0  0  0  0  0  0  0  0  0  0  0
  141.1526   78.2469  216.5374 H   0  0  0  0  0  0  0  0  0  0  0  0
  141.2774   76.5169  217.1908 H   0  0  0  0  0  0  0  0  0  0  0  0
  139.3590   78.3768  217.7298 H   0  0  0  0  0  0  0  0  0  0  0  0
  139.7761   76.7986  218.5921 H   0  0  0  0  0  0  0  0  0  0  0  0
  141.0749   79.3589  219.3598 H   0  0  0  0  0  0  0  0  0  0  0  0
  139.4026   78.8861  219.9456 H   0  0  0  0  0  0  0  0  0  0  0  0
  140.2035   77.0606  221.1454 H   0  0  0  0  0  0  0  0  0  0  0  0
  140.8409   77.2025  223.3762 H   0  0  0  0  0  0  0  0  0  0  0  0
  141.6800   78.6361  225.1963 H   0  0  0  0  0  0  0  0  0  0  0  0
  142.8223   80.7940  224.7014 H   0  0  0  0  0  0  0  0  0  0  0  0
  143.0899   81.4583  222.3167 H   0  0  0  0  0  0  0  0  0  0  0  0
  142.2601   80.0373  220.5124 H   0  0  0  0  0  0  0  0  0  0  0  0
  138.6854   70.3102  222.0230 H   0  0  0  0  0  0  0  0  0  0  0  0
  138.7935   68.6366  223.8363 H   0  0  0  0  0  0  0  0  0  0  0  0
  139.5201   68.0607  226.1099 H   0  0  0  0  0  0  0  0  0  0  0  0
  141.6512   71.0071  228.4565 H   0  0  0  0  0  0  0  0  0  0  0  0
  141.4779   72.5928  226.5654 H   0  0  0  0  0  0  0  0  0  0  0  0
  1  2  2  0
  2  3  1  0
  3  4  1  0
  4  5  1  0
  5  6  2  0
  5  7  1  0
  7  8  1  0
  8  9  1  0
  9 10  1  0
 10 11  1  0
 11 12  1  0
 12 13  1  0
 13 14  1  0
 14 15  2  0
 15 16  1  0
 16 17  2  0
 17 18  1  0
 18 19  2  0
  2 20  1  0
 20 21  2  0
 21 22  1  0
 22 23  2  0
 23 24  1  0
 24 25  2  0
 25 26  1  0
 25 27  1  0
 27 28  2  0
 28 29  1  0
 29 30  2  0
 13  7  1  0
 19 14  1  0
 30 20  1  0
 29 23  1  0
  3 31  1  0
  4 32  1  0
  4 33  1  0
  8 34  1  0
  8 35  1  0
  9 36  1  0
  9 37  1  0
 10 38  1  0
 10 39  1  0
 11 40  1  0
 11 41  1  0
 12 42  1  0
 12 43  1  0
 13 44  1  1
 15 45  1  0
 16 46  1  0
 17 47  1  0
 18 48  1  0
 19 49  1  0
 21 50  1  0
 22 51  1  0
 24 52  1  0
 27 53  1  0
 28 54  1  0
M  END
>  <smiles>  (37) 
O=C(NCC(=O)N1CCCCCC1c1ccccc1)c1ccc2cc(Cl)ccc2n1

>  <score_type>  (37) 
oracle

>  <origin>  (37) 
autodockgpu

>  <m_score__min__energy>  (37) 
-6.9699999999999998

>  <m_primary>  (37) 
energy

>  <rmsd>  (37) 
2.373731132608206

>  <m_score__min__rmsd>  (37) 
2.373731132608206

>  <meeko>  (37) 
{"free_energy": -5.86, "intermolecular_energy": -9.14, "internal_energy": -1.94, "cluster_size": 15, "cluster_id": 1, "rank_in_cluster": 12}

>  <energy>  (37) 
-5.55

>  <cluster_rmsd>  (37) 
0.0

>  <cluster>  (37) 
10

$$$$

     RDKit          3D

 54 57  0  0  0  0  0  0  0  0999 V2000
  141.9790   78.9070  217.7040 O   0  0  0  0  0  0  0  0  0  0  0  0
  141.9480   78.0930  218.6840 C   0  0  0  0  0  0  0  0  0  0  0  0
  141.2150   78.3880  219.8780 N   0  0  0  0  0  0  0  0  0  0  0  0
  140.4930   79.6730  219.9330 C   0  0  0  0  0  0  0  0  0  0  0  0
  139.5770   79.6330  221.0940 C   0  0  0  0  0  0  0  0  0  0  0  0
  138.3390   79.3750  220.9930 O   0  0  0  0  0  0  0  0  0  0  0  0
  140.0200   79.8850  222.4510 N   0  0  0  0  0  0  0  0  0  0  0  0
  139.9170   81.2950  222.7670 C   0  0  0  0  0  0  0  0  0  0  0  0
  141.2360   81.9870  222.7090 C   0  0  0  0  0  0  0  0  0  0  0  0
  142.3370   81.1460  223.2500 C   0  0  0  0  0  0  0  0  0  0  0  0
  142.5980   79.8650  222.5620 C   0  0  0  0  0  0  0  0  0  0  0  0
  141.9490   78.6590  223.1470 C   0  0  0  0  0  0  0  0  0  0  0  0
  140.4410   78.7110  223.1660 C   0  0  2  0  0  0  0  0  0  0  0  0
  139.8350   77.4390  222.7310 C   0  0  0  0  0  0  0  0  0  0  0  0
  140.5420   76.3710  222.2240 C   0  0  0  0  0  0  0  0  0  0  0  0
  139.9210   75.1940  221.8070 C   0  0  0  0  0  0  0  0  0  0  0  0
  138.5540   75.0430  221.8830 C   0  0  0  0  0  0  0  0  0  0  0  0
  137.8310   76.1020  222.3870 C   0  0  0  0  0  0  0  0  0  0  0  0
  138.4500   77.2610  222.7980 C   0  0  0  0  0  0  0  0  0  0  0  0
  142.6750   76.8340  218.5880 C   0  0  0  0  0  0  0  0  0  0  0  0
  143.1140   76.3740  217.3690 C   0  0  0  0  0  0  0  0  0  0  0  0
  143.8070   75.1890  217.2160 C   0  0  0  0  0  0  0  0  0  0  0  0
  144.0690   74.4330  218.3440 C   0  0  0  0  0  0  0  0  0  0  0  0
  144.7630   73.2280  218.2590 C   0  0  0  0  0  0  0  0  0  0  0  0
  145.0140   72.4880  219.4070 C   0  0  0  0  0  0  0  0  0  0  0  0
  145.8880   70.9570  219.3450 Cl  0  0  0  0  0  0  0  0  0  0  0  0
  144.5710   72.9460  220.6520 C   0  0  0  0  0  0  0  0  0  0  0  0
  143.8850   74.1440  220.7080 C   0  0  0  0  0  0  0  0  0  0  0  0
  143.6240   74.9020  219.5760 C   0  0  0  0  0  0  0  0  0  0  0  0
  142.9410   76.0810  219.6730 N   0  0  0  0  0  0  0  0  0  0  0  0
  141.1980   77.7130  220.6720 H   0  0  0  0  0  0  0  0  0  0  0  0
  141.2096   80.4991  220.0511 H   0  0  0  0  0  0  0  0  0  0  0  0
  139.9260   79.8330  219.0041 H   0  0  0  0  0  0  0  0  0  0  0  0
  139.2365   81.7702  222.0452 H   0  0  0  0  0  0  0  0  0  0  0  0
  139.5371   81.3818  223.7957 H   0  0  0  0  0  0  0  0  0  0  0  0
  141.4608   82.2332  221.6608 H   0  0  0  0  0  0  0  0  0  0  0  0
  141.1687   82.8937  223.3282 H   0  0  0  0  0  0  0  0  0  0  0  0
  143.2614   81.7407  223.2074 H   0  0  0  0  0  0  0  0  0  0  0  0
  142.0138   80.8670  224.2638 H   0  0  0  0  0  0  0  0  0  0  0  0
  142.2475   79.9643  221.5241 H   0  0  0  0  0  0  0  0  0  0  0  0
  143.6801   79.6935  222.6608 H   0  0  0  0  0  0  0  0  0  0  0  0
  142.2558   77.7827  222.5571 H   0  0  0  0  0  0  0  0  0  0  0  0
  142.2749   78.6045  224.1962 H   0  0  0  0  0  0  0  0  0  0  0  0
  140.0635   78.8137  224.1941 H   0  0  0  0  0  0  0  0  0  0  0  0
  141.6364   76.4494  222.1452 H   0  0  0  0  0  0  0  0  0  0  0  0
  140.5340   74.3713  221.4102 H   0  0  0  0  0  0  0  0  0  0  0  0
  138.0605   74.1162  221.5552 H   0  0  0  0  0  0  0  0  0  0  0  0
  136.7367   76.0198  222.4625 H   0  0  0  0  0  0  0  0  0  0  0  0
  137.8306   78.0790  223.1946 H   0  0  0  0  0  0  0  0  0  0  0  0
  142.9035   76.9778  216.4739 H   0  0  0  0  0  0  0  0  0  0  0  0
  144.1418   74.8553  216.2228 H   0  0  0  0  0  0  0  0  0  0  0  0
  145.1123   72.8625  217.2821 H   0  0  0  0  0  0  0  0  0  0  0  0
  144.7644   72.3655  221.5661 H   0  0  0  0  0  0  0  0  0  0  0  0
  143.5336   74.5094  221.6842 H   0  0  0  0  0  0  0  0  0  0  0  0
  1  2  2  0
  2  3  1  0
  3  4  1  0
  4  5  1  0
  5  6  2  0
  5  7  1  0
  7  8  1  0
  8  9  1  0
  9 10  1  0
 10 11  1  0
 11 12  1  0
 12 13  1  0
 13 14  1  0
 14 15  2  0
 15 16  1  0
 16 17  2  0
 17 18  1  0
 18 19  2  0
  2 20  1  0
 20 21  2  0
 21 22  1  0
 22 23  2  0
 23 24  1  0
 24 25  2  0
 25 26  1  0
 25 27  1  0
 27 28  2  0
 28 29  1  0
 29 30  2  0
 13  7  1  0
 19 14  1  0
 30 20  1  0
 29 23  1  0
  3 31  1  0
  4 32  1  0
  4 33  1  0
  8 34  1  0
  8 35  1  0
  9 36  1  0
  9 37  1  0
 10 38  1  0
 10 39  1  0
 11 40  1  0
 11 41  1  0
 12 42  1  0
 12 43  1  0
 13 44  1  1
 15 45  1  0
 16 46  1  0
 17 47  1  0
 18 48  1  0
 19 49  1  0
 21 50  1  0
 22 51  1  0
 24 52  1  0
 27 53  1  0
 28 54  1  0
M  END
>  <smiles>  (38) 
O=C(NCC(=O)N1CCCCCC1c1ccccc1)c1ccc2cc(Cl)ccc2n1

>  <score_type>  (38) 
oracle

>  <origin>  (38) 
autodockgpu

>  <m_score__min__energy>  (38) 
-6.9699999999999998

>  <m_primary>  (38) 
energy

>  <rmsd>  (38) 
7.983193855120542

>  <m_score__min__rmsd>  (38) 
7.983193855120542

>  <meeko>  (38) 
{"free_energy": -4.48, "intermolecular_energy": -7.76, "internal_energy": -2.39, "cluster_size": 2, "cluster_id": 16, "rank_in_cluster": 1}

>  <energy>  (38) 
-5.02

>  <cluster_rmsd>  (38) 
1.58

>  <cluster>  (38) 
10

$$$$

     RDKit          3D

 54 57  0  0  0  0  0  0  0  0999 V2000
  140.5520   72.5100  220.7300 O   0  0  0  0  0  0  0  0  0  0  0  0
  140.1900   72.9030  221.8880 C   0  0  0  0  0  0  0  0  0  0  0  0
  139.8270   74.2650  222.1360 N   0  0  0  0  0  0  0  0  0  0  0  0
  139.8860   75.2030  220.9990 C   0  0  0  0  0  0  0  0  0  0  0  0
  140.9820   76.1620  221.2540 C   0  0  0  0  0  0  0  0  0  0  0  0
  141.4190   76.4260  222.4160 O   0  0  0  0  0  0  0  0  0  0  0  0
  141.6540   76.8840  220.1920 N   0  0  0  0  0  0  0  0  0  0  0  0
  142.5160   75.9970  219.4380 C   0  0  0  0  0  0  0  0  0  0  0  0
  142.1570   75.9490  217.9920 C   0  0  0  0  0  0  0  0  0  0  0  0
  142.5640   77.1850  217.2710 C   0  0  0  0  0  0  0  0  0  0  0  0
  141.9000   78.4420  217.6720 C   0  0  0  0  0  0  0  0  0  0  0  0
  142.1780   78.9200  219.0550 C   0  0  0  0  0  0  0  0  0  0  0  0
  141.3200   78.2810  220.1190 C   0  0  2  0  0  0  0  0  0  0  0  0
  141.3690   79.0220  221.3940 C   0  0  0  0  0  0  0  0  0  0  0  0
  142.5290   79.4240  222.0180 C   0  0  0  0  0  0  0  0  0  0  0  0
  142.5250   80.1070  223.2340 C   0  0  0  0  0  0  0  0  0  0  0  0
  141.3450   80.4150  223.8750 C   0  0  0  0  0  0  0  0  0  0  0  0
  140.1760   80.0210  223.2640 C   0  0  0  0  0  0  0  0  0  0  0  0
  140.1850   79.3470  222.0640 C   0  0  0  0  0  0  0  0  0  0  0  0
  140.1450   71.9430  222.9830 C   0  0  0  0  0  0  0  0  0  0  0  0
  139.5940   70.6970  222.7970 C   0  0  0  0  0  0  0  0  0  0  0  0
  139.5230   69.7480  223.7980 C   0  0  0  0  0  0  0  0  0  0  0  0
  140.0320   70.0680  225.0430 C   0  0  0  0  0  0  0  0  0  0  0  0
  139.9910   69.1560  226.0950 C   0  0  0  0  0  0  0  0  0  0  0  0
  140.5090   69.5030  227.3360 C   0  0  0  0  0  0  0  0  0  0  0  0
  140.4780   68.3790  228.6950 Cl  0  0  0  0  0  0  0  0  0  0  0  0
  141.0710   70.7680  227.5370 C   0  0  0  0  0  0  0  0  0  0  0  0
  141.0980   71.6530  226.4770 C   0  0  0  0  0  0  0  0  0  0  0  0
  140.5890   71.3300  225.2280 C   0  0  0  0  0  0  0  0  0  0  0  0
  140.6340   72.2340  224.2050 N   0  0  0  0  0  0  0  0  0  0  0  0
  139.5320   74.5720  223.0880 H   0  0  0  0  0  0  0  0  0  0  0  0
  140.0828   74.6500  220.0687 H   0  0  0  0  0  0  0  0  0  0  0  0
  138.9293   75.7355  220.8930 H   0  0  0  0  0  0  0  0  0  0  0  0
  143.5541   76.3484  219.5328 H   0  0  0  0  0  0  0  0  0  0  0  0
  142.3946   74.9833  219.8475 H   0  0  0  0  0  0  0  0  0  0  0  0
  142.6610   75.0872  217.5302 H   0  0  0  0  0  0  0  0  0  0  0  0
  141.0631   75.8595  217.9183 H   0  0  0  0  0  0  0  0  0  0  0  0
  143.6454   77.3174  217.4227 H   0  0  0  0  0  0  0  0  0  0  0  0
  142.2603   77.0208  216.2266 H   0  0  0  0  0  0  0  0  0  0  0  0
  142.2215   79.2290  216.9739 H   0  0  0  0  0  0  0  0  0  0  0  0
  140.8216   78.2267  217.6460 H   0  0  0  0  0  0  0  0  0  0  0  0
  143.2315   78.7058  219.2879 H   0  0  0  0  0  0  0  0  0  0  0  0
  141.9462   79.9952  219.0683 H   0  0  0  0  0  0  0  0  0  0  0  0
  140.2547   78.3393  219.8512 H   0  0  0  0  0  0  0  0  0  0  0  0
  143.4937   79.1982  221.5400 H   0  0  0  0  0  0  0  0  0  0  0  0
  143.4809   80.4051  223.6894 H   0  0  0  0  0  0  0  0  0  0  0  0
  141.3373   80.9530  224.8344 H   0  0  0  0  0  0  0  0  0  0  0  0
  139.2137   80.2498  223.7453 H   0  0  0  0  0  0  0  0  0  0  0  0
  139.2249   79.0528  221.6149 H   0  0  0  0  0  0  0  0  0  0  0  0
  139.1911   70.4443  221.8051 H   0  0  0  0  0  0  0  0  0  0  0  0
  139.0727   68.7623  223.6094 H   0  0  0  0  0  0  0  0  0  0  0  0
  139.5482   68.1606  225.9428 H   0  0  0  0  0  0  0  0  0  0  0  0
  141.4821   71.0515  228.5171 H   0  0  0  0  0  0  0  0  0  0  0  0
  141.5388   72.6493  226.6288 H   0  0  0  0  0  0  0  0  0  0  0  0
  1  2  2  0
  2  3  1  0
  3  4  1  0
  4  5  1  0
  5  6  2  0
  5  7  1  0
  7  8  1  0
  8  9  1  0
  9 10  1  0
 10 11  1  0
 11 12  1  0
 12 13  1  0
 13 14  1  0
 14 15  2  0
 15 16  1  0
 16 17  2  0
 17 18  1  0
 18 19  2  0
  2 20  1  0
 20 21  2  0
 21 22  1  0
 22 23  2  0
 23 24  1  0
 24 25  2  0
 25 26  1  0
 25 27  1  0
 27 28  2  0
 28 29  1  0
 29 30  2  0
 13  7  1  0
 19 14  1  0
 30 20  1  0
 29 23  1  0
  3 31  1  0
  4 32  1  0
  4 33  1  0
  8 34  1  0
  8 35  1  0
  9 36  1  0
  9 37  1  0
 10 38  1  0
 10 39  1  0
 11 40  1  0
 11 41  1  0
 12 42  1  0
 12 43  1  0
 13 44  1  6
 15 45  1  0
 16 46  1  0
 17 47  1  0
 18 48  1  0
 19 49  1  0
 21 50  1  0
 22 51  1  0
 24 52  1  0
 27 53  1  0
 28 54  1  0
M  END
>  <smiles>  (39) 
O=C(NCC(=O)N1CCCCCC1c1ccccc1)c1ccc2cc(Cl)ccc2n1

>  <score_type>  (39) 
oracle

>  <origin>  (39) 
autodockgpu

>  <m_score__min__energy>  (39) 
-6.9699999999999998

>  <m_primary>  (39) 
energy

>  <rmsd>  (39) 
2.181530771492982

>  <m_score__min__rmsd>  (39) 
2.181530771492982

>  <meeko>  (39) 
{"free_energy": -6.97, "intermolecular_energy": -10.25, "internal_energy": -1.68, "cluster_size": 15, "cluster_id": 1, "rank_in_cluster": 1}

>  <energy>  (39) 
-4.99

>  <cluster_rmsd>  (39) 
1.5

>  <cluster>  (39) 
10

$$$$

     RDKit          3D

 54 57  0  0  0  0  0  0  0  0999 V2000
  138.0310   76.5290  223.0870 O   0  0  0  0  0  0  0  0  0  0  0  0
  138.4920   76.4610  221.9010 C   0  0  0  0  0  0  0  0  0  0  0  0
  137.9250   77.2270  220.8330 N   0  0  0  0  0  0  0  0  0  0  0  0
  136.7820   78.1020  221.1550 C   0  0  0  0  0  0  0  0  0  0  0  0
  137.1450   79.4850  220.7780 C   0  0  0  0  0  0  0  0  0  0  0  0
  136.7840   80.0250  219.6880 O   0  0  0  0  0  0  0  0  0  0  0  0
  137.9480   80.3440  221.6250 N   0  0  0  0  0  0  0  0  0  0  0  0
  138.0380   81.6760  221.0610 C   0  0  0  0  0  0  0  0  0  0  0  0
  138.1330   82.7320  222.1080 C   0  0  0  0  0  0  0  0  0  0  0  0
  137.1900   82.4930  223.2340 C   0  0  0  0  0  0  0  0  0  0  0  0
  137.6420   81.5730  224.2990 C   0  0  0  0  0  0  0  0  0  0  0  0
  137.5910   80.1170  223.9770 C   0  0  0  0  0  0  0  0  0  0  0  0
  138.4550   79.7060  222.8100 C   0  0  2  0  0  0  0  0  0  0  0  0
  139.8900   79.9030  223.0830 C   0  0  0  0  0  0  0  0  0  0  0  0
  140.5040   81.1320  223.1820 C   0  0  0  0  0  0  0  0  0  0  0  0
  141.8710   81.2670  223.4230 C   0  0  0  0  0  0  0  0  0  0  0  0
  142.6810   80.1640  223.5760 C   0  0  0  0  0  0  0  0  0  0  0  0
  142.0830   78.9260  223.4790 C   0  0  0  0  0  0  0  0  0  0  0  0
  140.7340   78.7990  223.2410 C   0  0  0  0  0  0  0  0  0  0  0  0
  139.6230   75.5840  221.6260 C   0  0  0  0  0  0  0  0  0  0  0  0
  139.5790   74.2570  221.9830 C   0  0  0  0  0  0  0  0  0  0  0  0
  140.6200   73.3790  221.7490 C   0  0  0  0  0  0  0  0  0  0  0  0
  141.7560   73.8610  221.1260 C   0  0  0  0  0  0  0  0  0  0  0  0
  142.8410   73.0290  220.8610 C   0  0  0  0  0  0  0  0  0  0  0  0
  143.9710   73.5370  220.2330 C   0  0  0  0  0  0  0  0  0  0  0  0
  145.3670   72.5190  219.8790 Cl  0  0  0  0  0  0  0  0  0  0  0  0
  144.0260   74.8860  219.8660 C   0  0  0  0  0  0  0  0  0  0  0  0
  142.9370   75.6890  220.1410 C   0  0  0  0  0  0  0  0  0  0  0  0
  141.7970   75.2040  220.7650 C   0  0  0  0  0  0  0  0  0  0  0  0
  140.7400   76.0320  221.0200 N   0  0  0  0  0  0  0  0  0  0  0  0
  138.3130   77.1630  219.8670 H   0  0  0  0  0  0  0  0  0  0  0  0
  135.8952   77.7813  220.5887 H   0  0  0  0  0  0  0  0  0  0  0  0
  136.5493   78.0471  222.2287 H   0  0  0  0  0  0  0  0  0  0  0  0
  138.9326   81.7297  220.4232 H   0  0  0  0  0  0  0  0  0  0  0  0
  137.1194   81.8582  220.4839 H   0  0  0  0  0  0  0  0  0  0  0  0
  139.1595   82.7481  222.5029 H   0  0  0  0  0  0  0  0  0  0  0  0
  137.8679   83.6932  221.6435 H   0  0  0  0  0  0  0  0  0  0  0  0
  136.9779   83.4654  223.7024 H   0  0  0  0  0  0  0  0  0  0  0  0
  136.3182   82.0000  222.7791 H   0  0  0  0  0  0  0  0  0  0  0  0
  138.6845   81.8268  224.5416 H   0  0  0  0  0  0  0  0  0  0  0  0
  136.9360   81.7156  225.1304 H   0  0  0  0  0  0  0  0  0  0  0  0
  137.9216   79.5567  224.8640 H   0  0  0  0  0  0  0  0  0  0  0  0
  136.5521   79.8947  223.6921 H   0  0  0  0  0  0  0  0  0  0  0  0
  138.3931   78.6213  222.6382 H   0  0  0  0  0  0  0  0  0  0  0  0
  139.8939   82.0401  223.0668 H   0  0  0  0  0  0  0  0  0  0  0  0
  142.3102   82.2731  223.4921 H   0  0  0  0  0  0  0  0  0  0  0  0
  143.7593   80.2665  223.7675 H   0  0  0  0  0  0  0  0  0  0  0  0
  142.6971   78.0207  223.5943 H   0  0  0  0  0  0  0  0  0  0  0  0
  140.3022   77.7896  223.1723 H   0  0  0  0  0  0  0  0  0  0  0  0
  138.6732   73.8767  222.4778 H   0  0  0  0  0  0  0  0  0  0  0  0
  140.5466   72.3237  222.0507 H   0  0  0  0  0  0  0  0  0  0  0  0
  142.8030   71.9682  221.1494 H   0  0  0  0  0  0  0  0  0  0  0  0
  144.9170   75.2977  219.3694 H   0  0  0  0  0  0  0  0  0  0  0  0
  142.9747   76.7506  219.8553 H   0  0  0  0  0  0  0  0  0  0  0  0
  1  2  2  0
  2  3  1  0
  3  4  1  0
  4  5  1  0
  5  6  2  0
  5  7  1  0
  7  8  1  0
  8  9  1  0
  9 10  1  0
 10 11  1  0
 11 12  1  0
 12 13  1  0
 13 14  1  0
 14 15  2  0
 15 16  1  0
 16 17  2  0
 17 18  1  0
 18 19  2  0
  2 20  1  0
 20 21  2  0
 21 22  1  0
 22 23  2  0
 23 24  1  0
 24 25  2  0
 25 26  1  0
 25 27  1  0
 27 28  2  0
 28 29  1  0
 29 30  2  0
 13  7  1  0
 19 14  1  0
 30 20  1  0
 29 23  1  0
  3 31  1  0
  4 32  1  0
  4 33  1  0
  8 34  1  0
  8 35  1  0
  9 36  1  0
  9 37  1  0
 10 38  1  0
 10 39  1  0
 11 40  1  0
 11 41  1  0
 12 42  1  0
 12 43  1  0
 13 44  1  6
 15 45  1  0
 16 46  1  0
 17 47  1  0
 18 48  1  0
 19 49  1  0
 21 50  1  0
 22 51  1  0
 24 52  1  0
 27 53  1  0
 28 54  1  0
M  END
>  <smiles>  (40) 
O=C(NCC(=O)N1CCCCCC1c1ccccc1)c1ccc2cc(Cl)ccc2n1

>  <score_type>  (40) 
oracle

>  <origin>  (40) 
autodockgpu

>  <m_score__min__energy>  (40) 
-6.9699999999999998

>  <m_primary>  (40) 
energy

>  <rmsd>  (40) 
6.907501681728815

>  <m_score__min__rmsd>  (40) 
6.907501681728815

>  <meeko>  (40) 
{"free_energy": -4.72, "intermolecular_energy": -8.0, "internal_energy": -2.2, "cluster_size": 3, "cluster_id": 14, "rank_in_cluster": 1}

>  <energy>  (40) 
-4.66

>  <cluster_rmsd>  (40) 
1.31

>  <cluster>  (40) 
10

$$$$

     RDKit          3D

 54 57  0  0  0  0  0  0  0  0999 V2000
  140.4180   72.2060  220.7810 O   0  0  0  0  0  0  0  0  0  0  0  0
  140.1150   72.6240  221.9460 C   0  0  0  0  0  0  0  0  0  0  0  0
  139.7960   73.9970  222.1880 N   0  0  0  0  0  0  0  0  0  0  0  0
  139.8290   74.9180  221.0360 C   0  0  0  0  0  0  0  0  0  0  0  0
  140.3960   76.2040  221.4940 C   0  0  0  0  0  0  0  0  0  0  0  0
  140.5450   76.5010  222.7200 O   0  0  0  0  0  0  0  0  0  0  0  0
  140.8320   77.2400  220.5790 N   0  0  0  0  0  0  0  0  0  0  0  0
  142.0420   76.8360  219.8920 C   0  0  0  0  0  0  0  0  0  0  0  0
  142.5470   77.8890  218.9650 C   0  0  0  0  0  0  0  0  0  0  0  0
  141.5780   78.1910  217.8770 C   0  0  0  0  0  0  0  0  0  0  0  0
  140.1740   77.7930  218.1040 C   0  0  0  0  0  0  0  0  0  0  0  0
  139.4380   78.5570  219.1520 C   0  0  0  0  0  0  0  0  0  0  0  0
  139.9860   78.4020  220.5500 C   0  0  2  0  0  0  0  0  0  0  0  0
  140.5900   79.6500  221.0520 C   0  0  0  0  0  0  0  0  0  0  0  0
  140.5480   80.8580  220.3910 C   0  0  0  0  0  0  0  0  0  0  0  0
  141.1520   82.0090  220.8980 C   0  0  0  0  0  0  0  0  0  0  0  0
  141.8250   81.9900  222.0990 C   0  0  0  0  0  0  0  0  0  0  0  0
  141.8770   80.7900  222.7740 C   0  0  0  0  0  0  0  0  0  0  0  0
  141.2790   79.6580  222.2690 C   0  0  0  0  0  0  0  0  0  0  0  0
  140.0930   71.6810  223.0570 C   0  0  0  0  0  0  0  0  0  0  0  0
  139.5750   70.4180  222.8900 C   0  0  0  0  0  0  0  0  0  0  0  0
  139.5270   69.4830  223.9060 C   0  0  0  0  0  0  0  0  0  0  0  0
  140.0250   69.8380  225.1470 C   0  0  0  0  0  0  0  0  0  0  0  0
  140.0060   68.9420  226.2130 C   0  0  0  0  0  0  0  0  0  0  0  0
  140.5120   69.3220  227.4490 C   0  0  0  0  0  0  0  0  0  0  0  0
  140.5080   68.2200  228.8260 Cl  0  0  0  0  0  0  0  0  0  0  0  0
  141.0410   70.6040  227.6300 C   0  0  0  0  0  0  0  0  0  0  0  0
  141.0470   71.4720  226.5560 C   0  0  0  0  0  0  0  0  0  0  0  0
  140.5490   71.1160  225.3120 C   0  0  0  0  0  0  0  0  0  0  0  0
  140.5720   72.0040  224.2740 N   0  0  0  0  0  0  0  0  0  0  0  0
  139.5490   74.3260  223.1470 H   0  0  0  0  0  0  0  0  0  0  0  0
  140.4582   74.4957  220.2386 H   0  0  0  0  0  0  0  0  0  0  0  0
  138.8145   75.0682  220.6383 H   0  0  0  0  0  0  0  0  0  0  0  0
  142.8189   76.6222  220.6408 H   0  0  0  0  0  0  0  0  0  0  0  0
  141.8056   75.9453  219.2914 H   0  0  0  0  0  0  0  0  0  0  0  0
  142.7319   78.8083  219.5401 H   0  0  0  0  0  0  0  0  0  0  0  0
  143.4712   77.5151  218.5002 H   0  0  0  0  0  0  0  0  0  0  0  0
  141.5926   79.2783  217.7112 H   0  0  0  0  0  0  0  0  0  0  0  0
  141.9121   77.5883  217.0196 H   0  0  0  0  0  0  0  0  0  0  0  0
  139.6318   77.9162  217.1549 H   0  0  0  0  0  0  0  0  0  0  0  0
  140.2155   76.7558  218.4681 H   0  0  0  0  0  0  0  0  0  0  0  0
  139.4741   79.6239  218.8866 H   0  0  0  0  0  0  0  0  0  0  0  0
  138.4165   78.1494  219.1726 H   0  0  0  0  0  0  0  0  0  0  0  0
  139.1755   78.2224  221.2717 H   0  0  0  0  0  0  0  0  0  0  0  0
  140.0190   80.9172  219.4284 H   0  0  0  0  0  0  0  0  0  0  0  0
  141.0894   82.9479  220.3283 H   0  0  0  0  0  0  0  0  0  0  0  0
  142.3015   82.8954  222.5029 H   0  0  0  0  0  0  0  0  0  0  0  0
  142.4073   80.7356  223.7362 H   0  0  0  0  0  0  0  0  0  0  0  0
  141.3456   78.7232  222.8449 H   0  0  0  0  0  0  0  0  0  0  0  0
  139.1806   70.1393  221.9017 H   0  0  0  0  0  0  0  0  0  0  0  0
  139.1039   68.4825  223.7328 H   0  0  0  0  0  0  0  0  0  0  0  0
  139.5900   67.9330  226.0758 H   0  0  0  0  0  0  0  0  0  0  0  0
  141.4432   70.9139  228.6058 H   0  0  0  0  0  0  0  0  0  0  0  0
  141.4616   72.4817  226.6923 H   0  0  0  0  0  0  0  0  0  0  0  0
  1  2  2  0
  2  3  1  0
  3  4  1  0
  4  5  1  0
  5  6  2  0
  5  7  1  0
  7  8  1  0
  8  9  1  0
  9 10  1  0
 10 11  1  0
 11 12  1  0
 12 13  1  0
 13 14  1  0
 14 15  2  0
 15 16  1  0
 16 17  2  0
 17 18  1  0
 18 19  2  0
  2 20  1  0
 20 21  2  0
 21 22  1  0
 22 23  2  0
 23 24  1  0
 24 25  2  0
 25 26  1  0
 25 27  1  0
 27 28  2  0
 28 29  1  0
 29 30  2  0
 13  7  1  0
 19 14  1  0
 30 20  1  0
 29 23  1  0
  3 31  1  0
  4 32  1  0
  4 33  1  0
  8 34  1  0
  8 35  1  0
  9 36  1  0
  9 37  1  0
 10 38  1  0
 10 39  1  0
 11 40  1  0
 11 41  1  0
 12 42  1  0
 12 43  1  0
 13 44  1  1
 15 45  1  0
 16 46  1  0
 17 47  1  0
 18 48  1  0
 19 49  1  0
 21 50  1  0
 22 51  1  0
 24 52  1  0
 27 53  1  0
 28 54  1  0
M  END
>  <smiles>  (41) 
O=C(NCC(=O)N1CCCCCC1c1ccccc1)c1ccc2cc(Cl)ccc2n1

>  <score_type>  (41) 
oracle

>  <origin>  (41) 
autodockgpu

>  <m_score__min__energy>  (41) 
-6.9699999999999998

>  <m_primary>  (41) 
energy

>  <rmsd>  (41) 
2.242831597929866

>  <m_score__min__rmsd>  (41) 
2.242831597929866

>  <meeko>  (41) 
{"free_energy": -5.38, "intermolecular_energy": -8.66, "internal_energy": -1.97, "cluster_size": 15, "cluster_id": 1, "rank_in_cluster": 15}

>  <energy>  (41) 
-5.48

>  <cluster_rmsd>  (41) 
0.0

>  <cluster>  (41) 
11

$$$$

     RDKit          3D

 54 57  0  0  0  0  0  0  0  0999 V2000
  140.2120   72.5700  220.8000 O   0  0  0  0  0  0  0  0  0  0  0  0
  139.9470   72.9190  221.9960 C   0  0  0  0  0  0  0  0  0  0  0  0
  139.6010   74.2690  222.3220 N   0  0  0  0  0  0  0  0  0  0  0  0
  139.5600   75.2470  221.2190 C   0  0  0  0  0  0  0  0  0  0  0  0
  140.4100   76.3960  221.5950 C   0  0  0  0  0  0  0  0  0  0  0  0
  140.3640   76.9510  222.7360 O   0  0  0  0  0  0  0  0  0  0  0  0
  141.3730   76.9890  220.6890 N   0  0  0  0  0  0  0  0  0  0  0  0
  142.2980   75.9870  220.2000 C   0  0  0  0  0  0  0  0  0  0  0  0
  142.0950   75.6840  218.7550 C   0  0  0  0  0  0  0  0  0  0  0  0
  142.5270   76.8070  217.8790 C   0  0  0  0  0  0  0  0  0  0  0  0
  141.8230   78.0950  218.0490 C   0  0  0  0  0  0  0  0  0  0  0  0
  142.0830   78.8210  219.3280 C   0  0  0  0  0  0  0  0  0  0  0  0
  141.1980   78.4010  220.4750 C   0  0  2  0  0  0  0  0  0  0  0  0
  141.3780   79.2590  221.6610 C   0  0  0  0  0  0  0  0  0  0  0  0
  142.5260   79.3070  222.4220 C   0  0  0  0  0  0  0  0  0  0  0  0
  142.6430   80.1220  223.5480 C   0  0  0  0  0  0  0  0  0  0  0  0
  141.6020   80.9270  223.9560 C   0  0  0  0  0  0  0  0  0  0  0  0
  140.4470   80.8910  223.2060 C   0  0  0  0  0  0  0  0  0  0  0  0
  140.3380   80.0850  222.0960 C   0  0  0  0  0  0  0  0  0  0  0  0
  139.9990   71.9210  223.0570 C   0  0  0  0  0  0  0  0  0  0  0  0
  139.5470   70.6420  222.8330 C   0  0  0  0  0  0  0  0  0  0  0  0
  139.5710   69.6550  223.8000 C   0  0  0  0  0  0  0  0  0  0  0  0
  140.0710   69.9730  225.0490 C   0  0  0  0  0  0  0  0  0  0  0  0
  140.1230   69.0240  226.0670 C   0  0  0  0  0  0  0  0  0  0  0  0
  140.6310   69.3680  227.3130 C   0  0  0  0  0  0  0  0  0  0  0  0
  140.7140   68.1980  228.6310 Cl  0  0  0  0  0  0  0  0  0  0  0  0
  141.0920   70.6670  227.5520 C   0  0  0  0  0  0  0  0  0  0  0  0
  141.0290   71.5880  226.5250 C   0  0  0  0  0  0  0  0  0  0  0  0
  140.5270   71.2680  225.2720 C   0  0  0  0  0  0  0  0  0  0  0  0
  140.4820   72.2080  224.2810 N   0  0  0  0  0  0  0  0  0  0  0  0
  139.3860   74.5410  223.3060 H   0  0  0  0  0  0  0  0  0  0  0  0
  139.9428   74.7856  220.2967 H   0  0  0  0  0  0  0  0  0  0  0  0
  138.5264   75.5787  221.0408 H   0  0  0  0  0  0  0  0  0  0  0  0
  143.3249   76.3543  220.3431 H   0  0  0  0  0  0  0  0  0  0  0  0
  142.1190   75.0606  220.7655 H   0  0  0  0  0  0  0  0  0  0  0  0
  142.6779   74.7879  218.4956 H   0  0  0  0  0  0  0  0  0  0  0  0
  141.0192   75.5229  218.5916 H   0  0  0  0  0  0  0  0  0  0  0  0
  143.5958   76.9846  218.0689 H   0  0  0  0  0  0  0  0  0  0  0  0
  142.2876   76.4817  216.8558 H   0  0  0  0  0  0  0  0  0  0  0  0
  142.1233   78.7542  217.2211 H   0  0  0  0  0  0  0  0  0  0  0  0
  140.7514   77.8470  218.0621 H   0  0  0  0  0  0  0  0  0  0  0  0
  143.1291   78.6431  219.6178 H   0  0  0  0  0  0  0  0  0  0  0  0
  141.8651   79.8820  219.1361 H   0  0  0  0  0  0  0  0  0  0  0  0
  140.1371   78.5558  220.2291 H   0  0  0  0  0  0  0  0  0  0  0  0
  143.3814   78.6796  222.1308 H   0  0  0  0  0  0  0  0  0  0  0  0
  143.5826   80.1220  224.1200 H   0  0  0  0  0  0  0  0  0  0  0  0
  141.6894   81.5713  224.8432 H   0  0  0  0  0  0  0  0  0  0  0  0
  139.5939   81.5198  223.5006 H   0  0  0  0  0  0  0  0  0  0  0  0
  139.3954   80.0911  221.5289 H   0  0  0  0  0  0  0  0  0  0  0  0
  139.1480   70.3929  221.8386 H   0  0  0  0  0  0  0  0  0  0  0  0
  139.2017   68.6422  223.5815 H   0  0  0  0  0  0  0  0  0  0  0  0
  139.7615   68.0013  225.8841 H   0  0  0  0  0  0  0  0  0  0  0  0
  141.4956   70.9484  228.5358 H   0  0  0  0  0  0  0  0  0  0  0  0
  141.3895   72.6112  226.7068 H   0  0  0  0  0  0  0  0  0  0  0  0
  1  2  2  0
  2  3  1  0
  3  4  1  0
  4  5  1  0
  5  6  2  0
  5  7  1  0
  7  8  1  0
  8  9  1  0
  9 10  1  0
 10 11  1  0
 11 12  1  0
 12 13  1  0
 13 14  1  0
 14 15  2  0
 15 16  1  0
 16 17  2  0
 17 18  1  0
 18 19  2  0
  2 20  1  0
 20 21  2  0
 21 22  1  0
 22 23  2  0
 23 24  1  0
 24 25  2  0
 25 26  1  0
 25 27  1  0
 27 28  2  0
 28 29  1  0
 29 30  2  0
 13  7  1  0
 19 14  1  0
 30 20  1  0
 29 23  1  0
  3 31  1  0
  4 32  1  0
  4 33  1  0
  8 34  1  0
  8 35  1  0
  9 36  1  0
  9 37  1  0
 10 38  1  0
 10 39  1  0
 11 40  1  0
 11 41  1  0
 12 42  1  0
 12 43  1  0
 13 44  1  6
 15 45  1  0
 16 46  1  0
 17 47  1  0
 18 48  1  0
 19 49  1  0
 21 50  1  0
 22 51  1  0
 24 52  1  0
 27 53  1  0
 28 54  1  0
M  END
>  <smiles>  (42) 
O=C(NCC(=O)N1CCCCCC1c1ccccc1)c1ccc2cc(Cl)ccc2n1

>  <score_type>  (42) 
oracle

>  <origin>  (42) 
autodockgpu

>  <m_score__min__energy>  (42) 
-6.9699999999999998

>  <m_primary>  (42) 
energy

>  <rmsd>  (42) 
2.1954490212512487

>  <m_score__min__rmsd>  (42) 
2.1954490212512487

>  <meeko>  (42) 
{"free_energy": -6.92, "intermolecular_energy": -10.2, "internal_energy": -1.72, "cluster_size": 15, "cluster_id": 1, "rank_in_cluster": 2}

>  <energy>  (42) 
-5.04

>  <cluster_rmsd>  (42) 
0.0

>  <cluster>  (42) 
12

$$$$

     RDKit          3D

 54 57  0  0  0  0  0  0  0  0999 V2000
  141.4240   72.8030  220.8020 O   0  0  0  0  0  0  0  0  0  0  0  0
  140.6630   73.6000  221.4430 C   0  0  0  0  0  0  0  0  0  0  0  0
  139.5380   73.1220  222.1880 N   0  0  0  0  0  0  0  0  0  0  0  0
  139.2900   71.6680  222.1900 C   0  0  0  0  0  0  0  0  0  0  0  0
  138.2440   71.3840  223.1960 C   0  0  0  0  0  0  0  0  0  0  0  0
  137.3930   72.2460  223.5750 O   0  0  0  0  0  0  0  0  0  0  0  0
  138.1010   70.0920  223.8360 N   0  0  0  0  0  0  0  0  0  0  0  0
  136.7160   69.6670  223.8230 C   0  0  0  0  0  0  0  0  0  0  0  0
  136.5180   68.3970  223.0700 C   0  0  0  0  0  0  0  0  0  0  0  0
  137.7240   68.0130  222.2880 C   0  0  0  0  0  0  0  0  0  0  0  0
  138.8400   67.4010  223.0390 C   0  0  0  0  0  0  0  0  0  0  0  0
  139.1880   68.0270  224.3530 C   0  0  0  0  0  0  0  0  0  0  0  0
  139.3330   69.5290  224.3190 C   0  0  2  0  0  0  0  0  0  0  0  0
  139.8290   70.0690  225.5990 C   0  0  0  0  0  0  0  0  0  0  0  0
  139.5750   69.5100  226.8320 C   0  0  0  0  0  0  0  0  0  0  0  0
  140.0510   70.0690  228.0180 C   0  0  0  0  0  0  0  0  0  0  0  0
  140.8070   71.2200  228.0100 C   0  0  0  0  0  0  0  0  0  0  0  0
  141.0700   71.7920  226.7850 C   0  0  0  0  0  0  0  0  0  0  0  0
  140.5980   71.2360  225.6180 C   0  0  0  0  0  0  0  0  0  0  0  0
  140.9440   75.0290  221.4150 C   0  0  0  0  0  0  0  0  0  0  0  0
  141.8600   75.5430  220.5280 C   0  0  0  0  0  0  0  0  0  0  0  0
  142.1680   76.8880  220.4570 C   0  0  0  0  0  0  0  0  0  0  0  0
  141.5220   77.7540  221.3190 C   0  0  0  0  0  0  0  0  0  0  0  0
  141.7870   79.1220  221.2990 C   0  0  0  0  0  0  0  0  0  0  0  0
  141.1250   79.9710  222.1760 C   0  0  0  0  0  0  0  0  0  0  0  0
  141.4290   81.7080  222.1840 Cl  0  0  0  0  0  0  0  0  0  0  0  0
  140.1910   79.4590  223.0830 C   0  0  0  0  0  0  0  0  0  0  0  0
  139.9480   78.1000  223.0820 C   0  0  0  0  0  0  0  0  0  0  0  0
  140.5960   77.2310  222.2160 C   0  0  0  0  0  0  0  0  0  0  0  0
  140.3270   75.8920  222.2460 N   0  0  0  0  0  0  0  0  0  0  0  0
  138.9240   73.7850  222.7090 H   0  0  0  0  0  0  0  0  0  0  0  0
  138.9482   71.3463  221.1952 H   0  0  0  0  0  0  0  0  0  0  0  0
  140.2137   71.1232  222.4350 H   0  0  0  0  0  0  0  0  0  0  0  0
  136.3826   69.5180  224.8606 H   0  0  0  0  0  0  0  0  0  0  0  0
  136.1300   70.4499  223.3194 H   0  0  0  0  0  0  0  0  0  0  0  0
  136.2889   67.5932  223.7852 H   0  0  0  0  0  0  0  0  0  0  0  0
  135.6909   68.5503  222.3613 H   0  0  0  0  0  0  0  0  0  0  0  0
  137.4064   67.2932  221.5192 H   0  0  0  0  0  0  0  0  0  0  0  0
  138.1259   68.9593  221.8969 H   0  0  0  0  0  0  0  0  0  0  0  0
  138.5770   66.3500  223.2295 H   0  0  0  0  0  0  0  0  0  0  0  0
  139.7280   67.5444  222.4059 H   0  0  0  0  0  0  0  0  0  0  0  0
  138.3949   67.7758  225.0726 H   0  0  0  0  0  0  0  0  0  0  0  0
  140.1728   67.6268  224.6359 H   0  0  0  0  0  0  0  0  0  0  0  0
  140.1193   69.8320  223.6119 H   0  0  0  0  0  0  0  0  0  0  0  0
  138.9751   68.5894  226.8832 H   0  0  0  0  0  0  0  0  0  0  0  0
  139.8184   69.5819  228.9765 H   0  0  0  0  0  0  0  0  0  0  0  0
  141.1850   71.6639  228.9428 H   0  0  0  0  0  0  0  0  0  0  0  0
  141.6700   72.7128  226.7385 H   0  0  0  0  0  0  0  0  0  0  0  0
  140.8350   71.7289  224.6636 H   0  0  0  0  0  0  0  0  0  0  0  0
  142.3716   74.8511  219.8428 H   0  0  0  0  0  0  0  0  0  0  0  0
  142.9081   77.2600  219.7332 H   0  0  0  0  0  0  0  0  0  0  0  0
  142.5209   79.5295  220.5881 H   0  0  0  0  0  0  0  0  0  0  0  0
  139.6621   80.1243  223.7813 H   0  0  0  0  0  0  0  0  0  0  0  0
  139.2147   77.6917  223.7930 H   0  0  0  0  0  0  0  0  0  0  0  0
  1  2  2  0
  2  3  1  0
  3  4  1  0
  4  5  1  0
  5  6  2  0
  5  7  1  0
  7  8  1  0
  8  9  1  0
  9 10  1  0
 10 11  1  0
 11 12  1  0
 12 13  1  0
 13 14  1  0
 14 15  2  0
 15 16  1  0
 16 17  2  0
 17 18  1  0
 18 19  2  0
  2 20  1  0
 20 21  2  0
 21 22  1  0
 22 23  2  0
 23 24  1  0
 24 25  2  0
 25 26  1  0
 25 27  1  0
 27 28  2  0
 28 29  1  0
 29 30  2  0
 13  7  1  0
 19 14  1  0
 30 20  1  0
 29 23  1  0
  3 31  1  0
  4 32  1  0
  4 33  1  0
  8 34  1  0
  8 35  1  0
  9 36  1  0
  9 37  1  0
 10 38  1  0
 10 39  1  0
 11 40  1  0
 11 41  1  0
 12 42  1  0
 12 43  1  0
 13 44  1  6
 15 45  1  0
 16 46  1  0
 17 47  1  0
 18 48  1  0
 19 49  1  0
 21 50  1  0
 22 51  1  0
 24 52  1  0
 27 53  1  0
 28 54  1  0
M  END
>  <smiles>  (43) 
O=C(NCC(=O)N1CCCCCC1c1ccccc1)c1ccc2cc(Cl)ccc2n1

>  <score_type>  (43) 
oracle

>  <origin>  (43) 
autodockgpu

>  <m_score__min__energy>  (43) 
-6.9699999999999998

>  <m_primary>  (43) 
energy

>  <rmsd>  (43) 
8.375786791523506

>  <m_score__min__rmsd>  (43) 
8.375786791523506

>  <meeko>  (43) 
{"free_energy": -5.27, "intermolecular_energy": -8.55, "internal_energy": -2.23, "cluster_size": 6, "cluster_id": 4, "rank_in_cluster": 6}

>  <energy>  (43) 
-4.94

>  <cluster_rmsd>  (43) 
0.8

>  <cluster>  (43) 
12

$$$$

     RDKit          3D

 54 57  0  0  0  0  0  0  0  0999 V2000
  137.6460   76.2930  221.7830 O   0  0  0  0  0  0  0  0  0  0  0  0
  136.8230   76.7290  222.6530 C   0  0  0  0  0  0  0  0  0  0  0  0
  136.6700   78.1300  222.9010 N   0  0  0  0  0  0  0  0  0  0  0  0
  137.5020   79.0570  222.1100 C   0  0  0  0  0  0  0  0  0  0  0  0
  138.6390   79.4830  222.9530 C   0  0  0  0  0  0  0  0  0  0  0  0
  138.5170   79.8000  224.1760 O   0  0  0  0  0  0  0  0  0  0  0  0
  139.9960   79.5740  222.4520 N   0  0  0  0  0  0  0  0  0  0  0  0
  140.1490   80.7370  221.6010 C   0  0  0  0  0  0  0  0  0  0  0  0
  140.6890   81.9140  222.3380 C   0  0  0  0  0  0  0  0  0  0  0  0
  142.0150   81.6320  222.9520 C   0  0  0  0  0  0  0  0  0  0  0  0
  142.0860   80.4960  223.8940 C   0  0  0  0  0  0  0  0  0  0  0  0
  142.1950   79.1400  223.2840 C   0  0  0  0  0  0  0  0  0  0  0  0
  140.8690   78.5250  222.9060 C   0  0  2  0  0  0  0  0  0  0  0  0
  141.0270   77.3790  221.9920 C   0  0  0  0  0  0  0  0  0  0  0  0
  141.6390   77.4430  220.7590 C   0  0  0  0  0  0  0  0  0  0  0  0
  141.7480   76.3340  219.9200 C   0  0  0  0  0  0  0  0  0  0  0  0
  141.2430   75.1080  220.2910 C   0  0  0  0  0  0  0  0  0  0  0  0
  140.6280   75.0260  221.5210 C   0  0  0  0  0  0  0  0  0  0  0  0
  140.5240   76.1230  222.3450 C   0  0  0  0  0  0  0  0  0  0  0  0
  136.0190   75.7800  223.4120 C   0  0  0  0  0  0  0  0  0  0  0  0
  136.0870   74.4340  223.1390 C   0  0  0  0  0  0  0  0  0  0  0  0
  135.3490   73.4880  223.8240 C   0  0  0  0  0  0  0  0  0  0  0  0
  134.5040   73.9190  224.8300 C   0  0  0  0  0  0  0  0  0  0  0  0
  133.7320   73.0170  225.5590 C   0  0  0  0  0  0  0  0  0  0  0  0
  132.8920   73.4760  226.5650 C   0  0  0  0  0  0  0  0  0  0  0  0
  131.8970   72.3690  227.5120 Cl  0  0  0  0  0  0  0  0  0  0  0  0
  132.8140   74.8430  226.8500 C   0  0  0  0  0  0  0  0  0  0  0  0
  133.5900   75.7150  226.1120 C   0  0  0  0  0  0  0  0  0  0  0  0
  134.4380   75.2820  225.1040 C   0  0  0  0  0  0  0  0  0  0  0  0
  135.1890   76.1770  224.3960 N   0  0  0  0  0  0  0  0  0  0  0  0
  135.9910   78.4740  223.6150 H   0  0  0  0  0  0  0  0  0  0  0  0
  137.8753   78.5476  221.2094 H   0  0  0  0  0  0  0  0  0  0  0  0
  136.9100   79.9298  221.7974 H   0  0  0  0  0  0  0  0  0  0  0  0
  140.8388   80.4866  220.7815 H   0  0  0  0  0  0  0  0  0  0  0  0
  139.1527   81.0077  221.2213 H   0  0  0  0  0  0  0  0  0  0  0  0
  140.7952   82.7538  221.6355 H   0  0  0  0  0  0  0  0  0  0  0  0
  139.9860   82.1569  223.1485 H   0  0  0  0  0  0  0  0  0  0  0  0
  142.7239   81.4315  222.1351 H   0  0  0  0  0  0  0  0  0  0  0  0
  142.2468   82.5214  223.5564 H   0  0  0  0  0  0  0  0  0  0  0  0
  142.9665   80.6469  224.5358 H   0  0  0  0  0  0  0  0  0  0  0  0
  141.1267   80.5000  224.4323 H   0  0  0  0  0  0  0  0  0  0  0  0
  142.8107   79.2184  222.3758 H   0  0  0  0  0  0  0  0  0  0  0  0
  142.6425   78.4848  224.0459 H   0  0  0  0  0  0  0  0  0  0  0  0
  140.3857   78.0660  223.7811 H   0  0  0  0  0  0  0  0  0  0  0  0
  142.0569   78.4038  220.4241 H   0  0  0  0  0  0  0  0  0  0  0  0
  142.2461   76.4408  218.9450 H   0  0  0  0  0  0  0  0  0  0  0  0
  141.3271   74.2307  219.6328 H   0  0  0  0  0  0  0  0  0  0  0  0
  140.2113   74.0631  221.8514 H   0  0  0  0  0  0  0  0  0  0  0  0
  140.0260   76.0075  223.3190 H   0  0  0  0  0  0  0  0  0  0  0  0
  136.7603   74.0947  222.3380 H   0  0  0  0  0  0  0  0  0  0  0  0
  135.4315   72.4196  223.5755 H   0  0  0  0  0  0  0  0  0  0  0  0
  133.7879   71.9410  225.3376 H   0  0  0  0  0  0  0  0  0  0  0  0
  132.1497   75.2151  227.6439 H   0  0  0  0  0  0  0  0  0  0  0  0
  133.5333   76.7914  226.3316 H   0  0  0  0  0  0  0  0  0  0  0  0
  1  2  2  0
  2  3  1  0
  3  4  1  0
  4  5  1  0
  5  6  2  0
  5  7  1  0
  7  8  1  0
  8  9  1  0
  9 10  1  0
 10 11  1  0
 11 12  1  0
 12 13  1  0
 13 14  1  0
 14 15  2  0
 15 16  1  0
 16 17  2  0
 17 18  1  0
 18 19  2  0
  2 20  1  0
 20 21  2  0
 21 22  1  0
 22 23  2  0
 23 24  1  0
 24 25  2  0
 25 26  1  0
 25 27  1  0
 27 28  2  0
 28 29  1  0
 29 30  2  0
 13  7  1  0
 19 14  1  0
 30 20  1  0
 29 23  1  0
  3 31  1  0
  4 32  1  0
  4 33  1  0
  8 34  1  0
  8 35  1  0
  9 36  1  0
  9 37  1  0
 10 38  1  0
 10 39  1  0
 11 40  1  0
 11 41  1  0
 12 42  1  0
 12 43  1  0
 13 44  1  1
 15 45  1  0
 16 46  1  0
 17 47  1  0
 18 48  1  0
 19 49  1  0
 21 50  1  0
 22 51  1  0
 24 52  1  0
 27 53  1  0
 28 54  1  0
M  END
>  <smiles>  (44) 
O=C(NCC(=O)N1CCCCCC1c1ccccc1)c1ccc2cc(Cl)ccc2n1

>  <score_type>  (44) 
oracle

>  <origin>  (44) 
autodockgpu

>  <m_score__min__energy>  (44) 
-6.9699999999999998

>  <m_primary>  (44) 
energy

>  <rmsd>  (44) 
6.664624126668443

>  <m_score__min__rmsd>  (44) 
6.664624126668443

>  <meeko>  (44) 
{"free_energy": -4.94, "intermolecular_energy": -8.22, "internal_energy": -2.24, "cluster_size": 2, "cluster_id": 12, "rank_in_cluster": 2}

>  <energy>  (44) 
-5.0

>  <cluster_rmsd>  (44) 
0.0

>  <cluster>  (44) 
13

$$$$

     RDKit          3D

 54 57  0  0  0  0  0  0  0  0999 V2000
  138.2670   74.1020  221.8790 O   0  0  0  0  0  0  0  0  0  0  0  0
  139.4730   74.5050  221.7990 C   0  0  0  0  0  0  0  0  0  0  0  0
  139.8470   75.8290  222.1930 N   0  0  0  0  0  0  0  0  0  0  0  0
  138.7810   76.7160  222.6970 C   0  0  0  0  0  0  0  0  0  0  0  0
  138.9260   78.0280  222.0320 C   0  0  0  0  0  0  0  0  0  0  0  0
  138.1120   78.4570  221.1580 O   0  0  0  0  0  0  0  0  0  0  0  0
  140.0140   78.9400  222.3230 N   0  0  0  0  0  0  0  0  0  0  0  0
  139.5010   80.2220  222.7640 C   0  0  0  0  0  0  0  0  0  0  0  0
  140.2540   81.3670  222.1790 C   0  0  0  0  0  0  0  0  0  0  0  0
  141.5870   81.5460  222.8150 C   0  0  0  0  0  0  0  0  0  0  0  0
  142.6070   80.5160  222.5290 C   0  0  0  0  0  0  0  0  0  0  0  0
  142.2980   79.1360  223.0010 C   0  0  0  0  0  0  0  0  0  0  0  0
  141.3250   78.3840  222.1250 C   0  0  2  0  0  0  0  0  0  0  0  0
  141.7850   78.3010  220.7270 C   0  0  0  0  0  0  0  0  0  0  0  0
  142.3190   77.1710  220.1460 C   0  0  0  0  0  0  0  0  0  0  0  0
  142.7580   77.1480  218.8230 C   0  0  0  0  0  0  0  0  0  0  0  0
  142.6750   78.2670  218.0240 C   0  0  0  0  0  0  0  0  0  0  0  0
  142.1440   79.4060  218.5890 C   0  0  0  0  0  0  0  0  0  0  0  0
  141.7120   79.4230  219.8950 C   0  0  0  0  0  0  0  0  0  0  0  0
  140.4950   73.5970  221.2960 C   0  0  0  0  0  0  0  0  0  0  0  0
  140.2060   72.2690  221.0850 C   0  0  0  0  0  0  0  0  0  0  0  0
  141.1340   71.3620  220.6110 C   0  0  0  0  0  0  0  0  0  0  0  0
  142.4120   71.8140  220.3370 C   0  0  0  0  0  0  0  0  0  0  0  0
  143.3940   70.9510  219.8570 C   0  0  0  0  0  0  0  0  0  0  0  0
  144.6690   71.4290  219.5890 C   0  0  0  0  0  0  0  0  0  0  0  0
  145.9430   70.3720  218.9800 Cl  0  0  0  0  0  0  0  0  0  0  0  0
  144.9750   72.7780  219.8010 C   0  0  0  0  0  0  0  0  0  0  0  0
  143.9830   73.6110  220.2780 C   0  0  0  0  0  0  0  0  0  0  0  0
  142.7010   73.1580  220.5510 C   0  0  0  0  0  0  0  0  0  0  0  0
  141.7470   74.0140  221.0230 N   0  0  0  0  0  0  0  0  0  0  0  0
  140.8380   76.1460  222.1230 H   0  0  0  0  0  0  0  0  0  0  0  0
  137.7959   76.2859  222.4633 H   0  0  0  0  0  0  0  0  0  0  0  0
  138.8625   76.8296  223.7881 H   0  0  0  0  0  0  0  0  0  0  0  0
  138.4459   80.3026  222.4634 H   0  0  0  0  0  0  0  0  0  0  0  0
  139.6136   80.2701  223.8572 H   0  0  0  0  0  0  0  0  0  0  0  0
  140.3961   81.1852  221.1035 H   0  0  0  0  0  0  0  0  0  0  0  0
  139.6694   82.2818  222.3563 H   0  0  0  0  0  0  0  0  0  0  0  0
  141.9883   82.5136  222.4792 H   0  0  0  0  0  0  0  0  0  0  0  0
  141.4011   81.4734  223.8967 H   0  0  0  0  0  0  0  0  0  0  0  0
  142.7459   80.4747  221.4386 H   0  0  0  0  0  0  0  0  0  0  0  0
  143.5027   80.8250  223.0878 H   0  0  0  0  0  0  0  0  0  0  0  0
  143.2382   78.5664  223.0397 H   0  0  0  0  0  0  0  0  0  0  0  0
  141.8204   79.2393  223.9865 H   0  0  0  0  0  0  0  0  0  0  0  0
  141.2680   77.3257  222.4194 H   0  0  0  0  0  0  0  0  0  0  0  0
  142.4018   76.2541  220.7480 H   0  0  0  0  0  0  0  0  0  0  0  0
  143.1783   76.2193  218.4096 H   0  0  0  0  0  0  0  0  0  0  0  0
  143.0182   78.2519  216.9790 H   0  0  0  0  0  0  0  0  0  0  0  0
  142.0638   80.3207  217.9832 H   0  0  0  0  0  0  0  0  0  0  0  0
  141.2928   80.3555  220.3009 H   0  0  0  0  0  0  0  0  0  0  0  0
  139.1886   71.9125  221.3039 H   0  0  0  0  0  0  0  0  0  0  0  0
  140.8633   70.3072  220.4555 H   0  0  0  0  0  0  0  0  0  0  0  0
  143.1588   69.8895  219.6901 H   0  0  0  0  0  0  0  0  0  0  0  0
  145.9830   73.1657  219.5923 H   0  0  0  0  0  0  0  0  0  0  0  0
  144.2178   74.6722  220.4477 H   0  0  0  0  0  0  0  0  0  0  0  0
  1  2  2  0
  2  3  1  0
  3  4  1  0
  4  5  1  0
  5  6  2  0
  5  7  1  0
  7  8  1  0
  8  9  1  0
  9 10  1  0
 10 11  1  0
 11 12  1  0
 12 13  1  0
 13 14  1  0
 14 15  2  0
 15 16  1  0
 16 17  2  0
 17 18  1  0
 18 19  2  0
  2 20  1  0
 20 21  2  0
 21 22  1  0
 22 23  2  0
 23 24  1  0
 24 25  2  0
 25 26  1  0
 25 27  1  0
 27 28  2  0
 28 29  1  0
 29 30  2  0
 13  7  1  0
 19 14  1  0
 30 20  1  0
 29 23  1  0
  3 31  1  0
  4 32  1  0
  4 33  1  0
  8 34  1  0
  8 35  1  0
  9 36  1  0
  9 37  1  0
 10 38  1  0
 10 39  1  0
 11 40  1  0
 11 41  1  0
 12 42  1  0
 12 43  1  0
 13 44  1  1
 15 45  1  0
 16 46  1  0
 17 47  1  0
 18 48  1  0
 19 49  1  0
 21 50  1  0
 22 51  1  0
 24 52  1  0
 27 53  1  0
 28 54  1  0
M  END
>  <smiles>  (45) 
O=C(NCC(=O)N1CCCCCC1c1ccccc1)c1ccc2cc(Cl)ccc2n1

>  <score_type>  (45) 
oracle

>  <origin>  (45) 
autodockgpu

>  <m_score__min__energy>  (45) 
-6.9699999999999998

>  <m_primary>  (45) 
energy

>  <rmsd>  (45) 
5.948134079185081

>  <m_score__min__rmsd>  (45) 
5.948134079185081

>  <meeko>  (45) 
{"free_energy": -4.99, "intermolecular_energy": -8.27, "internal_energy": -2.25, "cluster_size": 4, "cluster_id": 10, "rank_in_cluster": 3}

>  <energy>  (45) 
-4.72

>  <cluster_rmsd>  (45) 
0.0

>  <cluster>  (45) 
14

$$$$

     RDKit          3D

 54 57  0  0  0  0  0  0  0  0999 V2000
  138.5700   71.5920  221.0230 O   0  0  0  0  0  0  0  0  0  0  0  0
  139.0380   72.0900  222.0980 C   0  0  0  0  0  0  0  0  0  0  0  0
  139.2980   73.4920  222.2220 N   0  0  0  0  0  0  0  0  0  0  0  0
  139.0010   74.3450  221.0560 C   0  0  0  0  0  0  0  0  0  0  0  0
  140.0260   74.0810  220.0240 C   0  0  0  0  0  0  0  0  0  0  0  0
  139.7540   73.9580  218.7900 O   0  0  0  0  0  0  0  0  0  0  0  0
  141.4340   73.9390  220.3340 N   0  0  0  0  0  0  0  0  0  0  0  0
  141.7240   72.5920  220.7840 C   0  0  0  0  0  0  0  0  0  0  0  0
  142.6710   71.8820  219.8780 C   0  0  0  0  0  0  0  0  0  0  0  0
  144.0630   72.3930  220.0070 C   0  0  0  0  0  0  0  0  0  0  0  0
  144.2940   73.8020  219.6270 C   0  0  0  0  0  0  0  0  0  0  0  0
  143.6460   74.8310  220.4880 C   0  0  0  0  0  0  0  0  0  0  0  0
  142.2120   75.1300  220.1250 C   0  0  2  0  0  0  0  0  0  0  0  0
  141.7130   76.3500  220.7860 C   0  0  0  0  0  0  0  0  0  0  0  0
  141.1060   76.3730  222.0230 C   0  0  0  0  0  0  0  0  0  0  0  0
  140.6320   77.5510  222.6000 C   0  0  0  0  0  0  0  0  0  0  0  0
  140.7520   78.7610  221.9520 C   0  0  0  0  0  0  0  0  0  0  0  0
  141.3570   78.7550  220.7150 C   0  0  0  0  0  0  0  0  0  0  0  0
  141.8220   77.5900  220.1500 C   0  0  0  0  0  0  0  0  0  0  0  0
  139.3170   71.2120  223.2270 C   0  0  0  0  0  0  0  0  0  0  0  0
  138.9480   69.8880  223.1880 C   0  0  0  0  0  0  0  0  0  0  0  0
  139.1850   69.0090  224.2280 C   0  0  0  0  0  0  0  0  0  0  0  0
  139.8220   69.4880  225.3580 C   0  0  0  0  0  0  0  0  0  0  0  0
  140.0900   68.6540  226.4410 C   0  0  0  0  0  0  0  0  0  0  0  0
  140.7320   69.1590  227.5640 C   0  0  0  0  0  0  0  0  0  0  0  0
  141.0910   68.1390  228.9580 Cl  0  0  0  0  0  0  0  0  0  0  0  0
  141.1110   70.5040  227.6150 C   0  0  0  0  0  0  0  0  0  0  0  0
  140.8330   71.3080  226.5270 C   0  0  0  0  0  0  0  0  0  0  0  0
  140.1940   70.8280  225.3940 C   0  0  0  0  0  0  0  0  0  0  0  0
  139.9360   71.6560  224.3380 N   0  0  0  0  0  0  0  0  0  0  0  0
  139.6810   73.8870  223.1080 H   0  0  0  0  0  0  0  0  0  0  0  0
  138.0030   74.1035  220.6613 H   0  0  0  0  0  0  0  0  0  0  0  0
  139.0146   75.4062  221.3454 H   0  0  0  0  0  0  0  0  0  0  0  0
  142.1679   72.6432  221.7891 H   0  0  0  0  0  0  0  0  0  0  0  0
  140.7789   72.0292  220.7891 H   0  0  0  0  0  0  0  0  0  0  0  0
  142.6626   70.8104  220.1263 H   0  0  0  0  0  0  0  0  0  0  0  0
  142.3422   72.0558  218.8428 H   0  0  0  0  0  0  0  0  0  0  0  0
  144.3631   72.2787  221.0591 H   0  0  0  0  0  0  0  0  0  0  0  0
  144.6538   71.8018  219.2918 H   0  0  0  0  0  0  0  0  0  0  0  0
  145.3790   73.9817  219.6484 H   0  0  0  0  0  0  0  0  0  0  0  0
  143.8349   73.9179  218.6341 H   0  0  0  0  0  0  0  0  0  0  0  0
  143.6711   74.4751  221.5286 H   0  0  0  0  0  0  0  0  0  0  0  0
  144.2094   75.7644  220.3421 H   0  0  0  0  0  0  0  0  0  0  0  0
  142.1216   75.3845  219.0587 H   0  0  0  0  0  0  0  0  0  0  0  0
  140.9912   75.4285  222.5750 H   0  0  0  0  0  0  0  0  0  0  0  0
  140.1539   77.5134  223.5900 H   0  0  0  0  0  0  0  0  0  0  0  0
  140.3802   79.6925  222.4037 H   0  0  0  0  0  0  0  0  0  0  0  0
  141.4709   79.7019  220.1669 H   0  0  0  0  0  0  0  0  0  0  0  0
  142.2980   77.6361  219.1594 H   0  0  0  0  0  0  0  0  0  0  0  0
  138.4408   69.5110  222.2877 H   0  0  0  0  0  0  0  0  0  0  0  0
  138.8750   67.9559  224.1586 H   0  0  0  0  0  0  0  0  0  0  0  0
  139.7931   67.5954  226.4067 H   0  0  0  0  0  0  0  0  0  0  0  0
  141.6188   70.9123  228.5012 H   0  0  0  0  0  0  0  0  0  0  0  0
  141.1291   72.3669  226.5605 H   0  0  0  0  0  0  0  0  0  0  0  0
  1  2  2  0
  2  3  1  0
  3  4  1  0
  4  5  1  0
  5  6  2  0
  5  7  1  0
  7  8  1  0
  8  9  1  0
  9 10  1  0
 10 11  1  0
 11 12  1  0
 12 13  1  0
 13 14  1  0
 14 15  2  0
 15 16  1  0
 16 17  2  0
 17 18  1  0
 18 19  2  0
  2 20  1  0
 20 21  2  0
 21 22  1  0
 22 23  2  0
 23 24  1  0
 24 25  2  0
 25 26  1  0
 25 27  1  0
 27 28  2  0
 28 29  1  0
 29 30  2  0
 13  7  1  0
 19 14  1  0
 30 20  1  0
 29 23  1  0
  3 31  1  0
  4 32  1  0
  4 33  1  0
  8 34  1  0
  8 35  1  0
  9 36  1  0
  9 37  1  0
 10 38  1  0
 10 39  1  0
 11 40  1  0
 11 41  1  0
 12 42  1  0
 12 43  1  0
 13 44  1  6
 15 45  1  0
 16 46  1  0
 17 47  1  0
 18 48  1  0
 19 49  1  0
 21 50  1  0
 22 51  1  0
 24 52  1  0
 27 53  1  0
 28 54  1  0
M  END
>  <smiles>  (46) 
O=C(NCC(=O)N1CCCCCC1c1ccccc1)c1ccc2cc(Cl)ccc2n1

>  <score_type>  (46) 
oracle

>  <origin>  (46) 
autodockgpu

>  <m_score__min__energy>  (46) 
-6.9699999999999998

>  <m_primary>  (46) 
energy

>  <rmsd>  (46) 
2.65729076934259

>  <m_score__min__rmsd>  (46) 
2.65729076934259

>  <meeko>  (46) 
{"free_energy": -5.93, "intermolecular_energy": -9.22, "internal_energy": -1.94, "cluster_size": 2, "cluster_id": 5, "rank_in_cluster": 1}

>  <energy>  (46) 
-4.45

>  <cluster_rmsd>  (46) 
1.0

>  <cluster>  (46) 
14

$$$$

     RDKit          3D

 54 57  0  0  0  0  0  0  0  0999 V2000
  140.1650   73.4960  220.1410 O   0  0  0  0  0  0  0  0  0  0  0  0
  139.7030   74.2290  221.0760 C   0  0  0  0  0  0  0  0  0  0  0  0
  138.6640   73.7660  221.9440 N   0  0  0  0  0  0  0  0  0  0  0  0
  138.1440   72.4040  221.7200 C   0  0  0  0  0  0  0  0  0  0  0  0
  139.0220   71.4560  222.4380 C   0  0  0  0  0  0  0  0  0  0  0  0
  140.1480   71.0770  221.9920 O   0  0  0  0  0  0  0  0  0  0  0  0
  138.6690   70.8760  223.7190 N   0  0  0  0  0  0  0  0  0  0  0  0
  137.4210   71.4320  224.2040 C   0  0  0  0  0  0  0  0  0  0  0  0
  136.2590   70.5400  223.9320 C   0  0  0  0  0  0  0  0  0  0  0  0
  136.5880   69.1050  224.1510 C   0  0  0  0  0  0  0  0  0  0  0  0
  137.6770   68.5380  223.3290 C   0  0  0  0  0  0  0  0  0  0  0  0
  139.0310   68.5250  223.9520 C   0  0  0  0  0  0  0  0  0  0  0  0
  139.6040   69.8990  224.2070 C   0  0  2  0  0  0  0  0  0  0  0  0
  140.0420   70.0680  225.6040 C   0  0  0  0  0  0  0  0  0  0  0  0
  140.4500   71.2640  226.1550 C   0  0  0  0  0  0  0  0  0  0  0  0
  140.8740   71.3710  227.4790 C   0  0  0  0  0  0  0  0  0  0  0  0
  140.9040   70.2720  228.3090 C   0  0  0  0  0  0  0  0  0  0  0  0
  140.4990   69.0680  227.7740 C   0  0  0  0  0  0  0  0  0  0  0  0
  140.0820   68.9690  226.4670 C   0  0  0  0  0  0  0  0  0  0  0  0
  140.2440   75.5690  221.2650 C   0  0  0  0  0  0  0  0  0  0  0  0
  141.3520   75.9790  220.5600 C   0  0  0  0  0  0  0  0  0  0  0  0
  141.9090   77.2350  220.6980 C   0  0  0  0  0  0  0  0  0  0  0  0
  141.3240   78.1180  221.5860 C   0  0  0  0  0  0  0  0  0  0  0  0
  141.8370   79.4000  221.7720 C   0  0  0  0  0  0  0  0  0  0  0  0
  141.2300   80.2680  222.6700 C   0  0  0  0  0  0  0  0  0  0  0  0
  141.8470   81.8990  222.9360 Cl  0  0  0  0  0  0  0  0  0  0  0  0
  140.1040   79.8610  223.3920 C   0  0  0  0  0  0  0  0  0  0  0  0
  139.6160   78.5850  223.1890 C   0  0  0  0  0  0  0  0  0  0  0  0
  140.2030   77.7000  222.2970 C   0  0  0  0  0  0  0  0  0  0  0  0
  139.6910   76.4460  222.1250 N   0  0  0  0  0  0  0  0  0  0  0  0
  138.2950   74.3760  222.7060 H   0  0  0  0  0  0  0  0  0  0  0  0
  137.1171   72.3281  222.1070 H   0  0  0  0  0  0  0  0  0  0  0  0
  138.1299   72.1724  220.6448 H   0  0  0  0  0  0  0  0  0  0  0  0
  137.5014   71.5864  225.2901 H   0  0  0  0  0  0  0  0  0  0  0  0
  137.2476   72.3803  223.6742 H   0  0  0  0  0  0  0  0  0  0  0  0
  135.4329   70.8202  224.6021 H   0  0  0  0  0  0  0  0  0  0  0  0
  135.9778   70.6645  222.8759 H   0  0  0  0  0  0  0  0  0  0  0  0
  136.8718   68.9861  225.2071 H   0  0  0  0  0  0  0  0  0  0  0  0
  135.6845   68.5537  223.8515 H   0  0  0  0  0  0  0  0  0  0  0  0
  137.4088   67.4991  223.0864 H   0  0  0  0  0  0  0  0  0  0  0  0
  137.7611   69.1991  222.4538 H   0  0  0  0  0  0  0  0  0  0  0  0
  138.9642   67.9944  224.9132 H   0  0  0  0  0  0  0  0  0  0  0  0
  139.7043   68.0271  223.2387 H   0  0  0  0  0  0  0  0  0  0  0  0
  140.5387   70.0463  223.6461 H   0  0  0  0  0  0  0  0  0  0  0  0
  140.4407   72.1671  225.5271 H   0  0  0  0  0  0  0  0  0  0  0  0
  141.1901   72.3503  227.8676 H   0  0  0  0  0  0  0  0  0  0  0  0
  141.2370   70.3519  229.3543 H   0  0  0  0  0  0  0  0  0  0  0  0
  140.5095   68.1674  228.4055 H   0  0  0  0  0  0  0  0  0  0  0  0
  139.7676   67.9862  226.0858 H   0  0  0  0  0  0  0  0  0  0  0  0
  141.8154   75.2740  219.8541 H   0  0  0  0  0  0  0  0  0  0  0  0
  142.7960   77.5255  220.1158 H   0  0  0  0  0  0  0  0  0  0  0  0
  142.7233   79.7247  221.2072 H   0  0  0  0  0  0  0  0  0  0  0  0
  139.6176   80.5420  224.1059 H   0  0  0  0  0  0  0  0  0  0  0  0
  138.7306   78.2592  223.7547 H   0  0  0  0  0  0  0  0  0  0  0  0
  1  2  2  0
  2  3  1  0
  3  4  1  0
  4  5  1  0
  5  6  2  0
  5  7  1  0
  7  8  1  0
  8  9  1  0
  9 10  1  0
 10 11  1  0
 11 12  1  0
 12 13  1  0
 13 14  1  0
 14 15  2  0
 15 16  1  0
 16 17  2  0
 17 18  1  0
 18 19  2  0
  2 20  1  0
 20 21  2  0
 21 22  1  0
 22 23  2  0
 23 24  1  0
 24 25  2  0
 25 26  1  0
 25 27  1  0
 27 28  2  0
 28 29  1  0
 29 30  2  0
 13  7  1  0
 19 14  1  0
 30 20  1  0
 29 23  1  0
  3 31  1  0
  4 32  1  0
  4 33  1  0
  8 34  1  0
  8 35  1  0
  9 36  1  0
  9 37  1  0
 10 38  1  0
 10 39  1  0
 11 40  1  0
 11 41  1  0
 12 42  1  0
 12 43  1  0
 13 44  1  6
 15 45  1  0
 16 46  1  0
 17 47  1  0
 18 48  1  0
 19 49  1  0
 21 50  1  0
 22 51  1  0
 24 52  1  0
 27 53  1  0
 28 54  1  0
M  END
>  <smiles>  (47) 
O=C(NCC(=O)N1CCCCCC1c1ccccc1)c1ccc2cc(Cl)ccc2n1

>  <score_type>  (47) 
oracle

>  <origin>  (47) 
autodockgpu

>  <m_score__min__energy>  (47) 
-6.9699999999999998

>  <m_primary>  (47) 
energy

>  <rmsd>  (47) 
8.214448088303927

>  <m_score__min__rmsd>  (47) 
8.214448088303927

>  <meeko>  (47) 
{"free_energy": -5.92, "intermolecular_energy": -9.2, "internal_energy": -1.8, "cluster_size": 6, "cluster_id": 4, "rank_in_cluster": 2}

>  <energy>  (47) 
-4.05

>  <cluster_rmsd>  (47) 
1.55

>  <cluster>  (47) 
14

$$$$

     RDKit          3D

 54 57  0  0  0  0  0  0  0  0999 V2000
  133.6500   70.1780  226.4120 O   0  0  0  0  0  0  0  0  0  0  0  0
  134.0140   71.3290  226.0050 C   0  0  0  0  0  0  0  0  0  0  0  0
  135.0440   71.4850  225.0240 N   0  0  0  0  0  0  0  0  0  0  0  0
  135.6720   70.2590  224.4960 C   0  0  0  0  0  0  0  0  0  0  0  0
  136.7830   70.6620  223.6070 C   0  0  0  0  0  0  0  0  0  0  0  0
  137.2920   71.8240  223.6140 O   0  0  0  0  0  0  0  0  0  0  0  0
  137.3880   69.7580  222.6490 N   0  0  0  0  0  0  0  0  0  0  0  0
  136.3830   69.2100  221.7600 C   0  0  0  0  0  0  0  0  0  0  0  0
  136.0010   67.8170  222.1250 C   0  0  0  0  0  0  0  0  0  0  0  0
  137.1300   66.8620  221.9610 C   0  0  0  0  0  0  0  0  0  0  0  0
  138.3550   67.1390  222.7400 C   0  0  0  0  0  0  0  0  0  0  0  0
  139.2070   68.2600  222.2520 C   0  0  0  0  0  0  0  0  0  0  0  0
  138.8130   69.6160  222.7830 C   0  0  2  0  0  0  0  0  0  0  0  0
  139.3610   69.8680  224.1290 C   0  0  0  0  0  0  0  0  0  0  0  0
  140.1520   70.9460  224.4600 C   0  0  0  0  0  0  0  0  0  0  0  0
  140.6640   71.1310  225.7440 C   0  0  0  0  0  0  0  0  0  0  0  0
  140.3960   70.2330  226.7540 C   0  0  0  0  0  0  0  0  0  0  0  0
  139.6060   69.1500  226.4400 C   0  0  0  0  0  0  0  0  0  0  0  0
  139.1040   68.9720  225.1710 C   0  0  0  0  0  0  0  0  0  0  0  0
  133.3670   72.5150  226.5520 C   0  0  0  0  0  0  0  0  0  0  0  0
  132.1930   72.4050  227.2600 C   0  0  0  0  0  0  0  0  0  0  0  0
  131.5340   73.4920  227.8010 C   0  0  0  0  0  0  0  0  0  0  0  0
  132.0840   74.7480  227.6200 C   0  0  0  0  0  0  0  0  0  0  0  0
  131.4700   75.8850  228.1390 C   0  0  0  0  0  0  0  0  0  0  0  0
  132.0430   77.1350  227.9430 C   0  0  0  0  0  0  0  0  0  0  0  0
  131.3000   78.6010  228.5830 Cl  0  0  0  0  0  0  0  0  0  0  0  0
  133.2360   77.2590  227.2240 C   0  0  0  0  0  0  0  0  0  0  0  0
  133.8240   76.1150  226.7200 C   0  0  0  0  0  0  0  0  0  0  0  0
  133.2720   74.8560  226.9030 C   0  0  0  0  0  0  0  0  0  0  0  0
  133.8840   73.7480  226.3880 N   0  0  0  0  0  0  0  0  0  0  0  0
  135.3310   72.4340  224.6990 H   0  0  0  0  0  0  0  0  0  0  0  0
  136.0600   69.6508  225.3264 H   0  0  0  0  0  0  0  0  0  0  0  0
  134.9351   69.6607  223.9401 H   0  0  0  0  0  0  0  0  0  0  0  0
  135.4864   69.8457  221.8057 H   0  0  0  0  0  0  0  0  0  0  0  0
  136.8089   69.1863  220.7461 H   0  0  0  0  0  0  0  0  0  0  0  0
  135.6753   67.8030  223.1756 H   0  0  0  0  0  0  0  0  0  0  0  0
  135.1918   67.5015  221.4500 H   0  0  0  0  0  0  0  0  0  0  0  0
  136.7680   65.8652  222.2532 H   0  0  0  0  0  0  0  0  0  0  0  0
  137.4324   66.9517  220.9072 H   0  0  0  0  0  0  0  0  0  0  0  0
  138.0511   67.3730  223.7710 H   0  0  0  0  0  0  0  0  0  0  0  0
  138.9749   66.2354  222.6439 H   0  0  0  0  0  0  0  0  0  0  0  0
  140.2456   68.0602  222.5543 H   0  0  0  0  0  0  0  0  0  0  0  0
  139.0797   68.3002  221.1601 H   0  0  0  0  0  0  0  0  0  0  0  0
  139.2700   70.4192  222.1864 H   0  0  0  0  0  0  0  0  0  0  0  0
  140.3885   71.6881  223.6832 H   0  0  0  0  0  0  0  0  0  0  0  0
  141.2926   72.0089  225.9540 H   0  0  0  0  0  0  0  0  0  0  0  0
  140.7964   70.3754  227.7686 H   0  0  0  0  0  0  0  0  0  0  0  0
  139.3710   68.4111  227.2202 H   0  0  0  0  0  0  0  0  0  0  0  0
  138.4767   68.0913  224.9689 H   0  0  0  0  0  0  0  0  0  0  0  0
  131.7584   71.4046  227.4021 H   0  0  0  0  0  0  0  0  0  0  0  0
  130.5963   73.3619  228.3611 H   0  0  0  0  0  0  0  0  0  0  0  0
  130.5309   75.7932  228.7044 H   0  0  0  0  0  0  0  0  0  0  0  0
  133.6959   78.2453  227.0634 H   0  0  0  0  0  0  0  0  0  0  0  0
  134.7627   76.2059  226.1538 H   0  0  0  0  0  0  0  0  0  0  0  0
  1  2  2  0
  2  3  1  0
  3  4  1  0
  4  5  1  0
  5  6  2  0
  5  7  1  0
  7  8  1  0
  8  9  1  0
  9 10  1  0
 10 11  1  0
 11 12  1  0
 12 13  1  0
 13 14  1  0
 14 15  2  0
 15 16  1  0
 16 17  2  0
 17 18  1  0
 18 19  2  0
  2 20  1  0
 20 21  2  0
 21 22  1  0
 22 23  2  0
 23 24  1  0
 24 25  2  0
 25 26  1  0
 25 27  1  0
 27 28  2  0
 28 29  1  0
 29 30  2  0
 13  7  1  0
 19 14  1  0
 30 20  1  0
 29 23  1  0
  3 31  1  0
  4 32  1  0
  4 33  1  0
  8 34  1  0
  8 35  1  0
  9 36  1  0
  9 37  1  0
 10 38  1  0
 10 39  1  0
 11 40  1  0
 11 41  1  0
 12 42  1  0
 12 43  1  0
 13 44  1  6
 15 45  1  0
 16 46  1  0
 17 47  1  0
 18 48  1  0
 19 49  1  0
 21 50  1  0
 22 51  1  0
 24 52  1  0
 27 53  1  0
 28 54  1  0
M  END
>  <smiles>  (48) 
O=C(NCC(=O)N1CCCCCC1c1ccccc1)c1ccc2cc(Cl)ccc2n1

>  <score_type>  (48) 
oracle

>  <origin>  (48) 
autodockgpu

>  <m_score__min__energy>  (48) 
-6.9699999999999998

>  <m_primary>  (48) 
energy

>  <rmsd>  (48) 
8.52853944542319

>  <m_score__min__rmsd>  (48) 
8.52853944542319

>  <meeko>  (48) 
{"free_energy": -5.48, "intermolecular_energy": -8.76, "internal_energy": -2.19, "cluster_size": 1, "cluster_id": 11, "rank_in_cluster": 1}

>  <energy>  (48) 
-4.59

>  <cluster_rmsd>  (48) 
0.0

>  <cluster>  (48) 
15

$$$$

     RDKit          3D

 54 57  0  0  0  0  0  0  0  0999 V2000
  139.8930   72.4140  220.6810 O   0  0  0  0  0  0  0  0  0  0  0  0
  139.7940   72.8340  221.8800 C   0  0  0  0  0  0  0  0  0  0  0  0
  139.5990   74.2210  222.1730 N   0  0  0  0  0  0  0  0  0  0  0  0
  139.5160   75.1530  221.0320 C   0  0  0  0  0  0  0  0  0  0  0  0
  140.0360   76.4640  221.4740 C   0  0  0  0  0  0  0  0  0  0  0  0
  140.1940   76.7740  222.6950 O   0  0  0  0  0  0  0  0  0  0  0  0
  140.4130   77.5120  220.5460 N   0  0  0  0  0  0  0  0  0  0  0  0
  141.1320   76.9590  219.4160 C   0  0  0  0  0  0  0  0  0  0  0  0
  142.3480   77.7490  219.0740 C   0  0  0  0  0  0  0  0  0  0  0  0
  142.1240   79.2130  219.2150 C   0  0  0  0  0  0  0  0  0  0  0  0
  140.8270   79.7390  218.7420 C   0  0  0  0  0  0  0  0  0  0  0  0
  139.6840   79.6210  219.6880 C   0  0  0  0  0  0  0  0  0  0  0  0
  139.9930   78.8310  220.9370 C   0  0  2  0  0  0  0  0  0  0  0  0
  140.9050   79.5550  221.8420 C   0  0  0  0  0  0  0  0  0  0  0  0
  142.0240   79.0030  222.4270 C   0  0  0  0  0  0  0  0  0  0  0  0
  142.8460   79.7240  223.2930 C   0  0  0  0  0  0  0  0  0  0  0  0
  142.5750   81.0370  223.6060 C   0  0  0  0  0  0  0  0  0  0  0  0
  141.4600   81.6040  223.0290 C   0  0  0  0  0  0  0  0  0  0  0  0
  140.6520   80.8890  222.1750 C   0  0  0  0  0  0  0  0  0  0  0  0
  139.8810   71.8800  222.9780 C   0  0  0  0  0  0  0  0  0  0  0  0
  139.4550   70.5830  222.8110 C   0  0  0  0  0  0  0  0  0  0  0  0
  139.5120   69.6360  223.8150 C   0  0  0  0  0  0  0  0  0  0  0  0
  140.0230   70.0130  225.0430 C   0  0  0  0  0  0  0  0  0  0  0  0
  140.1080   69.1070  226.0970 C   0  0  0  0  0  0  0  0  0  0  0  0
  140.6250   69.5100  227.3210 C   0  0  0  0  0  0  0  0  0  0  0  0
  140.7510   68.3960  228.6830 Cl  0  0  0  0  0  0  0  0  0  0  0  0
  141.0610   70.8270  227.5030 C   0  0  0  0  0  0  0  0  0  0  0  0
  140.9650   71.7050  226.4410 C   0  0  0  0  0  0  0  0  0  0  0  0
  140.4530   71.3260  225.2090 C   0  0  0  0  0  0  0  0  0  0  0  0
  140.3750   72.2250  224.1830 N   0  0  0  0  0  0  0  0  0  0  0  0
  139.5190   74.5510  223.1590 H   0  0  0  0  0  0  0  0  0  0  0  0
  140.1217   74.7740  220.1956 H   0  0  0  0  0  0  0  0  0  0  0  0
  138.4741   75.2499  220.6929 H   0  0  0  0  0  0  0  0  0  0  0  0
  141.4362   75.9305  219.6601 H   0  0  0  0  0  0  0  0  0  0  0  0
  140.4597   76.9851  218.5457 H   0  0  0  0  0  0  0  0  0  0  0  0
  143.1659   77.4493  219.7458 H   0  0  0  0  0  0  0  0  0  0  0  0
  142.5990   77.5451  218.0226 H   0  0  0  0  0  0  0  0  0  0  0  0
  142.2141   79.4617  220.2827 H   0  0  0  0  0  0  0  0  0  0  0  0
  142.8779   79.6824  218.5659 H   0  0  0  0  0  0  0  0  0  0  0  0
  140.9621   80.8059  218.5107 H   0  0  0  0  0  0  0  0  0  0  0  0
  140.5565   79.1177  217.8755 H   0  0  0  0  0  0  0  0  0  0  0  0
  139.3782   80.6343  219.9876 H   0  0  0  0  0  0  0  0  0  0  0  0
  138.8898   79.0754  219.1574 H   0  0  0  0  0  0  0  0  0  0  0  0
  139.0925   78.7070  221.5564 H   0  0  0  0  0  0  0  0  0  0  0  0
  142.2780   77.9564  222.2030 H   0  0  0  0  0  0  0  0  0  0  0  0
  143.7269   79.2346  223.7340 H   0  0  0  0  0  0  0  0  0  0  0  0
  143.2214   81.6090  224.2879 H   0  0  0  0  0  0  0  0  0  0  0  0
  141.2102   82.6510  223.2559 H   0  0  0  0  0  0  0  0  0  0  0  0
  139.7735   81.3860  221.7377 H   0  0  0  0  0  0  0  0  0  0  0  0
  139.0500   70.2860  221.8323 H   0  0  0  0  0  0  0  0  0  0  0  0
  139.1599   68.6084  223.6419 H   0  0  0  0  0  0  0  0  0  0  0  0
  139.7652   68.0708  225.9598 H   0  0  0  0  0  0  0  0  0  0  0  0
  141.4708   71.1556  228.4695 H   0  0  0  0  0  0  0  0  0  0  0  0
  141.3068   72.7417  226.5772 H   0  0  0  0  0  0  0  0  0  0  0  0
  1  2  2  0
  2  3  1  0
  3  4  1  0
  4  5  1  0
  5  6  2  0
  5  7  1  0
  7  8  1  0
  8  9  1  0
  9 10  1  0
 10 11  1  0
 11 12  1  0
 12 13  1  0
 13 14  1  0
 14 15  2  0
 15 16  1  0
 16 17  2  0
 17 18  1  0
 18 19  2  0
  2 20  1  0
 20 21  2  0
 21 22  1  0
 22 23  2  0
 23 24  1  0
 24 25  2  0
 25 26  1  0
 25 27  1  0
 27 28  2  0
 28 29  1  0
 29 30  2  0
 13  7  1  0
 19 14  1  0
 30 20  1  0
 29 23  1  0
  3 31  1  0
  4 32  1  0
  4 33  1  0
  8 34  1  0
  8 35  1  0
  9 36  1  0
  9 37  1  0
 10 38  1  0
 10 39  1  0
 11 40  1  0
 11 41  1  0
 12 42  1  0
 12 43  1  0
 13 44  1  1
 15 45  1  0
 16 46  1  0
 17 47  1  0
 18 48  1  0
 19 49  1  0
 21 50  1  0
 22 51  1  0
 24 52  1  0
 27 53  1  0
 28 54  1  0
M  END
>  <smiles>  (49) 
O=C(NCC(=O)N1CCCCCC1c1ccccc1)c1ccc2cc(Cl)ccc2n1

>  <score_type>  (49) 
oracle

>  <origin>  (49) 
autodockgpu

>  <m_score__min__energy>  (49) 
-6.9699999999999998

>  <m_primary>  (49) 
energy

>  <rmsd>  (49) 
2.293203142756597

>  <m_score__min__rmsd>  (49) 
2.293203142756597

>  <meeko>  (49) 
{"free_energy": -6.59, "intermolecular_energy": -9.87, "internal_energy": -1.82, "cluster_size": 15, "cluster_id": 1, "rank_in_cluster": 5}

>  <energy>  (49) 
-4.48

>  <cluster_rmsd>  (49) 
0.0

>  <cluster>  (49) 
16

$$$$

     RDKit          3D

 54 57  0  0  0  0  0  0  0  0999 V2000
  139.7160   73.7390  222.4730 O   0  0  0  0  0  0  0  0  0  0  0  0
  140.4490   74.3500  221.6290 C   0  0  0  0  0  0  0  0  0  0  0  0
  140.1470   75.6820  221.2020 N   0  0  0  0  0  0  0  0  0  0  0  0
  138.9510   76.3270  221.7780 C   0  0  0  0  0  0  0  0  0  0  0  0
  139.0900   77.7880  221.6020 C   0  0  0  0  0  0  0  0  0  0  0  0
  138.3990   78.4570  220.7740 O   0  0  0  0  0  0  0  0  0  0  0  0
  140.0310   78.5840  222.3650 N   0  0  0  0  0  0  0  0  0  0  0  0
  139.3310   79.4830  223.2600 C   0  0  0  0  0  0  0  0  0  0  0  0
  139.6960   80.9100  223.0320 C   0  0  0  0  0  0  0  0  0  0  0  0
  141.0530   81.2320  223.5510 C   0  0  0  0  0  0  0  0  0  0  0  0
  142.1950   80.5600  222.8970 C   0  0  0  0  0  0  0  0  0  0  0  0
  142.2650   79.0780  223.0580 C   0  0  0  0  0  0  0  0  0  0  0  0
  141.4130   78.3050  222.0800 C   0  0  2  0  0  0  0  0  0  0  0  0
  141.8380   78.5180  220.6840 C   0  0  0  0  0  0  0  0  0  0  0  0
  141.6660   79.6940  219.9870 C   0  0  0  0  0  0  0  0  0  0  0  0
  142.0680   79.8400  218.6590 C   0  0  0  0  0  0  0  0  0  0  0  0
  142.6630   78.8030  217.9760 C   0  0  0  0  0  0  0  0  0  0  0  0
  142.8420   77.6200  218.6580 C   0  0  0  0  0  0  0  0  0  0  0  0
  142.4440   77.4810  219.9680 C   0  0  0  0  0  0  0  0  0  0  0  0
  141.6220   73.6780  221.0850 C   0  0  0  0  0  0  0  0  0  0  0  0
  142.7740   74.3830  220.8280 C   0  0  0  0  0  0  0  0  0  0  0  0
  143.9160   73.8000  220.3130 C   0  0  0  0  0  0  0  0  0  0  0  0
  143.8940   72.4440  220.0440 C   0  0  0  0  0  0  0  0  0  0  0  0
  145.0120   71.7950  219.5240 C   0  0  0  0  0  0  0  0  0  0  0  0
  144.9650   70.4320  219.2630 C   0  0  0  0  0  0  0  0  0  0  0  0
  146.3560   69.5700  218.6040 Cl  0  0  0  0  0  0  0  0  0  0  0  0
  143.7980   69.7040  219.5200 C   0  0  0  0  0  0  0  0  0  0  0  0
  142.7050   70.3730  220.0360 C   0  0  0  0  0  0  0  0  0  0  0  0
  142.7270   71.7330  220.3060 C   0  0  0  0  0  0  0  0  0  0  0  0
  141.6240   72.3580  220.8160 N   0  0  0  0  0  0  0  0  0  0  0  0
  140.7560   76.1710  220.5110 H   0  0  0  0  0  0  0  0  0  0  0  0
  138.0488   75.9726  221.2579 H   0  0  0  0  0  0  0  0  0  0  0  0
  138.8594   76.0779  222.8455 H   0  0  0  0  0  0  0  0  0  0  0  0
  138.2486   79.3658  223.1030 H   0  0  0  0  0  0  0  0  0  0  0  0
  139.6194   79.2234  224.2893 H   0  0  0  0  0  0  0  0  0  0  0  0
  139.6724   81.1136  221.9513 H   0  0  0  0  0  0  0  0  0  0  0  0
  138.9701   81.5352  223.5726 H   0  0  0  0  0  0  0  0  0  0  0  0
  141.2006   82.3169  223.4451 H   0  0  0  0  0  0  0  0  0  0  0  0
  141.0586   80.8640  224.5876 H   0  0  0  0  0  0  0  0  0  0  0  0
  142.1420   80.7789  221.8203 H   0  0  0  0  0  0  0  0  0  0  0  0
  143.0937   80.9539  223.3943 H   0  0  0  0  0  0  0  0  0  0  0  0
  143.3114   78.7662  222.9245 H   0  0  0  0  0  0  0  0  0  0  0  0
  141.8758   78.8518  224.0617 H   0  0  0  0  0  0  0  0  0  0  0  0
  141.5511   77.2213  222.2084 H   0  0  0  0  0  0  0  0  0  0  0  0
  141.1950   80.5481  220.4956 H   0  0  0  0  0  0  0  0  0  0  0  0
  141.9067   80.8009  218.1484 H   0  0  0  0  0  0  0  0  0  0  0  0
  142.9821   78.9148  216.9292 H   0  0  0  0  0  0  0  0  0  0  0  0
  143.3129   76.7685  218.1450 H   0  0  0  0  0  0  0  0  0  0  0  0
  142.6090   76.5169  220.4713 H   0  0  0  0  0  0  0  0  0  0  0  0
  142.7872   75.4618  221.0424 H   0  0  0  0  0  0  0  0  0  0  0  0
  144.8187   74.3989  220.1221 H   0  0  0  0  0  0  0  0  0  0  0  0
  145.9320   72.3625  219.3202 H   0  0  0  0  0  0  0  0  0  0  0  0
  143.7520   68.6241  219.3159 H   0  0  0  0  0  0  0  0  0  0  0  0
  141.7843   69.8066  220.2400 H   0  0  0  0  0  0  0  0  0  0  0  0
  1  2  2  0
  2  3  1  0
  3  4  1  0
  4  5  1  0
  5  6  2  0
  5  7  1  0
  7  8  1  0
  8  9  1  0
  9 10  1  0
 10 11  1  0
 11 12  1  0
 12 13  1  0
 13 14  1  0
 14 15  2  0
 15 16  1  0
 16 17  2  0
 17 18  1  0
 18 19  2  0
  2 20  1  0
 20 21  2  0
 21 22  1  0
 22 23  2  0
 23 24  1  0
 24 25  2  0
 25 26  1  0
 25 27  1  0
 27 28  2  0
 28 29  1  0
 29 30  2  0
 13  7  1  0
 19 14  1  0
 30 20  1  0
 29 23  1  0
  3 31  1  0
  4 32  1  0
  4 33  1  0
  8 34  1  0
  8 35  1  0
  9 36  1  0
  9 37  1  0
 10 38  1  0
 10 39  1  0
 11 40  1  0
 11 41  1  0
 12 42  1  0
 12 43  1  0
 13 44  1  1
 15 45  1  0
 16 46  1  0
 17 47  1  0
 18 48  1  0
 19 49  1  0
 21 50  1  0
 22 51  1  0
 24 52  1  0
 27 53  1  0
 28 54  1  0
M  END
>  <smiles>  (50) 
O=C(NCC(=O)N1CCCCCC1c1ccccc1)c1ccc2cc(Cl)ccc2n1

>  <score_type>  (50) 
oracle

>  <origin>  (50) 
autodockgpu

>  <m_score__min__energy>  (50) 
-6.9699999999999998

>  <m_primary>  (50) 
energy

>  <rmsd>  (50) 
6.475964416636406

>  <m_score__min__rmsd>  (50) 
6.475964416636406

>  <meeko>  (50) 
{"free_energy": -5.02, "intermolecular_energy": -8.3, "internal_energy": -1.96, "cluster_size": 4, "cluster_id": 10, "rank_in_cluster": 2}

>  <energy>  (50) 
-4.1

>  <cluster_rmsd>  (50) 
0.99

>  <cluster>  (50) 
16

$$$$

     RDKit          3D

 54 57  0  0  0  0  0  0  0  0999 V2000
  139.4610   74.2170  221.9960 O   0  0  0  0  0  0  0  0  0  0  0  0
  140.6510   74.4090  221.6400 C   0  0  0  0  0  0  0  0  0  0  0  0
  141.1400   75.7570  221.8170 N   0  0  0  0  0  0  0  0  0  0  0  0
  140.3750   76.8060  222.3520 C   0  0  0  0  0  0  0  0  0  0  0  0
  139.6380   77.7210  221.5090 C   0  0  0  0  0  0  0  0  0  0  0  0
  138.3310   77.6200  221.6800 O   0  0  0  0  0  0  0  0  0  0  0  0
  140.0090   78.6720  220.5640 N   0  0  0  0  0  0  0  0  0  0  0  0
  139.1110   79.2840  219.6260 C   0  0  0  0  0  0  0  0  0  0  0  0
  139.1300   78.7130  218.2520 C   0  0  0  0  0  0  0  0  0  0  0  0
  140.3310   79.1620  217.4460 C   0  0  0  0  0  0  0  0  0  0  0  0
  141.6260   78.7550  218.1180 C   0  0  0  0  0  0  0  0  0  0  0  0
  141.9450   79.5860  219.3400 C   0  0  0  0  0  0  0  0  0  0  0  0
  141.4500   78.9950  220.6100 C   0  0  1  0  0  0  0  0  0  0  0  0
  141.7700   79.9050  221.7370 C   0  0  0  0  0  0  0  0  0  0  0  0
  142.6680   79.5720  222.7190 C   0  0  0  0  0  0  0  0  0  0  0  0
  142.9490   80.4420  223.7640 C   0  0  0  0  0  0  0  0  0  0  0  0
  142.3080   81.6660  223.8060 C   0  0  0  0  0  0  0  0  0  0  0  0
  141.3960   82.0400  222.8330 C   0  0  0  0  0  0  0  0  0  0  0  0
  141.1420   81.1450  221.8100 C   0  0  0  0  0  0  0  0  0  0  0  0
  141.5010   73.3600  221.0830 C   0  0  0  0  0  0  0  0  0  0  0  0
  140.8990   72.1470  220.8230 C   0  0  0  0  0  0  0  0  0  0  0  0
  141.6930   71.1250  220.2880 C   0  0  0  0  0  0  0  0  0  0  0  0
  143.0490   71.3680  220.0410 C   0  0  0  0  0  0  0  0  0  0  0  0
  143.8690   70.3900  219.5150 C   0  0  0  0  0  0  0  0  0  0  0  0
  145.2080   70.5830  219.2550 C   0  0  0  0  0  0  0  0  0  0  0  0
  146.2340   69.3260  218.5860 Cl  0  0  0  0  0  0  0  0  0  0  0  0
  145.7310   71.8450  219.5520 C   0  0  0  0  0  0  0  0  0  0  0  0
  144.9360   72.8480  220.0800 C   0  0  0  0  0  0  0  0  0  0  0  0
  143.5980   72.6220  220.3280 C   0  0  0  0  0  0  0  0  0  0  0  0
  142.8100   73.5860  220.8410 N   0  0  0  0  0  0  0  0  0  0  0  0
  142.1450   75.8800  221.4990 H   0  0  0  0  0  0  0  0  0  0  0  0
  139.6364   76.3394  223.0204 H   0  0  0  0  0  0  0  0  0  0  0  0
  141.1471   77.4594  222.7844 H   0  0  0  0  0  0  0  0  0  0  0  0
  138.0891   79.1831  220.0204 H   0  0  0  0  0  0  0  0  0  0  0  0
  139.4470   80.3264  219.5236 H   0  0  0  0  0  0  0  0  0  0  0  0
  139.1479   77.6158  218.3277 H   0  0  0  0  0  0  0  0  0  0  0  0
  138.2295   79.0717  217.7320 H   0  0  0  0  0  0  0  0  0  0  0  0
  140.2851   78.7024  216.4477 H   0  0  0  0  0  0  0  0  0  0  0  0
  140.3084   80.2591  217.3698 H   0  0  0  0  0  0  0  0  0  0  0  0
  141.5467   77.7008  218.4221 H   0  0  0  0  0  0  0  0  0  0  0  0
  142.4370   78.9135  217.3919 H   0  0  0  0  0  0  0  0  0  0  0  0
  143.0373   79.6951  219.4103 H   0  0  0  0  0  0  0  0  0  0  0  0
  141.4339   80.5519  219.2142 H   0  0  0  0  0  0  0  0  0  0  0  0
  141.9661   78.0357  220.7628 H   0  0  0  0  0  0  0  0  0  0  0  0
  143.1753   78.5968  222.6778 H   0  0  0  0  0  0  0  0  0  0  0  0
  143.6701   80.1617  224.5459 H   0  0  0  0  0  0  0  0  0  0  0  0
  142.5273   82.3592  224.6315 H   0  0  0  0  0  0  0  0  0  0  0  0
  140.8907   83.0163  222.8727 H   0  0  0  0  0  0  0  0  0  0  0  0
  140.4197   81.4222  221.0280 H   0  0  0  0  0  0  0  0  0  0  0  0
  139.8303   71.9874  221.0290 H   0  0  0  0  0  0  0  0  0  0  0  0
  141.2552   70.1410  220.0641 H   0  0  0  0  0  0  0  0  0  0  0  0
  143.4307   69.4060  219.2920 H   0  0  0  0  0  0  0  0  0  0  0  0
  146.7959   72.0452  219.3623 H   0  0  0  0  0  0  0  0  0  0  0  0
  145.3743   73.8319  220.3033 H   0  0  0  0  0  0  0  0  0  0  0  0
  1  2  2  0
  2  3  1  0
  3  4  1  0
  4  5  1  0
  5  6  2  0
  5  7  1  0
  7  8  1  0
  8  9  1  0
  9 10  1  0
 10 11  1  0
 11 12  1  0
 12 13  1  0
 13 14  1  0
 14 15  2  0
 15 16  1  0
 16 17  2  0
 17 18  1  0
 18 19  2  0
  2 20  1  0
 20 21  2  0
 21 22  1  0
 22 23  2  0
 23 24  1  0
 24 25  2  0
 25 26  1  0
 25 27  1  0
 27 28  2  0
 28 29  1  0
 29 30  2  0
 13  7  1  0
 19 14  1  0
 30 20  1  0
 29 23  1  0
  3 31  1  0
  4 32  1  0
  4 33  1  0
  8 34  1  0
  8 35  1  0
  9 36  1  0
  9 37  1  0
 10 38  1  0
 10 39  1  0
 11 40  1  0
 11 41  1  0
 12 42  1  0
 12 43  1  0
 13 44  1  1
 15 45  1  0
 16 46  1  0
 17 47  1  0
 18 48  1  0
 19 49  1  0
 21 50  1  0
 22 51  1  0
 24 52  1  0
 27 53  1  0
 28 54  1  0
M  END
>  <smiles>  (51) 
O=C(NCC(=O)N1CCCCCC1c1ccccc1)c1ccc2cc(Cl)ccc2n1

>  <score_type>  (51) 
oracle

>  <origin>  (51) 
autodockgpu

>  <m_score__min__energy>  (51) 
-6.6299999999999999

>  <m_primary>  (51) 
energy

>  <rmsd>  (51) 
5.506786871354779

>  <m_score__min__rmsd>  (51) 
5.506786871354779

>  <meeko>  (51) 
{"free_energy": -5.23, "intermolecular_energy": -8.51, "internal_energy": -1.93, "cluster_size": 1, "cluster_id": 7, "rank_in_cluster": 1}

>  <energy>  (51) 
-6.63

>  <cluster_rmsd>  (51) 
0.0

>  <cluster>  (51) 
1

$$$$

     RDKit          3D

 54 57  0  0  0  0  0  0  0  0999 V2000
  138.1270   79.3280  221.0510 O   0  0  0  0  0  0  0  0  0  0  0  0
  137.7610   79.2740  222.2530 C   0  0  0  0  0  0  0  0  0  0  0  0
  137.6650   77.9440  222.8090 N   0  0  0  0  0  0  0  0  0  0  0  0
  137.9570   76.7700  222.0960 C   0  0  0  0  0  0  0  0  0  0  0  0
  139.2910   76.4780  221.6190 C   0  0  0  0  0  0  0  0  0  0  0  0
  139.8470   75.4680  222.2660 O   0  0  0  0  0  0  0  0  0  0  0  0
  140.1050   77.0320  220.6360 N   0  0  0  0  0  0  0  0  0  0  0  0
  139.6870   77.3010  219.2890 C   0  0  0  0  0  0  0  0  0  0  0  0
  140.5430   76.7120  218.2220 C   0  0  0  0  0  0  0  0  0  0  0  0
  141.6560   77.6400  217.7830 C   0  0  0  0  0  0  0  0  0  0  0  0
  142.5180   78.0570  218.9560 C   0  0  0  0  0  0  0  0  0  0  0  0
  142.5080   77.0490  220.0840 C   0  0  0  0  0  0  0  0  0  0  0  0
  141.4720   77.3180  221.1150 C   0  0  1  0  0  0  0  0  0  0  0  0
  141.6030   78.7170  221.5940 C   0  0  0  0  0  0  0  0  0  0  0  0
  142.2900   79.0410  222.7350 C   0  0  0  0  0  0  0  0  0  0  0  0
  142.3960   80.3590  223.1620 C   0  0  0  0  0  0  0  0  0  0  0  0
  141.7950   81.3540  222.4150 C   0  0  0  0  0  0  0  0  0  0  0  0
  141.0930   81.0670  221.2570 C   0  0  0  0  0  0  0  0  0  0  0  0
  141.0080   79.7430  220.8660 C   0  0  0  0  0  0  0  0  0  0  0  0
  137.4510   80.4550  223.0520 C   0  0  0  0  0  0  0  0  0  0  0  0
  137.3710   81.6560  222.3790 C   0  0  0  0  0  0  0  0  0  0  0  0
  137.0730   82.8040  223.1230 C   0  0  0  0  0  0  0  0  0  0  0  0
  136.8710   82.6930  224.5030 C   0  0  0  0  0  0  0  0  0  0  0  0
  136.5750   83.7990  225.2760 C   0  0  0  0  0  0  0  0  0  0  0  0
  136.3680   83.7380  226.6360 C   0  0  0  0  0  0  0  0  0  0  0  0
  135.9940   85.1550  227.6020 Cl  0  0  0  0  0  0  0  0  0  0  0  0
  136.4700   82.4780  227.2330 C   0  0  0  0  0  0  0  0  0  0  0  0
  136.7640   81.3490  226.4870 C   0  0  0  0  0  0  0  0  0  0  0  0
  136.9660   81.4440  225.1260 C   0  0  0  0  0  0  0  0  0  0  0  0
  137.2530   80.3570  224.3840 N   0  0  0  0  0  0  0  0  0  0  0  0
  137.3480   77.9390  223.8230 H   0  0  0  0  0  0  0  0  0  0  0  0
  137.6733   75.9328  222.7507 H   0  0  0  0  0  0  0  0  0  0  0  0
  137.4034   76.9240  221.1580 H   0  0  0  0  0  0  0  0  0  0  0  0
  138.6688   76.9037  219.1644 H   0  0  0  0  0  0  0  0  0  0  0  0
  139.7560   78.3917  219.1636 H   0  0  0  0  0  0  0  0  0  0  0  0
  140.9906   75.7825  218.6037 H   0  0  0  0  0  0  0  0  0  0  0  0
  139.9018   76.5273  217.3475 H   0  0  0  0  0  0  0  0  0  0  0  0
  142.2838   77.1220  217.0430 H   0  0  0  0  0  0  0  0  0  0  0  0
  141.2040   78.5424  217.3456 H   0  0  0  0  0  0  0  0  0  0  0  0
  143.5531   78.1795  218.6044 H   0  0  0  0  0  0  0  0  0  0  0  0
  142.1047   78.9969  219.3506 H   0  0  0  0  0  0  0  0  0  0  0  0
  142.3231   76.0521  219.6575 H   0  0  0  0  0  0  0  0  0  0  0  0
  143.4853   77.1162  220.5844 H   0  0  0  0  0  0  0  0  0  0  0  0
  141.6421   76.6308  221.9569 H   0  0  0  0  0  0  0  0  0  0  0  0
  142.7662   78.2429  223.3235 H   0  0  0  0  0  0  0  0  0  0  0  0
  142.9494   80.6063  224.0799 H   0  0  0  0  0  0  0  0  0  0  0  0
  141.8763   82.3991  222.7485 H   0  0  0  0  0  0  0  0  0  0  0  0
  140.6186   81.8653  220.6674 H   0  0  0  0  0  0  0  0  0  0  0  0
  140.4523   79.4930  219.9502 H   0  0  0  0  0  0  0  0  0  0  0  0
  137.5360   81.7103  221.2928 H   0  0  0  0  0  0  0  0  0  0  0  0
  136.9984   83.7833  222.6276 H   0  0  0  0  0  0  0  0  0  0  0  0
  136.5009   84.7780  224.7800 H   0  0  0  0  0  0  0  0  0  0  0  0
  136.3135   82.3814  228.3175 H   0  0  0  0  0  0  0  0  0  0  0  0
  136.8369   80.3700  226.9832 H   0  0  0  0  0  0  0  0  0  0  0  0
  1  2  2  0
  2  3  1  0
  3  4  1  0
  4  5  1  0
  5  6  2  0
  5  7  1  0
  7  8  1  0
  8  9  1  0
  9 10  1  0
 10 11  1  0
 11 12  1  0
 12 13  1  0
 13 14  1  0
 14 15  2  0
 15 16  1  0
 16 17  2  0
 17 18  1  0
 18 19  2  0
  2 20  1  0
 20 21  2  0
 21 22  1  0
 22 23  2  0
 23 24  1  0
 24 25  2  0
 25 26  1  0
 25 27  1  0
 27 28  2  0
 28 29  1  0
 29 30  2  0
 13  7  1  0
 19 14  1  0
 30 20  1  0
 29 23  1  0
  3 31  1  0
  4 32  1  0
  4 33  1  0
  8 34  1  0
  8 35  1  0
  9 36  1  0
  9 37  1  0
 10 38  1  0
 10 39  1  0
 11 40  1  0
 11 41  1  0
 12 42  1  0
 12 43  1  0
 13 44  1  1
 15 45  1  0
 16 46  1  0
 17 47  1  0
 18 48  1  0
 19 49  1  0
 21 50  1  0
 22 51  1  0
 24 52  1  0
 27 53  1  0
 28 54  1  0
M  END
>  <smiles>  (52) 
O=C(NCC(=O)N1CCCCCC1c1ccccc1)c1ccc2cc(Cl)ccc2n1

>  <score_type>  (52) 
oracle

>  <origin>  (52) 
autodockgpu

>  <m_score__min__energy>  (52) 
-6.6299999999999999

>  <m_primary>  (52) 
energy

>  <rmsd>  (52) 
8.91819108530328

>  <m_score__min__rmsd>  (52) 
8.91819108530328

>  <meeko>  (52) 
{"free_energy": -4.57, "intermolecular_energy": -7.86, "internal_energy": -2.49, "cluster_size": 2, "cluster_id": 15, "rank_in_cluster": 2}

>  <energy>  (52) 
-6.16

>  <cluster_rmsd>  (52) 
0.51

>  <cluster>  (52) 
1

$$$$

     RDKit          3D

 54 57  0  0  0  0  0  0  0  0999 V2000
  138.9070   71.7530  220.6240 O   0  0  0  0  0  0  0  0  0  0  0  0
  138.9680   72.1830  221.8040 C   0  0  0  0  0  0  0  0  0  0  0  0
  138.7080   73.5960  221.9610 N   0  0  0  0  0  0  0  0  0  0  0  0
  138.3970   74.4610  220.8990 C   0  0  0  0  0  0  0  0  0  0  0  0
  139.3060   75.5020  220.4720 C   0  0  0  0  0  0  0  0  0  0  0  0
  138.9620   76.0240  219.3070 O   0  0  0  0  0  0  0  0  0  0  0  0
  140.4550   76.0630  221.0210 N   0  0  0  0  0  0  0  0  0  0  0  0
  140.5700   76.5200  222.3770 C   0  0  0  0  0  0  0  0  0  0  0  0
  141.3160   77.7950  222.5630 C   0  0  0  0  0  0  0  0  0  0  0  0
  140.8430   78.8930  221.6340 C   0  0  0  0  0  0  0  0  0  0  0  0
  141.2950   78.6400  220.2100 C   0  0  0  0  0  0  0  0  0  0  0  0
  142.2460   77.4750  220.0840 C   0  0  0  0  0  0  0  0  0  0  0  0
  141.5690   76.1530  220.0550 C   0  0  1  0  0  0  0  0  0  0  0  0
  142.5700   75.0790  220.2750 C   0  0  0  0  0  0  0  0  0  0  0  0
  143.9090   75.2650  220.0410 C   0  0  0  0  0  0  0  0  0  0  0  0
  144.8250   74.2430  220.2540 C   0  0  0  0  0  0  0  0  0  0  0  0
  144.3700   73.0210  220.7100 C   0  0  0  0  0  0  0  0  0  0  0  0
  143.0270   72.7940  220.9580 C   0  0  0  0  0  0  0  0  0  0  0  0
  142.1450   73.8360  220.7330 C   0  0  0  0  0  0  0  0  0  0  0  0
  139.2790   71.3370  222.9520 C   0  0  0  0  0  0  0  0  0  0  0  0
  138.9490   70.0020  222.8460 C   0  0  0  0  0  0  0  0  0  0  0  0
  139.2370   69.1690  223.9340 C   0  0  0  0  0  0  0  0  0  0  0  0
  139.8400   69.7130  225.0730 C   0  0  0  0  0  0  0  0  0  0  0  0
  140.1420   68.9280  226.1690 C   0  0  0  0  0  0  0  0  0  0  0  0
  140.7350   69.4190  227.3110 C   0  0  0  0  0  0  0  0  0  0  0  0
  141.1100   68.4060  228.6940 Cl  0  0  0  0  0  0  0  0  0  0  0  0
  141.0330   70.7850  227.3280 C   0  0  0  0  0  0  0  0  0  0  0  0
  140.7440   71.5990  226.2460 C   0  0  0  0  0  0  0  0  0  0  0  0
  140.1500   71.0760  225.1170 C   0  0  0  0  0  0  0  0  0  0  0  0
  139.8620   71.8530  224.0560 N   0  0  0  0  0  0  0  0  0  0  0  0
  138.7750   73.9220  222.9690 H   0  0  0  0  0  0  0  0  0  0  0  0
  138.2249   73.8218  220.0204 H   0  0  0  0  0  0  0  0  0  0  0  0
  137.5560   75.0398  221.3087 H   0  0  0  0  0  0  0  0  0  0  0  0
  139.5540   76.6608  222.7744 H   0  0  0  0  0  0  0  0  0  0  0  0
  141.1508   75.7505  222.9066 H   0  0  0  0  0  0  0  0  0  0  0  0
  141.1826   78.1318  223.6016 H   0  0  0  0  0  0  0  0  0  0  0  0
  142.3728   77.5971  222.3304 H   0  0  0  0  0  0  0  0  0  0  0  0
  139.7441   78.9355  221.6592 H   0  0  0  0  0  0  0  0  0  0  0  0
  141.2764   79.8457  221.9724 H   0  0  0  0  0  0  0  0  0  0  0  0
  140.4076   78.4347  219.5932 H   0  0  0  0  0  0  0  0  0  0  0  0
  141.8339   79.5384  219.8746 H   0  0  0  0  0  0  0  0  0  0  0  0
  142.8182   77.5928  219.1520 H   0  0  0  0  0  0  0  0  0  0  0  0
  142.8900   77.4873  220.9757 H   0  0  0  0  0  0  0  0  0  0  0  0
  141.1145   76.0254  219.0615 H   0  0  0  0  0  0  0  0  0  0  0  0
  144.2634   76.2411  219.6782 H   0  0  0  0  0  0  0  0  0  0  0  0
  145.8962   74.4041  220.0626 H   0  0  0  0  0  0  0  0  0  0  0  0
  145.0921   72.2088  220.8802 H   0  0  0  0  0  0  0  0  0  0  0  0
  142.6731   71.8181  221.3217 H   0  0  0  0  0  0  0  0  0  0  0  0
  141.0732   73.6765  220.9224 H   0  0  0  0  0  0  0  0  0  0  0  0
  138.4750   69.6046  221.9364 H   0  0  0  0  0  0  0  0  0  0  0  0
  138.9915   68.0975  223.8935 H   0  0  0  0  0  0  0  0  0  0  0  0
  139.8964   67.8566  226.1275 H   0  0  0  0  0  0  0  0  0  0  0  0
  141.5068   71.2219  228.2194 H   0  0  0  0  0  0  0  0  0  0  0  0
  140.9900   72.6703  226.2874 H   0  0  0  0  0  0  0  0  0  0  0  0
  1  2  2  0
  2  3  1  0
  3  4  1  0
  4  5  1  0
  5  6  2  0
  5  7  1  0
  7  8  1  0
  8  9  1  0
  9 10  1  0
 10 11  1  0
 11 12  1  0
 12 13  1  0
 13 14  1  0
 14 15  2  0
 15 16  1  0
 16 17  2  0
 17 18  1  0
 18 19  2  0
  2 20  1  0
 20 21  2  0
 21 22  1  0
 22 23  2  0
 23 24  1  0
 24 25  2  0
 25 26  1  0
 25 27  1  0
 27 28  2  0
 28 29  1  0
 29 30  2  0
 13  7  1  0
 19 14  1  0
 30 20  1  0
 29 23  1  0
  3 31  1  0
  4 32  1  0
  4 33  1  0
  8 34  1  0
  8 35  1  0
  9 36  1  0
  9 37  1  0
 10 38  1  0
 10 39  1  0
 11 40  1  0
 11 41  1  0
 12 42  1  0
 12 43  1  0
 13 44  1  6
 15 45  1  0
 16 46  1  0
 17 47  1  0
 18 48  1  0
 19 49  1  0
 21 50  1  0
 22 51  1  0
 24 52  1  0
 27 53  1  0
 28 54  1  0
M  END
>  <smiles>  (53) 
O=C(NCC(=O)N1CCCCCC1c1ccccc1)c1ccc2cc(Cl)ccc2n1

>  <score_type>  (53) 
oracle

>  <origin>  (53) 
autodockgpu

>  <m_score__min__energy>  (53) 
-6.6299999999999999

>  <m_primary>  (53) 
energy

>  <rmsd>  (53) 
2.6248970981499067

>  <m_score__min__rmsd>  (53) 
2.6248970981499067

>  <meeko>  (53) 
{"free_energy": -6.03, "intermolecular_energy": -9.31, "internal_energy": -2.16, "cluster_size": 11, "cluster_id": 2, "rank_in_cluster": 4}

>  <energy>  (53) 
-6.11

>  <cluster_rmsd>  (53) 
0.71

>  <cluster>  (53) 
1

$$$$

     RDKit          3D

 54 57  0  0  0  0  0  0  0  0999 V2000
  138.0760   80.3200  221.0270 O   0  0  0  0  0  0  0  0  0  0  0  0
  138.0110   80.1150  222.2650 C   0  0  0  0  0  0  0  0  0  0  0  0
  138.4880   78.8240  222.7040 N   0  0  0  0  0  0  0  0  0  0  0  0
  139.0020   77.8410  221.8420 C   0  0  0  0  0  0  0  0  0  0  0  0
  140.4000   77.4690  221.8570 C   0  0  0  0  0  0  0  0  0  0  0  0
  140.8200   77.1390  223.0660 O   0  0  0  0  0  0  0  0  0  0  0  0
  141.3850   77.3900  220.8780 N   0  0  0  0  0  0  0  0  0  0  0  0
  141.8400   76.1680  220.2760 C   0  0  0  0  0  0  0  0  0  0  0  0
  142.0540   76.2180  218.8040 C   0  0  0  0  0  0  0  0  0  0  0  0
  141.0520   77.1060  218.0950 C   0  0  0  0  0  0  0  0  0  0  0  0
  141.5320   78.5410  218.0410 C   0  0  0  0  0  0  0  0  0  0  0  0
  141.2720   79.3000  219.3220 C   0  0  0  0  0  0  0  0  0  0  0  0
  141.9390   78.7090  220.5110 C   0  0  1  0  0  0  0  0  0  0  0  0
  141.8680   79.6660  221.6450 C   0  0  0  0  0  0  0  0  0  0  0  0
  141.0610   80.7740  221.6210 C   0  0  0  0  0  0  0  0  0  0  0  0
  141.0140   81.6530  222.6940 C   0  0  0  0  0  0  0  0  0  0  0  0
  141.7970   81.3970  223.8040 C   0  0  0  0  0  0  0  0  0  0  0  0
  142.6240   80.2890  223.8670 C   0  0  0  0  0  0  0  0  0  0  0  0
  142.6440   79.4370  222.7770 C   0  0  0  0  0  0  0  0  0  0  0  0
  137.4940   81.0960  223.2150 C   0  0  0  0  0  0  0  0  0  0  0  0
  137.2480   82.3620  222.7270 C   0  0  0  0  0  0  0  0  0  0  0  0
  136.7520   83.3210  223.6180 C   0  0  0  0  0  0  0  0  0  0  0  0
  136.5280   82.9660  224.9530 C   0  0  0  0  0  0  0  0  0  0  0  0
  136.0390   83.8800  225.8660 C   0  0  0  0  0  0  0  0  0  0  0  0
  135.8030   83.5760  227.1890 C   0  0  0  0  0  0  0  0  0  0  0  0
  135.1830   84.7520  228.3340 Cl  0  0  0  0  0  0  0  0  0  0  0  0
  136.0830   82.2670  227.5940 C   0  0  0  0  0  0  0  0  0  0  0  0
  136.5730   81.3270  226.7030 C   0  0  0  0  0  0  0  0  0  0  0  0
  136.7980   81.6640  225.3850 C   0  0  0  0  0  0  0  0  0  0  0  0
  137.2740   80.7620  224.5050 N   0  0  0  0  0  0  0  0  0  0  0  0
  138.4110   78.6870  223.7540 H   0  0  0  0  0  0  0  0  0  0  0  0
  138.4355   76.9213  222.0497 H   0  0  0  0  0  0  0  0  0  0  0  0
  138.8984   78.3182  220.8563 H   0  0  0  0  0  0  0  0  0  0  0  0
  142.7949   75.8932  220.7478 H   0  0  0  0  0  0  0  0  0  0  0  0
  141.0366   75.4345  220.4389 H   0  0  0  0  0  0  0  0  0  0  0  0
  143.0655   76.6038  218.6088 H   0  0  0  0  0  0  0  0  0  0  0  0
  141.9248   75.1970  218.4156 H   0  0  0  0  0  0  0  0  0  0  0  0
  140.9090   76.7369  217.0687 H   0  0  0  0  0  0  0  0  0  0  0  0
  140.1050   77.0769  218.6539 H   0  0  0  0  0  0  0  0  0  0  0  0
  142.6148   78.5412  217.8472 H   0  0  0  0  0  0  0  0  0  0  0  0
  140.9711   79.0454  217.2404 H   0  0  0  0  0  0  0  0  0  0  0  0
  141.6362   80.3302  219.1955 H   0  0  0  0  0  0  0  0  0  0  0  0
  140.1884   79.2583  219.5067 H   0  0  0  0  0  0  0  0  0  0  0  0
  142.9935   78.5289  220.2550 H   0  0  0  0  0  0  0  0  0  0  0  0
  140.4393   80.9700  220.7350 H   0  0  0  0  0  0  0  0  0  0  0  0
  140.3638   82.5396  222.6616 H   0  0  0  0  0  0  0  0  0  0  0  0
  141.7620   82.0902  224.6574 H   0  0  0  0  0  0  0  0  0  0  0  0
  143.2445   80.0924  224.7538 H   0  0  0  0  0  0  0  0  0  0  0  0
  143.2942   78.5502  222.8063 H   0  0  0  0  0  0  0  0  0  0  0  0
  137.4354   82.6103  221.6719 H   0  0  0  0  0  0  0  0  0  0  0  0
  136.5404   84.3436  223.2722 H   0  0  0  0  0  0  0  0  0  0  0  0
  135.8273   84.9022  225.5193 H   0  0  0  0  0  0  0  0  0  0  0  0
  135.9105   81.9783  228.6413 H   0  0  0  0  0  0  0  0  0  0  0  0
  136.7842   80.3044  227.0490 H   0  0  0  0  0  0  0  0  0  0  0  0
  1  2  2  0
  2  3  1  0
  3  4  1  0
  4  5  1  0
  5  6  2  0
  5  7  1  0
  7  8  1  0
  8  9  1  0
  9 10  1  0
 10 11  1  0
 11 12  1  0
 12 13  1  0
 13 14  1  0
 14 15  2  0
 15 16  1  0
 16 17  2  0
 17 18  1  0
 18 19  2  0
  2 20  1  0
 20 21  2  0
 21 22  1  0
 22 23  2  0
 23 24  1  0
 24 25  2  0
 25 26  1  0
 25 27  1  0
 27 28  2  0
 28 29  1  0
 29 30  2  0
 13  7  1  0
 19 14  1  0
 30 20  1  0
 29 23  1  0
  3 31  1  0
  4 32  1  0
  4 33  1  0
  8 34  1  0
  8 35  1  0
  9 36  1  0
  9 37  1  0
 10 38  1  0
 10 39  1  0
 11 40  1  0
 11 41  1  0
 12 42  1  0
 12 43  1  0
 13 44  1  6
 15 45  1  0
 16 46  1  0
 17 47  1  0
 18 48  1  0
 19 49  1  0
 21 50  1  0
 22 51  1  0
 24 52  1  0
 27 53  1  0
 28 54  1  0
M  END
>  <smiles>  (54) 
O=C(NCC(=O)N1CCCCCC1c1ccccc1)c1ccc2cc(Cl)ccc2n1

>  <score_type>  (54) 
oracle

>  <origin>  (54) 
autodockgpu

>  <m_score__min__energy>  (54) 
-6.6299999999999999

>  <m_primary>  (54) 
energy

>  <rmsd>  (54) 
9.262527309155145

>  <m_score__min__rmsd>  (54) 
9.262527309155145

>  <meeko>  (54) 
{"free_energy": -4.77, "intermolecular_energy": -8.06, "internal_energy": -2.6, "cluster_size": 2, "cluster_id": 15, "rank_in_cluster": 1}

>  <energy>  (54) 
-6.1

>  <cluster_rmsd>  (54) 
0.93

>  <cluster>  (54) 
1

$$$$

     RDKit          3D

 54 57  0  0  0  0  0  0  0  0999 V2000
  140.0970   72.4400  220.6160 O   0  0  0  0  0  0  0  0  0  0  0  0
  139.5410   72.6220  221.7290 C   0  0  0  0  0  0  0  0  0  0  0  0
  138.6830   73.7810  221.8070 N   0  0  0  0  0  0  0  0  0  0  0  0
  138.4520   74.6630  220.7380 C   0  0  0  0  0  0  0  0  0  0  0  0
  139.1970   75.8940  220.5900 C   0  0  0  0  0  0  0  0  0  0  0  0
  138.6510   76.7090  219.7040 O   0  0  0  0  0  0  0  0  0  0  0  0
  140.3560   76.3940  221.1750 N   0  0  0  0  0  0  0  0  0  0  0  0
  140.5340   76.6000  222.5840 C   0  0  0  0  0  0  0  0  0  0  0  0
  141.0720   77.9320  222.9760 C   0  0  0  0  0  0  0  0  0  0  0  0
  140.5560   79.0540  222.1000 C   0  0  0  0  0  0  0  0  0  0  0  0
  141.3340   79.1420  220.8030 C   0  0  0  0  0  0  0  0  0  0  0  0
  142.1930   77.9170  220.5520 C   0  0  0  0  0  0  0  0  0  0  0  0
  141.4080   76.7090  220.1870 C   0  0  1  0  0  0  0  0  0  0  0  0
  142.3300   75.5630  219.9860 C   0  0  0  0  0  0  0  0  0  0  0  0
  143.2250   75.5130  218.9490 C   0  0  0  0  0  0  0  0  0  0  0  0
  144.0760   74.4280  218.7840 C   0  0  0  0  0  0  0  0  0  0  0  0
  144.0120   73.3840  219.6870 C   0  0  0  0  0  0  0  0  0  0  0  0
  143.1220   73.3970  220.7470 C   0  0  0  0  0  0  0  0  0  0  0  0
  142.2900   74.4950  220.8780 C   0  0  0  0  0  0  0  0  0  0  0  0
  139.7330   71.7400  222.8760 C   0  0  0  0  0  0  0  0  0  0  0  0
  139.3650   70.4210  222.7120 C   0  0  0  0  0  0  0  0  0  0  0  0
  139.5400   69.5550  223.7980 C   0  0  0  0  0  0  0  0  0  0  0  0
  140.0720   70.0510  224.9930 C   0  0  0  0  0  0  0  0  0  0  0  0
  140.2620   69.2330  226.0890 C   0  0  0  0  0  0  0  0  0  0  0  0
  140.7830   69.6770  227.2850 C   0  0  0  0  0  0  0  0  0  0  0  0
  141.0150   68.6210  228.6670 Cl  0  0  0  0  0  0  0  0  0  0  0  0
  141.1270   71.0300  227.3580 C   0  0  0  0  0  0  0  0  0  0  0  0
  140.9500   71.8770  226.2770 C   0  0  0  0  0  0  0  0  0  0  0  0
  140.4260   71.4010  225.0940 C   0  0  0  0  0  0  0  0  0  0  0  0
  140.2470   72.2100  224.0330 N   0  0  0  0  0  0  0  0  0  0  0  0
  138.2360   73.9040  222.7630 H   0  0  0  0  0  0  0  0  0  0  0  0
  138.6247   74.0851  219.8181 H   0  0  0  0  0  0  0  0  0  0  0  0
  137.4375   75.0294  220.9536 H   0  0  0  0  0  0  0  0  0  0  0  0
  139.5558   76.4734  223.0709 H   0  0  0  0  0  0  0  0  0  0  0  0
  141.2877   75.8650  222.9030 H   0  0  0  0  0  0  0  0  0  0  0  0
  140.7806   78.1363  224.0168 H   0  0  0  0  0  0  0  0  0  0  0  0
  142.1650   77.8955  222.8580 H   0  0  0  0  0  0  0  0  0  0  0  0
  139.4960   78.8707  221.8703 H   0  0  0  0  0  0  0  0  0  0  0  0
  140.6781   80.0027  222.6432 H   0  0  0  0  0  0  0  0  0  0  0  0
  140.6216   79.2487  219.9717 H   0  0  0  0  0  0  0  0  0  0  0  0
  142.0059   80.0099  220.8765 H   0  0  0  0  0  0  0  0  0  0  0  0
  142.8889   78.1418  219.7303 H   0  0  0  0  0  0  0  0  0  0  0  0
  142.7177   77.6909  221.4919 H   0  0  0  0  0  0  0  0  0  0  0  0
  140.8795   76.9174  219.2451 H   0  0  0  0  0  0  0  0  0  0  0  0
  143.2700   76.3479  218.2342 H   0  0  0  0  0  0  0  0  0  0  0  0
  144.7898   74.4001  217.9475 H   0  0  0  0  0  0  0  0  0  0  0  0
  144.6841   72.5224  219.5605 H   0  0  0  0  0  0  0  0  0  0  0  0
  143.0775   72.5620  221.4617 H   0  0  0  0  0  0  0  0  0  0  0  0
  141.5747   74.5248  221.7131 H   0  0  0  0  0  0  0  0  0  0  0  0
  138.9480   70.0614  221.7598 H   0  0  0  0  0  0  0  0  0  0  0  0
  139.2617   68.4942  223.7124 H   0  0  0  0  0  0  0  0  0  0  0  0
  139.9831   68.1724  226.0031 H   0  0  0  0  0  0  0  0  0  0  0  0
  141.5467   71.4298  228.2929 H   0  0  0  0  0  0  0  0  0  0  0  0
  141.2295   72.9374  226.3628 H   0  0  0  0  0  0  0  0  0  0  0  0
  1  2  2  0
  2  3  1  0
  3  4  1  0
  4  5  1  0
  5  6  2  0
  5  7  1  0
  7  8  1  0
  8  9  1  0
  9 10  1  0
 10 11  1  0
 11 12  1  0
 12 13  1  0
 13 14  1  0
 14 15  2  0
 15 16  1  0
 16 17  2  0
 17 18  1  0
 18 19  2  0
  2 20  1  0
 20 21  2  0
 21 22  1  0
 22 23  2  0
 23 24  1  0
 24 25  2  0
 25 26  1  0
 25 27  1  0
 27 28  2  0
 28 29  1  0
 29 30  2  0
 13  7  1  0
 19 14  1  0
 30 20  1  0
 29 23  1  0
  3 31  1  0
  4 32  1  0
  4 33  1  0
  8 34  1  0
  8 35  1  0
  9 36  1  0
  9 37  1  0
 10 38  1  0
 10 39  1  0
 11 40  1  0
 11 41  1  0
 12 42  1  0
 12 43  1  0
 13 44  1  6
 15 45  1  0
 16 46  1  0
 17 47  1  0
 18 48  1  0
 19 49  1  0
 21 50  1  0
 22 51  1  0
 24 52  1  0
 27 53  1  0
 28 54  1  0
M  END
>  <smiles>  (55) 
O=C(NCC(=O)N1CCCCCC1c1ccccc1)c1ccc2cc(Cl)ccc2n1

>  <score_type>  (55) 
oracle

>  <origin>  (55) 
autodockgpu

>  <m_score__min__energy>  (55) 
-6.6299999999999999

>  <m_primary>  (55) 
energy

>  <rmsd>  (55) 
2.833166171016835

>  <m_score__min__rmsd>  (55) 
2.833166171016835

>  <meeko>  (55) 
{"free_energy": -5.29, "intermolecular_energy": -8.57, "internal_energy": -2.11, "cluster_size": 11, "cluster_id": 2, "rank_in_cluster": 10}

>  <energy>  (55) 
-6.1

>  <cluster_rmsd>  (55) 
0.89

>  <cluster>  (55) 
1

$$$$

     RDKit          3D

 54 57  0  0  0  0  0  0  0  0999 V2000
  140.1760   72.1250  220.9400 O   0  0  0  0  0  0  0  0  0  0  0  0
  139.9640   72.4620  222.1320 C   0  0  0  0  0  0  0  0  0  0  0  0
  139.6690   73.8620  222.3360 N   0  0  0  0  0  0  0  0  0  0  0  0
  139.6080   74.8100  221.3020 C   0  0  0  0  0  0  0  0  0  0  0  0
  139.5240   76.2290  221.5720 C   0  0  0  0  0  0  0  0  0  0  0  0
  138.9450   76.4870  222.7320 O   0  0  0  0  0  0  0  0  0  0  0  0
  139.9190   77.3670  220.8750 N   0  0  0  0  0  0  0  0  0  0  0  0
  139.0610   78.1350  220.0180 C   0  0  0  0  0  0  0  0  0  0  0  0
  139.0750   77.7480  218.5810 C   0  0  0  0  0  0  0  0  0  0  0  0
  140.4540   77.8410  217.9610 C   0  0  0  0  0  0  0  0  0  0  0  0
  141.4500   76.9750  218.7050 C   0  0  0  0  0  0  0  0  0  0  0  0
  142.1320   77.7050  219.8410 C   0  0  0  0  0  0  0  0  0  0  0  0
  141.3370   77.7140  221.0970 C   0  0  1  0  0  0  0  0  0  0  0  0
  141.4790   79.0330  221.7630 C   0  0  0  0  0  0  0  0  0  0  0  0
  141.4260   79.1770  223.1250 C   0  0  0  0  0  0  0  0  0  0  0  0
  141.5620   80.4230  223.7230 C   0  0  0  0  0  0  0  0  0  0  0  0
  141.7540   81.5330  222.9210 C   0  0  0  0  0  0  0  0  0  0  0  0
  141.8140   81.4280  221.5420 C   0  0  0  0  0  0  0  0  0  0  0  0
  141.6740   80.1700  220.9840 C   0  0  0  0  0  0  0  0  0  0  0  0
  140.0050   71.5250  223.2510 C   0  0  0  0  0  0  0  0  0  0  0  0
  139.5320   70.2520  223.0110 C   0  0  0  0  0  0  0  0  0  0  0  0
  139.5620   69.3340  224.0680 C   0  0  0  0  0  0  0  0  0  0  0  0
  140.0620   69.7360  225.3120 C   0  0  0  0  0  0  0  0  0  0  0  0
  140.1100   68.8640  226.3820 C   0  0  0  0  0  0  0  0  0  0  0  0
  140.5930   69.2150  227.6230 C   0  0  0  0  0  0  0  0  0  0  0  0
  140.6460   68.0920  228.9710 Cl  0  0  0  0  0  0  0  0  0  0  0  0
  141.0510   70.5270  227.7730 C   0  0  0  0  0  0  0  0  0  0  0  0
  141.0170   71.4260  226.7200 C   0  0  0  0  0  0  0  0  0  0  0  0
  140.5270   71.0430  225.4890 C   0  0  0  0  0  0  0  0  0  0  0  0
  140.4870   71.9040  224.4540 N   0  0  0  0  0  0  0  0  0  0  0  0
  139.5020   74.1080  223.3550 H   0  0  0  0  0  0  0  0  0  0  0  0
  140.5141   74.6642  220.6956 H   0  0  0  0  0  0  0  0  0  0  0  0
  138.6268   74.6002  220.8512 H   0  0  0  0  0  0  0  0  0  0  0  0
  138.0303   78.0284  220.3873 H   0  0  0  0  0  0  0  0  0  0  0  0
  139.4423   79.1661  220.0559 H   0  0  0  0  0  0  0  0  0  0  0  0
  138.7194   76.7108  218.4929 H   0  0  0  0  0  0  0  0  0  0  0  0
  138.4219   78.4506  218.0426 H   0  0  0  0  0  0  0  0  0  0  0  0
  140.3999   77.5069  216.9144 H   0  0  0  0  0  0  0  0  0  0  0  0
  140.7912   78.8865  218.0181 H   0  0  0  0  0  0  0  0  0  0  0  0
  140.9191   76.1038  219.1162 H   0  0  0  0  0  0  0  0  0  0  0  0
  142.2297   76.6785  217.9880 H   0  0  0  0  0  0  0  0  0  0  0  0
  143.0961   77.2149  220.0418 H   0  0  0  0  0  0  0  0  0  0  0  0
  142.2560   78.7519  219.5270 H   0  0  0  0  0  0  0  0  0  0  0  0
  141.7360   76.9307  221.7583 H   0  0  0  0  0  0  0  0  0  0  0  0
  141.2729   78.2892  223.7561 H   0  0  0  0  0  0  0  0  0  0  0  0
  141.5177   80.5253  224.8173 H   0  0  0  0  0  0  0  0  0  0  0  0
  141.8615   82.5223  223.3897 H   0  0  0  0  0  0  0  0  0  0  0  0
  141.9679   82.3156  220.9108 H   0  0  0  0  0  0  0  0  0  0  0  0
  141.7182   80.0648  219.8899 H   0  0  0  0  0  0  0  0  0  0  0  0
  139.1440   69.9671  222.0219 H   0  0  0  0  0  0  0  0  0  0  0  0
  139.1962   68.3069  223.9221 H   0  0  0  0  0  0  0  0  0  0  0  0
  139.7439   67.8371  226.2355 H   0  0  0  0  0  0  0  0  0  0  0  0
  141.4463   70.8520  228.7467 H   0  0  0  0  0  0  0  0  0  0  0  0
  141.3834   72.4528  226.8665 H   0  0  0  0  0  0  0  0  0  0  0  0
  1  2  2  0
  2  3  1  0
  3  4  1  0
  4  5  1  0
  5  6  2  0
  5  7  1  0
  7  8  1  0
  8  9  1  0
  9 10  1  0
 10 11  1  0
 11 12  1  0
 12 13  1  0
 13 14  1  0
 14 15  2  0
 15 16  1  0
 16 17  2  0
 17 18  1  0
 18 19  2  0
  2 20  1  0
 20 21  2  0
 21 22  1  0
 22 23  2  0
 23 24  1  0
 24 25  2  0
 25 26  1  0
 25 27  1  0
 27 28  2  0
 28 29  1  0
 29 30  2  0
 13  7  1  0
 19 14  1  0
 30 20  1  0
 29 23  1  0
  3 31  1  0
  4 32  1  0
  4 33  1  0
  8 34  1  0
  8 35  1  0
  9 36  1  0
  9 37  1  0
 10 38  1  0
 10 39  1  0
 11 40  1  0
 11 41  1  0
 12 42  1  0
 12 43  1  0
 13 44  1  1
 15 45  1  0
 16 46  1  0
 17 47  1  0
 18 48  1  0
 19 49  1  0
 21 50  1  0
 22 51  1  0
 24 52  1  0
 27 53  1  0
 28 54  1  0
M  END
>  <smiles>  (56) 
O=C(NCC(=O)N1CCCCCC1c1ccccc1)c1ccc2cc(Cl)ccc2n1

>  <score_type>  (56) 
oracle

>  <origin>  (56) 
autodockgpu

>  <m_score__min__energy>  (56) 
-6.6299999999999999

>  <m_primary>  (56) 
energy

>  <rmsd>  (56) 
2.016572866831817

>  <m_score__min__rmsd>  (56) 
2.016572866831817

>  <meeko>  (56) 
{"free_energy": -6.16, "intermolecular_energy": -9.44, "internal_energy": -1.88, "cluster_size": 7, "cluster_id": 1, "rank_in_cluster": 2}

>  <energy>  (56) 
-5.59

>  <cluster_rmsd>  (56) 
1.71

>  <cluster>  (56) 
1

$$$$

     RDKit          3D

 54 57  0  0  0  0  0  0  0  0999 V2000
  137.9410   72.6500  220.9690 O   0  0  0  0  0  0  0  0  0  0  0  0
  137.6950   73.2700  222.0350 C   0  0  0  0  0  0  0  0  0  0  0  0
  137.0270   72.5010  223.0580 N   0  0  0  0  0  0  0  0  0  0  0  0
  136.6660   71.1500  222.9170 C   0  0  0  0  0  0  0  0  0  0  0  0
  137.0340   70.1550  223.9010 C   0  0  0  0  0  0  0  0  0  0  0  0
  136.1230   69.2040  224.0190 O   0  0  0  0  0  0  0  0  0  0  0  0
  138.1300   69.9920  224.7410 N   0  0  0  0  0  0  0  0  0  0  0  0
  138.3310   68.8660  225.6090 C   0  0  0  0  0  0  0  0  0  0  0  0
  139.5830   68.0950  225.3810 C   0  0  0  0  0  0  0  0  0  0  0  0
  140.7720   68.6740  226.1190 C   0  0  0  0  0  0  0  0  0  0  0  0
  141.1640   70.0240  225.5550 C   0  0  0  0  0  0  0  0  0  0  0  0
  140.0980   71.0820  225.7510 C   0  0  0  0  0  0  0  0  0  0  0  0
  139.0870   71.1140  224.6620 C   0  0  1  0  0  0  0  0  0  0  0  0
  139.7760   71.1530  223.3480 C   0  0  0  0  0  0  0  0  0  0  0  0
  140.5610   72.2090  222.9620 C   0  0  0  0  0  0  0  0  0  0  0  0
  141.1950   72.2210  221.7260 C   0  0  0  0  0  0  0  0  0  0  0  0
  141.0250   71.1440  220.8770 C   0  0  0  0  0  0  0  0  0  0  0  0
  140.2410   70.0590  221.2310 C   0  0  0  0  0  0  0  0  0  0  0  0
  139.6260   70.0840  222.4700 C   0  0  0  0  0  0  0  0  0  0  0  0
  138.0500   74.6700  222.2480 C   0  0  0  0  0  0  0  0  0  0  0  0
  137.0290   75.5200  222.6180 C   0  0  0  0  0  0  0  0  0  0  0  0
  137.3430   76.8670  222.8300 C   0  0  0  0  0  0  0  0  0  0  0  0
  138.6640   77.2980  222.6590 C   0  0  0  0  0  0  0  0  0  0  0  0
  139.0200   78.6180  222.8570 C   0  0  0  0  0  0  0  0  0  0  0  0
  140.3050   79.0870  222.7020 C   0  0  0  0  0  0  0  0  0  0  0  0
  140.7370   80.7690  222.9570 Cl  0  0  0  0  0  0  0  0  0  0  0  0
  141.2750   78.1530  222.3240 C   0  0  0  0  0  0  0  0  0  0  0  0
  140.9520   76.8220  222.1190 C   0  0  0  0  0  0  0  0  0  0  0  0
  139.6540   76.3850  222.2830 C   0  0  0  0  0  0  0  0  0  0  0  0
  139.3220   75.0950  222.0870 N   0  0  0  0  0  0  0  0  0  0  0  0
  136.8320   73.0600  223.9390 H   0  0  0  0  0  0  0  0  0  0  0  0
  135.5681   71.1290  222.8524 H   0  0  0  0  0  0  0  0  0  0  0  0
  137.2566   70.8414  222.0418 H   0  0  0  0  0  0  0  0  0  0  0  0
  138.3447   69.2353  226.6450 H   0  0  0  0  0  0  0  0  0  0  0  0
  137.5058   68.1704  225.3962 H   0  0  0  0  0  0  0  0  0  0  0  0
  139.4264   67.0614  225.7232 H   0  0  0  0  0  0  0  0  0  0  0  0
  139.8077   68.1393  224.3051 H   0  0  0  0  0  0  0  0  0  0  0  0
  140.5123   68.7910  227.1815 H   0  0  0  0  0  0  0  0  0  0  0  0
  141.6230   67.9872  226.0004 H   0  0  0  0  0  0  0  0  0  0  0  0
  142.0851   70.3582  226.0549 H   0  0  0  0  0  0  0  0  0  0  0  0
  141.3059   69.8981  224.4715 H   0  0  0  0  0  0  0  0  0  0  0  0
  139.5803   70.8828  226.7009 H   0  0  0  0  0  0  0  0  0  0  0  0
  140.6063   72.0575  225.7494 H   0  0  0  0  0  0  0  0  0  0  0  0
  138.4863   72.0276  224.7820 H   0  0  0  0  0  0  0  0  0  0  0  0
  140.6911   73.0624  223.6437 H   0  0  0  0  0  0  0  0  0  0  0  0
  141.8223   73.0741  221.4279 H   0  0  0  0  0  0  0  0  0  0  0  0
  141.5243   71.1488  219.8968 H   0  0  0  0  0  0  0  0  0  0  0  0
  140.1114   69.2053  220.5495 H   0  0  0  0  0  0  0  0  0  0  0  0
  138.9986   69.2319  222.7705 H   0  0  0  0  0  0  0  0  0  0  0  0
  136.0003   75.1508  222.7425 H   0  0  0  0  0  0  0  0  0  0  0  0
  136.5600   77.5799  223.1279 H   0  0  0  0  0  0  0  0  0  0  0  0
  138.2366   79.3309  223.1537 H   0  0  0  0  0  0  0  0  0  0  0  0
  142.3155   78.4823  222.1868 H   0  0  0  0  0  0  0  0  0  0  0  0
  141.7355   76.1087  221.8235 H   0  0  0  0  0  0  0  0  0  0  0  0
  1  2  2  0
  2  3  1  0
  3  4  1  0
  4  5  1  0
  5  6  2  0
  5  7  1  0
  7  8  1  0
  8  9  1  0
  9 10  1  0
 10 11  1  0
 11 12  1  0
 12 13  1  0
 13 14  1  0
 14 15  2  0
 15 16  1  0
 16 17  2  0
 17 18  1  0
 18 19  2  0
  2 20  1  0
 20 21  2  0
 21 22  1  0
 22 23  2  0
 23 24  1  0
 24 25  2  0
 25 26  1  0
 25 27  1  0
 27 28  2  0
 28 29  1  0
 29 30  2  0
 13  7  1  0
 19 14  1  0
 30 20  1  0
 29 23  1  0
  3 31  1  0
  4 32  1  0
  4 33  1  0
  8 34  1  0
  8 35  1  0
  9 36  1  0
  9 37  1  0
 10 38  1  0
 10 39  1  0
 11 40  1  0
 11 41  1  0
 12 42  1  0
 12 43  1  0
 13 44  1  1
 15 45  1  0
 16 46  1  0
 17 47  1  0
 18 48  1  0
 19 49  1  0
 21 50  1  0
 22 51  1  0
 24 52  1  0
 27 53  1  0
 28 54  1  0
M  END
>  <smiles>  (57) 
O=C(NCC(=O)N1CCCCCC1c1ccccc1)c1ccc2cc(Cl)ccc2n1

>  <score_type>  (57) 
oracle

>  <origin>  (57) 
autodockgpu

>  <m_score__min__energy>  (57) 
-6.6299999999999999

>  <m_primary>  (57) 
energy

>  <rmsd>  (57) 
8.132008856378112

>  <m_score__min__rmsd>  (57) 
8.132008856378112

>  <meeko>  (57) 
{"free_energy": -5.01, "intermolecular_energy": -8.29, "internal_energy": -2.11, "cluster_size": 1, "cluster_id": 12, "rank_in_cluster": 1}

>  <energy>  (57) 
-5.07

>  <cluster_rmsd>  (57) 
1.88

>  <cluster>  (57) 
1

$$$$

     RDKit          3D

 54 57  0  0  0  0  0  0  0  0999 V2000
  139.1360   71.8250  220.5520 O   0  0  0  0  0  0  0  0  0  0  0  0
  138.9860   72.2040  221.7410 C   0  0  0  0  0  0  0  0  0  0  0  0
  138.4890   73.5510  221.9030 N   0  0  0  0  0  0  0  0  0  0  0  0
  138.1770   74.4070  220.8340 C   0  0  0  0  0  0  0  0  0  0  0  0
  139.0330   75.5150  220.4680 C   0  0  0  0  0  0  0  0  0  0  0  0
  138.5750   76.1790  219.4200 O   0  0  0  0  0  0  0  0  0  0  0  0
  140.2230   76.0210  220.9780 N   0  0  0  0  0  0  0  0  0  0  0  0
  140.4100   76.4520  222.3350 C   0  0  0  0  0  0  0  0  0  0  0  0
  141.3310   77.6070  222.5210 C   0  0  0  0  0  0  0  0  0  0  0  0
  140.9120   78.8250  221.7240 C   0  0  0  0  0  0  0  0  0  0  0  0
  140.9620   78.5520  220.2350 C   0  0  0  0  0  0  0  0  0  0  0  0
  141.9090   77.4350  219.8650 C   0  0  0  0  0  0  0  0  0  0  0  0
  141.3010   76.0840  219.9700 C   0  0  1  0  0  0  0  0  0  0  0  0
  142.3630   75.0830  220.2420 C   0  0  0  0  0  0  0  0  0  0  0  0
  142.0810   73.8050  220.6510 C   0  0  0  0  0  0  0  0  0  0  0  0
  143.0940   72.8880  220.8990 C   0  0  0  0  0  0  0  0  0  0  0  0
  144.4080   73.2800  220.7270 C   0  0  0  0  0  0  0  0  0  0  0  0
  144.7330   74.5610  220.3150 C   0  0  0  0  0  0  0  0  0  0  0  0
  143.6970   75.4460  220.0780 C   0  0  0  0  0  0  0  0  0  0  0  0
  139.2850   71.3620  222.8960 C   0  0  0  0  0  0  0  0  0  0  0  0
  138.9340   70.0320  222.8010 C   0  0  0  0  0  0  0  0  0  0  0  0
  139.2100   69.2030  223.8940 C   0  0  0  0  0  0  0  0  0  0  0  0
  139.8240   69.7470  225.0290 C   0  0  0  0  0  0  0  0  0  0  0  0
  140.1150   68.9660  226.1300 C   0  0  0  0  0  0  0  0  0  0  0  0
  140.7180   69.4570  227.2680 C   0  0  0  0  0  0  0  0  0  0  0  0
  141.0790   68.4490  228.6580 Cl  0  0  0  0  0  0  0  0  0  0  0  0
  141.0370   70.8180  227.2740 C   0  0  0  0  0  0  0  0  0  0  0  0
  140.7590   71.6280  226.1860 C   0  0  0  0  0  0  0  0  0  0  0  0
  140.1550   71.1050  225.0620 C   0  0  0  0  0  0  0  0  0  0  0  0
  139.8770   71.8780  223.9940 N   0  0  0  0  0  0  0  0  0  0  0  0
  138.3820   73.8360  222.9200 H   0  0  0  0  0  0  0  0  0  0  0  0
  138.0985   73.7696  219.9410 H   0  0  0  0  0  0  0  0  0  0  0  0
  137.2766   74.9205  221.2023 H   0  0  0  0  0  0  0  0  0  0  0  0
  139.4267   76.7345  222.7391 H   0  0  0  0  0  0  0  0  0  0  0  0
  140.8787   75.6055  222.8582 H   0  0  0  0  0  0  0  0  0  0  0  0
  141.3490   77.8741  223.5879 H   0  0  0  0  0  0  0  0  0  0  0  0
  142.3241   77.3005  222.1607 H   0  0  0  0  0  0  0  0  0  0  0  0
  139.8843   79.1001  222.0036 H   0  0  0  0  0  0  0  0  0  0  0  0
  141.6095   79.6449  221.9504 H   0  0  0  0  0  0  0  0  0  0  0  0
  139.9516   78.2802  219.8955 H   0  0  0  0  0  0  0  0  0  0  0  0
  141.3303   79.4668  219.7477 H   0  0  0  0  0  0  0  0  0  0  0  0
  142.2397   77.5883  218.8272 H   0  0  0  0  0  0  0  0  0  0  0  0
  142.7453   77.4699  220.5787 H   0  0  0  0  0  0  0  0  0  0  0  0
  140.8226   75.8506  219.0073 H   0  0  0  0  0  0  0  0  0  0  0  0
  141.0326   73.5003  220.7852 H   0  0  0  0  0  0  0  0  0  0  0  0
  142.8543   71.8658  221.2271 H   0  0  0  0  0  0  0  0  0  0  0  0
  145.2142   72.5575  220.9220 H   0  0  0  0  0  0  0  0  0  0  0  0
  145.7815   74.8652  220.1805 H   0  0  0  0  0  0  0  0  0  0  0  0
  143.9344   76.4687  219.7497 H   0  0  0  0  0  0  0  0  0  0  0  0
  138.4525   69.6353  221.8950 H   0  0  0  0  0  0  0  0  0  0  0  0
  138.9475   68.1353  223.8620 H   0  0  0  0  0  0  0  0  0  0  0  0
  139.8524   67.8983  226.0972 H   0  0  0  0  0  0  0  0  0  0  0  0
  141.5188   71.2544  228.1614 H   0  0  0  0  0  0  0  0  0  0  0  0
  141.0217   72.6957  226.2184 H   0  0  0  0  0  0  0  0  0  0  0  0
  1  2  2  0
  2  3  1  0
  3  4  1  0
  4  5  1  0
  5  6  2  0
  5  7  1  0
  7  8  1  0
  8  9  1  0
  9 10  1  0
 10 11  1  0
 11 12  1  0
 12 13  1  0
 13 14  1  0
 14 15  2  0
 15 16  1  0
 16 17  2  0
 17 18  1  0
 18 19  2  0
  2 20  1  0
 20 21  2  0
 21 22  1  0
 22 23  2  0
 23 24  1  0
 24 25  2  0
 25 26  1  0
 25 27  1  0
 27 28  2  0
 28 29  1  0
 29 30  2  0
 13  7  1  0
 19 14  1  0
 30 20  1  0
 29 23  1  0
  3 31  1  0
  4 32  1  0
  4 33  1  0
  8 34  1  0
  8 35  1  0
  9 36  1  0
  9 37  1  0
 10 38  1  0
 10 39  1  0
 11 40  1  0
 11 41  1  0
 12 42  1  0
 12 43  1  0
 13 44  1  6
 15 45  1  0
 16 46  1  0
 17 47  1  0
 18 48  1  0
 19 49  1  0
 21 50  1  0
 22 51  1  0
 24 52  1  0
 27 53  1  0
 28 54  1  0
M  END
>  <smiles>  (58) 
O=C(NCC(=O)N1CCCCCC1c1ccccc1)c1ccc2cc(Cl)ccc2n1

>  <score_type>  (58) 
oracle

>  <origin>  (58) 
autodockgpu

>  <m_score__min__energy>  (58) 
-6.6299999999999999

>  <m_primary>  (58) 
energy

>  <rmsd>  (58) 
2.57140012637169

>  <m_score__min__rmsd>  (58) 
2.57140012637169

>  <meeko>  (58) 
{"free_energy": -5.74, "intermolecular_energy": -9.02, "internal_energy": -2.16, "cluster_size": 11, "cluster_id": 2, "rank_in_cluster": 7}

>  <energy>  (58) 
-6.25

>  <cluster_rmsd>  (58) 
0.0

>  <cluster>  (58) 
2

$$$$

     RDKit          3D

 54 57  0  0  0  0  0  0  0  0999 V2000
  139.9070   73.5370  220.5160 O   0  0  0  0  0  0  0  0  0  0  0  0
  139.5660   73.6520  221.7200 C   0  0  0  0  0  0  0  0  0  0  0  0
  139.1420   74.9740  222.1190 N   0  0  0  0  0  0  0  0  0  0  0  0
  139.0910   76.0780  221.2520 C   0  0  0  0  0  0  0  0  0  0  0  0
  139.3400   77.4250  221.7170 C   0  0  0  0  0  0  0  0  0  0  0  0
  138.2260   78.0610  222.0360 O   0  0  0  0  0  0  0  0  0  0  0  0
  140.4920   78.1850  221.8960 N   0  0  0  0  0  0  0  0  0  0  0  0
  141.4700   77.9540  222.9210 C   0  0  0  0  0  0  0  0  0  0  0  0
  141.4360   78.9050  224.0660 C   0  0  0  0  0  0  0  0  0  0  0  0
  142.1610   80.2020  223.7730 C   0  0  0  0  0  0  0  0  0  0  0  0
  142.4030   80.3720  222.2870 C   0  0  0  0  0  0  0  0  0  0  0  0
  141.1170   80.5410  221.5220 C   0  0  0  0  0  0  0  0  0  0  0  0
  140.6140   79.2820  220.9140 C   0  0  1  0  0  0  0  0  0  0  0  0
  141.4850   78.9010  219.7740 C   0  0  0  0  0  0  0  0  0  0  0  0
  142.0090   77.6410  219.6390 C   0  0  0  0  0  0  0  0  0  0  0  0
  142.8210   77.3100  218.5620 C   0  0  0  0  0  0  0  0  0  0  0  0
  143.1010   78.2760  217.6140 C   0  0  0  0  0  0  0  0  0  0  0  0
  142.5910   79.5590  217.7150 C   0  0  0  0  0  0  0  0  0  0  0  0
  141.7860   79.8500  218.8010 C   0  0  0  0  0  0  0  0  0  0  0  0
  139.5890   72.5430  222.6700 C   0  0  0  0  0  0  0  0  0  0  0  0
  138.7020   71.5120  222.4400 C   0  0  0  0  0  0  0  0  0  0  0  0
  138.7050   70.4360  223.3370 C   0  0  0  0  0  0  0  0  0  0  0  0
  139.5930   70.4470  224.4180 C   0  0  0  0  0  0  0  0  0  0  0  0
  139.6290   69.4080  225.3270 C   0  0  0  0  0  0  0  0  0  0  0  0
  140.4850   69.3750  226.4060 C   0  0  0  0  0  0  0  0  0  0  0  0
  140.5170   68.0450  227.5500 Cl  0  0  0  0  0  0  0  0  0  0  0  0
  141.3480   70.4650  226.5580 C   0  0  0  0  0  0  0  0  0  0  0  0
  141.3370   71.5230  225.6650 C   0  0  0  0  0  0  0  0  0  0  0  0
  140.4670   71.5240  224.5950 C   0  0  0  0  0  0  0  0  0  0  0  0
  140.4430   72.5450  223.7160 N   0  0  0  0  0  0  0  0  0  0  0  0
  138.8670   75.0320  223.1430 H   0  0  0  0  0  0  0  0  0  0  0  0
  139.8294   75.8832  220.4602 H   0  0  0  0  0  0  0  0  0  0  0  0
  138.0242   76.1167  220.9865 H   0  0  0  0  0  0  0  0  0  0  0  0
  141.3120   76.9403  223.3178 H   0  0  0  0  0  0  0  0  0  0  0  0
  142.4495   78.0948  222.4407 H   0  0  0  0  0  0  0  0  0  0  0  0
  140.3863   79.1345  224.3013 H   0  0  0  0  0  0  0  0  0  0  0  0
  141.9478   78.4232  224.9121 H   0  0  0  0  0  0  0  0  0  0  0  0
  141.5519   81.0431  224.1357 H   0  0  0  0  0  0  0  0  0  0  0  0
  143.1350   80.1792  224.2837 H   0  0  0  0  0  0  0  0  0  0  0  0
  143.0300   81.2619  222.1288 H   0  0  0  0  0  0  0  0  0  0  0  0
  142.9013   79.4635  221.9177 H   0  0  0  0  0  0  0  0  0  0  0  0
  140.3504   80.9241  222.2116 H   0  0  0  0  0  0  0  0  0  0  0  0
  141.3236   81.2370  220.6956 H   0  0  0  0  0  0  0  0  0  0  0  0
  139.5945   79.4657  220.5440 H   0  0  0  0  0  0  0  0  0  0  0  0
  141.7819   76.8780  220.3981 H   0  0  0  0  0  0  0  0  0  0  0  0
  143.2346   76.2953  218.4650 H   0  0  0  0  0  0  0  0  0  0  0  0
  143.7441   78.0193  216.7593 H   0  0  0  0  0  0  0  0  0  0  0  0
  142.8187   80.3221  216.9561 H   0  0  0  0  0  0  0  0  0  0  0  0
  141.3702   80.8636  218.8992 H   0  0  0  0  0  0  0  0  0  0  0  0
  138.0153   71.5340  221.5810 H   0  0  0  0  0  0  0  0  0  0  0  0
  138.0159   69.5908  223.1928 H   0  0  0  0  0  0  0  0  0  0  0  0
  138.9390   68.5636  225.1821 H   0  0  0  0  0  0  0  0  0  0  0  0
  142.0501   70.4821  227.4046 H   0  0  0  0  0  0  0  0  0  0  0  0
  142.0264   72.3679  225.8099 H   0  0  0  0  0  0  0  0  0  0  0  0
  1  2  2  0
  2  3  1  0
  3  4  1  0
  4  5  1  0
  5  6  2  0
  5  7  1  0
  7  8  1  0
  8  9  1  0
  9 10  1  0
 10 11  1  0
 11 12  1  0
 12 13  1  0
 13 14  1  0
 14 15  2  0
 15 16  1  0
 16 17  2  0
 17 18  1  0
 18 19  2  0
  2 20  1  0
 20 21  2  0
 21 22  1  0
 22 23  2  0
 23 24  1  0
 24 25  2  0
 25 26  1  0
 25 27  1  0
 27 28  2  0
 28 29  1  0
 29 30  2  0
 13  7  1  0
 19 14  1  0
 30 20  1  0
 29 23  1  0
  3 31  1  0
  4 32  1  0
  4 33  1  0
  8 34  1  0
  8 35  1  0
  9 36  1  0
  9 37  1  0
 10 38  1  0
 10 39  1  0
 11 40  1  0
 11 41  1  0
 12 42  1  0
 12 43  1  0
 13 44  1  6
 15 45  1  0
 16 46  1  0
 17 47  1  0
 18 48  1  0
 19 49  1  0
 21 50  1  0
 22 51  1  0
 24 52  1  0
 27 53  1  0
 28 54  1  0
M  END
>  <smiles>  (59) 
O=C(NCC(=O)N1CCCCCC1c1ccccc1)c1ccc2cc(Cl)ccc2n1

>  <score_type>  (59) 
oracle

>  <origin>  (59) 
autodockgpu

>  <m_score__min__energy>  (59) 
-6.6299999999999999

>  <m_primary>  (59) 
energy

>  <rmsd>  (59) 
3.7789449621209212

>  <m_score__min__rmsd>  (59) 
3.7789449621209212

>  <meeko>  (59) 
{"free_energy": -4.88, "intermolecular_energy": -8.16, "internal_energy": -1.57, "cluster_size": 2, "cluster_id": 4, "rank_in_cluster": 2}

>  <energy>  (59) 
-6.19

>  <cluster_rmsd>  (59) 
0.53

>  <cluster>  (59) 
2

$$$$

     RDKit          3D

 54 57  0  0  0  0  0  0  0  0999 V2000
  140.3990   72.3770  220.7550 O   0  0  0  0  0  0  0  0  0  0  0  0
  140.1120   72.7020  221.9360 C   0  0  0  0  0  0  0  0  0  0  0  0
  139.7920   74.0970  222.1320 N   0  0  0  0  0  0  0  0  0  0  0  0
  139.7830   75.0540  221.1040 C   0  0  0  0  0  0  0  0  0  0  0  0
  140.8930   75.9570  220.8910 C   0  0  0  0  0  0  0  0  0  0  0  0
  141.0960   76.7570  221.9230 O   0  0  0  0  0  0  0  0  0  0  0  0
  141.7800   76.1600  219.8390 N   0  0  0  0  0  0  0  0  0  0  0  0
  142.2800   77.4420  219.4310 C   0  0  0  0  0  0  0  0  0  0  0  0
  141.9980   77.8220  218.0190 C   0  0  0  0  0  0  0  0  0  0  0  0
  140.8750   77.0120  217.4070 C   0  0  0  0  0  0  0  0  0  0  0  0
  141.3740   75.6760  216.8970 C   0  0  0  0  0  0  0  0  0  0  0  0
  142.5060   75.1110  217.7280 C   0  0  0  0  0  0  0  0  0  0  0  0
  142.1630   74.9060  219.1590 C   0  0  1  0  0  0  0  0  0  0  0  0
  143.2940   74.2340  219.8480 C   0  0  0  0  0  0  0  0  0  0  0  0
  143.2610   72.9070  220.1910 C   0  0  0  0  0  0  0  0  0  0  0  0
  144.3320   72.3030  220.8350 C   0  0  0  0  0  0  0  0  0  0  0  0
  145.4490   73.0620  221.1310 C   0  0  0  0  0  0  0  0  0  0  0  0
  145.5210   74.4050  220.8000 C   0  0  0  0  0  0  0  0  0  0  0  0
  144.4330   74.9700  220.1600 C   0  0  0  0  0  0  0  0  0  0  0  0
  140.0970   71.7560  223.0470 C   0  0  0  0  0  0  0  0  0  0  0  0
  139.5630   70.5100  222.7940 C   0  0  0  0  0  0  0  0  0  0  0  0
  139.5370   69.5840  223.8440 C   0  0  0  0  0  0  0  0  0  0  0  0
  140.0460   69.9520  225.0950 C   0  0  0  0  0  0  0  0  0  0  0  0
  140.0400   69.0710  226.1590 C   0  0  0  0  0  0  0  0  0  0  0  0
  140.5290   69.3880  227.4070 C   0  0  0  0  0  0  0  0  0  0  0  0
  140.5130   68.2550  228.7460 Cl  0  0  0  0  0  0  0  0  0  0  0  0
  141.0500   70.6750  227.5700 C   0  0  0  0  0  0  0  0  0  0  0  0
  141.0710   71.5820  226.5240 C   0  0  0  0  0  0  0  0  0  0  0  0
  140.5740   71.2330  225.2860 C   0  0  0  0  0  0  0  0  0  0  0  0
  140.5860   72.1020  224.2580 N   0  0  0  0  0  0  0  0  0  0  0  0
  139.5620   74.3330  223.1410 H   0  0  0  0  0  0  0  0  0  0  0  0
  139.6543   74.4964  220.1646 H   0  0  0  0  0  0  0  0  0  0  0  0
  138.9863   75.7384  221.4308 H   0  0  0  0  0  0  0  0  0  0  0  0
  141.8293   78.2045  220.0833 H   0  0  0  0  0  0  0  0  0  0  0  0
  143.3751   77.3783  219.5129 H   0  0  0  0  0  0  0  0  0  0  0  0
  141.7202   78.8860  217.9901 H   0  0  0  0  0  0  0  0  0  0  0  0
  142.9078   77.6219  217.4340 H   0  0  0  0  0  0  0  0  0  0  0  0
  140.1018   76.8381  218.1698 H   0  0  0  0  0  0  0  0  0  0  0  0
  140.4636   77.5761  216.5570 H   0  0  0  0  0  0  0  0  0  0  0  0
  140.5381   74.9611  216.9111 H   0  0  0  0  0  0  0  0  0  0  0  0
  141.7606   75.8358  215.8797 H   0  0  0  0  0  0  0  0  0  0  0  0
  142.7979   74.1406  217.3001 H   0  0  0  0  0  0  0  0  0  0  0  0
  143.3205   75.8497  217.6993 H   0  0  0  0  0  0  0  0  0  0  0  0
  141.2749   74.2586  219.2060 H   0  0  0  0  0  0  0  0  0  0  0  0
  142.3689   72.3097  219.9513 H   0  0  0  0  0  0  0  0  0  0  0  0
  144.2927   71.2375  221.1055 H   0  0  0  0  0  0  0  0  0  0  0  0
  146.3005   72.5882  221.6413 H   0  0  0  0  0  0  0  0  0  0  0  0
  146.4136   75.0021  221.0382 H   0  0  0  0  0  0  0  0  0  0  0  0
  144.4691   76.0354  219.8889 H   0  0  0  0  0  0  0  0  0  0  0  0
  139.1702   70.2519  221.7995 H   0  0  0  0  0  0  0  0  0  0  0  0
  139.1209   68.5778  223.6874 H   0  0  0  0  0  0  0  0  0  0  0  0
  139.6235   68.0652  226.0015 H   0  0  0  0  0  0  0  0  0  0  0  0
  141.4516   70.9733  228.5496 H   0  0  0  0  0  0  0  0  0  0  0  0
  141.4871   72.5880  226.6817 H   0  0  0  0  0  0  0  0  0  0  0  0
  1  2  2  0
  2  3  1  0
  3  4  1  0
  4  5  1  0
  5  6  2  0
  5  7  1  0
  7  8  1  0
  8  9  1  0
  9 10  1  0
 10 11  1  0
 11 12  1  0
 12 13  1  0
 13 14  1  0
 14 15  2  0
 15 16  1  0
 16 17  2  0
 17 18  1  0
 18 19  2  0
  2 20  1  0
 20 21  2  0
 21 22  1  0
 22 23  2  0
 23 24  1  0
 24 25  2  0
 25 26  1  0
 25 27  1  0
 27 28  2  0
 28 29  1  0
 29 30  2  0
 13  7  1  0
 19 14  1  0
 30 20  1  0
 29 23  1  0
  3 31  1  0
  4 32  1  0
  4 33  1  0
  8 34  1  0
  8 35  1  0
  9 36  1  0
  9 37  1  0
 10 38  1  0
 10 39  1  0
 11 40  1  0
 11 41  1  0
 12 42  1  0
 12 43  1  0
 13 44  1  6
 15 45  1  0
 16 46  1  0
 17 47  1  0
 18 48  1  0
 19 49  1  0
 21 50  1  0
 22 51  1  0
 24 52  1  0
 27 53  1  0
 28 54  1  0
M  END
>  <smiles>  (60) 
O=C(NCC(=O)N1CCCCCC1c1ccccc1)c1ccc2cc(Cl)ccc2n1

>  <score_type>  (60) 
oracle

>  <origin>  (60) 
autodockgpu

>  <m_score__min__energy>  (60) 
-6.6299999999999999

>  <m_primary>  (60) 
energy

>  <rmsd>  (60) 
2.4082697138431186

>  <m_score__min__rmsd>  (60) 
2.4082697138431186

>  <meeko>  (60) 
{"free_energy": -5.9, "intermolecular_energy": -9.18, "internal_energy": -2.14, "cluster_size": 11, "cluster_id": 2, "rank_in_cluster": 5}

>  <energy>  (60) 
-6.17

>  <cluster_rmsd>  (60) 
0.78

>  <cluster>  (60) 
2

$$$$

     RDKit          3D

 54 57  0  0  0  0  0  0  0  0999 V2000
  139.5930   72.1210  220.6810 O   0  0  0  0  0  0  0  0  0  0  0  0
  139.6160   72.4990  221.8790 C   0  0  0  0  0  0  0  0  0  0  0  0
  139.5250   73.9280  222.0780 N   0  0  0  0  0  0  0  0  0  0  0  0
  139.4120   74.8610  221.0340 C   0  0  0  0  0  0  0  0  0  0  0  0
  140.4150   74.9720  219.9980 C   0  0  0  0  0  0  0  0  0  0  0  0
  140.0020   75.7020  218.9750 O   0  0  0  0  0  0  0  0  0  0  0  0
  141.7060   74.4770  219.8500 N   0  0  0  0  0  0  0  0  0  0  0  0
  142.0240   73.1290  219.4730 C   0  0  0  0  0  0  0  0  0  0  0  0
  142.8880   72.3810  220.4270 C   0  0  0  0  0  0  0  0  0  0  0  0
  144.3650   72.6210  220.1930 C   0  0  0  0  0  0  0  0  0  0  0  0
  144.7540   74.0410  220.5460 C   0  0  0  0  0  0  0  0  0  0  0  0
  144.0910   75.0740  219.6600 C   0  0  0  0  0  0  0  0  0  0  0  0
  142.7450   75.4880  220.1340 C   0  0  1  0  0  0  0  0  0  0  0  0
  142.3980   76.8070  219.5480 C   0  0  0  0  0  0  0  0  0  0  0  0
  142.6040   77.1000  218.2240 C   0  0  0  0  0  0  0  0  0  0  0  0
  142.2710   78.3420  217.7020 C   0  0  0  0  0  0  0  0  0  0  0  0
  141.7220   79.2950  218.5390 C   0  0  0  0  0  0  0  0  0  0  0  0
  141.4990   79.0380  219.8810 C   0  0  0  0  0  0  0  0  0  0  0  0
  141.8440   77.7890  220.3640 C   0  0  0  0  0  0  0  0  0  0  0  0
  139.7240   71.5810  223.0090 C   0  0  0  0  0  0  0  0  0  0  0  0
  139.2060   70.3160  222.8320 C   0  0  0  0  0  0  0  0  0  0  0  0
  139.2990   69.4160  223.9010 C   0  0  0  0  0  0  0  0  0  0  0  0
  139.9040   69.8280  225.0940 C   0  0  0  0  0  0  0  0  0  0  0  0
  140.0160   68.9750  226.1740 C   0  0  0  0  0  0  0  0  0  0  0  0
  140.6040   69.3360  227.3660 C   0  0  0  0  0  0  0  0  0  0  0  0
  140.7370   68.2360  228.7270 Cl  0  0  0  0  0  0  0  0  0  0  0  0
  141.1000   70.6400  227.4540 C   0  0  0  0  0  0  0  0  0  0  0  0
  141.0040   71.5200  226.3900 C   0  0  0  0  0  0  0  0  0  0  0  0
  140.4100   71.1270  225.2090 C   0  0  0  0  0  0  0  0  0  0  0  0
  140.3070   71.9700  224.1640 N   0  0  0  0  0  0  0  0  0  0  0  0
  139.5530   74.2080  223.1020 H   0  0  0  0  0  0  0  0  0  0  0  0
  138.4636   74.6389  220.5229 H   0  0  0  0  0  0  0  0  0  0  0  0
  139.5190   75.8184  221.5650 H   0  0  0  0  0  0  0  0  0  0  0  0
  141.0793   72.5756  219.3666 H   0  0  0  0  0  0  0  0  0  0  0  0
  142.6020   73.2059  218.5403 H   0  0  0  0  0  0  0  0  0  0  0  0
  142.6382   72.6980  221.4503 H   0  0  0  0  0  0  0  0  0  0  0  0
  142.6984   71.3082  220.2745 H   0  0  0  0  0  0  0  0  0  0  0  0
  144.9445   71.9250  220.8173 H   0  0  0  0  0  0  0  0  0  0  0  0
  144.5788   72.4573  219.1265 H   0  0  0  0  0  0  0  0  0  0  0  0
  144.4630   74.2351  221.5889 H   0  0  0  0  0  0  0  0  0  0  0  0
  145.8405   74.1305  220.3992 H   0  0  0  0  0  0  0  0  0  0  0  0
  144.7355   75.9646  219.6219 H   0  0  0  0  0  0  0  0  0  0  0  0
  143.9568   74.6122  218.6707 H   0  0  0  0  0  0  0  0  0  0  0  0
  142.7827   75.5780  221.2297 H   0  0  0  0  0  0  0  0  0  0  0  0
  143.0412   76.3365  217.5638 H   0  0  0  0  0  0  0  0  0  0  0  0
  142.4414   78.5646  216.6383 H   0  0  0  0  0  0  0  0  0  0  0  0
  141.4560   80.2806  218.1294 H   0  0  0  0  0  0  0  0  0  0  0  0
  141.0620   79.8018  220.5410 H   0  0  0  0  0  0  0  0  0  0  0  0
  141.6751   77.5643  221.4275 H   0  0  0  0  0  0  0  0  0  0  0  0
  138.7349   70.0229  221.8821 H   0  0  0  0  0  0  0  0  0  0  0  0
  138.9005   68.3953  223.8040 H   0  0  0  0  0  0  0  0  0  0  0  0
  139.6152   67.9552  226.0774 H   0  0  0  0  0  0  0  0  0  0  0  0
  141.5763   70.9735  228.3878 H   0  0  0  0  0  0  0  0  0  0  0  0
  141.4043   72.5400  226.4870 H   0  0  0  0  0  0  0  0  0  0  0  0
  1  2  2  0
  2  3  1  0
  3  4  1  0
  4  5  1  0
  5  6  2  0
  5  7  1  0
  7  8  1  0
  8  9  1  0
  9 10  1  0
 10 11  1  0
 11 12  1  0
 12 13  1  0
 13 14  1  0
 14 15  2  0
 15 16  1  0
 16 17  2  0
 17 18  1  0
 18 19  2  0
  2 20  1  0
 20 21  2  0
 21 22  1  0
 22 23  2  0
 23 24  1  0
 24 25  2  0
 25 26  1  0
 25 27  1  0
 27 28  2  0
 28 29  1  0
 29 30  2  0
 13  7  1  0
 19 14  1  0
 30 20  1  0
 29 23  1  0
  3 31  1  0
  4 32  1  0
  4 33  1  0
  8 34  1  0
  8 35  1  0
  9 36  1  0
  9 37  1  0
 10 38  1  0
 10 39  1  0
 11 40  1  0
 11 41  1  0
 12 42  1  0
 12 43  1  0
 13 44  1  1
 15 45  1  0
 16 46  1  0
 17 47  1  0
 18 48  1  0
 19 49  1  0
 21 50  1  0
 22 51  1  0
 24 52  1  0
 27 53  1  0
 28 54  1  0
M  END
>  <smiles>  (61) 
O=C(NCC(=O)N1CCCCCC1c1ccccc1)c1ccc2cc(Cl)ccc2n1

>  <score_type>  (61) 
oracle

>  <origin>  (61) 
autodockgpu

>  <m_score__min__energy>  (61) 
-6.6299999999999999

>  <m_primary>  (61) 
energy

>  <rmsd>  (61) 
2.5937608187008334

>  <m_score__min__rmsd>  (61) 
2.5937608187008334

>  <meeko>  (61) 
{"free_energy": -6.1, "intermolecular_energy": -9.38, "internal_energy": -1.87, "cluster_size": 2, "cluster_id": 3, "rank_in_cluster": 1}

>  <energy>  (61) 
-6.03

>  <cluster_rmsd>  (61) 
1.28

>  <cluster>  (61) 
2

$$$$

     RDKit          3D

 54 57  0  0  0  0  0  0  0  0999 V2000
  138.8690   71.6510  220.7590 O   0  0  0  0  0  0  0  0  0  0  0  0
  139.0330   72.0780  221.9300 C   0  0  0  0  0  0  0  0  0  0  0  0
  138.9100   73.5090  222.0880 N   0  0  0  0  0  0  0  0  0  0  0  0
  138.6210   74.3940  221.0370 C   0  0  0  0  0  0  0  0  0  0  0  0
  139.6590   74.9260  220.1800 C   0  0  0  0  0  0  0  0  0  0  0  0
  139.1680   75.5390  219.1170 O   0  0  0  0  0  0  0  0  0  0  0  0
  141.0490   74.9250  220.2370 N   0  0  0  0  0  0  0  0  0  0  0  0
  141.8830   73.8550  219.7680 C   0  0  0  0  0  0  0  0  0  0  0  0
  143.2080   73.7350  220.4360 C   0  0  0  0  0  0  0  0  0  0  0  0
  144.1560   74.8570  220.0660 C   0  0  0  0  0  0  0  0  0  0  0  0
  143.4720   75.8880  219.1920 C   0  0  0  0  0  0  0  0  0  0  0  0
  142.5840   76.8360  219.9690 C   0  0  0  0  0  0  0  0  0  0  0  0
  141.5990   76.1530  220.8470 C   0  0  1  0  0  0  0  0  0  0  0  0
  140.5250   77.1060  221.2220 C   0  0  0  0  0  0  0  0  0  0  0  0
  139.8790   77.0470  222.4300 C   0  0  0  0  0  0  0  0  0  0  0  0
  138.8770   77.9510  222.7560 C   0  0  0  0  0  0  0  0  0  0  0  0
  138.5310   78.9260  221.8390 C   0  0  0  0  0  0  0  0  0  0  0  0
  139.1600   79.0180  220.6090 C   0  0  0  0  0  0  0  0  0  0  0  0
  140.1530   78.0990  220.3210 C   0  0  0  0  0  0  0  0  0  0  0  0
  139.3280   71.2110  223.0670 C   0  0  0  0  0  0  0  0  0  0  0  0
  138.9780   69.8830  222.9410 C   0  0  0  0  0  0  0  0  0  0  0  0
  139.2510   69.0310  224.0180 C   0  0  0  0  0  0  0  0  0  0  0  0
  139.8590   69.5500  225.1670 C   0  0  0  0  0  0  0  0  0  0  0  0
  140.1460   68.7460  226.2530 C   0  0  0  0  0  0  0  0  0  0  0  0
  140.7430   69.2120  227.4030 C   0  0  0  0  0  0  0  0  0  0  0  0
  141.0990   68.1740  228.7730 Cl  0  0  0  0  0  0  0  0  0  0  0  0
  141.0610   70.5730  227.4400 C   0  0  0  0  0  0  0  0  0  0  0  0
  140.7870   71.4060  226.3680 C   0  0  0  0  0  0  0  0  0  0  0  0
  140.1890   70.9080  225.2310 C   0  0  0  0  0  0  0  0  0  0  0  0
  139.9150   71.7030  224.1790 N   0  0  0  0  0  0  0  0  0  0  0  0
  139.0600   73.8310  223.0890 H   0  0  0  0  0  0  0  0  0  0  0  0
  137.9145   73.8694  220.3770 H   0  0  0  0  0  0  0  0  0  0  0  0
  138.2806   75.2911  221.5749 H   0  0  0  0  0  0  0  0  0  0  0  0
  141.3400   72.9105  219.9201 H   0  0  0  0  0  0  0  0  0  0  0  0
  142.0963   74.0789  218.7124 H   0  0  0  0  0  0  0  0  0  0  0  0
  143.0550   73.7491  221.5252 H   0  0  0  0  0  0  0  0  0  0  0  0
  143.6639   72.7920  220.1000 H   0  0  0  0  0  0  0  0  0  0  0  0
  144.5103   75.3451  220.9859 H   0  0  0  0  0  0  0  0  0  0  0  0
  144.9990   74.4288  219.5039 H   0  0  0  0  0  0  0  0  0  0  0  0
  144.2449   76.4769  218.6764 H   0  0  0  0  0  0  0  0  0  0  0  0
  142.8281   75.3421  218.4867 H   0  0  0  0  0  0  0  0  0  0  0  0
  143.2236   77.4742  220.5964 H   0  0  0  0  0  0  0  0  0  0  0  0
  142.0081   77.4127  219.2302 H   0  0  0  0  0  0  0  0  0  0  0  0
  142.1235   75.8252  221.7567 H   0  0  0  0  0  0  0  0  0  0  0  0
  140.1600   76.2686  223.1546 H   0  0  0  0  0  0  0  0  0  0  0  0
  138.3665   77.8924  223.7286 H   0  0  0  0  0  0  0  0  0  0  0  0
  137.7380   79.6450  222.0923 H   0  0  0  0  0  0  0  0  0  0  0  0
  138.8792   79.7965  219.8844 H   0  0  0  0  0  0  0  0  0  0  0  0
  140.6648   78.1550  219.3489 H   0  0  0  0  0  0  0  0  0  0  0  0
  138.5002   69.5057  222.0248 H   0  0  0  0  0  0  0  0  0  0  0  0
  138.9902   67.9639  223.9617 H   0  0  0  0  0  0  0  0  0  0  0  0
  139.8843   67.6791  226.1962 H   0  0  0  0  0  0  0  0  0  0  0  0
  141.5385   70.9906  228.3387 H   0  0  0  0  0  0  0  0  0  0  0  0
  141.0487   72.4729  226.4247 H   0  0  0  0  0  0  0  0  0  0  0  0
  1  2  2  0
  2  3  1  0
  3  4  1  0
  4  5  1  0
  5  6  2  0
  5  7  1  0
  7  8  1  0
  8  9  1  0
  9 10  1  0
 10 11  1  0
 11 12  1  0
 12 13  1  0
 13 14  1  0
 14 15  2  0
 15 16  1  0
 16 17  2  0
 17 18  1  0
 18 19  2  0
  2 20  1  0
 20 21  2  0
 21 22  1  0
 22 23  2  0
 23 24  1  0
 24 25  2  0
 25 26  1  0
 25 27  1  0
 27 28  2  0
 28 29  1  0
 29 30  2  0
 13  7  1  0
 19 14  1  0
 30 20  1  0
 29 23  1  0
  3 31  1  0
  4 32  1  0
  4 33  1  0
  8 34  1  0
  8 35  1  0
  9 36  1  0
  9 37  1  0
 10 38  1  0
 10 39  1  0
 11 40  1  0
 11 41  1  0
 12 42  1  0
 12 43  1  0
 13 44  1  1
 15 45  1  0
 16 46  1  0
 17 47  1  0
 18 48  1  0
 19 49  1  0
 21 50  1  0
 22 51  1  0
 24 52  1  0
 27 53  1  0
 28 54  1  0
M  END
>  <smiles>  (62) 
O=C(NCC(=O)N1CCCCCC1c1ccccc1)c1ccc2cc(Cl)ccc2n1

>  <score_type>  (62) 
oracle

>  <origin>  (62) 
autodockgpu

>  <m_score__min__energy>  (62) 
-6.6299999999999999

>  <m_primary>  (62) 
energy

>  <rmsd>  (62) 
2.070871689974855

>  <m_score__min__rmsd>  (62) 
2.070871689974855

>  <meeko>  (62) 
{"free_energy": -5.07, "intermolecular_energy": -8.36, "internal_energy": -1.9, "cluster_size": 7, "cluster_id": 1, "rank_in_cluster": 7}

>  <energy>  (62) 
-5.9

>  <cluster_rmsd>  (62) 
0.86

>  <cluster>  (62) 
2

$$$$

     RDKit          3D

 54 57  0  0  0  0  0  0  0  0999 V2000
  138.9840   74.0630  220.4620 O   0  0  0  0  0  0  0  0  0  0  0  0
  139.8950   73.6720  221.2340 C   0  0  0  0  0  0  0  0  0  0  0  0
  141.2000   74.2410  220.9880 N   0  0  0  0  0  0  0  0  0  0  0  0
  141.4720   75.1750  219.9740 C   0  0  0  0  0  0  0  0  0  0  0  0
  141.0090   76.5430  220.0530 C   0  0  0  0  0  0  0  0  0  0  0  0
  140.2230   76.8670  219.0400 O   0  0  0  0  0  0  0  0  0  0  0  0
  141.2160   77.5790  220.9570 N   0  0  0  0  0  0  0  0  0  0  0  0
  141.9040   78.8020  220.6520 C   0  0  0  0  0  0  0  0  0  0  0  0
  141.1030   80.0470  220.8150 C   0  0  0  0  0  0  0  0  0  0  0  0
  141.1160   80.5710  222.2350 C   0  0  0  0  0  0  0  0  0  0  0  0
  140.3920   79.6300  223.1760 C   0  0  0  0  0  0  0  0  0  0  0  0
  141.0790   78.2900  223.3150 C   0  0  0  0  0  0  0  0  0  0  0  0
  140.6580   77.2950  222.2950 C   0  0  1  0  0  0  0  0  0  0  0  0
  139.1760   77.2160  222.2630 C   0  0  0  0  0  0  0  0  0  0  0  0
  138.4120   78.0660  221.5050 C   0  0  0  0  0  0  0  0  0  0  0  0
  137.0260   77.9720  221.4930 C   0  0  0  0  0  0  0  0  0  0  0  0
  136.4150   76.9990  222.2630 C   0  0  0  0  0  0  0  0  0  0  0  0
  137.1520   76.1220  223.0410 C   0  0  0  0  0  0  0  0  0  0  0  0
  138.5290   76.2490  223.0260 C   0  0  0  0  0  0  0  0  0  0  0  0
  139.6780   72.7100  222.3110 C   0  0  0  0  0  0  0  0  0  0  0  0
  138.5100   71.9770  222.2610 C   0  0  0  0  0  0  0  0  0  0  0  0
  138.2790   71.0480  223.2820 C   0  0  0  0  0  0  0  0  0  0  0  0
  139.2260   70.8990  224.3020 C   0  0  0  0  0  0  0  0  0  0  0  0
  139.0380   69.9950  225.3290 C   0  0  0  0  0  0  0  0  0  0  0  0
  139.9420   69.8130  226.3530 C   0  0  0  0  0  0  0  0  0  0  0  0
  139.6850   68.6590  227.6490 Cl  0  0  0  0  0  0  0  0  0  0  0  0
  141.0960   70.6010  226.3200 C   0  0  0  0  0  0  0  0  0  0  0  0
  141.3150   71.5170  225.3040 C   0  0  0  0  0  0  0  0  0  0  0  0
  140.3900   71.6730  224.2940 C   0  0  0  0  0  0  0  0  0  0  0  0
  140.5860   72.5590  223.2980 N   0  0  0  0  0  0  0  0  0  0  0  0
  141.9430   73.8820  221.6560 H   0  0  0  0  0  0  0  0  0  0  0  0
  142.5673   75.2244  219.8854 H   0  0  0  0  0  0  0  0  0  0  0  0
  140.8874   74.7796  219.1303 H   0  0  0  0  0  0  0  0  0  0  0  0
  142.7789   78.8729  221.3149 H   0  0  0  0  0  0  0  0  0  0  0  0
  142.1600   78.7457  219.5837 H   0  0  0  0  0  0  0  0  0  0  0  0
  141.5166   80.8205  220.1511 H   0  0  0  0  0  0  0  0  0  0  0  0
  140.0604   79.8058  220.5605 H   0  0  0  0  0  0  0  0  0  0  0  0
  142.1590   80.6781  222.5678 H   0  0  0  0  0  0  0  0  0  0  0  0
  140.6004   81.5425  222.2511 H   0  0  0  0  0  0  0  0  0  0  0  0
  140.3371   80.1005  224.1688 H   0  0  0  0  0  0  0  0  0  0  0  0
  139.3933   79.4457  222.7534 H   0  0  0  0  0  0  0  0  0  0  0  0
  142.1641   78.4447  223.2223 H   0  0  0  0  0  0  0  0  0  0  0  0
  140.7957   77.8835  224.2971 H   0  0  0  0  0  0  0  0  0  0  0  0
  141.0663   76.3161  222.5865 H   0  0  0  0  0  0  0  0  0  0  0  0
  138.9059   78.8367  220.8951 H   0  0  0  0  0  0  0  0  0  0  0  0
  136.4243   78.6602  220.8811 H   0  0  0  0  0  0  0  0  0  0  0  0
  135.3179   76.9200  222.2573 H   0  0  0  0  0  0  0  0  0  0  0  0
  136.6588   75.3504  223.6504 H   0  0  0  0  0  0  0  0  0  0  0  0
  139.1329   75.5626  223.6377 H   0  0  0  0  0  0  0  0  0  0  0  0
  137.7848   72.1181  221.4460 H   0  0  0  0  0  0  0  0  0  0  0  0
  137.3619   70.4406  223.2829 H   0  0  0  0  0  0  0  0  0  0  0  0
  138.1198   69.3893  225.3296 H   0  0  0  0  0  0  0  0  0  0  0  0
  141.8459   70.4915  227.1173 H   0  0  0  0  0  0  0  0  0  0  0  0
  142.2327   72.1235  225.3033 H   0  0  0  0  0  0  0  0  0  0  0  0
  1  2  2  0
  2  3  1  0
  3  4  1  0
  4  5  1  0
  5  6  2  0
  5  7  1  0
  7  8  1  0
  8  9  1  0
  9 10  1  0
 10 11  1  0
 11 12  1  0
 12 13  1  0
 13 14  1  0
 14 15  2  0
 15 16  1  0
 16 17  2  0
 17 18  1  0
 18 19  2  0
  2 20  1  0
 20 21  2  0
 21 22  1  0
 22 23  2  0
 23 24  1  0
 24 25  2  0
 25 26  1  0
 25 27  1  0
 27 28  2  0
 28 29  1  0
 29 30  2  0
 13  7  1  0
 19 14  1  0
 30 20  1  0
 29 23  1  0
  3 31  1  0
  4 32  1  0
  4 33  1  0
  8 34  1  0
  8 35  1  0
  9 36  1  0
  9 37  1  0
 10 38  1  0
 10 39  1  0
 11 40  1  0
 11 41  1  0
 12 42  1  0
 12 43  1  0
 13 44  1  1
 15 45  1  0
 16 46  1  0
 17 47  1  0
 18 48  1  0
 19 49  1  0
 21 50  1  0
 22 51  1  0
 24 52  1  0
 27 53  1  0
 28 54  1  0
M  END
>  <smiles>  (63) 
O=C(NCC(=O)N1CCCCCC1c1ccccc1)c1ccc2cc(Cl)ccc2n1

>  <score_type>  (63) 
oracle

>  <origin>  (63) 
autodockgpu

>  <m_score__min__energy>  (63) 
-6.6299999999999999

>  <m_primary>  (63) 
energy

>  <rmsd>  (63) 
3.8022915313212917

>  <m_score__min__rmsd>  (63) 
3.8022915313212917

>  <meeko>  (63) 
{"free_energy": -4.81, "intermolecular_energy": -8.1, "internal_energy": -2.51, "cluster_size": 5, "cluster_id": 5, "rank_in_cluster": 5}

>  <energy>  (63) 
-5.78

>  <cluster_rmsd>  (63) 
1.52

>  <cluster>  (63) 
2

$$$$

     RDKit          3D

 54 57  0  0  0  0  0  0  0  0999 V2000
  136.6750   77.5790  221.9750 O   0  0  0  0  0  0  0  0  0  0  0  0
  136.8600   76.4820  222.5610 C   0  0  0  0  0  0  0  0  0  0  0  0
  138.0910   75.8030  222.2260 N   0  0  0  0  0  0  0  0  0  0  0  0
  139.0440   76.3020  221.3230 C   0  0  0  0  0  0  0  0  0  0  0  0
  140.3460   76.7570  221.7600 C   0  0  0  0  0  0  0  0  0  0  0  0
  140.8060   76.0570  222.7830 O   0  0  0  0  0  0  0  0  0  0  0  0
  141.2040   77.7670  221.3380 N   0  0  0  0  0  0  0  0  0  0  0  0
  141.9080   77.7680  220.0870 C   0  0  0  0  0  0  0  0  0  0  0  0
  141.4610   78.7880  219.0990 C   0  0  0  0  0  0  0  0  0  0  0  0
  142.0850   80.1470  219.3360 C   0  0  0  0  0  0  0  0  0  0  0  0
  141.6600   80.7220  220.6710 C   0  0  0  0  0  0  0  0  0  0  0  0
  142.2190   79.9560  221.8490 C   0  0  0  0  0  0  0  0  0  0  0  0
  141.3340   78.8600  222.3230 C   0  0  1  0  0  0  0  0  0  0  0  0
  140.0100   79.4200  222.6960 C   0  0  0  0  0  0  0  0  0  0  0  0
  139.0490   79.7150  221.7640 C   0  0  0  0  0  0  0  0  0  0  0  0
  137.8180   80.2380  222.1400 C   0  0  0  0  0  0  0  0  0  0  0  0
  137.5680   80.4620  223.4800 C   0  0  0  0  0  0  0  0  0  0  0  0
  138.5130   80.1770  224.4510 C   0  0  0  0  0  0  0  0  0  0  0  0
  139.7260   79.6580  224.0370 C   0  0  0  0  0  0  0  0  0  0  0  0
  135.9140   75.9120  223.5160 C   0  0  0  0  0  0  0  0  0  0  0  0
  135.0820   76.7980  224.1680 C   0  0  0  0  0  0  0  0  0  0  0  0
  134.1650   76.2760  225.0880 C   0  0  0  0  0  0  0  0  0  0  0  0
  134.1270   74.8940  225.3100 C   0  0  0  0  0  0  0  0  0  0  0  0
  133.2390   74.3360  226.2090 C   0  0  0  0  0  0  0  0  0  0  0  0
  133.1660   72.9840  226.4600 C   0  0  0  0  0  0  0  0  0  0  0  0
  132.0300   72.2930  227.6060 Cl  0  0  0  0  0  0  0  0  0  0  0  0
  134.0490   72.1630  225.7510 C   0  0  0  0  0  0  0  0  0  0  0  0
  134.9510   72.6910  224.8430 C   0  0  0  0  0  0  0  0  0  0  0  0
  134.9990   74.0500  224.6150 C   0  0  0  0  0  0  0  0  0  0  0  0
  135.8700   74.5800  223.7360 N   0  0  0  0  0  0  0  0  0  0  0  0
  138.2080   74.8790  222.7360 H   0  0  0  0  0  0  0  0  0  0  0  0
  139.2266   75.4999  220.5927 H   0  0  0  0  0  0  0  0  0  0  0  0
  138.5739   77.2362  220.9819 H   0  0  0  0  0  0  0  0  0  0  0  0
  142.9730   77.9449  220.2980 H   0  0  0  0  0  0  0  0  0  0  0  0
  141.7029   76.7910  219.6251 H   0  0  0  0  0  0  0  0  0  0  0  0
  141.7371   78.4455  218.0908 H   0  0  0  0  0  0  0  0  0  0  0  0
  140.3721   78.8999  219.2079 H   0  0  0  0  0  0  0  0  0  0  0  0
  143.1803   80.0459  219.3217 H   0  0  0  0  0  0  0  0  0  0  0  0
  141.7468   80.8279  218.5410 H   0  0  0  0  0  0  0  0  0  0  0  0
  142.0101   81.7630  220.7318 H   0  0  0  0  0  0  0  0  0  0  0  0
  140.5634   80.6539  220.7246 H   0  0  0  0  0  0  0  0  0  0  0  0
  143.1843   79.5195  221.5530 H   0  0  0  0  0  0  0  0  0  0  0  0
  142.3186   80.6707  222.6792 H   0  0  0  0  0  0  0  0  0  0  0  0
  141.7985   78.4071  223.2114 H   0  0  0  0  0  0  0  0  0  0  0  0
  139.2563   79.5343  220.6989 H   0  0  0  0  0  0  0  0  0  0  0  0
  137.0546   80.4700  221.3827 H   0  0  0  0  0  0  0  0  0  0  0  0
  136.5951   80.8766  223.7828 H   0  0  0  0  0  0  0  0  0  0  0  0
  138.3058   80.3574  225.5161 H   0  0  0  0  0  0  0  0  0  0  0  0
  140.4912   79.4258  224.7924 H   0  0  0  0  0  0  0  0  0  0  0  0
  135.1372   77.8789  223.9716 H   0  0  0  0  0  0  0  0  0  0  0  0
  133.4811   76.9449  225.6311 H   0  0  0  0  0  0  0  0  0  0  0  0
  132.5556   75.0055  226.7519 H   0  0  0  0  0  0  0  0  0  0  0  0
  134.0263   71.0760  225.9182 H   0  0  0  0  0  0  0  0  0  0  0  0
  135.6342   72.0216  224.2997 H   0  0  0  0  0  0  0  0  0  0  0  0
  1  2  2  0
  2  3  1  0
  3  4  1  0
  4  5  1  0
  5  6  2  0
  5  7  1  0
  7  8  1  0
  8  9  1  0
  9 10  1  0
 10 11  1  0
 11 12  1  0
 12 13  1  0
 13 14  1  0
 14 15  2  0
 15 16  1  0
 16 17  2  0
 17 18  1  0
 18 19  2  0
  2 20  1  0
 20 21  2  0
 21 22  1  0
 22 23  2  0
 23 24  1  0
 24 25  2  0
 25 26  1  0
 25 27  1  0
 27 28  2  0
 28 29  1  0
 29 30  2  0
 13  7  1  0
 19 14  1  0
 30 20  1  0
 29 23  1  0
  3 31  1  0
  4 32  1  0
  4 33  1  0
  8 34  1  0
  8 35  1  0
  9 36  1  0
  9 37  1  0
 10 38  1  0
 10 39  1  0
 11 40  1  0
 11 41  1  0
 12 42  1  0
 12 43  1  0
 13 44  1  1
 15 45  1  0
 16 46  1  0
 17 47  1  0
 18 48  1  0
 19 49  1  0
 21 50  1  0
 22 51  1  0
 24 52  1  0
 27 53  1  0
 28 54  1  0
M  END
>  <smiles>  (64) 
O=C(NCC(=O)N1CCCCCC1c1ccccc1)c1ccc2cc(Cl)ccc2n1

>  <score_type>  (64) 
oracle

>  <origin>  (64) 
autodockgpu

>  <m_score__min__energy>  (64) 
-6.6299999999999999

>  <m_primary>  (64) 
energy

>  <rmsd>  (64) 
6.044501166181012

>  <m_score__min__rmsd>  (64) 
6.044501166181012

>  <meeko>  (64) 
{"free_energy": -4.66, "intermolecular_energy": -7.94, "internal_energy": -2.26, "cluster_size": 3, "cluster_id": 11, "rank_in_cluster": 3}

>  <energy>  (64) 
-5.74

>  <cluster_rmsd>  (64) 
1.28

>  <cluster>  (64) 
2

$$$$

     RDKit          3D

 54 57  0  0  0  0  0  0  0  0999 V2000
  139.5090   71.9630  220.5850 O   0  0  0  0  0  0  0  0  0  0  0  0
  139.0890   72.2240  221.7410 C   0  0  0  0  0  0  0  0  0  0  0  0
  138.2990   73.4280  221.8540 N   0  0  0  0  0  0  0  0  0  0  0  0
  137.9910   74.2710  220.7730 C   0  0  0  0  0  0  0  0  0  0  0  0
  138.7320   75.4880  220.5200 C   0  0  0  0  0  0  0  0  0  0  0  0
  138.1370   76.2630  219.6290 O   0  0  0  0  0  0  0  0  0  0  0  0
  139.9250   76.0090  221.0090 N   0  0  0  0  0  0  0  0  0  0  0  0
  140.1500   76.3870  222.3750 C   0  0  0  0  0  0  0  0  0  0  0  0
  141.1260   77.4920  222.5830 C   0  0  0  0  0  0  0  0  0  0  0  0
  140.7080   78.7800  221.9060 C   0  0  0  0  0  0  0  0  0  0  0  0
  140.5370   78.5850  220.4130 C   0  0  0  0  0  0  0  0  0  0  0  0
  141.4750   77.5360  219.8490 C   0  0  0  0  0  0  0  0  0  0  0  0
  140.9620   76.1470  219.9660 C   0  0  1  0  0  0  0  0  0  0  0  0
  142.0970   75.2180  220.1970 C   0  0  0  0  0  0  0  0  0  0  0  0
  141.9160   73.9310  220.6330 C   0  0  0  0  0  0  0  0  0  0  0  0
  142.9950   73.0830  220.8410 C   0  0  0  0  0  0  0  0  0  0  0  0
  144.2720   73.5530  220.6010 C   0  0  0  0  0  0  0  0  0  0  0  0
  144.4960   74.8460  220.1600 C   0  0  0  0  0  0  0  0  0  0  0  0
  143.3960   75.6610  219.9650 C   0  0  0  0  0  0  0  0  0  0  0  0
  139.3670   71.3870  222.9040 C   0  0  0  0  0  0  0  0  0  0  0  0
  138.9620   70.0710  222.8320 C   0  0  0  0  0  0  0  0  0  0  0  0
  139.2170   69.2460  223.9340 C   0  0  0  0  0  0  0  0  0  0  0  0
  139.8630   69.7810  225.0550 C   0  0  0  0  0  0  0  0  0  0  0  0
  140.1350   69.0040  226.1640 C   0  0  0  0  0  0  0  0  0  0  0  0
  140.7690   69.4860  227.2880 C   0  0  0  0  0  0  0  0  0  0  0  0
  141.1050   68.4830  228.6890 Cl  0  0  0  0  0  0  0  0  0  0  0  0
  141.1420   70.8330  227.2720 C   0  0  0  0  0  0  0  0  0  0  0  0
  140.8850   71.6390  226.1750 C   0  0  0  0  0  0  0  0  0  0  0  0
  140.2490   71.1250  225.0650 C   0  0  0  0  0  0  0  0  0  0  0  0
  139.9910   71.8930  223.9900 N   0  0  0  0  0  0  0  0  0  0  0  0
  137.9680   73.6180  222.8450 H   0  0  0  0  0  0  0  0  0  0  0  0
  138.0865   73.6569  219.8654 H   0  0  0  0  0  0  0  0  0  0  0  0
  136.9991   74.6557  221.0525 H   0  0  0  0  0  0  0  0  0  0  0  0
  139.1864   76.7013  222.8026 H   0  0  0  0  0  0  0  0  0  0  0  0
  140.5859   75.5036  222.8644 H   0  0  0  0  0  0  0  0  0  0  0  0
  141.2216   77.6777  223.6630 H   0  0  0  0  0  0  0  0  0  0  0  0
  142.0811   77.1783  222.1365 H   0  0  0  0  0  0  0  0  0  0  0  0
  139.7530   79.1173  222.3353 H   0  0  0  0  0  0  0  0  0  0  0  0
  141.4947   79.5309  222.0709 H   0  0  0  0  0  0  0  0  0  0  0  0
  139.5008   78.2734  220.2151 H   0  0  0  0  0  0  0  0  0  0  0  0
  140.7747   79.5410  219.9236 H   0  0  0  0  0  0  0  0  0  0  0  0
  141.6407   77.7558  218.7840 H   0  0  0  0  0  0  0  0  0  0  0  0
  142.4022   77.5855  220.4388 H   0  0  0  0  0  0  0  0  0  0  0  0
  140.4684   75.8855  219.0184 H   0  0  0  0  0  0  0  0  0  0  0  0
  140.8965   73.5634  220.8215 H   0  0  0  0  0  0  0  0  0  0  0  0
  142.8359   72.0526  221.1916 H   0  0  0  0  0  0  0  0  0  0  0  0
  145.1302   72.8845  220.7641 H   0  0  0  0  0  0  0  0  0  0  0  0
  145.5156   75.2131  219.9709 H   0  0  0  0  0  0  0  0  0  0  0  0
  143.5525   76.6922  219.6154 H   0  0  0  0  0  0  0  0  0  0  0  0
  138.4546   69.6816  221.9370 H   0  0  0  0  0  0  0  0  0  0  0  0
  138.9131   68.1889  223.9193 H   0  0  0  0  0  0  0  0  0  0  0  0
  139.8300   67.9472  226.1490 H   0  0  0  0  0  0  0  0  0  0  0  0
  141.6500   71.2618  228.1484 H   0  0  0  0  0  0  0  0  0  0  0  0
  141.1903   72.6957  226.1897 H   0  0  0  0  0  0  0  0  0  0  0  0
  1  2  2  0
  2  3  1  0
  3  4  1  0
  4  5  1  0
  5  6  2  0
  5  7  1  0
  7  8  1  0
  8  9  1  0
  9 10  1  0
 10 11  1  0
 11 12  1  0
 12 13  1  0
 13 14  1  0
 14 15  2  0
 15 16  1  0
 16 17  2  0
 17 18  1  0
 18 19  2  0
  2 20  1  0
 20 21  2  0
 21 22  1  0
 22 23  2  0
 23 24  1  0
 24 25  2  0
 25 26  1  0
 25 27  1  0
 27 28  2  0
 28 29  1  0
 29 30  2  0
 13  7  1  0
 19 14  1  0
 30 20  1  0
 29 23  1  0
  3 31  1  0
  4 32  1  0
  4 33  1  0
  8 34  1  0
  8 35  1  0
  9 36  1  0
  9 37  1  0
 10 38  1  0
 10 39  1  0
 11 40  1  0
 11 41  1  0
 12 42  1  0
 12 43  1  0
 13 44  1  6
 15 45  1  0
 16 46  1  0
 17 47  1  0
 18 48  1  0
 19 49  1  0
 21 50  1  0
 22 51  1  0
 24 52  1  0
 27 53  1  0
 28 54  1  0
M  END
>  <smiles>  (65) 
O=C(NCC(=O)N1CCCCCC1c1ccccc1)c1ccc2cc(Cl)ccc2n1

>  <score_type>  (65) 
oracle

>  <origin>  (65) 
autodockgpu

>  <m_score__min__energy>  (65) 
-6.6299999999999999

>  <m_primary>  (65) 
energy

>  <rmsd>  (65) 
2.5543913174327657

>  <m_score__min__rmsd>  (65) 
2.5543913174327657

>  <meeko>  (65) 
{"free_energy": -5.6, "intermolecular_energy": -8.88, "internal_energy": -2.12, "cluster_size": 11, "cluster_id": 2, "rank_in_cluster": 8}

>  <energy>  (65) 
-5.6

>  <cluster_rmsd>  (65) 
1.4

>  <cluster>  (65) 
2

$$$$

     RDKit          3D

 54 57  0  0  0  0  0  0  0  0999 V2000
  140.4190   72.7780  220.9790 O   0  0  0  0  0  0  0  0  0  0  0  0
  139.6880   72.8900  221.9970 C   0  0  0  0  0  0  0  0  0  0  0  0
  138.8080   74.0350  222.0020 N   0  0  0  0  0  0  0  0  0  0  0  0
  138.7360   74.9770  220.9630 C   0  0  0  0  0  0  0  0  0  0  0  0
  139.1460   76.3520  221.1490 C   0  0  0  0  0  0  0  0  0  0  0  0
  138.6490   76.8800  222.2540 O   0  0  0  0  0  0  0  0  0  0  0  0
  139.9430   77.2260  220.4170 N   0  0  0  0  0  0  0  0  0  0  0  0
  139.4880   77.9960  219.2930 C   0  0  0  0  0  0  0  0  0  0  0  0
  140.3350   77.9110  218.0720 C   0  0  0  0  0  0  0  0  0  0  0  0
  140.9820   76.5520  217.8990 C   0  0  0  0  0  0  0  0  0  0  0  0
  142.2410   76.4330  218.7320 C   0  0  0  0  0  0  0  0  0  0  0  0
  142.3200   77.4810  219.8140 C   0  0  0  0  0  0  0  0  0  0  0  0
  141.3340   77.2840  220.9080 C   0  0  1  0  0  0  0  0  0  0  0  0
  141.5100   78.3480  221.9290 C   0  0  0  0  0  0  0  0  0  0  0  0
  141.3770   78.1070  223.2720 C   0  0  0  0  0  0  0  0  0  0  0  0
  141.5460   79.1200  224.2060 C   0  0  0  0  0  0  0  0  0  0  0  0
  141.8530   80.3930  223.7640 C   0  0  0  0  0  0  0  0  0  0  0  0
  141.9960   80.6770  222.4160 C   0  0  0  0  0  0  0  0  0  0  0  0
  141.8200   79.6410  221.5160 C   0  0  0  0  0  0  0  0  0  0  0  0
  139.7090   71.9420  223.1070 C   0  0  0  0  0  0  0  0  0  0  0  0
  139.0720   70.7360  222.9050 C   0  0  0  0  0  0  0  0  0  0  0  0
  139.0780   69.8100  223.9550 C   0  0  0  0  0  0  0  0  0  0  0  0
  139.7210   70.1380  225.1550 C   0  0  0  0  0  0  0  0  0  0  0  0
  139.7520   69.2550  226.2160 C   0  0  0  0  0  0  0  0  0  0  0  0
  140.3710   69.5330  227.4150 C   0  0  0  0  0  0  0  0  0  0  0  0
  140.3990   68.3980  228.7530 Cl  0  0  0  0  0  0  0  0  0  0  0  0
  140.9910   70.7810  227.5280 C   0  0  0  0  0  0  0  0  0  0  0  0
  140.9790   71.6890  226.4820 C   0  0  0  0  0  0  0  0  0  0  0  0
  140.3490   71.3790  225.2950 C   0  0  0  0  0  0  0  0  0  0  0  0
  140.3270   72.2490  224.2680 N   0  0  0  0  0  0  0  0  0  0  0  0
  138.2120   74.0970  222.8790 H   0  0  0  0  0  0  0  0  0  0  0  0
  139.3520   74.5796  220.1429 H   0  0  0  0  0  0  0  0  0  0  0  0
  137.6507   75.0762  220.8139 H   0  0  0  0  0  0  0  0  0  0  0  0
  138.4785   77.6473  219.0299 H   0  0  0  0  0  0  0  0  0  0  0  0
  139.5249   79.0478  219.6131 H   0  0  0  0  0  0  0  0  0  0  0  0
  139.7059   78.1151  217.1931 H   0  0  0  0  0  0  0  0  0  0  0  0
  141.1422   78.6509  218.1771 H   0  0  0  0  0  0  0  0  0  0  0  0
  140.2703   75.7737  218.2117 H   0  0  0  0  0  0  0  0  0  0  0  0
  141.2528   76.4282  216.8401 H   0  0  0  0  0  0  0  0  0  0  0  0
  142.2601   75.4387  219.2021 H   0  0  0  0  0  0  0  0  0  0  0  0
  143.1003   76.5803  218.0612 H   0  0  0  0  0  0  0  0  0  0  0  0
  143.3304   77.4566  220.2483 H   0  0  0  0  0  0  0  0  0  0  0  0
  142.0895   78.4480  219.3431 H   0  0  0  0  0  0  0  0  0  0  0  0
  141.5278   76.3044  221.3694 H   0  0  0  0  0  0  0  0  0  0  0  0
  141.1317   77.0914  223.6161 H   0  0  0  0  0  0  0  0  0  0  0  0
  141.4373   78.9128  225.2808 H   0  0  0  0  0  0  0  0  0  0  0  0
  141.9869   81.1994  224.5000 H   0  0  0  0  0  0  0  0  0  0  0  0
  142.2414   81.6927  222.0723 H   0  0  0  0  0  0  0  0  0  0  0  0
  141.9284   79.8453  220.4406 H   0  0  0  0  0  0  0  0  0  0  0  0
  138.5754   70.5088  221.9501 H   0  0  0  0  0  0  0  0  0  0  0  0
  138.5827   68.8347  223.8386 H   0  0  0  0  0  0  0  0  0  0  0  0
  139.2572   68.2797  226.0979 H   0  0  0  0  0  0  0  0  0  0  0  0
  141.4987   71.0473  228.4668 H   0  0  0  0  0  0  0  0  0  0  0  0
  141.4752   72.6637  226.5989 H   0  0  0  0  0  0  0  0  0  0  0  0
  1  2  2  0
  2  3  1  0
  3  4  1  0
  4  5  1  0
  5  6  2  0
  5  7  1  0
  7  8  1  0
  8  9  1  0
  9 10  1  0
 10 11  1  0
 11 12  1  0
 12 13  1  0
 13 14  1  0
 14 15  2  0
 15 16  1  0
 16 17  2  0
 17 18  1  0
 18 19  2  0
  2 20  1  0
 20 21  2  0
 21 22  1  0
 22 23  2  0
 23 24  1  0
 24 25  2  0
 25 26  1  0
 25 27  1  0
 27 28  2  0
 28 29  1  0
 29 30  2  0
 13  7  1  0
 19 14  1  0
 30 20  1  0
 29 23  1  0
  3 31  1  0
  4 32  1  0
  4 33  1  0
  8 34  1  0
  8 35  1  0
  9 36  1  0
  9 37  1  0
 10 38  1  0
 10 39  1  0
 11 40  1  0
 11 41  1  0
 12 42  1  0
 12 43  1  0
 13 44  1  1
 15 45  1  0
 16 46  1  0
 17 47  1  0
 18 48  1  0
 19 49  1  0
 21 50  1  0
 22 51  1  0
 24 52  1  0
 27 53  1  0
 28 54  1  0
M  END
>  <smiles>  (66) 
O=C(NCC(=O)N1CCCCCC1c1ccccc1)c1ccc2cc(Cl)ccc2n1

>  <score_type>  (66) 
oracle

>  <origin>  (66) 
autodockgpu

>  <m_score__min__energy>  (66) 
-6.6299999999999999

>  <m_primary>  (66) 
energy

>  <rmsd>  (66) 
1.8890866785008495

>  <m_score__min__rmsd>  (66) 
1.8890866785008495

>  <meeko>  (66) 
{"free_energy": -6.11, "intermolecular_energy": -9.39, "internal_energy": -1.69, "cluster_size": 7, "cluster_id": 1, "rank_in_cluster": 3}

>  <energy>  (66) 
-5.34

>  <cluster_rmsd>  (66) 
0.99

>  <cluster>  (66) 
2

$$$$

     RDKit          3D

 54 57  0  0  0  0  0  0  0  0999 V2000
  139.8690   72.4720  220.6320 O   0  0  0  0  0  0  0  0  0  0  0  0
  139.7650   72.8150  221.8380 C   0  0  0  0  0  0  0  0  0  0  0  0
  139.5670   74.2280  222.0640 N   0  0  0  0  0  0  0  0  0  0  0  0
  139.4820   75.1840  221.0380 C   0  0  0  0  0  0  0  0  0  0  0  0
  140.6620   75.7820  220.4520 C   0  0  0  0  0  0  0  0  0  0  0  0
  141.0920   76.8250  221.1410 O   0  0  0  0  0  0  0  0  0  0  0  0
  141.4290   75.4940  219.3280 N   0  0  0  0  0  0  0  0  0  0  0  0
  141.8500   76.4660  218.3590 C   0  0  0  0  0  0  0  0  0  0  0  0
  141.2660   76.3110  216.9980 C   0  0  0  0  0  0  0  0  0  0  0  0
  142.0860   75.4010  216.1080 C   0  0  0  0  0  0  0  0  0  0  0  0
  142.7140   74.2740  216.9030 C   0  0  0  0  0  0  0  0  0  0  0  0
  141.7310   73.5710  217.8140 C   0  0  0  0  0  0  0  0  0  0  0  0
  141.7710   74.0620  219.2160 C   0  0  1  0  0  0  0  0  0  0  0  0
  143.1020   73.7700  219.8050 C   0  0  0  0  0  0  0  0  0  0  0  0
  143.9560   74.7610  220.2160 C   0  0  0  0  0  0  0  0  0  0  0  0
  145.1970   74.4610  220.7630 C   0  0  0  0  0  0  0  0  0  0  0  0
  145.5680   73.1360  220.8920 C   0  0  0  0  0  0  0  0  0  0  0  0
  144.7330   72.1070  220.4890 C   0  0  0  0  0  0  0  0  0  0  0  0
  143.5060   72.4460  219.9480 C   0  0  0  0  0  0  0  0  0  0  0  0
  139.8370   71.8710  222.9490 C   0  0  0  0  0  0  0  0  0  0  0  0
  139.3960   70.5880  222.7030 C   0  0  0  0  0  0  0  0  0  0  0  0
  139.4550   69.6630  223.7530 C   0  0  0  0  0  0  0  0  0  0  0  0
  139.9520   70.0690  224.9960 C   0  0  0  0  0  0  0  0  0  0  0  0
  140.0290   69.1910  226.0600 C   0  0  0  0  0  0  0  0  0  0  0  0
  140.5100   69.5450  227.3010 C   0  0  0  0  0  0  0  0  0  0  0  0
  140.5990   68.4140  228.6400 Cl  0  0  0  0  0  0  0  0  0  0  0  0
  140.9350   70.8680  227.4570 C   0  0  0  0  0  0  0  0  0  0  0  0
  140.8720   71.7730  226.4110 C   0  0  0  0  0  0  0  0  0  0  0  0
  140.3850   71.3860  225.1810 C   0  0  0  0  0  0  0  0  0  0  0  0
  140.3160   72.2530  224.1520 N   0  0  0  0  0  0  0  0  0  0  0  0
  139.4900   74.4770  223.0930 H   0  0  0  0  0  0  0  0  0  0  0  0
  138.9373   74.7029  220.2122 H   0  0  0  0  0  0  0  0  0  0  0  0
  139.0200   76.0386  221.5540 H   0  0  0  0  0  0  0  0  0  0  0  0
  141.5722   77.4616  218.7353 H   0  0  0  0  0  0  0  0  0  0  0  0
  142.9341   76.3228  218.2398 H   0  0  0  0  0  0  0  0  0  0  0  0
  140.2547   75.8893  217.0954 H   0  0  0  0  0  0  0  0  0  0  0  0
  141.2497   77.3060  216.5292 H   0  0  0  0  0  0  0  0  0  0  0  0
  141.4323   74.9726  215.3339 H   0  0  0  0  0  0  0  0  0  0  0  0
  142.8915   75.9951  215.6517 H   0  0  0  0  0  0  0  0  0  0  0  0
  143.1276   73.5370  216.1989 H   0  0  0  0  0  0  0  0  0  0  0  0
  143.4934   74.7168  217.5406 H   0  0  0  0  0  0  0  0  0  0  0  0
  140.7164   73.7268  217.4187 H   0  0  0  0  0  0  0  0  0  0  0  0
  142.0104   72.5073  217.8342 H   0  0  0  0  0  0  0  0  0  0  0  0
  140.9982   73.5258  219.7863 H   0  0  0  0  0  0  0  0  0  0  0  0
  143.6526   75.8131  220.1106 H   0  0  0  0  0  0  0  0  0  0  0  0
  145.8736   75.2650  221.0882 H   0  0  0  0  0  0  0  0  0  0  0  0
  146.5495   72.8928  221.3249 H   0  0  0  0  0  0  0  0  0  0  0  0
  145.0357   71.0549  220.5957 H   0  0  0  0  0  0  0  0  0  0  0  0
  142.8282   71.6439  219.6205 H   0  0  0  0  0  0  0  0  0  0  0  0
  139.0102   70.3002  221.7139 H   0  0  0  0  0  0  0  0  0  0  0  0
  139.1141   68.6281  223.6018 H   0  0  0  0  0  0  0  0  0  0  0  0
  139.6887   68.1561  225.9081 H   0  0  0  0  0  0  0  0  0  0  0  0
  141.3274   71.1965  228.4307 H   0  0  0  0  0  0  0  0  0  0  0  0
  141.2129   72.8078  226.5626 H   0  0  0  0  0  0  0  0  0  0  0  0
  1  2  2  0
  2  3  1  0
  3  4  1  0
  4  5  1  0
  5  6  2  0
  5  7  1  0
  7  8  1  0
  8  9  1  0
  9 10  1  0
 10 11  1  0
 11 12  1  0
 12 13  1  0
 13 14  1  0
 14 15  2  0
 15 16  1  0
 16 17  2  0
 17 18  1  0
 18 19  2  0
  2 20  1  0
 20 21  2  0
 21 22  1  0
 22 23  2  0
 23 24  1  0
 24 25  2  0
 25 26  1  0
 25 27  1  0
 27 28  2  0
 28 29  1  0
 29 30  2  0
 13  7  1  0
 19 14  1  0
 30 20  1  0
 29 23  1  0
  3 31  1  0
  4 32  1  0
  4 33  1  0
  8 34  1  0
  8 35  1  0
  9 36  1  0
  9 37  1  0
 10 38  1  0
 10 39  1  0
 11 40  1  0
 11 41  1  0
 12 42  1  0
 12 43  1  0
 13 44  1  1
 15 45  1  0
 16 46  1  0
 17 47  1  0
 18 48  1  0
 19 49  1  0
 21 50  1  0
 22 51  1  0
 24 52  1  0
 27 53  1  0
 28 54  1  0
M  END
>  <smiles>  (67) 
O=C(NCC(=O)N1CCCCCC1c1ccccc1)c1ccc2cc(Cl)ccc2n1

>  <score_type>  (67) 
oracle

>  <origin>  (67) 
autodockgpu

>  <m_score__min__energy>  (67) 
-6.6299999999999999

>  <m_primary>  (67) 
energy

>  <rmsd>  (67) 
2.3061147797357626

>  <m_score__min__rmsd>  (67) 
2.3061147797357626

>  <meeko>  (67) 
{"free_energy": -5.26, "intermolecular_energy": -8.54, "internal_energy": -2.17, "cluster_size": 11, "cluster_id": 2, "rank_in_cluster": 11}

>  <energy>  (67) 
-5.29

>  <cluster_rmsd>  (67) 
1.57

>  <cluster>  (67) 
2

$$$$

     RDKit          3D

 54 57  0  0  0  0  0  0  0  0999 V2000
  141.7170   72.0140  221.7490 O   0  0  0  0  0  0  0  0  0  0  0  0
  140.6790   72.6360  221.4100 C   0  0  0  0  0  0  0  0  0  0  0  0
  139.6350   71.8260  220.8270 N   0  0  0  0  0  0  0  0  0  0  0  0
  139.7290   70.4360  220.6420 C   0  0  0  0  0  0  0  0  0  0  0  0
  139.3250   69.5000  221.6680 C   0  0  0  0  0  0  0  0  0  0  0  0
  139.8910   68.3150  221.5180 O   0  0  0  0  0  0  0  0  0  0  0  0
  138.4740   69.5830  222.7650 N   0  0  0  0  0  0  0  0  0  0  0  0
  137.5610   68.5520  223.1680 C   0  0  0  0  0  0  0  0  0  0  0  0
  136.2020   69.0160  223.5630 C   0  0  0  0  0  0  0  0  0  0  0  0
  135.6240   70.0280  222.5970 C   0  0  0  0  0  0  0  0  0  0  0  0
  136.2430   71.3950  222.7980 C   0  0  0  0  0  0  0  0  0  0  0  0
  137.2770   71.4170  223.8990 C   0  0  0  0  0  0  0  0  0  0  0  0
  138.5950   70.8640  223.4900 C   0  0  1  0  0  0  0  0  0  0  0  0
  139.4690   70.7370  224.6830 C   0  0  0  0  0  0  0  0  0  0  0  0
  140.5650   71.5380  224.8790 C   0  0  0  0  0  0  0  0  0  0  0  0
  141.3670   71.3980  226.0040 C   0  0  0  0  0  0  0  0  0  0  0  0
  141.0470   70.4310  226.9380 C   0  0  0  0  0  0  0  0  0  0  0  0
  139.9490   69.6040  226.7760 C   0  0  0  0  0  0  0  0  0  0  0  0
  139.1750   69.7730  225.6430 C   0  0  0  0  0  0  0  0  0  0  0  0
  140.5150   74.0770  221.5820 C   0  0  0  0  0  0  0  0  0  0  0  0
  141.5340   74.8780  221.1110 C   0  0  0  0  0  0  0  0  0  0  0  0
  141.4000   76.2630  221.2640 C   0  0  0  0  0  0  0  0  0  0  0  0
  140.2530   76.7770  221.8800 C   0  0  0  0  0  0  0  0  0  0  0  0
  140.0790   78.1360  222.0520 C   0  0  0  0  0  0  0  0  0  0  0  0
  138.9690   78.6880  222.6520 C   0  0  0  0  0  0  0  0  0  0  0  0
  138.7660   80.4180  222.8610 Cl  0  0  0  0  0  0  0  0  0  0  0  0
  137.9870   77.7980  223.0990 C   0  0  0  0  0  0  0  0  0  0  0  0
  138.1310   76.4290  222.9420 C   0  0  0  0  0  0  0  0  0  0  0  0
  139.2550   75.9100  222.3360 C   0  0  0  0  0  0  0  0  0  0  0  0
  139.4110   74.5820  222.1750 N   0  0  0  0  0  0  0  0  0  0  0  0
  138.7790   72.3870  220.5490 H   0  0  0  0  0  0  0  0  0  0  0  0
  139.1232   70.2012  219.7543 H   0  0  0  0  0  0  0  0  0  0  0  0
  140.8171   70.2801  220.6007 H   0  0  0  0  0  0  0  0  0  0  0  0
  137.4487   67.8515  222.3273 H   0  0  0  0  0  0  0  0  0  0  0  0
  137.9982   68.0975  224.0693 H   0  0  0  0  0  0  0  0  0  0  0  0
  135.5311   68.1452  223.6029 H   0  0  0  0  0  0  0  0  0  0  0  0
  136.2916   69.5073  224.5431 H   0  0  0  0  0  0  0  0  0  0  0  0
  135.8201   69.6936  221.5676 H   0  0  0  0  0  0  0  0  0  0  0  0
  134.5423   70.1058  222.7811 H   0  0  0  0  0  0  0  0  0  0  0  0
  136.7245   71.7037  221.8584 H   0  0  0  0  0  0  0  0  0  0  0  0
  135.4357   72.0827  223.0901 H   0  0  0  0  0  0  0  0  0  0  0  0
  137.4216   72.4594  224.2192 H   0  0  0  0  0  0  0  0  0  0  0  0
  136.8974   70.7785  224.7103 H   0  0  0  0  0  0  0  0  0  0  0  0
  139.0541   71.5666  222.7790 H   0  0  0  0  0  0  0  0  0  0  0  0
  140.8133   72.3055  224.1312 H   0  0  0  0  0  0  0  0  0  0  0  0
  142.2434   72.0467  226.1494 H   0  0  0  0  0  0  0  0  0  0  0  0
  141.6794   70.3159  227.8307 H   0  0  0  0  0  0  0  0  0  0  0  0
  139.7003   68.8372  227.5244 H   0  0  0  0  0  0  0  0  0  0  0  0
  138.2986   69.1248  225.4955 H   0  0  0  0  0  0  0  0  0  0  0  0
  142.4229   74.4429  220.6308 H   0  0  0  0  0  0  0  0  0  0  0  0
  142.1881   76.9406  220.9038 H   0  0  0  0  0  0  0  0  0  0  0  0
  140.8676   78.8126  221.6912 H   0  0  0  0  0  0  0  0  0  0  0  0
  137.0825   78.1928  223.5848 H   0  0  0  0  0  0  0  0  0  0  0  0
  137.3431   75.7518  223.3034 H   0  0  0  0  0  0  0  0  0  0  0  0
  1  2  2  0
  2  3  1  0
  3  4  1  0
  4  5  1  0
  5  6  2  0
  5  7  1  0
  7  8  1  0
  8  9  1  0
  9 10  1  0
 10 11  1  0
 11 12  1  0
 12 13  1  0
 13 14  1  0
 14 15  2  0
 15 16  1  0
 16 17  2  0
 17 18  1  0
 18 19  2  0
  2 20  1  0
 20 21  2  0
 21 22  1  0
 22 23  2  0
 23 24  1  0
 24 25  2  0
 25 26  1  0
 25 27  1  0
 27 28  2  0
 28 29  1  0
 29 30  2  0
 13  7  1  0
 19 14  1  0
 30 20  1  0
 29 23  1  0
  3 31  1  0
  4 32  1  0
  4 33  1  0
  8 34  1  0
  8 35  1  0
  9 36  1  0
  9 37  1  0
 10 38  1  0
 10 39  1  0
 11 40  1  0
 11 41  1  0
 12 42  1  0
 12 43  1  0
 13 44  1  6
 15 45  1  0
 16 46  1  0
 17 47  1  0
 18 48  1  0
 19 49  1  0
 21 50  1  0
 22 51  1  0
 24 52  1  0
 27 53  1  0
 28 54  1  0
M  END
>  <smiles>  (68) 
O=C(NCC(=O)N1CCCCCC1c1ccccc1)c1ccc2cc(Cl)ccc2n1

>  <score_type>  (68) 
oracle

>  <origin>  (68) 
autodockgpu

>  <m_score__min__energy>  (68) 
-6.6299999999999999

>  <m_primary>  (68) 
energy

>  <rmsd>  (68) 
7.68570285519236

>  <m_score__min__rmsd>  (68) 
7.68570285519236

>  <meeko>  (68) 
{"free_energy": -4.54, "intermolecular_energy": -7.82, "internal_energy": -2.34, "cluster_size": 1, "cluster_id": 16, "rank_in_cluster": 1}

>  <energy>  (68) 
-5.26

>  <cluster_rmsd>  (68) 
1.31

>  <cluster>  (68) 
2

$$$$

     RDKit          3D

 54 57  0  0  0  0  0  0  0  0999 V2000
  142.2620   79.9570  218.8790 O   0  0  0  0  0  0  0  0  0  0  0  0
  141.7830   78.8540  219.2460 C   0  0  0  0  0  0  0  0  0  0  0  0
  140.5040   78.9280  219.9150 N   0  0  0  0  0  0  0  0  0  0  0  0
  139.8080   80.1250  220.1510 C   0  0  0  0  0  0  0  0  0  0  0  0
  138.9770   80.3070  221.3210 C   0  0  0  0  0  0  0  0  0  0  0  0
  138.7690   81.5830  221.5970 O   0  0  0  0  0  0  0  0  0  0  0  0
  138.3590   79.4310  222.2080 N   0  0  0  0  0  0  0  0  0  0  0  0
  136.9390   79.2790  222.3470 C   0  0  0  0  0  0  0  0  0  0  0  0
  136.4660   77.8960  222.6350 C   0  0  0  0  0  0  0  0  0  0  0  0
  137.2030   76.8450  221.8310 C   0  0  0  0  0  0  0  0  0  0  0  0
  138.4370   76.3600  222.5630 C   0  0  0  0  0  0  0  0  0  0  0  0
  139.6020   77.3150  222.4550 C   0  0  0  0  0  0  0  0  0  0  0  0
  139.3240   78.6610  223.0200 C   0  0  1  0  0  0  0  0  0  0  0  0
  140.6010   79.3970  223.1960 C   0  0  0  0  0  0  0  0  0  0  0  0
  140.6680   80.6080  223.8370 C   0  0  0  0  0  0  0  0  0  0  0  0
  141.8760   81.2760  223.9870 C   0  0  0  0  0  0  0  0  0  0  0  0
  143.0260   80.7020  223.4800 C   0  0  0  0  0  0  0  0  0  0  0  0
  142.9990   79.4810  222.8270 C   0  0  0  0  0  0  0  0  0  0  0  0
  141.7770   78.8470  222.6960 C   0  0  0  0  0  0  0  0  0  0  0  0
  142.4510   77.5760  219.0250 C   0  0  0  0  0  0  0  0  0  0  0  0
  143.0100   77.3750  217.7810 C   0  0  0  0  0  0  0  0  0  0  0  0
  143.6580   76.1560  217.5440 C   0  0  0  0  0  0  0  0  0  0  0  0
  143.7130   75.1990  218.5640 C   0  0  0  0  0  0  0  0  0  0  0  0
  144.3410   73.9840  218.3750 C   0  0  0  0  0  0  0  0  0  0  0  0
  144.4200   73.0130  219.3490 C   0  0  0  0  0  0  0  0  0  0  0  0
  145.2220   71.4740  219.0880 Cl  0  0  0  0  0  0  0  0  0  0  0  0
  143.8240   73.3050  220.5790 C   0  0  0  0  0  0  0  0  0  0  0  0
  143.1870   74.5140  220.8020 C   0  0  0  0  0  0  0  0  0  0  0  0
  143.1250   75.4650  219.8050 C   0  0  0  0  0  0  0  0  0  0  0  0
  142.5100   76.6470  220.0040 N   0  0  0  0  0  0  0  0  0  0  0  0
  140.1360   77.9780  220.2140 H   0  0  0  0  0  0  0  0  0  0  0  0
  140.5661   80.9214  220.1840 H   0  0  0  0  0  0  0  0  0  0  0  0
  139.0678   80.1279  219.3373 H   0  0  0  0  0  0  0  0  0  0  0  0
  136.6079   79.9286  223.1707 H   0  0  0  0  0  0  0  0  0  0  0  0
  136.5101   79.5470  221.3702 H   0  0  0  0  0  0  0  0  0  0  0  0
  136.6154   77.6890  223.7050 H   0  0  0  0  0  0  0  0  0  0  0  0
  135.4038   77.8437  222.3541 H   0  0  0  0  0  0  0  0  0  0  0  0
  136.5315   75.9916  221.6554 H   0  0  0  0  0  0  0  0  0  0  0  0
  137.5180   77.2938  220.8774 H   0  0  0  0  0  0  0  0  0  0  0  0
  138.1860   76.2324  223.6264 H   0  0  0  0  0  0  0  0  0  0  0  0
  138.7446   75.4125  222.0965 H   0  0  0  0  0  0  0  0  0  0  0  0
  140.4575   76.8818  222.9939 H   0  0  0  0  0  0  0  0  0  0  0  0
  139.8077   77.4520  221.3831 H   0  0  0  0  0  0  0  0  0  0  0  0
  138.8467   78.5265  224.0019 H   0  0  0  0  0  0  0  0  0  0  0  0
  139.7484   81.0579  224.2393 H   0  0  0  0  0  0  0  0  0  0  0  0
  141.9168   82.2473  224.5016 H   0  0  0  0  0  0  0  0  0  0  0  0
  143.9854   81.2271  223.5978 H   0  0  0  0  0  0  0  0  0  0  0  0
  143.9189   79.0305  222.4259 H   0  0  0  0  0  0  0  0  0  0  0  0
  141.7334   77.8766  222.1799 H   0  0  0  0  0  0  0  0  0  0  0  0
  142.9491   78.1470  216.9997 H   0  0  0  0  0  0  0  0  0  0  0  0
  144.1190   75.9528  216.5662 H   0  0  0  0  0  0  0  0  0  0  0  0
  144.8017   73.7810  217.3970 H   0  0  0  0  0  0  0  0  0  0  0  0
  143.8618   72.5590  221.3865 H   0  0  0  0  0  0  0  0  0  0  0  0
  142.7275   74.7173  221.7805 H   0  0  0  0  0  0  0  0  0  0  0  0
  1  2  2  0
  2  3  1  0
  3  4  1  0
  4  5  1  0
  5  6  2  0
  5  7  1  0
  7  8  1  0
  8  9  1  0
  9 10  1  0
 10 11  1  0
 11 12  1  0
 12 13  1  0
 13 14  1  0
 14 15  2  0
 15 16  1  0
 16 17  2  0
 17 18  1  0
 18 19  2  0
  2 20  1  0
 20 21  2  0
 21 22  1  0
 22 23  2  0
 23 24  1  0
 24 25  2  0
 25 26  1  0
 25 27  1  0
 27 28  2  0
 28 29  1  0
 29 30  2  0
 13  7  1  0
 19 14  1  0
 30 20  1  0
 29 23  1  0
  3 31  1  0
  4 32  1  0
  4 33  1  0
  8 34  1  0
  8 35  1  0
  9 36  1  0
  9 37  1  0
 10 38  1  0
 10 39  1  0
 11 40  1  0
 11 41  1  0
 12 42  1  0
 12 43  1  0
 13 44  1  1
 15 45  1  0
 16 46  1  0
 17 47  1  0
 18 48  1  0
 19 49  1  0
 21 50  1  0
 22 51  1  0
 24 52  1  0
 27 53  1  0
 28 54  1  0
M  END
>  <smiles>  (69) 
O=C(NCC(=O)N1CCCCCC1c1ccccc1)c1ccc2cc(Cl)ccc2n1

>  <score_type>  (69) 
oracle

>  <origin>  (69) 
autodockgpu

>  <m_score__min__energy>  (69) 
-6.6299999999999999

>  <m_primary>  (69) 
energy

>  <rmsd>  (69) 
7.911836449284356

>  <m_score__min__rmsd>  (69) 
7.911836449284356

>  <meeko>  (69) 
{"free_energy": -4.47, "intermolecular_energy": -7.75, "internal_energy": -2.37, "cluster_size": 1, "cluster_id": 17, "rank_in_cluster": 1}

>  <energy>  (69) 
-6.1

>  <cluster_rmsd>  (69) 
0.0

>  <cluster>  (69) 
3

$$$$

     RDKit          3D

 54 57  0  0  0  0  0  0  0  0999 V2000
  138.8510   73.0250  221.2930 O   0  0  0  0  0  0  0  0  0  0  0  0
  139.8920   72.8390  221.9740 C   0  0  0  0  0  0  0  0  0  0  0  0
  141.0310   73.6430  221.5930 N   0  0  0  0  0  0  0  0  0  0  0  0
  141.0170   74.5820  220.5490 C   0  0  0  0  0  0  0  0  0  0  0  0
  140.9990   76.0060  220.8040 C   0  0  0  0  0  0  0  0  0  0  0  0
  142.0210   76.6300  220.2430 O   0  0  0  0  0  0  0  0  0  0  0  0
  140.1440   76.8480  221.5080 N   0  0  0  0  0  0  0  0  0  0  0  0
  139.2270   76.4130  222.5230 C   0  0  0  0  0  0  0  0  0  0  0  0
  137.8020   76.3190  222.1030 C   0  0  0  0  0  0  0  0  0  0  0  0
  137.0930   77.6570  222.1300 C   0  0  0  0  0  0  0  0  0  0  0  0
  138.0820   78.8020  222.2120 C   0  0  0  0  0  0  0  0  0  0  0  0
  138.9470   78.9370  220.9780 C   0  0  0  0  0  0  0  0  0  0  0  0
  140.2650   78.2620  221.1000 C   0  0  1  0  0  0  0  0  0  0  0  0
  141.1290   79.0280  222.0320 C   0  0  0  0  0  0  0  0  0  0  0  0
  141.7920   80.1670  221.6520 C   0  0  0  0  0  0  0  0  0  0  0  0
  142.5950   80.8650  222.5450 C   0  0  0  0  0  0  0  0  0  0  0  0
  142.7210   80.3960  223.8390 C   0  0  0  0  0  0  0  0  0  0  0  0
  142.0680   79.2500  224.2610 C   0  0  0  0  0  0  0  0  0  0  0  0
  141.2780   78.5830  223.3430 C   0  0  0  0  0  0  0  0  0  0  0  0
  139.9710   71.8850  223.0750 C   0  0  0  0  0  0  0  0  0  0  0  0
  139.5140   70.6080  222.8240 C   0  0  0  0  0  0  0  0  0  0  0  0
  139.5790   69.6740  223.8650 C   0  0  0  0  0  0  0  0  0  0  0  0
  140.0980   70.0640  225.1050 C   0  0  0  0  0  0  0  0  0  0  0  0
  140.1810   69.1760  226.1590 C   0  0  0  0  0  0  0  0  0  0  0  0
  140.6830   69.5140  227.3960 C   0  0  0  0  0  0  0  0  0  0  0  0
  140.7810   68.3710  228.7240 Cl  0  0  0  0  0  0  0  0  0  0  0  0
  141.1230   70.8320  227.5590 C   0  0  0  0  0  0  0  0  0  0  0  0
  141.0540   71.7470  226.5220 C   0  0  0  0  0  0  0  0  0  0  0  0
  140.5450   71.3760  225.2950 C   0  0  0  0  0  0  0  0  0  0  0  0
  140.4700   72.2520  224.2750 N   0  0  0  0  0  0  0  0  0  0  0  0
  141.8910   73.4530  222.1870 H   0  0  0  0  0  0  0  0  0  0  0  0
  141.9167   74.3875  219.9467 H   0  0  0  0  0  0  0  0  0  0  0  0
  140.0281   74.4137  220.0976 H   0  0  0  0  0  0  0  0  0  0  0  0
  139.5462   75.4169  222.8634 H   0  0  0  0  0  0  0  0  0  0  0  0
  139.2597   77.1823  223.3086 H   0  0  0  0  0  0  0  0  0  0  0  0
  137.7631   75.9212  221.0782 H   0  0  0  0  0  0  0  0  0  0  0  0
  137.2891   75.6578  222.8170 H   0  0  0  0  0  0  0  0  0  0  0  0
  136.4954   77.7645  221.2128 H   0  0  0  0  0  0  0  0  0  0  0  0
  136.4481   77.6905  223.0205 H   0  0  0  0  0  0  0  0  0  0  0  0
  137.5212   79.7383  222.3491 H   0  0  0  0  0  0  0  0  0  0  0  0
  138.7529   78.5922  223.0581 H   0  0  0  0  0  0  0  0  0  0  0  0
  138.4084   78.4972  220.1257 H   0  0  0  0  0  0  0  0  0  0  0  0
  139.1452   80.0099  220.8382 H   0  0  0  0  0  0  0  0  0  0  0  0
  140.7331   78.2463  220.1047 H   0  0  0  0  0  0  0  0  0  0  0  0
  141.6858   80.5346  220.6207 H   0  0  0  0  0  0  0  0  0  0  0  0
  143.1223   81.7766  222.2273 H   0  0  0  0  0  0  0  0  0  0  0  0
  143.3548   80.9459  224.5503 H   0  0  0  0  0  0  0  0  0  0  0  0
  142.1743   78.8825  225.2924 H   0  0  0  0  0  0  0  0  0  0  0  0
  140.7500   77.6711  223.6586 H   0  0  0  0  0  0  0  0  0  0  0  0
  139.1116   70.3324  221.8380 H   0  0  0  0  0  0  0  0  0  0  0  0
  139.2257   68.6439  223.7099 H   0  0  0  0  0  0  0  0  0  0  0  0
  139.8281   68.1459  226.0026 H   0  0  0  0  0  0  0  0  0  0  0  0
  141.5319   71.1477  228.5302 H   0  0  0  0  0  0  0  0  0  0  0  0
  141.4076   72.7769  226.6779 H   0  0  0  0  0  0  0  0  0  0  0  0
  1  2  2  0
  2  3  1  0
  3  4  1  0
  4  5  1  0
  5  6  2  0
  5  7  1  0
  7  8  1  0
  8  9  1  0
  9 10  1  0
 10 11  1  0
 11 12  1  0
 12 13  1  0
 13 14  1  0
 14 15  2  0
 15 16  1  0
 16 17  2  0
 17 18  1  0
 18 19  2  0
  2 20  1  0
 20 21  2  0
 21 22  1  0
 22 23  2  0
 23 24  1  0
 24 25  2  0
 25 26  1  0
 25 27  1  0
 27 28  2  0
 28 29  1  0
 29 30  2  0
 13  7  1  0
 19 14  1  0
 30 20  1  0
 29 23  1  0
  3 31  1  0
  4 32  1  0
  4 33  1  0
  8 34  1  0
  8 35  1  0
  9 36  1  0
  9 37  1  0
 10 38  1  0
 10 39  1  0
 11 40  1  0
 11 41  1  0
 12 42  1  0
 12 43  1  0
 13 44  1  6
 15 45  1  0
 16 46  1  0
 17 47  1  0
 18 48  1  0
 19 49  1  0
 21 50  1  0
 22 51  1  0
 24 52  1  0
 27 53  1  0
 28 54  1  0
M  END
>  <smiles>  (70) 
O=C(NCC(=O)N1CCCCCC1c1ccccc1)c1ccc2cc(Cl)ccc2n1

>  <score_type>  (70) 
oracle

>  <origin>  (70) 
autodockgpu

>  <m_score__min__energy>  (70) 
-6.6299999999999999

>  <m_primary>  (70) 
energy

>  <rmsd>  (70) 
2.9299336555984143

>  <m_score__min__rmsd>  (70) 
2.9299336555984143

>  <meeko>  (70) 
{"free_energy": -5.7, "intermolecular_energy": -8.98, "internal_energy": -1.75, "cluster_size": 4, "cluster_id": 6, "rank_in_cluster": 1}

>  <energy>  (70) 
-5.19

>  <cluster_rmsd>  (70) 
0.9

>  <cluster>  (70) 
3

$$$$

     RDKit          3D

 54 57  0  0  0  0  0  0  0  0999 V2000
  139.9890   72.0620  220.6990 O   0  0  0  0  0  0  0  0  0  0  0  0
  139.8370   72.4170  221.8960 C   0  0  0  0  0  0  0  0  0  0  0  0
  139.5530   73.8200  222.0930 N   0  0  0  0  0  0  0  0  0  0  0  0
  139.4400   74.7530  221.0490 C   0  0  0  0  0  0  0  0  0  0  0  0
  140.3510   75.8700  220.9220 C   0  0  0  0  0  0  0  0  0  0  0  0
  139.9740   76.9120  221.6430 O   0  0  0  0  0  0  0  0  0  0  0  0
  141.5260   76.0780  220.2060 N   0  0  0  0  0  0  0  0  0  0  0  0
  142.2800   77.2990  220.2140 C   0  0  0  0  0  0  0  0  0  0  0  0
  141.8980   78.2960  219.1770 C   0  0  0  0  0  0  0  0  0  0  0  0
  141.9040   77.7190  217.7770 C   0  0  0  0  0  0  0  0  0  0  0  0
  142.8050   76.5050  217.6870 C   0  0  0  0  0  0  0  0  0  0  0  0
  142.0800   75.2080  217.9660 C   0  0  0  0  0  0  0  0  0  0  0  0
  141.9300   74.9000  219.4120 C   0  0  1  0  0  0  0  0  0  0  0  0
  143.1890   74.3020  219.9230 C   0  0  0  0  0  0  0  0  0  0  0  0
  144.3420   75.0290  220.0680 C   0  0  0  0  0  0  0  0  0  0  0  0
  145.5060   74.4450  220.5480 C   0  0  0  0  0  0  0  0  0  0  0  0
  145.4930   73.1040  220.8850 C   0  0  0  0  0  0  0  0  0  0  0  0
  144.3480   72.3360  220.7530 C   0  0  0  0  0  0  0  0  0  0  0  0
  143.2090   72.9540  220.2710 C   0  0  0  0  0  0  0  0  0  0  0  0
  139.9340   71.4970  223.0250 C   0  0  0  0  0  0  0  0  0  0  0  0
  139.4940   70.2070  222.8130 C   0  0  0  0  0  0  0  0  0  0  0  0
  139.5770   69.3050  223.8800 C   0  0  0  0  0  0  0  0  0  0  0  0
  140.0960   69.7380  225.1060 C   0  0  0  0  0  0  0  0  0  0  0  0
  140.1970   68.8820  226.1850 C   0  0  0  0  0  0  0  0  0  0  0  0
  140.7000   69.2640  227.4090 C   0  0  0  0  0  0  0  0  0  0  0  0
  140.8200   68.1610  228.7690 Cl  0  0  0  0  0  0  0  0  0  0  0  0
  141.1220   70.5910  227.5300 C   0  0  0  0  0  0  0  0  0  0  0  0
  141.0350   71.4740  226.4670 C   0  0  0  0  0  0  0  0  0  0  0  0
  140.5260   71.0600  225.2550 C   0  0  0  0  0  0  0  0  0  0  0  0
  140.4340   71.9060  224.2100 N   0  0  0  0  0  0  0  0  0  0  0  0
  139.4370   74.0810  223.1150 H   0  0  0  0  0  0  0  0  0  0  0  0
  139.5211   74.1805  220.1132 H   0  0  0  0  0  0  0  0  0  0  0  0
  138.4895   75.2535  221.2858 H   0  0  0  0  0  0  0  0  0  0  0  0
  142.1519   77.7697  221.1999 H   0  0  0  0  0  0  0  0  0  0  0  0
  143.3184   77.0136  219.9899 H   0  0  0  0  0  0  0  0  0  0  0  0
  140.8862   78.6653  219.4005 H   0  0  0  0  0  0  0  0  0  0  0  0
  142.6433   79.1046  219.2049 H   0  0  0  0  0  0  0  0  0  0  0  0
  140.8791   77.4257  217.5057 H   0  0  0  0  0  0  0  0  0  0  0  0
  142.2844   78.4861  217.0865 H   0  0  0  0  0  0  0  0  0  0  0  0
  143.2294   76.4581  216.6732 H   0  0  0  0  0  0  0  0  0  0  0  0
  143.5850   76.6171  218.4545 H   0  0  0  0  0  0  0  0  0  0  0  0
  141.0767   75.2692  217.5192 H   0  0  0  0  0  0  0  0  0  0  0  0
  142.6887   74.4022  217.5298 H   0  0  0  0  0  0  0  0  0  0  0  0
  141.1130   74.1718  219.5224 H   0  0  0  0  0  0  0  0  0  0  0  0
  144.3448   76.0955  219.7988 H   0  0  0  0  0  0  0  0  0  0  0  0
  146.4247   75.0398  220.6586 H   0  0  0  0  0  0  0  0  0  0  0  0
  146.4128   72.6366  221.2665 H   0  0  0  0  0  0  0  0  0  0  0  0
  144.3449   71.2696  221.0228 H   0  0  0  0  0  0  0  0  0  0  0  0
  142.2889   72.3616  220.1588 H   0  0  0  0  0  0  0  0  0  0  0  0
  139.0911   69.8973  221.8374 H   0  0  0  0  0  0  0  0  0  0  0  0
  139.2377   68.2659  223.7565 H   0  0  0  0  0  0  0  0  0  0  0  0
  139.8587   67.8427  226.0606 H   0  0  0  0  0  0  0  0  0  0  0  0
  141.5315   70.9409  228.4891 H   0  0  0  0  0  0  0  0  0  0  0  0
  141.3745   72.5130  226.5907 H   0  0  0  0  0  0  0  0  0  0  0  0
  1  2  2  0
  2  3  1  0
  3  4  1  0
  4  5  1  0
  5  6  2  0
  5  7  1  0
  7  8  1  0
  8  9  1  0
  9 10  1  0
 10 11  1  0
 11 12  1  0
 12 13  1  0
 13 14  1  0
 14 15  2  0
 15 16  1  0
 16 17  2  0
 17 18  1  0
 18 19  2  0
  2 20  1  0
 20 21  2  0
 21 22  1  0
 22 23  2  0
 23 24  1  0
 24 25  2  0
 25 26  1  0
 25 27  1  0
 27 28  2  0
 28 29  1  0
 29 30  2  0
 13  7  1  0
 19 14  1  0
 30 20  1  0
 29 23  1  0
  3 31  1  0
  4 32  1  0
  4 33  1  0
  8 34  1  0
  8 35  1  0
  9 36  1  0
  9 37  1  0
 10 38  1  0
 10 39  1  0
 11 40  1  0
 11 41  1  0
 12 42  1  0
 12 43  1  0
 13 44  1  6
 15 45  1  0
 16 46  1  0
 17 47  1  0
 18 48  1  0
 19 49  1  0
 21 50  1  0
 22 51  1  0
 24 52  1  0
 27 53  1  0
 28 54  1  0
M  END
>  <smiles>  (71) 
O=C(NCC(=O)N1CCCCCC1c1ccccc1)c1ccc2cc(Cl)ccc2n1

>  <score_type>  (71) 
oracle

>  <origin>  (71) 
autodockgpu

>  <m_score__min__energy>  (71) 
-6.6299999999999999

>  <m_primary>  (71) 
energy

>  <rmsd>  (71) 
2.30578093918267

>  <m_score__min__rmsd>  (71) 
2.30578093918267

>  <meeko>  (71) 
{"free_energy": -6.19, "intermolecular_energy": -9.47, "internal_energy": -1.97, "cluster_size": 11, "cluster_id": 2, "rank_in_cluster": 2}

>  <energy>  (71) 
-5.8

>  <cluster_rmsd>  (71) 
0.0

>  <cluster>  (71) 
4

$$$$

     RDKit          3D

 54 57  0  0  0  0  0  0  0  0999 V2000
  141.8080   80.4850  219.0270 O   0  0  0  0  0  0  0  0  0  0  0  0
  141.2350   79.5090  219.5740 C   0  0  0  0  0  0  0  0  0  0  0  0
  139.9650   79.8080  220.1950 N   0  0  0  0  0  0  0  0  0  0  0  0
  139.3740   81.0820  220.2040 C   0  0  0  0  0  0  0  0  0  0  0  0
  139.3990   81.9270  221.3780 C   0  0  0  0  0  0  0  0  0  0  0  0
  140.4010   82.7890  221.3570 O   0  0  0  0  0  0  0  0  0  0  0  0
  138.6000   82.0200  222.5130 N   0  0  0  0  0  0  0  0  0  0  0  0
  137.5850   83.0140  222.7150 C   0  0  0  0  0  0  0  0  0  0  0  0
  136.4120   82.5790  223.5230 C   0  0  0  0  0  0  0  0  0  0  0  0
  135.9020   81.2100  223.1260 C   0  0  0  0  0  0  0  0  0  0  0  0
  136.5830   80.1170  223.9230 C   0  0  0  0  0  0  0  0  0  0  0  0
  137.9880   79.8190  223.4400 C   0  0  0  0  0  0  0  0  0  0  0  0
  138.9080   80.9830  223.5190 C   0  0  1  0  0  0  0  0  0  0  0  0
  140.3110   80.5130  223.4080 C   0  0  0  0  0  0  0  0  0  0  0  0
  141.3820   81.3460  223.6050 C   0  0  0  0  0  0  0  0  0  0  0  0
  142.6860   80.8810  223.4950 C   0  0  0  0  0  0  0  0  0  0  0  0
  142.8980   79.5520  223.1810 C   0  0  0  0  0  0  0  0  0  0  0  0
  141.8430   78.6790  222.9760 C   0  0  0  0  0  0  0  0  0  0  0  0
  140.5590   79.1800  223.0930 C   0  0  0  0  0  0  0  0  0  0  0  0
  141.7910   78.1590  219.5940 C   0  0  0  0  0  0  0  0  0  0  0  0
  142.8550   77.9140  218.7520 C   0  0  0  0  0  0  0  0  0  0  0  0
  143.4060   76.6280  218.7530 C   0  0  0  0  0  0  0  0  0  0  0  0
  142.8650   75.6500  219.5950 C   0  0  0  0  0  0  0  0  0  0  0  0
  143.3770   74.3680  219.6290 C   0  0  0  0  0  0  0  0  0  0  0  0
  142.8770   73.3740  220.4420 C   0  0  0  0  0  0  0  0  0  0  0  0
  143.5420   71.7500  220.4700 Cl  0  0  0  0  0  0  0  0  0  0  0  0
  141.7970   73.7150  221.2610 C   0  0  0  0  0  0  0  0  0  0  0  0
  141.2600   74.9910  221.2520 C   0  0  0  0  0  0  0  0  0  0  0  0
  141.7840   75.9640  220.4260 C   0  0  0  0  0  0  0  0  0  0  0  0
  141.2750   77.2100  220.4040 N   0  0  0  0  0  0  0  0  0  0  0  0
  139.5150   78.9610  220.6500 H   0  0  0  0  0  0  0  0  0  0  0  0
  139.8621   81.6543  219.4014 H   0  0  0  0  0  0  0  0  0  0  0  0
  138.3042   80.8427  220.1124 H   0  0  0  0  0  0  0  0  0  0  0  0
  138.0478   83.8720  223.2245 H   0  0  0  0  0  0  0  0  0  0  0  0
  137.1915   83.2507  221.7154 H   0  0  0  0  0  0  0  0  0  0  0  0
  136.7060   82.5510  224.5826 H   0  0  0  0  0  0  0  0  0  0  0  0
  135.6006   83.2997  223.3438 H   0  0  0  0  0  0  0  0  0  0  0  0
  134.8182   81.1645  223.3086 H   0  0  0  0  0  0  0  0  0  0  0  0
  136.1239   81.0523  222.0602 H   0  0  0  0  0  0  0  0  0  0  0  0
  136.6336   80.4309  224.9761 H   0  0  0  0  0  0  0  0  0  0  0  0
  135.9900   79.1993  223.7958 H   0  0  0  0  0  0  0  0  0  0  0  0
  138.4019   79.0072  224.0562 H   0  0  0  0  0  0  0  0  0  0  0  0
  137.9103   79.5432  222.3780 H   0  0  0  0  0  0  0  0  0  0  0  0
  138.7654   81.4647  224.4976 H   0  0  0  0  0  0  0  0  0  0  0  0
  141.2051   82.4025  223.8549 H   0  0  0  0  0  0  0  0  0  0  0  0
  143.5366   81.5598  223.6553 H   0  0  0  0  0  0  0  0  0  0  0  0
  143.9290   79.1790  223.0918 H   0  0  0  0  0  0  0  0  0  0  0  0
  142.0201   77.6220  222.7283 H   0  0  0  0  0  0  0  0  0  0  0  0
  139.7067   78.5035  222.9320 H   0  0  0  0  0  0  0  0  0  0  0  0
  143.2575   78.7038  218.1007 H   0  0  0  0  0  0  0  0  0  0  0  0
  144.2565   76.3879  218.0980 H   0  0  0  0  0  0  0  0  0  0  0  0
  144.2273   74.1280  218.9737 H   0  0  0  0  0  0  0  0  0  0  0  0
  141.3646   72.9535  221.9267 H   0  0  0  0  0  0  0  0  0  0  0  0
  140.4099   75.2307  221.9077 H   0  0  0  0  0  0  0  0  0  0  0  0
  1  2  2  0
  2  3  1  0
  3  4  1  0
  4  5  1  0
  5  6  2  0
  5  7  1  0
  7  8  1  0
  8  9  1  0
  9 10  1  0
 10 11  1  0
 11 12  1  0
 12 13  1  0
 13 14  1  0
 14 15  2  0
 15 16  1  0
 16 17  2  0
 17 18  1  0
 18 19  2  0
  2 20  1  0
 20 21  2  0
 21 22  1  0
 22 23  2  0
 23 24  1  0
 24 25  2  0
 25 26  1  0
 25 27  1  0
 27 28  2  0
 28 29  1  0
 29 30  2  0
 13  7  1  0
 19 14  1  0
 30 20  1  0
 29 23  1  0
  3 31  1  0
  4 32  1  0
  4 33  1  0
  8 34  1  0
  8 35  1  0
  9 36  1  0
  9 37  1  0
 10 38  1  0
 10 39  1  0
 11 40  1  0
 11 41  1  0
 12 42  1  0
 12 43  1  0
 13 44  1  1
 15 45  1  0
 16 46  1  0
 17 47  1  0
 18 48  1  0
 19 49  1  0
 21 50  1  0
 22 51  1  0
 24 52  1  0
 27 53  1  0
 28 54  1  0
M  END
>  <smiles>  (72) 
O=C(NCC(=O)N1CCCCCC1c1ccccc1)c1ccc2cc(Cl)ccc2n1

>  <score_type>  (72) 
oracle

>  <origin>  (72) 
autodockgpu

>  <m_score__min__energy>  (72) 
-6.6299999999999999

>  <m_primary>  (72) 
energy

>  <rmsd>  (72) 
8.553566647068426

>  <m_score__min__rmsd>  (72) 
8.553566647068426

>  <meeko>  (72) 
{"free_energy": -4.23, "intermolecular_energy": -7.51, "internal_energy": -2.59, "cluster_size": 2, "cluster_id": 19, "rank_in_cluster": 2}

>  <energy>  (72) 
-4.88

>  <cluster_rmsd>  (72) 
0.36

>  <cluster>  (72) 
4

$$$$

     RDKit          3D

 54 57  0  0  0  0  0  0  0  0999 V2000
  140.2560   72.4720  220.7510 O   0  0  0  0  0  0  0  0  0  0  0  0
  140.0350   72.7800  221.9500 C   0  0  0  0  0  0  0  0  0  0  0  0
  139.7470   74.1760  222.1860 N   0  0  0  0  0  0  0  0  0  0  0  0
  139.7000   75.1510  221.1760 C   0  0  0  0  0  0  0  0  0  0  0  0
  140.8090   76.0460  220.9260 C   0  0  0  0  0  0  0  0  0  0  0  0
  140.9900   76.9100  221.9100 O   0  0  0  0  0  0  0  0  0  0  0  0
  141.7140   76.1880  219.8790 N   0  0  0  0  0  0  0  0  0  0  0  0
  142.3030   77.4330  219.4750 C   0  0  0  0  0  0  0  0  0  0  0  0
  141.8050   77.9900  218.1860 C   0  0  0  0  0  0  0  0  0  0  0  0
  142.5390   77.4330  216.9840 C   0  0  0  0  0  0  0  0  0  0  0  0
  143.1490   76.0810  217.2910 C   0  0  0  0  0  0  0  0  0  0  0  0
  142.1210   75.0570  217.7260 C   0  0  0  0  0  0  0  0  0  0  0  0
  142.0140   74.9110  219.2010 C   0  0  1  0  0  0  0  0  0  0  0  0
  143.2550   74.2900  219.7280 C   0  0  0  0  0  0  0  0  0  0  0  0
  144.3440   75.0320  220.1060 C   0  0  0  0  0  0  0  0  0  0  0  0
  145.4940   74.4260  220.5960 C   0  0  0  0  0  0  0  0  0  0  0  0
  145.5310   73.0490  220.7020 C   0  0  0  0  0  0  0  0  0  0  0  0
  144.4510   72.2650  220.3320 C   0  0  0  0  0  0  0  0  0  0  0  0
  143.3250   72.9050  219.8480 C   0  0  0  0  0  0  0  0  0  0  0  0
  140.0600   71.8150  223.0440 C   0  0  0  0  0  0  0  0  0  0  0  0
  139.6710   70.5260  222.7440 C   0  0  0  0  0  0  0  0  0  0  0  0
  139.6880   69.5820  223.7770 C   0  0  0  0  0  0  0  0  0  0  0  0
  140.0920   69.9730  225.0590 C   0  0  0  0  0  0  0  0  0  0  0  0
  140.1240   69.0750  226.1070 C   0  0  0  0  0  0  0  0  0  0  0  0
  140.5150   69.4140  227.3830 C   0  0  0  0  0  0  0  0  0  0  0  0
  140.5480   68.2570  228.7030 Cl  0  0  0  0  0  0  0  0  0  0  0  0
  140.8920   70.7440  227.5930 C   0  0  0  0  0  0  0  0  0  0  0  0
  140.8730   71.6700  226.5640 C   0  0  0  0  0  0  0  0  0  0  0  0
  140.4760   71.2970  225.2970 C   0  0  0  0  0  0  0  0  0  0  0  0
  140.4500   72.1840  224.2840 N   0  0  0  0  0  0  0  0  0  0  0  0
  139.5710   74.3980  223.2090 H   0  0  0  0  0  0  0  0  0  0  0  0
  139.5207   74.6114  220.2344 H   0  0  0  0  0  0  0  0  0  0  0  0
  138.9273   75.8378  221.5518 H   0  0  0  0  0  0  0  0  0  0  0  0
  142.1041   78.1737  220.2636 H   0  0  0  0  0  0  0  0  0  0  0  0
  143.3722   77.2253  219.3211 H   0  0  0  0  0  0  0  0  0  0  0  0
  140.7363   77.7486  218.0882 H   0  0  0  0  0  0  0  0  0  0  0  0
  141.9775   79.0762  218.2056 H   0  0  0  0  0  0  0  0  0  0  0  0
  141.8305   77.3255  216.1494 H   0  0  0  0  0  0  0  0  0  0  0  0
  143.3494   78.1279  216.7187 H   0  0  0  0  0  0  0  0  0  0  0  0
  143.6536   75.7099  216.3868 H   0  0  0  0  0  0  0  0  0  0  0  0
  143.8531   76.2176  218.1250 H   0  0  0  0  0  0  0  0  0  0  0  0
  141.1392   75.3619  217.3346 H   0  0  0  0  0  0  0  0  0  0  0  0
  142.4462   74.0843  217.3283 H   0  0  0  0  0  0  0  0  0  0  0  0
  141.1606   74.2515  219.4170 H   0  0  0  0  0  0  0  0  0  0  0  0
  144.3065   76.1280  220.0197 H   0  0  0  0  0  0  0  0  0  0  0  0
  146.3614   75.0329  220.8948 H   0  0  0  0  0  0  0  0  0  0  0  0
  146.4393   72.5642  221.0892 H   0  0  0  0  0  0  0  0  0  0  0  0
  144.4878   71.1692  220.4203 H   0  0  0  0  0  0  0  0  0  0  0  0
  142.4565   72.3002  219.5481 H   0  0  0  0  0  0  0  0  0  0  0  0
  139.3578   70.2493  221.7265 H   0  0  0  0  0  0  0  0  0  0  0  0
  139.3866   68.5420  223.5833 H   0  0  0  0  0  0  0  0  0  0  0  0
  139.8216   68.0354  225.9128 H   0  0  0  0  0  0  0  0  0  0  0  0
  141.2104   71.0613  228.5970 H   0  0  0  0  0  0  0  0  0  0  0  0
  141.1763   72.7094  226.7581 H   0  0  0  0  0  0  0  0  0  0  0  0
  1  2  2  0
  2  3  1  0
  3  4  1  0
  4  5  1  0
  5  6  2  0
  5  7  1  0
  7  8  1  0
  8  9  1  0
  9 10  1  0
 10 11  1  0
 11 12  1  0
 12 13  1  0
 13 14  1  0
 14 15  2  0
 15 16  1  0
 16 17  2  0
 17 18  1  0
 18 19  2  0
  2 20  1  0
 20 21  2  0
 21 22  1  0
 22 23  2  0
 23 24  1  0
 24 25  2  0
 25 26  1  0
 25 27  1  0
 27 28  2  0
 28 29  1  0
 29 30  2  0
 13  7  1  0
 19 14  1  0
 30 20  1  0
 29 23  1  0
  3 31  1  0
  4 32  1  0
  4 33  1  0
  8 34  1  0
  8 35  1  0
  9 36  1  0
  9 37  1  0
 10 38  1  0
 10 39  1  0
 11 40  1  0
 11 41  1  0
 12 42  1  0
 12 43  1  0
 13 44  1  6
 15 45  1  0
 16 46  1  0
 17 47  1  0
 18 48  1  0
 19 49  1  0
 21 50  1  0
 22 51  1  0
 24 52  1  0
 27 53  1  0
 28 54  1  0
M  END
>  <smiles>  (73) 
O=C(NCC(=O)N1CCCCCC1c1ccccc1)c1ccc2cc(Cl)ccc2n1

>  <score_type>  (73) 
oracle

>  <origin>  (73) 
autodockgpu

>  <m_score__min__energy>  (73) 
-6.6299999999999999

>  <m_primary>  (73) 
energy

>  <rmsd>  (73) 
2.345122553005791

>  <m_score__min__rmsd>  (73) 
2.345122553005791

>  <meeko>  (73) 
{"free_energy": -6.17, "intermolecular_energy": -9.45, "internal_energy": -2.09, "cluster_size": 11, "cluster_id": 2, "rank_in_cluster": 3}

>  <energy>  (73) 
-5.78

>  <cluster_rmsd>  (73) 
0.0

>  <cluster>  (73) 
5

$$$$

     RDKit          3D

 54 57  0  0  0  0  0  0  0  0999 V2000
  138.0830   75.7210  222.7730 O   0  0  0  0  0  0  0  0  0  0  0  0
  136.9110   76.0970  223.0260 C   0  0  0  0  0  0  0  0  0  0  0  0
  136.5630   77.4090  222.5310 N   0  0  0  0  0  0  0  0  0  0  0  0
  137.4400   78.2350  221.8090 C   0  0  0  0  0  0  0  0  0  0  0  0
  138.1690   79.3130  222.4410 C   0  0  0  0  0  0  0  0  0  0  0  0
  137.3660   80.2290  222.9560 O   0  0  0  0  0  0  0  0  0  0  0  0
  139.5210   79.5880  222.6170 N   0  0  0  0  0  0  0  0  0  0  0  0
  140.1200   79.9660  223.8650 C   0  0  0  0  0  0  0  0  0  0  0  0
  141.4560   79.3700  224.1420 C   0  0  0  0  0  0  0  0  0  0  0  0
  142.5910   80.1650  223.5310 C   0  0  0  0  0  0  0  0  0  0  0  0
  142.6720   79.9460  222.0340 C   0  0  0  0  0  0  0  0  0  0  0  0
  141.4350   80.4160  221.3000 C   0  0  0  0  0  0  0  0  0  0  0  0
  140.3000   79.4590  221.3680 C   0  0  1  0  0  0  0  0  0  0  0  0
  140.8070   78.0760  221.1810 C   0  0  0  0  0  0  0  0  0  0  0  0
  140.6070   77.0880  222.1100 C   0  0  0  0  0  0  0  0  0  0  0  0
  141.0920   75.8030  221.9100 C   0  0  0  0  0  0  0  0  0  0  0  0
  141.7900   75.5230  220.7500 C   0  0  0  0  0  0  0  0  0  0  0  0
  142.0130   76.4940  219.7880 C   0  0  0  0  0  0  0  0  0  0  0  0
  141.5140   77.7620  220.0240 C   0  0  0  0  0  0  0  0  0  0  0  0
  135.9490   75.2850  223.7650 C   0  0  0  0  0  0  0  0  0  0  0  0
  135.8360   73.9630  223.3910 C   0  0  0  0  0  0  0  0  0  0  0  0
  134.9200   73.1630  224.0850 C   0  0  0  0  0  0  0  0  0  0  0  0
  134.1630   73.7260  225.1180 C   0  0  0  0  0  0  0  0  0  0  0  0
  133.2480   72.9740  225.8290 C   0  0  0  0  0  0  0  0  0  0  0  0
  132.4820   73.4850  226.8530 C   0  0  0  0  0  0  0  0  0  0  0  0
  131.3240   72.5130  227.7450 Cl  0  0  0  0  0  0  0  0  0  0  0  0
  132.6640   74.8360  227.1630 C   0  0  0  0  0  0  0  0  0  0  0  0
  133.5730   75.6180  226.4690 C   0  0  0  0  0  0  0  0  0  0  0  0
  134.3250   75.0750  225.4490 C   0  0  0  0  0  0  0  0  0  0  0  0
  135.2140   75.8200  224.7640 N   0  0  0  0  0  0  0  0  0  0  0  0
  135.5680   77.6940  222.7690 H   0  0  0  0  0  0  0  0  0  0  0  0
  138.1957   77.5698  221.3659 H   0  0  0  0  0  0  0  0  0  0  0  0
  136.7526   78.7783  221.1439 H   0  0  0  0  0  0  0  0  0  0  0  0
  140.2296   81.0605  223.8704 H   0  0  0  0  0  0  0  0  0  0  0  0
  139.4504   79.5832  224.6493 H   0  0  0  0  0  0  0  0  0  0  0  0
  141.6030   79.3277  225.2313 H   0  0  0  0  0  0  0  0  0  0  0  0
  141.4720   78.3677  223.6890 H   0  0  0  0  0  0  0  0  0  0  0  0
  142.4264   81.2346  223.7284 H   0  0  0  0  0  0  0  0  0  0  0  0
  143.5350   79.8269  223.9833 H   0  0  0  0  0  0  0  0  0  0  0  0
  143.5409   80.4975  221.6455 H   0  0  0  0  0  0  0  0  0  0  0  0
  142.7638   78.8630  221.8643 H   0  0  0  0  0  0  0  0  0  0  0  0
  141.1113   81.3704  221.7408 H   0  0  0  0  0  0  0  0  0  0  0  0
  141.7089   80.5149  220.2392 H   0  0  0  0  0  0  0  0  0  0  0  0
  139.6012   79.7010  220.5537 H   0  0  0  0  0  0  0  0  0  0  0  0
  140.0517   77.3179  223.0313 H   0  0  0  0  0  0  0  0  0  0  0  0
  140.9235   75.0192  222.6632 H   0  0  0  0  0  0  0  0  0  0  0  0
  142.1769   74.5062  220.5875 H   0  0  0  0  0  0  0  0  0  0  0  0
  142.5686   76.2643  218.8668 H   0  0  0  0  0  0  0  0  0  0  0  0
  141.6813   78.5480  219.2729 H   0  0  0  0  0  0  0  0  0  0  0  0
  136.4457   73.5499  222.5739 H   0  0  0  0  0  0  0  0  0  0  0  0
  134.7969   72.1024  223.8206 H   0  0  0  0  0  0  0  0  0  0  0  0
  133.1251   71.9135  225.5639 H   0  0  0  0  0  0  0  0  0  0  0  0
  132.0737   75.2872  227.9742 H   0  0  0  0  0  0  0  0  0  0  0  0
  133.6955   76.6787  226.7334 H   0  0  0  0  0  0  0  0  0  0  0  0
  1  2  2  0
  2  3  1  0
  3  4  1  0
  4  5  1  0
  5  6  2  0
  5  7  1  0
  7  8  1  0
  8  9  1  0
  9 10  1  0
 10 11  1  0
 11 12  1  0
 12 13  1  0
 13 14  1  0
 14 15  2  0
 15 16  1  0
 16 17  2  0
 17 18  1  0
 18 19  2  0
  2 20  1  0
 20 21  2  0
 21 22  1  0
 22 23  2  0
 23 24  1  0
 24 25  2  0
 25 26  1  0
 25 27  1  0
 27 28  2  0
 28 29  1  0
 29 30  2  0
 13  7  1  0
 19 14  1  0
 30 20  1  0
 29 23  1  0
  3 31  1  0
  4 32  1  0
  4 33  1  0
  8 34  1  0
  8 35  1  0
  9 36  1  0
  9 37  1  0
 10 38  1  0
 10 39  1  0
 11 40  1  0
 11 41  1  0
 12 42  1  0
 12 43  1  0
 13 44  1  6
 15 45  1  0
 16 46  1  0
 17 47  1  0
 18 48  1  0
 19 49  1  0
 21 50  1  0
 22 51  1  0
 24 52  1  0
 27 53  1  0
 28 54  1  0
M  END
>  <smiles>  (74) 
O=C(NCC(=O)N1CCCCCC1c1ccccc1)c1ccc2cc(Cl)ccc2n1

>  <score_type>  (74) 
oracle

>  <origin>  (74) 
autodockgpu

>  <m_score__min__energy>  (74) 
-6.6299999999999999

>  <m_primary>  (74) 
energy

>  <rmsd>  (74) 
6.627328359107623

>  <m_score__min__rmsd>  (74) 
6.627328359107623

>  <meeko>  (74) 
{"free_energy": -4.96, "intermolecular_energy": -8.24, "internal_energy": -1.86, "cluster_size": 1, "cluster_id": 14, "rank_in_cluster": 1}

>  <energy>  (74) 
-5.11

>  <cluster_rmsd>  (74) 
1.3

>  <cluster>  (74) 
5

$$$$

     RDKit          3D

 54 57  0  0  0  0  0  0  0  0999 V2000
  140.1670   72.4450  220.6450 O   0  0  0  0  0  0  0  0  0  0  0  0
  139.9670   72.7770  221.8410 C   0  0  0  0  0  0  0  0  0  0  0  0
  139.7070   74.1820  222.0570 N   0  0  0  0  0  0  0  0  0  0  0  0
  139.6630   75.1400  221.0320 C   0  0  0  0  0  0  0  0  0  0  0  0
  138.6590   76.1820  221.0030 C   0  0  0  0  0  0  0  0  0  0  0  0
  137.8860   76.1050  219.9330 O   0  0  0  0  0  0  0  0  0  0  0  0
  138.3410   77.2360  221.8530 N   0  0  0  0  0  0  0  0  0  0  0  0
  137.5660   77.1090  223.0540 C   0  0  0  0  0  0  0  0  0  0  0  0
  136.1350   77.5070  222.9410 C   0  0  0  0  0  0  0  0  0  0  0  0
  135.9390   79.0080  222.9890 C   0  0  0  0  0  0  0  0  0  0  0  0
  137.2610   79.7390  222.8790 C   0  0  0  0  0  0  0  0  0  0  0  0
  137.8950   79.6370  221.5100 C   0  0  0  0  0  0  0  0  0  0  0  0
  138.8800   78.5310  221.3890 C   0  0  1  0  0  0  0  0  0  0  0  0
  140.1240   78.8940  222.1110 C   0  0  0  0  0  0  0  0  0  0  0  0
  140.6990   78.0720  223.0450 C   0  0  0  0  0  0  0  0  0  0  0  0
  141.8640   78.4360  223.7070 C   0  0  0  0  0  0  0  0  0  0  0  0
  142.4480   79.6530  223.4120 C   0  0  0  0  0  0  0  0  0  0  0  0
  141.8990   80.5120  222.4740 C   0  0  0  0  0  0  0  0  0  0  0  0
  140.7380   80.1130  221.8370 C   0  0  0  0  0  0  0  0  0  0  0  0
  139.9920   71.8300  222.9520 C   0  0  0  0  0  0  0  0  0  0  0  0
  139.4840   70.5720  222.7050 C   0  0  0  0  0  0  0  0  0  0  0  0
  139.4970   69.6450  223.7540 C   0  0  0  0  0  0  0  0  0  0  0  0
  140.0160   70.0230  224.9980 C   0  0  0  0  0  0  0  0  0  0  0  0
  140.0490   69.1420  226.0600 C   0  0  0  0  0  0  0  0  0  0  0  0
  140.5500   69.4690  227.3010 C   0  0  0  0  0  0  0  0  0  0  0  0
  140.5820   68.3340  228.6390 Cl  0  0  0  0  0  0  0  0  0  0  0  0
  141.0420   70.7680  227.4580 C   0  0  0  0  0  0  0  0  0  0  0  0
  141.0250   71.6760  226.4130 C   0  0  0  0  0  0  0  0  0  0  0  0
  140.5160   71.3160  225.1820 C   0  0  0  0  0  0  0  0  0  0  0  0
  140.4920   72.1860  224.1550 N   0  0  0  0  0  0  0  0  0  0  0  0
  139.5500   74.4230  223.0790 H   0  0  0  0  0  0  0  0  0  0  0  0
  140.6373   75.6505  221.0447 H   0  0  0  0  0  0  0  0  0  0  0  0
  139.3920   74.5316  220.1565 H   0  0  0  0  0  0  0  0  0  0  0  0
  137.6006   76.0558  223.3694 H   0  0  0  0  0  0  0  0  0  0  0  0
  138.0158   77.8046  223.7777 H   0  0  0  0  0  0  0  0  0  0  0  0
  135.7398   77.1311  221.9857 H   0  0  0  0  0  0  0  0  0  0  0  0
  135.6017   77.0752  223.8007 H   0  0  0  0  0  0  0  0  0  0  0  0
  135.2909   79.3117  222.1537 H   0  0  0  0  0  0  0  0  0  0  0  0
  135.4778   79.2674  223.9534 H   0  0  0  0  0  0  0  0  0  0  0  0
  137.0909   80.8019  223.1055 H   0  0  0  0  0  0  0  0  0  0  0  0
  137.9525   79.2658  223.5917 H   0  0  0  0  0  0  0  0  0  0  0  0
  137.0980   79.4749  220.7694 H   0  0  0  0  0  0  0  0  0  0  0  0
  138.4426   80.5755  221.3385 H   0  0  0  0  0  0  0  0  0  0  0  0
  139.1088   78.3949  220.3217 H   0  0  0  0  0  0  0  0  0  0  0  0
  140.2282   77.1047  223.2747 H   0  0  0  0  0  0  0  0  0  0  0  0
  142.3147   77.7663  224.4542 H   0  0  0  0  0  0  0  0  0  0  0  0
  143.3705   79.9467  223.9342 H   0  0  0  0  0  0  0  0  0  0  0  0
  142.3705   81.4787  222.2436 H   0  0  0  0  0  0  0  0  0  0  0  0
  140.2850   80.7807  221.0894 H   0  0  0  0  0  0  0  0  0  0  0  0
  139.0818   70.3057  221.7164 H   0  0  0  0  0  0  0  0  0  0  0  0
  139.1031   68.6292  223.6022 H   0  0  0  0  0  0  0  0  0  0  0  0
  139.6549   68.1264  225.9076 H   0  0  0  0  0  0  0  0  0  0  0  0
  141.4511   71.0751  228.4318 H   0  0  0  0  0  0  0  0  0  0  0  0
  141.4199   72.6913  226.5651 H   0  0  0  0  0  0  0  0  0  0  0  0
  1  2  2  0
  2  3  1  0
  3  4  1  0
  4  5  1  0
  5  6  2  0
  5  7  1  0
  7  8  1  0
  8  9  1  0
  9 10  1  0
 10 11  1  0
 11 12  1  0
 12 13  1  0
 13 14  1  0
 14 15  2  0
 15 16  1  0
 16 17  2  0
 17 18  1  0
 18 19  2  0
  2 20  1  0
 20 21  2  0
 21 22  1  0
 22 23  2  0
 23 24  1  0
 24 25  2  0
 25 26  1  0
 25 27  1  0
 27 28  2  0
 28 29  1  0
 29 30  2  0
 13  7  1  0
 19 14  1  0
 30 20  1  0
 29 23  1  0
  3 31  1  0
  4 32  1  0
  4 33  1  0
  8 34  1  0
  8 35  1  0
  9 36  1  0
  9 37  1  0
 10 38  1  0
 10 39  1  0
 11 40  1  0
 11 41  1  0
 12 42  1  0
 12 43  1  0
 13 44  1  6
 15 45  1  0
 16 46  1  0
 17 47  1  0
 18 48  1  0
 19 49  1  0
 21 50  1  0
 22 51  1  0
 24 52  1  0
 27 53  1  0
 28 54  1  0
M  END
>  <smiles>  (75) 
O=C(NCC(=O)N1CCCCCC1c1ccccc1)c1ccc2cc(Cl)ccc2n1

>  <score_type>  (75) 
oracle

>  <origin>  (75) 
autodockgpu

>  <m_score__min__energy>  (75) 
-6.6299999999999999

>  <m_primary>  (75) 
energy

>  <rmsd>  (75) 
3.4738878591281446

>  <m_score__min__rmsd>  (75) 
3.4738878591281446

>  <meeko>  (75) 
{"free_energy": -5.69, "intermolecular_energy": -8.97, "internal_energy": -1.67, "cluster_size": 4, "cluster_id": 6, "rank_in_cluster": 2}

>  <energy>  (75) 
-5.01

>  <cluster_rmsd>  (75) 
1.42

>  <cluster>  (75) 
5

$$$$

     RDKit          3D

 54 57  0  0  0  0  0  0  0  0999 V2000
  139.8380   71.9870  220.8780 O   0  0  0  0  0  0  0  0  0  0  0  0
  139.7790   72.3510  222.0800 C   0  0  0  0  0  0  0  0  0  0  0  0
  139.5840   73.7670  222.2880 N   0  0  0  0  0  0  0  0  0  0  0  0
  139.4580   74.7040  221.2490 C   0  0  0  0  0  0  0  0  0  0  0  0
  139.8690   76.0820  221.4100 C   0  0  0  0  0  0  0  0  0  0  0  0
  139.7850   76.4890  222.6650 O   0  0  0  0  0  0  0  0  0  0  0  0
  140.3260   77.0590  220.5310 N   0  0  0  0  0  0  0  0  0  0  0  0
  139.5420   77.6390  219.4780 C   0  0  0  0  0  0  0  0  0  0  0  0
  139.6650   76.9810  218.1480 C   0  0  0  0  0  0  0  0  0  0  0  0
  141.0390   77.1500  217.5350 C   0  0  0  0  0  0  0  0  0  0  0  0
  142.1190   76.6110  218.4500 C   0  0  0  0  0  0  0  0  0  0  0  0
  142.5160   77.5900  219.5310 C   0  0  0  0  0  0  0  0  0  0  0  0
  141.7290   77.4470  220.7830 C   0  0  1  0  0  0  0  0  0  0  0  0
  141.8150   78.7030  221.5690 C   0  0  0  0  0  0  0  0  0  0  0  0
  141.8180   79.9410  220.9770 C   0  0  0  0  0  0  0  0  0  0  0  0
  141.9010   81.1010  221.7360 C   0  0  0  0  0  0  0  0  0  0  0  0
  141.9810   80.9970  223.1120 C   0  0  0  0  0  0  0  0  0  0  0  0
  141.9810   79.7660  223.7460 C   0  0  0  0  0  0  0  0  0  0  0  0
  141.8980   78.6330  222.9560 C   0  0  0  0  0  0  0  0  0  0  0  0
  139.8950   71.4280  223.2050 C   0  0  0  0  0  0  0  0  0  0  0  0
  139.4750   70.1320  222.9900 C   0  0  0  0  0  0  0  0  0  0  0  0
  139.5770   69.2270  224.0540 C   0  0  0  0  0  0  0  0  0  0  0  0
  140.0940   69.6640  225.2790 C   0  0  0  0  0  0  0  0  0  0  0  0
  140.2130   68.8060  226.3540 C   0  0  0  0  0  0  0  0  0  0  0  0
  140.7160   69.1910  227.5770 C   0  0  0  0  0  0  0  0  0  0  0  0
  140.8590   68.0850  228.9330 Cl  0  0  0  0  0  0  0  0  0  0  0  0
  141.1170   70.5240  227.7020 C   0  0  0  0  0  0  0  0  0  0  0  0
  141.0120   71.4100  226.6430 C   0  0  0  0  0  0  0  0  0  0  0  0
  140.5040   70.9920  225.4310 C   0  0  0  0  0  0  0  0  0  0  0  0
  140.3940   71.8400  224.3900 N   0  0  0  0  0  0  0  0  0  0  0  0
  139.5450   74.0360  223.3140 H   0  0  0  0  0  0  0  0  0  0  0  0
  140.0369   74.3061  220.4025 H   0  0  0  0  0  0  0  0  0  0  0  0
  138.3664   74.7967  221.1503 H   0  0  0  0  0  0  0  0  0  0  0  0
  138.4852   77.5968  219.7802 H   0  0  0  0  0  0  0  0  0  0  0  0
  139.9257   78.6613  219.3449 H   0  0  0  0  0  0  0  0  0  0  0  0
  139.4632   75.9063  218.2675 H   0  0  0  0  0  0  0  0  0  0  0  0
  138.9400   77.4596  217.4732 H   0  0  0  0  0  0  0  0  0  0  0  0
  141.0745   76.6063  216.5794 H   0  0  0  0  0  0  0  0  0  0  0  0
  141.2201   78.2236  217.3784 H   0  0  0  0  0  0  0  0  0  0  0  0
  141.7482   75.6921  218.9275 H   0  0  0  0  0  0  0  0  0  0  0  0
  143.0098   76.4208  217.8333 H   0  0  0  0  0  0  0  0  0  0  0  0
  143.5785   77.4332  219.7686 H   0  0  0  0  0  0  0  0  0  0  0  0
  142.3185   78.5990  219.1400 H   0  0  0  0  0  0  0  0  0  0  0  0
  142.1669   76.6247  221.3680 H   0  0  0  0  0  0  0  0  0  0  0  0
  141.7535   80.0159  219.8815 H   0  0  0  0  0  0  0  0  0  0  0  0
  141.9031   82.0876  221.2495 H   0  0  0  0  0  0  0  0  0  0  0  0
  142.0462   81.9132  223.7173 H   0  0  0  0  0  0  0  0  0  0  0  0
  142.0449   79.6912  224.8416 H   0  0  0  0  0  0  0  0  0  0  0  0
  141.8976   77.6453  223.4401 H   0  0  0  0  0  0  0  0  0  0  0  0
  139.0731   69.8194  222.0149 H   0  0  0  0  0  0  0  0  0  0  0  0
  139.2540   68.1831  223.9281 H   0  0  0  0  0  0  0  0  0  0  0  0
  139.8898   67.7622  226.2274 H   0  0  0  0  0  0  0  0  0  0  0  0
  141.5243   70.8765  228.6611 H   0  0  0  0  0  0  0  0  0  0  0  0
  141.3358   72.4537  226.7693 H   0  0  0  0  0  0  0  0  0  0  0  0
  1  2  2  0
  2  3  1  0
  3  4  1  0
  4  5  1  0
  5  6  2  0
  5  7  1  0
  7  8  1  0
  8  9  1  0
  9 10  1  0
 10 11  1  0
 11 12  1  0
 12 13  1  0
 13 14  1  0
 14 15  2  0
 15 16  1  0
 16 17  2  0
 17 18  1  0
 18 19  2  0
  2 20  1  0
 20 21  2  0
 21 22  1  0
 22 23  2  0
 23 24  1  0
 24 25  2  0
 25 26  1  0
 25 27  1  0
 27 28  2  0
 28 29  1  0
 29 30  2  0
 13  7  1  0
 19 14  1  0
 30 20  1  0
 29 23  1  0
  3 31  1  0
  4 32  1  0
  4 33  1  0
  8 34  1  0
  8 35  1  0
  9 36  1  0
  9 37  1  0
 10 38  1  0
 10 39  1  0
 11 40  1  0
 11 41  1  0
 12 42  1  0
 12 43  1  0
 13 44  1  1
 15 45  1  0
 16 46  1  0
 17 47  1  0
 18 48  1  0
 19 49  1  0
 21 50  1  0
 22 51  1  0
 24 52  1  0
 27 53  1  0
 28 54  1  0
M  END
>  <smiles>  (76) 
O=C(NCC(=O)N1CCCCCC1c1ccccc1)c1ccc2cc(Cl)ccc2n1

>  <score_type>  (76) 
oracle

>  <origin>  (76) 
autodockgpu

>  <m_score__min__energy>  (76) 
-6.6299999999999999

>  <m_primary>  (76) 
energy

>  <rmsd>  (76) 
1.7383267229435255

>  <m_score__min__rmsd>  (76) 
1.7383267229435255

>  <meeko>  (76) 
{"free_energy": -6.63, "intermolecular_energy": -9.91, "internal_energy": -1.88, "cluster_size": 7, "cluster_id": 1, "rank_in_cluster": 1}

>  <energy>  (76) 
-4.92

>  <cluster_rmsd>  (76) 
1.34

>  <cluster>  (76) 
5

$$$$

     RDKit          3D

 54 57  0  0  0  0  0  0  0  0999 V2000
  139.2800   73.7130  220.2280 O   0  0  0  0  0  0  0  0  0  0  0  0
  139.8130   73.7240  221.3670 C   0  0  0  0  0  0  0  0  0  0  0  0
  140.5270   74.9340  221.7030 N   0  0  0  0  0  0  0  0  0  0  0  0
  140.6360   76.0450  220.8520 C   0  0  0  0  0  0  0  0  0  0  0  0
  139.5220   76.9370  220.6140 C   0  0  0  0  0  0  0  0  0  0  0  0
  138.5620   76.3660  219.9080 O   0  0  0  0  0  0  0  0  0  0  0  0
  139.2520   78.2560  220.9660 N   0  0  0  0  0  0  0  0  0  0  0  0
  138.0280   78.7050  221.5650 C   0  0  0  0  0  0  0  0  0  0  0  0
  138.1330   79.9360  222.3960 C   0  0  0  0  0  0  0  0  0  0  0  0
  138.1050   81.2050  221.5710 C   0  0  0  0  0  0  0  0  0  0  0  0
  139.4600   81.4930  220.9590 C   0  0  0  0  0  0  0  0  0  0  0  0
  139.9090   80.4230  219.9900 C   0  0  0  0  0  0  0  0  0  0  0  0
  140.3660   79.1740  220.6510 C   0  0  1  0  0  0  0  0  0  0  0  0
  141.1520   79.5150  221.8640 C   0  0  0  0  0  0  0  0  0  0  0  0
  142.0830   80.5210  221.8760 C   0  0  0  0  0  0  0  0  0  0  0  0
  142.8050   80.8200  223.0240 C   0  0  0  0  0  0  0  0  0  0  0  0
  142.5740   80.0830  224.1700 C   0  0  0  0  0  0  0  0  0  0  0  0
  141.6430   79.0590  224.1980 C   0  0  0  0  0  0  0  0  0  0  0  0
  140.9440   78.7910  223.0350 C   0  0  0  0  0  0  0  0  0  0  0  0
  139.7310   72.6060  222.3020 C   0  0  0  0  0  0  0  0  0  0  0  0
  138.9420   71.5390  221.9250 C   0  0  0  0  0  0  0  0  0  0  0  0
  138.8470   70.4540  222.8050 C   0  0  0  0  0  0  0  0  0  0  0  0
  139.5460   70.4910  224.0170 C   0  0  0  0  0  0  0  0  0  0  0  0
  139.4810   69.4430  224.9140 C   0  0  0  0  0  0  0  0  0  0  0  0
  140.1510   69.4350  226.1180 C   0  0  0  0  0  0  0  0  0  0  0  0
  140.0560   68.0930  227.2460 Cl  0  0  0  0  0  0  0  0  0  0  0  0
  140.9260   70.5600  226.4150 C   0  0  0  0  0  0  0  0  0  0  0  0
  141.0130   71.6270  225.5370 C   0  0  0  0  0  0  0  0  0  0  0  0
  140.3290   71.6030  224.3390 C   0  0  0  0  0  0  0  0  0  0  0  0
  140.4020   72.6320  223.4730 N   0  0  0  0  0  0  0  0  0  0  0  0
  140.9670   74.9020  222.6690 H   0  0  0  0  0  0  0  0  0  0  0  0
  141.4476   76.6665  221.2584 H   0  0  0  0  0  0  0  0  0  0  0  0
  140.7692   75.5718  219.8680 H   0  0  0  0  0  0  0  0  0  0  0  0
  137.3081   78.9023  220.7570 H   0  0  0  0  0  0  0  0  0  0  0  0
  137.7169   77.9038  222.2515 H   0  0  0  0  0  0  0  0  0  0  0  0
  137.2893   79.9568  223.1015 H   0  0  0  0  0  0  0  0  0  0  0  0
  139.1007   79.9016  222.9179 H   0  0  0  0  0  0  0  0  0  0  0  0
  137.3645   81.0925  220.7654 H   0  0  0  0  0  0  0  0  0  0  0  0
  137.8370   82.0428  222.2314 H   0  0  0  0  0  0  0  0  0  0  0  0
  139.4058   82.4517  220.4224 H   0  0  0  0  0  0  0  0  0  0  0  0
  140.1923   81.5229  221.7793 H   0  0  0  0  0  0  0  0  0  0  0  0
  139.0653   80.1773  219.3283 H   0  0  0  0  0  0  0  0  0  0  0  0
  140.7699   80.8289  219.4385 H   0  0  0  0  0  0  0  0  0  0  0  0
  141.0098   78.6307  219.9437 H   0  0  0  0  0  0  0  0  0  0  0  0
  142.2615   81.1022  220.9593 H   0  0  0  0  0  0  0  0  0  0  0  0
  143.5488   81.6304  223.0212 H   0  0  0  0  0  0  0  0  0  0  0  0
  143.1436   80.3157  225.0818 H   0  0  0  0  0  0  0  0  0  0  0  0
  141.4650   78.4777  225.1147 H   0  0  0  0  0  0  0  0  0  0  0  0
  140.2004   77.9804  223.0352 H   0  0  0  0  0  0  0  0  0  0  0  0
  138.4053   71.5405  220.9648 H   0  0  0  0  0  0  0  0  0  0  0  0
  138.2292   69.5814  222.5464 H   0  0  0  0  0  0  0  0  0  0  0  0
  138.8632   68.5707  224.6542 H   0  0  0  0  0  0  0  0  0  0  0  0
  141.4780   70.5982  227.3657 H   0  0  0  0  0  0  0  0  0  0  0  0
  141.6312   72.4992  225.7961 H   0  0  0  0  0  0  0  0  0  0  0  0
  1  2  2  0
  2  3  1  0
  3  4  1  0
  4  5  1  0
  5  6  2  0
  5  7  1  0
  7  8  1  0
  8  9  1  0
  9 10  1  0
 10 11  1  0
 11 12  1  0
 12 13  1  0
 13 14  1  0
 14 15  2  0
 15 16  1  0
 16 17  2  0
 17 18  1  0
 18 19  2  0
  2 20  1  0
 20 21  2  0
 21 22  1  0
 22 23  2  0
 23 24  1  0
 24 25  2  0
 25 26  1  0
 25 27  1  0
 27 28  2  0
 28 29  1  0
 29 30  2  0
 13  7  1  0
 19 14  1  0
 30 20  1  0
 29 23  1  0
  3 31  1  0
  4 32  1  0
  4 33  1  0
  8 34  1  0
  8 35  1  0
  9 36  1  0
  9 37  1  0
 10 38  1  0
 10 39  1  0
 11 40  1  0
 11 41  1  0
 12 42  1  0
 12 43  1  0
 13 44  1  6
 15 45  1  0
 16 46  1  0
 17 47  1  0
 18 48  1  0
 19 49  1  0
 21 50  1  0
 22 51  1  0
 24 52  1  0
 27 53  1  0
 28 54  1  0
M  END
>  <smiles>  (77) 
O=C(NCC(=O)N1CCCCCC1c1ccccc1)c1ccc2cc(Cl)ccc2n1

>  <score_type>  (77) 
oracle

>  <origin>  (77) 
autodockgpu

>  <m_score__min__energy>  (77) 
-6.6299999999999999

>  <m_primary>  (77) 
energy

>  <rmsd>  (77) 
3.622630160765177

>  <m_score__min__rmsd>  (77) 
3.622630160765177

>  <meeko>  (77) 
{"free_energy": -5.43, "intermolecular_energy": -8.71, "internal_energy": -1.53, "cluster_size": 4, "cluster_id": 6, "rank_in_cluster": 3}

>  <energy>  (77) 
-4.81

>  <cluster_rmsd>  (77) 
1.64

>  <cluster>  (77) 
5

$$$$

     RDKit          3D

 54 57  0  0  0  0  0  0  0  0999 V2000
  139.6350   73.8280  222.3610 O   0  0  0  0  0  0  0  0  0  0  0  0
  139.7880   72.5930  222.1810 C   0  0  0  0  0  0  0  0  0  0  0  0
  139.8700   72.1760  220.8000 N   0  0  0  0  0  0  0  0  0  0  0  0
  139.7940   73.0550  219.7070 C   0  0  0  0  0  0  0  0  0  0  0  0
  140.9500   73.7860  219.2340 C   0  0  0  0  0  0  0  0  0  0  0  0
  141.3330   73.3970  218.0310 O   0  0  0  0  0  0  0  0  0  0  0  0
  141.7350   74.7990  219.7750 N   0  0  0  0  0  0  0  0  0  0  0  0
  141.3810   75.5770  220.9280 C   0  0  0  0  0  0  0  0  0  0  0  0
  140.7340   76.8880  220.6450 C   0  0  0  0  0  0  0  0  0  0  0  0
  141.7070   77.9200  220.1160 C   0  0  0  0  0  0  0  0  0  0  0  0
  142.3810   77.4410  218.8470 C   0  0  0  0  0  0  0  0  0  0  0  0
  143.4730   76.4150  219.1050 C   0  0  0  0  0  0  0  0  0  0  0  0
  142.9920   75.0110  219.0300 C   0  0  1  0  0  0  0  0  0  0  0  0
  144.0640   74.0960  219.4960 C   0  0  0  0  0  0  0  0  0  0  0  0
  144.2870   72.8720  218.9190 C   0  0  0  0  0  0  0  0  0  0  0  0
  145.2970   72.0350  219.3750 C   0  0  0  0  0  0  0  0  0  0  0  0
  146.0870   72.4520  220.4290 C   0  0  0  0  0  0  0  0  0  0  0  0
  145.8940   73.6800  221.0380 C   0  0  0  0  0  0  0  0  0  0  0  0
  144.8780   74.4860  220.5560 C   0  0  0  0  0  0  0  0  0  0  0  0
  139.8820   71.6280  223.2720 C   0  0  0  0  0  0  0  0  0  0  0  0
  139.4470   70.3470  223.0060 C   0  0  0  0  0  0  0  0  0  0  0  0
  139.5270   69.4020  224.0370 C   0  0  0  0  0  0  0  0  0  0  0  0
  140.0370   69.7870  225.2820 C   0  0  0  0  0  0  0  0  0  0  0  0
  140.1340   68.8890  226.3260 C   0  0  0  0  0  0  0  0  0  0  0  0
  140.6290   69.2230  227.5680 C   0  0  0  0  0  0  0  0  0  0  0  0
  140.7440   68.0660  228.8830 Cl  0  0  0  0  0  0  0  0  0  0  0  0
  141.0450   70.5450  227.7450 C   0  0  0  0  0  0  0  0  0  0  0  0
  140.9620   71.4710  226.7180 C   0  0  0  0  0  0  0  0  0  0  0  0
  140.4620   71.1040  225.4870 C   0  0  0  0  0  0  0  0  0  0  0  0
  140.3730   71.9910  224.4770 N   0  0  0  0  0  0  0  0  0  0  0  0
  139.9940   71.1270  220.6890 H   0  0  0  0  0  0  0  0  0  0  0  0
  139.4362   72.4582  218.8551 H   0  0  0  0  0  0  0  0  0  0  0  0
  139.1541   73.8593  220.0990 H   0  0  0  0  0  0  0  0  0  0  0  0
  140.6861   74.9812  221.5381 H   0  0  0  0  0  0  0  0  0  0  0  0
  142.3284   75.8120  221.4352 H   0  0  0  0  0  0  0  0  0  0  0  0
  139.9424   76.7351  219.8966 H   0  0  0  0  0  0  0  0  0  0  0  0
  140.3297   77.2697  221.5942 H   0  0  0  0  0  0  0  0  0  0  0  0
  141.1612   78.8508  219.9025 H   0  0  0  0  0  0  0  0  0  0  0  0
  142.4819   78.0895  220.8781 H   0  0  0  0  0  0  0  0  0  0  0  0
  141.6198   76.9865  218.1959 H   0  0  0  0  0  0  0  0  0  0  0  0
  142.8552   78.3149  218.3764 H   0  0  0  0  0  0  0  0  0  0  0  0
  144.2655   76.5528  218.3547 H   0  0  0  0  0  0  0  0  0  0  0  0
  143.8381   76.5793  220.1296 H   0  0  0  0  0  0  0  0  0  0  0  0
  142.7568   74.7874  217.9790 H   0  0  0  0  0  0  0  0  0  0  0  0
  143.6544   72.5473  218.0798 H   0  0  0  0  0  0  0  0  0  0  0  0
  145.4654   71.0552  218.9043 H   0  0  0  0  0  0  0  0  0  0  0  0
  146.8885   71.7924  220.7929 H   0  0  0  0  0  0  0  0  0  0  0  0
  146.5272   74.0042  221.8770 H   0  0  0  0  0  0  0  0  0  0  0  0
  144.7080   75.4662  221.0253 H   0  0  0  0  0  0  0  0  0  0  0  0
  139.0501   70.0759  222.0166 H   0  0  0  0  0  0  0  0  0  0  0  0
  139.1922   68.3676  223.8696 H   0  0  0  0  0  0  0  0  0  0  0  0
  139.7993   67.8547  226.1580 H   0  0  0  0  0  0  0  0  0  0  0  0
  141.4468   70.8571  228.7203 H   0  0  0  0  0  0  0  0  0  0  0  0
  141.2971   72.5052  226.8859 H   0  0  0  0  0  0  0  0  0  0  0  0
  1  2  2  0
  2  3  1  0
  3  4  1  0
  4  5  1  0
  5  6  2  0
  5  7  1  0
  7  8  1  0
  8  9  1  0
  9 10  1  0
 10 11  1  0
 11 12  1  0
 12 13  1  0
 13 14  1  0
 14 15  2  0
 15 16  1  0
 16 17  2  0
 17 18  1  0
 18 19  2  0
  2 20  1  0
 20 21  2  0
 21 22  1  0
 22 23  2  0
 23 24  1  0
 24 25  2  0
 25 26  1  0
 25 27  1  0
 27 28  2  0
 28 29  1  0
 29 30  2  0
 13  7  1  0
 19 14  1  0
 30 20  1  0
 29 23  1  0
  3 31  1  0
  4 32  1  0
  4 33  1  0
  8 34  1  0
  8 35  1  0
  9 36  1  0
  9 37  1  0
 10 38  1  0
 10 39  1  0
 11 40  1  0
 11 41  1  0
 12 42  1  0
 12 43  1  0
 13 44  1  6
 15 45  1  0
 16 46  1  0
 17 47  1  0
 18 48  1  0
 19 49  1  0
 21 50  1  0
 22 51  1  0
 24 52  1  0
 27 53  1  0
 28 54  1  0
M  END
>  <smiles>  (78) 
O=C(NCC(=O)N1CCCCCC1c1ccccc1)c1ccc2cc(Cl)ccc2n1

>  <score_type>  (78) 
oracle

>  <origin>  (78) 
autodockgpu

>  <m_score__min__energy>  (78) 
-6.6299999999999999

>  <m_primary>  (78) 
energy

>  <rmsd>  (78) 
2.57265499341618

>  <m_score__min__rmsd>  (78) 
2.57265499341618

>  <meeko>  (78) 
{"free_energy": -5.78, "intermolecular_energy": -9.06, "internal_energy": -1.66, "cluster_size": 11, "cluster_id": 2, "rank_in_cluster": 6}

>  <energy>  (78) 
-5.7

>  <cluster_rmsd>  (78) 
0.0

>  <cluster>  (78) 
6

$$$$

     RDKit          3D

 54 57  0  0  0  0  0  0  0  0999 V2000
  137.7830   71.0880  221.0520 O   0  0  0  0  0  0  0  0  0  0  0  0
  137.9340   71.5510  222.2120 C   0  0  0  0  0  0  0  0  0  0  0  0
  137.5390   72.9290  222.3840 N   0  0  0  0  0  0  0  0  0  0  0  0
  137.0110   73.7300  221.3570 C   0  0  0  0  0  0  0  0  0  0  0  0
  137.8600   74.5230  220.4940 C   0  0  0  0  0  0  0  0  0  0  0  0
  137.9360   74.0280  219.2710 O   0  0  0  0  0  0  0  0  0  0  0  0
  138.6070   75.6810  220.6800 N   0  0  0  0  0  0  0  0  0  0  0  0
  138.0990   76.8960  221.2500 C   0  0  0  0  0  0  0  0  0  0  0  0
  138.5250   77.1780  222.6480 C   0  0  0  0  0  0  0  0  0  0  0  0
  139.9190   77.7650  222.7290 C   0  0  0  0  0  0  0  0  0  0  0  0
  140.9520   76.8090  222.1680 C   0  0  0  0  0  0  0  0  0  0  0  0
  140.8670   76.6680  220.6640 C   0  0  0  0  0  0  0  0  0  0  0  0
  140.0040   75.5440  220.2180 C   0  0  1  0  0  0  0  0  0  0  0  0
  140.6010   74.2580  220.6560 C   0  0  0  0  0  0  0  0  0  0  0  0
  140.4950   73.7990  221.9430 C   0  0  0  0  0  0  0  0  0  0  0  0
  141.0630   72.5920  222.3270 C   0  0  0  0  0  0  0  0  0  0  0  0
  141.7460   71.8450  221.3860 C   0  0  0  0  0  0  0  0  0  0  0  0
  141.8750   72.2740  220.0760 C   0  0  0  0  0  0  0  0  0  0  0  0
  141.2960   73.4820  219.7320 C   0  0  0  0  0  0  0  0  0  0  0  0
  138.4690   70.7700  223.3240 C   0  0  0  0  0  0  0  0  0  0  0  0
  138.2400   69.4110  223.2940 C   0  0  0  0  0  0  0  0  0  0  0  0
  138.7430   68.6400  224.3490 C   0  0  0  0  0  0  0  0  0  0  0  0
  139.4500   69.2680  225.3810 C   0  0  0  0  0  0  0  0  0  0  0  0
  139.9650   68.5470  226.4400 C   0  0  0  0  0  0  0  0  0  0  0  0
  140.6670   69.1220  227.4770 C   0  0  0  0  0  0  0  0  0  0  0  0
  141.3120   68.1880  228.8160 Cl  0  0  0  0  0  0  0  0  0  0  0  0
  140.8500   70.5070  227.4220 C   0  0  0  0  0  0  0  0  0  0  0  0
  140.3470   71.2590  226.3730 C   0  0  0  0  0  0  0  0  0  0  0  0
  139.6490   70.6520  225.3510 C   0  0  0  0  0  0  0  0  0  0  0  0
  139.1530   71.3680  224.3230 N   0  0  0  0  0  0  0  0  0  0  0  0
  137.6860   73.2840  223.3730 H   0  0  0  0  0  0  0  0  0  0  0  0
  136.4462   73.0542  220.6980 H   0  0  0  0  0  0  0  0  0  0  0  0
  136.4665   74.5019  221.9207 H   0  0  0  0  0  0  0  0  0  0  0  0
  138.4346   77.7321  220.6188 H   0  0  0  0  0  0  0  0  0  0  0  0
  137.0061   76.7771  221.2867 H   0  0  0  0  0  0  0  0  0  0  0  0
  137.8166   77.8915  223.0943 H   0  0  0  0  0  0  0  0  0  0  0  0
  138.5362   76.2212  223.1905 H   0  0  0  0  0  0  0  0  0  0  0  0
  139.9475   78.7017  222.1530 H   0  0  0  0  0  0  0  0  0  0  0  0
  140.1565   77.9514  223.7868 H   0  0  0  0  0  0  0  0  0  0  0  0
  141.9535   77.1810  222.4298 H   0  0  0  0  0  0  0  0  0  0  0  0
  140.7569   75.8183  222.6044 H   0  0  0  0  0  0  0  0  0  0  0  0
  140.4615   77.6029  220.2498 H   0  0  0  0  0  0  0  0  0  0  0  0
  141.8841   76.4557  220.3028 H   0  0  0  0  0  0  0  0  0  0  0  0
  139.9582   75.5650  219.1192 H   0  0  0  0  0  0  0  0  0  0  0  0
  139.9492   74.3988  222.6862 H   0  0  0  0  0  0  0  0  0  0  0  0
  140.9710   72.2358  223.3637 H   0  0  0  0  0  0  0  0  0  0  0  0
  142.1976   70.8875  221.6847 H   0  0  0  0  0  0  0  0  0  0  0  0
  142.4203   71.6736  219.3329 H   0  0  0  0  0  0  0  0  0  0  0  0
  141.3874   73.8409  218.6962 H   0  0  0  0  0  0  0  0  0  0  0  0
  137.6804   68.9474  222.4682 H   0  0  0  0  0  0  0  0  0  0  0  0
  138.5841   67.5517  224.3666 H   0  0  0  0  0  0  0  0  0  0  0  0
  139.8069   67.4585  226.4567 H   0  0  0  0  0  0  0  0  0  0  0  0
  141.4046   71.0097  228.2280 H   0  0  0  0  0  0  0  0  0  0  0  0
  140.5056   72.3474  226.3555 H   0  0  0  0  0  0  0  0  0  0  0  0
  1  2  2  0
  2  3  1  0
  3  4  1  0
  4  5  1  0
  5  6  2  0
  5  7  1  0
  7  8  1  0
  8  9  1  0
  9 10  1  0
 10 11  1  0
 11 12  1  0
 12 13  1  0
 13 14  1  0
 14 15  2  0
 15 16  1  0
 16 17  2  0
 17 18  1  0
 18 19  2  0
  2 20  1  0
 20 21  2  0
 21 22  1  0
 22 23  2  0
 23 24  1  0
 24 25  2  0
 25 26  1  0
 25 27  1  0
 27 28  2  0
 28 29  1  0
 29 30  2  0
 13  7  1  0
 19 14  1  0
 30 20  1  0
 29 23  1  0
  3 31  1  0
  4 32  1  0
  4 33  1  0
  8 34  1  0
  8 35  1  0
  9 36  1  0
  9 37  1  0
 10 38  1  0
 10 39  1  0
 11 40  1  0
 11 41  1  0
 12 42  1  0
 12 43  1  0
 13 44  1  6
 15 45  1  0
 16 46  1  0
 17 47  1  0
 18 48  1  0
 19 49  1  0
 21 50  1  0
 22 51  1  0
 24 52  1  0
 27 53  1  0
 28 54  1  0
M  END
>  <smiles>  (79) 
O=C(NCC(=O)N1CCCCCC1c1ccccc1)c1ccc2cc(Cl)ccc2n1

>  <score_type>  (79) 
oracle

>  <origin>  (79) 
autodockgpu

>  <m_score__min__energy>  (79) 
-6.6299999999999999

>  <m_primary>  (79) 
energy

>  <rmsd>  (79) 
2.519026280689742

>  <m_score__min__rmsd>  (79) 
2.519026280689742

>  <meeko>  (79) 
{"free_energy": -4.68, "intermolecular_energy": -7.96, "internal_energy": -2.48, "cluster_size": 2, "cluster_id": 10, "rank_in_cluster": 2}

>  <energy>  (79) 
-5.69

>  <cluster_rmsd>  (79) 
1.26

>  <cluster>  (79) 
6

$$$$

     RDKit          3D

 54 57  0  0  0  0  0  0  0  0999 V2000
  139.6150   72.1050  220.7050 O   0  0  0  0  0  0  0  0  0  0  0  0
  139.6390   72.4830  221.9030 C   0  0  0  0  0  0  0  0  0  0  0  0
  139.5270   73.9100  222.1040 N   0  0  0  0  0  0  0  0  0  0  0  0
  139.3910   74.8420  221.0620 C   0  0  0  0  0  0  0  0  0  0  0  0
  140.1560   76.0700  221.0320 C   0  0  0  0  0  0  0  0  0  0  0  0
  139.5960   77.0290  221.7490 O   0  0  0  0  0  0  0  0  0  0  0  0
  141.3410   76.4500  220.4120 N   0  0  0  0  0  0  0  0  0  0  0  0
  142.0540   77.6640  220.6920 C   0  0  0  0  0  0  0  0  0  0  0  0
  141.7270   78.8190  219.8120 C   0  0  0  0  0  0  0  0  0  0  0  0
  142.2070   78.6270  218.3890 C   0  0  0  0  0  0  0  0  0  0  0  0
  141.6260   77.3690  217.7780 C   0  0  0  0  0  0  0  0  0  0  0  0
  142.3660   76.1160  218.1940 C   0  0  0  0  0  0  0  0  0  0  0  0
  141.8060   75.4700  219.4090 C   0  0  1  0  0  0  0  0  0  0  0  0
  142.8090   74.5370  219.9810 C   0  0  0  0  0  0  0  0  0  0  0  0
  142.4920   73.2570  220.3560 C   0  0  0  0  0  0  0  0  0  0  0  0
  143.4510   72.4050  220.8880 C   0  0  0  0  0  0  0  0  0  0  0  0
  144.7450   72.8640  221.0380 C   0  0  0  0  0  0  0  0  0  0  0  0
  145.1050   74.1500  220.6710 C   0  0  0  0  0  0  0  0  0  0  0  0
  144.1230   74.9690  220.1450 C   0  0  0  0  0  0  0  0  0  0  0  0
  139.7710   71.5660  223.0320 C   0  0  0  0  0  0  0  0  0  0  0  0
  139.3730   70.2630  222.8210 C   0  0  0  0  0  0  0  0  0  0  0  0
  139.4900   69.3630  223.8880 C   0  0  0  0  0  0  0  0  0  0  0  0
  139.9980   69.8140  225.1120 C   0  0  0  0  0  0  0  0  0  0  0  0
  140.1300   68.9610  226.1900 C   0  0  0  0  0  0  0  0  0  0  0  0
  140.6240   69.3590  227.4130 C   0  0  0  0  0  0  0  0  0  0  0  0
  140.7850   68.2610  228.7730 Cl  0  0  0  0  0  0  0  0  0  0  0  0
  141.0020   70.7000  227.5340 C   0  0  0  0  0  0  0  0  0  0  0  0
  140.8820   71.5800  226.4710 C   0  0  0  0  0  0  0  0  0  0  0  0
  140.3840   71.1500  225.2600 C   0  0  0  0  0  0  0  0  0  0  0  0
  140.2600   71.9920  224.2160 N   0  0  0  0  0  0  0  0  0  0  0  0
  139.5570   74.1900  223.1280 H   0  0  0  0  0  0  0  0  0  0  0  0
  139.6334   74.3045  220.1334 H   0  0  0  0  0  0  0  0  0  0  0  0
  138.3653   75.2102  221.2112 H   0  0  0  0  0  0  0  0  0  0  0  0
  141.8322   77.9553  221.7293 H   0  0  0  0  0  0  0  0  0  0  0  0
  143.1153   77.4385  220.5109 H   0  0  0  0  0  0  0  0  0  0  0  0
  140.6353   78.9533  219.7995 H   0  0  0  0  0  0  0  0  0  0  0  0
  142.2422   79.7016  220.2190 H   0  0  0  0  0  0  0  0  0  0  0  0
  141.8980   79.4939  217.7865 H   0  0  0  0  0  0  0  0  0  0  0  0
  143.3029   78.5330  218.4017 H   0  0  0  0  0  0  0  0  0  0  0  0
  140.5763   77.2779  218.0939 H   0  0  0  0  0  0  0  0  0  0  0  0
  141.7185   77.4596  216.6856 H   0  0  0  0  0  0  0  0  0  0  0  0
  142.3217   75.3945  217.3648 H   0  0  0  0  0  0  0  0  0  0  0  0
  143.3970   76.4150  218.4339 H   0  0  0  0  0  0  0  0  0  0  0  0
  140.9128   74.9015  219.1107 H   0  0  0  0  0  0  0  0  0  0  0  0
  141.4594   72.8984  220.2333 H   0  0  0  0  0  0  0  0  0  0  0  0
  143.1841   71.3802  221.1854 H   0  0  0  0  0  0  0  0  0  0  0  0
  145.5077   72.1923  221.4589 H   0  0  0  0  0  0  0  0  0  0  0  0
  146.1378   74.5079  220.7939 H   0  0  0  0  0  0  0  0  0  0  0  0
  144.3878   75.9941  219.8466 H   0  0  0  0  0  0  0  0  0  0  0  0
  138.9766   69.9407  221.8468 H   0  0  0  0  0  0  0  0  0  0  0  0
  139.1859   68.3130  223.7654 H   0  0  0  0  0  0  0  0  0  0  0  0
  139.8255   67.9113  226.0660 H   0  0  0  0  0  0  0  0  0  0  0  0
  141.4024   71.0630  228.4920 H   0  0  0  0  0  0  0  0  0  0  0  0
  141.1865   72.6298  226.5943 H   0  0  0  0  0  0  0  0  0  0  0  0
  1  2  2  0
  2  3  1  0
  3  4  1  0
  4  5  1  0
  5  6  2  0
  5  7  1  0
  7  8  1  0
  8  9  1  0
  9 10  1  0
 10 11  1  0
 11 12  1  0
 12 13  1  0
 13 14  1  0
 14 15  2  0
 15 16  1  0
 16 17  2  0
 17 18  1  0
 18 19  2  0
  2 20  1  0
 20 21  2  0
 21 22  1  0
 22 23  2  0
 23 24  1  0
 24 25  2  0
 25 26  1  0
 25 27  1  0
 27 28  2  0
 28 29  1  0
 29 30  2  0
 13  7  1  0
 19 14  1  0
 30 20  1  0
 29 23  1  0
  3 31  1  0
  4 32  1  0
  4 33  1  0
  8 34  1  0
  8 35  1  0
  9 36  1  0
  9 37  1  0
 10 38  1  0
 10 39  1  0
 11 40  1  0
 11 41  1  0
 12 42  1  0
 12 43  1  0
 13 44  1  6
 15 45  1  0
 16 46  1  0
 17 47  1  0
 18 48  1  0
 19 49  1  0
 21 50  1  0
 22 51  1  0
 24 52  1  0
 27 53  1  0
 28 54  1  0
M  END
>  <smiles>  (80) 
O=C(NCC(=O)N1CCCCCC1c1ccccc1)c1ccc2cc(Cl)ccc2n1

>  <score_type>  (80) 
oracle

>  <origin>  (80) 
autodockgpu

>  <m_score__min__energy>  (80) 
-6.6299999999999999

>  <m_primary>  (80) 
energy

>  <rmsd>  (80) 
2.3797168428167375

>  <m_score__min__rmsd>  (80) 
2.3797168428167375

>  <meeko>  (80) 
{"free_energy": -6.25, "intermolecular_energy": -9.53, "internal_energy": -2.18, "cluster_size": 11, "cluster_id": 2, "rank_in_cluster": 1}

>  <energy>  (80) 
-5.43

>  <cluster_rmsd>  (80) 
1.6

>  <cluster>  (80) 
6

$$$$

     RDKit          3D

 54 57  0  0  0  0  0  0  0  0999 V2000
  139.9880   75.9390  219.4550 O   0  0  0  0  0  0  0  0  0  0  0  0
  140.5840   75.2930  220.3540 C   0  0  0  0  0  0  0  0  0  0  0  0
  141.9630   75.6640  220.5700 N   0  0  0  0  0  0  0  0  0  0  0  0
  142.6280   76.6740  219.8550 C   0  0  0  0  0  0  0  0  0  0  0  0
  142.1920   78.0530  219.8980 C   0  0  0  0  0  0  0  0  0  0  0  0
  142.1330   78.5990  218.6950 O   0  0  0  0  0  0  0  0  0  0  0  0
  141.8280   78.9160  220.9260 N   0  0  0  0  0  0  0  0  0  0  0  0
  142.0680   80.3310  220.9260 C   0  0  0  0  0  0  0  0  0  0  0  0
  141.0470   81.1550  221.6290 C   0  0  0  0  0  0  0  0  0  0  0  0
  141.2850   81.2340  223.1230 C   0  0  0  0  0  0  0  0  0  0  0  0
  140.8290   79.9690  223.8200 C   0  0  0  0  0  0  0  0  0  0  0  0
  141.5910   78.7410  223.3740 C   0  0  0  0  0  0  0  0  0  0  0  0
  141.1640   78.2230  222.0490 C   0  0  1  0  0  0  0  0  0  0  0  0
  139.6850   78.3000  221.9410 C   0  0  0  0  0  0  0  0  0  0  0  0
  139.0570   79.0710  220.9980 C   0  0  0  0  0  0  0  0  0  0  0  0
  137.6720   79.1260  220.9190 C   0  0  0  0  0  0  0  0  0  0  0  0
  136.9210   78.3850  221.8120 C   0  0  0  0  0  0  0  0  0  0  0  0
  137.5180   77.5940  222.7790 C   0  0  0  0  0  0  0  0  0  0  0  0
  138.9000   77.5660  222.8260 C   0  0  0  0  0  0  0  0  0  0  0  0
  139.9490   74.2380  221.1380 C   0  0  0  0  0  0  0  0  0  0  0  0
  138.6170   73.9900  220.8820 C   0  0  0  0  0  0  0  0  0  0  0  0
  137.9860   72.9820  221.6210 C   0  0  0  0  0  0  0  0  0  0  0  0
  138.7190   72.2730  222.5790 C   0  0  0  0  0  0  0  0  0  0  0  0
  138.1370   71.2710  223.3310 C   0  0  0  0  0  0  0  0  0  0  0  0
  138.8190   70.5470  224.2840 C   0  0  0  0  0  0  0  0  0  0  0  0
  138.0610   69.2780  225.2300 Cl  0  0  0  0  0  0  0  0  0  0  0  0
  140.1660   70.8690  224.4750 C   0  0  0  0  0  0  0  0  0  0  0  0
  140.7800   71.8670  223.7380 C   0  0  0  0  0  0  0  0  0  0  0  0
  140.0690   72.5740  222.7910 C   0  0  0  0  0  0  0  0  0  0  0  0
  140.6490   73.5480  222.0650 N   0  0  0  0  0  0  0  0  0  0  0  0
  142.4330   75.0930  221.3320 H   0  0  0  0  0  0  0  0  0  0  0  0
  143.6695   76.6683  220.2090 H   0  0  0  0  0  0  0  0  0  0  0  0
  142.4193   76.3963  218.8113 H   0  0  0  0  0  0  0  0  0  0  0  0
  143.0394   80.5098  221.4101 H   0  0  0  0  0  0  0  0  0  0  0  0
  142.0333   80.6428  219.8717 H   0  0  0  0  0  0  0  0  0  0  0  0
  141.0713   82.1737  221.2147 H   0  0  0  0  0  0  0  0  0  0  0  0
  140.0694   80.6751  221.4739 H   0  0  0  0  0  0  0  0  0  0  0  0
  142.3599   81.3774  223.3076 H   0  0  0  0  0  0  0  0  0  0  0  0
  140.7056   82.0792  223.5229 H   0  0  0  0  0  0  0  0  0  0  0  0
  140.9708   80.0952  224.9035 H   0  0  0  0  0  0  0  0  0  0  0  0
  139.7717   79.8127  223.5597 H   0  0  0  0  0  0  0  0  0  0  0  0
  142.6596   78.9960  223.3194 H   0  0  0  0  0  0  0  0  0  0  0  0
  141.3859   77.9499  224.1102 H   0  0  0  0  0  0  0  0  0  0  0  0
  141.4773   77.1710  221.9775 H   0  0  0  0  0  0  0  0  0  0  0  0
  139.6616   79.6573  220.2904 H   0  0  0  0  0  0  0  0  0  0  0  0
  137.1801   79.7494  220.1578 H   0  0  0  0  0  0  0  0  0  0  0  0
  135.8233   78.4246  221.7531 H   0  0  0  0  0  0  0  0  0  0  0  0
  136.9133   77.0074  223.4863 H   0  0  0  0  0  0  0  0  0  0  0  0
  139.3945   76.9441  223.5867 H   0  0  0  0  0  0  0  0  0  0  0  0
  138.0680   74.5653  220.1220 H   0  0  0  0  0  0  0  0  0  0  0  0
  136.9245   72.7498  221.4501 H   0  0  0  0  0  0  0  0  0  0  0  0
  137.0753   71.0396  223.1602 H   0  0  0  0  0  0  0  0  0  0  0  0
  140.7501   70.3178  225.2267 H   0  0  0  0  0  0  0  0  0  0  0  0
  141.8419   72.0977  223.9088 H   0  0  0  0  0  0  0  0  0  0  0  0
  1  2  2  0
  2  3  1  0
  3  4  1  0
  4  5  1  0
  5  6  2  0
  5  7  1  0
  7  8  1  0
  8  9  1  0
  9 10  1  0
 10 11  1  0
 11 12  1  0
 12 13  1  0
 13 14  1  0
 14 15  2  0
 15 16  1  0
 16 17  2  0
 17 18  1  0
 18 19  2  0
  2 20  1  0
 20 21  2  0
 21 22  1  0
 22 23  2  0
 23 24  1  0
 24 25  2  0
 25 26  1  0
 25 27  1  0
 27 28  2  0
 28 29  1  0
 29 30  2  0
 13  7  1  0
 19 14  1  0
 30 20  1  0
 29 23  1  0
  3 31  1  0
  4 32  1  0
  4 33  1  0
  8 34  1  0
  8 35  1  0
  9 36  1  0
  9 37  1  0
 10 38  1  0
 10 39  1  0
 11 40  1  0
 11 41  1  0
 12 42  1  0
 12 43  1  0
 13 44  1  1
 15 45  1  0
 16 46  1  0
 17 47  1  0
 18 48  1  0
 19 49  1  0
 21 50  1  0
 22 51  1  0
 24 52  1  0
 27 53  1  0
 28 54  1  0
M  END
>  <smiles>  (81) 
O=C(NCC(=O)N1CCCCCC1c1ccccc1)c1ccc2cc(Cl)ccc2n1

>  <score_type>  (81) 
oracle

>  <origin>  (81) 
autodockgpu

>  <m_score__min__energy>  (81) 
-6.6299999999999999

>  <m_primary>  (81) 
energy

>  <rmsd>  (81) 
5.228062419483866

>  <m_score__min__rmsd>  (81) 
5.228062419483866

>  <meeko>  (81) 
{"free_energy": -4.61, "intermolecular_energy": -7.89, "internal_energy": -2.53, "cluster_size": 2, "cluster_id": 13, "rank_in_cluster": 2}

>  <energy>  (81) 
-3.88

>  <cluster_rmsd>  (81) 
1.74

>  <cluster>  (81) 
6

$$$$

     RDKit          3D

 54 57  0  0  0  0  0  0  0  0999 V2000
  139.7300   73.6390  219.9800 O   0  0  0  0  0  0  0  0  0  0  0  0
  140.2610   73.6150  221.1190 C   0  0  0  0  0  0  0  0  0  0  0  0
  141.1320   74.7280  221.4190 N   0  0  0  0  0  0  0  0  0  0  0  0
  141.3880   75.7870  220.5330 C   0  0  0  0  0  0  0  0  0  0  0  0
  140.8300   77.1060  220.7390 C   0  0  0  0  0  0  0  0  0  0  0  0
  139.9810   77.4480  219.7850 O   0  0  0  0  0  0  0  0  0  0  0  0
  141.0000   78.0810  221.7170 N   0  0  0  0  0  0  0  0  0  0  0  0
  142.1480   78.9360  221.8250 C   0  0  0  0  0  0  0  0  0  0  0  0
  142.3690   79.5470  223.1640 C   0  0  0  0  0  0  0  0  0  0  0  0
  141.4870   80.7530  223.4120 C   0  0  0  0  0  0  0  0  0  0  0  0
  140.1040   80.3380  223.8690 C   0  0  0  0  0  0  0  0  0  0  0  0
  139.3500   79.5330  222.8350 C   0  0  0  0  0  0  0  0  0  0  0  0
  139.8660   78.1510  222.6610 C   0  0  1  0  0  0  0  0  0  0  0  0
  138.7560   77.2560  222.2490 C   0  0  0  0  0  0  0  0  0  0  0  0
  138.6600   75.9570  222.6790 C   0  0  0  0  0  0  0  0  0  0  0  0
  137.6110   75.1420  222.2770 C   0  0  0  0  0  0  0  0  0  0  0  0
  136.6490   75.6570  221.4290 C   0  0  0  0  0  0  0  0  0  0  0  0
  136.7100   76.9630  220.9730 C   0  0  0  0  0  0  0  0  0  0  0  0
  137.7710   77.7440  221.3950 C   0  0  0  0  0  0  0  0  0  0  0  0
  140.0310   72.5480  222.0890 C   0  0  0  0  0  0  0  0  0  0  0  0
  139.1530   71.5510  221.7180 C   0  0  0  0  0  0  0  0  0  0  0  0
  138.9170   70.5160  222.6310 C   0  0  0  0  0  0  0  0  0  0  0  0
  139.5690   70.5310  223.8690 C   0  0  0  0  0  0  0  0  0  0  0  0
  139.3650   69.5310  224.7990 C   0  0  0  0  0  0  0  0  0  0  0  0
  139.9850   69.5040  226.0290 C   0  0  0  0  0  0  0  0  0  0  0  0
  139.7120   68.2230  227.1990 Cl  0  0  0  0  0  0  0  0  0  0  0  0
  140.8580   70.5570  226.3180 C   0  0  0  0  0  0  0  0  0  0  0  0
  141.0850   71.5740  225.4070 C   0  0  0  0  0  0  0  0  0  0  0  0
  140.4480   71.5720  224.1840 C   0  0  0  0  0  0  0  0  0  0  0  0
  140.6570   72.5530  223.2860 N   0  0  0  0  0  0  0  0  0  0  0  0
  141.5650   74.6680  222.3860 H   0  0  0  0  0  0  0  0  0  0  0  0
  142.4804   75.9139  220.5110 H   0  0  0  0  0  0  0  0  0  0  0  0
  140.8723   75.4561  219.6194 H   0  0  0  0  0  0  0  0  0  0  0  0
  143.0383   78.3412  221.5729 H   0  0  0  0  0  0  0  0  0  0  0  0
  141.9653   79.7747  221.1371 H   0  0  0  0  0  0  0  0  0  0  0  0
  142.1559   78.7914  223.9345 H   0  0  0  0  0  0  0  0  0  0  0  0
  143.4142   79.8874  223.2041 H   0  0  0  0  0  0  0  0  0  0  0  0
  141.9480   81.3805  224.1890 H   0  0  0  0  0  0  0  0  0  0  0  0
  141.3885   81.3111  222.4692 H   0  0  0  0  0  0  0  0  0  0  0  0
  140.2050   79.7295  224.7798 H   0  0  0  0  0  0  0  0  0  0  0  0
  139.5296   81.2589  224.0479 H   0  0  0  0  0  0  0  0  0  0  0  0
  138.2955   79.4737  223.1424 H   0  0  0  0  0  0  0  0  0  0  0  0
  139.4782   80.0475  221.8712 H   0  0  0  0  0  0  0  0  0  0  0  0
  140.2627   77.8119  223.6293 H   0  0  0  0  0  0  0  0  0  0  0  0
  139.4285   75.5538  223.3549 H   0  0  0  0  0  0  0  0  0  0  0  0
  137.5463   74.1016  222.6282 H   0  0  0  0  0  0  0  0  0  0  0  0
  135.8155   75.0145  221.1088 H   0  0  0  0  0  0  0  0  0  0  0  0
  135.9407   77.3659  220.2979 H   0  0  0  0  0  0  0  0  0  0  0  0
  137.8385   78.7844  221.0443 H   0  0  0  0  0  0  0  0  0  0  0  0
  138.6548   71.5684  220.7375 H   0  0  0  0  0  0  0  0  0  0  0  0
  138.2256   69.6989  222.3774 H   0  0  0  0  0  0  0  0  0  0  0  0
  138.6726   68.7148  224.5450 H   0  0  0  0  0  0  0  0  0  0  0  0
  141.3748   70.5777  227.2888 H   0  0  0  0  0  0  0  0  0  0  0  0
  141.7784   72.3895  225.6603 H   0  0  0  0  0  0  0  0  0  0  0  0
  1  2  2  0
  2  3  1  0
  3  4  1  0
  4  5  1  0
  5  6  2  0
  5  7  1  0
  7  8  1  0
  8  9  1  0
  9 10  1  0
 10 11  1  0
 11 12  1  0
 12 13  1  0
 13 14  1  0
 14 15  2  0
 15 16  1  0
 16 17  2  0
 17 18  1  0
 18 19  2  0
  2 20  1  0
 20 21  2  0
 21 22  1  0
 22 23  2  0
 23 24  1  0
 24 25  2  0
 25 26  1  0
 25 27  1  0
 27 28  2  0
 28 29  1  0
 29 30  2  0
 13  7  1  0
 19 14  1  0
 30 20  1  0
 29 23  1  0
  3 31  1  0
  4 32  1  0
  4 33  1  0
  8 34  1  0
  8 35  1  0
  9 36  1  0
  9 37  1  0
 10 38  1  0
 10 39  1  0
 11 40  1  0
 11 41  1  0
 12 42  1  0
 12 43  1  0
 13 44  1  1
 15 45  1  0
 16 46  1  0
 17 47  1  0
 18 48  1  0
 19 49  1  0
 21 50  1  0
 22 51  1  0
 24 52  1  0
 27 53  1  0
 28 54  1  0
M  END
>  <smiles>  (82) 
O=C(NCC(=O)N1CCCCCC1c1ccccc1)c1ccc2cc(Cl)ccc2n1

>  <score_type>  (82) 
oracle

>  <origin>  (82) 
autodockgpu

>  <m_score__min__energy>  (82) 
-6.6299999999999999

>  <m_primary>  (82) 
energy

>  <rmsd>  (82) 
4.0899573059108265

>  <m_score__min__rmsd>  (82) 
4.0899573059108265

>  <meeko>  (82) 
{"free_energy": -5.01, "intermolecular_energy": -8.3, "internal_energy": -2.13, "cluster_size": 5, "cluster_id": 5, "rank_in_cluster": 3}

>  <energy>  (82) 
-5.23

>  <cluster_rmsd>  (82) 
0.0

>  <cluster>  (82) 
7

$$$$

     RDKit          3D

 54 57  0  0  0  0  0  0  0  0999 V2000
  139.7620   75.4010  219.6150 O   0  0  0  0  0  0  0  0  0  0  0  0
  140.2830   75.0190  220.6930 C   0  0  0  0  0  0  0  0  0  0  0  0
  141.3210   75.8780  221.2160 N   0  0  0  0  0  0  0  0  0  0  0  0
  141.7420   77.0680  220.5990 C   0  0  0  0  0  0  0  0  0  0  0  0
  140.8070   78.1100  220.2330 C   0  0  0  0  0  0  0  0  0  0  0  0
  141.3810   79.0810  219.5430 O   0  0  0  0  0  0  0  0  0  0  0  0
  139.4480   78.3050  220.4530 N   0  0  0  0  0  0  0  0  0  0  0  0
  138.4250   78.1070  219.4660 C   0  0  0  0  0  0  0  0  0  0  0  0
  137.1030   77.6670  219.9890 C   0  0  0  0  0  0  0  0  0  0  0  0
  137.2160   76.5490  221.0040 C   0  0  0  0  0  0  0  0  0  0  0  0
  137.3480   77.0950  222.4110 C   0  0  0  0  0  0  0  0  0  0  0  0
  138.7300   77.6370  222.7160 C   0  0  0  0  0  0  0  0  0  0  0  0
  139.1470   78.7530  221.8280 C   0  0  1  0  0  0  0  0  0  0  0  0
  140.3000   79.4630  222.4360 C   0  0  0  0  0  0  0  0  0  0  0  0
  140.6720   80.7250  222.0500 C   0  0  0  0  0  0  0  0  0  0  0  0
  141.7560   81.3670  222.6340 C   0  0  0  0  0  0  0  0  0  0  0  0
  142.4660   80.7140  223.6240 C   0  0  0  0  0  0  0  0  0  0  0  0
  142.1220   79.4400  224.0420 C   0  0  0  0  0  0  0  0  0  0  0  0
  141.0370   78.8330  223.4350 C   0  0  0  0  0  0  0  0  0  0  0  0
  139.8870   73.7990  221.3890 C   0  0  0  0  0  0  0  0  0  0  0  0
  138.9050   73.0360  220.7920 C   0  0  0  0  0  0  0  0  0  0  0  0
  138.5080   71.8600  221.4390 C   0  0  0  0  0  0  0  0  0  0  0  0
  139.1130   71.5060  222.6510 C   0  0  0  0  0  0  0  0  0  0  0  0
  138.7520   70.3550  223.3240 C   0  0  0  0  0  0  0  0  0  0  0  0
  139.3190   69.9660  224.5170 C   0  0  0  0  0  0  0  0  0  0  0  0
  138.8460   68.4990  225.3570 Cl  0  0  0  0  0  0  0  0  0  0  0  0
  140.3060   70.8020  225.0470 C   0  0  0  0  0  0  0  0  0  0  0  0
  140.6920   71.9630  224.3970 C   0  0  0  0  0  0  0  0  0  0  0  0
  140.1040   72.3230  223.2030 C   0  0  0  0  0  0  0  0  0  0  0  0
  140.4660   73.4490  222.5580 N   0  0  0  0  0  0  0  0  0  0  0  0
  141.7400   75.5200  222.1230 H   0  0  0  0  0  0  0  0  0  0  0  0
  142.4676   77.5309  221.2840 H   0  0  0  0  0  0  0  0  0  0  0  0
  142.0890   76.7115  219.6180 H   0  0  0  0  0  0  0  0  0  0  0  0
  138.2788   79.0589  218.9345 H   0  0  0  0  0  0  0  0  0  0  0  0
  138.7816   77.2887  218.8232 H   0  0  0  0  0  0  0  0  0  0  0  0
  136.6101   78.5267  220.4665 H   0  0  0  0  0  0  0  0  0  0  0  0
  136.5210   77.2839  219.1378 H   0  0  0  0  0  0  0  0  0  0  0  0
  136.3152   75.9203  220.9465 H   0  0  0  0  0  0  0  0  0  0  0  0
  138.1163   75.9604  220.7738 H   0  0  0  0  0  0  0  0  0  0  0  0
  136.6179   77.9075  222.5402 H   0  0  0  0  0  0  0  0  0  0  0  0
  137.1653   76.2599  223.1032 H   0  0  0  0  0  0  0  0  0  0  0  0
  138.7390   77.9987  223.7548 H   0  0  0  0  0  0  0  0  0  0  0  0
  139.4403   76.8136  222.5502 H   0  0  0  0  0  0  0  0  0  0  0  0
  138.3006   79.4495  221.7356 H   0  0  0  0  0  0  0  0  0  0  0  0
  140.1008   81.2387  221.2627 H   0  0  0  0  0  0  0  0  0  0  0  0
  142.0450   82.3789  222.3139 H   0  0  0  0  0  0  0  0  0  0  0  0
  143.3248   81.2187  224.0907 H   0  0  0  0  0  0  0  0  0  0  0  0
  142.6923   78.9273  224.8306 H   0  0  0  0  0  0  0  0  0  0  0  0
  140.7474   77.8202  223.7519 H   0  0  0  0  0  0  0  0  0  0  0  0
  138.4489   73.3417  219.8388 H   0  0  0  0  0  0  0  0  0  0  0  0
  137.7284   71.2203  220.9996 H   0  0  0  0  0  0  0  0  0  0  0  0
  137.9716   69.7165  222.8844 H   0  0  0  0  0  0  0  0  0  0  0  0
  140.7859   70.5326  225.9994 H   0  0  0  0  0  0  0  0  0  0  0  0
  141.4725   72.6016  224.8363 H   0  0  0  0  0  0  0  0  0  0  0  0
  1  2  2  0
  2  3  1  0
  3  4  1  0
  4  5  1  0
  5  6  2  0
  5  7  1  0
  7  8  1  0
  8  9  1  0
  9 10  1  0
 10 11  1  0
 11 12  1  0
 12 13  1  0
 13 14  1  0
 14 15  2  0
 15 16  1  0
 16 17  2  0
 17 18  1  0
 18 19  2  0
  2 20  1  0
 20 21  2  0
 21 22  1  0
 22 23  2  0
 23 24  1  0
 24 25  2  0
 25 26  1  0
 25 27  1  0
 27 28  2  0
 28 29  1  0
 29 30  2  0
 13  7  1  0
 19 14  1  0
 30 20  1  0
 29 23  1  0
  3 31  1  0
  4 32  1  0
  4 33  1  0
  8 34  1  0
  8 35  1  0
  9 36  1  0
  9 37  1  0
 10 38  1  0
 10 39  1  0
 11 40  1  0
 11 41  1  0
 12 42  1  0
 12 43  1  0
 13 44  1  6
 15 45  1  0
 16 46  1  0
 17 47  1  0
 18 48  1  0
 19 49  1  0
 21 50  1  0
 22 51  1  0
 24 52  1  0
 27 53  1  0
 28 54  1  0
M  END
>  <smiles>  (83) 
O=C(NCC(=O)N1CCCCCC1c1ccccc1)c1ccc2cc(Cl)ccc2n1

>  <score_type>  (83) 
oracle

>  <origin>  (83) 
autodockgpu

>  <m_score__min__energy>  (83) 
-6.6299999999999999

>  <m_primary>  (83) 
energy

>  <rmsd>  (83) 
4.286220537089562

>  <m_score__min__rmsd>  (83) 
4.286220537089562

>  <meeko>  (83) 
{"free_energy": -3.88, "intermolecular_energy": -7.17, "internal_energy": -2.64, "cluster_size": 4, "cluster_id": 6, "rank_in_cluster": 4}

>  <energy>  (83) 
-5.21

>  <cluster_rmsd>  (83) 
0.0

>  <cluster>  (83) 
8

$$$$

     RDKit          3D

 54 57  0  0  0  0  0  0  0  0999 V2000
  136.6240   78.1760  221.7000 O   0  0  0  0  0  0  0  0  0  0  0  0
  137.0730   79.2070  222.2620 C   0  0  0  0  0  0  0  0  0  0  0  0
  138.2390   79.7910  221.6390 N   0  0  0  0  0  0  0  0  0  0  0  0
  138.8530   79.2800  220.4840 C   0  0  0  0  0  0  0  0  0  0  0  0
  140.2910   79.2620  220.3280 C   0  0  0  0  0  0  0  0  0  0  0  0
  140.6630   78.8300  219.1350 O   0  0  0  0  0  0  0  0  0  0  0  0
  141.3540   79.5980  221.1600 N   0  0  0  0  0  0  0  0  0  0  0  0
  141.9690   80.8940  221.2130 C   0  0  0  0  0  0  0  0  0  0  0  0
  141.4190   81.8250  222.2360 C   0  0  0  0  0  0  0  0  0  0  0  0
  141.5670   81.2990  223.6480 C   0  0  0  0  0  0  0  0  0  0  0  0
  140.8930   79.9510  223.8060 C   0  0  0  0  0  0  0  0  0  0  0  0
  141.7980   78.7930  223.4480 C   0  0  0  0  0  0  0  0  0  0  0  0
  141.8070   78.4700  221.9980 C   0  0  1  0  0  0  0  0  0  0  0  0
  140.9940   77.2510  221.7590 C   0  0  0  0  0  0  0  0  0  0  0  0
  141.3350   76.3140  220.8170 C   0  0  0  0  0  0  0  0  0  0  0  0
  140.5570   75.1820  220.6130 C   0  0  0  0  0  0  0  0  0  0  0  0
  139.4200   75.0050  221.3780 C   0  0  0  0  0  0  0  0  0  0  0  0
  139.0420   75.9280  222.3390 C   0  0  0  0  0  0  0  0  0  0  0  0
  139.8420   77.0420  222.5120 C   0  0  0  0  0  0  0  0  0  0  0  0
  136.4790   79.7930  223.4590 C   0  0  0  0  0  0  0  0  0  0  0  0
  135.2070   79.3730  223.7890 C   0  0  0  0  0  0  0  0  0  0  0  0
  134.6150   79.9190  224.9340 C   0  0  0  0  0  0  0  0  0  0  0  0
  135.3240   80.8590  225.6910 C   0  0  0  0  0  0  0  0  0  0  0  0
  134.7790   81.4240  226.8270 C   0  0  0  0  0  0  0  0  0  0  0  0
  135.4390   82.3520  227.6020 C   0  0  0  0  0  0  0  0  0  0  0  0
  134.7280   83.0590  229.0430 Cl  0  0  0  0  0  0  0  0  0  0  0  0
  136.7240   82.7180  227.1900 C   0  0  0  0  0  0  0  0  0  0  0  0
  137.2990   82.1700  226.0560 C   0  0  0  0  0  0  0  0  0  0  0  0
  136.6120   81.2430  225.3020 C   0  0  0  0  0  0  0  0  0  0  0  0
  137.1560   80.7000  224.1960 N   0  0  0  0  0  0  0  0  0  0  0  0
  138.5920   80.6550  222.1450 H   0  0  0  0  0  0  0  0  0  0  0  0
  138.5197   78.2356  220.3937 H   0  0  0  0  0  0  0  0  0  0  0  0
  138.5450   80.0055  219.7166 H   0  0  0  0  0  0  0  0  0  0  0  0
  143.0391   80.7525  221.4245 H   0  0  0  0  0  0  0  0  0  0  0  0
  141.7667   81.3634  220.2389 H   0  0  0  0  0  0  0  0  0  0  0  0
  141.9518   82.7844  222.1607 H   0  0  0  0  0  0  0  0  0  0  0  0
  140.3433   81.9388  222.0360 H   0  0  0  0  0  0  0  0  0  0  0  0
  142.6369   81.1944  223.8813 H   0  0  0  0  0  0  0  0  0  0  0  0
  141.0868   82.0104  224.3360 H   0  0  0  0  0  0  0  0  0  0  0  0
  140.5764   79.8378  224.8534 H   0  0  0  0  0  0  0  0  0  0  0  0
  140.0381   79.9271  223.1142 H   0  0  0  0  0  0  0  0  0  0  0  0
  142.8238   79.0461  223.7541 H   0  0  0  0  0  0  0  0  0  0  0  0
  141.4107   77.9073  223.9729 H   0  0  0  0  0  0  0  0  0  0  0  0
  142.8476   78.2761  221.6987 H   0  0  0  0  0  0  0  0  0  0  0  0
  142.2416   76.4621  220.2119 H   0  0  0  0  0  0  0  0  0  0  0  0
  140.8414   74.4379  219.8544 H   0  0  0  0  0  0  0  0  0  0  0  0
  138.8004   74.1099  221.2200 H   0  0  0  0  0  0  0  0  0  0  0  0
  138.1356   75.7796  222.9443 H   0  0  0  0  0  0  0  0  0  0  0  0
  139.5590   77.7877  223.2695 H   0  0  0  0  0  0  0  0  0  0  0  0
  134.6753   78.6332  223.1725 H   0  0  0  0  0  0  0  0  0  0  0  0
  133.6027   79.6124  225.2359 H   0  0  0  0  0  0  0  0  0  0  0  0
  133.7665   81.1175  227.1283 H   0  0  0  0  0  0  0  0  0  0  0  0
  137.2892   83.4558  227.7784 H   0  0  0  0  0  0  0  0  0  0  0  0
  138.3115   82.4766  225.7546 H   0  0  0  0  0  0  0  0  0  0  0  0
  1  2  2  0
  2  3  1  0
  3  4  1  0
  4  5  1  0
  5  6  2  0
  5  7  1  0
  7  8  1  0
  8  9  1  0
  9 10  1  0
 10 11  1  0
 11 12  1  0
 12 13  1  0
 13 14  1  0
 14 15  2  0
 15 16  1  0
 16 17  2  0
 17 18  1  0
 18 19  2  0
  2 20  1  0
 20 21  2  0
 21 22  1  0
 22 23  2  0
 23 24  1  0
 24 25  2  0
 25 26  1  0
 25 27  1  0
 27 28  2  0
 28 29  1  0
 29 30  2  0
 13  7  1  0
 19 14  1  0
 30 20  1  0
 29 23  1  0
  3 31  1  0
  4 32  1  0
  4 33  1  0
  8 34  1  0
  8 35  1  0
  9 36  1  0
  9 37  1  0
 10 38  1  0
 10 39  1  0
 11 40  1  0
 11 41  1  0
 12 42  1  0
 12 43  1  0
 13 44  1  6
 15 45  1  0
 16 46  1  0
 17 47  1  0
 18 48  1  0
 19 49  1  0
 21 50  1  0
 22 51  1  0
 24 52  1  0
 27 53  1  0
 28 54  1  0
M  END
>  <smiles>  (84) 
O=C(NCC(=O)N1CCCCCC1c1ccccc1)c1ccc2cc(Cl)ccc2n1

>  <score_type>  (84) 
oracle

>  <origin>  (84) 
autodockgpu

>  <m_score__min__energy>  (84) 
-6.6299999999999999

>  <m_primary>  (84) 
energy

>  <rmsd>  (84) 
9.204632039753111

>  <m_score__min__rmsd>  (84) 
9.204632039753111

>  <meeko>  (84) 
{"free_energy": -4.45, "intermolecular_energy": -7.73, "internal_energy": -2.51, "cluster_size": 1, "cluster_id": 18, "rank_in_cluster": 1}

>  <energy>  (84) 
-5.18

>  <cluster_rmsd>  (84) 
0.0

>  <cluster>  (84) 
9

$$$$

     RDKit          3D

 54 57  0  0  0  0  0  0  0  0999 V2000
  138.0150   77.1540  220.8760 O   0  0  0  0  0  0  0  0  0  0  0  0
  137.9360   76.5450  221.9730 C   0  0  0  0  0  0  0  0  0  0  0  0
  139.0910   75.7500  222.3220 N   0  0  0  0  0  0  0  0  0  0  0  0
  140.2420   75.6420  221.5250 C   0  0  0  0  0  0  0  0  0  0  0  0
  140.8960   76.8060  220.9680 C   0  0  0  0  0  0  0  0  0  0  0  0
  141.3240   76.6010  219.7340 O   0  0  0  0  0  0  0  0  0  0  0  0
  141.1690   78.0810  221.4530 N   0  0  0  0  0  0  0  0  0  0  0  0
  141.8470   79.1070  220.7120 C   0  0  0  0  0  0  0  0  0  0  0  0
  141.8150   80.4660  221.3200 C   0  0  0  0  0  0  0  0  0  0  0  0
  142.7580   80.6040  222.4970 C   0  0  0  0  0  0  0  0  0  0  0  0
  142.1080   80.1310  223.7810 C   0  0  0  0  0  0  0  0  0  0  0  0
  141.7870   78.6530  223.7700 C   0  0  0  0  0  0  0  0  0  0  0  0
  140.6930   78.2840  222.8360 C   0  0  1  0  0  0  0  0  0  0  0  0
  139.6200   79.3090  222.9000 C   0  0  0  0  0  0  0  0  0  0  0  0
  138.9940   79.7870  221.7790 C   0  0  0  0  0  0  0  0  0  0  0  0
  137.9940   80.7470  221.8670 C   0  0  0  0  0  0  0  0  0  0  0  0
  137.6300   81.2210  223.1120 C   0  0  0  0  0  0  0  0  0  0  0  0
  138.2380   80.7630  224.2680 C   0  0  0  0  0  0  0  0  0  0  0  0
  139.2300   79.8080  224.1400 C   0  0  0  0  0  0  0  0  0  0  0  0
  136.7730   76.6210  222.8520 C   0  0  0  0  0  0  0  0  0  0  0  0
  136.0890   77.8180  222.8740 C   0  0  0  0  0  0  0  0  0  0  0  0
  134.9680   77.9150  223.7080 C   0  0  0  0  0  0  0  0  0  0  0  0
  134.5890   76.8100  224.4790 C   0  0  0  0  0  0  0  0  0  0  0  0
  133.4920   76.8620  225.3150 C   0  0  0  0  0  0  0  0  0  0  0  0
  133.0810   75.8010  226.0920 C   0  0  0  0  0  0  0  0  0  0  0  0
  131.6830   75.8860  227.1490 Cl  0  0  0  0  0  0  0  0  0  0  0  0
  133.8360   74.6270  226.0040 C   0  0  0  0  0  0  0  0  0  0  0  0
  134.9420   74.5430  225.1750 C   0  0  0  0  0  0  0  0  0  0  0  0
  135.3260   75.6240  224.4100 C   0  0  0  0  0  0  0  0  0  0  0  0
  136.3990   75.5590  223.5990 N   0  0  0  0  0  0  0  0  0  0  0  0
  138.9840   75.2480  223.2520 H   0  0  0  0  0  0  0  0  0  0  0  0
  140.9961   75.1286  222.1396 H   0  0  0  0  0  0  0  0  0  0  0  0
  139.8564   75.1389  220.6260 H   0  0  0  0  0  0  0  0  0  0  0  0
  142.9003   78.8082  220.6058 H   0  0  0  0  0  0  0  0  0  0  0  0
  141.3109   79.1921  219.7552 H   0  0  0  0  0  0  0  0  0  0  0  0
  142.1001   81.2011  220.5530 H   0  0  0  0  0  0  0  0  0  0  0  0
  140.7941   80.6391  221.6911 H   0  0  0  0  0  0  0  0  0  0  0  0
  143.6582   80.0008  222.3076 H   0  0  0  0  0  0  0  0  0  0  0  0
  143.0186   81.6666  222.6106 H   0  0  0  0  0  0  0  0  0  0  0  0
  142.7934   80.3348  224.6169 H   0  0  0  0  0  0  0  0  0  0  0  0
  141.1574   80.6739  223.8885 H   0  0  0  0  0  0  0  0  0  0  0  0
  142.6936   78.1034  223.4766 H   0  0  0  0  0  0  0  0  0  0  0  0
  141.4454   78.3919  224.7825 H   0  0  0  0  0  0  0  0  0  0  0  0
  140.2853   77.3139  223.1564 H   0  0  0  0  0  0  0  0  0  0  0  0
  139.2888   79.4035  220.7911 H   0  0  0  0  0  0  0  0  0  0  0  0
  137.4998   81.1238  220.9594 H   0  0  0  0  0  0  0  0  0  0  0  0
  136.8380   81.9807  223.1867 H   0  0  0  0  0  0  0  0  0  0  0  0
  137.9420   81.1459  225.2558 H   0  0  0  0  0  0  0  0  0  0  0  0
  139.7265   79.4308  225.0462 H   0  0  0  0  0  0  0  0  0  0  0  0
  136.4131   78.6689  222.2568 H   0  0  0  0  0  0  0  0  0  0  0  0
  134.3911   78.8503  223.7566 H   0  0  0  0  0  0  0  0  0  0  0  0
  132.9165   77.7982  225.3634 H   0  0  0  0  0  0  0  0  0  0  0  0
  133.5454   73.7529  226.6053 H   0  0  0  0  0  0  0  0  0  0  0  0
  135.5183   73.6073  225.1264 H   0  0  0  0  0  0  0  0  0  0  0  0
  1  2  2  0
  2  3  1  0
  3  4  1  0
  4  5  1  0
  5  6  2  0
  5  7  1  0
  7  8  1  0
  8  9  1  0
  9 10  1  0
 10 11  1  0
 11 12  1  0
 12 13  1  0
 13 14  1  0
 14 15  2  0
 15 16  1  0
 16 17  2  0
 17 18  1  0
 18 19  2  0
  2 20  1  0
 20 21  2  0
 21 22  1  0
 22 23  2  0
 23 24  1  0
 24 25  2  0
 25 26  1  0
 25 27  1  0
 27 28  2  0
 28 29  1  0
 29 30  2  0
 13  7  1  0
 19 14  1  0
 30 20  1  0
 29 23  1  0
  3 31  1  0
  4 32  1  0
  4 33  1  0
  8 34  1  0
  8 35  1  0
  9 36  1  0
  9 37  1  0
 10 38  1  0
 10 39  1  0
 11 40  1  0
 11 41  1  0
 12 42  1  0
 12 43  1  0
 13 44  1  1
 15 45  1  0
 16 46  1  0
 17 47  1  0
 18 48  1  0
 19 49  1  0
 21 50  1  0
 22 51  1  0
 24 52  1  0
 27 53  1  0
 28 54  1  0
M  END
>  <smiles>  (85) 
O=C(NCC(=O)N1CCCCCC1c1ccccc1)c1ccc2cc(Cl)ccc2n1

>  <score_type>  (85) 
oracle

>  <origin>  (85) 
autodockgpu

>  <m_score__min__energy>  (85) 
-6.6299999999999999

>  <m_primary>  (85) 
energy

>  <rmsd>  (85) 
6.902641434564137

>  <m_score__min__rmsd>  (85) 
6.902641434564137

>  <meeko>  (85) 
{"free_energy": -5.12, "intermolecular_energy": -8.4, "internal_energy": -2.08, "cluster_size": 3, "cluster_id": 11, "rank_in_cluster": 1}

>  <energy>  (85) 
-5.12

>  <cluster_rmsd>  (85) 
0.0

>  <cluster>  (85) 
10

$$$$

     RDKit          3D

 54 57  0  0  0  0  0  0  0  0999 V2000
  140.2180   75.2890  219.1940 O   0  0  0  0  0  0  0  0  0  0  0  0
  140.6670   74.9230  220.3100 C   0  0  0  0  0  0  0  0  0  0  0  0
  141.8170   75.6580  220.7830 N   0  0  0  0  0  0  0  0  0  0  0  0
  142.4170   76.7170  220.0820 C   0  0  0  0  0  0  0  0  0  0  0  0
  141.9520   78.0810  220.2150 C   0  0  0  0  0  0  0  0  0  0  0  0
  142.1510   78.7890  219.1160 O   0  0  0  0  0  0  0  0  0  0  0  0
  141.3480   78.7960  221.2440 N   0  0  0  0  0  0  0  0  0  0  0  0
  141.0620   80.2020  221.2000 C   0  0  0  0  0  0  0  0  0  0  0  0
  142.1220   81.0910  221.7510 C   0  0  0  0  0  0  0  0  0  0  0  0
  142.3570   80.8760  223.2310 C   0  0  0  0  0  0  0  0  0  0  0  0
  141.2710   80.0140  223.8410 C   0  0  0  0  0  0  0  0  0  0  0  0
  141.5440   78.5300  223.6870 C   0  0  0  0  0  0  0  0  0  0  0  0
  141.0300   77.9570  222.4170 C   0  0  1  0  0  0  0  0  0  0  0  0
  139.5700   77.7170  222.5370 C   0  0  0  0  0  0  0  0  0  0  0  0
  138.6560   78.7390  222.5380 C   0  0  0  0  0  0  0  0  0  0  0  0
  137.2950   78.4880  222.6520 C   0  0  0  0  0  0  0  0  0  0  0  0
  136.8630   77.1800  222.7660 C   0  0  0  0  0  0  0  0  0  0  0  0
  137.7550   76.1210  222.7690 C   0  0  0  0  0  0  0  0  0  0  0  0
  139.1020   76.4110  222.6540 C   0  0  0  0  0  0  0  0  0  0  0  0
  140.0860   73.8360  221.0920 C   0  0  0  0  0  0  0  0  0  0  0  0
  138.9010   73.3040  220.6300 C   0  0  0  0  0  0  0  0  0  0  0  0
  138.3240   72.2590  221.3620 C   0  0  0  0  0  0  0  0  0  0  0  0
  138.9620   71.8010  222.5210 C   0  0  0  0  0  0  0  0  0  0  0  0
  138.4290   70.7730  223.2740 C   0  0  0  0  0  0  0  0  0  0  0  0
  139.0200   70.2890  224.4200 C   0  0  0  0  0  0  0  0  0  0  0  0
  138.3260   68.9820  225.3640 Cl  0  0  0  0  0  0  0  0  0  0  0  0
  140.2190   70.8910  224.8120 C   0  0  0  0  0  0  0  0  0  0  0  0
  140.7810   71.9220  224.0790 C   0  0  0  0  0  0  0  0  0  0  0  0
  140.1630   72.3840  222.9360 C   0  0  0  0  0  0  0  0  0  0  0  0
  140.6950   73.3860  222.2110 N   0  0  0  0  0  0  0  0  0  0  0  0
  142.1710   75.3170  221.7240 H   0  0  0  0  0  0  0  0  0  0  0  0
  143.4765   76.7219  220.3777 H   0  0  0  0  0  0  0  0  0  0  0  0
  142.1566   76.4830  219.0392 H   0  0  0  0  0  0  0  0  0  0  0  0
  140.8984   80.4815  220.1488 H   0  0  0  0  0  0  0  0  0  0  0  0
  140.1808   80.3504  221.8415 H   0  0  0  0  0  0  0  0  0  0  0  0
  143.0611   80.8930  221.2136 H   0  0  0  0  0  0  0  0  0  0  0  0
  141.7861   82.1298  221.6164 H   0  0  0  0  0  0  0  0  0  0  0  0
  143.3290   80.3804  223.3712 H   0  0  0  0  0  0  0  0  0  0  0  0
  142.3442   81.8559  223.7306 H   0  0  0  0  0  0  0  0  0  0  0  0
  141.1966   80.2485  224.9132 H   0  0  0  0  0  0  0  0  0  0  0  0
  140.3338   80.2357  223.3094 H   0  0  0  0  0  0  0  0  0  0  0  0
  142.6319   78.3713  223.7244 H   0  0  0  0  0  0  0  0  0  0  0  0
  141.0170   78.0195  224.5065 H   0  0  0  0  0  0  0  0  0  0  0  0
  141.5409   76.9981  222.2455 H   0  0  0  0  0  0  0  0  0  0  0  0
  139.0075   79.7773  222.4468 H   0  0  0  0  0  0  0  0  0  0  0  0
  136.5721   79.3171  222.6516 H   0  0  0  0  0  0  0  0  0  0  0  0
  135.7859   76.9757  222.8564 H   0  0  0  0  0  0  0  0  0  0  0  0
  137.4034   75.0827  222.8599 H   0  0  0  0  0  0  0  0  0  0  0  0
  139.8269   75.5836  222.6550 H   0  0  0  0  0  0  0  0  0  0  0  0
  138.4243   73.6880  219.7161 H   0  0  0  0  0  0  0  0  0  0  0  0
  137.3797   71.8029  221.0300 H   0  0  0  0  0  0  0  0  0  0  0  0
  137.4845   70.3177  222.9415 H   0  0  0  0  0  0  0  0  0  0  0  0
  140.7265   70.5381  225.7219 H   0  0  0  0  0  0  0  0  0  0  0  0
  141.7267   72.3757  224.4104 H   0  0  0  0  0  0  0  0  0  0  0  0
  1  2  2  0
  2  3  1  0
  3  4  1  0
  4  5  1  0
  5  6  2  0
  5  7  1  0
  7  8  1  0
  8  9  1  0
  9 10  1  0
 10 11  1  0
 11 12  1  0
 12 13  1  0
 13 14  1  0
 14 15  2  0
 15 16  1  0
 16 17  2  0
 17 18  1  0
 18 19  2  0
  2 20  1  0
 20 21  2  0
 21 22  1  0
 22 23  2  0
 23 24  1  0
 24 25  2  0
 25 26  1  0
 25 27  1  0
 27 28  2  0
 28 29  1  0
 29 30  2  0
 13  7  1  0
 19 14  1  0
 30 20  1  0
 29 23  1  0
  3 31  1  0
  4 32  1  0
  4 33  1  0
  8 34  1  0
  8 35  1  0
  9 36  1  0
  9 37  1  0
 10 38  1  0
 10 39  1  0
 11 40  1  0
 11 41  1  0
 12 42  1  0
 12 43  1  0
 13 44  1  6
 15 45  1  0
 16 46  1  0
 17 47  1  0
 18 48  1  0
 19 49  1  0
 21 50  1  0
 22 51  1  0
 24 52  1  0
 27 53  1  0
 28 54  1  0
M  END
>  <smiles>  (86) 
O=C(NCC(=O)N1CCCCCC1c1ccccc1)c1ccc2cc(Cl)ccc2n1

>  <score_type>  (86) 
oracle

>  <origin>  (86) 
autodockgpu

>  <m_score__min__energy>  (86) 
-6.6299999999999999

>  <m_primary>  (86) 
energy

>  <rmsd>  (86) 
4.990811928655372

>  <m_score__min__rmsd>  (86) 
4.990811928655372

>  <meeko>  (86) 
{"free_energy": -4.99, "intermolecular_energy": -8.27, "internal_energy": -2.5, "cluster_size": 2, "cluster_id": 13, "rank_in_cluster": 1}

>  <energy>  (86) 
-4.68

>  <cluster_rmsd>  (86) 
1.92

>  <cluster>  (86) 
10

$$$$

     RDKit          3D

 54 57  0  0  0  0  0  0  0  0999 V2000
  140.1540   72.6020  220.6700 O   0  0  0  0  0  0  0  0  0  0  0  0
  139.7830   72.8530  221.8440 C   0  0  0  0  0  0  0  0  0  0  0  0
  139.2180   74.1670  222.0460 N   0  0  0  0  0  0  0  0  0  0  0  0
  139.0700   75.1240  221.0280 C   0  0  0  0  0  0  0  0  0  0  0  0
  140.1830   75.9230  220.5630 C   0  0  0  0  0  0  0  0  0  0  0  0
  141.2960   75.2190  220.4530 O   0  0  0  0  0  0  0  0  0  0  0  0
  140.3270   77.2620  220.2140 N   0  0  0  0  0  0  0  0  0  0  0  0
  139.2780   78.0810  219.6750 C   0  0  0  0  0  0  0  0  0  0  0  0
  139.1940   78.1230  218.1900 C   0  0  0  0  0  0  0  0  0  0  0  0
  140.4170   78.7480  217.5500 C   0  0  0  0  0  0  0  0  0  0  0  0
  141.6800   78.0120  217.9460 C   0  0  0  0  0  0  0  0  0  0  0  0
  142.2430   78.4920  219.2680 C   0  0  0  0  0  0  0  0  0  0  0  0
  141.6940   77.7720  220.4450 C   0  0  1  0  0  0  0  0  0  0  0  0
  141.7520   78.6550  221.6370 C   0  0  0  0  0  0  0  0  0  0  0  0
  141.4350   78.2130  222.8950 C   0  0  0  0  0  0  0  0  0  0  0  0
  141.4980   79.0600  223.9940 C   0  0  0  0  0  0  0  0  0  0  0  0
  141.8900   80.3720  223.8050 C   0  0  0  0  0  0  0  0  0  0  0  0
  142.2190   80.8560  222.5500 C   0  0  0  0  0  0  0  0  0  0  0  0
  142.1430   79.9820  221.4810 C   0  0  0  0  0  0  0  0  0  0  0  0
  139.9020   71.9010  222.9450 C   0  0  0  0  0  0  0  0  0  0  0  0
  139.4690   70.6150  222.7020 C   0  0  0  0  0  0  0  0  0  0  0  0
  139.5740   69.6830  223.7420 C   0  0  0  0  0  0  0  0  0  0  0  0
  140.1060   70.0850  224.9720 C   0  0  0  0  0  0  0  0  0  0  0  0
  140.2270   69.2000  226.0250 C   0  0  0  0  0  0  0  0  0  0  0  0
  140.7440   69.5500  227.2530 C   0  0  0  0  0  0  0  0  0  0  0  0
  140.8900   68.4100  228.5790 Cl  0  0  0  0  0  0  0  0  0  0  0  0
  141.1570   70.8770  227.4070 C   0  0  0  0  0  0  0  0  0  0  0  0
  141.0490   71.7890  226.3710 C   0  0  0  0  0  0  0  0  0  0  0  0
  140.5270   71.4060  225.1540 C   0  0  0  0  0  0  0  0  0  0  0  0
  140.4150   72.2800  224.1350 N   0  0  0  0  0  0  0  0  0  0  0  0
  138.9220   74.3430  223.0500 H   0  0  0  0  0  0  0  0  0  0  0  0
  138.6900   74.5830  220.1488 H   0  0  0  0  0  0  0  0  0  0  0  0
  138.4281   75.8770  221.5085 H   0  0  0  0  0  0  0  0  0  0  0  0
  138.3200   77.6991  220.0575 H   0  0  0  0  0  0  0  0  0  0  0  0
  139.5055   79.1092  219.9928 H   0  0  0  0  0  0  0  0  0  0  0  0
  139.0879   77.0944  217.8148 H   0  0  0  0  0  0  0  0  0  0  0  0
  138.3268   78.7457  217.9249 H   0  0  0  0  0  0  0  0  0  0  0  0
  140.3081   78.7105  216.4561 H   0  0  0  0  0  0  0  0  0  0  0  0
  140.4976   79.7888  217.8967 H   0  0  0  0  0  0  0  0  0  0  0  0
  141.4514   76.9392  218.0290 H   0  0  0  0  0  0  0  0  0  0  0  0
  142.4362   78.2066  217.1712 H   0  0  0  0  0  0  0  0  0  0  0  0
  143.3339   78.3520  219.2526 H   0  0  0  0  0  0  0  0  0  0  0  0
  141.9580   79.5490  219.3750 H   0  0  0  0  0  0  0  0  0  0  0  0
  142.3187   76.8840  220.6216 H   0  0  0  0  0  0  0  0  0  0  0  0
  141.1247   77.1673  223.0370 H   0  0  0  0  0  0  0  0  0  0  0  0
  141.2402   78.6927  224.9983 H   0  0  0  0  0  0  0  0  0  0  0  0
  141.9418   81.0473  224.6717 H   0  0  0  0  0  0  0  0  0  0  0  0
  142.5306   81.9014  222.4080 H   0  0  0  0  0  0  0  0  0  0  0  0
  142.3997   80.3469  220.4755 H   0  0  0  0  0  0  0  0  0  0  0  0
  139.0547   70.3303  221.7236 H   0  0  0  0  0  0  0  0  0  0  0  0
  139.2415   68.6451  223.5933 H   0  0  0  0  0  0  0  0  0  0  0  0
  139.8935   68.1625  225.8757 H   0  0  0  0  0  0  0  0  0  0  0  0
  141.5760   71.2028  228.3705 H   0  0  0  0  0  0  0  0  0  0  0  0
  141.3821   72.8267  226.5201 H   0  0  0  0  0  0  0  0  0  0  0  0
  1  2  2  0
  2  3  1  0
  3  4  1  0
  4  5  1  0
  5  6  2  0
  5  7  1  0
  7  8  1  0
  8  9  1  0
  9 10  1  0
 10 11  1  0
 11 12  1  0
 12 13  1  0
 13 14  1  0
 14 15  2  0
 15 16  1  0
 16 17  2  0
 17 18  1  0
 18 19  2  0
  2 20  1  0
 20 21  2  0
 21 22  1  0
 22 23  2  0
 23 24  1  0
 24 25  2  0
 25 26  1  0
 25 27  1  0
 27 28  2  0
 28 29  1  0
 29 30  2  0
 13  7  1  0
 19 14  1  0
 30 20  1  0
 29 23  1  0
  3 31  1  0
  4 32  1  0
  4 33  1  0
  8 34  1  0
  8 35  1  0
  9 36  1  0
  9 37  1  0
 10 38  1  0
 10 39  1  0
 11 40  1  0
 11 41  1  0
 12 42  1  0
 12 43  1  0
 13 44  1  1
 15 45  1  0
 16 46  1  0
 17 47  1  0
 18 48  1  0
 19 49  1  0
 21 50  1  0
 22 51  1  0
 24 52  1  0
 27 53  1  0
 28 54  1  0
M  END
>  <smiles>  (87) 
O=C(NCC(=O)N1CCCCCC1c1ccccc1)c1ccc2cc(Cl)ccc2n1

>  <score_type>  (87) 
oracle

>  <origin>  (87) 
autodockgpu

>  <m_score__min__energy>  (87) 
-6.6299999999999999

>  <m_primary>  (87) 
energy

>  <rmsd>  (87) 
2.035064822562141

>  <m_score__min__rmsd>  (87) 
2.035064822562141

>  <meeko>  (87) 
{"free_energy": -6.1, "intermolecular_energy": -9.38, "internal_energy": -1.61, "cluster_size": 7, "cluster_id": 1, "rank_in_cluster": 4}

>  <energy>  (87) 
-5.12

>  <cluster_rmsd>  (87) 
0.0

>  <cluster>  (87) 
11

$$$$

     RDKit          3D

 54 57  0  0  0  0  0  0  0  0999 V2000
  139.3290   71.9640  220.7140 O   0  0  0  0  0  0  0  0  0  0  0  0
  139.4480   72.3460  221.9060 C   0  0  0  0  0  0  0  0  0  0  0  0
  139.3810   73.7750  222.1060 N   0  0  0  0  0  0  0  0  0  0  0  0
  139.1900   74.7060  221.0720 C   0  0  0  0  0  0  0  0  0  0  0  0
  140.2760   75.5180  220.5660 C   0  0  0  0  0  0  0  0  0  0  0  0
  141.1550   75.8230  221.5050 O   0  0  0  0  0  0  0  0  0  0  0  0
  140.5840   76.0410  219.3150 N   0  0  0  0  0  0  0  0  0  0  0  0
  139.6960   76.8480  218.5270 C   0  0  0  0  0  0  0  0  0  0  0  0
  140.0580   78.2880  218.4240 C   0  0  0  0  0  0  0  0  0  0  0  0
  141.2900   78.6430  219.2310 C   0  0  0  0  0  0  0  0  0  0  0  0
  142.5460   78.0940  218.5860 C   0  0  0  0  0  0  0  0  0  0  0  0
  142.9420   76.7380  219.1210 C   0  0  0  0  0  0  0  0  0  0  0  0
  141.9390   75.6740  218.8560 C   0  0  1  0  0  0  0  0  0  0  0  0
  142.3970   74.4000  219.4670 C   0  0  0  0  0  0  0  0  0  0  0  0
  141.7410   73.2130  219.2680 C   0  0  0  0  0  0  0  0  0  0  0  0
  142.1890   72.0360  219.8520 C   0  0  0  0  0  0  0  0  0  0  0  0
  143.3190   72.0710  220.6470 C   0  0  0  0  0  0  0  0  0  0  0  0
  144.0090   73.2500  220.8720 C   0  0  0  0  0  0  0  0  0  0  0  0
  143.5310   74.4020  220.2740 C   0  0  0  0  0  0  0  0  0  0  0  0
  139.6400   71.4300  223.0260 C   0  0  0  0  0  0  0  0  0  0  0  0
  139.2690   70.1170  222.8260 C   0  0  0  0  0  0  0  0  0  0  0  0
  139.4440   69.2190  223.8850 C   0  0  0  0  0  0  0  0  0  0  0  0
  139.9820   69.6800  225.0930 C   0  0  0  0  0  0  0  0  0  0  0  0
  140.1720   68.8290  226.1640 C   0  0  0  0  0  0  0  0  0  0  0  0
  140.6980   69.2370  227.3700 C   0  0  0  0  0  0  0  0  0  0  0  0
  140.9320   68.1410  228.7210 Cl  0  0  0  0  0  0  0  0  0  0  0  0
  141.0450   70.5870  227.4820 C   0  0  0  0  0  0  0  0  0  0  0  0
  140.8670   71.4660  226.4260 C   0  0  0  0  0  0  0  0  0  0  0  0
  140.3390   71.0250  225.2310 C   0  0  0  0  0  0  0  0  0  0  0  0
  140.1590   71.8650  224.1950 N   0  0  0  0  0  0  0  0  0  0  0  0
  139.4910   74.0580  223.1230 H   0  0  0  0  0  0  0  0  0  0  0  0
  138.8027   74.1384  220.2131 H   0  0  0  0  0  0  0  0  0  0  0  0
  138.5421   75.4554  221.5501 H   0  0  0  0  0  0  0  0  0  0  0  0
  139.6727   76.4311  217.5093 H   0  0  0  0  0  0  0  0  0  0  0  0
  138.7244   76.8176  219.0418 H   0  0  0  0  0  0  0  0  0  0  0  0
  140.2488   78.5277  217.3675 H   0  0  0  0  0  0  0  0  0  0  0  0
  139.2175   78.8705  218.8293 H   0  0  0  0  0  0  0  0  0  0  0  0
  141.3710   79.7379  219.2989 H   0  0  0  0  0  0  0  0  0  0  0  0
  141.1901   78.1980  220.2320 H   0  0  0  0  0  0  0  0  0  0  0  0
  142.3741   78.0066  217.5030 H   0  0  0  0  0  0  0  0  0  0  0  0
  143.3653   78.7904  218.8177 H   0  0  0  0  0  0  0  0  0  0  0  0
  143.8924   76.4437  218.6517 H   0  0  0  0  0  0  0  0  0  0  0  0
  143.0253   76.8357  220.2135 H   0  0  0  0  0  0  0  0  0  0  0  0
  141.8593   75.5449  217.7665 H   0  0  0  0  0  0  0  0  0  0  0  0
  140.8426   73.1927  218.6336 H   0  0  0  0  0  0  0  0  0  0  0  0
  141.6529   71.0902  219.6846 H   0  0  0  0  0  0  0  0  0  0  0  0
  143.6783   71.1409  221.1116 H   0  0  0  0  0  0  0  0  0  0  0  0
  144.9080   73.2699  221.5056 H   0  0  0  0  0  0  0  0  0  0  0  0
  144.0639   75.3496  220.4415 H   0  0  0  0  0  0  0  0  0  0  0  0
  138.8489   69.7860  221.8648 H   0  0  0  0  0  0  0  0  0  0  0  0
  139.1619   68.1621  223.7697 H   0  0  0  0  0  0  0  0  0  0  0  0
  139.8891   67.7723  226.0482 H   0  0  0  0  0  0  0  0  0  0  0  0
  141.4676   70.9584  228.4272 H   0  0  0  0  0  0  0  0  0  0  0  0
  141.1488   72.5230  226.5417 H   0  0  0  0  0  0  0  0  0  0  0  0
  1  2  2  0
  2  3  1  0
  3  4  1  0
  4  5  1  0
  5  6  2  0
  5  7  1  0
  7  8  1  0
  8  9  1  0
  9 10  1  0
 10 11  1  0
 11 12  1  0
 12 13  1  0
 13 14  1  0
 14 15  2  0
 15 16  1  0
 16 17  2  0
 17 18  1  0
 18 19  2  0
  2 20  1  0
 20 21  2  0
 21 22  1  0
 22 23  2  0
 23 24  1  0
 24 25  2  0
 25 26  1  0
 25 27  1  0
 27 28  2  0
 28 29  1  0
 29 30  2  0
 13  7  1  0
 19 14  1  0
 30 20  1  0
 29 23  1  0
  3 31  1  0
  4 32  1  0
  4 33  1  0
  8 34  1  0
  8 35  1  0
  9 36  1  0
  9 37  1  0
 10 38  1  0
 10 39  1  0
 11 40  1  0
 11 41  1  0
 12 42  1  0
 12 43  1  0
 13 44  1  6
 15 45  1  0
 16 46  1  0
 17 47  1  0
 18 48  1  0
 19 49  1  0
 21 50  1  0
 22 51  1  0
 24 52  1  0
 27 53  1  0
 28 54  1  0
M  END
>  <smiles>  (88) 
O=C(NCC(=O)N1CCCCCC1c1ccccc1)c1ccc2cc(Cl)ccc2n1

>  <score_type>  (88) 
oracle

>  <origin>  (88) 
autodockgpu

>  <m_score__min__energy>  (88) 
-6.6299999999999999

>  <m_primary>  (88) 
energy

>  <rmsd>  (88) 
1.826107521114366

>  <m_score__min__rmsd>  (88) 
1.826107521114366

>  <meeko>  (88) 
{"free_energy": -5.34, "intermolecular_energy": -8.62, "internal_energy": -2.24, "cluster_size": 11, "cluster_id": 2, "rank_in_cluster": 9}

>  <energy>  (88) 
-4.7

>  <cluster_rmsd>  (88) 
0.52

>  <cluster>  (88) 
11

$$$$

     RDKit          3D

 54 57  0  0  0  0  0  0  0  0999 V2000
  139.4380   74.0160  220.1390 O   0  0  0  0  0  0  0  0  0  0  0  0
  139.9900   73.8980  221.2630 C   0  0  0  0  0  0  0  0  0  0  0  0
  140.8370   75.0010  221.6530 N   0  0  0  0  0  0  0  0  0  0  0  0
  141.0500   76.1460  220.8680 C   0  0  0  0  0  0  0  0  0  0  0  0
  140.8160   77.4790  221.3820 C   0  0  0  0  0  0  0  0  0  0  0  0
  140.6840   78.3730  220.4180 O   0  0  0  0  0  0  0  0  0  0  0  0
  140.7050   78.0110  222.6620 N   0  0  0  0  0  0  0  0  0  0  0  0
  141.8140   78.2670  223.5370 C   0  0  0  0  0  0  0  0  0  0  0  0
  142.0870   79.7020  223.8240 C   0  0  0  0  0  0  0  0  0  0  0  0
  141.2540   80.6390  222.9760 C   0  0  0  0  0  0  0  0  0  0  0  0
  139.8250   80.7070  223.4740 C   0  0  0  0  0  0  0  0  0  0  0  0
  138.9130   79.6990  222.8070 C   0  0  0  0  0  0  0  0  0  0  0  0
  139.3070   78.2870  223.0510 C   0  0  1  0  0  0  0  0  0  0  0  0
  138.3580   77.3820  222.3550 C   0  0  0  0  0  0  0  0  0  0  0  0
  137.7410   77.7270  221.1800 C   0  0  0  0  0  0  0  0  0  0  0  0
  136.8560   76.8610  220.5510 C   0  0  0  0  0  0  0  0  0  0  0  0
  136.6000   75.6310  221.1260 C   0  0  0  0  0  0  0  0  0  0  0  0
  137.2030   75.2460  222.3110 C   0  0  0  0  0  0  0  0  0  0  0  0
  138.0770   76.1360  222.9090 C   0  0  0  0  0  0  0  0  0  0  0  0
  139.8050   72.7390  222.1300 C   0  0  0  0  0  0  0  0  0  0  0  0
  138.8780   71.8020  221.7240 C   0  0  0  0  0  0  0  0  0  0  0  0
  138.6830   70.6800  222.5390 C   0  0  0  0  0  0  0  0  0  0  0  0
  139.4240   70.5530  223.7190 C   0  0  0  0  0  0  0  0  0  0  0  0
  139.2640   69.4630  224.5530 C   0  0  0  0  0  0  0  0  0  0  0  0
  139.9710   69.2950  225.7230 C   0  0  0  0  0  0  0  0  0  0  0  0
  139.7530   67.9030  226.7700 Cl  0  0  0  0  0  0  0  0  0  0  0  0
  140.8890   70.2960  226.0540 C   0  0  0  0  0  0  0  0  0  0  0  0
  141.0740   71.4010  225.2400 C   0  0  0  0  0  0  0  0  0  0  0  0
  140.3500   71.5390  224.0740 C   0  0  0  0  0  0  0  0  0  0  0  0
  140.5170   72.6070  223.2700 N   0  0  0  0  0  0  0  0  0  0  0  0
  141.2890   74.8620  222.6040 H   0  0  0  0  0  0  0  0  0  0  0  0
  142.1049   76.1156  220.5578 H   0  0  0  0  0  0  0  0  0  0  0  0
  140.2667   76.0515  220.1015 H   0  0  0  0  0  0  0  0  0  0  0  0
  141.6141   77.7623  224.4937 H   0  0  0  0  0  0  0  0  0  0  0  0
  142.7047   77.8894  223.0135 H   0  0  0  0  0  0  0  0  0  0  0  0
  141.8656   79.8967  224.8838 H   0  0  0  0  0  0  0  0  0  0  0  0
  143.1441   79.8918  223.5862 H   0  0  0  0  0  0  0  0  0  0  0  0
  141.6955   81.6458  223.0149 H   0  0  0  0  0  0  0  0  0  0  0  0
  141.2447   80.2582  221.9440 H   0  0  0  0  0  0  0  0  0  0  0  0
  139.8228   80.5173  224.5575 H   0  0  0  0  0  0  0  0  0  0  0  0
  139.4406   81.7082  223.2294 H   0  0  0  0  0  0  0  0  0  0  0  0
  137.8925   79.8464  223.1902 H   0  0  0  0  0  0  0  0  0  0  0  0
  138.9816   79.8701  221.7226 H   0  0  0  0  0  0  0  0  0  0  0  0
  139.2562   78.1013  224.1340 H   0  0  0  0  0  0  0  0  0  0  0  0
  137.9508   78.7074  220.7274 H   0  0  0  0  0  0  0  0  0  0  0  0
  136.3663   77.1499  219.6093 H   0  0  0  0  0  0  0  0  0  0  0  0
  135.9006   74.9416  220.6305 H   0  0  0  0  0  0  0  0  0  0  0  0
  136.9941   74.2648  222.7622 H   0  0  0  0  0  0  0  0  0  0  0  0
  138.5655   75.8502  223.8522 H   0  0  0  0  0  0  0  0  0  0  0  0
  138.3105   71.9317  220.7907 H   0  0  0  0  0  0  0  0  0  0  0  0
  137.9546   69.9064  222.2544 H   0  0  0  0  0  0  0  0  0  0  0  0
  138.5350   68.6902  224.2680 H   0  0  0  0  0  0  0  0  0  0  0  0
  141.4762   70.2041  226.9796 H   0  0  0  0  0  0  0  0  0  0  0  0
  141.8031   72.1737  225.5251 H   0  0  0  0  0  0  0  0  0  0  0  0
  1  2  2  0
  2  3  1  0
  3  4  1  0
  4  5  1  0
  5  6  2  0
  5  7  1  0
  7  8  1  0
  8  9  1  0
  9 10  1  0
 10 11  1  0
 11 12  1  0
 12 13  1  0
 13 14  1  0
 14 15  2  0
 15 16  1  0
 16 17  2  0
 17 18  1  0
 18 19  2  0
  2 20  1  0
 20 21  2  0
 21 22  1  0
 22 23  2  0
 23 24  1  0
 24 25  2  0
 25 26  1  0
 25 27  1  0
 27 28  2  0
 28 29  1  0
 29 30  2  0
 13  7  1  0
 19 14  1  0
 30 20  1  0
 29 23  1  0
  3 31  1  0
  4 32  1  0
  4 33  1  0
  8 34  1  0
  8 35  1  0
  9 36  1  0
  9 37  1  0
 10 38  1  0
 10 39  1  0
 11 40  1  0
 11 41  1  0
 12 42  1  0
 12 43  1  0
 13 44  1  1
 15 45  1  0
 16 46  1  0
 17 47  1  0
 18 48  1  0
 19 49  1  0
 21 50  1  0
 22 51  1  0
 24 52  1  0
 27 53  1  0
 28 54  1  0
M  END
>  <smiles>  (89) 
O=C(NCC(=O)N1CCCCCC1c1ccccc1)c1ccc2cc(Cl)ccc2n1

>  <score_type>  (89) 
oracle

>  <origin>  (89) 
autodockgpu

>  <m_score__min__energy>  (89) 
-6.6299999999999999

>  <m_primary>  (89) 
energy

>  <rmsd>  (89) 
4.368939162122957

>  <m_score__min__rmsd>  (89) 
4.368939162122957

>  <meeko>  (89) 
{"free_energy": -4.92, "intermolecular_energy": -8.2, "internal_energy": -2.5, "cluster_size": 5, "cluster_id": 5, "rank_in_cluster": 4}

>  <energy>  (89) 
-4.66

>  <cluster_rmsd>  (89) 
1.65

>  <cluster>  (89) 
11

$$$$

     RDKit          3D

 54 57  0  0  0  0  0  0  0  0999 V2000
  139.5410   73.8510  220.2040 O   0  0  0  0  0  0  0  0  0  0  0  0
  140.0680   73.8080  221.3450 C   0  0  0  0  0  0  0  0  0  0  0  0
  140.8770   74.9520  221.6960 N   0  0  0  0  0  0  0  0  0  0  0  0
  141.0810   76.0590  220.8550 C   0  0  0  0  0  0  0  0  0  0  0  0
  140.7250   77.4020  221.2610 C   0  0  0  0  0  0  0  0  0  0  0  0
  140.3500   78.1530  220.2400 O   0  0  0  0  0  0  0  0  0  0  0  0
  140.6990   78.0620  222.4850 N   0  0  0  0  0  0  0  0  0  0  0  0
  141.8580   78.5760  223.1590 C   0  0  0  0  0  0  0  0  0  0  0  0
  142.2160   79.9850  222.8380 C   0  0  0  0  0  0  0  0  0  0  0  0
  141.0020   80.8740  222.6640 C   0  0  0  0  0  0  0  0  0  0  0  0
  139.9260   80.5380  223.6760 C   0  0  0  0  0  0  0  0  0  0  0  0
  138.8770   79.5920  223.1340 C   0  0  0  0  0  0  0  0  0  0  0  0
  139.3370   78.1820  223.0440 C   0  0  1  0  0  0  0  0  0  0  0  0
  138.3540   77.3900  222.2620 C   0  0  0  0  0  0  0  0  0  0  0  0
  137.6890   77.9060  221.1800 C   0  0  0  0  0  0  0  0  0  0  0  0
  136.7740   77.1440  220.4670 C   0  0  0  0  0  0  0  0  0  0  0  0
  136.5360   75.8410  220.8620 C   0  0  0  0  0  0  0  0  0  0  0  0
  137.1880   75.2830  221.9490 C   0  0  0  0  0  0  0  0  0  0  0  0
  138.0920   76.0740  222.6340 C   0  0  0  0  0  0  0  0  0  0  0  0
  139.8890   72.6920  222.2700 C   0  0  0  0  0  0  0  0  0  0  0  0
  138.9860   71.7180  221.9000 C   0  0  0  0  0  0  0  0  0  0  0  0
  138.7980   70.6370  222.7690 C   0  0  0  0  0  0  0  0  0  0  0  0
  139.5220   70.5850  223.9660 C   0  0  0  0  0  0  0  0  0  0  0  0
  139.3680   69.5380  224.8530 C   0  0  0  0  0  0  0  0  0  0  0  0
  140.0590   69.4440  226.0410 C   0  0  0  0  0  0  0  0  0  0  0  0
  139.8480   68.1050  227.1550 Cl  0  0  0  0  0  0  0  0  0  0  0  0
  140.9530   70.4790  226.3320 C   0  0  0  0  0  0  0  0  0  0  0  0
  141.1310   71.5430  225.4640 C   0  0  0  0  0  0  0  0  0  0  0  0
  140.4240   71.6060  224.2820 C   0  0  0  0  0  0  0  0  0  0  0  0
  140.5850   72.6330  223.4260 N   0  0  0  0  0  0  0  0  0  0  0  0
  141.3080   74.8760  222.6630 H   0  0  0  0  0  0  0  0  0  0  0  0
  142.1571   76.0801  220.6280 H   0  0  0  0  0  0  0  0  0  0  0  0
  140.3689   75.8659  220.0392 H   0  0  0  0  0  0  0  0  0  0  0  0
  141.6764   78.5111  224.2420 H   0  0  0  0  0  0  0  0  0  0  0  0
  142.7039   77.9640  222.8128 H   0  0  0  0  0  0  0  0  0  0  0  0
  142.8312   80.3866  223.6567 H   0  0  0  0  0  0  0  0  0  0  0  0
  142.7616   79.9787  221.8828 H   0  0  0  0  0  0  0  0  0  0  0  0
  141.3040   81.9234  222.7967 H   0  0  0  0  0  0  0  0  0  0  0  0
  140.5938   80.7119  221.6555 H   0  0  0  0  0  0  0  0  0  0  0  0
  140.4016   80.0698  224.5504 H   0  0  0  0  0  0  0  0  0  0  0  0
  139.4170   81.4773  223.9381 H   0  0  0  0  0  0  0  0  0  0  0  0
  137.9993   79.6299  223.7960 H   0  0  0  0  0  0  0  0  0  0  0  0
  138.6437   79.9211  222.1106 H   0  0  0  0  0  0  0  0  0  0  0  0
  139.3969   77.7777  224.0652 H   0  0  0  0  0  0  0  0  0  0  0  0
  137.8842   78.9435  220.8711 H   0  0  0  0  0  0  0  0  0  0  0  0
  136.2464   77.5704  219.6010 H   0  0  0  0  0  0  0  0  0  0  0  0
  135.8118   75.2331  220.2999 H   0  0  0  0  0  0  0  0  0  0  0  0
  136.9932   74.2452  222.2572 H   0  0  0  0  0  0  0  0  0  0  0  0
  138.6210   75.6501  223.5003 H   0  0  0  0  0  0  0  0  0  0  0  0
  138.4313   71.7882  220.9527 H   0  0  0  0  0  0  0  0  0  0  0  0
  138.0883   69.8362  222.5139 H   0  0  0  0  0  0  0  0  0  0  0  0
  138.6572   68.7382  224.5979 H   0  0  0  0  0  0  0  0  0  0  0  0
  141.5268   70.4473  227.2700 H   0  0  0  0  0  0  0  0  0  0  0  0
  141.8412   72.3433  225.7192 H   0  0  0  0  0  0  0  0  0  0  0  0
  1  2  2  0
  2  3  1  0
  3  4  1  0
  4  5  1  0
  5  6  2  0
  5  7  1  0
  7  8  1  0
  8  9  1  0
  9 10  1  0
 10 11  1  0
 11 12  1  0
 12 13  1  0
 13 14  1  0
 14 15  2  0
 15 16  1  0
 16 17  2  0
 17 18  1  0
 18 19  2  0
  2 20  1  0
 20 21  2  0
 21 22  1  0
 22 23  2  0
 23 24  1  0
 24 25  2  0
 25 26  1  0
 25 27  1  0
 27 28  2  0
 28 29  1  0
 29 30  2  0
 13  7  1  0
 19 14  1  0
 30 20  1  0
 29 23  1  0
  3 31  1  0
  4 32  1  0
  4 33  1  0
  8 34  1  0
  8 35  1  0
  9 36  1  0
  9 37  1  0
 10 38  1  0
 10 39  1  0
 11 40  1  0
 11 41  1  0
 12 42  1  0
 12 43  1  0
 13 44  1  1
 15 45  1  0
 16 46  1  0
 17 47  1  0
 18 48  1  0
 19 49  1  0
 21 50  1  0
 22 51  1  0
 24 52  1  0
 27 53  1  0
 28 54  1  0
M  END
>  <smiles>  (90) 
O=C(NCC(=O)N1CCCCCC1c1ccccc1)c1ccc2cc(Cl)ccc2n1

>  <score_type>  (90) 
oracle

>  <origin>  (90) 
autodockgpu

>  <m_score__min__energy>  (90) 
-6.6299999999999999

>  <m_primary>  (90) 
energy

>  <rmsd>  (90) 
4.290175274839501

>  <m_score__min__rmsd>  (90) 
4.290175274839501

>  <meeko>  (90) 
{"free_energy": -5.11, "intermolecular_energy": -8.4, "internal_energy": -2.28, "cluster_size": 5, "cluster_id": 5, "rank_in_cluster": 2}

>  <energy>  (90) 
-5.01

>  <cluster_rmsd>  (90) 
0.0

>  <cluster>  (90) 
12

$$$$

     RDKit          3D

 54 57  0  0  0  0  0  0  0  0999 V2000
  140.3200   72.5310  220.7770 O   0  0  0  0  0  0  0  0  0  0  0  0
  139.8770   72.7700  221.9290 C   0  0  0  0  0  0  0  0  0  0  0  0
  139.2710   74.0700  222.1000 N   0  0  0  0  0  0  0  0  0  0  0  0
  139.1590   75.0260  221.0780 C   0  0  0  0  0  0  0  0  0  0  0  0
  140.2580   75.8970  220.7220 C   0  0  0  0  0  0  0  0  0  0  0  0
  141.4340   75.3140  220.8840 O   0  0  0  0  0  0  0  0  0  0  0  0
  140.3390   77.2040  220.2540 N   0  0  0  0  0  0  0  0  0  0  0  0
  139.2780   77.8930  219.5750 C   0  0  0  0  0  0  0  0  0  0  0  0
  139.2990   77.7990  218.0900 C   0  0  0  0  0  0  0  0  0  0  0  0
  140.4850   78.5110  217.4730 C   0  0  0  0  0  0  0  0  0  0  0  0
  141.7920   77.9670  218.0110 C   0  0  0  0  0  0  0  0  0  0  0  0
  142.1760   78.5770  219.3470 C   0  0  0  0  0  0  0  0  0  0  0  0
  141.6500   77.8300  220.5190 C   0  0  1  0  0  0  0  0  0  0  0  0
  141.5980   78.7310  221.6970 C   0  0  0  0  0  0  0  0  0  0  0  0
  140.7930   78.4810  222.7780 C   0  0  0  0  0  0  0  0  0  0  0  0
  140.7630   79.3410  223.8680 C   0  0  0  0  0  0  0  0  0  0  0  0
  141.5630   80.4680  223.8530 C   0  0  0  0  0  0  0  0  0  0  0  0
  142.3890   80.7560  222.7800 C   0  0  0  0  0  0  0  0  0  0  0  0
  142.3910   79.8750  221.7130 C   0  0  0  0  0  0  0  0  0  0  0  0
  139.9550   71.8170  223.0320 C   0  0  0  0  0  0  0  0  0  0  0  0
  139.4910   70.5420  222.7860 C   0  0  0  0  0  0  0  0  0  0  0  0
  139.5570   69.6100  223.8280 C   0  0  0  0  0  0  0  0  0  0  0  0
  140.0810   70.0000  225.0650 C   0  0  0  0  0  0  0  0  0  0  0  0
  140.1640   69.1140  226.1210 C   0  0  0  0  0  0  0  0  0  0  0  0
  140.6730   69.4530  227.3560 C   0  0  0  0  0  0  0  0  0  0  0  0
  140.7700   68.3120  228.6860 Cl  0  0  0  0  0  0  0  0  0  0  0  0
  141.1190   70.7690  227.5140 C   0  0  0  0  0  0  0  0  0  0  0  0
  141.0500   71.6820  226.4750 C   0  0  0  0  0  0  0  0  0  0  0  0
  140.5350   71.3100  225.2510 C   0  0  0  0  0  0  0  0  0  0  0  0
  140.4610   72.1850  224.2300 N   0  0  0  0  0  0  0  0  0  0  0  0
  138.9140   74.2360  223.0860 H   0  0  0  0  0  0  0  0  0  0  0  0
  138.8964   74.4718  220.1648 H   0  0  0  0  0  0  0  0  0  0  0  0
  138.4301   75.7331  221.5006 H   0  0  0  0  0  0  0  0  0  0  0  0
  138.3232   77.4756  219.9273 H   0  0  0  0  0  0  0  0  0  0  0  0
  139.4108   78.9590  219.8116 H   0  0  0  0  0  0  0  0  0  0  0  0
  139.3398   76.7372  217.8057 H   0  0  0  0  0  0  0  0  0  0  0  0
  138.3877   78.2875  217.7145 H   0  0  0  0  0  0  0  0  0  0  0  0
  140.4599   78.3706  216.3823 H   0  0  0  0  0  0  0  0  0  0  0  0
  140.4212   79.5790  217.7286 H   0  0  0  0  0  0  0  0  0  0  0  0
  141.6949   76.8785  218.1363 H   0  0  0  0  0  0  0  0  0  0  0  0
  142.5810   78.2252  217.2893 H   0  0  0  0  0  0  0  0  0  0  0  0
  143.2736   78.6011  219.4149 H   0  0  0  0  0  0  0  0  0  0  0  0
  141.7307   79.5823  219.3808 H   0  0  0  0  0  0  0  0  0  0  0  0
  142.3391   76.9990  220.7302 H   0  0  0  0  0  0  0  0  0  0  0  0
  140.1588   77.5822  222.7822 H   0  0  0  0  0  0  0  0  0  0  0  0
  140.1129   79.1287  224.7296 H   0  0  0  0  0  0  0  0  0  0  0  0
  141.5429   81.1523  224.7140 H   0  0  0  0  0  0  0  0  0  0  0  0
  143.0226   81.6552  222.7758 H   0  0  0  0  0  0  0  0  0  0  0  0
  143.0398   80.0853  220.8500 H   0  0  0  0  0  0  0  0  0  0  0  0
  139.0822   70.2664  221.8027 H   0  0  0  0  0  0  0  0  0  0  0  0
  139.2003   68.5807  223.6757 H   0  0  0  0  0  0  0  0  0  0  0  0
  139.8056   68.0853  225.9686 H   0  0  0  0  0  0  0  0  0  0  0  0
  141.5329   71.0852  228.4829 H   0  0  0  0  0  0  0  0  0  0  0  0
  141.4084   72.7108  226.6271 H   0  0  0  0  0  0  0  0  0  0  0  0
  1  2  2  0
  2  3  1  0
  3  4  1  0
  4  5  1  0
  5  6  2  0
  5  7  1  0
  7  8  1  0
  8  9  1  0
  9 10  1  0
 10 11  1  0
 11 12  1  0
 12 13  1  0
 13 14  1  0
 14 15  2  0
 15 16  1  0
 16 17  2  0
 17 18  1  0
 18 19  2  0
  2 20  1  0
 20 21  2  0
 21 22  1  0
 22 23  2  0
 23 24  1  0
 24 25  2  0
 25 26  1  0
 25 27  1  0
 27 28  2  0
 28 29  1  0
 29 30  2  0
 13  7  1  0
 19 14  1  0
 30 20  1  0
 29 23  1  0
  3 31  1  0
  4 32  1  0
  4 33  1  0
  8 34  1  0
  8 35  1  0
  9 36  1  0
  9 37  1  0
 10 38  1  0
 10 39  1  0
 11 40  1  0
 11 41  1  0
 12 42  1  0
 12 43  1  0
 13 44  1  1
 15 45  1  0
 16 46  1  0
 17 47  1  0
 18 48  1  0
 19 49  1  0
 21 50  1  0
 22 51  1  0
 24 52  1  0
 27 53  1  0
 28 54  1  0
M  END
>  <smiles>  (91) 
O=C(NCC(=O)N1CCCCCC1c1ccccc1)c1ccc2cc(Cl)ccc2n1

>  <score_type>  (91) 
oracle

>  <origin>  (91) 
autodockgpu

>  <m_score__min__energy>  (91) 
-6.6299999999999999

>  <m_primary>  (91) 
energy

>  <rmsd>  (91) 
1.9390604842828523

>  <m_score__min__rmsd>  (91) 
1.9390604842828523

>  <meeko>  (91) 
{"free_energy": -6.1, "intermolecular_energy": -9.38, "internal_energy": -1.57, "cluster_size": 7, "cluster_id": 1, "rank_in_cluster": 5}

>  <energy>  (91) 
-4.99

>  <cluster_rmsd>  (91) 
0.0

>  <cluster>  (91) 
13

$$$$

     RDKit          3D

 54 57  0  0  0  0  0  0  0  0999 V2000
  137.8970   78.2110  221.5530 O   0  0  0  0  0  0  0  0  0  0  0  0
  139.0020   78.2400  220.9540 C   0  0  0  0  0  0  0  0  0  0  0  0
  139.2880   79.4650  220.2450 N   0  0  0  0  0  0  0  0  0  0  0  0
  138.4250   80.5730  220.2080 C   0  0  0  0  0  0  0  0  0  0  0  0
  138.1230   81.3450  221.3930 C   0  0  0  0  0  0  0  0  0  0  0  0
  138.3880   82.6310  221.2370 O   0  0  0  0  0  0  0  0  0  0  0  0
  137.6200   81.0220  222.6500 N   0  0  0  0  0  0  0  0  0  0  0  0
  136.3030   80.5070  222.8930 C   0  0  0  0  0  0  0  0  0  0  0  0
  135.4090   81.3830  223.7000 C   0  0  0  0  0  0  0  0  0  0  0  0
  135.6050   81.2060  225.1910 C   0  0  0  0  0  0  0  0  0  0  0  0
  136.9820   81.6670  225.6230 C   0  0  0  0  0  0  0  0  0  0  0  0
  138.0950   80.8120  225.0600 C   0  0  0  0  0  0  0  0  0  0  0  0
  138.5880   81.2730  223.7370 C   0  0  1  0  0  0  0  0  0  0  0  0
  139.9030   80.6460  223.4540 C   0  0  0  0  0  0  0  0  0  0  0  0
  140.1830   79.3450  223.7840 C   0  0  0  0  0  0  0  0  0  0  0  0
  141.4230   78.7830  223.5080 C   0  0  0  0  0  0  0  0  0  0  0  0
  142.3850   79.5560  222.8880 C   0  0  0  0  0  0  0  0  0  0  0  0
  142.1410   80.8730  222.5380 C   0  0  0  0  0  0  0  0  0  0  0  0
  140.8950   81.3980  222.8300 C   0  0  0  0  0  0  0  0  0  0  0  0
  139.9460   77.1270  220.9590 C   0  0  0  0  0  0  0  0  0  0  0  0
  139.5530   75.9820  221.6190 C   0  0  0  0  0  0  0  0  0  0  0  0
  140.4410   74.9000  221.6380 C   0  0  0  0  0  0  0  0  0  0  0  0
  141.6790   75.0180  220.9950 C   0  0  0  0  0  0  0  0  0  0  0  0
  142.5860   73.9770  220.9880 C   0  0  0  0  0  0  0  0  0  0  0  0
  143.8150   74.0470  220.3700 C   0  0  0  0  0  0  0  0  0  0  0  0
  144.9540   72.7120  220.3720 Cl  0  0  0  0  0  0  0  0  0  0  0  0
  144.1280   75.2480  219.7260 C   0  0  0  0  0  0  0  0  0  0  0  0
  143.2410   76.3110  219.7130 C   0  0  0  0  0  0  0  0  0  0  0  0
  142.0180   76.2080  220.3420 C   0  0  0  0  0  0  0  0  0  0  0  0
  141.1430   77.2310  220.3410 N   0  0  0  0  0  0  0  0  0  0  0  0
  140.2260   79.4490  219.7480 H   0  0  0  0  0  0  0  0  0  0  0  0
  138.8582   81.2775  219.4828 H   0  0  0  0  0  0  0  0  0  0  0  0
  137.4555   80.1052  219.9818 H   0  0  0  0  0  0  0  0  0  0  0  0
  135.8210   80.3368  221.9190 H   0  0  0  0  0  0  0  0  0  0  0  0
  136.4424   79.5910  223.4859 H   0  0  0  0  0  0  0  0  0  0  0  0
  135.6163   82.4316  223.4402 H   0  0  0  0  0  0  0  0  0  0  0  0
  134.3713   81.1026  223.4665 H   0  0  0  0  0  0  0  0  0  0  0  0
  134.8456   81.7961  225.7249 H   0  0  0  0  0  0  0  0  0  0  0  0
  135.5056   80.1369  225.4301 H   0  0  0  0  0  0  0  0  0  0  0  0
  137.1282   82.7023  225.2813 H   0  0  0  0  0  0  0  0  0  0  0  0
  137.0272   81.5860  226.7191 H   0  0  0  0  0  0  0  0  0  0  0  0
  138.9363   80.8255  225.7686 H   0  0  0  0  0  0  0  0  0  0  0  0
  137.6846   79.8015  224.9170 H   0  0  0  0  0  0  0  0  0  0  0  0
  138.7105   82.3653  223.7804 H   0  0  0  0  0  0  0  0  0  0  0  0
  139.4114   78.7350  224.2764 H   0  0  0  0  0  0  0  0  0  0  0  0
  141.6355   77.7383  223.7791 H   0  0  0  0  0  0  0  0  0  0  0  0
  143.3682   79.1149  222.6671 H   0  0  0  0  0  0  0  0  0  0  0  0
  142.9125   81.4819  222.0440 H   0  0  0  0  0  0  0  0  0  0  0  0
  140.6810   82.4428  222.5607 H   0  0  0  0  0  0  0  0  0  0  0  0
  138.5730   75.9207  222.1148 H   0  0  0  0  0  0  0  0  0  0  0  0
  140.1689   73.9668  222.1528 H   0  0  0  0  0  0  0  0  0  0  0  0
  142.3131   73.0438  221.5024 H   0  0  0  0  0  0  0  0  0  0  0  0
  145.0990   75.3504  219.2193 H   0  0  0  0  0  0  0  0  0  0  0  0
  143.5135   77.2438  219.1976 H   0  0  0  0  0  0  0  0  0  0  0  0
  1  2  2  0
  2  3  1  0
  3  4  1  0
  4  5  1  0
  5  6  2  0
  5  7  1  0
  7  8  1  0
  8  9  1  0
  9 10  1  0
 10 11  1  0
 11 12  1  0
 12 13  1  0
 13 14  1  0
 14 15  2  0
 15 16  1  0
 16 17  2  0
 17 18  1  0
 18 19  2  0
  2 20  1  0
 20 21  2  0
 21 22  1  0
 22 23  2  0
 23 24  1  0
 24 25  2  0
 25 26  1  0
 25 27  1  0
 27 28  2  0
 28 29  1  0
 29 30  2  0
 13  7  1  0
 19 14  1  0
 30 20  1  0
 29 23  1  0
  3 31  1  0
  4 32  1  0
  4 33  1  0
  8 34  1  0
  8 35  1  0
  9 36  1  0
  9 37  1  0
 10 38  1  0
 10 39  1  0
 11 40  1  0
 11 41  1  0
 12 42  1  0
 12 43  1  0
 13 44  1  1
 15 45  1  0
 16 46  1  0
 17 47  1  0
 18 48  1  0
 19 49  1  0
 21 50  1  0
 22 51  1  0
 24 52  1  0
 27 53  1  0
 28 54  1  0
M  END
>  <smiles>  (92) 
O=C(NCC(=O)N1CCCCCC1c1ccccc1)c1ccc2cc(Cl)ccc2n1

>  <score_type>  (92) 
oracle

>  <origin>  (92) 
autodockgpu

>  <m_score__min__energy>  (92) 
-6.6299999999999999

>  <m_primary>  (92) 
energy

>  <rmsd>  (92) 
7.99995456083663

>  <m_score__min__rmsd>  (92) 
7.99995456083663

>  <meeko>  (92) 
{"free_energy": -4.4, "intermolecular_energy": -7.68, "internal_energy": -2.95, "cluster_size": 2, "cluster_id": 19, "rank_in_cluster": 1}

>  <energy>  (92) 
-4.61

>  <cluster_rmsd>  (92) 
0.74

>  <cluster>  (92) 
13

$$$$

     RDKit          3D

 54 57  0  0  0  0  0  0  0  0999 V2000
  138.8080   71.5410  220.6260 O   0  0  0  0  0  0  0  0  0  0  0  0
  138.5910   71.8990  221.8120 C   0  0  0  0  0  0  0  0  0  0  0  0
  137.9250   73.1720  221.9620 N   0  0  0  0  0  0  0  0  0  0  0  0
  137.5250   73.9810  220.8860 C   0  0  0  0  0  0  0  0  0  0  0  0
  138.4780   74.7360  220.1020 C   0  0  0  0  0  0  0  0  0  0  0  0
  138.6850   74.2020  218.9100 O   0  0  0  0  0  0  0  0  0  0  0  0
  139.2180   75.8910  220.3370 N   0  0  0  0  0  0  0  0  0  0  0  0
  139.2510   77.0290  219.4630 C   0  0  0  0  0  0  0  0  0  0  0  0
  140.6030   77.4350  218.9880 C   0  0  0  0  0  0  0  0  0  0  0  0
  141.6160   76.3120  219.0740 C   0  0  0  0  0  0  0  0  0  0  0  0
  142.2030   76.2070  220.4660 C   0  0  0  0  0  0  0  0  0  0  0  0
  141.3770   75.3390  221.3930 C   0  0  0  0  0  0  0  0  0  0  0  0
  139.9900   75.8330  221.5950 C   0  0  1  0  0  0  0  0  0  0  0  0
  140.0280   77.1520  222.2740 C   0  0  0  0  0  0  0  0  0  0  0  0
  141.1910   77.6970  222.7550 C   0  0  0  0  0  0  0  0  0  0  0  0
  141.1980   78.9330  223.3870 C   0  0  0  0  0  0  0  0  0  0  0  0
  140.0070   79.6200  223.5290 C   0  0  0  0  0  0  0  0  0  0  0  0
  138.8130   79.1030  223.0570 C   0  0  0  0  0  0  0  0  0  0  0  0
  138.8460   77.8690  222.4340 C   0  0  0  0  0  0  0  0  0  0  0  0
  138.9750   71.1020  222.9740 C   0  0  0  0  0  0  0  0  0  0  0  0
  138.6760   69.7560  222.9290 C   0  0  0  0  0  0  0  0  0  0  0  0
  139.0340   68.9700  224.0300 C   0  0  0  0  0  0  0  0  0  0  0  0
  139.6730   69.5700  225.1220 C   0  0  0  0  0  0  0  0  0  0  0  0
  140.0440   68.8330  226.2290 C   0  0  0  0  0  0  0  0  0  0  0  0
  140.6740   69.3790  227.3260 C   0  0  0  0  0  0  0  0  0  0  0  0
  141.1370   68.4250  228.7250 Cl  0  0  0  0  0  0  0  0  0  0  0  0
  140.9350   70.7520  227.2820 C   0  0  0  0  0  0  0  0  0  0  0  0
  140.5770   71.5190  226.1870 C   0  0  0  0  0  0  0  0  0  0  0  0
  139.9480   70.9410  225.1050 C   0  0  0  0  0  0  0  0  0  0  0  0
  139.5920   71.6720  224.0310 N   0  0  0  0  0  0  0  0  0  0  0  0
  137.7650   73.4410  222.9760 H   0  0  0  0  0  0  0  0  0  0  0  0
  137.0008   73.3193  220.1808 H   0  0  0  0  0  0  0  0  0  0  0  0
  136.9583   74.7766  221.3918 H   0  0  0  0  0  0  0  0  0  0  0  0
  138.6377   76.7959  218.5801 H   0  0  0  0  0  0  0  0  0  0  0  0
  138.8729   77.8752  220.0554 H   0  0  0  0  0  0  0  0  0  0  0  0
  140.5249   77.7586  217.9396 H   0  0  0  0  0  0  0  0  0  0  0  0
  140.9533   78.2483  219.6405 H   0  0  0  0  0  0  0  0  0  0  0  0
  141.1211   75.3627  218.8211 H   0  0  0  0  0  0  0  0  0  0  0  0
  142.4320   76.5252  218.3679 H   0  0  0  0  0  0  0  0  0  0  0  0
  143.2123   75.7763  220.3892 H   0  0  0  0  0  0  0  0  0  0  0  0
  142.2204   77.2206  220.8930 H   0  0  0  0  0  0  0  0  0  0  0  0
  141.3264   74.3260  220.9672 H   0  0  0  0  0  0  0  0  0  0  0  0
  141.8711   75.3567  222.3756 H   0  0  0  0  0  0  0  0  0  0  0  0
  139.4620   75.1121  222.2365 H   0  0  0  0  0  0  0  0  0  0  0  0
  142.1351   77.1448  222.6379 H   0  0  0  0  0  0  0  0  0  0  0  0
  142.1373   79.3593  223.7690 H   0  0  0  0  0  0  0  0  0  0  0  0
  140.0082   80.6000  224.0286 H   0  0  0  0  0  0  0  0  0  0  0  0
  137.8690   79.6555  223.1736 H   0  0  0  0  0  0  0  0  0  0  0  0
  137.9076   77.4402  222.0525 H   0  0  0  0  0  0  0  0  0  0  0  0
  138.1725   69.3150  222.0561 H   0  0  0  0  0  0  0  0  0  0  0  0
  138.8157   67.8919  224.0376 H   0  0  0  0  0  0  0  0  0  0  0  0
  139.8255   67.7549  226.2355 H   0  0  0  0  0  0  0  0  0  0  0  0
  141.4354   71.2326  228.1356 H   0  0  0  0  0  0  0  0  0  0  0  0
  140.7958   72.5970  226.1800 H   0  0  0  0  0  0  0  0  0  0  0  0
  1  2  2  0
  2  3  1  0
  3  4  1  0
  4  5  1  0
  5  6  2  0
  5  7  1  0
  7  8  1  0
  8  9  1  0
  9 10  1  0
 10 11  1  0
 11 12  1  0
 12 13  1  0
 13 14  1  0
 14 15  2  0
 15 16  1  0
 16 17  2  0
 17 18  1  0
 18 19  2  0
  2 20  1  0
 20 21  2  0
 21 22  1  0
 22 23  2  0
 23 24  1  0
 24 25  2  0
 25 26  1  0
 25 27  1  0
 27 28  2  0
 28 29  1  0
 29 30  2  0
 13  7  1  0
 19 14  1  0
 30 20  1  0
 29 23  1  0
  3 31  1  0
  4 32  1  0
  4 33  1  0
  8 34  1  0
  8 35  1  0
  9 36  1  0
  9 37  1  0
 10 38  1  0
 10 39  1  0
 11 40  1  0
 11 41  1  0
 12 42  1  0
 12 43  1  0
 13 44  1  1
 15 45  1  0
 16 46  1  0
 17 47  1  0
 18 48  1  0
 19 49  1  0
 21 50  1  0
 22 51  1  0
 24 52  1  0
 27 53  1  0
 28 54  1  0
M  END
>  <smiles>  (93) 
O=C(NCC(=O)N1CCCCCC1c1ccccc1)c1ccc2cc(Cl)ccc2n1

>  <score_type>  (93) 
oracle

>  <origin>  (93) 
autodockgpu

>  <m_score__min__energy>  (93) 
-6.6299999999999999

>  <m_primary>  (93) 
energy

>  <rmsd>  (93) 
1.944861042225433

>  <m_score__min__rmsd>  (93) 
1.944861042225433

>  <meeko>  (93) 
{"free_energy": -5.59, "intermolecular_energy": -8.87, "internal_energy": -1.64, "cluster_size": 7, "cluster_id": 1, "rank_in_cluster": 6}

>  <energy>  (93) 
-4.96

>  <cluster_rmsd>  (93) 
0.0

>  <cluster>  (93) 
14

$$$$

     RDKit          3D

 54 57  0  0  0  0  0  0  0  0999 V2000
  138.5950   70.8830  221.2720 O   0  0  0  0  0  0  0  0  0  0  0  0
  138.7780   71.6100  222.2820 C   0  0  0  0  0  0  0  0  0  0  0  0
  138.3500   72.9820  222.1410 N   0  0  0  0  0  0  0  0  0  0  0  0
  137.7590   73.5070  220.9800 C   0  0  0  0  0  0  0  0  0  0  0  0
  138.1530   74.7880  220.4350 C   0  0  0  0  0  0  0  0  0  0  0  0
  137.1210   75.4840  219.9890 O   0  0  0  0  0  0  0  0  0  0  0  0
  139.3750   75.4340  220.2810 N   0  0  0  0  0  0  0  0  0  0  0  0
  139.9030   75.8920  219.0270 C   0  0  0  0  0  0  0  0  0  0  0  0
  141.3030   75.4830  218.7320 C   0  0  0  0  0  0  0  0  0  0  0  0
  141.6400   74.1090  219.2730 C   0  0  0  0  0  0  0  0  0  0  0  0
  141.9890   74.1690  220.7460 C   0  0  0  0  0  0  0  0  0  0  0  0
  141.5730   75.4690  221.4000 C   0  0  0  0  0  0  0  0  0  0  0  0
  140.1010   75.6020  221.5570 C   0  0  1  0  0  0  0  0  0  0  0  0
  139.7880   76.9040  222.1970 C   0  0  0  0  0  0  0  0  0  0  0  0
  138.5050   77.2860  222.4950 C   0  0  0  0  0  0  0  0  0  0  0  0
  138.2390   78.5100  223.0940 C   0  0  0  0  0  0  0  0  0  0  0  0
  139.2930   79.3520  223.3920 C   0  0  0  0  0  0  0  0  0  0  0  0
  140.6020   79.0020  223.1070 C   0  0  0  0  0  0  0  0  0  0  0  0
  140.8270   77.7750  222.5100 C   0  0  0  0  0  0  0  0  0  0  0  0
  139.3790   71.1250  223.5210 C   0  0  0  0  0  0  0  0  0  0  0  0
  140.3400   71.9270  224.0990 C   0  0  0  0  0  0  0  0  0  0  0  0
  140.9310   71.4850  225.2890 C   0  0  0  0  0  0  0  0  0  0  0  0
  140.5320   70.2620  225.8400 C   0  0  0  0  0  0  0  0  0  0  0  0
  141.0880   69.7870  227.0110 C   0  0  0  0  0  0  0  0  0  0  0  0
  140.7260   68.5900  227.5900 C   0  0  0  0  0  0  0  0  0  0  0  0
  141.4450   68.0040  229.0800 Cl  0  0  0  0  0  0  0  0  0  0  0  0
  139.7440   67.8440  226.9320 C   0  0  0  0  0  0  0  0  0  0  0  0
  139.1660   68.2920  225.7560 C   0  0  0  0  0  0  0  0  0  0  0  0
  139.5500   69.4950  225.2030 C   0  0  0  0  0  0  0  0  0  0  0  0
  138.9990   69.9470  224.0600 N   0  0  0  0  0  0  0  0  0  0  0  0
  138.5260   73.5640  223.0110 H   0  0  0  0  0  0  0  0  0  0  0  0
  137.9311   72.7671  220.1845 H   0  0  0  0  0  0  0  0  0  0  0  0
  136.7285   73.7024  221.3116 H   0  0  0  0  0  0  0  0  0  0  0  0
  139.2597   75.5001  218.2254 H   0  0  0  0  0  0  0  0  0  0  0  0
  139.9166   76.9902  219.0888 H   0  0  0  0  0  0  0  0  0  0  0  0
  141.4444   75.4755  217.6411 H   0  0  0  0  0  0  0  0  0  0  0  0
  141.9698   76.2056  219.2252 H   0  0  0  0  0  0  0  0  0  0  0  0
  140.7719   73.4473  219.1369 H   0  0  0  0  0  0  0  0  0  0  0  0
  142.5122   73.7237  218.7245 H   0  0  0  0  0  0  0  0  0  0  0  0
  141.4815   73.3397  221.2605 H   0  0  0  0  0  0  0  0  0  0  0  0
  143.0834   74.0949  220.8281 H   0  0  0  0  0  0  0  0  0  0  0  0
  142.0369   75.5232  222.3959 H   0  0  0  0  0  0  0  0  0  0  0  0
  141.9063   76.2860  220.7432 H   0  0  0  0  0  0  0  0  0  0  0  0
  139.7524   74.7865  222.2078 H   0  0  0  0  0  0  0  0  0  0  0  0
  137.6711   76.6100  222.2550 H   0  0  0  0  0  0  0  0  0  0  0  0
  137.2053   78.8047  223.3276 H   0  0  0  0  0  0  0  0  0  0  0  0
  139.0876   80.3228  223.8666 H   0  0  0  0  0  0  0  0  0  0  0  0
  141.4358   79.6779  223.3476 H   0  0  0  0  0  0  0  0  0  0  0  0
  141.8599   77.4783  222.2752 H   0  0  0  0  0  0  0  0  0  0  0  0
  140.6329   72.8829  223.6403 H   0  0  0  0  0  0  0  0  0  0  0  0
  141.7013   72.0931  225.7858 H   0  0  0  0  0  0  0  0  0  0  0  0
  141.8591   70.3948  227.5070 H   0  0  0  0  0  0  0  0  0  0  0  0
  139.4237   66.8813  227.3570 H   0  0  0  0  0  0  0  0  0  0  0  0
  138.3953   67.6839  225.2598 H   0  0  0  0  0  0  0  0  0  0  0  0
  1  2  2  0
  2  3  1  0
  3  4  1  0
  4  5  1  0
  5  6  2  0
  5  7  1  0
  7  8  1  0
  8  9  1  0
  9 10  1  0
 10 11  1  0
 11 12  1  0
 12 13  1  0
 13 14  1  0
 14 15  2  0
 15 16  1  0
 16 17  2  0
 17 18  1  0
 18 19  2  0
  2 20  1  0
 20 21  2  0
 21 22  1  0
 22 23  2  0
 23 24  1  0
 24 25  2  0
 25 26  1  0
 25 27  1  0
 27 28  2  0
 28 29  1  0
 29 30  2  0
 13  7  1  0
 19 14  1  0
 30 20  1  0
 29 23  1  0
  3 31  1  0
  4 32  1  0
  4 33  1  0
  8 34  1  0
  8 35  1  0
  9 36  1  0
  9 37  1  0
 10 38  1  0
 10 39  1  0
 11 40  1  0
 11 41  1  0
 12 42  1  0
 12 43  1  0
 13 44  1  1
 15 45  1  0
 16 46  1  0
 17 47  1  0
 18 48  1  0
 19 49  1  0
 21 50  1  0
 22 51  1  0
 24 52  1  0
 27 53  1  0
 28 54  1  0
M  END
>  <smiles>  (94) 
O=C(NCC(=O)N1CCCCCC1c1ccccc1)c1ccc2cc(Cl)ccc2n1

>  <score_type>  (94) 
oracle

>  <origin>  (94) 
autodockgpu

>  <m_score__min__energy>  (94) 
-6.6299999999999999

>  <m_primary>  (94) 
energy

>  <rmsd>  (94) 
2.739217491005503

>  <m_score__min__rmsd>  (94) 
2.739217491005503

>  <meeko>  (94) 
{"free_energy": -5.12, "intermolecular_energy": -8.41, "internal_energy": -1.85, "cluster_size": 2, "cluster_id": 10, "rank_in_cluster": 1}

>  <energy>  (94) 
-4.77

>  <cluster_rmsd>  (94) 
0.0

>  <cluster>  (94) 
15

$$$$

     RDKit          3D

 54 57  0  0  0  0  0  0  0  0999 V2000
  139.5360   73.5790  220.2060 O   0  0  0  0  0  0  0  0  0  0  0  0
  139.2220   74.3520  221.1470 C   0  0  0  0  0  0  0  0  0  0  0  0
  138.1290   73.9030  221.9780 N   0  0  0  0  0  0  0  0  0  0  0  0
  137.4440   72.6910  221.7880 C   0  0  0  0  0  0  0  0  0  0  0  0
  137.4770   71.6330  222.7750 C   0  0  0  0  0  0  0  0  0  0  0  0
  136.3360   71.5220  223.4330 O   0  0  0  0  0  0  0  0  0  0  0  0
  138.4480   70.7200  223.1730 N   0  0  0  0  0  0  0  0  0  0  0  0
  139.7080   70.5290  222.5130 C   0  0  0  0  0  0  0  0  0  0  0  0
  139.7310   69.4680  221.4680 C   0  0  0  0  0  0  0  0  0  0  0  0
  138.6950   68.3890  221.7050 C   0  0  0  0  0  0  0  0  0  0  0  0
  138.7560   67.8710  223.1270 C   0  0  0  0  0  0  0  0  0  0  0  0
  137.7390   68.5230  224.0410 C   0  0  0  0  0  0  0  0  0  0  0  0
  138.0490   69.9400  224.3630 C   0  0  1  0  0  0  0  0  0  0  0  0
  139.0860   69.9920  225.4230 C   0  0  0  0  0  0  0  0  0  0  0  0
  139.3280   68.9380  226.2660 C   0  0  0  0  0  0  0  0  0  0  0  0
  140.3050   69.0120  227.2500 C   0  0  0  0  0  0  0  0  0  0  0  0
  141.0420   70.1750  227.3750 C   0  0  0  0  0  0  0  0  0  0  0  0
  140.8280   71.2600  226.5430 C   0  0  0  0  0  0  0  0  0  0  0  0
  139.8460   71.1480  225.5750 C   0  0  0  0  0  0  0  0  0  0  0  0
  139.8980   75.6210  221.4020 C   0  0  0  0  0  0  0  0  0  0  0  0
  141.0520   75.8630  220.6880 C   0  0  0  0  0  0  0  0  0  0  0  0
  141.7190   77.0730  220.9150 C   0  0  0  0  0  0  0  0  0  0  0  0
  141.1970   77.9800  221.8450 C   0  0  0  0  0  0  0  0  0  0  0  0
  141.8220   79.1850  222.1010 C   0  0  0  0  0  0  0  0  0  0  0  0
  141.3460   80.1070  223.0060 C   0  0  0  0  0  0  0  0  0  0  0  0
  142.1540   81.6340  223.3170 Cl  0  0  0  0  0  0  0  0  0  0  0  0
  140.1690   79.7750  223.6830 C   0  0  0  0  0  0  0  0  0  0  0  0
  139.5180   78.5750  223.4500 C   0  0  0  0  0  0  0  0  0  0  0  0
  140.0210   77.6730  222.5360 C   0  0  0  0  0  0  0  0  0  0  0  0
  139.4010   76.5020  222.2970 N   0  0  0  0  0  0  0  0  0  0  0  0
  137.8900   74.5850  222.7560 H   0  0  0  0  0  0  0  0  0  0  0  0
  136.3844   72.9532  221.6518 H   0  0  0  0  0  0  0  0  0  0  0  0
  137.9933   72.2423  220.9472 H   0  0  0  0  0  0  0  0  0  0  0  0
  139.9883   71.4799  222.0364 H   0  0  0  0  0  0  0  0  0  0  0  0
  140.4101   70.1994  223.2930 H   0  0  0  0  0  0  0  0  0  0  0  0
  139.5367   69.9332  220.4903 H   0  0  0  0  0  0  0  0  0  0  0  0
  140.7212   68.9901  221.5027 H   0  0  0  0  0  0  0  0  0  0  0  0
  137.6943   68.8057  221.5179 H   0  0  0  0  0  0  0  0  0  0  0  0
  138.9020   67.5525  221.0214 H   0  0  0  0  0  0  0  0  0  0  0  0
  138.5699   66.7869  223.1130 H   0  0  0  0  0  0  0  0  0  0  0  0
  139.7540   68.1125  223.5216 H   0  0  0  0  0  0  0  0  0  0  0  0
  136.7556   68.4854  223.5496 H   0  0  0  0  0  0  0  0  0  0  0  0
  137.7549   67.9663  224.9896 H   0  0  0  0  0  0  0  0  0  0  0  0
  137.1285   70.4132  224.7355 H   0  0  0  0  0  0  0  0  0  0  0  0
  138.7369   68.0163  226.1608 H   0  0  0  0  0  0  0  0  0  0  0  0
  140.4896   68.1589  227.9194 H   0  0  0  0  0  0  0  0  0  0  0  0
  141.8163   70.2394  228.1537 H   0  0  0  0  0  0  0  0  0  0  0  0
  141.4195   72.1815  226.6480 H   0  0  0  0  0  0  0  0  0  0  0  0
  139.6599   71.9997  224.9041 H   0  0  0  0  0  0  0  0  0  0  0  0
  141.4363   75.1297  219.9637 H   0  0  0  0  0  0  0  0  0  0  0  0
  142.6439   77.3086  220.3681 H   0  0  0  0  0  0  0  0  0  0  0  0
  142.7470   79.4199  221.5540 H   0  0  0  0  0  0  0  0  0  0  0  0
  139.7513   80.4812  224.4157 H   0  0  0  0  0  0  0  0  0  0  0  0
  138.5935   78.3397  223.9977 H   0  0  0  0  0  0  0  0  0  0  0  0
  1  2  2  0
  2  3  1  0
  3  4  1  0
  4  5  1  0
  5  6  2  0
  5  7  1  0
  7  8  1  0
  8  9  1  0
  9 10  1  0
 10 11  1  0
 11 12  1  0
 12 13  1  0
 13 14  1  0
 14 15  2  0
 15 16  1  0
 16 17  2  0
 17 18  1  0
 18 19  2  0
  2 20  1  0
 20 21  2  0
 21 22  1  0
 22 23  2  0
 23 24  1  0
 24 25  2  0
 25 26  1  0
 25 27  1  0
 27 28  2  0
 28 29  1  0
 29 30  2  0
 13  7  1  0
 19 14  1  0
 30 20  1  0
 29 23  1  0
  3 31  1  0
  4 32  1  0
  4 33  1  0
  8 34  1  0
  8 35  1  0
  9 36  1  0
  9 37  1  0
 10 38  1  0
 10 39  1  0
 11 40  1  0
 11 41  1  0
 12 42  1  0
 12 43  1  0
 13 44  1  1
 15 45  1  0
 16 46  1  0
 17 47  1  0
 18 48  1  0
 19 49  1  0
 21 50  1  0
 22 51  1  0
 24 52  1  0
 27 53  1  0
 28 54  1  0
M  END
>  <smiles>  (95) 
O=C(NCC(=O)N1CCCCCC1c1ccccc1)c1ccc2cc(Cl)ccc2n1

>  <score_type>  (95) 
oracle

>  <origin>  (95) 
autodockgpu

>  <m_score__min__energy>  (95) 
-6.6299999999999999

>  <m_primary>  (95) 
energy

>  <rmsd>  (95) 
7.974935638376245

>  <m_score__min__rmsd>  (95) 
7.974935638376245

>  <meeko>  (95) 
{"free_energy": -5.21, "intermolecular_energy": -8.49, "internal_energy": -1.9, "cluster_size": 1, "cluster_id": 8, "rank_in_cluster": 1}

>  <energy>  (95) 
-4.57

>  <cluster_rmsd>  (95) 
1.22

>  <cluster>  (95) 
15

$$$$

     RDKit          3D

 54 57  0  0  0  0  0  0  0  0999 V2000
  134.6370   68.6160  225.0880 O   0  0  0  0  0  0  0  0  0  0  0  0
  135.0780   69.7930  225.1340 C   0  0  0  0  0  0  0  0  0  0  0  0
  136.3810   69.9890  224.5410 N   0  0  0  0  0  0  0  0  0  0  0  0
  137.1320   68.9660  223.9380 C   0  0  0  0  0  0  0  0  0  0  0  0
  138.5360   68.7760  224.2310 C   0  0  0  0  0  0  0  0  0  0  0  0
  139.1310   67.9880  223.3520 O   0  0  0  0  0  0  0  0  0  0  0  0
  139.3810   69.2400  225.2330 N   0  0  0  0  0  0  0  0  0  0  0  0
  140.1250   68.3980  226.1270 C   0  0  0  0  0  0  0  0  0  0  0  0
  139.8310   68.5810  227.5750 C   0  0  0  0  0  0  0  0  0  0  0  0
  139.3790   69.9870  227.9090 C   0  0  0  0  0  0  0  0  0  0  0  0
  140.4490   71.0030  227.5690 C   0  0  0  0  0  0  0  0  0  0  0  0
  140.5990   71.2080  226.0840 C   0  0  0  0  0  0  0  0  0  0  0  0
  139.4370   70.7150  225.3000 C   0  0  1  0  0  0  0  0  0  0  0  0
  139.4590   71.3230  223.9460 C   0  0  0  0  0  0  0  0  0  0  0  0
  138.3250   71.7850  223.3300 C   0  0  0  0  0  0  0  0  0  0  0  0
  138.3730   72.3490  222.0630 C   0  0  0  0  0  0  0  0  0  0  0  0
  139.5920   72.4430  221.4180 C   0  0  0  0  0  0  0  0  0  0  0  0
  140.7600   71.9880  222.0070 C   0  0  0  0  0  0  0  0  0  0  0  0
  140.6710   71.4320  223.2700 C   0  0  0  0  0  0  0  0  0  0  0  0
  134.3450   70.9010  225.7390 C   0  0  0  0  0  0  0  0  0  0  0  0
  133.3290   70.5710  226.6110 C   0  0  0  0  0  0  0  0  0  0  0  0
  132.6120   71.6160  227.2050 C   0  0  0  0  0  0  0  0  0  0  0  0
  132.9460   72.9400  226.8960 C   0  0  0  0  0  0  0  0  0  0  0  0
  132.2650   74.0020  227.4580 C   0  0  0  0  0  0  0  0  0  0  0  0
  132.5590   75.3190  227.1840 C   0  0  0  0  0  0  0  0  0  0  0  0
  131.6820   76.6550  227.9090 Cl  0  0  0  0  0  0  0  0  0  0  0  0
  133.6050   75.5580  226.2880 C   0  0  0  0  0  0  0  0  0  0  0  0
  134.3080   74.5160  225.7070 C   0  0  0  0  0  0  0  0  0  0  0  0
  133.9890   73.2070  226.0030 C   0  0  0  0  0  0  0  0  0  0  0  0
  134.6620   72.1820  225.4480 N   0  0  0  0  0  0  0  0  0  0  0  0
  136.7200   70.9920  224.6040 H   0  0  0  0  0  0  0  0  0  0  0  0
  136.6318   68.0215  224.1981 H   0  0  0  0  0  0  0  0  0  0  0  0
  137.1548   69.2837  222.8851 H   0  0  0  0  0  0  0  0  0  0  0  0
  139.9072   67.3517  225.8668 H   0  0  0  0  0  0  0  0  0  0  0  0
  141.1808   68.6776  225.9960 H   0  0  0  0  0  0  0  0  0  0  0  0
  139.0355   67.8782  227.8636 H   0  0  0  0  0  0  0  0  0  0  0  0
  140.7627   68.3925  228.1285 H   0  0  0  0  0  0  0  0  0  0  0  0
  138.4700   70.2175  227.3340 H   0  0  0  0  0  0  0  0  0  0  0  0
  139.1794   70.0406  228.9894 H   0  0  0  0  0  0  0  0  0  0  0  0
  140.1827   71.9643  228.0327 H   0  0  0  0  0  0  0  0  0  0  0  0
  141.4067   70.6207  227.9520 H   0  0  0  0  0  0  0  0  0  0  0  0
  140.7186   72.2843  225.8909 H   0  0  0  0  0  0  0  0  0  0  0  0
  141.4769   70.6280  225.7631 H   0  0  0  0  0  0  0  0  0  0  0  0
  138.5189   71.0258  225.8201 H   0  0  0  0  0  0  0  0  0  0  0  0
  137.3587   71.7072  223.8498 H   0  0  0  0  0  0  0  0  0  0  0  0
  137.4554   72.7155  221.5795 H   0  0  0  0  0  0  0  0  0  0  0  0
  139.6354   72.8895  220.4136 H   0  0  0  0  0  0  0  0  0  0  0  0
  141.7264   72.0663  221.4874 H   0  0  0  0  0  0  0  0  0  0  0  0
  141.5868   71.0643  223.7558 H   0  0  0  0  0  0  0  0  0  0  0  0
  133.0898   69.5204  226.8326 H   0  0  0  0  0  0  0  0  0  0  0  0
  131.7940   71.3991  227.9078 H   0  0  0  0  0  0  0  0  0  0  0  0
  131.4464   73.7848  228.1599 H   0  0  0  0  0  0  0  0  0  0  0  0
  133.8752   76.5949  226.0394 H   0  0  0  0  0  0  0  0  0  0  0  0
  135.1263   74.7335  225.0048 H   0  0  0  0  0  0  0  0  0  0  0  0
  1  2  2  0
  2  3  1  0
  3  4  1  0
  4  5  1  0
  5  6  2  0
  5  7  1  0
  7  8  1  0
  8  9  1  0
  9 10  1  0
 10 11  1  0
 11 12  1  0
 12 13  1  0
 13 14  1  0
 14 15  2  0
 15 16  1  0
 16 17  2  0
 17 18  1  0
 18 19  2  0
  2 20  1  0
 20 21  2  0
 21 22  1  0
 22 23  2  0
 23 24  1  0
 24 25  2  0
 25 26  1  0
 25 27  1  0
 27 28  2  0
 28 29  1  0
 29 30  2  0
 13  7  1  0
 19 14  1  0
 30 20  1  0
 29 23  1  0
  3 31  1  0
  4 32  1  0
  4 33  1  0
  8 34  1  0
  8 35  1  0
  9 36  1  0
  9 37  1  0
 10 38  1  0
 10 39  1  0
 11 40  1  0
 11 41  1  0
 12 42  1  0
 12 43  1  0
 13 44  1  1
 15 45  1  0
 16 46  1  0
 17 47  1  0
 18 48  1  0
 19 49  1  0
 21 50  1  0
 22 51  1  0
 24 52  1  0
 27 53  1  0
 28 54  1  0
M  END
>  <smiles>  (96) 
O=C(NCC(=O)N1CCCCCC1c1ccccc1)c1ccc2cc(Cl)ccc2n1

>  <score_type>  (96) 
oracle

>  <origin>  (96) 
autodockgpu

>  <m_score__min__energy>  (96) 
-6.6299999999999999

>  <m_primary>  (96) 
energy

>  <rmsd>  (96) 
8.389918145844009

>  <m_score__min__rmsd>  (96) 
8.389918145844009

>  <meeko>  (96) 
{"free_energy": -5.18, "intermolecular_energy": -8.46, "internal_energy": -1.96, "cluster_size": 1, "cluster_id": 9, "rank_in_cluster": 1}

>  <energy>  (96) 
-4.54

>  <cluster_rmsd>  (96) 
0.0

>  <cluster>  (96) 
16

$$$$

     RDKit          3D

 54 57  0  0  0  0  0  0  0  0999 V2000
  139.3110   73.3630  220.3150 O   0  0  0  0  0  0  0  0  0  0  0  0
  139.3640   73.4560  221.5670 C   0  0  0  0  0  0  0  0  0  0  0  0
  139.3010   74.8020  222.0900 N   0  0  0  0  0  0  0  0  0  0  0  0
  139.1820   75.9510  221.2910 C   0  0  0  0  0  0  0  0  0  0  0  0
  139.3210   77.2820  221.8420 C   0  0  0  0  0  0  0  0  0  0  0  0
  138.1590   77.8040  222.1950 O   0  0  0  0  0  0  0  0  0  0  0  0
  140.4080   78.1190  222.0730 N   0  0  0  0  0  0  0  0  0  0  0  0
  141.3800   77.9240  223.1120 C   0  0  0  0  0  0  0  0  0  0  0  0
  141.4080   78.9720  224.1690 C   0  0  0  0  0  0  0  0  0  0  0  0
  142.3370   80.1200  223.8330 C   0  0  0  0  0  0  0  0  0  0  0  0
  142.3370   80.4100  222.3460 C   0  0  0  0  0  0  0  0  0  0  0  0
  140.9390   80.5090  221.7810 C   0  0  0  0  0  0  0  0  0  0  0  0
  140.4660   79.2580  221.1350 C   0  0  1  0  0  0  0  0  0  0  0  0
  141.3200   78.9550  219.9590 C   0  0  0  0  0  0  0  0  0  0  0  0
  141.8350   77.7050  219.7290 C   0  0  0  0  0  0  0  0  0  0  0  0
  142.6320   77.4480  218.6210 C   0  0  0  0  0  0  0  0  0  0  0  0
  142.9050   78.4770  217.7400 C   0  0  0  0  0  0  0  0  0  0  0  0
  142.4030   79.7520  217.9380 C   0  0  0  0  0  0  0  0  0  0  0  0
  141.6140   79.9690  219.0530 C   0  0  0  0  0  0  0  0  0  0  0  0
  139.4800   72.3030  222.4540 C   0  0  0  0  0  0  0  0  0  0  0  0
  138.8600   71.1410  222.0450 C   0  0  0  0  0  0  0  0  0  0  0  0
  138.9580   70.0190  222.8770 C   0  0  0  0  0  0  0  0  0  0  0  0
  139.6700   70.1170  224.0780 C   0  0  0  0  0  0  0  0  0  0  0  0
  139.7910   69.0370  224.9300 C   0  0  0  0  0  0  0  0  0  0  0  0
  140.4820   69.0860  226.1210 C   0  0  0  0  0  0  0  0  0  0  0  0
  140.6250   67.7020  227.1910 Cl  0  0  0  0  0  0  0  0  0  0  0  0
  141.0770   70.3060  226.4540 C   0  0  0  0  0  0  0  0  0  0  0  0
  140.9740   71.4080  225.6220 C   0  0  0  0  0  0  0  0  0  0  0  0
  140.2760   71.3260  224.4360 C   0  0  0  0  0  0  0  0  0  0  0  0
  140.1660   72.3870  223.6150 N   0  0  0  0  0  0  0  0  0  0  0  0
  139.3540   74.8400  223.1500 H   0  0  0  0  0  0  0  0  0  0  0  0
  139.9464   75.8609  220.5051 H   0  0  0  0  0  0  0  0  0  0  0  0
  138.1199   75.9270  221.0058 H   0  0  0  0  0  0  0  0  0  0  0  0
  141.1689   76.9594  223.5968 H   0  0  0  0  0  0  0  0  0  0  0  0
  142.3621   77.9669  222.6184 H   0  0  0  0  0  0  0  0  0  0  0  0
  140.3903   79.3694  224.2969 H   0  0  0  0  0  0  0  0  0  0  0  0
  141.7817   78.5026  225.0909 H   0  0  0  0  0  0  0  0  0  0  0  0
  142.0060   81.0190  224.3735 H   0  0  0  0  0  0  0  0  0  0  0  0
  143.3578   79.8401  224.1325 H   0  0  0  0  0  0  0  0  0  0  0  0
  142.8574   81.3633  222.1715 H   0  0  0  0  0  0  0  0  0  0  0  0
  142.8460   79.5761  221.8405 H   0  0  0  0  0  0  0  0  0  0  0  0
  140.2498   80.7583  222.6013 H   0  0  0  0  0  0  0  0  0  0  0  0
  140.9616   81.2847  221.0014 H   0  0  0  0  0  0  0  0  0  0  0  0
  139.4313   79.4193  220.7983 H   0  0  0  0  0  0  0  0  0  0  0  0
  141.6128   76.8911  220.4349 H   0  0  0  0  0  0  0  0  0  0  0  0
  143.0395   76.4411  218.4475 H   0  0  0  0  0  0  0  0  0  0  0  0
  143.5358   78.2785  216.8610 H   0  0  0  0  0  0  0  0  0  0  0  0
  142.6244   80.5657  217.2317 H   0  0  0  0  0  0  0  0  0  0  0  0
  141.2060   80.9753  219.2290 H   0  0  0  0  0  0  0  0  0  0  0  0
  138.3062   71.0970  221.0956 H   0  0  0  0  0  0  0  0  0  0  0  0
  138.4804   69.0706  222.5897 H   0  0  0  0  0  0  0  0  0  0  0  0
  139.3114   68.0895  224.6433 H   0  0  0  0  0  0  0  0  0  0  0  0
  141.6384   70.3925  227.3960 H   0  0  0  0  0  0  0  0  0  0  0  0
  141.4526   72.3558  225.9094 H   0  0  0  0  0  0  0  0  0  0  0  0
  1  2  2  0
  2  3  1  0
  3  4  1  0
  4  5  1  0
  5  6  2  0
  5  7  1  0
  7  8  1  0
  8  9  1  0
  9 10  1  0
 10 11  1  0
 11 12  1  0
 12 13  1  0
 13 14  1  0
 14 15  2  0
 15 16  1  0
 16 17  2  0
 17 18  1  0
 18 19  2  0
  2 20  1  0
 20 21  2  0
 21 22  1  0
 22 23  2  0
 23 24  1  0
 24 25  2  0
 25 26  1  0
 25 27  1  0
 27 28  2  0
 28 29  1  0
 29 30  2  0
 13  7  1  0
 19 14  1  0
 30 20  1  0
 29 23  1  0
  3 31  1  0
  4 32  1  0
  4 33  1  0
  8 34  1  0
  8 35  1  0
  9 36  1  0
  9 37  1  0
 10 38  1  0
 10 39  1  0
 11 40  1  0
 11 41  1  0
 12 42  1  0
 12 43  1  0
 13 44  1  6
 15 45  1  0
 16 46  1  0
 17 47  1  0
 18 48  1  0
 19 49  1  0
 21 50  1  0
 22 51  1  0
 24 52  1  0
 27 53  1  0
 28 54  1  0
M  END
>  <smiles>  (97) 
O=C(NCC(=O)N1CCCCCC1c1ccccc1)c1ccc2cc(Cl)ccc2n1

>  <score_type>  (97) 
oracle

>  <origin>  (97) 
autodockgpu

>  <m_score__min__energy>  (97) 
-6.6299999999999999

>  <m_primary>  (97) 
energy

>  <rmsd>  (97) 
3.7935905569635784

>  <m_score__min__rmsd>  (97) 
3.7935905569635784

>  <meeko>  (97) 
{"free_energy": -5.8, "intermolecular_energy": -9.08, "internal_energy": -1.67, "cluster_size": 2, "cluster_id": 4, "rank_in_cluster": 1}

>  <energy>  (97) 
-4.47

>  <cluster_rmsd>  (97) 
0.0

>  <cluster>  (97) 
17

$$$$

     RDKit          3D

 54 57  0  0  0  0  0  0  0  0999 V2000
  140.0100   72.4970  220.6750 O   0  0  0  0  0  0  0  0  0  0  0  0
  139.6460   72.7850  221.8430 C   0  0  0  0  0  0  0  0  0  0  0  0
  139.1070   74.1150  222.0120 N   0  0  0  0  0  0  0  0  0  0  0  0
  138.9750   75.0480  220.9710 C   0  0  0  0  0  0  0  0  0  0  0  0
  139.3350   76.4390  221.1420 C   0  0  0  0  0  0  0  0  0  0  0  0
  139.3080   77.1090  220.0030 O   0  0  0  0  0  0  0  0  0  0  0  0
  139.7020   77.2100  222.2400 N   0  0  0  0  0  0  0  0  0  0  0  0
  141.0420   77.3300  222.7400 C   0  0  0  0  0  0  0  0  0  0  0  0
  141.3970   78.6580  223.3140 C   0  0  0  0  0  0  0  0  0  0  0  0
  140.8860   79.8130  222.4790 C   0  0  0  0  0  0  0  0  0  0  0  0
  139.4960   80.2320  222.9120 C   0  0  0  0  0  0  0  0  0  0  0  0
  138.4140   79.3080  222.3970 C   0  0  0  0  0  0  0  0  0  0  0  0
  138.5570   77.9040  222.8630 C   0  0  1  0  0  0  0  0  0  0  0  0
  137.2840   77.1750  222.6320 C   0  0  0  0  0  0  0  0  0  0  0  0
  136.9160   76.0850  223.3790 C   0  0  0  0  0  0  0  0  0  0  0  0
  135.7200   75.4210  223.1410 C   0  0  0  0  0  0  0  0  0  0  0  0
  134.8920   75.8740  222.1320 C   0  0  0  0  0  0  0  0  0  0  0  0
  135.2280   76.9710  221.3570 C   0  0  0  0  0  0  0  0  0  0  0  0
  136.4270   77.6050  221.6230 C   0  0  0  0  0  0  0  0  0  0  0  0
  139.7500   71.8590  222.9670 C   0  0  0  0  0  0  0  0  0  0  0  0
  139.2970   70.5740  222.7560 C   0  0  0  0  0  0  0  0  0  0  0  0
  139.3860   69.6670  223.8190 C   0  0  0  0  0  0  0  0  0  0  0  0
  139.9230   70.0910  225.0400 C   0  0  0  0  0  0  0  0  0  0  0  0
  140.0300   69.2310  226.1140 C   0  0  0  0  0  0  0  0  0  0  0  0
  140.5520   69.6030  227.3340 C   0  0  0  0  0  0  0  0  0  0  0  0
  140.6790   68.4940  228.6880 Cl  0  0  0  0  0  0  0  0  0  0  0  0
  140.9860   70.9270  227.4550 C   0  0  0  0  0  0  0  0  0  0  0  0
  140.8930   71.8150  226.3960 C   0  0  0  0  0  0  0  0  0  0  0  0
  140.3660   71.4100  225.1880 C   0  0  0  0  0  0  0  0  0  0  0  0
  140.2680   72.2600  224.1490 N   0  0  0  0  0  0  0  0  0  0  0  0
  138.8170   74.3220  223.0120 H   0  0  0  0  0  0  0  0  0  0  0  0
  139.5876   74.6707  220.1389 H   0  0  0  0  0  0  0  0  0  0  0  0
  137.8836   75.1040  220.8459 H   0  0  0  0  0  0  0  0  0  0  0  0
  141.1790   76.5735  223.5267 H   0  0  0  0  0  0  0  0  0  0  0  0
  141.7017   77.1912  221.8708 H   0  0  0  0  0  0  0  0  0  0  0  0
  140.9621   78.7331  224.3216 H   0  0  0  0  0  0  0  0  0  0  0  0
  142.4946   78.7262  223.3376 H   0  0  0  0  0  0  0  0  0  0  0  0
  141.5695   80.6673  222.5926 H   0  0  0  0  0  0  0  0  0  0  0  0
  140.8398   79.4888  221.4289 H   0  0  0  0  0  0  0  0  0  0  0  0
  139.4580   80.2382  224.0113 H   0  0  0  0  0  0  0  0  0  0  0  0
  139.3060   81.2297  222.4896 H   0  0  0  0  0  0  0  0  0  0  0  0
  137.4401   79.6896  222.7375 H   0  0  0  0  0  0  0  0  0  0  0  0
  138.4983   79.2933  221.3003 H   0  0  0  0  0  0  0  0  0  0  0  0
  138.7726   77.9236  223.9415 H   0  0  0  0  0  0  0  0  0  0  0  0
  137.5803   75.7306  224.1809 H   0  0  0  0  0  0  0  0  0  0  0  0
  135.4361   74.5477  223.7465 H   0  0  0  0  0  0  0  0  0  0  0  0
  133.9436   75.3509  221.9399 H   0  0  0  0  0  0  0  0  0  0  0  0
  134.5628   77.3262  220.5562 H   0  0  0  0  0  0  0  0  0  0  0  0
  136.7133   78.4777  221.0177 H   0  0  0  0  0  0  0  0  0  0  0  0
  138.8794   70.2713  221.7844 H   0  0  0  0  0  0  0  0  0  0  0  0
  139.0372   68.6311  223.6957 H   0  0  0  0  0  0  0  0  0  0  0  0
  139.6807   68.1954  225.9899 H   0  0  0  0  0  0  0  0  0  0  0  0
  141.4097   71.2701  228.4104 H   0  0  0  0  0  0  0  0  0  0  0  0
  141.2421   72.8508  226.5197 H   0  0  0  0  0  0  0  0  0  0  0  0
  1  2  2  0
  2  3  1  0
  3  4  1  0
  4  5  1  0
  5  6  2  0
  5  7  1  0
  7  8  1  0
  8  9  1  0
  9 10  1  0
 10 11  1  0
 11 12  1  0
 12 13  1  0
 13 14  1  0
 14 15  2  0
 15 16  1  0
 16 17  2  0
 17 18  1  0
 18 19  2  0
  2 20  1  0
 20 21  2  0
 21 22  1  0
 22 23  2  0
 23 24  1  0
 24 25  2  0
 25 26  1  0
 25 27  1  0
 27 28  2  0
 28 29  1  0
 29 30  2  0
 13  7  1  0
 19 14  1  0
 30 20  1  0
 29 23  1  0
  3 31  1  0
  4 32  1  0
  4 33  1  0
  8 34  1  0
  8 35  1  0
  9 36  1  0
  9 37  1  0
 10 38  1  0
 10 39  1  0
 11 40  1  0
 11 41  1  0
 12 42  1  0
 12 43  1  0
 13 44  1  1
 15 45  1  0
 16 46  1  0
 17 47  1  0
 18 48  1  0
 19 49  1  0
 21 50  1  0
 22 51  1  0
 24 52  1  0
 27 53  1  0
 28 54  1  0
M  END
>  <smiles>  (98) 
O=C(NCC(=O)N1CCCCCC1c1ccccc1)c1ccc2cc(Cl)ccc2n1

>  <score_type>  (98) 
oracle

>  <origin>  (98) 
autodockgpu

>  <m_score__min__energy>  (98) 
-6.6299999999999999

>  <m_primary>  (98) 
energy

>  <rmsd>  (98) 
3.4570753260723652

>  <m_score__min__rmsd>  (98) 
3.4570753260723652

>  <meeko>  (98) 
{"free_energy": -5.78, "intermolecular_energy": -9.06, "internal_energy": -1.81, "cluster_size": 5, "cluster_id": 5, "rank_in_cluster": 1}

>  <energy>  (98) 
-4.45

>  <cluster_rmsd>  (98) 
0.0

>  <cluster>  (98) 
18

$$$$

     RDKit          3D

 54 57  0  0  0  0  0  0  0  0999 V2000
  137.5560   77.5310  221.3260 O   0  0  0  0  0  0  0  0  0  0  0  0
  137.4360   76.7120  222.2730 C   0  0  0  0  0  0  0  0  0  0  0  0
  138.5160   75.7630  222.4090 N   0  0  0  0  0  0  0  0  0  0  0  0
  139.6420   75.7270  221.5710 C   0  0  0  0  0  0  0  0  0  0  0  0
  140.2050   76.9300  220.9960 C   0  0  0  0  0  0  0  0  0  0  0  0
  140.0360   76.9880  219.6860 O   0  0  0  0  0  0  0  0  0  0  0  0
  140.8800   78.0250  221.5260 N   0  0  0  0  0  0  0  0  0  0  0  0
  141.8290   78.8240  220.8040 C   0  0  0  0  0  0  0  0  0  0  0  0
  141.9120   80.2520  221.2160 C   0  0  0  0  0  0  0  0  0  0  0  0
  142.8040   80.4640  222.4210 C   0  0  0  0  0  0  0  0  0  0  0  0
  142.0910   80.0960  223.7050 C   0  0  0  0  0  0  0  0  0  0  0  0
  141.7110   78.6330  223.7660 C   0  0  0  0  0  0  0  0  0  0  0  0
  140.5280   78.2900  222.9350 C   0  0  1  0  0  0  0  0  0  0  0  0
  139.5130   79.3670  223.0510 C   0  0  0  0  0  0  0  0  0  0  0  0
  139.0000   80.0140  221.9570 C   0  0  0  0  0  0  0  0  0  0  0  0
  138.0510   81.0190  222.0930 C   0  0  0  0  0  0  0  0  0  0  0  0
  137.6210   81.3650  223.3600 C   0  0  0  0  0  0  0  0  0  0  0  0
  138.1140   80.7350  224.4900 C   0  0  0  0  0  0  0  0  0  0  0  0
  139.0590   79.7400  224.3130 C   0  0  0  0  0  0  0  0  0  0  0  0
  136.2950   76.7010  223.1840 C   0  0  0  0  0  0  0  0  0  0  0  0
  135.5090   77.8340  223.2080 C   0  0  0  0  0  0  0  0  0  0  0  0
  134.4080   77.8470  224.0730 C   0  0  0  0  0  0  0  0  0  0  0  0
  134.1500   76.7260  224.8710 C   0  0  0  0  0  0  0  0  0  0  0  0
  133.0760   76.6960  225.7390 C   0  0  0  0  0  0  0  0  0  0  0  0
  132.7820   75.6160  226.5420 C   0  0  0  0  0  0  0  0  0  0  0  0
  131.4120   75.5970  227.6390 Cl  0  0  0  0  0  0  0  0  0  0  0  0
  133.6350   74.5120  226.4500 C   0  0  0  0  0  0  0  0  0  0  0  0
  134.7200   74.5100  225.5900 C   0  0  0  0  0  0  0  0  0  0  0  0
  134.9860   75.6080  224.7980 C   0  0  0  0  0  0  0  0  0  0  0  0
  136.0370   75.6230  223.9560 N   0  0  0  0  0  0  0  0  0  0  0  0
  138.3750   75.0850  223.2140 H   0  0  0  0  0  0  0  0  0  0  0  0
  140.4472   75.2585  222.1560 H   0  0  0  0  0  0  0  0  0  0  0  0
  139.2550   75.2043  220.6839 H   0  0  0  0  0  0  0  0  0  0  0  0
  142.8235   78.3740  220.9401 H   0  0  0  0  0  0  0  0  0  0  0  0
  141.4837   78.8314  219.7596 H   0  0  0  0  0  0  0  0  0  0  0  0
  142.3120   80.8377  220.3752 H   0  0  0  0  0  0  0  0  0  0  0  0
  140.8981   80.5762  221.4933 H   0  0  0  0  0  0  0  0  0  0  0  0
  143.7016   79.8367  222.3171 H   0  0  0  0  0  0  0  0  0  0  0  0
  143.0765   81.5287  222.4681 H   0  0  0  0  0  0  0  0  0  0  0  0
  142.7544   80.3224  224.5527 H   0  0  0  0  0  0  0  0  0  0  0  0
  141.1609   80.6818  223.7469 H   0  0  0  0  0  0  0  0  0  0  0  0
  142.5665   78.0367  223.4159 H   0  0  0  0  0  0  0  0  0  0  0  0
  141.4462   78.4120  224.8105 H   0  0  0  0  0  0  0  0  0  0  0  0
  140.1036   77.3504  223.3184 H   0  0  0  0  0  0  0  0  0  0  0  0
  139.3466   79.7319  220.9519 H   0  0  0  0  0  0  0  0  0  0  0  0
  137.6482   81.5312  221.2067 H   0  0  0  0  0  0  0  0  0  0  0  0
  136.8691   82.1599  223.4734 H   0  0  0  0  0  0  0  0  0  0  0  0
  137.7660   81.0161  225.4949 H   0  0  0  0  0  0  0  0  0  0  0  0
  139.4645   79.2273  225.1977 H   0  0  0  0  0  0  0  0  0  0  0  0
  135.7394   78.6990  222.5687 H   0  0  0  0  0  0  0  0  0  0  0  0
  133.7526   78.7289  224.1250 H   0  0  0  0  0  0  0  0  0  0  0  0
  132.4224   77.5792  225.7917 H   0  0  0  0  0  0  0  0  0  0  0  0
  133.4401   73.6270  227.0736 H   0  0  0  0  0  0  0  0  0  0  0  0
  135.3742   73.6273  225.5378 H   0  0  0  0  0  0  0  0  0  0  0  0
  1  2  2  0
  2  3  1  0
  3  4  1  0
  4  5  1  0
  5  6  2  0
  5  7  1  0
  7  8  1  0
  8  9  1  0
  9 10  1  0
 10 11  1  0
 11 12  1  0
 12 13  1  0
 13 14  1  0
 14 15  2  0
 15 16  1  0
 16 17  2  0
 17 18  1  0
 18 19  2  0
  2 20  1  0
 20 21  2  0
 21 22  1  0
 22 23  2  0
 23 24  1  0
 24 25  2  0
 25 26  1  0
 25 27  1  0
 27 28  2  0
 28 29  1  0
 29 30  2  0
 13  7  1  0
 19 14  1  0
 30 20  1  0
 29 23  1  0
  3 31  1  0
  4 32  1  0
  4 33  1  0
  8 34  1  0
  8 35  1  0
  9 36  1  0
  9 37  1  0
 10 38  1  0
 10 39  1  0
 11 40  1  0
 11 41  1  0
 12 42  1  0
 12 43  1  0
 13 44  1  1
 15 45  1  0
 16 46  1  0
 17 47  1  0
 18 48  1  0
 19 49  1  0
 21 50  1  0
 22 51  1  0
 24 52  1  0
 27 53  1  0
 28 54  1  0
M  END
>  <smiles>  (99) 
O=C(NCC(=O)N1CCCCCC1c1ccccc1)c1ccc2cc(Cl)ccc2n1

>  <score_type>  (99) 
oracle

>  <origin>  (99) 
autodockgpu

>  <m_score__min__energy>  (99) 
-6.6299999999999999

>  <m_primary>  (99) 
energy

>  <rmsd>  (99) 
6.942976545254392

>  <m_score__min__rmsd>  (99) 
6.942976545254392

>  <meeko>  (99) 
{"free_energy": -4.7, "intermolecular_energy": -7.98, "internal_energy": -2.41, "cluster_size": 3, "cluster_id": 11, "rank_in_cluster": 2}

>  <energy>  (99) 
-4.4

>  <cluster_rmsd>  (99) 
0.0

>  <cluster>  (99) 
19

$$$$

     RDKit          3D

 54 57  0  0  0  0  0  0  0  0999 V2000
  139.2550   72.0070  220.7800 O   0  0  0  0  0  0  0  0  0  0  0  0
  139.4540   72.3950  221.9590 C   0  0  0  0  0  0  0  0  0  0  0  0
  139.4610   73.8270  222.1450 N   0  0  0  0  0  0  0  0  0  0  0  0
  139.2570   74.7560  221.1100 C   0  0  0  0  0  0  0  0  0  0  0  0
  140.3500   75.2470  220.3000 C   0  0  0  0  0  0  0  0  0  0  0  0
  140.3770   76.5680  220.2390 O   0  0  0  0  0  0  0  0  0  0  0  0
  141.3650   74.6300  219.5760 N   0  0  0  0  0  0  0  0  0  0  0  0
  141.2220   73.3920  218.8640 C   0  0  0  0  0  0  0  0  0  0  0  0
  142.3660   72.4470  218.9820 C   0  0  0  0  0  0  0  0  0  0  0  0
  142.8210   72.2520  220.4130 C   0  0  0  0  0  0  0  0  0  0  0  0
  143.5910   73.4570  220.9140 C   0  0  0  0  0  0  0  0  0  0  0  0
  143.8130   74.5030  219.8450 C   0  0  0  0  0  0  0  0  0  0  0  0
  142.6370   75.3810  219.6150 C   0  0  1  0  0  0  0  0  0  0  0  0
  142.8440   76.1710  218.3750 C   0  0  0  0  0  0  0  0  0  0  0  0
  142.4970   77.4940  218.2810 C   0  0  0  0  0  0  0  0  0  0  0  0
  142.7010   78.2100  217.1090 C   0  0  0  0  0  0  0  0  0  0  0  0
  143.2650   77.5680  216.0220 C   0  0  0  0  0  0  0  0  0  0  0  0
  143.6280   76.2330  216.0780 C   0  0  0  0  0  0  0  0  0  0  0  0
  143.4090   75.5540  217.2620 C   0  0  0  0  0  0  0  0  0  0  0  0
  139.6650   71.4830  223.0790 C   0  0  0  0  0  0  0  0  0  0  0  0
  139.3320   70.1610  222.8740 C   0  0  0  0  0  0  0  0  0  0  0  0
  139.5260   69.2660  223.9330 C   0  0  0  0  0  0  0  0  0  0  0  0
  140.0430   69.7390  225.1450 C   0  0  0  0  0  0  0  0  0  0  0  0
  140.2500   68.8920  226.2160 C   0  0  0  0  0  0  0  0  0  0  0  0
  140.7570   69.3120  227.4260 C   0  0  0  0  0  0  0  0  0  0  0  0
  141.0130   68.2200  228.7750 Cl  0  0  0  0  0  0  0  0  0  0  0  0
  141.0660   70.6710  227.5410 C   0  0  0  0  0  0  0  0  0  0  0  0
  140.8710   71.5460  226.4860 C   0  0  0  0  0  0  0  0  0  0  0  0
  140.3620   71.0930  225.2880 C   0  0  0  0  0  0  0  0  0  0  0  0
  140.1650   71.9300  224.2510 N   0  0  0  0  0  0  0  0  0  0  0  0
  139.6380   74.1150  223.1510 H   0  0  0  0  0  0  0  0  0  0  0  0
  138.5418   74.2919  220.4150 H   0  0  0  0  0  0  0  0  0  0  0  0
  138.9531   75.6574  221.6624 H   0  0  0  0  0  0  0  0  0  0  0  0
  140.3232   72.8846  219.2443 H   0  0  0  0  0  0  0  0  0  0  0  0
  141.1630   73.6620  217.7993 H   0  0  0  0  0  0  0  0  0  0  0  0
  142.0600   71.4721  218.5746 H   0  0  0  0  0  0  0  0  0  0  0  0
  143.2096   72.8768  218.4220 H   0  0  0  0  0  0  0  0  0  0  0  0
  141.9388   72.0993  221.0520 H   0  0  0  0  0  0  0  0  0  0  0  0
  143.4845   71.3754  220.4504 H   0  0  0  0  0  0  0  0  0  0  0  0
  143.0271   73.9145  221.7402 H   0  0  0  0  0  0  0  0  0  0  0  0
  144.5807   73.1032  221.2385 H   0  0  0  0  0  0  0  0  0  0  0  0
  144.6629   75.1329  220.1467 H   0  0  0  0  0  0  0  0  0  0  0  0
  144.0019   73.9657  218.9039 H   0  0  0  0  0  0  0  0  0  0  0  0
  142.5520   76.0675  220.4703 H   0  0  0  0  0  0  0  0  0  0  0  0
  142.0487   77.9976  219.1502 H   0  0  0  0  0  0  0  0  0  0  0  0
  142.4184   79.2712  217.0462 H   0  0  0  0  0  0  0  0  0  0  0  0
  143.4291   78.1308  215.0913 H   0  0  0  0  0  0  0  0  0  0  0  0
  144.0760   75.7292  215.2088 H   0  0  0  0  0  0  0  0  0  0  0  0
  143.6900   74.4925  217.3269 H   0  0  0  0  0  0  0  0  0  0  0  0
  138.9270   69.8204  221.9096 H   0  0  0  0  0  0  0  0  0  0  0  0
  139.2747   68.2017  223.8139 H   0  0  0  0  0  0  0  0  0  0  0  0
  139.9972   67.8281  226.0968 H   0  0  0  0  0  0  0  0  0  0  0  0
  141.4724   71.0526  228.4893 H   0  0  0  0  0  0  0  0  0  0  0  0
  141.1240   72.6099  226.6047 H   0  0  0  0  0  0  0  0  0  0  0  0
  1  2  2  0
  2  3  1  0
  3  4  1  0
  4  5  1  0
  5  6  2  0
  5  7  1  0
  7  8  1  0
  8  9  1  0
  9 10  1  0
 10 11  1  0
 11 12  1  0
 12 13  1  0
 13 14  1  0
 14 15  2  0
 15 16  1  0
 16 17  2  0
 17 18  1  0
 18 19  2  0
  2 20  1  0
 20 21  2  0
 21 22  1  0
 22 23  2  0
 23 24  1  0
 24 25  2  0
 25 26  1  0
 25 27  1  0
 27 28  2  0
 28 29  1  0
 29 30  2  0
 13  7  1  0
 19 14  1  0
 30 20  1  0
 29 23  1  0
  3 31  1  0
  4 32  1  0
  4 33  1  0
  8 34  1  0
  8 35  1  0
  9 36  1  0
  9 37  1  0
 10 38  1  0
 10 39  1  0
 11 40  1  0
 11 41  1  0
 12 42  1  0
 12 43  1  0
 13 44  1  1
 15 45  1  0
 16 46  1  0
 17 47  1  0
 18 48  1  0
 19 49  1  0
 21 50  1  0
 22 51  1  0
 24 52  1  0
 27 53  1  0
 28 54  1  0
M  END
>  <smiles>  (100) 
O=C(NCC(=O)N1CCCCCC1c1ccccc1)c1ccc2cc(Cl)ccc2n1

>  <score_type>  (100) 
oracle

>  <origin>  (100) 
autodockgpu

>  <m_score__min__energy>  (100) 
-6.6299999999999999

>  <m_primary>  (100) 
energy

>  <rmsd>  (100) 
2.378607451759164

>  <m_score__min__rmsd>  (100) 
2.378607451759164

>  <meeko>  (100) 
{"free_energy": -5.19, "intermolecular_energy": -8.47, "internal_energy": -2.26, "cluster_size": 2, "cluster_id": 3, "rank_in_cluster": 2}

>  <energy>  (100) 
-4.23

>  <cluster_rmsd>  (100) 
1.59

>  <cluster>  (100) 
19

$$$$
