
     RDKit          3D

 47 49  0  0  0  0  0  0  0  0999 V2000
  137.7910   80.6350  224.2660 C   0  0  0  0  0  0  0  0  0  0  0  0
  138.2490   79.5200  223.3750 C   0  0  0  0  0  0  0  0  0  0  0  0
  137.6800   79.8340  221.9960 C   0  0  0  0  0  0  0  0  0  0  0  0
  139.7390   79.4920  223.3360 C   0  0  0  0  0  0  0  0  0  0  0  0
  140.3660   80.6450  223.8270 C   0  0  0  0  0  0  0  0  0  0  0  0
  141.7350   80.7760  223.8430 C   0  0  0  0  0  0  0  0  0  0  0  0
  142.4650   79.7180  223.3540 C   0  0  0  0  0  0  0  0  0  0  0  0
  141.8460   78.5790  222.8690 C   0  0  0  0  0  0  0  0  0  0  0  0
  140.4650   78.4260  222.8430 C   0  0  0  0  0  0  0  0  0  0  0  0
  139.8090   77.2980  222.3700 N   0  0  0  0  0  0  0  0  0  0  0  0
  140.2990   76.3140  221.4900 C   0  0  0  0  0  0  0  0  0  0  0  0
  141.4350   76.3580  221.0200 O   0  0  0  0  0  0  0  0  0  0  0  0
  139.4310   75.1670  221.0970 C   0  0  0  0  0  0  0  0  0  0  0  0
  139.5340   74.1800  222.1540 N   0  0  0  0  0  0  0  0  0  0  0  0
  139.7680   72.8150  221.8650 C   0  0  0  0  0  0  0  0  0  0  0  0
  139.9020   72.3510  220.7040 O   0  0  0  0  0  0  0  0  0  0  0  0
  139.8590   71.8820  223.0060 C   0  0  0  0  0  0  0  0  0  0  0  0
  139.4200   70.5700  222.8830 C   0  0  0  0  0  0  0  0  0  0  0  0
  139.4750   69.6560  223.8970 C   0  0  0  0  0  0  0  0  0  0  0  0
  139.9970   70.0700  225.1040 C   0  0  0  0  0  0  0  0  0  0  0  0
  140.0680   69.1780  226.1470 C   0  0  0  0  0  0  0  0  0  0  0  0
  140.5900   69.6060  227.3410 C   0  0  0  0  0  0  0  0  0  0  0  0
  140.6840   68.4710  228.6780 Cl  0  0  0  0  0  0  0  0  0  0  0  0
  141.0250   70.8890  227.4800 C   0  0  0  0  0  0  0  0  0  0  0  0
  140.9550   71.7990  226.4230 C   0  0  0  0  0  0  0  0  0  0  0  0
  140.4300   71.3820  225.2090 C   0  0  0  0  0  0  0  0  0  0  0  0
  140.3620   72.2580  224.1920 N   0  0  0  0  0  0  0  0  0  0  0  0
  137.9132   80.3375  225.3179 H   0  0  0  0  0  0  0  0  0  0  0  0
  138.3926   81.5341  224.0670 H   0  0  0  0  0  0  0  0  0  0  0  0
  136.7311   80.8516  224.0670 H   0  0  0  0  0  0  0  0  0  0  0  0
  137.9100   78.5358  223.7305 H   0  0  0  0  0  0  0  0  0  0  0  0
  136.7218   80.3628  222.1064 H   0  0  0  0  0  0  0  0  0  0  0  0
  138.3878   80.4692  221.4433 H   0  0  0  0  0  0  0  0  0  0  0  0
  137.5199   78.8965  221.4433 H   0  0  0  0  0  0  0  0  0  0  0  0
  139.7458   81.4686  224.2104 H   0  0  0  0  0  0  0  0  0  0  0  0
  142.2227   81.6835  224.2285 H   0  0  0  0  0  0  0  0  0  0  0  0
  143.5633   79.7782  223.3482 H   0  0  0  0  0  0  0  0  0  0  0  0
  142.4738   77.7601  222.4879 H   0  0  0  0  0  0  0  0  0  0  0  0
  138.8080   77.1360  222.7060 H   0  0  0  0  0  0  0  0  0  0  0  0
  138.3882   75.5006  220.9911 H   0  0  0  0  0  0  0  0  0  0  0  0
  139.7485   74.7453  220.1319 H   0  0  0  0  0  0  0  0  0  0  0  0
  139.4330   74.4850  223.1640 H   0  0  0  0  0  0  0  0  0  0  0  0
  139.0052   70.2492  221.9160 H   0  0  0  0  0  0  0  0  0  0  0  0
  139.1155   68.6261  223.7554 H   0  0  0  0  0  0  0  0  0  0  0  0
  139.7140   68.1435  226.0269 H   0  0  0  0  0  0  0  0  0  0  0  0
  141.4401   71.2153  228.4450 H   0  0  0  0  0  0  0  0  0  0  0  0
  141.3112   72.8318  226.5515 H   0  0  0  0  0  0  0  0  0  0  0  0
  1  2  1  0
  2  3  1  0
  2  4  1  0
  4  5  2  0
  5  6  1  0
  6  7  2  0
  7  8  1  0
  8  9  2  0
  9 10  1  0
 10 11  1  0
 11 12  2  0
 11 13  1  0
 13 14  1  0
 14 15  1  0
 15 16  2  0
 15 17  1  0
 17 18  2  0
 18 19  1  0
 19 20  2  0
 20 21  1  0
 21 22  2  0
 22 23  1  0
 22 24  1  0
 24 25  2  0
 25 26  1  0
 26 27  2  0
  9  4  1  0
 27 17  1  0
 26 20  1  0
  1 28  1  0
  1 29  1  0
  1 30  1  0
  2 31  1  0
  3 32  1  0
  3 33  1  0
  3 34  1  0
  5 35  1  0
  6 36  1  0
  7 37  1  0
  8 38  1  0
 10 39  1  0
 13 40  1  0
 13 41  1  0
 14 42  1  0
 18 43  1  0
 19 44  1  0
 21 45  1  0
 24 46  1  0
 25 47  1  0
M  END
>  <smiles>  (1) 
CC(C)c1ccccc1NC(=O)CNC(=O)c1ccc2cc(Cl)ccc2n1

>  <score_type>  (1) 
oracle

>  <origin>  (1) 
autodockgpu

>  <m_score__min__energy>  (1) 
-9.2699999999999996

>  <m_primary>  (1) 
energy

>  <rmsd>  (1) 
3.8913575527323174

>  <m_score__min__rmsd>  (1) 
3.8913575527323174

>  <meeko>  (1) 
{"free_energy": -8.74, "intermolecular_energy": -10.23, "internal_energy": -1.21, "cluster_size": 26, "cluster_id": 1, "rank_in_cluster": 11}

>  <energy>  (1) 
-9.27

>  <cluster_rmsd>  (1) 
0.0

>  <cluster>  (1) 
1

$$$$

     RDKit          3D

 47 49  0  0  0  0  0  0  0  0999 V2000
  140.3650   67.4090  226.1100 C   0  0  0  0  0  0  0  0  0  0  0  0
  139.9780   68.6610  225.3840 C   0  0  0  0  0  0  0  0  0  0  0  0
  138.4550   68.6380  225.3040 C   0  0  0  0  0  0  0  0  0  0  0  0
  140.4460   69.8500  226.1530 C   0  0  0  0  0  0  0  0  0  0  0  0
  140.7360   69.6050  227.5020 C   0  0  0  0  0  0  0  0  0  0  0  0
  141.1650   70.6040  228.3440 C   0  0  0  0  0  0  0  0  0  0  0  0
  141.2980   71.8610  227.8000 C   0  0  0  0  0  0  0  0  0  0  0  0
  141.0110   72.1020  226.4680 C   0  0  0  0  0  0  0  0  0  0  0  0
  140.5760   71.1080  225.5990 C   0  0  0  0  0  0  0  0  0  0  0  0
  140.2840   71.3100  224.2570 N   0  0  0  0  0  0  0  0  0  0  0  0
  139.0180   71.4340  223.6540 C   0  0  0  0  0  0  0  0  0  0  0  0
  137.9720   71.3700  224.2990 O   0  0  0  0  0  0  0  0  0  0  0  0
  138.9120   71.6500  222.1820 C   0  0  0  0  0  0  0  0  0  0  0  0
  139.2760   73.0310  221.9320 N   0  0  0  0  0  0  0  0  0  0  0  0
  140.6290   73.4220  221.7980 C   0  0  0  0  0  0  0  0  0  0  0  0
  141.6040   72.6340  221.8830 O   0  0  0  0  0  0  0  0  0  0  0  0
  140.9030   74.8510  221.5430 C   0  0  0  0  0  0  0  0  0  0  0  0
  141.7470   75.2340  220.5080 C   0  0  0  0  0  0  0  0  0  0  0  0
  142.0430   76.5360  220.2180 C   0  0  0  0  0  0  0  0  0  0  0  0
  141.4680   77.5130  221.0010 C   0  0  0  0  0  0  0  0  0  0  0  0
  141.7430   78.8340  220.7370 C   0  0  0  0  0  0  0  0  0  0  0  0
  141.1620   79.7950  221.5250 C   0  0  0  0  0  0  0  0  0  0  0  0
  141.5090   81.4830  221.1940 Cl  0  0  0  0  0  0  0  0  0  0  0  0
  140.3320   79.4370  222.5440 C   0  0  0  0  0  0  0  0  0  0  0  0
  140.0490   78.0960  222.8150 C   0  0  0  0  0  0  0  0  0  0  0  0
  140.6290   77.1140  222.0270 C   0  0  0  0  0  0  0  0  0  0  0  0
  140.3570   75.8230  222.2880 N   0  0  0  0  0  0  0  0  0  0  0  0
  140.3113   67.5827  227.1949 H   0  0  0  0  0  0  0  0  0  0  0  0
  139.6759   66.5972  225.8341 H   0  0  0  0  0  0  0  0  0  0  0  0
  141.3920   67.1277  225.8341 H   0  0  0  0  0  0  0  0  0  0  0  0
  140.4287   68.7176  224.3822 H   0  0  0  0  0  0  0  0  0  0  0  0
  138.0345   68.6316  226.3204 H   0  0  0  0  0  0  0  0  0  0  0  0
  138.1025   69.5309  224.7669 H   0  0  0  0  0  0  0  0  0  0  0  0
  138.1296   67.7348  224.7669 H   0  0  0  0  0  0  0  0  0  0  0  0
  140.6172   68.5857  227.8982 H   0  0  0  0  0  0  0  0  0  0  0  0
  141.3912   70.4076  229.4024 H   0  0  0  0  0  0  0  0  0  0  0  0
  141.6392   72.6906  228.4366 H   0  0  0  0  0  0  0  0  0  0  0  0
  141.1323   73.1241  226.0801 H   0  0  0  0  0  0  0  0  0  0  0  0
  141.1080   71.3900  223.5830 H   0  0  0  0  0  0  0  0  0  0  0  0
  139.5991   70.9754  221.6502 H   0  0  0  0  0  0  0  0  0  0  0  0
  137.8926   71.4407  221.8256 H   0  0  0  0  0  0  0  0  0  0  0  0
  138.5140   73.7630  221.8460 H   0  0  0  0  0  0  0  0  0  0  0  0
  142.2014   74.4466  219.8886 H   0  0  0  0  0  0  0  0  0  0  0  0
  142.7170   76.7952  219.3882 H   0  0  0  0  0  0  0  0  0  0  0  0
  142.4143   79.1142  219.9119 H   0  0  0  0  0  0  0  0  0  0  0  0
  139.8749   80.2202  223.1666 H   0  0  0  0  0  0  0  0  0  0  0  0
  139.3760   77.8235  223.6413 H   0  0  0  0  0  0  0  0  0  0  0  0
  1  2  1  0
  2  3  1  0
  2  4  1  0
  4  5  2  0
  5  6  1  0
  6  7  2  0
  7  8  1  0
  8  9  2  0
  9 10  1  0
 10 11  1  0
 11 12  2  0
 11 13  1  0
 13 14  1  0
 14 15  1  0
 15 16  2  0
 15 17  1  0
 17 18  2  0
 18 19  1  0
 19 20  2  0
 20 21  1  0
 21 22  2  0
 22 23  1  0
 22 24  1  0
 24 25  2  0
 25 26  1  0
 26 27  2  0
  9  4  1  0
 27 17  1  0
 26 20  1  0
  1 28  1  0
  1 29  1  0
  1 30  1  0
  2 31  1  0
  3 32  1  0
  3 33  1  0
  3 34  1  0
  5 35  1  0
  6 36  1  0
  7 37  1  0
  8 38  1  0
 10 39  1  0
 13 40  1  0
 13 41  1  0
 14 42  1  0
 18 43  1  0
 19 44  1  0
 21 45  1  0
 24 46  1  0
 25 47  1  0
M  END
>  <smiles>  (2) 
CC(C)c1ccccc1NC(=O)CNC(=O)c1ccc2cc(Cl)ccc2n1

>  <score_type>  (2) 
oracle

>  <origin>  (2) 
autodockgpu

>  <m_score__min__energy>  (2) 
-9.2699999999999996

>  <m_primary>  (2) 
energy

>  <rmsd>  (2) 
8.389829237713599

>  <m_score__min__rmsd>  (2) 
8.389829237713599

>  <meeko>  (2) 
{"free_energy": -8.34, "intermolecular_energy": -9.83, "internal_energy": -1.99, "cluster_size": 18, "cluster_id": 2, "rank_in_cluster": 11}

>  <energy>  (2) 
-9.25

>  <cluster_rmsd>  (2) 
0.07

>  <cluster>  (2) 
1

$$$$

     RDKit          3D

 47 49  0  0  0  0  0  0  0  0999 V2000
  137.9180   80.6700  224.5070 C   0  0  0  0  0  0  0  0  0  0  0  0
  138.3320   79.7800  223.3750 C   0  0  0  0  0  0  0  0  0  0  0  0
  137.8090   80.4510  222.1090 C   0  0  0  0  0  0  0  0  0  0  0  0
  139.8190   79.6760  223.3390 C   0  0  0  0  0  0  0  0  0  0  0  0
  140.5020   80.8120  223.7940 C   0  0  0  0  0  0  0  0  0  0  0  0
  141.8770   80.8740  223.8090 C   0  0  0  0  0  0  0  0  0  0  0  0
  142.5530   79.7660  223.3550 C   0  0  0  0  0  0  0  0  0  0  0  0
  141.8780   78.6440  222.9060 C   0  0  0  0  0  0  0  0  0  0  0  0
  140.4910   78.5600  222.8820 C   0  0  0  0  0  0  0  0  0  0  0  0
  139.7790   77.4520  222.4430 N   0  0  0  0  0  0  0  0  0  0  0  0
  140.2510   76.3590  221.6900 C   0  0  0  0  0  0  0  0  0  0  0  0
  141.4210   76.2720  221.3200 O   0  0  0  0  0  0  0  0  0  0  0  0
  139.3210   75.2560  221.3150 C   0  0  0  0  0  0  0  0  0  0  0  0
  139.4430   74.2360  222.3380 N   0  0  0  0  0  0  0  0  0  0  0  0
  139.7400   72.8930  222.0050 C   0  0  0  0  0  0  0  0  0  0  0  0
  139.9180   72.4780  220.8320 O   0  0  0  0  0  0  0  0  0  0  0  0
  139.8470   71.9240  223.1140 C   0  0  0  0  0  0  0  0  0  0  0  0
  139.3980   70.6190  222.9560 C   0  0  0  0  0  0  0  0  0  0  0  0
  139.4670   69.6730  223.9400 C   0  0  0  0  0  0  0  0  0  0  0  0
  140.0120   70.0450  225.1500 C   0  0  0  0  0  0  0  0  0  0  0  0
  140.0960   69.1190  226.1620 C   0  0  0  0  0  0  0  0  0  0  0  0
  140.6420   69.5060  227.3600 C   0  0  0  0  0  0  0  0  0  0  0  0
  140.7530   68.3280  228.6570 Cl  0  0  0  0  0  0  0  0  0  0  0  0
  141.0870   70.7820  227.5320 C   0  0  0  0  0  0  0  0  0  0  0  0
  141.0020   71.7260  226.5060 C   0  0  0  0  0  0  0  0  0  0  0  0
  140.4540   71.3500  225.2900 C   0  0  0  0  0  0  0  0  0  0  0  0
  140.3730   72.2590  224.3020 N   0  0  0  0  0  0  0  0  0  0  0  0
  138.1472   80.1774  225.4634 H   0  0  0  0  0  0  0  0  0  0  0  0
  138.4658   81.6218  224.4443 H   0  0  0  0  0  0  0  0  0  0  0  0
  136.8371   80.8642  224.4443 H   0  0  0  0  0  0  0  0  0  0  0  0
  137.9322   78.7605  223.4793 H   0  0  0  0  0  0  0  0  0  0  0  0
  137.1541   81.2912  222.3831 H   0  0  0  0  0  0  0  0  0  0  0  0
  138.6563   80.8250  221.5154 H   0  0  0  0  0  0  0  0  0  0  0  0
  137.2395   79.7207  221.5154 H   0  0  0  0  0  0  0  0  0  0  0  0
  139.9235   81.6777  224.1488 H   0  0  0  0  0  0  0  0  0  0  0  0
  142.4096   81.7673  224.1671 H   0  0  0  0  0  0  0  0  0  0  0  0
  143.6530   79.7714  223.3485 H   0  0  0  0  0  0  0  0  0  0  0  0
  142.4641   77.7826  222.5533 H   0  0  0  0  0  0  0  0  0  0  0  0
  138.7440   77.3990  222.7030 H   0  0  0  0  0  0  0  0  0  0  0  0
  138.2873   75.6300  221.2751 H   0  0  0  0  0  0  0  0  0  0  0  0
  139.5705   74.8507  220.3233 H   0  0  0  0  0  0  0  0  0  0  0  0
  139.3090   74.5000  223.3550 H   0  0  0  0  0  0  0  0  0  0  0  0
  138.9637   70.3316  221.9871 H   0  0  0  0  0  0  0  0  0  0  0  0
  139.1001   68.6497  223.7720 H   0  0  0  0  0  0  0  0  0  0  0  0
  139.7337   68.0908  226.0150 H   0  0  0  0  0  0  0  0  0  0  0  0
  141.5223   71.0750  228.4988 H   0  0  0  0  0  0  0  0  0  0  0  0
  141.3647   72.7528  226.6610 H   0  0  0  0  0  0  0  0  0  0  0  0
  1  2  1  0
  2  3  1  0
  2  4  1  0
  4  5  2  0
  5  6  1  0
  6  7  2  0
  7  8  1  0
  8  9  2  0
  9 10  1  0
 10 11  1  0
 11 12  2  0
 11 13  1  0
 13 14  1  0
 14 15  1  0
 15 16  2  0
 15 17  1  0
 17 18  2  0
 18 19  1  0
 19 20  2  0
 20 21  1  0
 21 22  2  0
 22 23  1  0
 22 24  1  0
 24 25  2  0
 25 26  1  0
 26 27  2  0
  9  4  1  0
 27 17  1  0
 26 20  1  0
  1 28  1  0
  1 29  1  0
  1 30  1  0
  2 31  1  0
  3 32  1  0
  3 33  1  0
  3 34  1  0
  5 35  1  0
  6 36  1  0
  7 37  1  0
  8 38  1  0
 10 39  1  0
 13 40  1  0
 13 41  1  0
 14 42  1  0
 18 43  1  0
 19 44  1  0
 21 45  1  0
 24 46  1  0
 25 47  1  0
M  END
>  <smiles>  (3) 
CC(C)c1ccccc1NC(=O)CNC(=O)c1ccc2cc(Cl)ccc2n1

>  <score_type>  (3) 
oracle

>  <origin>  (3) 
autodockgpu

>  <m_score__min__energy>  (3) 
-9.2699999999999996

>  <m_primary>  (3) 
energy

>  <rmsd>  (3) 
3.952551792841779

>  <m_score__min__rmsd>  (3) 
3.952551792841779

>  <meeko>  (3) 
{"free_energy": -8.84, "intermolecular_energy": -10.34, "internal_energy": -1.17, "cluster_size": 26, "cluster_id": 1, "rank_in_cluster": 9}

>  <energy>  (3) 
-9.22

>  <cluster_rmsd>  (3) 
0.14

>  <cluster>  (3) 
1

$$$$

     RDKit          3D

 47 49  0  0  0  0  0  0  0  0999 V2000
  142.5400   78.9230  218.1350 C   0  0  0  0  0  0  0  0  0  0  0  0
  141.7070   78.0510  219.0240 C   0  0  0  0  0  0  0  0  0  0  0  0
  142.6310   76.9280  219.4840 C   0  0  0  0  0  0  0  0  0  0  0  0
  141.2230   78.8440  220.1900 C   0  0  0  0  0  0  0  0  0  0  0  0
  141.8530   80.0830  220.3660 C   0  0  0  0  0  0  0  0  0  0  0  0
  141.5260   80.9230  221.4050 C   0  0  0  0  0  0  0  0  0  0  0  0
  140.5460   80.4900  222.2680 C   0  0  0  0  0  0  0  0  0  0  0  0
  139.9240   79.2660  222.0940 C   0  0  0  0  0  0  0  0  0  0  0  0
  140.2390   78.4020  221.0520 C   0  0  0  0  0  0  0  0  0  0  0  0
  139.6340   77.1710  220.8430 N   0  0  0  0  0  0  0  0  0  0  0  0
  139.8680   75.9610  221.5250 C   0  0  0  0  0  0  0  0  0  0  0  0
  140.6880   75.8690  222.4380 O   0  0  0  0  0  0  0  0  0  0  0  0
  139.1080   74.7350  221.1490 C   0  0  0  0  0  0  0  0  0  0  0  0
  139.3220   73.7660  222.2070 N   0  0  0  0  0  0  0  0  0  0  0  0
  139.2000   72.3770  221.9680 C   0  0  0  0  0  0  0  0  0  0  0  0
  138.9040   71.8750  220.8540 O   0  0  0  0  0  0  0  0  0  0  0  0
  139.4370   71.4660  223.1060 C   0  0  0  0  0  0  0  0  0  0  0  0
  139.0330   70.1380  223.0430 C   0  0  0  0  0  0  0  0  0  0  0  0
  139.2220   69.2430  224.0580 C   0  0  0  0  0  0  0  0  0  0  0  0
  139.8470   69.6930  225.2010 C   0  0  0  0  0  0  0  0  0  0  0  0
  140.0530   68.8200  226.2430 C   0  0  0  0  0  0  0  0  0  0  0  0
  140.6770   69.2840  227.3720 C   0  0  0  0  0  0  0  0  0  0  0  0
  140.9440   68.1740  228.7070 Cl  0  0  0  0  0  0  0  0  0  0  0  0
  141.0800   70.5830  227.4510 C   0  0  0  0  0  0  0  0  0  0  0  0
  140.8720   71.4740  226.3950 C   0  0  0  0  0  0  0  0  0  0  0  0
  140.2430   71.0200  225.2460 C   0  0  0  0  0  0  0  0  0  0  0  0
  140.0430   71.8770  224.2300 N   0  0  0  0  0  0  0  0  0  0  0  0
  143.1689   79.5814  218.7522 H   0  0  0  0  0  0  0  0  0  0  0  0
  143.1808   78.2935  217.5000 H   0  0  0  0  0  0  0  0  0  0  0  0
  141.8819   79.5343  217.5000 H   0  0  0  0  0  0  0  0  0  0  0  0
  140.8225   77.6519  218.5060 H   0  0  0  0  0  0  0  0  0  0  0  0
  142.6544   76.8996  220.5834 H   0  0  0  0  0  0  0  0  0  0  0  0
  142.2589   75.9666  219.1002 H   0  0  0  0  0  0  0  0  0  0  0  0
  143.6460   77.1079  219.1002 H   0  0  0  0  0  0  0  0  0  0  0  0
  142.6312   80.3928  219.6530 H   0  0  0  0  0  0  0  0  0  0  0  0
  142.0242   81.8944  221.5394 H   0  0  0  0  0  0  0  0  0  0  0  0
  140.2510   81.1293  223.1131 H   0  0  0  0  0  0  0  0  0  0  0  0
  139.1467   78.9640  222.8114 H   0  0  0  0  0  0  0  0  0  0  0  0
  138.8920   77.1130  220.0760 H   0  0  0  0  0  0  0  0  0  0  0  0
  138.0364   74.9668  221.0593 H   0  0  0  0  0  0  0  0  0  0  0  0
  139.4491   74.3419  220.1799 H   0  0  0  0  0  0  0  0  0  0  0  0
  139.5760   74.1040  223.1790 H   0  0  0  0  0  0  0  0  0  0  0  0
  138.5343   69.7885  222.1269 H   0  0  0  0  0  0  0  0  0  0  0  0
  138.8869   68.1993  223.9661 H   0  0  0  0  0  0  0  0  0  0  0  0
  139.7244   67.7726  226.1723 H   0  0  0  0  0  0  0  0  0  0  0  0
  141.5793   70.9376  228.3648 H   0  0  0  0  0  0  0  0  0  0  0  0
  141.2024   72.5202  226.4742 H   0  0  0  0  0  0  0  0  0  0  0  0
  1  2  1  0
  2  3  1  0
  2  4  1  0
  4  5  2  0
  5  6  1  0
  6  7  2  0
  7  8  1  0
  8  9  2  0
  9 10  1  0
 10 11  1  0
 11 12  2  0
 11 13  1  0
 13 14  1  0
 14 15  1  0
 15 16  2  0
 15 17  1  0
 17 18  2  0
 18 19  1  0
 19 20  2  0
 20 21  1  0
 21 22  2  0
 22 23  1  0
 22 24  1  0
 24 25  2  0
 25 26  1  0
 26 27  2  0
  9  4  1  0
 27 17  1  0
 26 20  1  0
  1 28  1  0
  1 29  1  0
  1 30  1  0
  2 31  1  0
  3 32  1  0
  3 33  1  0
  3 34  1  0
  5 35  1  0
  6 36  1  0
  7 37  1  0
  8 38  1  0
 10 39  1  0
 13 40  1  0
 13 41  1  0
 14 42  1  0
 18 43  1  0
 19 44  1  0
 21 45  1  0
 24 46  1  0
 25 47  1  0
M  END
>  <smiles>  (4) 
CC(C)c1ccccc1NC(=O)CNC(=O)c1ccc2cc(Cl)ccc2n1

>  <score_type>  (4) 
oracle

>  <origin>  (4) 
autodockgpu

>  <m_score__min__energy>  (4) 
-9.2699999999999996

>  <m_primary>  (4) 
energy

>  <rmsd>  (4) 
2.287671878825247

>  <m_score__min__rmsd>  (4) 
2.287671878825247

>  <meeko>  (4) 
{"free_energy": -7.77, "intermolecular_energy": -9.26, "internal_energy": -1.96, "cluster_size": 26, "cluster_id": 1, "rank_in_cluster": 24}

>  <energy>  (4) 
-9.2

>  <cluster_rmsd>  (4) 
0.18

>  <cluster>  (4) 
1

$$$$

     RDKit          3D

 47 49  0  0  0  0  0  0  0  0999 V2000
  141.2520   80.1800  219.1790 C   0  0  0  0  0  0  0  0  0  0  0  0
  141.1460   78.8810  219.9180 C   0  0  0  0  0  0  0  0  0  0  0  0
  142.1770   77.9570  219.2790 C   0  0  0  0  0  0  0  0  0  0  0  0
  141.4570   79.1000  221.3600 C   0  0  0  0  0  0  0  0  0  0  0  0
  142.2970   80.1910  221.6250 C   0  0  0  0  0  0  0  0  0  0  0  0
  142.6860   80.5120  222.9050 C   0  0  0  0  0  0  0  0  0  0  0  0
  142.2120   79.7120  223.9180 C   0  0  0  0  0  0  0  0  0  0  0  0
  141.3830   78.6350  223.6560 C   0  0  0  0  0  0  0  0  0  0  0  0
  140.9780   78.2920  222.3710 C   0  0  0  0  0  0  0  0  0  0  0  0
  140.1440   77.2230  222.0700 N   0  0  0  0  0  0  0  0  0  0  0  0
  140.4970   75.9740  221.5260 C   0  0  0  0  0  0  0  0  0  0  0  0
  141.6590   75.6840  221.2430 O   0  0  0  0  0  0  0  0  0  0  0  0
  139.4450   74.9470  221.2730 C   0  0  0  0  0  0  0  0  0  0  0  0
  139.5730   73.9480  222.3160 N   0  0  0  0  0  0  0  0  0  0  0  0
  139.7400   72.5780  222.0040 C   0  0  0  0  0  0  0  0  0  0  0  0
  139.7890   72.1200  220.8350 O   0  0  0  0  0  0  0  0  0  0  0  0
  139.8620   71.6330  223.1330 C   0  0  0  0  0  0  0  0  0  0  0  0
  139.4580   70.3110  222.9930 C   0  0  0  0  0  0  0  0  0  0  0  0
  139.5440   69.3860  223.9950 C   0  0  0  0  0  0  0  0  0  0  0  0
  140.0610   69.7980  225.2050 C   0  0  0  0  0  0  0  0  0  0  0  0
  140.1620   68.8930  226.2350 C   0  0  0  0  0  0  0  0  0  0  0  0
  140.6790   69.3190  227.4320 C   0  0  0  0  0  0  0  0  0  0  0  0
  140.8110   68.1690  228.7520 Cl  0  0  0  0  0  0  0  0  0  0  0  0
  141.0800   70.6120  227.5860 C   0  0  0  0  0  0  0  0  0  0  0  0
  140.9790   71.5330  226.5420 C   0  0  0  0  0  0  0  0  0  0  0  0
  140.4590   71.1180  225.3260 C   0  0  0  0  0  0  0  0  0  0  0  0
  140.3620   72.0060  224.3200 N   0  0  0  0  0  0  0  0  0  0  0  0
  141.3195   81.0077  219.9003 H   0  0  0  0  0  0  0  0  0  0  0  0
  142.1523   80.1699  218.5471 H   0  0  0  0  0  0  0  0  0  0  0  0
  140.3620   80.3160  218.5471 H   0  0  0  0  0  0  0  0  0  0  0  0
  140.1357   78.4497  219.8602 H   0  0  0  0  0  0  0  0  0  0  0  0
  142.7486   77.4448  220.0670 H   0  0  0  0  0  0  0  0  0  0  0  0
  141.6637   77.2110  218.6545 H   0  0  0  0  0  0  0  0  0  0  0  0
  142.8625   78.5487  218.6545 H   0  0  0  0  0  0  0  0  0  0  0  0
  142.6546   80.8069  220.7867 H   0  0  0  0  0  0  0  0  0  0  0  0
  143.3454   81.3686  223.1086 H   0  0  0  0  0  0  0  0  0  0  0  0
  142.4973   79.9323  224.9572 H   0  0  0  0  0  0  0  0  0  0  0  0
  141.0297   78.0247  224.5002 H   0  0  0  0  0  0  0  0  0  0  0  0
  139.1020   77.3420  222.2730 H   0  0  0  0  0  0  0  0  0  0  0  0
  138.4477   75.4093  221.3122 H   0  0  0  0  0  0  0  0  0  0  0  0
  139.5669   74.4951  220.2775 H   0  0  0  0  0  0  0  0  0  0  0  0
  139.5420   74.2480  223.3320 H   0  0  0  0  0  0  0  0  0  0  0  0
  139.0470   69.9920  222.0238 H   0  0  0  0  0  0  0  0  0  0  0  0
  139.2123   68.3485  223.8416 H   0  0  0  0  0  0  0  0  0  0  0  0
  139.8356   67.8510  226.1022 H   0  0  0  0  0  0  0  0  0  0  0  0
  141.4918   70.9368  228.5529 H   0  0  0  0  0  0  0  0  0  0  0  0
  141.3074   72.5734  226.6823 H   0  0  0  0  0  0  0  0  0  0  0  0
  1  2  1  0
  2  3  1  0
  2  4  1  0
  4  5  2  0
  5  6  1  0
  6  7  2  0
  7  8  1  0
  8  9  2  0
  9 10  1  0
 10 11  1  0
 11 12  2  0
 11 13  1  0
 13 14  1  0
 14 15  1  0
 15 16  2  0
 15 17  1  0
 17 18  2  0
 18 19  1  0
 19 20  2  0
 20 21  1  0
 21 22  2  0
 22 23  1  0
 22 24  1  0
 24 25  2  0
 25 26  1  0
 26 27  2  0
  9  4  1  0
 27 17  1  0
 26 20  1  0
  1 28  1  0
  1 29  1  0
  1 30  1  0
  2 31  1  0
  3 32  1  0
  3 33  1  0
  3 34  1  0
  5 35  1  0
  6 36  1  0
  7 37  1  0
  8 38  1  0
 10 39  1  0
 13 40  1  0
 13 41  1  0
 14 42  1  0
 18 43  1  0
 19 44  1  0
 21 45  1  0
 24 46  1  0
 25 47  1  0
M  END
>  <smiles>  (5) 
CC(C)c1ccccc1NC(=O)CNC(=O)c1ccc2cc(Cl)ccc2n1

>  <score_type>  (5) 
oracle

>  <origin>  (5) 
autodockgpu

>  <m_score__min__energy>  (5) 
-9.2699999999999996

>  <m_primary>  (5) 
energy

>  <rmsd>  (5) 
2.7205695832814922

>  <m_score__min__rmsd>  (5) 
2.7205695832814922

>  <meeko>  (5) 
{"free_energy": -8.75, "intermolecular_energy": -10.24, "internal_energy": -1.32, "cluster_size": 26, "cluster_id": 1, "rank_in_cluster": 10}

>  <energy>  (5) 
-9.17

>  <cluster_rmsd>  (5) 
0.27

>  <cluster>  (5) 
1

$$$$

     RDKit          3D

 47 49  0  0  0  0  0  0  0  0999 V2000
  140.1100   71.8800  228.6860 C   0  0  0  0  0  0  0  0  0  0  0  0
  140.3150   71.6400  227.2220 C   0  0  0  0  0  0  0  0  0  0  0  0
  141.6620   72.2690  226.8850 C   0  0  0  0  0  0  0  0  0  0  0  0
  140.3380   70.1730  226.9550 C   0  0  0  0  0  0  0  0  0  0  0  0
  141.0390   69.4110  227.9000 C   0  0  0  0  0  0  0  0  0  0  0  0
  141.1620   68.0460  227.7840 C   0  0  0  0  0  0  0  0  0  0  0  0
  140.5620   67.4590  226.6940 C   0  0  0  0  0  0  0  0  0  0  0  0
  139.8690   68.2110  225.7620 C   0  0  0  0  0  0  0  0  0  0  0  0
  139.7330   69.5910  225.8590 C   0  0  0  0  0  0  0  0  0  0  0  0
  139.0430   70.3780  224.9470 N   0  0  0  0  0  0  0  0  0  0  0  0
  137.7690   70.1490  224.3920 C   0  0  0  0  0  0  0  0  0  0  0  0
  137.0950   69.1600  224.6780 O   0  0  0  0  0  0  0  0  0  0  0  0
  137.1940   71.1220  223.4200 C   0  0  0  0  0  0  0  0  0  0  0  0
  136.3450   72.0210  224.1770 N   0  0  0  0  0  0  0  0  0  0  0  0
  135.0930   71.5980  224.6830 C   0  0  0  0  0  0  0  0  0  0  0  0
  134.6200   70.4440  224.5250 O   0  0  0  0  0  0  0  0  0  0  0  0
  134.2970   72.5830  225.4440 C   0  0  0  0  0  0  0  0  0  0  0  0
  133.2310   72.1700  226.2330 C   0  0  0  0  0  0  0  0  0  0  0  0
  132.4550   73.0270  226.9610 C   0  0  0  0  0  0  0  0  0  0  0  0
  132.7560   74.3710  226.9020 C   0  0  0  0  0  0  0  0  0  0  0  0
  131.9960   75.2620  227.6220 C   0  0  0  0  0  0  0  0  0  0  0  0
  132.3090   76.5960  227.5530 C   0  0  0  0  0  0  0  0  0  0  0  0
  131.3420   77.7390  228.4700 Cl  0  0  0  0  0  0  0  0  0  0  0  0
  133.3510   77.0170  226.7840 C   0  0  0  0  0  0  0  0  0  0  0  0
  134.1250   76.1160  226.0510 C   0  0  0  0  0  0  0  0  0  0  0  0
  133.8220   74.7640  226.1110 C   0  0  0  0  0  0  0  0  0  0  0  0
  134.5680   73.8960  225.4050 N   0  0  0  0  0  0  0  0  0  0  0  0
  140.7183   71.1679  229.2630 H   0  0  0  0  0  0  0  0  0  0  0  0
  140.4135   72.9075  228.9352 H   0  0  0  0  0  0  0  0  0  0  0  0
  139.0477   71.7408  228.9352 H   0  0  0  0  0  0  0  0  0  0  0  0
  139.5094   72.0742  226.6117 H   0  0  0  0  0  0  0  0  0  0  0  0
  142.1938   72.5173  227.8154 H   0  0  0  0  0  0  0  0  0  0  0  0
  142.2621   71.5580  226.2982 H   0  0  0  0  0  0  0  0  0  0  0  0
  141.5021   73.1856  226.2982 H   0  0  0  0  0  0  0  0  0  0  0  0
  141.5036   69.9188  228.7581 H   0  0  0  0  0  0  0  0  0  0  0  0
  141.7138   67.4520  228.5274 H   0  0  0  0  0  0  0  0  0  0  0  0
  140.6347   66.3695  226.5607 H   0  0  0  0  0  0  0  0  0  0  0  0
  139.4060   67.6949  224.9080 H   0  0  0  0  0  0  0  0  0  0  0  0
  139.5170   71.2770  224.6170 H   0  0  0  0  0  0  0  0  0  0  0  0
  137.9998   71.6868  222.9284 H   0  0  0  0  0  0  0  0  0  0  0  0
  136.6204   70.6044  222.6370 H   0  0  0  0  0  0  0  0  0  0  0  0
  136.6670   73.0140  224.3580 H   0  0  0  0  0  0  0  0  0  0  0  0
  132.9992   71.0955  226.2739 H   0  0  0  0  0  0  0  0  0  0  0  0
  131.6190   72.6574  227.5730 H   0  0  0  0  0  0  0  0  0  0  0  0
  131.1554   74.9131  228.2398 H   0  0  0  0  0  0  0  0  0  0  0  0
  133.5878   78.0903  226.7395 H   0  0  0  0  0  0  0  0  0  0  0  0
  134.9632   76.4731  225.4346 H   0  0  0  0  0  0  0  0  0  0  0  0
  1  2  1  0
  2  3  1  0
  2  4  1  0
  4  5  2  0
  5  6  1  0
  6  7  2  0
  7  8  1  0
  8  9  2  0
  9 10  1  0
 10 11  1  0
 11 12  2  0
 11 13  1  0
 13 14  1  0
 14 15  1  0
 15 16  2  0
 15 17  1  0
 17 18  2  0
 18 19  1  0
 19 20  2  0
 20 21  1  0
 21 22  2  0
 22 23  1  0
 22 24  1  0
 24 25  2  0
 25 26  1  0
 26 27  2  0
  9  4  1  0
 27 17  1  0
 26 20  1  0
  1 28  1  0
  1 29  1  0
  1 30  1  0
  2 31  1  0
  3 32  1  0
  3 33  1  0
  3 34  1  0
  5 35  1  0
  6 36  1  0
  7 37  1  0
  8 38  1  0
 10 39  1  0
 13 40  1  0
 13 41  1  0
 14 42  1  0
 18 43  1  0
 19 44  1  0
 21 45  1  0
 24 46  1  0
 25 47  1  0
M  END
>  <smiles>  (6) 
CC(C)c1ccccc1NC(=O)CNC(=O)c1ccc2cc(Cl)ccc2n1

>  <score_type>  (6) 
oracle

>  <origin>  (6) 
autodockgpu

>  <m_score__min__energy>  (6) 
-9.2699999999999996

>  <m_primary>  (6) 
energy

>  <rmsd>  (6) 
8.427499157353893

>  <m_score__min__rmsd>  (6) 
8.427499157353893

>  <meeko>  (6) 
{"free_energy": -8.69, "intermolecular_energy": -10.18, "internal_energy": -1.41, "cluster_size": 3, "cluster_id": 3, "rank_in_cluster": 1}

>  <energy>  (6) 
-9.13

>  <cluster_rmsd>  (6) 
0.28

>  <cluster>  (6) 
1

$$$$

     RDKit          3D

 47 49  0  0  0  0  0  0  0  0999 V2000
  141.1700   78.7350  223.8370 C   0  0  0  0  0  0  0  0  0  0  0  0
  140.2190   78.3130  222.7590 C   0  0  0  0  0  0  0  0  0  0  0  0
  138.9290   79.0850  223.0200 C   0  0  0  0  0  0  0  0  0  0  0  0
  140.7850   78.6700  221.4260 C   0  0  0  0  0  0  0  0  0  0  0  0
  141.6250   79.7920  221.4210 C   0  0  0  0  0  0  0  0  0  0  0  0
  142.2110   80.2530  220.2650 C   0  0  0  0  0  0  0  0  0  0  0  0
  141.9360   79.5610  219.1090 C   0  0  0  0  0  0  0  0  0  0  0  0
  141.1060   78.4520  219.1150 C   0  0  0  0  0  0  0  0  0  0  0  0
  140.5030   77.9690  220.2700 C   0  0  0  0  0  0  0  0  0  0  0  0
  139.6700   76.8590  220.3160 N   0  0  0  0  0  0  0  0  0  0  0  0
  139.7790   75.7260  221.1440 C   0  0  0  0  0  0  0  0  0  0  0  0
  140.6870   75.5960  221.9650 O   0  0  0  0  0  0  0  0  0  0  0  0
  138.7750   74.6290  221.0420 C   0  0  0  0  0  0  0  0  0  0  0  0
  139.0580   73.6980  222.1170 N   0  0  0  0  0  0  0  0  0  0  0  0
  138.9640   72.3000  221.9210 C   0  0  0  0  0  0  0  0  0  0  0  0
  138.6370   71.7580  220.8350 O   0  0  0  0  0  0  0  0  0  0  0  0
  139.2720   71.4280  223.0730 C   0  0  0  0  0  0  0  0  0  0  0  0
  138.9100   70.0870  223.0610 C   0  0  0  0  0  0  0  0  0  0  0  0
  139.1640   69.2270  224.0920 C   0  0  0  0  0  0  0  0  0  0  0  0
  139.8160   69.7280  225.1990 C   0  0  0  0  0  0  0  0  0  0  0  0
  140.0880   68.8910  226.2550 C   0  0  0  0  0  0  0  0  0  0  0  0
  140.7380   69.4060  227.3480 C   0  0  0  0  0  0  0  0  0  0  0  0
  141.0890   68.3420  228.7000 Cl  0  0  0  0  0  0  0  0  0  0  0  0
  141.1010   70.7190  227.3760 C   0  0  0  0  0  0  0  0  0  0  0  0
  140.8260   71.5720  226.3060 C   0  0  0  0  0  0  0  0  0  0  0  0
  140.1700   71.0670  225.1930 C   0  0  0  0  0  0  0  0  0  0  0  0
  139.9060   71.8890  224.1630 N   0  0  0  0  0  0  0  0  0  0  0  0
  140.7207   78.5356  224.8210 H   0  0  0  0  0  0  0  0  0  0  0  0
  142.1081   78.1687  223.7407 H   0  0  0  0  0  0  0  0  0  0  0  0
  141.3795   79.8106  223.7407 H   0  0  0  0  0  0  0  0  0  0  0  0
  140.0406   77.2276  222.7623 H   0  0  0  0  0  0  0  0  0  0  0  0
  138.7712   79.1794  224.1045 H   0  0  0  0  0  0  0  0  0  0  0  0
  139.0041   80.0867  222.5718 H   0  0  0  0  0  0  0  0  0  0  0  0
  138.0817   78.5454  222.5718 H   0  0  0  0  0  0  0  0  0  0  0  0
  141.8209   80.3181  222.3670 H   0  0  0  0  0  0  0  0  0  0  0  0
  142.8691   81.1344  220.2653 H   0  0  0  0  0  0  0  0  0  0  0  0
  142.3838   79.8945  218.1612 H   0  0  0  0  0  0  0  0  0  0  0  0
  140.9161   77.9314  218.1648 H   0  0  0  0  0  0  0  0  0  0  0  0
  138.8330   76.8470  219.6520 H   0  0  0  0  0  0  0  0  0  0  0  0
  137.7585   75.0351  221.1510 H   0  0  0  0  0  0  0  0  0  0  0  0
  138.8345   74.1304  220.0633 H   0  0  0  0  0  0  0  0  0  0  0  0
  139.3420   74.0700  223.0670 H   0  0  0  0  0  0  0  0  0  0  0  0
  138.3908   69.6962  222.1735 H   0  0  0  0  0  0  0  0  0  0  0  0
  138.8589   68.1714  224.0407 H   0  0  0  0  0  0  0  0  0  0  0  0
  139.7912   67.8322  226.2244 H   0  0  0  0  0  0  0  0  0  0  0  0
  141.6216   71.1150  228.2604 H   0  0  0  0  0  0  0  0  0  0  0  0
  141.1253   72.6298  226.3448 H   0  0  0  0  0  0  0  0  0  0  0  0
  1  2  1  0
  2  3  1  0
  2  4  1  0
  4  5  2  0
  5  6  1  0
  6  7  2  0
  7  8  1  0
  8  9  2  0
  9 10  1  0
 10 11  1  0
 11 12  2  0
 11 13  1  0
 13 14  1  0
 14 15  1  0
 15 16  2  0
 15 17  1  0
 17 18  2  0
 18 19  1  0
 19 20  2  0
 20 21  1  0
 21 22  2  0
 22 23  1  0
 22 24  1  0
 24 25  2  0
 25 26  1  0
 26 27  2  0
  9  4  1  0
 27 17  1  0
 26 20  1  0
  1 28  1  0
  1 29  1  0
  1 30  1  0
  2 31  1  0
  3 32  1  0
  3 33  1  0
  3 34  1  0
  5 35  1  0
  6 36  1  0
  7 37  1  0
  8 38  1  0
 10 39  1  0
 13 40  1  0
 13 41  1  0
 14 42  1  0
 18 43  1  0
 19 44  1  0
 21 45  1  0
 24 46  1  0
 25 47  1  0
M  END
>  <smiles>  (7) 
CC(C)c1ccccc1NC(=O)CNC(=O)c1ccc2cc(Cl)ccc2n1

>  <score_type>  (7) 
oracle

>  <origin>  (7) 
autodockgpu

>  <m_score__min__energy>  (7) 
-9.2699999999999996

>  <m_primary>  (7) 
energy

>  <rmsd>  (7) 
3.120475723042446

>  <m_score__min__rmsd>  (7) 
3.120475723042446

>  <meeko>  (7) 
{"free_energy": -7.76, "intermolecular_energy": -9.26, "internal_energy": -1.78, "cluster_size": 26, "cluster_id": 1, "rank_in_cluster": 25}

>  <energy>  (7) 
-9.11

>  <cluster_rmsd>  (7) 
0.29

>  <cluster>  (7) 
1

$$$$

     RDKit          3D

 47 49  0  0  0  0  0  0  0  0999 V2000
  140.2540   67.3620  226.1840 C   0  0  0  0  0  0  0  0  0  0  0  0
  139.9110   68.6090  225.4270 C   0  0  0  0  0  0  0  0  0  0  0  0
  138.3920   68.6070  225.2950 C   0  0  0  0  0  0  0  0  0  0  0  0
  140.3710   69.8020  226.1950 C   0  0  0  0  0  0  0  0  0  0  0  0
  140.6600   69.5610  227.5450 C   0  0  0  0  0  0  0  0  0  0  0  0
  141.0820   70.5640  228.3870 C   0  0  0  0  0  0  0  0  0  0  0  0
  141.2080   71.8200  227.8410 C   0  0  0  0  0  0  0  0  0  0  0  0
  140.9230   72.0580  226.5080 C   0  0  0  0  0  0  0  0  0  0  0  0
  140.4950   71.0600  225.6400 C   0  0  0  0  0  0  0  0  0  0  0  0
  140.2050   71.2580  224.2970 N   0  0  0  0  0  0  0  0  0  0  0  0
  138.9450   71.4610  223.7030 C   0  0  0  0  0  0  0  0  0  0  0  0
  137.9040   71.4840  224.3590 O   0  0  0  0  0  0  0  0  0  0  0  0
  138.8390   71.6580  222.2290 C   0  0  0  0  0  0  0  0  0  0  0  0
  139.2090   73.0340  221.9600 N   0  0  0  0  0  0  0  0  0  0  0  0
  140.5650   73.4270  221.8690 C   0  0  0  0  0  0  0  0  0  0  0  0
  141.5390   72.6440  222.0110 O   0  0  0  0  0  0  0  0  0  0  0  0
  140.8460   74.8500  221.5910 C   0  0  0  0  0  0  0  0  0  0  0  0
  141.6570   75.2130  220.5230 C   0  0  0  0  0  0  0  0  0  0  0  0
  141.9560   76.5090  220.2100 C   0  0  0  0  0  0  0  0  0  0  0  0
  141.4190   77.5010  221.0040 C   0  0  0  0  0  0  0  0  0  0  0  0
  141.7000   78.8160  220.7180 C   0  0  0  0  0  0  0  0  0  0  0  0
  141.1570   79.7900  221.5160 C   0  0  0  0  0  0  0  0  0  0  0  0
  141.5100   81.4720  221.1570 Cl  0  0  0  0  0  0  0  0  0  0  0  0
  140.3590   79.4500  222.5670 C   0  0  0  0  0  0  0  0  0  0  0  0
  140.0720   78.1160  222.8610 C   0  0  0  0  0  0  0  0  0  0  0  0
  140.6130   77.1200  222.0630 C   0  0  0  0  0  0  0  0  0  0  0  0
  140.3360   75.8350  222.3460 N   0  0  0  0  0  0  0  0  0  0  0  0
  140.1990   67.5620  227.2643 H   0  0  0  0  0  0  0  0  0  0  0  0
  139.5414   66.5661  225.9217 H   0  0  0  0  0  0  0  0  0  0  0  0
  141.2734   67.0425  225.9217 H   0  0  0  0  0  0  0  0  0  0  0  0
  140.3961   68.6445  224.4404 H   0  0  0  0  0  0  0  0  0  0  0  0
  137.9369   68.6064  226.2965 H   0  0  0  0  0  0  0  0  0  0  0  0
  138.0704   69.5047  224.7467 H   0  0  0  0  0  0  0  0  0  0  0  0
  138.0728   67.7084  224.7467 H   0  0  0  0  0  0  0  0  0  0  0  0
  140.5463   68.5416  227.9425 H   0  0  0  0  0  0  0  0  0  0  0  0
  141.3078   70.3706  229.4461 H   0  0  0  0  0  0  0  0  0  0  0  0
  141.5423   72.6527  228.4772 H   0  0  0  0  0  0  0  0  0  0  0  0
  141.0401   73.0801  226.1187 H   0  0  0  0  0  0  0  0  0  0  0  0
  141.0260   71.2670  223.6140 H   0  0  0  0  0  0  0  0  0  0  0  0
  139.5227   70.9733  221.7058 H   0  0  0  0  0  0  0  0  0  0  0  0
  137.8183   71.4487  221.8763 H   0  0  0  0  0  0  0  0  0  0  0  0
  138.4490   73.7610  221.8260 H   0  0  0  0  0  0  0  0  0  0  0  0
  142.0809   74.4147  219.8961 H   0  0  0  0  0  0  0  0  0  0  0  0
  142.6027   76.7529  219.3543 H   0  0  0  0  0  0  0  0  0  0  0  0
  142.3460   79.0809  219.8680 H   0  0  0  0  0  0  0  0  0  0  0  0
  139.9318   80.2439  223.1973 H   0  0  0  0  0  0  0  0  0  0  0  0
  139.4260   77.8589  223.7134 H   0  0  0  0  0  0  0  0  0  0  0  0
  1  2  1  0
  2  3  1  0
  2  4  1  0
  4  5  2  0
  5  6  1  0
  6  7  2  0
  7  8  1  0
  8  9  2  0
  9 10  1  0
 10 11  1  0
 11 12  2  0
 11 13  1  0
 13 14  1  0
 14 15  1  0
 15 16  2  0
 15 17  1  0
 17 18  2  0
 18 19  1  0
 19 20  2  0
 20 21  1  0
 21 22  2  0
 22 23  1  0
 22 24  1  0
 24 25  2  0
 25 26  1  0
 26 27  2  0
  9  4  1  0
 27 17  1  0
 26 20  1  0
  1 28  1  0
  1 29  1  0
  1 30  1  0
  2 31  1  0
  3 32  1  0
  3 33  1  0
  3 34  1  0
  5 35  1  0
  6 36  1  0
  7 37  1  0
  8 38  1  0
 10 39  1  0
 13 40  1  0
 13 41  1  0
 14 42  1  0
 18 43  1  0
 19 44  1  0
 21 45  1  0
 24 46  1  0
 25 47  1  0
M  END
>  <smiles>  (8) 
CC(C)c1ccccc1NC(=O)CNC(=O)c1ccc2cc(Cl)ccc2n1

>  <score_type>  (8) 
oracle

>  <origin>  (8) 
autodockgpu

>  <m_score__min__energy>  (8) 
-9.2699999999999996

>  <m_primary>  (8) 
energy

>  <rmsd>  (8) 
8.399854665915871

>  <m_score__min__rmsd>  (8) 
8.399854665915871

>  <meeko>  (8) 
{"free_energy": -8.22, "intermolecular_energy": -9.71, "internal_energy": -1.99, "cluster_size": 18, "cluster_id": 2, "rank_in_cluster": 14}

>  <energy>  (8) 
-9.09

>  <cluster_rmsd>  (8) 
0.3

>  <cluster>  (8) 
1

$$$$

     RDKit          3D

 47 49  0  0  0  0  0  0  0  0999 V2000
  140.0070   79.2830  219.7090 C   0  0  0  0  0  0  0  0  0  0  0  0
  141.4650   79.2810  220.0550 C   0  0  0  0  0  0  0  0  0  0  0  0
  142.0440   80.5360  219.4120 C   0  0  0  0  0  0  0  0  0  0  0  0
  141.6260   79.3260  221.5370 C   0  0  0  0  0  0  0  0  0  0  0  0
  141.9910   80.5760  222.0540 C   0  0  0  0  0  0  0  0  0  0  0  0
  142.1920   80.7730  223.4010 C   0  0  0  0  0  0  0  0  0  0  0  0
  142.0170   79.6830  224.2210 C   0  0  0  0  0  0  0  0  0  0  0  0
  141.6560   78.4480  223.7090 C   0  0  0  0  0  0  0  0  0  0  0  0
  141.4490   78.2260  222.3530 C   0  0  0  0  0  0  0  0  0  0  0  0
  141.0830   77.0050  221.8040 N   0  0  0  0  0  0  0  0  0  0  0  0
  139.7870   76.4740  221.6560 C   0  0  0  0  0  0  0  0  0  0  0  0
  138.7810   77.0800  222.0240 O   0  0  0  0  0  0  0  0  0  0  0  0
  139.5990   75.1320  221.0350 C   0  0  0  0  0  0  0  0  0  0  0  0
  139.6800   74.1570  222.1050 N   0  0  0  0  0  0  0  0  0  0  0  0
  139.9130   72.7880  221.8370 C   0  0  0  0  0  0  0  0  0  0  0  0
  140.0640   72.3090  220.6840 O   0  0  0  0  0  0  0  0  0  0  0  0
  139.9820   71.8690  222.9910 C   0  0  0  0  0  0  0  0  0  0  0  0
  139.5310   70.5600  222.8780 C   0  0  0  0  0  0  0  0  0  0  0  0
  139.5660   69.6590  223.9050 C   0  0  0  0  0  0  0  0  0  0  0  0
  140.0770   70.0830  225.1130 C   0  0  0  0  0  0  0  0  0  0  0  0
  140.1270   69.2030  226.1680 C   0  0  0  0  0  0  0  0  0  0  0  0
  140.6390   69.6420  227.3630 C   0  0  0  0  0  0  0  0  0  0  0  0
  140.7060   68.5230  228.7140 Cl  0  0  0  0  0  0  0  0  0  0  0  0
  141.0850   70.9220  227.4900 C   0  0  0  0  0  0  0  0  0  0  0  0
  141.0360   71.8190  226.4210 C   0  0  0  0  0  0  0  0  0  0  0  0
  140.5210   71.3910  225.2070 C   0  0  0  0  0  0  0  0  0  0  0  0
  140.4740   72.2550  224.1770 N   0  0  0  0  0  0  0  0  0  0  0  0
  139.4108   79.2838  220.6334 H   0  0  0  0  0  0  0  0  0  0  0  0
  139.7712   80.1815  219.1198 H   0  0  0  0  0  0  0  0  0  0  0  0
  139.7687   78.3852  219.1198 H   0  0  0  0  0  0  0  0  0  0  0  0
  141.9780   78.3772  219.6944 H   0  0  0  0  0  0  0  0  0  0  0  0
  142.3665   81.2351  220.1977 H   0  0  0  0  0  0  0  0  0  0  0  0
  142.9072   80.2630  218.7872 H   0  0  0  0  0  0  0  0  0  0  0  0
  141.2761   81.0155  218.7872 H   0  0  0  0  0  0  0  0  0  0  0  0
  142.1204   81.4231  221.3643 H   0  0  0  0  0  0  0  0  0  0  0  0
  142.4791   81.7559  223.8028 H   0  0  0  0  0  0  0  0  0  0  0  0
  142.1667   79.7943  225.3051 H   0  0  0  0  0  0  0  0  0  0  0  0
  141.5276   77.6065  224.4057 H   0  0  0  0  0  0  0  0  0  0  0  0
  141.8650   76.3770  221.4380 H   0  0  0  0  0  0  0  0  0  0  0  0
  138.6152   75.0760  220.5461 H   0  0  0  0  0  0  0  0  0  0  0  0
  140.3663   74.9414  220.2701 H   0  0  0  0  0  0  0  0  0  0  0  0
  139.5640   74.4750  223.1100 H   0  0  0  0  0  0  0  0  0  0  0  0
  139.1241   70.2311  221.9104 H   0  0  0  0  0  0  0  0  0  0  0  0
  139.1989   68.6306  223.7722 H   0  0  0  0  0  0  0  0  0  0  0  0
  139.7648   68.1703  226.0567 H   0  0  0  0  0  0  0  0  0  0  0  0
  141.4927   71.2567  228.4553 H   0  0  0  0  0  0  0  0  0  0  0  0
  141.4006   72.8499  226.5403 H   0  0  0  0  0  0  0  0  0  0  0  0
  1  2  1  0
  2  3  1  0
  2  4  1  0
  4  5  2  0
  5  6  1  0
  6  7  2  0
  7  8  1  0
  8  9  2  0
  9 10  1  0
 10 11  1  0
 11 12  2  0
 11 13  1  0
 13 14  1  0
 14 15  1  0
 15 16  2  0
 15 17  1  0
 17 18  2  0
 18 19  1  0
 19 20  2  0
 20 21  1  0
 21 22  2  0
 22 23  1  0
 22 24  1  0
 24 25  2  0
 25 26  1  0
 26 27  2  0
  9  4  1  0
 27 17  1  0
 26 20  1  0
  1 28  1  0
  1 29  1  0
  1 30  1  0
  2 31  1  0
  3 32  1  0
  3 33  1  0
  3 34  1  0
  5 35  1  0
  6 36  1  0
  7 37  1  0
  8 38  1  0
 10 39  1  0
 13 40  1  0
 13 41  1  0
 14 42  1  0
 18 43  1  0
 19 44  1  0
 21 45  1  0
 24 46  1  0
 25 47  1  0
M  END
>  <smiles>  (9) 
CC(C)c1ccccc1NC(=O)CNC(=O)c1ccc2cc(Cl)ccc2n1

>  <score_type>  (9) 
oracle

>  <origin>  (9) 
autodockgpu

>  <m_score__min__energy>  (9) 
-9.2699999999999996

>  <m_primary>  (9) 
energy

>  <rmsd>  (9) 
2.7504077642467912

>  <m_score__min__rmsd>  (9) 
2.7504077642467912

>  <meeko>  (9) 
{"free_energy": -9.17, "intermolecular_energy": -10.66, "internal_energy": -1.34, "cluster_size": 26, "cluster_id": 1, "rank_in_cluster": 5}

>  <energy>  (9) 
-8.84

>  <cluster_rmsd>  (9) 
1.8

>  <cluster>  (9) 
1

$$$$

     RDKit          3D

 47 49  0  0  0  0  0  0  0  0999 V2000
  140.6380   80.7280  218.5210 C   0  0  0  0  0  0  0  0  0  0  0  0
  141.2370   79.4690  219.0690 C   0  0  0  0  0  0  0  0  0  0  0  0
  142.5480   79.2740  218.3140 C   0  0  0  0  0  0  0  0  0  0  0  0
  141.4890   79.6300  220.5290 C   0  0  0  0  0  0  0  0  0  0  0  0
  141.8590   80.9220  220.9270 C   0  0  0  0  0  0  0  0  0  0  0  0
  142.1390   81.2240  222.2400 C   0  0  0  0  0  0  0  0  0  0  0  0
  142.0380   80.1970  223.1490 C   0  0  0  0  0  0  0  0  0  0  0  0
  141.6730   78.9210  222.7560 C   0  0  0  0  0  0  0  0  0  0  0  0
  141.3860   78.5930  221.4360 C   0  0  0  0  0  0  0  0  0  0  0  0
  141.0120   77.3280  221.0050 N   0  0  0  0  0  0  0  0  0  0  0  0
  140.1880   76.3950  221.6630 C   0  0  0  0  0  0  0  0  0  0  0  0
  139.6830   76.6240  222.7620 O   0  0  0  0  0  0  0  0  0  0  0  0
  139.9010   75.0770  221.0290 C   0  0  0  0  0  0  0  0  0  0  0  0
  139.8730   74.0940  222.0950 N   0  0  0  0  0  0  0  0  0  0  0  0
  140.2470   72.7490  221.8650 C   0  0  0  0  0  0  0  0  0  0  0  0
  140.6220   72.3000  220.7520 O   0  0  0  0  0  0  0  0  0  0  0  0
  140.1890   71.8200  223.0120 C   0  0  0  0  0  0  0  0  0  0  0  0
  139.6200   70.5600  222.8710 C   0  0  0  0  0  0  0  0  0  0  0  0
  139.5350   69.6530  223.8890 C   0  0  0  0  0  0  0  0  0  0  0  0
  140.0420   70.0190  225.1180 C   0  0  0  0  0  0  0  0  0  0  0  0
  139.9730   69.1310  226.1650 C   0  0  0  0  0  0  0  0  0  0  0  0
  140.4840   69.5100  227.3800 C   0  0  0  0  0  0  0  0  0  0  0  0
  140.3990   68.3810  228.7220 Cl  0  0  0  0  0  0  0  0  0  0  0  0
  141.0440   70.7420  227.5350 C   0  0  0  0  0  0  0  0  0  0  0  0
  141.1170   71.6470  226.4740 C   0  0  0  0  0  0  0  0  0  0  0  0
  140.6050   71.2780  225.2390 C   0  0  0  0  0  0  0  0  0  0  0  0
  140.6750   72.1490  224.2180 N   0  0  0  0  0  0  0  0  0  0  0  0
  140.3284   81.3787  219.3521 H   0  0  0  0  0  0  0  0  0  0  0  0
  141.3839   81.2507  217.9043 H   0  0  0  0  0  0  0  0  0  0  0  0
  139.7619   80.4790  217.9043 H   0  0  0  0  0  0  0  0  0  0  0  0
  140.5724   78.6015  218.9433 H   0  0  0  0  0  0  0  0  0  0  0  0
  143.3709   79.1516  219.0337 H   0  0  0  0  0  0  0  0  0  0  0  0
  142.4771   78.3765  217.6819 H   0  0  0  0  0  0  0  0  0  0  0  0
  142.7414   80.1533  217.6819 H   0  0  0  0  0  0  0  0  0  0  0  0
  141.9274   81.7163  220.1691 H   0  0  0  0  0  0  0  0  0  0  0  0
  142.4300   82.2391  222.5480 H   0  0  0  0  0  0  0  0  0  0  0  0
  142.2516   80.3936  224.2100 H   0  0  0  0  0  0  0  0  0  0  0  0
  141.6073   78.1330  223.5207 H   0  0  0  0  0  0  0  0  0  0  0  0
  141.3800   77.0050  220.0560 H   0  0  0  0  0  0  0  0  0  0  0  0
  138.9280   75.1075  220.5169 H   0  0  0  0  0  0  0  0  0  0  0  0
  140.6669   74.8248  220.2809 H   0  0  0  0  0  0  0  0  0  0  0  0
  139.5690   74.3880  223.0670 H   0  0  0  0  0  0  0  0  0  0  0  0
  139.2166   70.2780  221.8873 H   0  0  0  0  0  0  0  0  0  0  0  0
  139.0778   68.6646  223.7337 H   0  0  0  0  0  0  0  0  0  0  0  0
  139.5181   68.1384  226.0313 H   0  0  0  0  0  0  0  0  0  0  0  0
  141.4474   71.0302  228.5170 H   0  0  0  0  0  0  0  0  0  0  0  0
  141.5737   72.6376  226.6156 H   0  0  0  0  0  0  0  0  0  0  0  0
  1  2  1  0
  2  3  1  0
  2  4  1  0
  4  5  2  0
  5  6  1  0
  6  7  2  0
  7  8  1  0
  8  9  2  0
  9 10  1  0
 10 11  1  0
 11 12  2  0
 11 13  1  0
 13 14  1  0
 14 15  1  0
 15 16  2  0
 15 17  1  0
 17 18  2  0
 18 19  1  0
 19 20  2  0
 20 21  1  0
 21 22  2  0
 22 23  1  0
 22 24  1  0
 24 25  2  0
 25 26  1  0
 26 27  2  0
  9  4  1  0
 27 17  1  0
 26 20  1  0
  1 28  1  0
  1 29  1  0
  1 30  1  0
  2 31  1  0
  3 32  1  0
  3 33  1  0
  3 34  1  0
  5 35  1  0
  6 36  1  0
  7 37  1  0
  8 38  1  0
 10 39  1  0
 13 40  1  0
 13 41  1  0
 14 42  1  0
 18 43  1  0
 19 44  1  0
 21 45  1  0
 24 46  1  0
 25 47  1  0
M  END
>  <smiles>  (10) 
CC(C)c1ccccc1NC(=O)CNC(=O)c1ccc2cc(Cl)ccc2n1

>  <score_type>  (10) 
oracle

>  <origin>  (10) 
autodockgpu

>  <m_score__min__energy>  (10) 
-9.2699999999999996

>  <m_primary>  (10) 
energy

>  <rmsd>  (10) 
2.859142151745411

>  <m_score__min__rmsd>  (10) 
2.859142151745411

>  <meeko>  (10) 
{"free_energy": -8.27, "intermolecular_energy": -9.76, "internal_energy": -1.66, "cluster_size": 26, "cluster_id": 1, "rank_in_cluster": 19}

>  <energy>  (10) 
-8.75

>  <cluster_rmsd>  (10) 
0.95

>  <cluster>  (10) 
1

$$$$

     RDKit          3D

 47 49  0  0  0  0  0  0  0  0999 V2000
  137.5370   79.8390  223.5130 C   0  0  0  0  0  0  0  0  0  0  0  0
  138.5010   79.9600  222.3720 C   0  0  0  0  0  0  0  0  0  0  0  0
  138.3350   81.3800  221.8410 C   0  0  0  0  0  0  0  0  0  0  0  0
  139.8910   79.7430  222.8680 C   0  0  0  0  0  0  0  0  0  0  0  0
  140.5400   80.8950  223.3340 C   0  0  0  0  0  0  0  0  0  0  0  0
  141.8300   80.8580  223.8100 C   0  0  0  0  0  0  0  0  0  0  0  0
  142.4580   79.6350  223.8080 C   0  0  0  0  0  0  0  0  0  0  0  0
  141.8170   78.4970  223.3470 C   0  0  0  0  0  0  0  0  0  0  0  0
  140.5150   78.5120  222.8620 C   0  0  0  0  0  0  0  0  0  0  0  0
  139.8380   77.3920  222.3970 N   0  0  0  0  0  0  0  0  0  0  0  0
  140.3420   76.3350  221.6160 C   0  0  0  0  0  0  0  0  0  0  0  0
  141.5140   76.2950  221.2410 O   0  0  0  0  0  0  0  0  0  0  0  0
  139.4470   75.2130  221.2140 C   0  0  0  0  0  0  0  0  0  0  0  0
  139.5410   74.2060  222.2540 N   0  0  0  0  0  0  0  0  0  0  0  0
  139.8410   72.8580  221.9480 C   0  0  0  0  0  0  0  0  0  0  0  0
  140.0450   72.4260  220.7850 O   0  0  0  0  0  0  0  0  0  0  0  0
  139.9170   71.9040  223.0730 C   0  0  0  0  0  0  0  0  0  0  0  0
  139.4310   70.6100  222.9360 C   0  0  0  0  0  0  0  0  0  0  0  0
  139.4700   69.6790  223.9340 C   0  0  0  0  0  0  0  0  0  0  0  0
  140.0240   70.0550  225.1400 C   0  0  0  0  0  0  0  0  0  0  0  0
  140.0800   69.1440  226.1670 C   0  0  0  0  0  0  0  0  0  0  0  0
  140.6340   69.5340  227.3600 C   0  0  0  0  0  0  0  0  0  0  0  0
  140.7090   68.3750  228.6760 Cl  0  0  0  0  0  0  0  0  0  0  0  0
  141.1160   70.8000  227.5110 C   0  0  0  0  0  0  0  0  0  0  0  0
  141.0600   71.7290  226.4700 C   0  0  0  0  0  0  0  0  0  0  0  0
  140.5030   71.3490  225.2590 C   0  0  0  0  0  0  0  0  0  0  0  0
  140.4500   72.2430  224.2560 N   0  0  0  0  0  0  0  0  0  0  0  0
  138.0846   79.9077  224.4645 H   0  0  0  0  0  0  0  0  0  0  0  0
  136.7975   80.6514  223.4560 H   0  0  0  0  0  0  0  0  0  0  0  0
  137.0213   78.8691  223.4560 H   0  0  0  0  0  0  0  0  0  0  0  0
  138.3113   79.2157  221.5846 H   0  0  0  0  0  0  0  0  0  0  0  0
  138.2532   82.0800  222.6855 H   0  0  0  0  0  0  0  0  0  0  0  0
  139.2081   81.6464  221.2272 H   0  0  0  0  0  0  0  0  0  0  0  0
  137.4240   81.4378  221.2272 H   0  0  0  0  0  0  0  0  0  0  0  0
  140.0028   81.8548  223.3186 H   0  0  0  0  0  0  0  0  0  0  0  0
  142.3354   81.7643  224.1751 H   0  0  0  0  0  0  0  0  0  0  0  0
  143.4904   79.5587  224.1800 H   0  0  0  0  0  0  0  0  0  0  0  0
  142.3615   77.5414  223.3656 H   0  0  0  0  0  0  0  0  0  0  0  0
  138.8060   77.3000  222.6580 H   0  0  0  0  0  0  0  0  0  0  0  0
  138.4101   75.5694  221.1251 H   0  0  0  0  0  0  0  0  0  0  0  0
  139.7456   74.8010  220.2388 H   0  0  0  0  0  0  0  0  0  0  0  0
  139.3840   74.4850  223.2650 H   0  0  0  0  0  0  0  0  0  0  0  0
  138.9906   70.3194  221.9708 H   0  0  0  0  0  0  0  0  0  0  0  0
  139.0734   68.6644  223.7816 H   0  0  0  0  0  0  0  0  0  0  0  0
  139.6892   68.1242  226.0356 H   0  0  0  0  0  0  0  0  0  0  0  0
  141.5586   71.0962  228.4735 H   0  0  0  0  0  0  0  0  0  0  0  0
  141.4521   72.7473  226.6090 H   0  0  0  0  0  0  0  0  0  0  0  0
  1  2  1  0
  2  3  1  0
  2  4  1  0
  4  5  2  0
  5  6  1  0
  6  7  2  0
  7  8  1  0
  8  9  2  0
  9 10  1  0
 10 11  1  0
 11 12  2  0
 11 13  1  0
 13 14  1  0
 14 15  1  0
 15 16  2  0
 15 17  1  0
 17 18  2  0
 18 19  1  0
 19 20  2  0
 20 21  1  0
 21 22  2  0
 22 23  1  0
 22 24  1  0
 24 25  2  0
 25 26  1  0
 26 27  2  0
  9  4  1  0
 27 17  1  0
 26 20  1  0
  1 28  1  0
  1 29  1  0
  1 30  1  0
  2 31  1  0
  3 32  1  0
  3 33  1  0
  3 34  1  0
  5 35  1  0
  6 36  1  0
  7 37  1  0
  8 38  1  0
 10 39  1  0
 13 40  1  0
 13 41  1  0
 14 42  1  0
 18 43  1  0
 19 44  1  0
 21 45  1  0
 24 46  1  0
 25 47  1  0
M  END
>  <smiles>  (11) 
CC(C)c1ccccc1NC(=O)CNC(=O)c1ccc2cc(Cl)ccc2n1

>  <score_type>  (11) 
oracle

>  <origin>  (11) 
autodockgpu

>  <m_score__min__energy>  (11) 
-9.2699999999999996

>  <m_primary>  (11) 
energy

>  <rmsd>  (11) 
3.635110566017896

>  <m_score__min__rmsd>  (11) 
3.635110566017896

>  <meeko>  (11) 
{"free_energy": -8.57, "intermolecular_energy": -10.06, "internal_energy": -1.2, "cluster_size": 26, "cluster_id": 1, "rank_in_cluster": 14}

>  <energy>  (11) 
-8.74

>  <cluster_rmsd>  (11) 
1.75

>  <cluster>  (11) 
1

$$$$

     RDKit          3D

 47 49  0  0  0  0  0  0  0  0999 V2000
  137.2770   69.4160  225.0700 C   0  0  0  0  0  0  0  0  0  0  0  0
  138.5890   68.7390  225.3220 C   0  0  0  0  0  0  0  0  0  0  0  0
  139.1950   68.4860  223.9450 C   0  0  0  0  0  0  0  0  0  0  0  0
  139.4670   69.6360  226.1270 C   0  0  0  0  0  0  0  0  0  0  0  0
  139.9890   69.0630  227.2940 C   0  0  0  0  0  0  0  0  0  0  0  0
  140.8050   69.7690  228.1470 C   0  0  0  0  0  0  0  0  0  0  0  0
  141.0860   71.0700  227.8020 C   0  0  0  0  0  0  0  0  0  0  0  0
  140.5710   71.6370  226.6490 C   0  0  0  0  0  0  0  0  0  0  0  0
  139.7450   70.9420  225.7740 C   0  0  0  0  0  0  0  0  0  0  0  0
  139.2130   71.4740  224.6070 N   0  0  0  0  0  0  0  0  0  0  0  0
  139.8260   71.5810  223.3440 C   0  0  0  0  0  0  0  0  0  0  0  0
  140.9730   71.1880  223.1330 O   0  0  0  0  0  0  0  0  0  0  0  0
  139.0820   72.1890  222.2040 C   0  0  0  0  0  0  0  0  0  0  0  0
  139.4640   73.5870  222.1490 N   0  0  0  0  0  0  0  0  0  0  0  0
  140.5490   74.0220  221.3520 C   0  0  0  0  0  0  0  0  0  0  0  0
  141.2560   73.2610  220.6440 O   0  0  0  0  0  0  0  0  0  0  0  0
  140.8630   75.4650  221.3580 C   0  0  0  0  0  0  0  0  0  0  0  0
  141.7740   75.9930  220.4510 C   0  0  0  0  0  0  0  0  0  0  0  0
  142.1100   77.3160  220.4020 C   0  0  0  0  0  0  0  0  0  0  0  0
  141.5070   78.1640  221.3070 C   0  0  0  0  0  0  0  0  0  0  0  0
  141.8220   79.5020  221.2860 C   0  0  0  0  0  0  0  0  0  0  0  0
  141.2120   80.3320  222.1930 C   0  0  0  0  0  0  0  0  0  0  0  0
  141.6090   82.0420  222.1720 Cl  0  0  0  0  0  0  0  0  0  0  0  0
  140.3170   79.8310  223.0890 C   0  0  0  0  0  0  0  0  0  0  0  0
  139.9950   78.4730  223.1130 C   0  0  0  0  0  0  0  0  0  0  0  0
  140.6020   77.6210  222.2030 C   0  0  0  0  0  0  0  0  0  0  0  0
  140.2920   76.3130  222.2260 N   0  0  0  0  0  0  0  0  0  0  0  0
  136.8007   69.6618  226.0306 H   0  0  0  0  0  0  0  0  0  0  0  0
  137.4452   70.3399  224.4972 H   0  0  0  0  0  0  0  0  0  0  0  0
  136.6215   68.7436  224.4972 H   0  0  0  0  0  0  0  0  0  0  0  0
  138.4726   67.8003  225.8835 H   0  0  0  0  0  0  0  0  0  0  0  0
  140.2045   68.0646  224.0605 H   0  0  0  0  0  0  0  0  0  0  0  0
  138.5627   67.7767  223.3908 H   0  0  0  0  0  0  0  0  0  0  0  0
  139.2548   69.4343  223.3908 H   0  0  0  0  0  0  0  0  0  0  0  0
  139.7393   68.0192  227.5349 H   0  0  0  0  0  0  0  0  0  0  0  0
  141.2133   69.3144  229.0617 H   0  0  0  0  0  0  0  0  0  0  0  0
  141.7335   71.6727  228.4558 H   0  0  0  0  0  0  0  0  0  0  0  0
  140.8263   72.6812  226.4157 H   0  0  0  0  0  0  0  0  0  0  0  0
  138.2140   71.8500  224.6500 H   0  0  0  0  0  0  0  0  0  0  0  0
  139.3528   71.6857  221.2642 H   0  0  0  0  0  0  0  0  0  0  0  0
  137.9958   72.0829  222.3415 H   0  0  0  0  0  0  0  0  0  0  0  0
  138.9200   74.2990  222.7160 H   0  0  0  0  0  0  0  0  0  0  0  0
  142.2503   75.3084  219.7337 H   0  0  0  0  0  0  0  0  0  0  0  0
  142.8362   77.6919  219.6663 H   0  0  0  0  0  0  0  0  0  0  0  0
  142.5462   79.8982  220.5590 H   0  0  0  0  0  0  0  0  0  0  0  0
  139.8378   80.5108  223.8089 H   0  0  0  0  0  0  0  0  0  0  0  0
  139.2701   78.0843  223.8434 H   0  0  0  0  0  0  0  0  0  0  0  0
  1  2  1  0
  2  3  1  0
  2  4  1  0
  4  5  2  0
  5  6  1  0
  6  7  2  0
  7  8  1  0
  8  9  2  0
  9 10  1  0
 10 11  1  0
 11 12  2  0
 11 13  1  0
 13 14  1  0
 14 15  1  0
 15 16  2  0
 15 17  1  0
 17 18  2  0
 18 19  1  0
 19 20  2  0
 20 21  1  0
 21 22  2  0
 22 23  1  0
 22 24  1  0
 24 25  2  0
 25 26  1  0
 26 27  2  0
  9  4  1  0
 27 17  1  0
 26 20  1  0
  1 28  1  0
  1 29  1  0
  1 30  1  0
  2 31  1  0
  3 32  1  0
  3 33  1  0
  3 34  1  0
  5 35  1  0
  6 36  1  0
  7 37  1  0
  8 38  1  0
 10 39  1  0
 13 40  1  0
 13 41  1  0
 14 42  1  0
 18 43  1  0
 19 44  1  0
 21 45  1  0
 24 46  1  0
 25 47  1  0
M  END
>  <smiles>  (12) 
CC(C)c1ccccc1NC(=O)CNC(=O)c1ccc2cc(Cl)ccc2n1

>  <score_type>  (12) 
oracle

>  <origin>  (12) 
autodockgpu

>  <m_score__min__energy>  (12) 
-9.2699999999999996

>  <m_primary>  (12) 
energy

>  <rmsd>  (12) 
8.369104611315015

>  <m_score__min__rmsd>  (12) 
8.369104611315015

>  <meeko>  (12) 
{"free_energy": -8.58, "intermolecular_energy": -10.07, "internal_energy": -1.33, "cluster_size": 18, "cluster_id": 2, "rank_in_cluster": 5}

>  <energy>  (12) 
-8.73

>  <cluster_rmsd>  (12) 
0.96

>  <cluster>  (12) 
1

$$$$

     RDKit          3D

 47 49  0  0  0  0  0  0  0  0999 V2000
  140.6940   67.4130  226.4290 C   0  0  0  0  0  0  0  0  0  0  0  0
  140.2370   68.6190  225.6660 C   0  0  0  0  0  0  0  0  0  0  0  0
  138.7170   68.5150  225.6020 C   0  0  0  0  0  0  0  0  0  0  0  0
  140.6500   69.8540  226.3920 C   0  0  0  0  0  0  0  0  0  0  0  0
  140.9870   69.6650  227.7390 C   0  0  0  0  0  0  0  0  0  0  0  0
  141.3740   70.7120  228.5440 C   0  0  0  0  0  0  0  0  0  0  0  0
  141.4160   71.9580  227.9640 C   0  0  0  0  0  0  0  0  0  0  0  0
  141.0830   72.1450  226.6340 C   0  0  0  0  0  0  0  0  0  0  0  0
  140.6890   71.1030  225.8030 C   0  0  0  0  0  0  0  0  0  0  0  0
  140.3520   71.2500  224.4640 N   0  0  0  0  0  0  0  0  0  0  0  0
  139.0660   71.3000  223.8930 C   0  0  0  0  0  0  0  0  0  0  0  0
  138.0420   71.2110  224.5690 O   0  0  0  0  0  0  0  0  0  0  0  0
  138.9120   71.4640  222.4190 C   0  0  0  0  0  0  0  0  0  0  0  0
  139.2700   72.8350  222.1090 N   0  0  0  0  0  0  0  0  0  0  0  0
  140.6140   73.2090  221.8800 C   0  0  0  0  0  0  0  0  0  0  0  0
  141.5870   72.4140  221.9250 O   0  0  0  0  0  0  0  0  0  0  0  0
  140.8840   74.6280  221.5680 C   0  0  0  0  0  0  0  0  0  0  0  0
  141.7020   74.9730  220.5010 C   0  0  0  0  0  0  0  0  0  0  0  0
  141.9920   76.2640  220.1580 C   0  0  0  0  0  0  0  0  0  0  0  0
  141.4370   77.2690  220.9210 C   0  0  0  0  0  0  0  0  0  0  0  0
  141.7070   78.5790  220.6050 C   0  0  0  0  0  0  0  0  0  0  0  0
  141.1450   79.5670  221.3730 C   0  0  0  0  0  0  0  0  0  0  0  0
  141.4860   81.2430  220.9750 Cl  0  0  0  0  0  0  0  0  0  0  0  0
  140.3400   79.2460  222.4240 C   0  0  0  0  0  0  0  0  0  0  0  0
  140.0640   77.9170  222.7480 C   0  0  0  0  0  0  0  0  0  0  0  0
  140.6230   76.9060  221.9810 C   0  0  0  0  0  0  0  0  0  0  0  0
  140.3560   75.6260  222.2930 N   0  0  0  0  0  0  0  0  0  0  0  0
  140.6187   67.6117  227.5083 H   0  0  0  0  0  0  0  0  0  0  0  0
  140.0595   66.5527  226.1694 H   0  0  0  0  0  0  0  0  0  0  0  0
  141.7393   67.1893  226.1694 H   0  0  0  0  0  0  0  0  0  0  0  0
  140.6752   68.6662  224.6581 H   0  0  0  0  0  0  0  0  0  0  0  0
  138.3081   68.4870  226.6228 H   0  0  0  0  0  0  0  0  0  0  0  0
  138.3119   69.3875  225.0685 H   0  0  0  0  0  0  0  0  0  0  0  0
  138.4345   67.5954  225.0685 H   0  0  0  0  0  0  0  0  0  0  0  0
  140.9409   68.6518  228.1647 H   0  0  0  0  0  0  0  0  0  0  0  0
  141.6372   70.5593  229.6011 H   0  0  0  0  0  0  0  0  0  0  0  0
  141.7206   72.8241  228.5699 H   0  0  0  0  0  0  0  0  0  0  0  0
  141.1322   73.1616  226.2167 H   0  0  0  0  0  0  0  0  0  0  0  0
  141.1540   71.3440  223.7640 H   0  0  0  0  0  0  0  0  0  0  0  0
  139.5802   70.7693  221.8891 H   0  0  0  0  0  0  0  0  0  0  0  0
  137.8813   71.2448  222.1036 H   0  0  0  0  0  0  0  0  0  0  0  0
  138.5100   73.5710  222.0500 H   0  0  0  0  0  0  0  0  0  0  0  0
  142.1406   74.1637  219.8988 H   0  0  0  0  0  0  0  0  0  0  0  0
  142.6453   76.4929  219.3031 H   0  0  0  0  0  0  0  0  0  0  0  0
  142.3591   78.8296  219.7553 H   0  0  0  0  0  0  0  0  0  0  0  0
  139.8984   80.0510  223.0298 H   0  0  0  0  0  0  0  0  0  0  0  0
  139.4119   77.6747  223.6001 H   0  0  0  0  0  0  0  0  0  0  0  0
  1  2  1  0
  2  3  1  0
  2  4  1  0
  4  5  2  0
  5  6  1  0
  6  7  2  0
  7  8  1  0
  8  9  2  0
  9 10  1  0
 10 11  1  0
 11 12  2  0
 11 13  1  0
 13 14  1  0
 14 15  1  0
 15 16  2  0
 15 17  1  0
 17 18  2  0
 18 19  1  0
 19 20  2  0
 20 21  1  0
 21 22  2  0
 22 23  1  0
 22 24  1  0
 24 25  2  0
 25 26  1  0
 26 27  2  0
  9  4  1  0
 27 17  1  0
 26 20  1  0
  1 28  1  0
  1 29  1  0
  1 30  1  0
  2 31  1  0
  3 32  1  0
  3 33  1  0
  3 34  1  0
  5 35  1  0
  6 36  1  0
  7 37  1  0
  8 38  1  0
 10 39  1  0
 13 40  1  0
 13 41  1  0
 14 42  1  0
 18 43  1  0
 19 44  1  0
 21 45  1  0
 24 46  1  0
 25 47  1  0
M  END
>  <smiles>  (13) 
CC(C)c1ccccc1NC(=O)CNC(=O)c1ccc2cc(Cl)ccc2n1

>  <score_type>  (13) 
oracle

>  <origin>  (13) 
autodockgpu

>  <m_score__min__energy>  (13) 
-9.2699999999999996

>  <m_primary>  (13) 
energy

>  <rmsd>  (13) 
8.399975532319443

>  <m_score__min__rmsd>  (13) 
8.399975532319443

>  <meeko>  (13) 
{"free_energy": -8.31, "intermolecular_energy": -9.8, "internal_energy": -2.0, "cluster_size": 18, "cluster_id": 2, "rank_in_cluster": 13}

>  <energy>  (13) 
-8.66

>  <cluster_rmsd>  (13) 
0.89

>  <cluster>  (13) 
1

$$$$

     RDKit          3D

 47 49  0  0  0  0  0  0  0  0999 V2000
  140.3780   71.6950  228.2780 C   0  0  0  0  0  0  0  0  0  0  0  0
  140.2630   71.3370  226.8280 C   0  0  0  0  0  0  0  0  0  0  0  0
  141.5120   71.9060  226.1630 C   0  0  0  0  0  0  0  0  0  0  0  0
  140.2190   69.8540  226.6830 C   0  0  0  0  0  0  0  0  0  0  0  0
  140.9840   69.1440  227.6180 C   0  0  0  0  0  0  0  0  0  0  0  0
  141.0560   67.7700  227.6050 C   0  0  0  0  0  0  0  0  0  0  0  0
  140.3390   67.1210  226.6270 C   0  0  0  0  0  0  0  0  0  0  0  0
  139.5840   67.8220  225.7030 C   0  0  0  0  0  0  0  0  0  0  0  0
  139.4970   69.2090  225.6980 C   0  0  0  0  0  0  0  0  0  0  0  0
  138.7470   69.9460  224.7920 N   0  0  0  0  0  0  0  0  0  0  0  0
  139.1590   70.4830  223.5570 C   0  0  0  0  0  0  0  0  0  0  0  0
  140.3050   70.3440  223.1290 O   0  0  0  0  0  0  0  0  0  0  0  0
  138.1950   71.2520  222.7200 C   0  0  0  0  0  0  0  0  0  0  0  0
  138.7580   72.5760  222.5380 N   0  0  0  0  0  0  0  0  0  0  0  0
  139.8160   72.8060  221.6270 C   0  0  0  0  0  0  0  0  0  0  0  0
  140.3460   71.9130  220.9190 O   0  0  0  0  0  0  0  0  0  0  0  0
  140.3240   74.1880  221.5070 C   0  0  0  0  0  0  0  0  0  0  0  0
  141.4120   74.4720  220.6910 C   0  0  0  0  0  0  0  0  0  0  0  0
  141.9310   75.7260  220.5360 C   0  0  0  0  0  0  0  0  0  0  0  0
  141.3360   76.7570  221.2310 C   0  0  0  0  0  0  0  0  0  0  0  0
  141.8330   78.0320  221.0980 C   0  0  0  0  0  0  0  0  0  0  0  0
  141.2290   79.0460  221.7960 C   0  0  0  0  0  0  0  0  0  0  0  0
  141.8580   80.6770  221.6310 Cl  0  0  0  0  0  0  0  0  0  0  0  0
  140.1610   78.7850  222.6010 C   0  0  0  0  0  0  0  0  0  0  0  0
  139.6540   77.4920  222.7390 C   0  0  0  0  0  0  0  0  0  0  0  0
  140.2530   76.4550  222.0390 C   0  0  0  0  0  0  0  0  0  0  0  0
  139.7640   75.2100  222.1720 N   0  0  0  0  0  0  0  0  0  0  0  0
  140.0991   70.8269  228.8933 H   0  0  0  0  0  0  0  0  0  0  0  0
  141.4148   71.9858  228.5028 H   0  0  0  0  0  0  0  0  0  0  0  0
  139.7046   72.5352  228.5028 H   0  0  0  0  0  0  0  0  0  0  0  0
  139.3486   71.7410  226.3691 H   0  0  0  0  0  0  0  0  0  0  0  0
  142.2238   72.2303  226.9364 H   0  0  0  0  0  0  0  0  0  0  0  0
  141.9789   71.1317  225.5365 H   0  0  0  0  0  0  0  0  0  0  0  0
  141.2342   72.7664  225.5365 H   0  0  0  0  0  0  0  0  0  0  0  0
  141.5430   69.7010  228.3843 H   0  0  0  0  0  0  0  0  0  0  0  0
  141.6580   67.2172  228.3413 H   0  0  0  0  0  0  0  0  0  0  0  0
  140.3663   66.0224  226.5783 H   0  0  0  0  0  0  0  0  0  0  0  0
  139.0289   67.2570  224.9397 H   0  0  0  0  0  0  0  0  0  0  0  0
  137.7260   70.1360  225.0410 H   0  0  0  0  0  0  0  0  0  0  0  0
  138.0637   70.7595  221.7452 H   0  0  0  0  0  0  0  0  0  0  0  0
  137.2090   71.3066  223.2046 H   0  0  0  0  0  0  0  0  0  0  0  0
  138.3690   73.3890  223.0960 H   0  0  0  0  0  0  0  0  0  0  0  0
  141.8804   73.6429  220.1404 H   0  0  0  0  0  0  0  0  0  0  0  0
  142.7944   75.9069  219.8789 H   0  0  0  0  0  0  0  0  0  0  0  0
  142.6958   78.2341  220.4463 H   0  0  0  0  0  0  0  0  0  0  0  0
  139.6886   79.6105  223.1536 H   0  0  0  0  0  0  0  0  0  0  0  0
  138.7916   77.2980  223.3936 H   0  0  0  0  0  0  0  0  0  0  0  0
  1  2  1  0
  2  3  1  0
  2  4  1  0
  4  5  2  0
  5  6  1  0
  6  7  2  0
  7  8  1  0
  8  9  2  0
  9 10  1  0
 10 11  1  0
 11 12  2  0
 11 13  1  0
 13 14  1  0
 14 15  1  0
 15 16  2  0
 15 17  1  0
 17 18  2  0
 18 19  1  0
 19 20  2  0
 20 21  1  0
 21 22  2  0
 22 23  1  0
 22 24  1  0
 24 25  2  0
 25 26  1  0
 26 27  2  0
  9  4  1  0
 27 17  1  0
 26 20  1  0
  1 28  1  0
  1 29  1  0
  1 30  1  0
  2 31  1  0
  3 32  1  0
  3 33  1  0
  3 34  1  0
  5 35  1  0
  6 36  1  0
  7 37  1  0
  8 38  1  0
 10 39  1  0
 13 40  1  0
 13 41  1  0
 14 42  1  0
 18 43  1  0
 19 44  1  0
 21 45  1  0
 24 46  1  0
 25 47  1  0
M  END
>  <smiles>  (14) 
CC(C)c1ccccc1NC(=O)CNC(=O)c1ccc2cc(Cl)ccc2n1

>  <score_type>  (14) 
oracle

>  <origin>  (14) 
autodockgpu

>  <m_score__min__energy>  (14) 
-9.2699999999999996

>  <m_primary>  (14) 
energy

>  <rmsd>  (14) 
8.163664878793972

>  <m_score__min__rmsd>  (14) 
8.163664878793972

>  <meeko>  (14) 
{"free_energy": -8.67, "intermolecular_energy": -10.16, "internal_energy": -1.54, "cluster_size": 18, "cluster_id": 2, "rank_in_cluster": 4}

>  <energy>  (14) 
-8.57

>  <cluster_rmsd>  (14) 
1.63

>  <cluster>  (14) 
1

$$$$

     RDKit          3D

 47 49  0  0  0  0  0  0  0  0999 V2000
  141.8800   80.4370  219.4610 C   0  0  0  0  0  0  0  0  0  0  0  0
  141.3890   79.1610  220.0740 C   0  0  0  0  0  0  0  0  0  0  0  0
  142.2010   78.0490  219.4190 C   0  0  0  0  0  0  0  0  0  0  0  0
  141.6280   79.1890  221.5460 C   0  0  0  0  0  0  0  0  0  0  0  0
  142.0840   80.4160  222.0470 C   0  0  0  0  0  0  0  0  0  0  0  0
  142.3630   80.5950  223.3830 C   0  0  0  0  0  0  0  0  0  0  0  0
  142.1740   79.5110  224.2070 C   0  0  0  0  0  0  0  0  0  0  0  0
  141.7230   78.2990  223.7120 C   0  0  0  0  0  0  0  0  0  0  0  0
  141.4360   78.0960  222.3670 C   0  0  0  0  0  0  0  0  0  0  0  0
  140.9780   76.8990  221.8340 N   0  0  0  0  0  0  0  0  0  0  0  0
  139.6470   76.4650  221.6920 C   0  0  0  0  0  0  0  0  0  0  0  0
  138.6890   77.1490  222.0510 O   0  0  0  0  0  0  0  0  0  0  0  0
  139.3580   75.1320  221.0890 C   0  0  0  0  0  0  0  0  0  0  0  0
  139.4830   74.1530  222.1510 N   0  0  0  0  0  0  0  0  0  0  0  0
  139.7700   72.7970  221.8700 C   0  0  0  0  0  0  0  0  0  0  0  0
  139.9360   72.3340  220.7130 O   0  0  0  0  0  0  0  0  0  0  0  0
  139.8800   71.8720  223.0170 C   0  0  0  0  0  0  0  0  0  0  0  0
  139.4720   70.5490  222.8990 C   0  0  0  0  0  0  0  0  0  0  0  0
  139.5470   69.6420  223.9180 C   0  0  0  0  0  0  0  0  0  0  0  0
  140.0550   70.0740  225.1240 C   0  0  0  0  0  0  0  0  0  0  0  0
  140.1450   69.1890  226.1720 C   0  0  0  0  0  0  0  0  0  0  0  0
  140.6550   69.6350  227.3650 C   0  0  0  0  0  0  0  0  0  0  0  0
  140.7720   68.5090  228.7070 Cl  0  0  0  0  0  0  0  0  0  0  0  0
  141.0590   70.9290  227.4970 C   0  0  0  0  0  0  0  0  0  0  0  0
  140.9700   71.8320  226.4360 C   0  0  0  0  0  0  0  0  0  0  0  0
  140.4580   71.3960  225.2240 C   0  0  0  0  0  0  0  0  0  0  0  0
  140.3720   72.2650  224.2010 N   0  0  0  0  0  0  0  0  0  0  0  0
  142.1525   81.1452  220.2573 H   0  0  0  0  0  0  0  0  0  0  0  0
  142.7622   80.2287  218.8378 H   0  0  0  0  0  0  0  0  0  0  0  0
  141.0857   80.8738  218.8378 H   0  0  0  0  0  0  0  0  0  0  0  0
  140.3105   79.0119  219.9174 H   0  0  0  0  0  0  0  0  0  0  0  0
  142.6590   77.4218  220.1980 H   0  0  0  0  0  0  0  0  0  0  0  0
  141.5396   77.4318  218.7932 H   0  0  0  0  0  0  0  0  0  0  0  0
  142.9903   78.4911  218.7932 H   0  0  0  0  0  0  0  0  0  0  0  0
  142.2227   81.2588  221.3538 H   0  0  0  0  0  0  0  0  0  0  0  0
  142.7202   81.5596  223.7728 H   0  0  0  0  0  0  0  0  0  0  0  0
  142.3854   79.6085  225.2821 H   0  0  0  0  0  0  0  0  0  0  0  0
  141.5861   77.4618  224.4123 H   0  0  0  0  0  0  0  0  0  0  0  0
  141.7120   76.2090  221.4770 H   0  0  0  0  0  0  0  0  0  0  0  0
  138.3378   75.1160  220.6780 H   0  0  0  0  0  0  0  0  0  0  0  0
  140.0553   74.9123  220.2671 H   0  0  0  0  0  0  0  0  0  0  0  0
  139.3580   74.4580  223.1590 H   0  0  0  0  0  0  0  0  0  0  0  0
  139.0667   70.2138  221.9329 H   0  0  0  0  0  0  0  0  0  0  0  0
  139.2134   68.6028  223.7805 H   0  0  0  0  0  0  0  0  0  0  0  0
  139.8153   68.1459  226.0566 H   0  0  0  0  0  0  0  0  0  0  0  0
  141.4644   71.2702  228.4610 H   0  0  0  0  0  0  0  0  0  0  0  0
  141.3012   72.8736  226.5600 H   0  0  0  0  0  0  0  0  0  0  0  0
  1  2  1  0
  2  3  1  0
  2  4  1  0
  4  5  2  0
  5  6  1  0
  6  7  2  0
  7  8  1  0
  8  9  2  0
  9 10  1  0
 10 11  1  0
 11 12  2  0
 11 13  1  0
 13 14  1  0
 14 15  1  0
 15 16  2  0
 15 17  1  0
 17 18  2  0
 18 19  1  0
 19 20  2  0
 20 21  1  0
 21 22  2  0
 22 23  1  0
 22 24  1  0
 24 25  2  0
 25 26  1  0
 26 27  2  0
  9  4  1  0
 27 17  1  0
 26 20  1  0
  1 28  1  0
  1 29  1  0
  1 30  1  0
  2 31  1  0
  3 32  1  0
  3 33  1  0
  3 34  1  0
  5 35  1  0
  6 36  1  0
  7 37  1  0
  8 38  1  0
 10 39  1  0
 13 40  1  0
 13 41  1  0
 14 42  1  0
 18 43  1  0
 19 44  1  0
 21 45  1  0
 24 46  1  0
 25 47  1  0
M  END
>  <smiles>  (15) 
CC(C)c1ccccc1NC(=O)CNC(=O)c1ccc2cc(Cl)ccc2n1

>  <score_type>  (15) 
oracle

>  <origin>  (15) 
autodockgpu

>  <m_score__min__energy>  (15) 
-9.2699999999999996

>  <m_primary>  (15) 
energy

>  <rmsd>  (15) 
2.931515933285862

>  <m_score__min__rmsd>  (15) 
2.931515933285862

>  <meeko>  (15) 
{"free_energy": -9.2, "intermolecular_energy": -10.69, "internal_energy": -1.28, "cluster_size": 26, "cluster_id": 1, "rank_in_cluster": 4}

>  <energy>  (15) 
-8.46

>  <cluster_rmsd>  (15) 
0.73

>  <cluster>  (15) 
1

$$$$

     RDKit          3D

 47 49  0  0  0  0  0  0  0  0999 V2000
  142.2660   80.1820  217.9000 C   0  0  0  0  0  0  0  0  0  0  0  0
  141.6110   79.0840  218.6810 C   0  0  0  0  0  0  0  0  0  0  0  0
  142.5670   77.8980  218.6070 C   0  0  0  0  0  0  0  0  0  0  0  0
  141.4230   79.5210  220.0940 C   0  0  0  0  0  0  0  0  0  0  0  0
  141.9100   80.8010  220.3880 C   0  0  0  0  0  0  0  0  0  0  0  0
  141.8230   81.3380  221.6520 C   0  0  0  0  0  0  0  0  0  0  0  0
  141.2330   80.5580  222.6190 C   0  0  0  0  0  0  0  0  0  0  0  0
  140.7520   79.2930  222.3280 C   0  0  0  0  0  0  0  0  0  0  0  0
  140.8300   78.7310  221.0600 C   0  0  0  0  0  0  0  0  0  0  0  0
  140.3550   77.4690  220.7290 N   0  0  0  0  0  0  0  0  0  0  0  0
  140.1870   76.3560  221.5750 C   0  0  0  0  0  0  0  0  0  0  0  0
  140.4630   76.3930  222.7740 O   0  0  0  0  0  0  0  0  0  0  0  0
  139.6570   75.0760  221.0250 C   0  0  0  0  0  0  0  0  0  0  0  0
  139.7200   74.0990  222.0960 N   0  0  0  0  0  0  0  0  0  0  0  0
  139.9630   72.7310  221.8300 C   0  0  0  0  0  0  0  0  0  0  0  0
  140.1380   72.2550  220.6790 O   0  0  0  0  0  0  0  0  0  0  0  0
  140.0110   71.8110  222.9840 C   0  0  0  0  0  0  0  0  0  0  0  0
  139.5370   70.5100  222.8690 C   0  0  0  0  0  0  0  0  0  0  0  0
  139.5520   69.6080  223.8960 C   0  0  0  0  0  0  0  0  0  0  0  0
  140.0680   70.0220  225.1050 C   0  0  0  0  0  0  0  0  0  0  0  0
  140.0990   69.1410  226.1600 C   0  0  0  0  0  0  0  0  0  0  0  0
  140.6160   69.5690  227.3560 C   0  0  0  0  0  0  0  0  0  0  0  0
  140.6590   68.4490  228.7070 Cl  0  0  0  0  0  0  0  0  0  0  0  0
  141.0860   70.8420  227.4850 C   0  0  0  0  0  0  0  0  0  0  0  0
  141.0560   71.7400  226.4170 C   0  0  0  0  0  0  0  0  0  0  0  0
  140.5360   71.3220  225.2010 C   0  0  0  0  0  0  0  0  0  0  0  0
  140.5080   72.1870  224.1710 N   0  0  0  0  0  0  0  0  0  0  0  0
  142.7033   80.9150  218.5939 H   0  0  0  0  0  0  0  0  0  0  0  0
  143.0592   79.7584  217.2663 H   0  0  0  0  0  0  0  0  0  0  0  0
  141.5165   80.6787  217.2663 H   0  0  0  0  0  0  0  0  0  0  0  0
  140.6201   78.8216  218.2818 H   0  0  0  0  0  0  0  0  0  0  0  0
  142.8284   77.5737  219.6251 H   0  0  0  0  0  0  0  0  0  0  0  0
  142.0818   77.0688  218.0713 H   0  0  0  0  0  0  0  0  0  0  0  0
  143.4803   78.1961  218.0713 H   0  0  0  0  0  0  0  0  0  0  0  0
  142.3749   81.3934  219.5862 H   0  0  0  0  0  0  0  0  0  0  0  0
  142.2072   82.3436  221.8783 H   0  0  0  0  0  0  0  0  0  0  0  0
  141.1415   80.9470  223.6438 H   0  0  0  0  0  0  0  0  0  0  0  0
  140.2881   78.7076  223.1355 H   0  0  0  0  0  0  0  0  0  0  0  0
  140.0730   77.3020  219.7130 H   0  0  0  0  0  0  0  0  0  0  0  0
  138.6162   75.2084  220.6945 H   0  0  0  0  0  0  0  0  0  0  0  0
  140.2462   74.7467  220.1564 H   0  0  0  0  0  0  0  0  0  0  0  0
  139.5840   74.4160  223.0980 H   0  0  0  0  0  0  0  0  0  0  0  0
  139.1278   70.1887  221.8998 H   0  0  0  0  0  0  0  0  0  0  0  0
  139.1655   68.5869  223.7621 H   0  0  0  0  0  0  0  0  0  0  0  0
  139.7175   68.1154  226.0473 H   0  0  0  0  0  0  0  0  0  0  0  0
  141.4977   71.1685  228.4514 H   0  0  0  0  0  0  0  0  0  0  0  0
  141.4391   72.7640  226.5379 H   0  0  0  0  0  0  0  0  0  0  0  0
  1  2  1  0
  2  3  1  0
  2  4  1  0
  4  5  2  0
  5  6  1  0
  6  7  2  0
  7  8  1  0
  8  9  2  0
  9 10  1  0
 10 11  1  0
 11 12  2  0
 11 13  1  0
 13 14  1  0
 14 15  1  0
 15 16  2  0
 15 17  1  0
 17 18  2  0
 18 19  1  0
 19 20  2  0
 20 21  1  0
 21 22  2  0
 22 23  1  0
 22 24  1  0
 24 25  2  0
 25 26  1  0
 26 27  2  0
  9  4  1  0
 27 17  1  0
 26 20  1  0
  1 28  1  0
  1 29  1  0
  1 30  1  0
  2 31  1  0
  3 32  1  0
  3 33  1  0
  3 34  1  0
  5 35  1  0
  6 36  1  0
  7 37  1  0
  8 38  1  0
 10 39  1  0
 13 40  1  0
 13 41  1  0
 14 42  1  0
 18 43  1  0
 19 44  1  0
 21 45  1  0
 24 46  1  0
 25 47  1  0
M  END
>  <smiles>  (16) 
CC(C)c1ccccc1NC(=O)CNC(=O)c1ccc2cc(Cl)ccc2n1

>  <score_type>  (16) 
oracle

>  <origin>  (16) 
autodockgpu

>  <m_score__min__energy>  (16) 
-9.2699999999999996

>  <m_primary>  (16) 
energy

>  <rmsd>  (16) 
2.725089693015229

>  <m_score__min__rmsd>  (16) 
2.725089693015229

>  <meeko>  (16) 
{"free_energy": -8.03, "intermolecular_energy": -9.52, "internal_energy": -1.77, "cluster_size": 26, "cluster_id": 1, "rank_in_cluster": 20}

>  <energy>  (16) 
-8.42

>  <cluster_rmsd>  (16) 
0.54

>  <cluster>  (16) 
1

$$$$

     RDKit          3D

 47 49  0  0  0  0  0  0  0  0999 V2000
  139.8860   67.3540  225.6870 C   0  0  0  0  0  0  0  0  0  0  0  0
  139.6290   68.7260  225.1420 C   0  0  0  0  0  0  0  0  0  0  0  0
  138.1130   68.8490  225.0320 C   0  0  0  0  0  0  0  0  0  0  0  0
  140.1740   69.7470  226.0820 C   0  0  0  0  0  0  0  0  0  0  0  0
  140.1800   69.3660  227.4300 C   0  0  0  0  0  0  0  0  0  0  0  0
  140.6390   70.2060  228.4190 C   0  0  0  0  0  0  0  0  0  0  0  0
  141.0930   71.4420  228.0230 C   0  0  0  0  0  0  0  0  0  0  0  0
  141.0870   71.8180  226.6910 C   0  0  0  0  0  0  0  0  0  0  0  0
  140.6280   70.9860  225.6760 C   0  0  0  0  0  0  0  0  0  0  0  0
  140.6110   71.3260  224.3300 N   0  0  0  0  0  0  0  0  0  0  0  0
  139.4930   71.5870  223.5150 C   0  0  0  0  0  0  0  0  0  0  0  0
  138.3400   71.5360  223.9430 O   0  0  0  0  0  0  0  0  0  0  0  0
  139.6840   71.9380  222.0790 C   0  0  0  0  0  0  0  0  0  0  0  0
  139.9480   73.3630  222.0260 N   0  0  0  0  0  0  0  0  0  0  0  0
  140.9700   73.8910  221.2020 C   0  0  0  0  0  0  0  0  0  0  0  0
  141.7170   73.1950  220.4680 O   0  0  0  0  0  0  0  0  0  0  0  0
  141.1660   75.3550  221.2120 C   0  0  0  0  0  0  0  0  0  0  0  0
  141.9510   75.9690  220.2450 C   0  0  0  0  0  0  0  0  0  0  0  0
  142.1730   77.3160  220.1950 C   0  0  0  0  0  0  0  0  0  0  0  0
  141.5810   78.0980  221.1640 C   0  0  0  0  0  0  0  0  0  0  0  0
  141.7820   79.4580  221.1450 C   0  0  0  0  0  0  0  0  0  0  0  0
  141.1850   80.2220  222.1150 C   0  0  0  0  0  0  0  0  0  0  0  0
  141.4380   81.9590  222.0970 Cl  0  0  0  0  0  0  0  0  0  0  0  0
  140.4120   79.6360  223.0710 C   0  0  0  0  0  0  0  0  0  0  0  0
  140.2050   78.2560  223.0940 C   0  0  0  0  0  0  0  0  0  0  0  0
  140.8010   77.4700  222.1200 C   0  0  0  0  0  0  0  0  0  0  0  0
  140.6010   76.1400  222.1420 N   0  0  0  0  0  0  0  0  0  0  0  0
  139.8794   67.3890  226.7864 H   0  0  0  0  0  0  0  0  0  0  0  0
  139.1008   66.6675  225.3373 H   0  0  0  0  0  0  0  0  0  0  0  0
  140.8664   66.9983  225.3373 H   0  0  0  0  0  0  0  0  0  0  0  0
  140.1125   68.8848  224.1668 H   0  0  0  0  0  0  0  0  0  0  0  0
  137.6739   68.8846  226.0399 H   0  0  0  0  0  0  0  0  0  0  0  0
  137.8584   69.7708  224.4884 H   0  0  0  0  0  0  0  0  0  0  0  0
  137.7131   67.9803  224.4884 H   0  0  0  0  0  0  0  0  0  0  0  0
  139.8077   68.3683  227.7056 H   0  0  0  0  0  0  0  0  0  0  0  0
  140.6425   69.9028  229.4764 H   0  0  0  0  0  0  0  0  0  0  0  0
  141.4685   72.1462  228.7801 H   0  0  0  0  0  0  0  0  0  0  0  0
  141.4612   72.8174  226.4241 H   0  0  0  0  0  0  0  0  0  0  0  0
  141.5530   71.4090  223.8330 H   0  0  0  0  0  0  0  0  0  0  0  0
  140.5356   71.3797  221.6630 H   0  0  0  0  0  0  0  0  0  0  0  0
  138.7926   71.6801  221.4883 H   0  0  0  0  0  0  0  0  0  0  0  0
  139.3640   74.0240  222.6140 H   0  0  0  0  0  0  0  0  0  0  0  0
  142.4198   75.3360  219.4771 H   0  0  0  0  0  0  0  0  0  0  0  0
  142.8017   77.7609  219.4096 H   0  0  0  0  0  0  0  0  0  0  0  0
  142.4078   79.9230  220.3690 H   0  0  0  0  0  0  0  0  0  0  0  0
  139.9407   80.2638  223.8415 H   0  0  0  0  0  0  0  0  0  0  0  0
  139.5781   77.7987  223.8736 H   0  0  0  0  0  0  0  0  0  0  0  0
  1  2  1  0
  2  3  1  0
  2  4  1  0
  4  5  2  0
  5  6  1  0
  6  7  2  0
  7  8  1  0
  8  9  2  0
  9 10  1  0
 10 11  1  0
 11 12  2  0
 11 13  1  0
 13 14  1  0
 14 15  1  0
 15 16  2  0
 15 17  1  0
 17 18  2  0
 18 19  1  0
 19 20  2  0
 20 21  1  0
 21 22  2  0
 22 23  1  0
 22 24  1  0
 24 25  2  0
 25 26  1  0
 26 27  2  0
  9  4  1  0
 27 17  1  0
 26 20  1  0
  1 28  1  0
  1 29  1  0
  1 30  1  0
  2 31  1  0
  3 32  1  0
  3 33  1  0
  3 34  1  0
  5 35  1  0
  6 36  1  0
  7 37  1  0
  8 38  1  0
 10 39  1  0
 13 40  1  0
 13 41  1  0
 14 42  1  0
 18 43  1  0
 19 44  1  0
 21 45  1  0
 24 46  1  0
 25 47  1  0
M  END
>  <smiles>  (17) 
CC(C)c1ccccc1NC(=O)CNC(=O)c1ccc2cc(Cl)ccc2n1

>  <score_type>  (17) 
oracle

>  <origin>  (17) 
autodockgpu

>  <m_score__min__energy>  (17) 
-9.2699999999999996

>  <m_primary>  (17) 
energy

>  <rmsd>  (17) 
8.521648584195514

>  <m_score__min__rmsd>  (17) 
8.521648584195514

>  <meeko>  (17) 
{"free_energy": -8.72, "intermolecular_energy": -10.21, "internal_energy": -1.42, "cluster_size": 18, "cluster_id": 2, "rank_in_cluster": 2}

>  <energy>  (17) 
-8.41

>  <cluster_rmsd>  (17) 
0.55

>  <cluster>  (17) 
1

$$$$

     RDKit          3D

 47 49  0  0  0  0  0  0  0  0999 V2000
  140.3200   67.3680  226.1030 C   0  0  0  0  0  0  0  0  0  0  0  0
  139.9380   68.6190  225.3730 C   0  0  0  0  0  0  0  0  0  0  0  0
  138.4150   68.6000  225.2890 C   0  0  0  0  0  0  0  0  0  0  0  0
  140.4070   69.8080  226.1410 C   0  0  0  0  0  0  0  0  0  0  0  0
  140.6860   69.5670  227.4930 C   0  0  0  0  0  0  0  0  0  0  0  0
  141.1140   70.5680  228.3350 C   0  0  0  0  0  0  0  0  0  0  0  0
  141.2580   71.8210  227.7870 C   0  0  0  0  0  0  0  0  0  0  0  0
  140.9840   72.0580  226.4510 C   0  0  0  0  0  0  0  0  0  0  0  0
  140.5500   71.0630  225.5830 C   0  0  0  0  0  0  0  0  0  0  0  0
  140.2690   71.2620  224.2380 N   0  0  0  0  0  0  0  0  0  0  0  0
  139.0090   71.4070  223.6260 C   0  0  0  0  0  0  0  0  0  0  0  0
  137.9590   71.3690  224.2660 O   0  0  0  0  0  0  0  0  0  0  0  0
  138.9160   71.6140  222.1530 C   0  0  0  0  0  0  0  0  0  0  0  0
  139.2730   72.9960  221.8990 N   0  0  0  0  0  0  0  0  0  0  0  0
  140.6250   73.3970  221.7820 C   0  0  0  0  0  0  0  0  0  0  0  0
  141.6050   72.6170  221.8870 O   0  0  0  0  0  0  0  0  0  0  0  0
  140.8920   74.8260  221.5210 C   0  0  0  0  0  0  0  0  0  0  0  0
  141.7250   75.2090  220.4780 C   0  0  0  0  0  0  0  0  0  0  0  0
  142.0140   76.5110  220.1820 C   0  0  0  0  0  0  0  0  0  0  0  0
  141.4430   77.4890  220.9680 C   0  0  0  0  0  0  0  0  0  0  0  0
  141.7120   78.8100  220.6990 C   0  0  0  0  0  0  0  0  0  0  0  0
  141.1340   79.7700  221.4900 C   0  0  0  0  0  0  0  0  0  0  0  0
  141.4730   81.4600  221.1520 Cl  0  0  0  0  0  0  0  0  0  0  0  0
  140.3150   79.4120  222.5170 C   0  0  0  0  0  0  0  0  0  0  0  0
  140.0390   78.0710  222.7940 C   0  0  0  0  0  0  0  0  0  0  0  0
  140.6150   77.0890  222.0030 C   0  0  0  0  0  0  0  0  0  0  0  0
  140.3490   75.7980  222.2690 N   0  0  0  0  0  0  0  0  0  0  0  0
  140.2659   67.5452  227.1873 H   0  0  0  0  0  0  0  0  0  0  0  0
  139.6283   66.5578  225.8289 H   0  0  0  0  0  0  0  0  0  0  0  0
  141.3463   67.0824  225.8289 H   0  0  0  0  0  0  0  0  0  0  0  0
  140.3911   68.6721  224.3721 H   0  0  0  0  0  0  0  0  0  0  0  0
  137.9918   68.5947  226.3043 H   0  0  0  0  0  0  0  0  0  0  0  0
  138.0663   69.4939  224.7511 H   0  0  0  0  0  0  0  0  0  0  0  0
  138.0887   67.6977  224.7511 H   0  0  0  0  0  0  0  0  0  0  0  0
  140.5595   68.5498  227.8922 H   0  0  0  0  0  0  0  0  0  0  0  0
  141.3306   70.3749  229.3960 H   0  0  0  0  0  0  0  0  0  0  0  0
  141.5977   72.6516  228.4231 H   0  0  0  0  0  0  0  0  0  0  0  0
  141.1154   73.0775  226.0595 H   0  0  0  0  0  0  0  0  0  0  0  0
  141.0990   71.3190  223.5680 H   0  0  0  0  0  0  0  0  0  0  0  0
  139.6129   70.9413  221.6317 H   0  0  0  0  0  0  0  0  0  0  0  0
  137.9016   71.3957  221.7878 H   0  0  0  0  0  0  0  0  0  0  0  0
  138.5070   73.7220  221.7960 H   0  0  0  0  0  0  0  0  0  0  0  0
  142.1765   74.4216  219.8566 H   0  0  0  0  0  0  0  0  0  0  0  0
  142.6794   76.7700  219.3453 H   0  0  0  0  0  0  0  0  0  0  0  0
  142.3759   79.0908  219.8681 H   0  0  0  0  0  0  0  0  0  0  0  0
  139.8611   80.1953  223.1418 H   0  0  0  0  0  0  0  0  0  0  0  0
  139.3746   77.7983  223.6272 H   0  0  0  0  0  0  0  0  0  0  0  0
  1  2  1  0
  2  3  1  0
  2  4  1  0
  4  5  2  0
  5  6  1  0
  6  7  2  0
  7  8  1  0
  8  9  2  0
  9 10  1  0
 10 11  1  0
 11 12  2  0
 11 13  1  0
 13 14  1  0
 14 15  1  0
 15 16  2  0
 15 17  1  0
 17 18  2  0
 18 19  1  0
 19 20  2  0
 20 21  1  0
 21 22  2  0
 22 23  1  0
 22 24  1  0
 24 25  2  0
 25 26  1  0
 26 27  2  0
  9  4  1  0
 27 17  1  0
 26 20  1  0
  1 28  1  0
  1 29  1  0
  1 30  1  0
  2 31  1  0
  3 32  1  0
  3 33  1  0
  3 34  1  0
  5 35  1  0
  6 36  1  0
  7 37  1  0
  8 38  1  0
 10 39  1  0
 13 40  1  0
 13 41  1  0
 14 42  1  0
 18 43  1  0
 19 44  1  0
 21 45  1  0
 24 46  1  0
 25 47  1  0
M  END
>  <smiles>  (18) 
CC(C)c1ccccc1NC(=O)CNC(=O)c1ccc2cc(Cl)ccc2n1

>  <score_type>  (18) 
oracle

>  <origin>  (18) 
autodockgpu

>  <m_score__min__energy>  (18) 
-9.2699999999999996

>  <m_primary>  (18) 
energy

>  <rmsd>  (18) 
8.391902158980152

>  <m_score__min__rmsd>  (18) 
8.391902158980152

>  <meeko>  (18) 
{"free_energy": -8.33, "intermolecular_energy": -9.82, "internal_energy": -1.98, "cluster_size": 18, "cluster_id": 2, "rank_in_cluster": 12}

>  <energy>  (18) 
-8.28

>  <cluster_rmsd>  (18) 
0.86

>  <cluster>  (18) 
1

$$$$

     RDKit          3D

 47 49  0  0  0  0  0  0  0  0999 V2000
  141.1850   71.7070  227.9070 C   0  0  0  0  0  0  0  0  0  0  0  0
  140.3380   71.3320  226.7300 C   0  0  0  0  0  0  0  0  0  0  0  0
  141.0650   71.8800  225.5060 C   0  0  0  0  0  0  0  0  0  0  0  0
  140.2220   69.8470  226.6510 C   0  0  0  0  0  0  0  0  0  0  0  0
  141.0460   69.1410  227.5380 C   0  0  0  0  0  0  0  0  0  0  0  0
  141.0630   67.7660  227.5750 C   0  0  0  0  0  0  0  0  0  0  0  0
  140.2290   67.1120  226.6990 C   0  0  0  0  0  0  0  0  0  0  0  0
  139.4140   67.8090  225.8230 C   0  0  0  0  0  0  0  0  0  0  0  0
  139.3820   69.1970  225.7690 C   0  0  0  0  0  0  0  0  0  0  0  0
  138.5760   69.9310  224.9090 N   0  0  0  0  0  0  0  0  0  0  0  0
  138.6880   70.0590  223.5110 C   0  0  0  0  0  0  0  0  0  0  0  0
  139.5730   69.4950  222.8680 O   0  0  0  0  0  0  0  0  0  0  0  0
  137.7140   70.9010  222.7600 C   0  0  0  0  0  0  0  0  0  0  0  0
  138.2850   72.2320  222.6760 N   0  0  0  0  0  0  0  0  0  0  0  0
  139.3710   72.5130  221.8140 C   0  0  0  0  0  0  0  0  0  0  0  0
  139.9220   71.6620  221.0700 O   0  0  0  0  0  0  0  0  0  0  0  0
  139.8850   73.8970  221.7950 C   0  0  0  0  0  0  0  0  0  0  0  0
  141.1410   74.1770  221.2700 C   0  0  0  0  0  0  0  0  0  0  0  0
  141.6760   75.4330  221.2210 C   0  0  0  0  0  0  0  0  0  0  0  0
  140.9210   76.4710  221.7230 C   0  0  0  0  0  0  0  0  0  0  0  0
  141.4280   77.7480  221.6900 C   0  0  0  0  0  0  0  0  0  0  0  0
  140.6630   78.7700  222.1930 C   0  0  0  0  0  0  0  0  0  0  0  0
  141.3040   80.4040  222.1540 Cl  0  0  0  0  0  0  0  0  0  0  0  0
  139.4300   78.5130  222.7120 C   0  0  0  0  0  0  0  0  0  0  0  0
  138.9110   77.2170  222.7470 C   0  0  0  0  0  0  0  0  0  0  0  0
  139.6720   76.1740  222.2420 C   0  0  0  0  0  0  0  0  0  0  0  0
  139.1720   74.9260  222.2760 N   0  0  0  0  0  0  0  0  0  0  0  0
  140.6471   71.4689  228.8365 H   0  0  0  0  0  0  0  0  0  0  0  0
  142.1286   71.1425  227.8744 H   0  0  0  0  0  0  0  0  0  0  0  0
  141.4013   72.7850  227.8744 H   0  0  0  0  0  0  0  0  0  0  0  0
  139.3190   71.7398  226.8035 H   0  0  0  0  0  0  0  0  0  0  0  0
  141.9043   72.5126  225.8307 H   0  0  0  0  0  0  0  0  0  0  0  0
  141.4481   71.0441  224.9023 H   0  0  0  0  0  0  0  0  0  0  0  0
  140.3669   72.4785  224.9023 H   0  0  0  0  0  0  0  0  0  0  0  0
  141.6975   69.7022  228.2239 H   0  0  0  0  0  0  0  0  0  0  0  0
  141.7126   67.2161  228.2719 H   0  0  0  0  0  0  0  0  0  0  0  0
  140.2088   66.0122  226.6940 H   0  0  0  0  0  0  0  0  0  0  0  0
  138.7647   67.2400  225.1413 H   0  0  0  0  0  0  0  0  0  0  0  0
  137.7600   70.4690  225.3410 H   0  0  0  0  0  0  0  0  0  0  0  0
  137.5590   70.4914  221.7509 H   0  0  0  0  0  0  0  0  0  0  0  0
  136.7383   70.9223  223.2675 H   0  0  0  0  0  0  0  0  0  0  0  0
  137.8810   73.0110  223.2700 H   0  0  0  0  0  0  0  0  0  0  0  0
  141.7366   73.3420  220.8724 H   0  0  0  0  0  0  0  0  0  0  0  0
  142.6749   75.6098  220.7955 H   0  0  0  0  0  0  0  0  0  0  0  0
  142.4250   77.9464  221.2697 H   0  0  0  0  0  0  0  0  0  0  0  0
  138.8304   79.3440  223.1120 H   0  0  0  0  0  0  0  0  0  0  0  0
  137.9132   77.0265  223.1690 H   0  0  0  0  0  0  0  0  0  0  0  0
  1  2  1  0
  2  3  1  0
  2  4  1  0
  4  5  2  0
  5  6  1  0
  6  7  2  0
  7  8  1  0
  8  9  2  0
  9 10  1  0
 10 11  1  0
 11 12  2  0
 11 13  1  0
 13 14  1  0
 14 15  1  0
 15 16  2  0
 15 17  1  0
 17 18  2  0
 18 19  1  0
 19 20  2  0
 20 21  1  0
 21 22  2  0
 22 23  1  0
 22 24  1  0
 24 25  2  0
 25 26  1  0
 26 27  2  0
  9  4  1  0
 27 17  1  0
 26 20  1  0
  1 28  1  0
  1 29  1  0
  1 30  1  0
  2 31  1  0
  3 32  1  0
  3 33  1  0
  3 34  1  0
  5 35  1  0
  6 36  1  0
  7 37  1  0
  8 38  1  0
 10 39  1  0
 13 40  1  0
 13 41  1  0
 14 42  1  0
 18 43  1  0
 19 44  1  0
 21 45  1  0
 24 46  1  0
 25 47  1  0
M  END
>  <smiles>  (19) 
CC(C)c1ccccc1NC(=O)CNC(=O)c1ccc2cc(Cl)ccc2n1

>  <score_type>  (19) 
oracle

>  <origin>  (19) 
autodockgpu

>  <m_score__min__energy>  (19) 
-9.2699999999999996

>  <m_primary>  (19) 
energy

>  <rmsd>  (19) 
7.995257927184424

>  <m_score__min__rmsd>  (19) 
7.995257927184424

>  <meeko>  (19) 
{"free_energy": -8.44, "intermolecular_energy": -9.93, "internal_energy": -1.65, "cluster_size": 3, "cluster_id": 4, "rank_in_cluster": 1}

>  <energy>  (19) 
-8.27

>  <cluster_rmsd>  (19) 
0.74

>  <cluster>  (19) 
1

$$$$

     RDKit          3D

 47 49  0  0  0  0  0  0  0  0999 V2000
  141.0380   67.3850  226.2950 C   0  0  0  0  0  0  0  0  0  0  0  0
  140.2940   68.5550  225.7280 C   0  0  0  0  0  0  0  0  0  0  0  0
  138.8150   68.2340  225.9130 C   0  0  0  0  0  0  0  0  0  0  0  0
  140.6620   69.7910  226.4770 C   0  0  0  0  0  0  0  0  0  0  0  0
  141.0750   69.5800  227.7990 C   0  0  0  0  0  0  0  0  0  0  0  0
  141.4330   70.6230  228.6220 C   0  0  0  0  0  0  0  0  0  0  0  0
  141.3680   71.8880  228.0870 C   0  0  0  0  0  0  0  0  0  0  0  0
  140.9600   72.0960  226.7800 C   0  0  0  0  0  0  0  0  0  0  0  0
  140.5940   71.0580  225.9320 C   0  0  0  0  0  0  0  0  0  0  0  0
  140.1840   71.2260  224.6160 N   0  0  0  0  0  0  0  0  0  0  0  0
  138.9010   71.0250  224.0740 C   0  0  0  0  0  0  0  0  0  0  0  0
  137.9480   70.6540  224.7580 O   0  0  0  0  0  0  0  0  0  0  0  0
  138.6600   71.2620  222.6220 C   0  0  0  0  0  0  0  0  0  0  0  0
  139.0860   72.6200  222.3400 N   0  0  0  0  0  0  0  0  0  0  0  0
  140.4140   72.9060  221.9480 C   0  0  0  0  0  0  0  0  0  0  0  0
  141.3150   72.0400  221.8140 O   0  0  0  0  0  0  0  0  0  0  0  0
  140.7560   74.3180  221.6810 C   0  0  0  0  0  0  0  0  0  0  0  0
  141.7440   74.6430  220.7590 C   0  0  0  0  0  0  0  0  0  0  0  0
  142.1090   75.9270  220.4650 C   0  0  0  0  0  0  0  0  0  0  0  0
  141.4550   76.9460  221.1250 C   0  0  0  0  0  0  0  0  0  0  0  0
  141.7970   78.2490  220.8530 C   0  0  0  0  0  0  0  0  0  0  0  0
  141.1370   79.2510  221.5180 C   0  0  0  0  0  0  0  0  0  0  0  0
  141.5680   80.9190  221.1770 Cl  0  0  0  0  0  0  0  0  0  0  0  0
  140.1660   78.9500  222.4250 C   0  0  0  0  0  0  0  0  0  0  0  0
  139.8160   77.6280  222.7040 C   0  0  0  0  0  0  0  0  0  0  0  0
  140.4740   76.6030  222.0400 C   0  0  0  0  0  0  0  0  0  0  0  0
  140.1370   75.3300  222.3080 N   0  0  0  0  0  0  0  0  0  0  0  0
  141.0095   67.4299  227.3937 H   0  0  0  0  0  0  0  0  0  0  0  0
  140.5675   66.4511  225.9538 H   0  0  0  0  0  0  0  0  0  0  0  0
  142.0833   67.4149  225.9538 H   0  0  0  0  0  0  0  0  0  0  0  0
  140.5336   68.7272  224.6683 H   0  0  0  0  0  0  0  0  0  0  0  0
  138.5823   68.1835  226.9869 H   0  0  0  0  0  0  0  0  0  0  0  0
  138.2073   69.0212  225.4428 H   0  0  0  0  0  0  0  0  0  0  0  0
  138.5883   67.2658  225.4428 H   0  0  0  0  0  0  0  0  0  0  0  0
  141.1141   68.5525  228.1897 H   0  0  0  0  0  0  0  0  0  0  0  0
  141.7561   70.4527  229.6596 H   0  0  0  0  0  0  0  0  0  0  0  0
  141.6455   72.7516  228.7093 H   0  0  0  0  0  0  0  0  0  0  0  0
  140.9242   73.1266  226.3970 H   0  0  0  0  0  0  0  0  0  0  0  0
  140.9180   71.5540  223.9120 H   0  0  0  0  0  0  0  0  0  0  0  0
  139.2439   70.5498  222.0205 H   0  0  0  0  0  0  0  0  0  0  0  0
  137.5981   71.1225  222.3713 H   0  0  0  0  0  0  0  0  0  0  0  0
  138.3890   73.4130  222.4280 H   0  0  0  0  0  0  0  0  0  0  0  0
  142.2598   73.8229  220.2380 H   0  0  0  0  0  0  0  0  0  0  0  0
  142.8969   76.1401  219.7276 H   0  0  0  0  0  0  0  0  0  0  0  0
  142.5820   78.4831  220.1188 H   0  0  0  0  0  0  0  0  0  0  0  0
  139.6468   79.7663  222.9486 H   0  0  0  0  0  0  0  0  0  0  0  0
  139.0299   77.4022  223.4396 H   0  0  0  0  0  0  0  0  0  0  0  0
  1  2  1  0
  2  3  1  0
  2  4  1  0
  4  5  2  0
  5  6  1  0
  6  7  2  0
  7  8  1  0
  8  9  2  0
  9 10  1  0
 10 11  1  0
 11 12  2  0
 11 13  1  0
 13 14  1  0
 14 15  1  0
 15 16  2  0
 15 17  1  0
 17 18  2  0
 18 19  1  0
 19 20  2  0
 20 21  1  0
 21 22  2  0
 22 23  1  0
 22 24  1  0
 24 25  2  0
 25 26  1  0
 26 27  2  0
  9  4  1  0
 27 17  1  0
 26 20  1  0
  1 28  1  0
  1 29  1  0
  1 30  1  0
  2 31  1  0
  3 32  1  0
  3 33  1  0
  3 34  1  0
  5 35  1  0
  6 36  1  0
  7 37  1  0
  8 38  1  0
 10 39  1  0
 13 40  1  0
 13 41  1  0
 14 42  1  0
 18 43  1  0
 19 44  1  0
 21 45  1  0
 24 46  1  0
 25 47  1  0
M  END
>  <smiles>  (20) 
CC(C)c1ccccc1NC(=O)CNC(=O)c1ccc2cc(Cl)ccc2n1

>  <score_type>  (20) 
oracle

>  <origin>  (20) 
autodockgpu

>  <m_score__min__energy>  (20) 
-9.2699999999999996

>  <m_primary>  (20) 
energy

>  <rmsd>  (20) 
8.299674221677511

>  <m_score__min__rmsd>  (20) 
8.299674221677511

>  <meeko>  (20) 
{"free_energy": -8.4, "intermolecular_energy": -9.89, "internal_energy": -2.03, "cluster_size": 18, "cluster_id": 2, "rank_in_cluster": 6}

>  <energy>  (20) 
-8.03

>  <cluster_rmsd>  (20) 
0.98

>  <cluster>  (20) 
1

$$$$

     RDKit          3D

 47 49  0  0  0  0  0  0  0  0999 V2000
  140.3050   71.8380  228.0520 C   0  0  0  0  0  0  0  0  0  0  0  0
  140.1900   71.3630  226.6360 C   0  0  0  0  0  0  0  0  0  0  0  0
  141.4300   71.8910  225.9220 C   0  0  0  0  0  0  0  0  0  0  0  0
  140.1630   69.8720  226.6110 C   0  0  0  0  0  0  0  0  0  0  0  0
  140.9360   69.2490  227.6000 C   0  0  0  0  0  0  0  0  0  0  0  0
  141.0230   67.8800  227.6970 C   0  0  0  0  0  0  0  0  0  0  0  0
  140.3140   67.1460  226.7750 C   0  0  0  0  0  0  0  0  0  0  0  0
  139.5500   67.7610  225.7990 C   0  0  0  0  0  0  0  0  0  0  0  0
  139.4480   69.1420  225.6820 C   0  0  0  0  0  0  0  0  0  0  0  0
  138.6890   69.7950  224.7210 N   0  0  0  0  0  0  0  0  0  0  0  0
  139.1410   70.5910  223.6510 C   0  0  0  0  0  0  0  0  0  0  0  0
  140.3360   70.8020  223.4470 O   0  0  0  0  0  0  0  0  0  0  0  0
  138.1590   71.2120  222.7170 C   0  0  0  0  0  0  0  0  0  0  0  0
  137.2050   71.9400  223.5310 N   0  0  0  0  0  0  0  0  0  0  0  0
  136.0590   71.3050  224.0650 C   0  0  0  0  0  0  0  0  0  0  0  0
  135.7740   70.0940  223.8860 O   0  0  0  0  0  0  0  0  0  0  0  0
  135.1450   72.1270  224.8840 C   0  0  0  0  0  0  0  0  0  0  0  0
  134.1490   71.5280  225.6450 C   0  0  0  0  0  0  0  0  0  0  0  0
  133.2710   72.2270  226.4240 C   0  0  0  0  0  0  0  0  0  0  0  0
  133.3890   73.6010  226.4480 C   0  0  0  0  0  0  0  0  0  0  0  0
  132.5220   74.3370  227.2210 C   0  0  0  0  0  0  0  0  0  0  0  0
  132.6540   75.7020  227.2330 C   0  0  0  0  0  0  0  0  0  0  0  0
  131.5510   76.6480  228.2180 Cl  0  0  0  0  0  0  0  0  0  0  0  0
  133.6260   76.3050  226.4930 C   0  0  0  0  0  0  0  0  0  0  0  0
  134.5080   75.5620  225.7060 C   0  0  0  0  0  0  0  0  0  0  0  0
  134.3880   74.1800  225.6830 C   0  0  0  0  0  0  0  0  0  0  0  0
  135.2370   73.4640  224.9260 N   0  0  0  0  0  0  0  0  0  0  0  0
  140.1025   71.0014  228.7370 H   0  0  0  0  0  0  0  0  0  0  0  0
  141.3214   72.2194  228.2294 H   0  0  0  0  0  0  0  0  0  0  0  0
  139.5755   72.6420  228.2294 H   0  0  0  0  0  0  0  0  0  0  0  0
  139.2695   71.7183  226.1498 H   0  0  0  0  0  0  0  0  0  0  0  0
  142.1748   72.2081  226.6668 H   0  0  0  0  0  0  0  0  0  0  0  0
  141.8566   71.0965  225.2921 H   0  0  0  0  0  0  0  0  0  0  0  0
  141.1529   72.7492  225.2921 H   0  0  0  0  0  0  0  0  0  0  0  0
  141.4885   69.8722  228.3186 H   0  0  0  0  0  0  0  0  0  0  0  0
  141.6308   67.3950  228.4751 H   0  0  0  0  0  0  0  0  0  0  0  0
  140.3552   66.0475  226.8143 H   0  0  0  0  0  0  0  0  0  0  0  0
  139.0000   67.1300  225.0853 H   0  0  0  0  0  0  0  0  0  0  0  0
  137.6270   69.6890  224.7790 H   0  0  0  0  0  0  0  0  0  0  0  0
  138.6733   71.9005  222.0304 H   0  0  0  0  0  0  0  0  0  0  0  0
  137.6545   70.4459  222.1099 H   0  0  0  0  0  0  0  0  0  0  0  0
  137.3700   72.9670  223.7330 H   0  0  0  0  0  0  0  0  0  0  0  0
  134.0627   70.4317  225.6189 H   0  0  0  0  0  0  0  0  0  0  0  0
  132.4968   71.7119  227.0117 H   0  0  0  0  0  0  0  0  0  0  0  0
  131.7404   73.8422  227.8162 H   0  0  0  0  0  0  0  0  0  0  0  0
  133.7179   77.4009  226.5160 H   0  0  0  0  0  0  0  0  0  0  0  0
  135.2863   76.0648  225.1131 H   0  0  0  0  0  0  0  0  0  0  0  0
  1  2  1  0
  2  3  1  0
  2  4  1  0
  4  5  2  0
  5  6  1  0
  6  7  2  0
  7  8  1  0
  8  9  2  0
  9 10  1  0
 10 11  1  0
 11 12  2  0
 11 13  1  0
 13 14  1  0
 14 15  1  0
 15 16  2  0
 15 17  1  0
 17 18  2  0
 18 19  1  0
 19 20  2  0
 20 21  1  0
 21 22  2  0
 22 23  1  0
 22 24  1  0
 24 25  2  0
 25 26  1  0
 26 27  2  0
  9  4  1  0
 27 17  1  0
 26 20  1  0
  1 28  1  0
  1 29  1  0
  1 30  1  0
  2 31  1  0
  3 32  1  0
  3 33  1  0
  3 34  1  0
  5 35  1  0
  6 36  1  0
  7 37  1  0
  8 38  1  0
 10 39  1  0
 13 40  1  0
 13 41  1  0
 14 42  1  0
 18 43  1  0
 19 44  1  0
 21 45  1  0
 24 46  1  0
 25 47  1  0
M  END
>  <smiles>  (21) 
CC(C)c1ccccc1NC(=O)CNC(=O)c1ccc2cc(Cl)ccc2n1

>  <score_type>  (21) 
oracle

>  <origin>  (21) 
autodockgpu

>  <m_score__min__energy>  (21) 
-9.2699999999999996

>  <m_primary>  (21) 
energy

>  <rmsd>  (21) 
7.784596755459071

>  <m_score__min__rmsd>  (21) 
7.784596755459071

>  <meeko>  (21) 
{"free_energy": -8.07, "intermolecular_energy": -9.56, "internal_energy": -2.28, "cluster_size": 3, "cluster_id": 3, "rank_in_cluster": 3}

>  <energy>  (21) 
-7.99

>  <cluster_rmsd>  (21) 
1.69

>  <cluster>  (21) 
1

$$$$

     RDKit          3D

 47 49  0  0  0  0  0  0  0  0999 V2000
  141.2780   80.1840  219.0810 C   0  0  0  0  0  0  0  0  0  0  0  0
  141.0990   78.9020  219.8350 C   0  0  0  0  0  0  0  0  0  0  0  0
  142.0860   77.9180  219.2150 C   0  0  0  0  0  0  0  0  0  0  0  0
  141.4110   79.1220  221.2760 C   0  0  0  0  0  0  0  0  0  0  0  0
  142.2350   80.2240  221.5410 C   0  0  0  0  0  0  0  0  0  0  0  0
  142.6220   80.5490  222.8210 C   0  0  0  0  0  0  0  0  0  0  0  0
  142.1630   79.7390  223.8330 C   0  0  0  0  0  0  0  0  0  0  0  0
  141.3490   78.6510  223.5710 C   0  0  0  0  0  0  0  0  0  0  0  0
  140.9460   78.3040  222.2870 C   0  0  0  0  0  0  0  0  0  0  0  0
  140.1270   77.2240  221.9850 N   0  0  0  0  0  0  0  0  0  0  0  0
  140.5080   75.9490  221.5270 C   0  0  0  0  0  0  0  0  0  0  0  0
  141.6840   75.6420  221.3340 O   0  0  0  0  0  0  0  0  0  0  0  0
  139.4690   74.9140  221.2570 C   0  0  0  0  0  0  0  0  0  0  0  0
  139.5890   73.9150  222.3020 N   0  0  0  0  0  0  0  0  0  0  0  0
  139.7580   72.5450  221.9930 C   0  0  0  0  0  0  0  0  0  0  0  0
  139.8160   72.0850  220.8240 O   0  0  0  0  0  0  0  0  0  0  0  0
  139.8720   71.6000  223.1220 C   0  0  0  0  0  0  0  0  0  0  0  0
  139.4700   70.2780  222.9810 C   0  0  0  0  0  0  0  0  0  0  0  0
  139.5480   69.3530  223.9830 C   0  0  0  0  0  0  0  0  0  0  0  0
  140.0550   69.7660  225.1970 C   0  0  0  0  0  0  0  0  0  0  0  0
  140.1480   68.8630  226.2290 C   0  0  0  0  0  0  0  0  0  0  0  0
  140.6550   69.2900  227.4300 C   0  0  0  0  0  0  0  0  0  0  0  0
  140.7770   68.1410  228.7520 Cl  0  0  0  0  0  0  0  0  0  0  0  0
  141.0540   70.5830  227.5860 C   0  0  0  0  0  0  0  0  0  0  0  0
  140.9600   71.5040  226.5410 C   0  0  0  0  0  0  0  0  0  0  0  0
  140.4510   71.0880  225.3210 C   0  0  0  0  0  0  0  0  0  0  0  0
  140.3610   71.9740  224.3140 N   0  0  0  0  0  0  0  0  0  0  0  0
  141.3940   81.0148  219.7926 H   0  0  0  0  0  0  0  0  0  0  0  0
  142.1752   80.1151  218.4484 H   0  0  0  0  0  0  0  0  0  0  0  0
  140.3962   80.3635  218.4484 H   0  0  0  0  0  0  0  0  0  0  0  0
  140.0679   78.5234  219.7749 H   0  0  0  0  0  0  0  0  0  0  0  0
  142.6218   77.3839  220.0135 H   0  0  0  0  0  0  0  0  0  0  0  0
  141.5399   77.1942  218.5922 H   0  0  0  0  0  0  0  0  0  0  0  0
  142.8081   78.4663  218.5922 H   0  0  0  0  0  0  0  0  0  0  0  0
  142.5820   80.8463  220.7029 H   0  0  0  0  0  0  0  0  0  0  0  0
  143.2679   81.4157  223.0250 H   0  0  0  0  0  0  0  0  0  0  0  0
  142.4487   79.9604  224.8719 H   0  0  0  0  0  0  0  0  0  0  0  0
  141.0063   78.0345  224.4151 H   0  0  0  0  0  0  0  0  0  0  0  0
  139.0750   77.3550  222.1150 H   0  0  0  0  0  0  0  0  0  0  0  0
  138.4674   75.3681  221.2808 H   0  0  0  0  0  0  0  0  0  0  0  0
  139.6101   74.4638  220.2633 H   0  0  0  0  0  0  0  0  0  0  0  0
  139.5510   74.2150  223.3170 H   0  0  0  0  0  0  0  0  0  0  0  0
  139.0666   69.9583  222.0089 H   0  0  0  0  0  0  0  0  0  0  0  0
  139.2181   68.3153  223.8270 H   0  0  0  0  0  0  0  0  0  0  0  0
  139.8230   67.8207  226.0948 H   0  0  0  0  0  0  0  0  0  0  0  0
  141.4588   70.9083  228.5557 H   0  0  0  0  0  0  0  0  0  0  0  0
  141.2853   72.5450  226.6840 H   0  0  0  0  0  0  0  0  0  0  0  0
  1  2  1  0
  2  3  1  0
  2  4  1  0
  4  5  2  0
  5  6  1  0
  6  7  2  0
  7  8  1  0
  8  9  2  0
  9 10  1  0
 10 11  1  0
 11 12  2  0
 11 13  1  0
 13 14  1  0
 14 15  1  0
 15 16  2  0
 15 17  1  0
 17 18  2  0
 18 19  1  0
 19 20  2  0
 20 21  1  0
 21 22  2  0
 22 23  1  0
 22 24  1  0
 24 25  2  0
 25 26  1  0
 26 27  2  0
  9  4  1  0
 27 17  1  0
 26 20  1  0
  1 28  1  0
  1 29  1  0
  1 30  1  0
  2 31  1  0
  3 32  1  0
  3 33  1  0
  3 34  1  0
  5 35  1  0
  6 36  1  0
  7 37  1  0
  8 38  1  0
 10 39  1  0
 13 40  1  0
 13 41  1  0
 14 42  1  0
 18 43  1  0
 19 44  1  0
 21 45  1  0
 24 46  1  0
 25 47  1  0
M  END
>  <smiles>  (22) 
CC(C)c1ccccc1NC(=O)CNC(=O)c1ccc2cc(Cl)ccc2n1

>  <score_type>  (22) 
oracle

>  <origin>  (22) 
autodockgpu

>  <m_score__min__energy>  (22) 
-9.2699999999999996

>  <m_primary>  (22) 
energy

>  <rmsd>  (22) 
2.697701478234321

>  <m_score__min__rmsd>  (22) 
2.697701478234321

>  <meeko>  (22) 
{"free_energy": -8.73, "intermolecular_energy": -10.22, "internal_energy": -1.33, "cluster_size": 26, "cluster_id": 1, "rank_in_cluster": 12}

>  <energy>  (22) 
-7.94

>  <cluster_rmsd>  (22) 
1.51

>  <cluster>  (22) 
1

$$$$

     RDKit          3D

 47 49  0  0  0  0  0  0  0  0999 V2000
  140.4440   67.3880  226.1310 C   0  0  0  0  0  0  0  0  0  0  0  0
  139.9640   68.6470  225.4770 C   0  0  0  0  0  0  0  0  0  0  0  0
  138.4400   68.5830  225.5260 C   0  0  0  0  0  0  0  0  0  0  0  0
  140.4640   69.8280  226.2390 C   0  0  0  0  0  0  0  0  0  0  0  0
  140.8140   69.5680  227.5710 C   0  0  0  0  0  0  0  0  0  0  0  0
  141.2790   70.5580  228.4050 C   0  0  0  0  0  0  0  0  0  0  0  0
  141.3860   71.8200  227.8710 C   0  0  0  0  0  0  0  0  0  0  0  0
  141.0410   72.0770  226.5550 C   0  0  0  0  0  0  0  0  0  0  0  0
  140.5690   71.0930  225.6950 C   0  0  0  0  0  0  0  0  0  0  0  0
  140.2180   71.3100  224.3700 N   0  0  0  0  0  0  0  0  0  0  0  0
  138.9280   71.3340  223.8060 C   0  0  0  0  0  0  0  0  0  0  0  0
  137.9130   71.1510  224.4780 O   0  0  0  0  0  0  0  0  0  0  0  0
  138.7570   71.5870  222.3470 C   0  0  0  0  0  0  0  0  0  0  0  0
  139.1580   72.9600  222.1080 N   0  0  0  0  0  0  0  0  0  0  0  0
  140.5050   73.2950  221.8370 C   0  0  0  0  0  0  0  0  0  0  0  0
  141.4440   72.4620  221.7840 O   0  0  0  0  0  0  0  0  0  0  0  0
  140.8190   74.7200  221.6040 C   0  0  0  0  0  0  0  0  0  0  0  0
  141.7640   75.0880  220.6550 C   0  0  0  0  0  0  0  0  0  0  0  0
  142.1010   76.3850  220.3890 C   0  0  0  0  0  0  0  0  0  0  0  0
  141.4640   77.3730  221.1100 C   0  0  0  0  0  0  0  0  0  0  0  0
  141.7790   78.6900  220.8690 C   0  0  0  0  0  0  0  0  0  0  0  0
  141.1350   79.6600  221.5940 C   0  0  0  0  0  0  0  0  0  0  0  0
  141.5320   81.3430  221.2920 Cl  0  0  0  0  0  0  0  0  0  0  0  0
  140.2060   79.3160  222.5290 C   0  0  0  0  0  0  0  0  0  0  0  0
  139.8830   77.9800  222.7770 C   0  0  0  0  0  0  0  0  0  0  0  0
  140.5250   76.9880  222.0520 C   0  0  0  0  0  0  0  0  0  0  0  0
  140.2140   75.7010  222.2900 N   0  0  0  0  0  0  0  0  0  0  0  0
  140.4002   67.5029  227.2241 H   0  0  0  0  0  0  0  0  0  0  0  0
  139.8030   66.5483  225.8246 H   0  0  0  0  0  0  0  0  0  0  0  0
  141.4814   67.1882  225.8246 H   0  0  0  0  0  0  0  0  0  0  0  0
  140.3261   68.7429  224.4428 H   0  0  0  0  0  0  0  0  0  0  0  0
  138.1071   68.5690  226.5743 H   0  0  0  0  0  0  0  0  0  0  0  0
  138.0195   69.4643  225.0195 H   0  0  0  0  0  0  0  0  0  0  0  0
  138.0949   67.6696  225.0195 H   0  0  0  0  0  0  0  0  0  0  0  0
  140.7140   68.5440  227.9602 H   0  0  0  0  0  0  0  0  0  0  0  0
  141.5523   70.3496  229.4499 H   0  0  0  0  0  0  0  0  0  0  0  0
  141.7533   72.6427  228.5021 H   0  0  0  0  0  0  0  0  0  0  0  0
  141.1450   73.1037  226.1741 H   0  0  0  0  0  0  0  0  0  0  0  0
  141.0100   71.4890  223.6760 H   0  0  0  0  0  0  0  0  0  0  0  0
  139.3920   70.9010  221.7671 H   0  0  0  0  0  0  0  0  0  0  0  0
  137.7142   71.4218  222.0382 H   0  0  0  0  0  0  0  0  0  0  0  0
  138.4280   73.7280  222.1330 H   0  0  0  0  0  0  0  0  0  0  0  0
  142.2683   74.2923  220.0870 H   0  0  0  0  0  0  0  0  0  0  0  0
  142.8541   76.6325  219.6264 H   0  0  0  0  0  0  0  0  0  0  0  0
  142.5303   78.9592  220.1120 H   0  0  0  0  0  0  0  0  0  0  0  0
  139.6994   80.1073  223.1010 H   0  0  0  0  0  0  0  0  0  0  0  0
  139.1307   77.7189  223.5359 H   0  0  0  0  0  0  0  0  0  0  0  0
  1  2  1  0
  2  3  1  0
  2  4  1  0
  4  5  2  0
  5  6  1  0
  6  7  2  0
  7  8  1  0
  8  9  2  0
  9 10  1  0
 10 11  1  0
 11 12  2  0
 11 13  1  0
 13 14  1  0
 14 15  1  0
 15 16  2  0
 15 17  1  0
 17 18  2  0
 18 19  1  0
 19 20  2  0
 20 21  1  0
 21 22  2  0
 22 23  1  0
 22 24  1  0
 24 25  2  0
 25 26  1  0
 26 27  2  0
  9  4  1  0
 27 17  1  0
 26 20  1  0
  1 28  1  0
  1 29  1  0
  1 30  1  0
  2 31  1  0
  3 32  1  0
  3 33  1  0
  3 34  1  0
  5 35  1  0
  6 36  1  0
  7 37  1  0
  8 38  1  0
 10 39  1  0
 13 40  1  0
 13 41  1  0
 14 42  1  0
 18 43  1  0
 19 44  1  0
 21 45  1  0
 24 46  1  0
 25 47  1  0
M  END
>  <smiles>  (23) 
CC(C)c1ccccc1NC(=O)CNC(=O)c1ccc2cc(Cl)ccc2n1

>  <score_type>  (23) 
oracle

>  <origin>  (23) 
autodockgpu

>  <m_score__min__energy>  (23) 
-9.2699999999999996

>  <m_primary>  (23) 
energy

>  <rmsd>  (23) 
8.35397540668118

>  <m_score__min__rmsd>  (23) 
8.35397540668118

>  <meeko>  (23) 
{"free_energy": -8.39, "intermolecular_energy": -9.88, "internal_energy": -1.99, "cluster_size": 18, "cluster_id": 2, "rank_in_cluster": 7}

>  <energy>  (23) 
-7.93

>  <cluster_rmsd>  (23) 
1.06

>  <cluster>  (23) 
1

$$$$

     RDKit          3D

 47 49  0  0  0  0  0  0  0  0999 V2000
  140.8480   80.7630  219.3280 C   0  0  0  0  0  0  0  0  0  0  0  0
  141.0240   79.3760  219.8670 C   0  0  0  0  0  0  0  0  0  0  0  0
  142.1910   78.7760  219.0900 C   0  0  0  0  0  0  0  0  0  0  0  0
  141.3400   79.4420  221.3220 C   0  0  0  0  0  0  0  0  0  0  0  0
  141.4540   80.7380  221.8450 C   0  0  0  0  0  0  0  0  0  0  0  0
  141.7550   80.9620  223.1680 C   0  0  0  0  0  0  0  0  0  0  0  0
  141.9410   79.8530  223.9600 C   0  0  0  0  0  0  0  0  0  0  0  0
  141.8280   78.5740  223.4440 C   0  0  0  0  0  0  0  0  0  0  0  0
  141.5250   78.3240  222.1110 C   0  0  0  0  0  0  0  0  0  0  0  0
  141.3980   77.0560  221.5580 N   0  0  0  0  0  0  0  0  0  0  0  0
  140.2260   76.2960  221.3900 C   0  0  0  0  0  0  0  0  0  0  0  0
  139.1190   76.7060  221.7400 O   0  0  0  0  0  0  0  0  0  0  0  0
  140.2980   74.9420  220.7690 C   0  0  0  0  0  0  0  0  0  0  0  0
  140.3540   73.9830  221.8550 N   0  0  0  0  0  0  0  0  0  0  0  0
  139.5820   72.7980  221.8300 C   0  0  0  0  0  0  0  0  0  0  0  0
  138.8030   72.4810  220.8950 O   0  0  0  0  0  0  0  0  0  0  0  0
  139.7060   71.8790  222.9800 C   0  0  0  0  0  0  0  0  0  0  0  0
  139.1930   70.5900  222.9120 C   0  0  0  0  0  0  0  0  0  0  0  0
  139.2740   69.6900  223.9370 C   0  0  0  0  0  0  0  0  0  0  0  0
  139.8990   70.0950  225.0970 C   0  0  0  0  0  0  0  0  0  0  0  0
  139.9980   69.2160  226.1490 C   0  0  0  0  0  0  0  0  0  0  0  0
  140.6230   69.6350  227.2960 C   0  0  0  0  0  0  0  0  0  0  0  0
  140.7530   68.5170  228.6440 Cl  0  0  0  0  0  0  0  0  0  0  0  0
  141.1310   70.8960  227.3800 C   0  0  0  0  0  0  0  0  0  0  0  0
  141.0330   71.7920  226.3130 C   0  0  0  0  0  0  0  0  0  0  0  0
  140.4040   71.3840  225.1470 C   0  0  0  0  0  0  0  0  0  0  0  0
  140.3090   72.2460  224.1200 N   0  0  0  0  0  0  0  0  0  0  0  0
  140.7580   81.4725  220.1638 H   0  0  0  0  0  0  0  0  0  0  0  0
  141.7194   81.0304  218.7123 H   0  0  0  0  0  0  0  0  0  0  0  0
  139.9374   80.8043  218.7123 H   0  0  0  0  0  0  0  0  0  0  0  0
  140.1152   78.7667  219.7539 H   0  0  0  0  0  0  0  0  0  0  0  0
  142.9415   78.3901  219.7956 H   0  0  0  0  0  0  0  0  0  0  0  0
  141.8259   77.9538  218.4570 H   0  0  0  0  0  0  0  0  0  0  0  0
  142.6473   79.5513  218.4570 H   0  0  0  0  0  0  0  0  0  0  0  0
  141.2984   81.5993  221.1787 H   0  0  0  0  0  0  0  0  0  0  0  0
  141.8429   81.9806  223.5739 H   0  0  0  0  0  0  0  0  0  0  0  0
  142.1843   79.9854  225.0246 H   0  0  0  0  0  0  0  0  0  0  0  0
  141.9847   77.7187  224.1177 H   0  0  0  0  0  0  0  0  0  0  0  0
  142.2900   76.5840  221.2060 H   0  0  0  0  0  0  0  0  0  0  0  0
  139.4064   74.7616  220.1506 H   0  0  0  0  0  0  0  0  0  0  0  0
  141.1813   74.8532  220.1194 H   0  0  0  0  0  0  0  0  0  0  0  0
  140.9870   74.1710  222.6840 H   0  0  0  0  0  0  0  0  0  0  0  0
  138.6946   70.2768  221.9828 H   0  0  0  0  0  0  0  0  0  0  0  0
  138.8551   68.6776  223.8399 H   0  0  0  0  0  0  0  0  0  0  0  0
  139.5853   68.1992  226.0729 H   0  0  0  0  0  0  0  0  0  0  0  0
  141.6288   71.2154  228.3075 H   0  0  0  0  0  0  0  0  0  0  0  0
  141.4490   72.8069  226.3967 H   0  0  0  0  0  0  0  0  0  0  0  0
  1  2  1  0
  2  3  1  0
  2  4  1  0
  4  5  2  0
  5  6  1  0
  6  7  2  0
  7  8  1  0
  8  9  2  0
  9 10  1  0
 10 11  1  0
 11 12  2  0
 11 13  1  0
 13 14  1  0
 14 15  1  0
 15 16  2  0
 15 17  1  0
 17 18  2  0
 18 19  1  0
 19 20  2  0
 20 21  1  0
 21 22  2  0
 22 23  1  0
 22 24  1  0
 24 25  2  0
 25 26  1  0
 26 27  2  0
  9  4  1  0
 27 17  1  0
 26 20  1  0
  1 28  1  0
  1 29  1  0
  1 30  1  0
  2 31  1  0
  3 32  1  0
  3 33  1  0
  3 34  1  0
  5 35  1  0
  6 36  1  0
  7 37  1  0
  8 38  1  0
 10 39  1  0
 13 40  1  0
 13 41  1  0
 14 42  1  0
 18 43  1  0
 19 44  1  0
 21 45  1  0
 24 46  1  0
 25 47  1  0
M  END
>  <smiles>  (24) 
CC(C)c1ccccc1NC(=O)CNC(=O)c1ccc2cc(Cl)ccc2n1

>  <score_type>  (24) 
oracle

>  <origin>  (24) 
autodockgpu

>  <m_score__min__energy>  (24) 
-9.2699999999999996

>  <m_primary>  (24) 
energy

>  <rmsd>  (24) 
2.983676345462925

>  <m_score__min__rmsd>  (24) 
2.983676345462925

>  <meeko>  (24) 
{"free_energy": -8.41, "intermolecular_energy": -9.9, "internal_energy": -1.38, "cluster_size": 26, "cluster_id": 1, "rank_in_cluster": 17}

>  <energy>  (24) 
-7.77

>  <cluster_rmsd>  (24) 
1.22

>  <cluster>  (24) 
1

$$$$

     RDKit          3D

 47 49  0  0  0  0  0  0  0  0999 V2000
  140.9280   80.3890  219.4510 C   0  0  0  0  0  0  0  0  0  0  0  0
  141.0340   79.0410  220.0970 C   0  0  0  0  0  0  0  0  0  0  0  0
  142.1450   78.3110  219.3490 C   0  0  0  0  0  0  0  0  0  0  0  0
  141.3870   79.2030  221.5360 C   0  0  0  0  0  0  0  0  0  0  0  0
  142.2490   80.2710  221.8170 C   0  0  0  0  0  0  0  0  0  0  0  0
  142.6770   80.5410  223.0960 C   0  0  0  0  0  0  0  0  0  0  0  0
  142.2180   79.7110  224.0930 C   0  0  0  0  0  0  0  0  0  0  0  0
  141.3660   78.6570  223.8150 C   0  0  0  0  0  0  0  0  0  0  0  0
  140.9210   78.3660  222.5310 C   0  0  0  0  0  0  0  0  0  0  0  0
  140.0640   77.3210  222.2140 N   0  0  0  0  0  0  0  0  0  0  0  0
  140.3580   76.1410  221.5030 C   0  0  0  0  0  0  0  0  0  0  0  0
  141.4820   75.9030  221.0610 O   0  0  0  0  0  0  0  0  0  0  0  0
  139.2900   75.1300  221.2640 C   0  0  0  0  0  0  0  0  0  0  0  0
  139.4180   74.1270  222.3030 N   0  0  0  0  0  0  0  0  0  0  0  0
  139.7020   72.7770  221.9900 C   0  0  0  0  0  0  0  0  0  0  0  0
  139.8600   72.3390  220.8220 O   0  0  0  0  0  0  0  0  0  0  0  0
  139.8160   71.8260  223.1150 C   0  0  0  0  0  0  0  0  0  0  0  0
  139.4080   70.5060  222.9690 C   0  0  0  0  0  0  0  0  0  0  0  0
  139.4860   69.5770  223.9670 C   0  0  0  0  0  0  0  0  0  0  0  0
  139.9990   69.9820  225.1810 C   0  0  0  0  0  0  0  0  0  0  0  0
  140.0930   69.0730  226.2080 C   0  0  0  0  0  0  0  0  0  0  0  0
  140.6060   69.4920  227.4090 C   0  0  0  0  0  0  0  0  0  0  0  0
  140.7290   68.3360  228.7250 Cl  0  0  0  0  0  0  0  0  0  0  0  0
  141.0110   70.7830  227.5690 C   0  0  0  0  0  0  0  0  0  0  0  0
  140.9170   71.7090  226.5290 C   0  0  0  0  0  0  0  0  0  0  0  0
  140.4010   71.3010  225.3090 C   0  0  0  0  0  0  0  0  0  0  0  0
  140.3120   72.1930  224.3070 N   0  0  0  0  0  0  0  0  0  0  0  0
  140.8670   81.1645  220.2287 H   0  0  0  0  0  0  0  0  0  0  0  0
  141.8150   80.5664  218.8250 H   0  0  0  0  0  0  0  0  0  0  0  0
  140.0242   80.4256  218.8250 H   0  0  0  0  0  0  0  0  0  0  0  0
  140.0883   78.4810  220.0505 H   0  0  0  0  0  0  0  0  0  0  0  0
  142.8371   77.8563  220.0730 H   0  0  0  0  0  0  0  0  0  0  0  0
  141.7064   77.5245  218.7173 H   0  0  0  0  0  0  0  0  0  0  0  0
  142.6928   79.0258  218.7173 H   0  0  0  0  0  0  0  0  0  0  0  0
  142.5932   80.9116  220.9917 H   0  0  0  0  0  0  0  0  0  0  0  0
  143.3541   81.3806  223.3116 H   0  0  0  0  0  0  0  0  0  0  0  0
  142.5347   79.8890  225.1313 H   0  0  0  0  0  0  0  0  0  0  0  0
  141.0261   78.0218  224.6463 H   0  0  0  0  0  0  0  0  0  0  0  0
  139.0510   77.4000  222.5450 H   0  0  0  0  0  0  0  0  0  0  0  0
  138.2998   75.6061  221.3180 H   0  0  0  0  0  0  0  0  0  0  0  0
  139.3924   74.6781  220.2664 H   0  0  0  0  0  0  0  0  0  0  0  0
  139.3000   74.4100  223.3180 H   0  0  0  0  0  0  0  0  0  0  0  0
  139.0000   70.1921  221.9969 H   0  0  0  0  0  0  0  0  0  0  0  0
  139.1511   68.5414  223.8078 H   0  0  0  0  0  0  0  0  0  0  0  0
  139.7640   68.0325  226.0696 H   0  0  0  0  0  0  0  0  0  0  0  0
  141.4208   71.1023  228.5386 H   0  0  0  0  0  0  0  0  0  0  0  0
  141.2477   72.7478  226.6755 H   0  0  0  0  0  0  0  0  0  0  0  0
  1  2  1  0
  2  3  1  0
  2  4  1  0
  4  5  2  0
  5  6  1  0
  6  7  2  0
  7  8  1  0
  8  9  2  0
  9 10  1  0
 10 11  1  0
 11 12  2  0
 11 13  1  0
 13 14  1  0
 14 15  1  0
 15 16  2  0
 15 17  1  0
 17 18  2  0
 18 19  1  0
 19 20  2  0
 20 21  1  0
 21 22  2  0
 22 23  1  0
 22 24  1  0
 24 25  2  0
 25 26  1  0
 26 27  2  0
  9  4  1  0
 27 17  1  0
 26 20  1  0
  1 28  1  0
  1 29  1  0
  1 30  1  0
  2 31  1  0
  3 32  1  0
  3 33  1  0
  3 34  1  0
  5 35  1  0
  6 36  1  0
  7 37  1  0
  8 38  1  0
 10 39  1  0
 13 40  1  0
 13 41  1  0
 14 42  1  0
 18 43  1  0
 19 44  1  0
 21 45  1  0
 24 46  1  0
 25 47  1  0
M  END
>  <smiles>  (25) 
CC(C)c1ccccc1NC(=O)CNC(=O)c1ccc2cc(Cl)ccc2n1

>  <score_type>  (25) 
oracle

>  <origin>  (25) 
autodockgpu

>  <m_score__min__energy>  (25) 
-9.2699999999999996

>  <m_primary>  (25) 
energy

>  <rmsd>  (25) 
2.8324286513299253

>  <m_score__min__rmsd>  (25) 
2.8324286513299253

>  <meeko>  (25) 
{"free_energy": -8.66, "intermolecular_energy": -10.15, "internal_energy": -1.29, "cluster_size": 26, "cluster_id": 1, "rank_in_cluster": 13}

>  <energy>  (25) 
-7.76

>  <cluster_rmsd>  (25) 
1.65

>  <cluster>  (25) 
1

$$$$

     RDKit          3D

 47 49  0  0  0  0  0  0  0  0999 V2000
  140.2130   79.1720  219.6670 C   0  0  0  0  0  0  0  0  0  0  0  0
  141.6610   79.2520  220.0430 C   0  0  0  0  0  0  0  0  0  0  0  0
  142.1840   80.5320  219.4000 C   0  0  0  0  0  0  0  0  0  0  0  0
  141.7890   79.3190  221.5270 C   0  0  0  0  0  0  0  0  0  0  0  0
  142.2300   80.5510  222.0280 C   0  0  0  0  0  0  0  0  0  0  0  0
  142.4110   80.7640  223.3750 C   0  0  0  0  0  0  0  0  0  0  0  0
  142.1380   79.7080  224.2130 C   0  0  0  0  0  0  0  0  0  0  0  0
  141.7020   78.4910  223.7180 C   0  0  0  0  0  0  0  0  0  0  0  0
  141.5130   78.2540  222.3610 C   0  0  0  0  0  0  0  0  0  0  0  0
  141.0730   77.0500  221.8280 N   0  0  0  0  0  0  0  0  0  0  0  0
  139.7710   76.5150  221.8520 C   0  0  0  0  0  0  0  0  0  0  0  0
  138.8280   77.1000  222.3840 O   0  0  0  0  0  0  0  0  0  0  0  0
  139.4970   75.1940  221.2170 C   0  0  0  0  0  0  0  0  0  0  0  0
  139.6170   74.1930  222.2600 N   0  0  0  0  0  0  0  0  0  0  0  0
  139.7950   72.8250  221.9480 C   0  0  0  0  0  0  0  0  0  0  0  0
  139.8610   72.3690  220.7780 O   0  0  0  0  0  0  0  0  0  0  0  0
  139.9090   71.8780  223.0760 C   0  0  0  0  0  0  0  0  0  0  0  0
  139.5080   70.5550  222.9310 C   0  0  0  0  0  0  0  0  0  0  0  0
  139.5870   69.6290  223.9320 C   0  0  0  0  0  0  0  0  0  0  0  0
  140.0910   70.0400  225.1470 C   0  0  0  0  0  0  0  0  0  0  0  0
  140.1840   69.1340  226.1770 C   0  0  0  0  0  0  0  0  0  0  0  0
  140.6890   69.5590  227.3790 C   0  0  0  0  0  0  0  0  0  0  0  0
  140.8110   68.4070  228.6990 Cl  0  0  0  0  0  0  0  0  0  0  0  0
  141.0860   70.8520  227.5390 C   0  0  0  0  0  0  0  0  0  0  0  0
  140.9930   71.7760  226.4960 C   0  0  0  0  0  0  0  0  0  0  0  0
  140.4850   71.3610  225.2740 C   0  0  0  0  0  0  0  0  0  0  0  0
  140.3960   72.2500  224.2690 N   0  0  0  0  0  0  0  0  0  0  0  0
  139.5987   79.1381  220.5789 H   0  0  0  0  0  0  0  0  0  0  0  0
  139.9390   80.0564  219.0730 H   0  0  0  0  0  0  0  0  0  0  0  0
  140.0381   78.2628  219.0730 H   0  0  0  0  0  0  0  0  0  0  0  0
  142.2292   78.3740  219.7020 H   0  0  0  0  0  0  0  0  0  0  0  0
  142.4752   81.2446  220.1858 H   0  0  0  0  0  0  0  0  0  0  0  0
  143.0585   80.2976  218.7752 H   0  0  0  0  0  0  0  0  0  0  0  0
  141.3956   80.9771  218.7752 H   0  0  0  0  0  0  0  0  0  0  0  0
  142.4373   81.3709  221.3245 H   0  0  0  0  0  0  0  0  0  0  0  0
  142.7576   81.7330  223.7635 H   0  0  0  0  0  0  0  0  0  0  0  0
  142.2687   79.8330  225.2980 H   0  0  0  0  0  0  0  0  0  0  0  0
  141.4963   77.6768  224.4284 H   0  0  0  0  0  0  0  0  0  0  0  0
  141.7950   76.4410  221.3300 H   0  0  0  0  0  0  0  0  0  0  0  0
  138.4814   75.1805  220.7946 H   0  0  0  0  0  0  0  0  0  0  0  0
  140.2040   74.9963  220.3978 H   0  0  0  0  0  0  0  0  0  0  0  0
  139.5720   74.4910  223.2760 H   0  0  0  0  0  0  0  0  0  0  0  0
  139.1055   70.2367  221.9580 H   0  0  0  0  0  0  0  0  0  0  0  0
  139.2596   68.5908  223.7738 H   0  0  0  0  0  0  0  0  0  0  0  0
  139.8606   68.0916  226.0399 H   0  0  0  0  0  0  0  0  0  0  0  0
  141.4884   71.1753  228.5104 H   0  0  0  0  0  0  0  0  0  0  0  0
  141.3176   72.8169  226.6414 H   0  0  0  0  0  0  0  0  0  0  0  0
  1  2  1  0
  2  3  1  0
  2  4  1  0
  4  5  2  0
  5  6  1  0
  6  7  2  0
  7  8  1  0
  8  9  2  0
  9 10  1  0
 10 11  1  0
 11 12  2  0
 11 13  1  0
 13 14  1  0
 14 15  1  0
 15 16  2  0
 15 17  1  0
 17 18  2  0
 18 19  1  0
 19 20  2  0
 20 21  1  0
 21 22  2  0
 22 23  1  0
 22 24  1  0
 24 25  2  0
 25 26  1  0
 26 27  2  0
  9  4  1  0
 27 17  1  0
 26 20  1  0
  1 28  1  0
  1 29  1  0
  1 30  1  0
  2 31  1  0
  3 32  1  0
  3 33  1  0
  3 34  1  0
  5 35  1  0
  6 36  1  0
  7 37  1  0
  8 38  1  0
 10 39  1  0
 13 40  1  0
 13 41  1  0
 14 42  1  0
 18 43  1  0
 19 44  1  0
 21 45  1  0
 24 46  1  0
 25 47  1  0
M  END
>  <smiles>  (26) 
CC(C)c1ccccc1NC(=O)CNC(=O)c1ccc2cc(Cl)ccc2n1

>  <score_type>  (26) 
oracle

>  <origin>  (26) 
autodockgpu

>  <m_score__min__energy>  (26) 
-9.2699999999999996

>  <m_primary>  (26) 
energy

>  <rmsd>  (26) 
2.7381876486108685

>  <m_score__min__rmsd>  (26) 
2.7381876486108685

>  <meeko>  (26) 
{"free_energy": -9.09, "intermolecular_energy": -10.59, "internal_energy": -1.36, "cluster_size": 26, "cluster_id": 1, "rank_in_cluster": 8}

>  <energy>  (26) 
-7.75

>  <cluster_rmsd>  (26) 
1.34

>  <cluster>  (26) 
1

$$$$

     RDKit          3D

 47 49  0  0  0  0  0  0  0  0999 V2000
  140.3590   67.3470  226.1030 C   0  0  0  0  0  0  0  0  0  0  0  0
  139.9660   68.6010  225.3830 C   0  0  0  0  0  0  0  0  0  0  0  0
  138.4420   68.5760  225.3120 C   0  0  0  0  0  0  0  0  0  0  0  0
  140.4360   69.7880  226.1540 C   0  0  0  0  0  0  0  0  0  0  0  0
  140.7180   69.5420  227.5050 C   0  0  0  0  0  0  0  0  0  0  0  0
  141.1490   70.5390  228.3490 C   0  0  0  0  0  0  0  0  0  0  0  0
  141.2910   71.7950  227.8050 C   0  0  0  0  0  0  0  0  0  0  0  0
  141.0120   72.0370  226.4710 C   0  0  0  0  0  0  0  0  0  0  0  0
  140.5760   71.0450  225.6010 C   0  0  0  0  0  0  0  0  0  0  0  0
  140.2920   71.2480  224.2570 N   0  0  0  0  0  0  0  0  0  0  0  0
  139.0290   71.3600  223.6450 C   0  0  0  0  0  0  0  0  0  0  0  0
  137.9790   71.2830  224.2820 O   0  0  0  0  0  0  0  0  0  0  0  0
  138.9320   71.5800  222.1730 C   0  0  0  0  0  0  0  0  0  0  0  0
  139.2850   72.9650  221.9300 N   0  0  0  0  0  0  0  0  0  0  0  0
  140.6350   73.3670  221.8020 C   0  0  0  0  0  0  0  0  0  0  0  0
  141.6170   72.5870  221.8870 O   0  0  0  0  0  0  0  0  0  0  0  0
  140.8980   74.7990  221.5530 C   0  0  0  0  0  0  0  0  0  0  0  0
  141.7350   75.1930  220.5160 C   0  0  0  0  0  0  0  0  0  0  0  0
  142.0210   76.4990  220.2320 C   0  0  0  0  0  0  0  0  0  0  0  0
  141.4420   77.4690  221.0230 C   0  0  0  0  0  0  0  0  0  0  0  0
  141.7080   78.7930  220.7650 C   0  0  0  0  0  0  0  0  0  0  0  0
  141.1240   79.7450  221.5610 C   0  0  0  0  0  0  0  0  0  0  0  0
  141.4580   81.4380  221.2380 Cl  0  0  0  0  0  0  0  0  0  0  0  0
  140.3010   79.3750  222.5820 C   0  0  0  0  0  0  0  0  0  0  0  0
  140.0290   78.0320  222.8470 C   0  0  0  0  0  0  0  0  0  0  0  0
  140.6110   77.0580  222.0510 C   0  0  0  0  0  0  0  0  0  0  0  0
  140.3490   75.7640  222.3060 N   0  0  0  0  0  0  0  0  0  0  0  0
  140.3061   67.5157  227.1887 H   0  0  0  0  0  0  0  0  0  0  0  0
  139.6726   66.5338  225.8244 H   0  0  0  0  0  0  0  0  0  0  0  0
  141.3867   67.0710  225.8244 H   0  0  0  0  0  0  0  0  0  0  0  0
  140.4110   68.6616  224.3788 H   0  0  0  0  0  0  0  0  0  0  0  0
  138.0275   68.5692  226.3309 H   0  0  0  0  0  0  0  0  0  0  0  0
  138.0852   69.4684  224.7770 H   0  0  0  0  0  0  0  0  0  0  0  0
  138.1146   67.6724  224.7770 H   0  0  0  0  0  0  0  0  0  0  0  0
  140.5911   68.5236  227.9011 H   0  0  0  0  0  0  0  0  0  0  0  0
  141.3697   70.3417  229.4084 H   0  0  0  0  0  0  0  0  0  0  0  0
  141.6331   72.6232  228.4430 H   0  0  0  0  0  0  0  0  0  0  0  0
  141.1409   73.0582  226.0830 H   0  0  0  0  0  0  0  0  0  0  0  0
  141.1200   71.3390  223.5890 H   0  0  0  0  0  0  0  0  0  0  0  0
  139.6293   70.9135  221.6442 H   0  0  0  0  0  0  0  0  0  0  0  0
  137.9172   71.3625  221.8084 H   0  0  0  0  0  0  0  0  0  0  0  0
  138.5180   73.6910  221.8440 H   0  0  0  0  0  0  0  0  0  0  0  0
  142.1918   74.4121  219.8903 H   0  0  0  0  0  0  0  0  0  0  0  0
  142.6900   76.7672  219.4010 H   0  0  0  0  0  0  0  0  0  0  0  0
  142.3742   79.0822  219.9388 H   0  0  0  0  0  0  0  0  0  0  0  0
  139.8411   80.1515  223.2109 H   0  0  0  0  0  0  0  0  0  0  0  0
  139.3624   77.7506  223.6756 H   0  0  0  0  0  0  0  0  0  0  0  0
  1  2  1  0
  2  3  1  0
  2  4  1  0
  4  5  2  0
  5  6  1  0
  6  7  2  0
  7  8  1  0
  8  9  2  0
  9 10  1  0
 10 11  1  0
 11 12  2  0
 11 13  1  0
 13 14  1  0
 14 15  1  0
 15 16  2  0
 15 17  1  0
 17 18  2  0
 18 19  1  0
 19 20  2  0
 20 21  1  0
 21 22  2  0
 22 23  1  0
 22 24  1  0
 24 25  2  0
 25 26  1  0
 26 27  2  0
  9  4  1  0
 27 17  1  0
 26 20  1  0
  1 28  1  0
  1 29  1  0
  1 30  1  0
  2 31  1  0
  3 32  1  0
  3 33  1  0
  3 34  1  0
  5 35  1  0
  6 36  1  0
  7 37  1  0
  8 38  1  0
 10 39  1  0
 13 40  1  0
 13 41  1  0
 14 42  1  0
 18 43  1  0
 19 44  1  0
 21 45  1  0
 24 46  1  0
 25 47  1  0
M  END
>  <smiles>  (27) 
CC(C)c1ccccc1NC(=O)CNC(=O)c1ccc2cc(Cl)ccc2n1

>  <score_type>  (27) 
oracle

>  <origin>  (27) 
autodockgpu

>  <m_score__min__energy>  (27) 
-9.2699999999999996

>  <m_primary>  (27) 
energy

>  <rmsd>  (27) 
8.380112005800786

>  <m_score__min__rmsd>  (27) 
8.380112005800786

>  <meeko>  (27) 
{"free_energy": -8.35, "intermolecular_energy": -9.84, "internal_energy": -1.98, "cluster_size": 18, "cluster_id": 2, "rank_in_cluster": 10}

>  <energy>  (27) 
-8.87

>  <cluster_rmsd>  (27) 
0.0

>  <cluster>  (27) 
2

$$$$

     RDKit          3D

 47 49  0  0  0  0  0  0  0  0999 V2000
  142.1100   80.1180  217.9920 C   0  0  0  0  0  0  0  0  0  0  0  0
  141.6410   78.9210  218.7610 C   0  0  0  0  0  0  0  0  0  0  0  0
  142.6330   77.8090  218.4380 C   0  0  0  0  0  0  0  0  0  0  0  0
  141.6500   79.2290  220.2200 C   0  0  0  0  0  0  0  0  0  0  0  0
  142.1120   80.5100  220.5510 C   0  0  0  0  0  0  0  0  0  0  0  0
  142.1930   80.9360  221.8560 C   0  0  0  0  0  0  0  0  0  0  0  0
  141.7990   80.0450  222.8270 C   0  0  0  0  0  0  0  0  0  0  0  0
  141.3430   78.7790  222.4990 C   0  0  0  0  0  0  0  0  0  0  0  0
  141.2530   78.3280  221.1880 C   0  0  0  0  0  0  0  0  0  0  0  0
  140.7970   77.0690  220.8200 N   0  0  0  0  0  0  0  0  0  0  0  0
  140.1130   76.1280  221.6130 C   0  0  0  0  0  0  0  0  0  0  0  0
  139.8320   76.3420  222.7920 O   0  0  0  0  0  0  0  0  0  0  0  0
  139.7030   74.8190  221.0290 C   0  0  0  0  0  0  0  0  0  0  0  0
  139.7530   73.8450  222.1020 N   0  0  0  0  0  0  0  0  0  0  0  0
  140.0110   72.4790  221.8430 C   0  0  0  0  0  0  0  0  0  0  0  0
  140.2120   72.0020  220.6980 O   0  0  0  0  0  0  0  0  0  0  0  0
  140.0430   71.5600  223.0000 C   0  0  0  0  0  0  0  0  0  0  0  0
  139.5630   70.2620  222.8840 C   0  0  0  0  0  0  0  0  0  0  0  0
  139.5630   69.3620  223.9120 C   0  0  0  0  0  0  0  0  0  0  0  0
  140.0690   69.7770  225.1260 C   0  0  0  0  0  0  0  0  0  0  0  0
  140.0860   68.8970  226.1820 C   0  0  0  0  0  0  0  0  0  0  0  0
  140.5930   69.3260  227.3830 C   0  0  0  0  0  0  0  0  0  0  0  0
  140.6170   68.2080  228.7370 Cl  0  0  0  0  0  0  0  0  0  0  0  0
  141.0680   70.5960  227.5140 C   0  0  0  0  0  0  0  0  0  0  0  0
  141.0540   71.4920  226.4430 C   0  0  0  0  0  0  0  0  0  0  0  0
  140.5440   71.0740  225.2230 C   0  0  0  0  0  0  0  0  0  0  0  0
  140.5300   71.9360  224.1920 N   0  0  0  0  0  0  0  0  0  0  0  0
  142.4190   80.9067  218.6938 H   0  0  0  0  0  0  0  0  0  0  0  0
  142.9639   79.8355  217.3588 H   0  0  0  0  0  0  0  0  0  0  0  0
  141.2914   80.4908  217.3588 H   0  0  0  0  0  0  0  0  0  0  0  0
  140.6150   78.6286  218.4930 H   0  0  0  0  0  0  0  0  0  0  0  0
  143.0178   77.3777  219.3739 H   0  0  0  0  0  0  0  0  0  0  0  0
  142.1282   77.0257  217.8536 H   0  0  0  0  0  0  0  0  0  0  0  0
  143.4686   78.2214  217.8536 H   0  0  0  0  0  0  0  0  0  0  0  0
  142.4181   81.1932  219.7451 H   0  0  0  0  0  0  0  0  0  0  0  0
  142.5560   81.9425  222.1115 H   0  0  0  0  0  0  0  0  0  0  0  0
  141.8470   80.3437  223.8846 H   0  0  0  0  0  0  0  0  0  0  0  0
  141.0392   78.1019  223.3109 H   0  0  0  0  0  0  0  0  0  0  0  0
  140.9730   76.7590  219.8130 H   0  0  0  0  0  0  0  0  0  0  0  0
  138.6812   74.8874  220.6275 H   0  0  0  0  0  0  0  0  0  0  0  0
  140.3700   74.5299  220.2034 H   0  0  0  0  0  0  0  0  0  0  0  0
  139.5940   74.1620  223.1010 H   0  0  0  0  0  0  0  0  0  0  0  0
  139.1610   69.9410  221.9117 H   0  0  0  0  0  0  0  0  0  0  0  0
  139.1732   68.3424  223.7762 H   0  0  0  0  0  0  0  0  0  0  0  0
  139.7021   67.8726  226.0670 H   0  0  0  0  0  0  0  0  0  0  0  0
  141.4711   70.9226  228.4840 H   0  0  0  0  0  0  0  0  0  0  0  0
  141.4417   72.5141  226.5652 H   0  0  0  0  0  0  0  0  0  0  0  0
  1  2  1  0
  2  3  1  0
  2  4  1  0
  4  5  2  0
  5  6  1  0
  6  7  2  0
  7  8  1  0
  8  9  2  0
  9 10  1  0
 10 11  1  0
 11 12  2  0
 11 13  1  0
 13 14  1  0
 14 15  1  0
 15 16  2  0
 15 17  1  0
 17 18  2  0
 18 19  1  0
 19 20  2  0
 20 21  1  0
 21 22  2  0
 22 23  1  0
 22 24  1  0
 24 25  2  0
 25 26  1  0
 26 27  2  0
  9  4  1  0
 27 17  1  0
 26 20  1  0
  1 28  1  0
  1 29  1  0
  1 30  1  0
  2 31  1  0
  3 32  1  0
  3 33  1  0
  3 34  1  0
  5 35  1  0
  6 36  1  0
  7 37  1  0
  8 38  1  0
 10 39  1  0
 13 40  1  0
 13 41  1  0
 14 42  1  0
 18 43  1  0
 19 44  1  0
 21 45  1  0
 24 46  1  0
 25 47  1  0
M  END
>  <smiles>  (28) 
CC(C)c1ccccc1NC(=O)CNC(=O)c1ccc2cc(Cl)ccc2n1

>  <score_type>  (28) 
oracle

>  <origin>  (28) 
autodockgpu

>  <m_score__min__energy>  (28) 
-9.2699999999999996

>  <m_primary>  (28) 
energy

>  <rmsd>  (28) 
2.6273563186361915

>  <m_score__min__rmsd>  (28) 
2.6273563186361915

>  <meeko>  (28) 
{"free_energy": -8.28, "intermolecular_energy": -9.77, "internal_energy": -1.7, "cluster_size": 26, "cluster_id": 1, "rank_in_cluster": 18}

>  <energy>  (28) 
-8.72

>  <cluster_rmsd>  (28) 
0.22

>  <cluster>  (28) 
2

$$$$

     RDKit          3D

 47 49  0  0  0  0  0  0  0  0999 V2000
  142.8260   80.1620  222.7140 C   0  0  0  0  0  0  0  0  0  0  0  0
  141.8150   79.0660  222.5670 C   0  0  0  0  0  0  0  0  0  0  0  0
  141.8500   78.2930  223.8810 C   0  0  0  0  0  0  0  0  0  0  0  0
  140.4650   79.6600  222.3420 C   0  0  0  0  0  0  0  0  0  0  0  0
  140.3060   80.9670  222.8220 C   0  0  0  0  0  0  0  0  0  0  0  0
  139.1150   81.6440  222.7020 C   0  0  0  0  0  0  0  0  0  0  0  0
  138.0810   80.9770  222.0870 C   0  0  0  0  0  0  0  0  0  0  0  0
  138.2380   79.6860  221.6130 C   0  0  0  0  0  0  0  0  0  0  0  0
  139.4320   78.9840  221.7240 C   0  0  0  0  0  0  0  0  0  0  0  0
  139.6290   77.6910  221.2570 N   0  0  0  0  0  0  0  0  0  0  0  0
  139.2180   76.4820  221.8500 C   0  0  0  0  0  0  0  0  0  0  0  0
  138.6010   76.4480  222.9140 O   0  0  0  0  0  0  0  0  0  0  0  0
  139.5280   75.1840  221.1860 C   0  0  0  0  0  0  0  0  0  0  0  0
  139.6150   74.1850  222.2340 N   0  0  0  0  0  0  0  0  0  0  0  0
  139.9160   72.8350  221.9400 C   0  0  0  0  0  0  0  0  0  0  0  0
  140.1280   72.3940  220.7820 O   0  0  0  0  0  0  0  0  0  0  0  0
  139.9850   71.8890  223.0720 C   0  0  0  0  0  0  0  0  0  0  0  0
  139.5330   70.5830  222.9300 C   0  0  0  0  0  0  0  0  0  0  0  0
  139.5680   69.6580  223.9350 C   0  0  0  0  0  0  0  0  0  0  0  0
  140.0790   70.0540  225.1520 C   0  0  0  0  0  0  0  0  0  0  0  0
  140.1290   69.1500  226.1870 C   0  0  0  0  0  0  0  0  0  0  0  0
  140.6420   69.5600  227.3910 C   0  0  0  0  0  0  0  0  0  0  0  0
  140.7080   68.4110  228.7160 Cl  0  0  0  0  0  0  0  0  0  0  0  0
  141.0880   70.8380  227.5480 C   0  0  0  0  0  0  0  0  0  0  0  0
  141.0390   71.7590  226.5010 C   0  0  0  0  0  0  0  0  0  0  0  0
  140.5240   71.3600  225.2760 C   0  0  0  0  0  0  0  0  0  0  0  0
  140.4770   72.2470  224.2670 N   0  0  0  0  0  0  0  0  0  0  0  0
  143.0044   80.3554  223.7821 H   0  0  0  0  0  0  0  0  0  0  0  0
  143.7681   79.8586  222.2339 H   0  0  0  0  0  0  0  0  0  0  0  0
  142.4477   81.0766  222.2339 H   0  0  0  0  0  0  0  0  0  0  0  0
  142.0337   78.4084  221.7127 H   0  0  0  0  0  0  0  0  0  0  0  0
  141.8180   78.9999  224.7232 H   0  0  0  0  0  0  0  0  0  0  0  0
  140.9814   77.6201  223.9338 H   0  0  0  0  0  0  0  0  0  0  0  0
  142.7759   77.7014  223.9338 H   0  0  0  0  0  0  0  0  0  0  0  0
  141.1576   81.4653  223.3083 H   0  0  0  0  0  0  0  0  0  0  0  0
  138.9949   82.6701  223.0798 H   0  0  0  0  0  0  0  0  0  0  0  0
  137.1097   81.4798  221.9695 H   0  0  0  0  0  0  0  0  0  0  0  0
  137.3814   79.1951  221.1280 H   0  0  0  0  0  0  0  0  0  0  0  0
  140.1520   77.5780  220.3320 H   0  0  0  0  0  0  0  0  0  0  0  0
  138.7284   74.9208  220.4779 H   0  0  0  0  0  0  0  0  0  0  0  0
  140.4701   75.2456  220.6215 H   0  0  0  0  0  0  0  0  0  0  0  0
  139.4510   74.4710  223.2420 H   0  0  0  0  0  0  0  0  0  0  0  0
  139.1248   70.2770  221.9555 H   0  0  0  0  0  0  0  0  0  0  0  0
  139.2011   68.6329  223.7781 H   0  0  0  0  0  0  0  0  0  0  0  0
  139.7655   68.1206  226.0522 H   0  0  0  0  0  0  0  0  0  0  0  0
  141.4954   71.1502  228.5209 H   0  0  0  0  0  0  0  0  0  0  0  0
  141.4035   72.7869  226.6448 H   0  0  0  0  0  0  0  0  0  0  0  0
  1  2  1  0
  2  3  1  0
  2  4  1  0
  4  5  2  0
  5  6  1  0
  6  7  2  0
  7  8  1  0
  8  9  2  0
  9 10  1  0
 10 11  1  0
 11 12  2  0
 11 13  1  0
 13 14  1  0
 14 15  1  0
 15 16  2  0
 15 17  1  0
 17 18  2  0
 18 19  1  0
 19 20  2  0
 20 21  1  0
 21 22  2  0
 22 23  1  0
 22 24  1  0
 24 25  2  0
 25 26  1  0
 26 27  2  0
  9  4  1  0
 27 17  1  0
 26 20  1  0
  1 28  1  0
  1 29  1  0
  1 30  1  0
  2 31  1  0
  3 32  1  0
  3 33  1  0
  3 34  1  0
  5 35  1  0
  6 36  1  0
  7 37  1  0
  8 38  1  0
 10 39  1  0
 13 40  1  0
 13 41  1  0
 14 42  1  0
 18 43  1  0
 19 44  1  0
 21 45  1  0
 24 46  1  0
 25 47  1  0
M  END
>  <smiles>  (29) 
CC(C)c1ccccc1NC(=O)CNC(=O)c1ccc2cc(Cl)ccc2n1

>  <score_type>  (29) 
oracle

>  <origin>  (29) 
autodockgpu

>  <m_score__min__energy>  (29) 
-9.2699999999999996

>  <m_primary>  (29) 
energy

>  <rmsd>  (29) 
3.5996154572775563

>  <m_score__min__rmsd>  (29) 
3.5996154572775563

>  <meeko>  (29) 
{"free_energy": -7.99, "intermolecular_energy": -9.49, "internal_energy": -1.88, "cluster_size": 26, "cluster_id": 1, "rank_in_cluster": 21}

>  <energy>  (29) 
-8.69

>  <cluster_rmsd>  (29) 
0.58

>  <cluster>  (29) 
2

$$$$

     RDKit          3D

 47 49  0  0  0  0  0  0  0  0999 V2000
  141.7630   78.6340  218.4380 C   0  0  0  0  0  0  0  0  0  0  0  0
  141.4100   77.6730  219.5310 C   0  0  0  0  0  0  0  0  0  0  0  0
  142.6380   76.7870  219.7150 C   0  0  0  0  0  0  0  0  0  0  0  0
  141.1140   78.4280  220.7830 C   0  0  0  0  0  0  0  0  0  0  0  0
  141.8170   79.6310  220.9280 C   0  0  0  0  0  0  0  0  0  0  0  0
  141.6620   80.4320  222.0360 C   0  0  0  0  0  0  0  0  0  0  0  0
  140.7820   79.9970  222.9990 C   0  0  0  0  0  0  0  0  0  0  0  0
  140.0880   78.8080  222.8550 C   0  0  0  0  0  0  0  0  0  0  0  0
  140.2290   77.9840  221.7460 C   0  0  0  0  0  0  0  0  0  0  0  0
  139.5480   76.7880  221.5640 N   0  0  0  0  0  0  0  0  0  0  0  0
  140.0590   75.4780  221.6350 C   0  0  0  0  0  0  0  0  0  0  0  0
  141.2420   75.2460  221.8820 O   0  0  0  0  0  0  0  0  0  0  0  0
  139.1570   74.3130  221.4070 C   0  0  0  0  0  0  0  0  0  0  0  0
  139.4220   73.3610  222.4680 N   0  0  0  0  0  0  0  0  0  0  0  0
  139.0210   72.0090  222.3600 C   0  0  0  0  0  0  0  0  0  0  0  0
  138.4170   71.5280  221.3670 O   0  0  0  0  0  0  0  0  0  0  0  0
  139.3350   71.1120  223.4900 C   0  0  0  0  0  0  0  0  0  0  0  0
  139.0350   69.7570  223.4210 C   0  0  0  0  0  0  0  0  0  0  0  0
  139.2990   68.8730  224.4290 C   0  0  0  0  0  0  0  0  0  0  0  0
  139.8940   69.3630  225.5720 C   0  0  0  0  0  0  0  0  0  0  0  0
  140.1740   68.5020  226.6060 C   0  0  0  0  0  0  0  0  0  0  0  0
  140.7660   69.0060  227.7360 C   0  0  0  0  0  0  0  0  0  0  0  0
  141.1260   67.9120  229.0610 Cl  0  0  0  0  0  0  0  0  0  0  0  0
  141.0660   70.3320  227.8210 C   0  0  0  0  0  0  0  0  0  0  0  0
  140.7840   71.2100  226.7720 C   0  0  0  0  0  0  0  0  0  0  0  0
  140.1850   70.7160  225.6230 C   0  0  0  0  0  0  0  0  0  0  0  0
  139.9130   71.5610  224.6140 N   0  0  0  0  0  0  0  0  0  0  0  0
  142.1104   79.5798  218.8794 H   0  0  0  0  0  0  0  0  0  0  0  0
  142.5620   78.2044  217.8159 H   0  0  0  0  0  0  0  0  0  0  0  0
  140.8759   78.8237  217.8159 H   0  0  0  0  0  0  0  0  0  0  0  0
  140.5201   77.0739  219.2879 H   0  0  0  0  0  0  0  0  0  0  0  0
  142.8317   76.6472  220.7887 H   0  0  0  0  0  0  0  0  0  0  0  0
  142.4584   75.8091  219.2445 H   0  0  0  0  0  0  0  0  0  0  0  0
  143.5094   77.2658  219.2445 H   0  0  0  0  0  0  0  0  0  0  0  0
  142.5117   79.9437  220.1346 H   0  0  0  0  0  0  0  0  0  0  0  0
  142.2160   81.3759  222.1463 H   0  0  0  0  0  0  0  0  0  0  0  0
  140.6265   80.6060  223.9017 H   0  0  0  0  0  0  0  0  0  0  0  0
  139.3952   78.5028  223.6530 H   0  0  0  0  0  0  0  0  0  0  0  0
  138.5040   76.8470  221.3460 H   0  0  0  0  0  0  0  0  0  0  0  0
  138.1060   74.6358  221.4422 H   0  0  0  0  0  0  0  0  0  0  0  0
  139.3376   73.8626  220.4198 H   0  0  0  0  0  0  0  0  0  0  0  0
  139.9280   73.6820  223.3420 H   0  0  0  0  0  0  0  0  0  0  0  0
  138.5593   69.3754  222.5055 H   0  0  0  0  0  0  0  0  0  0  0  0
  139.0455   67.8070  224.3318 H   0  0  0  0  0  0  0  0  0  0  0  0
  139.9288   67.4324  226.5291 H   0  0  0  0  0  0  0  0  0  0  0  0
  141.5402   70.7194  228.7348 H   0  0  0  0  0  0  0  0  0  0  0  0
  141.0335   72.2780  226.8561 H   0  0  0  0  0  0  0  0  0  0  0  0
  1  2  1  0
  2  3  1  0
  2  4  1  0
  4  5  2  0
  5  6  1  0
  6  7  2  0
  7  8  1  0
  8  9  2  0
  9 10  1  0
 10 11  1  0
 11 12  2  0
 11 13  1  0
 13 14  1  0
 14 15  1  0
 15 16  2  0
 15 17  1  0
 17 18  2  0
 18 19  1  0
 19 20  2  0
 20 21  1  0
 21 22  2  0
 22 23  1  0
 22 24  1  0
 24 25  2  0
 25 26  1  0
 26 27  2  0
  9  4  1  0
 27 17  1  0
 26 20  1  0
  1 28  1  0
  1 29  1  0
  1 30  1  0
  2 31  1  0
  3 32  1  0
  3 33  1  0
  3 34  1  0
  5 35  1  0
  6 36  1  0
  7 37  1  0
  8 38  1  0
 10 39  1  0
 13 40  1  0
 13 41  1  0
 14 42  1  0
 18 43  1  0
 19 44  1  0
 21 45  1  0
 24 46  1  0
 25 47  1  0
M  END
>  <smiles>  (30) 
CC(C)c1ccccc1NC(=O)CNC(=O)c1ccc2cc(Cl)ccc2n1

>  <score_type>  (30) 
oracle

>  <origin>  (30) 
autodockgpu

>  <m_score__min__energy>  (30) 
-9.2699999999999996

>  <m_primary>  (30) 
energy

>  <rmsd>  (30) 
2.1426340002471953

>  <m_score__min__rmsd>  (30) 
2.1426340002471953

>  <meeko>  (30) 
{"free_energy": -7.75, "intermolecular_energy": -9.24, "internal_energy": -1.64, "cluster_size": 26, "cluster_id": 1, "rank_in_cluster": 26}

>  <energy>  (30) 
-8.67

>  <cluster_rmsd>  (30) 
1.91

>  <cluster>  (30) 
2

$$$$

     RDKit          3D

 47 49  0  0  0  0  0  0  0  0999 V2000
  139.9460   67.4320  225.7290 C   0  0  0  0  0  0  0  0  0  0  0  0
  139.6140   68.7990  225.2130 C   0  0  0  0  0  0  0  0  0  0  0  0
  138.0920   68.8880  225.2280 C   0  0  0  0  0  0  0  0  0  0  0  0
  140.2100   69.8300  226.1100 C   0  0  0  0  0  0  0  0  0  0  0  0
  140.3510   69.4380  227.4490 C   0  0  0  0  0  0  0  0  0  0  0  0
  140.8720   70.2840  228.4010 C   0  0  0  0  0  0  0  0  0  0  0  0
  141.2500   71.5370  227.9780 C   0  0  0  0  0  0  0  0  0  0  0  0
  141.1120   71.9230  226.6560 C   0  0  0  0  0  0  0  0  0  0  0  0
  140.5880   71.0850  225.6780 C   0  0  0  0  0  0  0  0  0  0  0  0
  140.4380   71.4350  224.3430 N   0  0  0  0  0  0  0  0  0  0  0  0
  139.2430   71.6030  223.6190 C   0  0  0  0  0  0  0  0  0  0  0  0
  138.1350   71.4450  224.1320 O   0  0  0  0  0  0  0  0  0  0  0  0
  139.2910   71.9840  222.1780 C   0  0  0  0  0  0  0  0  0  0  0  0
  139.6320   73.3920  222.1270 N   0  0  0  0  0  0  0  0  0  0  0  0
  140.6770   73.8650  221.2990 C   0  0  0  0  0  0  0  0  0  0  0  0
  141.3820   73.1320  220.5610 O   0  0  0  0  0  0  0  0  0  0  0  0
  140.9520   75.3170  221.3100 C   0  0  0  0  0  0  0  0  0  0  0  0
  141.8480   75.8730  220.4060 C   0  0  0  0  0  0  0  0  0  0  0  0
  142.1470   77.2050  220.3620 C   0  0  0  0  0  0  0  0  0  0  0  0
  141.5200   78.0330  221.2690 C   0  0  0  0  0  0  0  0  0  0  0  0
  141.7970   79.3790  221.2540 C   0  0  0  0  0  0  0  0  0  0  0  0
  141.1640   80.1890  222.1630 C   0  0  0  0  0  0  0  0  0  0  0  0
  141.5130   81.9090  222.1490 Cl  0  0  0  0  0  0  0  0  0  0  0  0
  140.2830   79.6590  223.0570 C   0  0  0  0  0  0  0  0  0  0  0  0
  139.9990   78.2930  223.0760 C   0  0  0  0  0  0  0  0  0  0  0  0
  140.6300   77.4610  222.1630 C   0  0  0  0  0  0  0  0  0  0  0  0
  140.3560   76.1450  222.1810 N   0  0  0  0  0  0  0  0  0  0  0  0
  139.9430   67.4445  226.8289 H   0  0  0  0  0  0  0  0  0  0  0  0
  139.1966   66.7120  225.3684 H   0  0  0  0  0  0  0  0  0  0  0  0
  140.9422   67.1359  225.3684 H   0  0  0  0  0  0  0  0  0  0  0  0
  140.0126   68.9707  224.2022 H   0  0  0  0  0  0  0  0  0  0  0  0
  137.7362   68.9088  226.2686 H   0  0  0  0  0  0  0  0  0  0  0  0
  137.7733   69.8063  224.7131 H   0  0  0  0  0  0  0  0  0  0  0  0
  137.6684   68.0131  224.7131 H   0  0  0  0  0  0  0  0  0  0  0  0
  140.0366   68.4267  227.7464 H   0  0  0  0  0  0  0  0  0  0  0  0
  140.9810   69.9730  229.4505 H   0  0  0  0  0  0  0  0  0  0  0  0
  141.6707   72.2469  228.7053 H   0  0  0  0  0  0  0  0  0  0  0  0
  141.4303   72.9355  226.3669 H   0  0  0  0  0  0  0  0  0  0  0  0
  141.3280   71.6060  223.7780 H   0  0  0  0  0  0  0  0  0  0  0  0
  140.0551   71.3903  221.6548 H   0  0  0  0  0  0  0  0  0  0  0  0
  138.3247   71.7944  221.6877 H   0  0  0  0  0  0  0  0  0  0  0  0
  139.0870   74.0820  222.7180 H   0  0  0  0  0  0  0  0  0  0  0  0
  142.3436   75.2045  219.6866 H   0  0  0  0  0  0  0  0  0  0  0  0
  142.8632   77.6034  219.6284 H   0  0  0  0  0  0  0  0  0  0  0  0
  142.5105   79.7979  220.5292 H   0  0  0  0  0  0  0  0  0  0  0  0
  139.7849   80.3223  223.7794 H   0  0  0  0  0  0  0  0  0  0  0  0
  139.2849   77.8818  223.8046 H   0  0  0  0  0  0  0  0  0  0  0  0
  1  2  1  0
  2  3  1  0
  2  4  1  0
  4  5  2  0
  5  6  1  0
  6  7  2  0
  7  8  1  0
  8  9  2  0
  9 10  1  0
 10 11  1  0
 11 12  2  0
 11 13  1  0
 13 14  1  0
 14 15  1  0
 15 16  2  0
 15 17  1  0
 17 18  2  0
 18 19  1  0
 19 20  2  0
 20 21  1  0
 21 22  2  0
 22 23  1  0
 22 24  1  0
 24 25  2  0
 25 26  1  0
 26 27  2  0
  9  4  1  0
 27 17  1  0
 26 20  1  0
  1 28  1  0
  1 29  1  0
  1 30  1  0
  2 31  1  0
  3 32  1  0
  3 33  1  0
  3 34  1  0
  5 35  1  0
  6 36  1  0
  7 37  1  0
  8 38  1  0
 10 39  1  0
 13 40  1  0
 13 41  1  0
 14 42  1  0
 18 43  1  0
 19 44  1  0
 21 45  1  0
 24 46  1  0
 25 47  1  0
M  END
>  <smiles>  (31) 
CC(C)c1ccccc1NC(=O)CNC(=O)c1ccc2cc(Cl)ccc2n1

>  <score_type>  (31) 
oracle

>  <origin>  (31) 
autodockgpu

>  <m_score__min__energy>  (31) 
-9.2699999999999996

>  <m_primary>  (31) 
energy

>  <rmsd>  (31) 
8.46755061701333

>  <m_score__min__rmsd>  (31) 
8.46755061701333

>  <meeko>  (31) 
{"free_energy": -8.87, "intermolecular_energy": -10.36, "internal_energy": -1.39, "cluster_size": 18, "cluster_id": 2, "rank_in_cluster": 1}

>  <energy>  (31) 
-8.58

>  <cluster_rmsd>  (31) 
0.96

>  <cluster>  (31) 
2

$$$$

     RDKit          3D

 47 49  0  0  0  0  0  0  0  0999 V2000
  138.6870   80.1190  224.1380 C   0  0  0  0  0  0  0  0  0  0  0  0
  138.9790   79.0560  223.1220 C   0  0  0  0  0  0  0  0  0  0  0  0
  137.7050   78.9140  222.2960 C   0  0  0  0  0  0  0  0  0  0  0  0
  140.1180   79.4870  222.2630 C   0  0  0  0  0  0  0  0  0  0  0  0
  140.6720   80.7310  222.5940 C   0  0  0  0  0  0  0  0  0  0  0  0
  141.7200   81.2710  221.8850 C   0  0  0  0  0  0  0  0  0  0  0  0
  142.2020   80.5310  220.8300 C   0  0  0  0  0  0  0  0  0  0  0  0
  141.6550   79.3030  220.5030 C   0  0  0  0  0  0  0  0  0  0  0  0
  140.5960   78.7390  221.2050 C   0  0  0  0  0  0  0  0  0  0  0  0
  140.0250   77.5090  220.9100 N   0  0  0  0  0  0  0  0  0  0  0  0
  140.1050   76.3140  221.6510 C   0  0  0  0  0  0  0  0  0  0  0  0
  140.7340   76.2360  222.7060 O   0  0  0  0  0  0  0  0  0  0  0  0
  139.4150   75.0870  221.1630 C   0  0  0  0  0  0  0  0  0  0  0  0
  139.5340   74.0910  222.2110 N   0  0  0  0  0  0  0  0  0  0  0  0
  139.6440   72.7140  221.9070 C   0  0  0  0  0  0  0  0  0  0  0  0
  139.6470   72.2450  220.7410 O   0  0  0  0  0  0  0  0  0  0  0  0
  139.7630   71.7740  223.0400 C   0  0  0  0  0  0  0  0  0  0  0  0
  139.3140   70.4650  222.9210 C   0  0  0  0  0  0  0  0  0  0  0  0
  139.3940   69.5450  223.9280 C   0  0  0  0  0  0  0  0  0  0  0  0
  139.9520   69.9490  225.1220 C   0  0  0  0  0  0  0  0  0  0  0  0
  140.0480   69.0490  226.1570 C   0  0  0  0  0  0  0  0  0  0  0  0
  140.6070   69.4670  227.3380 C   0  0  0  0  0  0  0  0  0  0  0  0
  140.7330   68.3240  228.6650 Cl  0  0  0  0  0  0  0  0  0  0  0  0
  141.0520   70.7480  227.4720 C   0  0  0  0  0  0  0  0  0  0  0  0
  140.9560   71.6640  226.4230 C   0  0  0  0  0  0  0  0  0  0  0  0
  140.3940   71.2570  225.2230 C   0  0  0  0  0  0  0  0  0  0  0  0
  140.3020   72.1400  224.2130 N   0  0  0  0  0  0  0  0  0  0  0  0
  138.8018   79.7012  225.1491 H   0  0  0  0  0  0  0  0  0  0  0  0
  139.3886   80.9558  224.0052 H   0  0  0  0  0  0  0  0  0  0  0  0
  137.6564   80.4800  224.0052 H   0  0  0  0  0  0  0  0  0  0  0  0
  139.2600   78.0996  223.5872 H   0  0  0  0  0  0  0  0  0  0  0  0
  136.8404   78.8176  222.9692 H   0  0  0  0  0  0  0  0  0  0  0  0
  137.5783   79.8036  221.6615 H   0  0  0  0  0  0  0  0  0  0  0  0
  137.7773   78.0184  221.6615 H   0  0  0  0  0  0  0  0  0  0  0  0
  140.2572   81.2915  223.4447 H   0  0  0  0  0  0  0  0  0  0  0  0
  142.1519   82.2476  222.1489 H   0  0  0  0  0  0  0  0  0  0  0  0
  143.0393   80.9237  220.2344 H   0  0  0  0  0  0  0  0  0  0  0  0
  142.0762   78.7492  219.6510 H   0  0  0  0  0  0  0  0  0  0  0  0
  139.4430   77.4400  220.0170 H   0  0  0  0  0  0  0  0  0  0  0  0
  138.3547   75.3028  220.9650 H   0  0  0  0  0  0  0  0  0  0  0  0
  139.8660   74.7282  220.2261 H   0  0  0  0  0  0  0  0  0  0  0  0
  139.5410   74.4000  223.2250 H   0  0  0  0  0  0  0  0  0  0  0  0
  138.8700   70.1521  221.9644 H   0  0  0  0  0  0  0  0  0  0  0  0
  139.0259   68.5176  223.7907 H   0  0  0  0  0  0  0  0  0  0  0  0
  139.6848   68.0172  226.0407 H   0  0  0  0  0  0  0  0  0  0  0  0
  141.4961   71.0668  228.4265 H   0  0  0  0  0  0  0  0  0  0  0  0
  141.3211   72.6942  226.5469 H   0  0  0  0  0  0  0  0  0  0  0  0
  1  2  1  0
  2  3  1  0
  2  4  1  0
  4  5  2  0
  5  6  1  0
  6  7  2  0
  7  8  1  0
  8  9  2  0
  9 10  1  0
 10 11  1  0
 11 12  2  0
 11 13  1  0
 13 14  1  0
 14 15  1  0
 15 16  2  0
 15 17  1  0
 17 18  2  0
 18 19  1  0
 19 20  2  0
 20 21  1  0
 21 22  2  0
 22 23  1  0
 22 24  1  0
 24 25  2  0
 25 26  1  0
 26 27  2  0
  9  4  1  0
 27 17  1  0
 26 20  1  0
  1 28  1  0
  1 29  1  0
  1 30  1  0
  2 31  1  0
  3 32  1  0
  3 33  1  0
  3 34  1  0
  5 35  1  0
  6 36  1  0
  7 37  1  0
  8 38  1  0
 10 39  1  0
 13 40  1  0
 13 41  1  0
 14 42  1  0
 18 43  1  0
 19 44  1  0
 21 45  1  0
 24 46  1  0
 25 47  1  0
M  END
>  <smiles>  (32) 
CC(C)c1ccccc1NC(=O)CNC(=O)c1ccc2cc(Cl)ccc2n1

>  <score_type>  (32) 
oracle

>  <origin>  (32) 
autodockgpu

>  <m_score__min__energy>  (32) 
-9.2699999999999996

>  <m_primary>  (32) 
energy

>  <rmsd>  (32) 
3.578704707663388

>  <m_score__min__rmsd>  (32) 
3.578704707663388

>  <meeko>  (32) 
{"free_energy": -7.94, "intermolecular_energy": -9.43, "internal_energy": -1.85, "cluster_size": 26, "cluster_id": 1, "rank_in_cluster": 22}

>  <energy>  (32) 
-8.4

>  <cluster_rmsd>  (32) 
0.92

>  <cluster>  (32) 
2

$$$$

     RDKit          3D

 47 49  0  0  0  0  0  0  0  0999 V2000
  139.9560   67.4230  225.7360 C   0  0  0  0  0  0  0  0  0  0  0  0
  139.6630   68.7870  225.1900 C   0  0  0  0  0  0  0  0  0  0  0  0
  138.1430   68.8830  225.1110 C   0  0  0  0  0  0  0  0  0  0  0  0
  140.2080   69.8230  226.1140 C   0  0  0  0  0  0  0  0  0  0  0  0
  140.2570   69.4460  227.4630 C   0  0  0  0  0  0  0  0  0  0  0  0
  140.7220   70.2980  228.4380 C   0  0  0  0  0  0  0  0  0  0  0  0
  141.1380   71.5420  228.0280 C   0  0  0  0  0  0  0  0  0  0  0  0
  141.0900   71.9150  226.6960 C   0  0  0  0  0  0  0  0  0  0  0  0
  140.6240   71.0710  225.6940 C   0  0  0  0  0  0  0  0  0  0  0  0
  140.5660   71.4060  224.3490 N   0  0  0  0  0  0  0  0  0  0  0  0
  139.4210   71.6250  223.5580 C   0  0  0  0  0  0  0  0  0  0  0  0
  138.2810   71.5330  224.0110 O   0  0  0  0  0  0  0  0  0  0  0  0
  139.5680   71.9800  222.1170 C   0  0  0  0  0  0  0  0  0  0  0  0
  139.7450   73.4180  222.0540 N   0  0  0  0  0  0  0  0  0  0  0  0
  140.6780   74.0050  221.1680 C   0  0  0  0  0  0  0  0  0  0  0  0
  141.4140   73.3550  220.3830 O   0  0  0  0  0  0  0  0  0  0  0  0
  140.7880   75.4780  221.1720 C   0  0  0  0  0  0  0  0  0  0  0  0
  140.6550   76.1990  219.9920 C   0  0  0  0  0  0  0  0  0  0  0  0
  140.7460   77.5610  219.9260 C   0  0  0  0  0  0  0  0  0  0  0  0
  140.9830   78.2450  221.0990 C   0  0  0  0  0  0  0  0  0  0  0  0
  141.0800   79.6160  221.0690 C   0  0  0  0  0  0  0  0  0  0  0  0
  141.3160   80.2820  222.2450 C   0  0  0  0  0  0  0  0  0  0  0  0
  141.4410   82.0330  222.2150 Cl  0  0  0  0  0  0  0  0  0  0  0  0
  141.4490   79.5900  223.4110 C   0  0  0  0  0  0  0  0  0  0  0  0
  141.3510   78.1980  223.4460 C   0  0  0  0  0  0  0  0  0  0  0  0
  141.1130   77.5100  222.2650 C   0  0  0  0  0  0  0  0  0  0  0  0
  141.0180   76.1690  222.2980 N   0  0  0  0  0  0  0  0  0  0  0  0
  139.9483   67.4587  226.8354 H   0  0  0  0  0  0  0  0  0  0  0  0
  139.1893   66.7158  225.3867 H   0  0  0  0  0  0  0  0  0  0  0  0
  140.9455   67.0930  225.3867 H   0  0  0  0  0  0  0  0  0  0  0  0
  140.1237   68.9486  224.2043 H   0  0  0  0  0  0  0  0  0  0  0  0
  137.7239   68.9095  226.1277 H   0  0  0  0  0  0  0  0  0  0  0  0
  137.8610   69.8008  224.5741 H   0  0  0  0  0  0  0  0  0  0  0  0
  137.7478   68.0080  224.5741 H   0  0  0  0  0  0  0  0  0  0  0  0
  139.9142   68.4410  227.7502 H   0  0  0  0  0  0  0  0  0  0  0  0
  140.7591   69.9977  229.4956 H   0  0  0  0  0  0  0  0  0  0  0  0
  141.5170   72.2561  228.7739 H   0  0  0  0  0  0  0  0  0  0  0  0
  141.4351   72.9218  226.4183 H   0  0  0  0  0  0  0  0  0  0  0  0
  141.4930   71.5230  223.8310 H   0  0  0  0  0  0  0  0  0  0  0  0
  140.4449   71.4717  221.6896 H   0  0  0  0  0  0  0  0  0  0  0  0
  138.6844   71.6662  221.5418 H   0  0  0  0  0  0  0  0  0  0  0  0
  139.1640   74.0430  222.6830 H   0  0  0  0  0  0  0  0  0  0  0  0
  140.4664   75.6440  219.0612 H   0  0  0  0  0  0  0  0  0  0  0  0
  140.6340   78.0931  218.9698 H   0  0  0  0  0  0  0  0  0  0  0  0
  140.9708   80.1668  220.1231 H   0  0  0  0  0  0  0  0  0  0  0  0
  141.6377   80.1400  224.3448 H   0  0  0  0  0  0  0  0  0  0  0  0
  141.4609   77.6545  224.3960 H   0  0  0  0  0  0  0  0  0  0  0  0
  1  2  1  0
  2  3  1  0
  2  4  1  0
  4  5  2  0
  5  6  1  0
  6  7  2  0
  7  8  1  0
  8  9  2  0
  9 10  1  0
 10 11  1  0
 11 12  2  0
 11 13  1  0
 13 14  1  0
 14 15  1  0
 15 16  2  0
 15 17  1  0
 17 18  2  0
 18 19  1  0
 19 20  2  0
 20 21  1  0
 21 22  2  0
 22 23  1  0
 22 24  1  0
 24 25  2  0
 25 26  1  0
 26 27  2  0
  9  4  1  0
 27 17  1  0
 26 20  1  0
  1 28  1  0
  1 29  1  0
  1 30  1  0
  2 31  1  0
  3 32  1  0
  3 33  1  0
  3 34  1  0
  5 35  1  0
  6 36  1  0
  7 37  1  0
  8 38  1  0
 10 39  1  0
 13 40  1  0
 13 41  1  0
 14 42  1  0
 18 43  1  0
 19 44  1  0
 21 45  1  0
 24 46  1  0
 25 47  1  0
M  END
>  <smiles>  (33) 
CC(C)c1ccccc1NC(=O)CNC(=O)c1ccc2cc(Cl)ccc2n1

>  <score_type>  (33) 
oracle

>  <origin>  (33) 
autodockgpu

>  <m_score__min__energy>  (33) 
-9.2699999999999996

>  <m_primary>  (33) 
energy

>  <rmsd>  (33) 
8.479040968950317

>  <m_score__min__rmsd>  (33) 
8.479040968950317

>  <meeko>  (33) 
{"free_energy": -8.69, "intermolecular_energy": -10.19, "internal_energy": -1.2, "cluster_size": 18, "cluster_id": 2, "rank_in_cluster": 3}

>  <energy>  (33) 
-8.39

>  <cluster_rmsd>  (33) 
0.64

>  <cluster>  (33) 
2

$$$$

     RDKit          3D

 47 49  0  0  0  0  0  0  0  0999 V2000
  140.3130   71.7640  228.0280 C   0  0  0  0  0  0  0  0  0  0  0  0
  140.0850   71.2930  226.6240 C   0  0  0  0  0  0  0  0  0  0  0  0
  141.2280   71.8800  225.8020 C   0  0  0  0  0  0  0  0  0  0  0  0
  140.1210   69.8030  226.5860 C   0  0  0  0  0  0  0  0  0  0  0  0
  140.9190   69.2050  227.5700 C   0  0  0  0  0  0  0  0  0  0  0  0
  141.0640   67.8390  227.6550 C   0  0  0  0  0  0  0  0  0  0  0  0
  140.3860   67.0840  226.7260 C   0  0  0  0  0  0  0  0  0  0  0  0
  139.5980   67.6750  225.7550 C   0  0  0  0  0  0  0  0  0  0  0  0
  139.4380   69.0520  225.6500 C   0  0  0  0  0  0  0  0  0  0  0  0
  138.6520   69.6810  224.6940 N   0  0  0  0  0  0  0  0  0  0  0  0
  139.0720   70.4990  223.6280 C   0  0  0  0  0  0  0  0  0  0  0  0
  140.2580   70.7570  223.4230 O   0  0  0  0  0  0  0  0  0  0  0  0
  138.0650   71.0880  222.6990 C   0  0  0  0  0  0  0  0  0  0  0  0
  137.1340   71.8470  223.5120 N   0  0  0  0  0  0  0  0  0  0  0  0
  135.9840   71.2420  224.0710 C   0  0  0  0  0  0  0  0  0  0  0  0
  135.6740   70.0330  223.9150 O   0  0  0  0  0  0  0  0  0  0  0  0
  135.0940   72.0930  224.8870 C   0  0  0  0  0  0  0  0  0  0  0  0
  134.0990   71.5250  225.6720 C   0  0  0  0  0  0  0  0  0  0  0  0
  133.2440   72.2530  226.4500 C   0  0  0  0  0  0  0  0  0  0  0  0
  133.3850   73.6240  226.4460 C   0  0  0  0  0  0  0  0  0  0  0  0
  132.5410   74.3880  227.2170 C   0  0  0  0  0  0  0  0  0  0  0  0
  132.6950   75.7510  227.2030 C   0  0  0  0  0  0  0  0  0  0  0  0
  131.6210   76.7330  228.1850 Cl  0  0  0  0  0  0  0  0  0  0  0  0
  133.6660   76.3250  226.4380 C   0  0  0  0  0  0  0  0  0  0  0  0
  134.5250   75.5520  225.6540 C   0  0  0  0  0  0  0  0  0  0  0  0
  134.3820   74.1730  225.6580 C   0  0  0  0  0  0  0  0  0  0  0  0
  135.2090   73.4290  224.9030 N   0  0  0  0  0  0  0  0  0  0  0  0
  139.9454   71.0046  228.7338 H   0  0  0  0  0  0  0  0  0  0  0  0
  141.3889   71.9253  228.1905 H   0  0  0  0  0  0  0  0  0  0  0  0
  139.7721   72.7079  228.1905 H   0  0  0  0  0  0  0  0  0  0  0  0
  139.1079   71.6099  226.2306 H   0  0  0  0  0  0  0  0  0  0  0  0
  141.9999   72.2764  226.4780 H   0  0  0  0  0  0  0  0  0  0  0  0
  141.6645   71.0945  225.1676 H   0  0  0  0  0  0  0  0  0  0  0  0
  140.8439   72.6924  225.1676 H   0  0  0  0  0  0  0  0  0  0  0  0
  141.4441   69.8448  228.2946 H   0  0  0  0  0  0  0  0  0  0  0  0
  141.6920   67.3732  228.4287 H   0  0  0  0  0  0  0  0  0  0  0  0
  140.4724   65.9878  226.7561 H   0  0  0  0  0  0  0  0  0  0  0  0
  139.0756   67.0278  225.0351 H   0  0  0  0  0  0  0  0  0  0  0  0
  137.5960   69.5350  224.7530 H   0  0  0  0  0  0  0  0  0  0  0  0
  138.5610   71.7502  221.9741 H   0  0  0  0  0  0  0  0  0  0  0  0
  137.5434   70.3014  222.1341 H   0  0  0  0  0  0  0  0  0  0  0  0
  137.3190   72.8740  223.6950 H   0  0  0  0  0  0  0  0  0  0  0  0
  133.9937   70.4301  225.6670 H   0  0  0  0  0  0  0  0  0  0  0  0
  132.4701   71.7621  227.0584 H   0  0  0  0  0  0  0  0  0  0  0  0
  131.7597   73.9167  227.8314 H   0  0  0  0  0  0  0  0  0  0  0  0
  133.7753   77.4196  226.4381 H   0  0  0  0  0  0  0  0  0  0  0  0
  135.3039   76.0304  225.0421 H   0  0  0  0  0  0  0  0  0  0  0  0
  1  2  1  0
  2  3  1  0
  2  4  1  0
  4  5  2  0
  5  6  1  0
  6  7  2  0
  7  8  1  0
  8  9  2  0
  9 10  1  0
 10 11  1  0
 11 12  2  0
 11 13  1  0
 13 14  1  0
 14 15  1  0
 15 16  2  0
 15 17  1  0
 17 18  2  0
 18 19  1  0
 19 20  2  0
 20 21  1  0
 21 22  2  0
 22 23  1  0
 22 24  1  0
 24 25  2  0
 25 26  1  0
 26 27  2  0
  9  4  1  0
 27 17  1  0
 26 20  1  0
  1 28  1  0
  1 29  1  0
  1 30  1  0
  2 31  1  0
  3 32  1  0
  3 33  1  0
  3 34  1  0
  5 35  1  0
  6 36  1  0
  7 37  1  0
  8 38  1  0
 10 39  1  0
 13 40  1  0
 13 41  1  0
 14 42  1  0
 18 43  1  0
 19 44  1  0
 21 45  1  0
 24 46  1  0
 25 47  1  0
M  END
>  <smiles>  (34) 
CC(C)c1ccccc1NC(=O)CNC(=O)c1ccc2cc(Cl)ccc2n1

>  <score_type>  (34) 
oracle

>  <origin>  (34) 
autodockgpu

>  <m_score__min__energy>  (34) 
-9.2699999999999996

>  <m_primary>  (34) 
energy

>  <rmsd>  (34) 
7.812677137446843

>  <m_score__min__rmsd>  (34) 
7.812677137446843

>  <meeko>  (34) 
{"free_energy": -8.08, "intermolecular_energy": -9.57, "internal_energy": -2.23, "cluster_size": 3, "cluster_id": 3, "rank_in_cluster": 2}

>  <energy>  (34) 
-8.38

>  <cluster_rmsd>  (34) 
0.8

>  <cluster>  (34) 
2

$$$$

     RDKit          3D

 47 49  0  0  0  0  0  0  0  0999 V2000
  141.0670   80.7550  219.3300 C   0  0  0  0  0  0  0  0  0  0  0  0
  141.0870   79.3690  219.8980 C   0  0  0  0  0  0  0  0  0  0  0  0
  142.2010   78.6360  219.1580 C   0  0  0  0  0  0  0  0  0  0  0  0
  141.3790   79.4320  221.3590 C   0  0  0  0  0  0  0  0  0  0  0  0
  141.4840   80.7260  221.8860 C   0  0  0  0  0  0  0  0  0  0  0  0
  141.7640   80.9480  223.2150 C   0  0  0  0  0  0  0  0  0  0  0  0
  141.9370   79.8370  224.0060 C   0  0  0  0  0  0  0  0  0  0  0  0
  141.8330   78.5590  223.4860 C   0  0  0  0  0  0  0  0  0  0  0  0
  141.5520   78.3120  222.1470 C   0  0  0  0  0  0  0  0  0  0  0  0
  141.4350   77.0460  221.5900 N   0  0  0  0  0  0  0  0  0  0  0  0
  140.2630   76.2950  221.3800 C   0  0  0  0  0  0  0  0  0  0  0  0
  139.1480   76.7130  221.6910 O   0  0  0  0  0  0  0  0  0  0  0  0
  140.3460   74.9410  220.7620 C   0  0  0  0  0  0  0  0  0  0  0  0
  140.3930   73.9830  221.8490 N   0  0  0  0  0  0  0  0  0  0  0  0
  139.5930   72.8160  221.8350 C   0  0  0  0  0  0  0  0  0  0  0  0
  138.7960   72.5150  220.9100 O   0  0  0  0  0  0  0  0  0  0  0  0
  139.7090   71.8970  222.9860 C   0  0  0  0  0  0  0  0  0  0  0  0
  139.2030   70.6050  222.9110 C   0  0  0  0  0  0  0  0  0  0  0  0
  139.2760   69.7050  223.9370 C   0  0  0  0  0  0  0  0  0  0  0  0
  139.8860   70.1120  225.1040 C   0  0  0  0  0  0  0  0  0  0  0  0
  139.9780   69.2330  226.1560 C   0  0  0  0  0  0  0  0  0  0  0  0
  140.5890   69.6540  227.3100 C   0  0  0  0  0  0  0  0  0  0  0  0
  140.7090   68.5360  228.6590 Cl  0  0  0  0  0  0  0  0  0  0  0  0
  141.0910   70.9170  227.4000 C   0  0  0  0  0  0  0  0  0  0  0  0
  141.0000   71.8130  226.3340 C   0  0  0  0  0  0  0  0  0  0  0  0
  140.3850   71.4030  225.1600 C   0  0  0  0  0  0  0  0  0  0  0  0
  140.2980   72.2660  224.1330 N   0  0  0  0  0  0  0  0  0  0  0  0
  141.0564   81.4874  220.1506 H   0  0  0  0  0  0  0  0  0  0  0  0
  141.9630   80.9106  218.7111 H   0  0  0  0  0  0  0  0  0  0  0  0
  140.1669   80.8847  218.7111 H   0  0  0  0  0  0  0  0  0  0  0  0
  140.1224   78.8546  219.7761 H   0  0  0  0  0  0  0  0  0  0  0  0
  142.8892   78.1832  219.8869 H   0  0  0  0  0  0  0  0  0  0  0  0
  141.7650   77.8478  218.5267 H   0  0  0  0  0  0  0  0  0  0  0  0
  142.7523   79.3484  218.5267 H   0  0  0  0  0  0  0  0  0  0  0  0
  141.3386   81.5884  221.2189 H   0  0  0  0  0  0  0  0  0  0  0  0
  141.8455   81.9656  223.6247 H   0  0  0  0  0  0  0  0  0  0  0  0
  142.1628   79.9668  225.0747 H   0  0  0  0  0  0  0  0  0  0  0  0
  141.9788   77.7023  224.1604 H   0  0  0  0  0  0  0  0  0  0  0  0
  142.3340   76.5660  221.2700 H   0  0  0  0  0  0  0  0  0  0  0  0
  139.4618   74.7572  220.1340 H   0  0  0  0  0  0  0  0  0  0  0  0
  141.2369   74.8544  220.1227 H   0  0  0  0  0  0  0  0  0  0  0  0
  141.0390   74.1580  222.6710 H   0  0  0  0  0  0  0  0  0  0  0  0
  138.7176   70.2896  221.9756 H   0  0  0  0  0  0  0  0  0  0  0  0
  138.8622   68.6909  223.8349 H   0  0  0  0  0  0  0  0  0  0  0  0
  139.5708   68.2144  226.0748 H   0  0  0  0  0  0  0  0  0  0  0  0
  141.5784   71.2375  228.3326 H   0  0  0  0  0  0  0  0  0  0  0  0
  141.4100   72.8298  226.4233 H   0  0  0  0  0  0  0  0  0  0  0  0
  1  2  1  0
  2  3  1  0
  2  4  1  0
  4  5  2  0
  5  6  1  0
  6  7  2  0
  7  8  1  0
  8  9  2  0
  9 10  1  0
 10 11  1  0
 11 12  2  0
 11 13  1  0
 13 14  1  0
 14 15  1  0
 15 16  2  0
 15 17  1  0
 17 18  2  0
 18 19  1  0
 19 20  2  0
 20 21  1  0
 21 22  2  0
 22 23  1  0
 22 24  1  0
 24 25  2  0
 25 26  1  0
 26 27  2  0
  9  4  1  0
 27 17  1  0
 26 20  1  0
  1 28  1  0
  1 29  1  0
  1 30  1  0
  2 31  1  0
  3 32  1  0
  3 33  1  0
  3 34  1  0
  5 35  1  0
  6 36  1  0
  7 37  1  0
  8 38  1  0
 10 39  1  0
 13 40  1  0
 13 41  1  0
 14 42  1  0
 18 43  1  0
 19 44  1  0
 21 45  1  0
 24 46  1  0
 25 47  1  0
M  END
>  <smiles>  (35) 
CC(C)c1ccccc1NC(=O)CNC(=O)c1ccc2cc(Cl)ccc2n1

>  <score_type>  (35) 
oracle

>  <origin>  (35) 
autodockgpu

>  <m_score__min__energy>  (35) 
-9.2699999999999996

>  <m_primary>  (35) 
energy

>  <rmsd>  (35) 
3.0042830492382833

>  <m_score__min__rmsd>  (35) 
3.0042830492382833

>  <meeko>  (35) 
{"free_energy": -8.42, "intermolecular_energy": -9.91, "internal_energy": -1.36, "cluster_size": 26, "cluster_id": 1, "rank_in_cluster": 16}

>  <energy>  (35) 
-8.36

>  <cluster_rmsd>  (35) 
0.58

>  <cluster>  (35) 
2

$$$$

     RDKit          3D

 47 49  0  0  0  0  0  0  0  0999 V2000
  139.6200   67.4100  225.8650 C   0  0  0  0  0  0  0  0  0  0  0  0
  139.5270   68.7670  225.2370 C   0  0  0  0  0  0  0  0  0  0  0  0
  138.0720   68.9260  224.8080 C   0  0  0  0  0  0  0  0  0  0  0  0
  139.8960   69.8070  226.2410 C   0  0  0  0  0  0  0  0  0  0  0  0
  139.6280   69.4650  227.5730 C   0  0  0  0  0  0  0  0  0  0  0  0
  139.9000   70.3260  228.6110 C   0  0  0  0  0  0  0  0  0  0  0  0
  140.4480   71.5430  228.2820 C   0  0  0  0  0  0  0  0  0  0  0  0
  140.7130   71.8810  226.9660 C   0  0  0  0  0  0  0  0  0  0  0  0
  140.4470   71.0270  225.9020 C   0  0  0  0  0  0  0  0  0  0  0  0
  140.7020   71.3280  224.5700 N   0  0  0  0  0  0  0  0  0  0  0  0
  139.7830   71.7120  223.5750 C   0  0  0  0  0  0  0  0  0  0  0  0
  138.5780   71.8260  223.8010 O   0  0  0  0  0  0  0  0  0  0  0  0
  140.2580   71.9950  222.1910 C   0  0  0  0  0  0  0  0  0  0  0  0
  140.4120   73.4330  222.0850 N   0  0  0  0  0  0  0  0  0  0  0  0
  141.3600   74.0070  221.2050 C   0  0  0  0  0  0  0  0  0  0  0  0
  142.1290   73.3450  220.4640 O   0  0  0  0  0  0  0  0  0  0  0  0
  141.4440   75.4820  221.1630 C   0  0  0  0  0  0  0  0  0  0  0  0
  142.0660   76.1230  220.0990 C   0  0  0  0  0  0  0  0  0  0  0  0
  142.1780   77.4810  219.9970 C   0  0  0  0  0  0  0  0  0  0  0  0
  141.6430   78.2450  221.0120 C   0  0  0  0  0  0  0  0  0  0  0  0
  141.7380   79.6150  220.9420 C   0  0  0  0  0  0  0  0  0  0  0  0
  141.1990   80.3610  221.9600 C   0  0  0  0  0  0  0  0  0  0  0  0
  141.3170   82.1110  221.8780 Cl  0  0  0  0  0  0  0  0  0  0  0  0
  140.5870   79.7480  223.0110 C   0  0  0  0  0  0  0  0  0  0  0  0
  140.4880   78.3580  223.0850 C   0  0  0  0  0  0  0  0  0  0  0  0
  141.0270   77.5890  222.0640 C   0  0  0  0  0  0  0  0  0  0  0  0
  140.9320   76.2500  222.1360 N   0  0  0  0  0  0  0  0  0  0  0  0
  139.6130   67.5116  226.9603 H   0  0  0  0  0  0  0  0  0  0  0  0
  138.7616   66.7996  225.5479 H   0  0  0  0  0  0  0  0  0  0  0  0
  140.5537   66.9224  225.5479 H   0  0  0  0  0  0  0  0  0  0  0  0
  140.2080   68.8773  224.3802 H   0  0  0  0  0  0  0  0  0  0  0  0
  137.4323   68.9959  225.7001 H   0  0  0  0  0  0  0  0  0  0  0  0
  137.9648   69.8412  224.2073 H   0  0  0  0  0  0  0  0  0  0  0  0
  137.7696   68.0556  224.2073 H   0  0  0  0  0  0  0  0  0  0  0  0
  139.1882   68.4814  227.7948 H   0  0  0  0  0  0  0  0  0  0  0  0
  139.6888   70.0533  229.6555 H   0  0  0  0  0  0  0  0  0  0  0  0
  140.6806   72.2628  229.0806 H   0  0  0  0  0  0  0  0  0  0  0  0
  141.1525   72.8667  226.7534 H   0  0  0  0  0  0  0  0  0  0  0  0
  141.7170   71.2720  224.2410 H   0  0  0  0  0  0  0  0  0  0  0  0
  141.2225   71.4970  222.0127 H   0  0  0  0  0  0  0  0  0  0  0  0
  139.5428   71.6192  221.4444 H   0  0  0  0  0  0  0  0  0  0  0  0
  139.8020   74.0670  222.6750 H   0  0  0  0  0  0  0  0  0  0  0  0
  142.4913   75.5040  219.2953 H   0  0  0  0  0  0  0  0  0  0  0  0
  142.6774   77.9481  219.1354 H   0  0  0  0  0  0  0  0  0  0  0  0
  142.2346   80.1018  220.0897 H   0  0  0  0  0  0  0  0  0  0  0  0
  140.1617   80.3617  223.8188 H   0  0  0  0  0  0  0  0  0  0  0  0
  139.9897   77.8790  223.9407 H   0  0  0  0  0  0  0  0  0  0  0  0
  1  2  1  0
  2  3  1  0
  2  4  1  0
  4  5  2  0
  5  6  1  0
  6  7  2  0
  7  8  1  0
  8  9  2  0
  9 10  1  0
 10 11  1  0
 11 12  2  0
 11 13  1  0
 13 14  1  0
 14 15  1  0
 15 16  2  0
 15 17  1  0
 17 18  2  0
 18 19  1  0
 19 20  2  0
 20 21  1  0
 21 22  2  0
 22 23  1  0
 22 24  1  0
 24 25  2  0
 25 26  1  0
 26 27  2  0
  9  4  1  0
 27 17  1  0
 26 20  1  0
  1 28  1  0
  1 29  1  0
  1 30  1  0
  2 31  1  0
  3 32  1  0
  3 33  1  0
  3 34  1  0
  5 35  1  0
  6 36  1  0
  7 37  1  0
  8 38  1  0
 10 39  1  0
 13 40  1  0
 13 41  1  0
 14 42  1  0
 18 43  1  0
 19 44  1  0
 21 45  1  0
 24 46  1  0
 25 47  1  0
M  END
>  <smiles>  (36) 
CC(C)c1ccccc1NC(=O)CNC(=O)c1ccc2cc(Cl)ccc2n1

>  <score_type>  (36) 
oracle

>  <origin>  (36) 
autodockgpu

>  <m_score__min__energy>  (36) 
-9.2699999999999996

>  <m_primary>  (36) 
energy

>  <rmsd>  (36) 
8.653556055595416

>  <m_score__min__rmsd>  (36) 
8.653556055595416

>  <meeko>  (36) 
{"free_energy": -8.36, "intermolecular_energy": -9.85, "internal_energy": -1.46, "cluster_size": 18, "cluster_id": 2, "rank_in_cluster": 9}

>  <energy>  (36) 
-8.35

>  <cluster_rmsd>  (36) 
0.61

>  <cluster>  (36) 
2

$$$$

     RDKit          3D

 47 49  0  0  0  0  0  0  0  0999 V2000
  140.3990   78.9180  219.1480 C   0  0  0  0  0  0  0  0  0  0  0  0
  141.7490   79.2370  219.7140 C   0  0  0  0  0  0  0  0  0  0  0  0
  142.1460   80.5770  219.1040 C   0  0  0  0  0  0  0  0  0  0  0  0
  141.6560   79.3410  221.1980 C   0  0  0  0  0  0  0  0  0  0  0  0
  141.7300   80.6450  221.7050 C   0  0  0  0  0  0  0  0  0  0  0  0
  141.6740   80.9030  223.0560 C   0  0  0  0  0  0  0  0  0  0  0  0
  141.5400   79.8180  223.8900 C   0  0  0  0  0  0  0  0  0  0  0  0
  141.4660   78.5300  223.3890 C   0  0  0  0  0  0  0  0  0  0  0  0
  141.5220   78.2470  222.0290 C   0  0  0  0  0  0  0  0  0  0  0  0
  141.4460   76.9700  221.4890 N   0  0  0  0  0  0  0  0  0  0  0  0
  140.3710   76.0630  221.5520 C   0  0  0  0  0  0  0  0  0  0  0  0
  139.3190   76.3290  222.1330 O   0  0  0  0  0  0  0  0  0  0  0  0
  140.4850   74.7260  220.9020 C   0  0  0  0  0  0  0  0  0  0  0  0
  140.5310   73.7430  221.9670 N   0  0  0  0  0  0  0  0  0  0  0  0
  139.6100   72.6700  222.0170 C   0  0  0  0  0  0  0  0  0  0  0  0
  138.6990   72.4800  221.1730 O   0  0  0  0  0  0  0  0  0  0  0  0
  139.7360   71.7160  223.1380 C   0  0  0  0  0  0  0  0  0  0  0  0
  139.2410   70.4230  223.0240 C   0  0  0  0  0  0  0  0  0  0  0  0
  139.3240   69.4920  224.0200 C   0  0  0  0  0  0  0  0  0  0  0  0
  139.9330   69.8680  225.1990 C   0  0  0  0  0  0  0  0  0  0  0  0
  140.0330   68.9560  226.2230 C   0  0  0  0  0  0  0  0  0  0  0  0
  140.6430   69.3460  227.3890 C   0  0  0  0  0  0  0  0  0  0  0  0
  140.7750   68.1880  228.7020 Cl  0  0  0  0  0  0  0  0  0  0  0  0
  141.1330   70.6110  227.5180 C   0  0  0  0  0  0  0  0  0  0  0  0
  141.0320   71.5390  226.4800 C   0  0  0  0  0  0  0  0  0  0  0  0
  140.4200   71.1600  225.2950 C   0  0  0  0  0  0  0  0  0  0  0  0
  140.3230   72.0540  224.2960 N   0  0  0  0  0  0  0  0  0  0  0  0
  139.6873   78.7498  219.9697 H   0  0  0  0  0  0  0  0  0  0  0  0
  140.0527   79.7591  218.5294 H   0  0  0  0  0  0  0  0  0  0  0  0
  140.4658   78.0109  218.5294 H   0  0  0  0  0  0  0  0  0  0  0  0
  142.4922   78.4594  219.4838 H   0  0  0  0  0  0  0  0  0  0  0  0
  142.3593   81.2970  219.9078 H   0  0  0  0  0  0  0  0  0  0  0  0
  143.0437   80.4452  218.4821 H   0  0  0  0  0  0  0  0  0  0  0  0
  141.3214   80.9555  218.4821 H   0  0  0  0  0  0  0  0  0  0  0  0
  141.8358   81.4860  221.0040 H   0  0  0  0  0  0  0  0  0  0  0  0
  141.7336   81.9284  223.4497 H   0  0  0  0  0  0  0  0  0  0  0  0
  141.4906   79.9769  224.9773 H   0  0  0  0  0  0  0  0  0  0  0  0
  141.3583   77.6949  224.0968 H   0  0  0  0  0  0  0  0  0  0  0  0
  142.2970   76.6140  220.9500 H   0  0  0  0  0  0  0  0  0  0  0  0
  139.6134   74.5437  220.2562 H   0  0  0  0  0  0  0  0  0  0  0  0
  141.3863   74.6689  220.2739 H   0  0  0  0  0  0  0  0  0  0  0  0
  141.2700   73.8260  222.7220 H   0  0  0  0  0  0  0  0  0  0  0  0
  138.7558   70.1332  222.0803 H   0  0  0  0  0  0  0  0  0  0  0  0
  138.9193   68.4779  223.8865 H   0  0  0  0  0  0  0  0  0  0  0  0
  139.6334   67.9374  226.1104 H   0  0  0  0  0  0  0  0  0  0  0  0
  141.6183   70.9071  228.4597 H   0  0  0  0  0  0  0  0  0  0  0  0
  141.4323   72.5565  226.6005 H   0  0  0  0  0  0  0  0  0  0  0  0
  1  2  1  0
  2  3  1  0
  2  4  1  0
  4  5  2  0
  5  6  1  0
  6  7  2  0
  7  8  1  0
  8  9  2  0
  9 10  1  0
 10 11  1  0
 11 12  2  0
 11 13  1  0
 13 14  1  0
 14 15  1  0
 15 16  2  0
 15 17  1  0
 17 18  2  0
 18 19  1  0
 19 20  2  0
 20 21  1  0
 21 22  2  0
 22 23  1  0
 22 24  1  0
 24 25  2  0
 25 26  1  0
 26 27  2  0
  9  4  1  0
 27 17  1  0
 26 20  1  0
  1 28  1  0
  1 29  1  0
  1 30  1  0
  2 31  1  0
  3 32  1  0
  3 33  1  0
  3 34  1  0
  5 35  1  0
  6 36  1  0
  7 37  1  0
  8 38  1  0
 10 39  1  0
 13 40  1  0
 13 41  1  0
 14 42  1  0
 18 43  1  0
 19 44  1  0
 21 45  1  0
 24 46  1  0
 25 47  1  0
M  END
>  <smiles>  (37) 
CC(C)c1ccccc1NC(=O)CNC(=O)c1ccc2cc(Cl)ccc2n1

>  <score_type>  (37) 
oracle

>  <origin>  (37) 
autodockgpu

>  <m_score__min__energy>  (37) 
-9.2699999999999996

>  <m_primary>  (37) 
energy

>  <rmsd>  (37) 
2.650760436521902

>  <m_score__min__rmsd>  (37) 
2.650760436521902

>  <meeko>  (37) 
{"free_energy": -8.46, "intermolecular_energy": -9.95, "internal_energy": -1.34, "cluster_size": 26, "cluster_id": 1, "rank_in_cluster": 15}

>  <energy>  (37) 
-8.34

>  <cluster_rmsd>  (37) 
0.6

>  <cluster>  (37) 
2

$$$$

     RDKit          3D

 47 49  0  0  0  0  0  0  0  0999 V2000
  140.8800   67.3700  226.3040 C   0  0  0  0  0  0  0  0  0  0  0  0
  140.2960   68.5820  225.6460 C   0  0  0  0  0  0  0  0  0  0  0  0
  138.7840   68.3910  225.6960 C   0  0  0  0  0  0  0  0  0  0  0  0
  140.6970   69.8030  226.4030 C   0  0  0  0  0  0  0  0  0  0  0  0
  141.0810   69.5760  227.7310 C   0  0  0  0  0  0  0  0  0  0  0  0
  141.4640   70.6040  228.5610 C   0  0  0  0  0  0  0  0  0  0  0  0
  141.4540   71.8710  228.0260 C   0  0  0  0  0  0  0  0  0  0  0  0
  141.0750   72.0950  226.7140 C   0  0  0  0  0  0  0  0  0  0  0  0
  140.6840   71.0720  225.8580 C   0  0  0  0  0  0  0  0  0  0  0  0
  140.3030   71.2560  224.5360 N   0  0  0  0  0  0  0  0  0  0  0  0
  139.0130   71.1520  223.9820 C   0  0  0  0  0  0  0  0  0  0  0  0
  138.0260   70.8670  224.6610 O   0  0  0  0  0  0  0  0  0  0  0  0
  138.8060   71.3900  222.5250 C   0  0  0  0  0  0  0  0  0  0  0  0
  139.1980   72.7610  222.2620 N   0  0  0  0  0  0  0  0  0  0  0  0
  140.5240   73.0890  221.8960 C   0  0  0  0  0  0  0  0  0  0  0  0
  141.4520   72.2500  221.7710 O   0  0  0  0  0  0  0  0  0  0  0  0
  140.8300   74.5130  221.6460 C   0  0  0  0  0  0  0  0  0  0  0  0
  141.8150   74.8740  220.7350 C   0  0  0  0  0  0  0  0  0  0  0  0
  142.1470   76.1700  220.4570 C   0  0  0  0  0  0  0  0  0  0  0  0
  141.4620   77.1640  221.1230 C   0  0  0  0  0  0  0  0  0  0  0  0
  141.7710   78.4790  220.8680 C   0  0  0  0  0  0  0  0  0  0  0  0
  141.0790   79.4550  221.5380 C   0  0  0  0  0  0  0  0  0  0  0  0
  141.4680   81.1370  221.2180 Cl  0  0  0  0  0  0  0  0  0  0  0  0
  140.1100   79.1190  222.4350 C   0  0  0  0  0  0  0  0  0  0  0  0
  139.7940   77.7840  222.6970 C   0  0  0  0  0  0  0  0  0  0  0  0
  140.4840   76.7850  222.0270 C   0  0  0  0  0  0  0  0  0  0  0  0
  140.1790   75.5000  222.2790 N   0  0  0  0  0  0  0  0  0  0  0  0
  140.8252   67.4838  227.3967 H   0  0  0  0  0  0  0  0  0  0  0  0
  140.3128   66.4782  225.9993 H   0  0  0  0  0  0  0  0  0  0  0  0
  141.9310   67.2579  225.9993 H   0  0  0  0  0  0  0  0  0  0  0  0
  140.6476   68.7045  224.6109 H   0  0  0  0  0  0  0  0  0  0  0  0
  138.4542   68.3493  226.7446 H   0  0  0  0  0  0  0  0  0  0  0  0
  138.2910   69.2340  225.1898 H   0  0  0  0  0  0  0  0  0  0  0  0
  138.5161   67.4519  225.1898 H   0  0  0  0  0  0  0  0  0  0  0  0
  141.0761   68.5474  228.1208 H   0  0  0  0  0  0  0  0  0  0  0  0
  141.7641   70.4213  229.6034 H   0  0  0  0  0  0  0  0  0  0  0  0
  141.7533   72.7234  228.6536 H   0  0  0  0  0  0  0  0  0  0  0  0
  141.0835   73.1266  226.3323 H   0  0  0  0  0  0  0  0  0  0  0  0
  141.0680   71.5140  223.8360 H   0  0  0  0  0  0  0  0  0  0  0  0
  139.4281   70.6993  221.9368 H   0  0  0  0  0  0  0  0  0  0  0  0
  137.7563   71.2199  222.2436 H   0  0  0  0  0  0  0  0  0  0  0  0
  138.4770   73.5340  222.3430 H   0  0  0  0  0  0  0  0  0  0  0  0
  142.3565   74.0737  220.2094 H   0  0  0  0  0  0  0  0  0  0  0  0
  142.9336   76.4119  219.7271 H   0  0  0  0  0  0  0  0  0  0  0  0
  142.5554   78.7423  220.1431 H   0  0  0  0  0  0  0  0  0  0  0  0
  139.5655   79.9153  222.9636 H   0  0  0  0  0  0  0  0  0  0  0  0
  139.0092   77.5287  223.4243 H   0  0  0  0  0  0  0  0  0  0  0  0
  1  2  1  0
  2  3  1  0
  2  4  1  0
  4  5  2  0
  5  6  1  0
  6  7  2  0
  7  8  1  0
  8  9  2  0
  9 10  1  0
 10 11  1  0
 11 12  2  0
 11 13  1  0
 13 14  1  0
 14 15  1  0
 15 16  2  0
 15 17  1  0
 17 18  2  0
 18 19  1  0
 19 20  2  0
 20 21  1  0
 21 22  2  0
 22 23  1  0
 22 24  1  0
 24 25  2  0
 25 26  1  0
 26 27  2  0
  9  4  1  0
 27 17  1  0
 26 20  1  0
  1 28  1  0
  1 29  1  0
  1 30  1  0
  2 31  1  0
  3 32  1  0
  3 33  1  0
  3 34  1  0
  5 35  1  0
  6 36  1  0
  7 37  1  0
  8 38  1  0
 10 39  1  0
 13 40  1  0
 13 41  1  0
 14 42  1  0
 18 43  1  0
 19 44  1  0
 21 45  1  0
 24 46  1  0
 25 47  1  0
M  END
>  <smiles>  (38) 
CC(C)c1ccccc1NC(=O)CNC(=O)c1ccc2cc(Cl)ccc2n1

>  <score_type>  (38) 
oracle

>  <origin>  (38) 
autodockgpu

>  <m_score__min__energy>  (38) 
-9.2699999999999996

>  <m_primary>  (38) 
energy

>  <rmsd>  (38) 
8.351370771108295

>  <m_score__min__rmsd>  (38) 
8.351370771108295

>  <meeko>  (38) 
{"free_energy": -8.38, "intermolecular_energy": -9.88, "internal_energy": -1.97, "cluster_size": 18, "cluster_id": 2, "rank_in_cluster": 8}

>  <energy>  (38) 
-8.33

>  <cluster_rmsd>  (38) 
0.61

>  <cluster>  (38) 
2

$$$$

     RDKit          3D

 47 49  0  0  0  0  0  0  0  0999 V2000
  141.1870   72.0280  227.1890 C   0  0  0  0  0  0  0  0  0  0  0  0
  140.2750   71.4240  226.1660 C   0  0  0  0  0  0  0  0  0  0  0  0
  140.8460   71.8300  224.8120 C   0  0  0  0  0  0  0  0  0  0  0  0
  140.2740   69.9400  226.3130 C   0  0  0  0  0  0  0  0  0  0  0  0
  140.8640   69.4610  227.4900 C   0  0  0  0  0  0  0  0  0  0  0  0
  140.9520   68.1150  227.7630 C   0  0  0  0  0  0  0  0  0  0  0  0
  140.4320   67.2560  226.8230 C   0  0  0  0  0  0  0  0  0  0  0  0
  139.8500   67.7290  225.6590 C   0  0  0  0  0  0  0  0  0  0  0  0
  139.7510   69.0840  225.3640 C   0  0  0  0  0  0  0  0  0  0  0  0
  139.1700   69.5960  224.2110 N   0  0  0  0  0  0  0  0  0  0  0  0
  137.8550   70.0690  224.0390 C   0  0  0  0  0  0  0  0  0  0  0  0
  137.0330   70.0760  224.9540 O   0  0  0  0  0  0  0  0  0  0  0  0
  137.4180   70.5850  222.7100 C   0  0  0  0  0  0  0  0  0  0  0  0
  138.0210   71.8930  222.5470 N   0  0  0  0  0  0  0  0  0  0  0  0
  139.3360   72.0390  222.0460 C   0  0  0  0  0  0  0  0  0  0  0  0
  140.0750   71.0790  221.7110 O   0  0  0  0  0  0  0  0  0  0  0  0
  139.8660   73.4110  221.9120 C   0  0  0  0  0  0  0  0  0  0  0  0
  141.1100   73.6340  221.3360 C   0  0  0  0  0  0  0  0  0  0  0  0
  141.6590   74.8760  221.1820 C   0  0  0  0  0  0  0  0  0  0  0  0
  140.9300   75.9580  221.6270 C   0  0  0  0  0  0  0  0  0  0  0  0
  141.4520   77.2220  221.4870 C   0  0  0  0  0  0  0  0  0  0  0  0
  140.7130   78.2880  221.9350 C   0  0  0  0  0  0  0  0  0  0  0  0
  141.3730   79.9060  221.7600 Cl  0  0  0  0  0  0  0  0  0  0  0  0
  139.4910   78.0870  222.5020 C   0  0  0  0  0  0  0  0  0  0  0  0
  138.9580   76.8050  222.6460 C   0  0  0  0  0  0  0  0  0  0  0  0
  139.6920   75.7170  222.1980 C   0  0  0  0  0  0  0  0  0  0  0  0
  139.1790   74.4820  222.3360 N   0  0  0  0  0  0  0  0  0  0  0  0
  140.8197   71.7847  228.1969 H   0  0  0  0  0  0  0  0  0  0  0  0
  142.2015   71.6226  227.0607 H   0  0  0  0  0  0  0  0  0  0  0  0
  141.2097   73.1203  227.0607 H   0  0  0  0  0  0  0  0  0  0  0  0
  139.2363   71.7681  226.2786 H   0  0  0  0  0  0  0  0  0  0  0  0
  141.7340   72.4614  224.9630 H   0  0  0  0  0  0  0  0  0  0  0  0
  141.1284   70.9288  224.2480 H   0  0  0  0  0  0  0  0  0  0  0  0
  140.0875   72.3927  224.2480 H   0  0  0  0  0  0  0  0  0  0  0  0
  141.2684   70.1812  228.2165 H   0  0  0  0  0  0  0  0  0  0  0  0
  141.4160   67.7439  228.6887 H   0  0  0  0  0  0  0  0  0  0  0  0
  140.4795   66.1713  226.9995 H   0  0  0  0  0  0  0  0  0  0  0  0
  139.4491   67.0020  224.9373 H   0  0  0  0  0  0  0  0  0  0  0  0
  139.7810   69.6510  223.3370 H   0  0  0  0  0  0  0  0  0  0  0  0
  137.7583   69.9094  221.9114 H   0  0  0  0  0  0  0  0  0  0  0  0
  136.3212   70.6473  222.6531 H   0  0  0  0  0  0  0  0  0  0  0  0
  137.4660   72.7590  222.8050 H   0  0  0  0  0  0  0  0  0  0  0  0
  141.6843   72.7640  220.9848 H   0  0  0  0  0  0  0  0  0  0  0  0
  142.6481   75.0077  220.7191 H   0  0  0  0  0  0  0  0  0  0  0  0
  142.4391   77.3754  221.0266 H   0  0  0  0  0  0  0  0  0  0  0  0
  138.9118   78.9534  222.8539 H   0  0  0  0  0  0  0  0  0  0  0  0
  137.9703   76.6598  223.1080 H   0  0  0  0  0  0  0  0  0  0  0  0
  1  2  1  0
  2  3  1  0
  2  4  1  0
  4  5  2  0
  5  6  1  0
  6  7  2  0
  7  8  1  0
  8  9  2  0
  9 10  1  0
 10 11  1  0
 11 12  2  0
 11 13  1  0
 13 14  1  0
 14 15  1  0
 15 16  2  0
 15 17  1  0
 17 18  2  0
 18 19  1  0
 19 20  2  0
 20 21  1  0
 21 22  2  0
 22 23  1  0
 22 24  1  0
 24 25  2  0
 25 26  1  0
 26 27  2  0
  9  4  1  0
 27 17  1  0
 26 20  1  0
  1 28  1  0
  1 29  1  0
  1 30  1  0
  2 31  1  0
  3 32  1  0
  3 33  1  0
  3 34  1  0
  5 35  1  0
  6 36  1  0
  7 37  1  0
  8 38  1  0
 10 39  1  0
 13 40  1  0
 13 41  1  0
 14 42  1  0
 18 43  1  0
 19 44  1  0
 21 45  1  0
 24 46  1  0
 25 47  1  0
M  END
>  <smiles>  (39) 
CC(C)c1ccccc1NC(=O)CNC(=O)c1ccc2cc(Cl)ccc2n1

>  <score_type>  (39) 
oracle

>  <origin>  (39) 
autodockgpu

>  <m_score__min__energy>  (39) 
-9.2699999999999996

>  <m_primary>  (39) 
energy

>  <rmsd>  (39) 
7.707149495971511

>  <m_score__min__rmsd>  (39) 
7.707149495971511

>  <meeko>  (39) 
{"free_energy": -7.98, "intermolecular_energy": -9.47, "internal_energy": -2.45, "cluster_size": 18, "cluster_id": 2, "rank_in_cluster": 17}

>  <energy>  (39) 
-8.31

>  <cluster_rmsd>  (39) 
0.75

>  <cluster>  (39) 
2

$$$$

     RDKit          3D

 47 49  0  0  0  0  0  0  0  0999 V2000
  140.9970   67.5150  226.4830 C   0  0  0  0  0  0  0  0  0  0  0  0
  140.3680   68.6700  225.7660 C   0  0  0  0  0  0  0  0  0  0  0  0
  138.8630   68.4350  225.8460 C   0  0  0  0  0  0  0  0  0  0  0  0
  140.7380   69.9430  226.4470 C   0  0  0  0  0  0  0  0  0  0  0  0
  141.1010   69.8100  227.7940 C   0  0  0  0  0  0  0  0  0  0  0  0
  141.4550   70.8950  228.5620 C   0  0  0  0  0  0  0  0  0  0  0  0
  141.4370   72.1240  227.9440 C   0  0  0  0  0  0  0  0  0  0  0  0
  141.0800   72.2560  226.6140 C   0  0  0  0  0  0  0  0  0  0  0  0
  140.7180   71.1730  225.8200 C   0  0  0  0  0  0  0  0  0  0  0  0
  140.3590   71.2650  224.4820 N   0  0  0  0  0  0  0  0  0  0  0  0
  139.0740   71.1450  223.9190 C   0  0  0  0  0  0  0  0  0  0  0  0
  138.0730   70.9310  224.6020 O   0  0  0  0  0  0  0  0  0  0  0  0
  138.8920   71.2760  222.4450 C   0  0  0  0  0  0  0  0  0  0  0  0
  139.1330   72.6670  222.1130 N   0  0  0  0  0  0  0  0  0  0  0  0
  140.4370   73.1440  221.8460 C   0  0  0  0  0  0  0  0  0  0  0  0
  141.4710   72.4280  221.8730 O   0  0  0  0  0  0  0  0  0  0  0  0
  140.5860   74.5760  221.5160 C   0  0  0  0  0  0  0  0  0  0  0  0
  139.8670   75.5390  222.2120 C   0  0  0  0  0  0  0  0  0  0  0  0
  139.9570   76.8790  221.9580 C   0  0  0  0  0  0  0  0  0  0  0  0
  140.8090   77.2840  220.9530 C   0  0  0  0  0  0  0  0  0  0  0  0
  140.9250   78.6240  220.6700 C   0  0  0  0  0  0  0  0  0  0  0  0
  141.7780   79.0110  219.6680 C   0  0  0  0  0  0  0  0  0  0  0  0
  141.9310   80.7210  219.3010 Cl  0  0  0  0  0  0  0  0  0  0  0  0
  142.4910   78.0790  218.9750 C   0  0  0  0  0  0  0  0  0  0  0  0
  142.3760   76.7170  219.2590 C   0  0  0  0  0  0  0  0  0  0  0  0
  141.5180   76.3100  220.2700 C   0  0  0  0  0  0  0  0  0  0  0  0
  141.4080   74.9990  220.5440 N   0  0  0  0  0  0  0  0  0  0  0  0
  140.9135   67.6682  227.5691 H   0  0  0  0  0  0  0  0  0  0  0  0
  140.4809   66.5847  226.2032 H   0  0  0  0  0  0  0  0  0  0  0  0
  142.0584   67.4438  226.2032 H   0  0  0  0  0  0  0  0  0  0  0  0
  140.7047   68.7450  224.7215 H   0  0  0  0  0  0  0  0  0  0  0  0
  138.5550   68.3869  226.9009 H   0  0  0  0  0  0  0  0  0  0  0  0
  138.3358   69.2617  225.3474 H   0  0  0  0  0  0  0  0  0  0  0  0
  138.6129   67.4869  225.3474 H   0  0  0  0  0  0  0  0  0  0  0  0
  141.1029   68.8091  228.2504 H   0  0  0  0  0  0  0  0  0  0  0  0
  141.7387   70.7852  229.6191 H   0  0  0  0  0  0  0  0  0  0  0  0
  141.7122   73.0203  228.5193 H   0  0  0  0  0  0  0  0  0  0  0  0
  141.0826   73.2603  226.1653 H   0  0  0  0  0  0  0  0  0  0  0  0
  141.1380   71.4550  223.7770 H   0  0  0  0  0  0  0  0  0  0  0  0
  139.6095   70.6311  221.9164 H   0  0  0  0  0  0  0  0  0  0  0  0
  137.8794   70.9691  222.1444 H   0  0  0  0  0  0  0  0  0  0  0  0
  138.3160   73.3410  222.0680 H   0  0  0  0  0  0  0  0  0  0  0  0
  139.1884   75.2053  223.0109 H   0  0  0  0  0  0  0  0  0  0  0  0
  139.3701   77.6086  222.5353 H   0  0  0  0  0  0  0  0  0  0  0  0
  140.3464   79.3698  221.2348 H   0  0  0  0  0  0  0  0  0  0  0  0
  143.1713   78.4068  218.1752 H   0  0  0  0  0  0  0  0  0  0  0  0
  142.9575   75.9772  218.6892 H   0  0  0  0  0  0  0  0  0  0  0  0
  1  2  1  0
  2  3  1  0
  2  4  1  0
  4  5  2  0
  5  6  1  0
  6  7  2  0
  7  8  1  0
  8  9  2  0
  9 10  1  0
 10 11  1  0
 11 12  2  0
 11 13  1  0
 13 14  1  0
 14 15  1  0
 15 16  2  0
 15 17  1  0
 17 18  2  0
 18 19  1  0
 19 20  2  0
 20 21  1  0
 21 22  2  0
 22 23  1  0
 22 24  1  0
 24 25  2  0
 25 26  1  0
 26 27  2  0
  9  4  1  0
 27 17  1  0
 26 20  1  0
  1 28  1  0
  1 29  1  0
  1 30  1  0
  2 31  1  0
  3 32  1  0
  3 33  1  0
  3 34  1  0
  5 35  1  0
  6 36  1  0
  7 37  1  0
  8 38  1  0
 10 39  1  0
 13 40  1  0
 13 41  1  0
 14 42  1  0
 18 43  1  0
 19 44  1  0
 21 45  1  0
 24 46  1  0
 25 47  1  0
M  END
>  <smiles>  (40) 
CC(C)c1ccccc1NC(=O)CNC(=O)c1ccc2cc(Cl)ccc2n1

>  <score_type>  (40) 
oracle

>  <origin>  (40) 
autodockgpu

>  <m_score__min__energy>  (40) 
-9.2699999999999996

>  <m_primary>  (40) 
energy

>  <rmsd>  (40) 
8.633390217248769

>  <m_score__min__rmsd>  (40) 
8.633390217248769

>  <meeko>  (40) 
{"free_energy": -7.62, "intermolecular_energy": -9.12, "internal_energy": -1.86, "cluster_size": 18, "cluster_id": 2, "rank_in_cluster": 18}

>  <energy>  (40) 
-8.22

>  <cluster_rmsd>  (40) 
0.62

>  <cluster>  (40) 
2

$$$$

     RDKit          3D

 47 49  0  0  0  0  0  0  0  0999 V2000
  141.4260   71.8940  227.0070 C   0  0  0  0  0  0  0  0  0  0  0  0
  140.3120   71.4670  226.1000 C   0  0  0  0  0  0  0  0  0  0  0  0
  140.7370   71.8880  224.6970 C   0  0  0  0  0  0  0  0  0  0  0  0
  140.1450   69.9870  226.1770 C   0  0  0  0  0  0  0  0  0  0  0  0
  140.9010   69.3580  227.1750 C   0  0  0  0  0  0  0  0  0  0  0  0
  140.8640   67.9950  227.3620 C   0  0  0  0  0  0  0  0  0  0  0  0
  140.0490   67.2750  226.5200 C   0  0  0  0  0  0  0  0  0  0  0  0
  139.3030   67.8970  225.5350 C   0  0  0  0  0  0  0  0  0  0  0  0
  139.3240   69.2710  225.3290 C   0  0  0  0  0  0  0  0  0  0  0  0
  138.5870   69.9310  224.3550 N   0  0  0  0  0  0  0  0  0  0  0  0
  137.1930   70.1290  224.3060 C   0  0  0  0  0  0  0  0  0  0  0  0
  136.4380   69.7070  225.1820 O   0  0  0  0  0  0  0  0  0  0  0  0
  136.5850   70.8710  223.1650 C   0  0  0  0  0  0  0  0  0  0  0  0
  137.3750   72.0720  222.9760 N   0  0  0  0  0  0  0  0  0  0  0  0
  138.5130   72.0780  222.1350 C   0  0  0  0  0  0  0  0  0  0  0  0
  138.9290   71.0760  221.5000 O   0  0  0  0  0  0  0  0  0  0  0  0
  139.2550   73.3480  222.0020 C   0  0  0  0  0  0  0  0  0  0  0  0
  140.5510   73.3600  221.5020 C   0  0  0  0  0  0  0  0  0  0  0  0
  141.2930   74.4980  221.3520 C   0  0  0  0  0  0  0  0  0  0  0  0
  140.7130   75.6930  221.7210 C   0  0  0  0  0  0  0  0  0  0  0  0
  141.4300   76.8580  221.5850 C   0  0  0  0  0  0  0  0  0  0  0  0
  140.8380   78.0390  221.9560 C   0  0  0  0  0  0  0  0  0  0  0  0
  141.7480   79.5300  221.7840 Cl  0  0  0  0  0  0  0  0  0  0  0  0
  139.5680   78.0450  222.4480 C   0  0  0  0  0  0  0  0  0  0  0  0
  138.8370   76.8640  222.5880 C   0  0  0  0  0  0  0  0  0  0  0  0
  139.4210   75.6630  222.2170 C   0  0  0  0  0  0  0  0  0  0  0  0
  138.7160   74.5260  222.3530 N   0  0  0  0  0  0  0  0  0  0  0  0
  141.1125   71.7738  228.0545 H   0  0  0  0  0  0  0  0  0  0  0  0
  142.3130   71.2721  226.8161 H   0  0  0  0  0  0  0  0  0  0  0  0
  141.6701   72.9494  226.8161 H   0  0  0  0  0  0  0  0  0  0  0  0
  139.3503   71.9229  226.3780 H   0  0  0  0  0  0  0  0  0  0  0  0
  141.5169   72.6606  224.7665 H   0  0  0  0  0  0  0  0  0  0  0  0
  141.1324   71.0154  224.1563 H   0  0  0  0  0  0  0  0  0  0  0  0
  139.8682   72.2916  224.1563 H   0  0  0  0  0  0  0  0  0  0  0  0
  141.5415   69.9703  227.8268 H   0  0  0  0  0  0  0  0  0  0  0  0
  141.4580   67.5048  228.1475 H   0  0  0  0  0  0  0  0  0  0  0  0
  139.9891   66.1824  226.6321 H   0  0  0  0  0  0  0  0  0  0  0  0
  138.6658   67.2773  224.8870 H   0  0  0  0  0  0  0  0  0  0  0  0
  139.1250   70.3530  223.5340 H   0  0  0  0  0  0  0  0  0  0  0  0
  136.6114   70.2536  222.2550 H   0  0  0  0  0  0  0  0  0  0  0  0
  135.5336   71.1194  223.3719 H   0  0  0  0  0  0  0  0  0  0  0  0
  137.0950   72.9640  223.4740 H   0  0  0  0  0  0  0  0  0  0  0  0
  141.0049   72.4012  221.2109 H   0  0  0  0  0  0  0  0  0  0  0  0
  142.3167   74.4617  220.9511 H   0  0  0  0  0  0  0  0  0  0  0  0
  142.4556   76.8438  221.1876 H   0  0  0  0  0  0  0  0  0  0  0  0
  139.1086   79.0005  222.7412 H   0  0  0  0  0  0  0  0  0  0  0  0
  137.8122   76.8862  222.9870 H   0  0  0  0  0  0  0  0  0  0  0  0
  1  2  1  0
  2  3  1  0
  2  4  1  0
  4  5  2  0
  5  6  1  0
  6  7  2  0
  7  8  1  0
  8  9  2  0
  9 10  1  0
 10 11  1  0
 11 12  2  0
 11 13  1  0
 13 14  1  0
 14 15  1  0
 15 16  2  0
 15 17  1  0
 17 18  2  0
 18 19  1  0
 19 20  2  0
 20 21  1  0
 21 22  2  0
 22 23  1  0
 22 24  1  0
 24 25  2  0
 25 26  1  0
 26 27  2  0
  9  4  1  0
 27 17  1  0
 26 20  1  0
  1 28  1  0
  1 29  1  0
  1 30  1  0
  2 31  1  0
  3 32  1  0
  3 33  1  0
  3 34  1  0
  5 35  1  0
  6 36  1  0
  7 37  1  0
  8 38  1  0
 10 39  1  0
 13 40  1  0
 13 41  1  0
 14 42  1  0
 18 43  1  0
 19 44  1  0
 21 45  1  0
 24 46  1  0
 25 47  1  0
M  END
>  <smiles>  (41) 
CC(C)c1ccccc1NC(=O)CNC(=O)c1ccc2cc(Cl)ccc2n1

>  <score_type>  (41) 
oracle

>  <origin>  (41) 
autodockgpu

>  <m_score__min__energy>  (41) 
-9.2699999999999996

>  <m_primary>  (41) 
energy

>  <rmsd>  (41) 
7.610433445228239

>  <m_score__min__rmsd>  (41) 
7.610433445228239

>  <meeko>  (41) 
{"free_energy": -7.81, "intermolecular_energy": -9.3, "internal_energy": -2.47, "cluster_size": 3, "cluster_id": 4, "rank_in_cluster": 3}

>  <energy>  (41) 
-8.14

>  <cluster_rmsd>  (41) 
1.61

>  <cluster>  (41) 
2

$$$$

     RDKit          3D

 47 49  0  0  0  0  0  0  0  0999 V2000
  141.4960   80.7030  219.5510 C   0  0  0  0  0  0  0  0  0  0  0  0
  141.2270   79.3460  220.1260 C   0  0  0  0  0  0  0  0  0  0  0  0
  142.1660   78.3930  219.3930 C   0  0  0  0  0  0  0  0  0  0  0  0
  141.5220   79.3550  221.5870 C   0  0  0  0  0  0  0  0  0  0  0  0
  141.8920   80.6020  222.1090 C   0  0  0  0  0  0  0  0  0  0  0  0
  142.2090   80.7680  223.4370 C   0  0  0  0  0  0  0  0  0  0  0  0
  142.1450   79.6500  224.2350 C   0  0  0  0  0  0  0  0  0  0  0  0
  141.7790   78.4180  223.7200 C   0  0  0  0  0  0  0  0  0  0  0  0
  141.4550   78.2280  222.3820 C   0  0  0  0  0  0  0  0  0  0  0  0
  141.0790   77.0100  221.8300 N   0  0  0  0  0  0  0  0  0  0  0  0
  139.7800   76.4860  221.6880 C   0  0  0  0  0  0  0  0  0  0  0  0
  138.7800   77.0960  222.0650 O   0  0  0  0  0  0  0  0  0  0  0  0
  139.5810   75.1470  221.0640 C   0  0  0  0  0  0  0  0  0  0  0  0
  139.6610   74.1680  222.1310 N   0  0  0  0  0  0  0  0  0  0  0  0
  139.8940   72.8000  221.8570 C   0  0  0  0  0  0  0  0  0  0  0  0
  140.0470   72.3260  220.7020 O   0  0  0  0  0  0  0  0  0  0  0  0
  139.9610   71.8770  223.0080 C   0  0  0  0  0  0  0  0  0  0  0  0
  139.5010   70.5710  222.8920 C   0  0  0  0  0  0  0  0  0  0  0  0
  139.5340   69.6660  223.9160 C   0  0  0  0  0  0  0  0  0  0  0  0
  140.0520   70.0830  225.1230 C   0  0  0  0  0  0  0  0  0  0  0  0
  140.1000   69.1990  226.1750 C   0  0  0  0  0  0  0  0  0  0  0  0
  140.6200   69.6300  227.3690 C   0  0  0  0  0  0  0  0  0  0  0  0
  140.6850   68.5060  228.7170 Cl  0  0  0  0  0  0  0  0  0  0  0  0
  141.0750   70.9070  227.4990 C   0  0  0  0  0  0  0  0  0  0  0  0
  141.0280   71.8080  226.4340 C   0  0  0  0  0  0  0  0  0  0  0  0
  140.5060   71.3880  225.2200 C   0  0  0  0  0  0  0  0  0  0  0  0
  140.4610   72.2550  224.1940 N   0  0  0  0  0  0  0  0  0  0  0  0
  141.6392   81.4256  220.3679 H   0  0  0  0  0  0  0  0  0  0  0  0
  142.4041   80.6653  218.9314 H   0  0  0  0  0  0  0  0  0  0  0  0
  140.6421   81.0145  218.9314 H   0  0  0  0  0  0  0  0  0  0  0  0
  140.1769   79.0424  220.0034 H   0  0  0  0  0  0  0  0  0  0  0  0
  142.7414   77.8090  220.1264 H   0  0  0  0  0  0  0  0  0  0  0  0
  141.5771   77.7111  218.7621 H   0  0  0  0  0  0  0  0  0  0  0  0
  142.8566   78.9718  218.7621 H   0  0  0  0  0  0  0  0  0  0  0  0
  141.9299   81.4725  221.4376 H   0  0  0  0  0  0  0  0  0  0  0  0
  142.4999   81.7486  223.8416 H   0  0  0  0  0  0  0  0  0  0  0  0
  142.3895   79.7362  225.3040 H   0  0  0  0  0  0  0  0  0  0  0  0
  141.7432   77.5530  224.3986 H   0  0  0  0  0  0  0  0  0  0  0  0
  141.8570   76.3800  221.4570 H   0  0  0  0  0  0  0  0  0  0  0  0
  138.5947   75.0985  220.5795 H   0  0  0  0  0  0  0  0  0  0  0  0
  140.3436   74.9541  220.2951 H   0  0  0  0  0  0  0  0  0  0  0  0
  139.5440   74.4830  223.1360 H   0  0  0  0  0  0  0  0  0  0  0  0
  139.0884   70.2482  221.9248 H   0  0  0  0  0  0  0  0  0  0  0  0
  139.1600   68.6404  223.7812 H   0  0  0  0  0  0  0  0  0  0  0  0
  139.7298   68.1694  226.0618 H   0  0  0  0  0  0  0  0  0  0  0  0
  141.4884   71.2354  228.4640 H   0  0  0  0  0  0  0  0  0  0  0  0
  141.3996   72.8361  226.5560 H   0  0  0  0  0  0  0  0  0  0  0  0
  1  2  1  0
  2  3  1  0
  2  4  1  0
  4  5  2  0
  5  6  1  0
  6  7  2  0
  7  8  1  0
  8  9  2  0
  9 10  1  0
 10 11  1  0
 11 12  2  0
 11 13  1  0
 13 14  1  0
 14 15  1  0
 15 16  2  0
 15 17  1  0
 17 18  2  0
 18 19  1  0
 19 20  2  0
 20 21  1  0
 21 22  2  0
 22 23  1  0
 22 24  1  0
 24 25  2  0
 25 26  1  0
 26 27  2  0
  9  4  1  0
 27 17  1  0
 26 20  1  0
  1 28  1  0
  1 29  1  0
  1 30  1  0
  2 31  1  0
  3 32  1  0
  3 33  1  0
  3 34  1  0
  5 35  1  0
  6 36  1  0
  7 37  1  0
  8 38  1  0
 10 39  1  0
 13 40  1  0
 13 41  1  0
 14 42  1  0
 18 43  1  0
 19 44  1  0
 21 45  1  0
 24 46  1  0
 25 47  1  0
M  END
>  <smiles>  (42) 
CC(C)c1ccccc1NC(=O)CNC(=O)c1ccc2cc(Cl)ccc2n1

>  <score_type>  (42) 
oracle

>  <origin>  (42) 
autodockgpu

>  <m_score__min__energy>  (42) 
-9.2699999999999996

>  <m_primary>  (42) 
energy

>  <rmsd>  (42) 
3.004419972499191

>  <m_score__min__rmsd>  (42) 
3.004419972499191

>  <meeko>  (42) 
{"free_energy": -9.27, "intermolecular_energy": -10.76, "internal_energy": -1.31, "cluster_size": 26, "cluster_id": 1, "rank_in_cluster": 1}

>  <energy>  (42) 
-8.11

>  <cluster_rmsd>  (42) 
1.2

>  <cluster>  (42) 
2

$$$$

     RDKit          3D

 47 49  0  0  0  0  0  0  0  0999 V2000
  141.7910   80.4950  219.5070 C   0  0  0  0  0  0  0  0  0  0  0  0
  141.3410   79.2000  220.1100 C   0  0  0  0  0  0  0  0  0  0  0  0
  142.1750   78.1170  219.4350 C   0  0  0  0  0  0  0  0  0  0  0  0
  141.5940   79.2200  221.5800 C   0  0  0  0  0  0  0  0  0  0  0  0
  142.0070   80.4570  222.0930 C   0  0  0  0  0  0  0  0  0  0  0  0
  142.2920   80.6290  223.4280 C   0  0  0  0  0  0  0  0  0  0  0  0
  142.1540   79.5280  224.2400 C   0  0  0  0  0  0  0  0  0  0  0  0
  141.7460   78.3070  223.7330 C   0  0  0  0  0  0  0  0  0  0  0  0
  141.4520   78.1100  222.3890 C   0  0  0  0  0  0  0  0  0  0  0  0
  141.0360   76.9020  221.8450 N   0  0  0  0  0  0  0  0  0  0  0  0
  139.7180   76.4560  221.6280 C   0  0  0  0  0  0  0  0  0  0  0  0
  138.7360   77.1380  221.9200 O   0  0  0  0  0  0  0  0  0  0  0  0
  139.4750   75.1140  221.0260 C   0  0  0  0  0  0  0  0  0  0  0  0
  139.5930   74.1440  222.0980 N   0  0  0  0  0  0  0  0  0  0  0  0
  139.7650   72.7660  221.8260 C   0  0  0  0  0  0  0  0  0  0  0  0
  139.8270   72.2760  220.6700 O   0  0  0  0  0  0  0  0  0  0  0  0
  139.8780   71.8530  222.9820 C   0  0  0  0  0  0  0  0  0  0  0  0
  139.4630   70.5310  222.8800 C   0  0  0  0  0  0  0  0  0  0  0  0
  139.5390   69.6340  223.9080 C   0  0  0  0  0  0  0  0  0  0  0  0
  140.0570   70.0770  225.1060 C   0  0  0  0  0  0  0  0  0  0  0  0
  140.1490   69.2010  226.1620 C   0  0  0  0  0  0  0  0  0  0  0  0
  140.6670   69.6570  227.3480 C   0  0  0  0  0  0  0  0  0  0  0  0
  140.7870   68.5450  228.7010 Cl  0  0  0  0  0  0  0  0  0  0  0  0
  141.0790   70.9510  227.4650 C   0  0  0  0  0  0  0  0  0  0  0  0
  140.9880   71.8430  226.3950 C   0  0  0  0  0  0  0  0  0  0  0  0
  140.4660   71.3970  225.1900 C   0  0  0  0  0  0  0  0  0  0  0  0
  140.3780   72.2560  224.1590 N   0  0  0  0  0  0  0  0  0  0  0  0
  142.0382   81.2065  220.3087 H   0  0  0  0  0  0  0  0  0  0  0  0
  142.6810   80.3200  218.8847 H   0  0  0  0  0  0  0  0  0  0  0  0
  140.9843   80.9096  218.8847 H   0  0  0  0  0  0  0  0  0  0  0  0
  140.2655   79.0227  219.9619 H   0  0  0  0  0  0  0  0  0  0  0  0
  142.6558   77.4927  220.2025 H   0  0  0  0  0  0  0  0  0  0  0  0
  141.5239   77.4904  218.8077 H   0  0  0  0  0  0  0  0  0  0  0  0
  142.9471   78.5864  218.8077 H   0  0  0  0  0  0  0  0  0  0  0  0
  142.1060   81.3135  221.4099 H   0  0  0  0  0  0  0  0  0  0  0  0
  142.6152   81.6018  223.8270 H   0  0  0  0  0  0  0  0  0  0  0  0
  142.3724   79.6198  225.3142 H   0  0  0  0  0  0  0  0  0  0  0  0
  141.6502   77.4558  224.4232 H   0  0  0  0  0  0  0  0  0  0  0  0
  141.7940   76.2140  221.5410 H   0  0  0  0  0  0  0  0  0  0  0  0
  138.4669   75.0728  220.5878 H   0  0  0  0  0  0  0  0  0  0  0  0
  140.1987   74.9051  220.2244 H   0  0  0  0  0  0  0  0  0  0  0  0
  139.5520   74.4720  223.1050 H   0  0  0  0  0  0  0  0  0  0  0  0
  139.0509   70.1878  221.9196 H   0  0  0  0  0  0  0  0  0  0  0  0
  139.1989   68.5953  223.7839 H   0  0  0  0  0  0  0  0  0  0  0  0
  139.8148   68.1581  226.0583 H   0  0  0  0  0  0  0  0  0  0  0  0
  141.4920   71.2999  228.4230 H   0  0  0  0  0  0  0  0  0  0  0  0
  141.3253   72.8841  226.5060 H   0  0  0  0  0  0  0  0  0  0  0  0
  1  2  1  0
  2  3  1  0
  2  4  1  0
  4  5  2  0
  5  6  1  0
  6  7  2  0
  7  8  1  0
  8  9  2  0
  9 10  1  0
 10 11  1  0
 11 12  2  0
 11 13  1  0
 13 14  1  0
 14 15  1  0
 15 16  2  0
 15 17  1  0
 17 18  2  0
 18 19  1  0
 19 20  2  0
 20 21  1  0
 21 22  2  0
 22 23  1  0
 22 24  1  0
 24 25  2  0
 25 26  1  0
 26 27  2  0
  9  4  1  0
 27 17  1  0
 26 20  1  0
  1 28  1  0
  1 29  1  0
  1 30  1  0
  2 31  1  0
  3 32  1  0
  3 33  1  0
  3 34  1  0
  5 35  1  0
  6 36  1  0
  7 37  1  0
  8 38  1  0
 10 39  1  0
 13 40  1  0
 13 41  1  0
 14 42  1  0
 18 43  1  0
 19 44  1  0
 21 45  1  0
 24 46  1  0
 25 47  1  0
M  END
>  <smiles>  (43) 
CC(C)c1ccccc1NC(=O)CNC(=O)c1ccc2cc(Cl)ccc2n1

>  <score_type>  (43) 
oracle

>  <origin>  (43) 
autodockgpu

>  <m_score__min__energy>  (43) 
-9.2699999999999996

>  <m_primary>  (43) 
energy

>  <rmsd>  (43) 
2.949900040702299

>  <m_score__min__rmsd>  (43) 
2.949900040702299

>  <meeko>  (43) 
{"free_energy": -9.22, "intermolecular_energy": -10.71, "internal_energy": -1.3, "cluster_size": 26, "cluster_id": 1, "rank_in_cluster": 3}

>  <energy>  (43) 
-7.98

>  <cluster_rmsd>  (43) 
1.93

>  <cluster>  (43) 
2

$$$$

     RDKit          3D

 47 49  0  0  0  0  0  0  0  0999 V2000
  141.8240   80.5940  219.2750 C   0  0  0  0  0  0  0  0  0  0  0  0
  141.3740   79.3150  219.9110 C   0  0  0  0  0  0  0  0  0  0  0  0
  142.2020   78.2140  219.2560 C   0  0  0  0  0  0  0  0  0  0  0  0
  141.6360   79.3670  221.3780 C   0  0  0  0  0  0  0  0  0  0  0  0
  142.0730   80.6100  221.8570 C   0  0  0  0  0  0  0  0  0  0  0  0
  142.3700   80.8120  223.1850 C   0  0  0  0  0  0  0  0  0  0  0  0
  142.2180   79.7350  224.0260 C   0  0  0  0  0  0  0  0  0  0  0  0
  141.7860   78.5080  223.5530 C   0  0  0  0  0  0  0  0  0  0  0  0
  141.4810   78.2810  222.2160 C   0  0  0  0  0  0  0  0  0  0  0  0
  141.0410   77.0670  221.7060 N   0  0  0  0  0  0  0  0  0  0  0  0
  139.8250   76.4070  221.9640 C   0  0  0  0  0  0  0  0  0  0  0  0
  138.9710   76.8710  222.7190 O   0  0  0  0  0  0  0  0  0  0  0  0
  139.5350   75.0980  221.3120 C   0  0  0  0  0  0  0  0  0  0  0  0
  139.6360   74.0830  222.3430 N   0  0  0  0  0  0  0  0  0  0  0  0
  139.8350   72.7210  222.0160 C   0  0  0  0  0  0  0  0  0  0  0  0
  139.9370   72.2830  220.8410 O   0  0  0  0  0  0  0  0  0  0  0  0
  139.9280   71.7580  223.1320 C   0  0  0  0  0  0  0  0  0  0  0  0
  139.4970   70.4470  222.9720 C   0  0  0  0  0  0  0  0  0  0  0  0
  139.5550   69.5080  223.9610 C   0  0  0  0  0  0  0  0  0  0  0  0
  140.0690   69.8930  225.1810 C   0  0  0  0  0  0  0  0  0  0  0  0
  140.1420   68.9730  226.2000 C   0  0  0  0  0  0  0  0  0  0  0  0
  140.6570   69.3720  227.4080 C   0  0  0  0  0  0  0  0  0  0  0  0
  140.7530   68.2020  228.7140 Cl  0  0  0  0  0  0  0  0  0  0  0  0
  141.0830   70.6540  227.5820 C   0  0  0  0  0  0  0  0  0  0  0  0
  141.0110   71.5910  226.5500 C   0  0  0  0  0  0  0  0  0  0  0  0
  140.4930   71.2030  225.3230 C   0  0  0  0  0  0  0  0  0  0  0  0
  140.4240   72.1060  224.3290 N   0  0  0  0  0  0  0  0  0  0  0  0
  142.0804   81.3226  220.0582 H   0  0  0  0  0  0  0  0  0  0  0  0
  142.7083   80.4013  218.6498 H   0  0  0  0  0  0  0  0  0  0  0  0
  141.0139   80.9975  218.6498 H   0  0  0  0  0  0  0  0  0  0  0  0
  140.2970   79.1384  219.7739 H   0  0  0  0  0  0  0  0  0  0  0  0
  142.6687   77.5934  220.0352 H   0  0  0  0  0  0  0  0  0  0  0  0
  141.5494   77.5875  218.6302 H   0  0  0  0  0  0  0  0  0  0  0  0
  142.9850   78.6671  218.6302 H   0  0  0  0  0  0  0  0  0  0  0  0
  142.1814   81.4469  221.1515 H   0  0  0  0  0  0  0  0  0  0  0  0
  142.7129   81.7890  223.5564 H   0  0  0  0  0  0  0  0  0  0  0  0
  142.4443   79.8508  225.0962 H   0  0  0  0  0  0  0  0  0  0  0  0
  141.6795   77.6769  224.2657 H   0  0  0  0  0  0  0  0  0  0  0  0
  141.6900   76.5570  221.0280 H   0  0  0  0  0  0  0  0  0  0  0  0
  138.5212   75.1042  220.8852 H   0  0  0  0  0  0  0  0  0  0  0  0
  140.2428   74.9001  220.4936 H   0  0  0  0  0  0  0  0  0  0  0  0
  139.5610   74.3650  223.3610 H   0  0  0  0  0  0  0  0  0  0  0  0
  139.0869   70.1496  221.9956 H   0  0  0  0  0  0  0  0  0  0  0  0
  139.2038   68.4796  223.7905 H   0  0  0  0  0  0  0  0  0  0  0  0
  139.7953   67.9398  226.0504 H   0  0  0  0  0  0  0  0  0  0  0  0
  141.4926   70.9574  228.5568 H   0  0  0  0  0  0  0  0  0  0  0  0
  141.3600   72.6222  226.7074 H   0  0  0  0  0  0  0  0  0  0  0  0
  1  2  1  0
  2  3  1  0
  2  4  1  0
  4  5  2  0
  5  6  1  0
  6  7  2  0
  7  8  1  0
  8  9  2  0
  9 10  1  0
 10 11  1  0
 11 12  2  0
 11 13  1  0
 13 14  1  0
 14 15  1  0
 15 16  2  0
 15 17  1  0
 17 18  2  0
 18 19  1  0
 19 20  2  0
 20 21  1  0
 21 22  2  0
 22 23  1  0
 22 24  1  0
 24 25  2  0
 25 26  1  0
 26 27  2  0
  9  4  1  0
 27 17  1  0
 26 20  1  0
  1 28  1  0
  1 29  1  0
  1 30  1  0
  2 31  1  0
  3 32  1  0
  3 33  1  0
  3 34  1  0
  5 35  1  0
  6 36  1  0
  7 37  1  0
  8 38  1  0
 10 39  1  0
 13 40  1  0
 13 41  1  0
 14 42  1  0
 18 43  1  0
 19 44  1  0
 21 45  1  0
 24 46  1  0
 25 47  1  0
M  END
>  <smiles>  (44) 
CC(C)c1ccccc1NC(=O)CNC(=O)c1ccc2cc(Cl)ccc2n1

>  <score_type>  (44) 
oracle

>  <origin>  (44) 
autodockgpu

>  <m_score__min__energy>  (44) 
-9.2699999999999996

>  <m_primary>  (44) 
energy

>  <rmsd>  (44) 
2.9324797376306475

>  <m_score__min__rmsd>  (44) 
2.9324797376306475

>  <meeko>  (44) 
{"free_energy": -9.11, "intermolecular_energy": -10.6, "internal_energy": -1.35, "cluster_size": 26, "cluster_id": 1, "rank_in_cluster": 7}

>  <energy>  (44) 
-7.62

>  <cluster_rmsd>  (44) 
1.19

>  <cluster>  (44) 
2

$$$$

     RDKit          3D

 47 49  0  0  0  0  0  0  0  0999 V2000
  141.3070   67.4880  226.1340 C   0  0  0  0  0  0  0  0  0  0  0  0
  140.2340   68.5060  225.8930 C   0  0  0  0  0  0  0  0  0  0  0  0
  138.9530   67.8940  226.4480 C   0  0  0  0  0  0  0  0  0  0  0  0
  140.5710   69.7670  226.6140 C   0  0  0  0  0  0  0  0  0  0  0  0
  141.0950   69.5900  227.9020 C   0  0  0  0  0  0  0  0  0  0  0  0
  141.4410   70.6570  228.6980 C   0  0  0  0  0  0  0  0  0  0  0  0
  141.2490   71.9130  228.1700 C   0  0  0  0  0  0  0  0  0  0  0  0
  140.7310   72.0870  226.8980 C   0  0  0  0  0  0  0  0  0  0  0  0
  140.3750   71.0240  226.0780 C   0  0  0  0  0  0  0  0  0  0  0  0
  139.8580   71.1590  224.7960 N   0  0  0  0  0  0  0  0  0  0  0  0
  138.6520   70.6400  224.2870 C   0  0  0  0  0  0  0  0  0  0  0  0
  137.8840   69.9680  224.9740 O   0  0  0  0  0  0  0  0  0  0  0  0
  138.2700   70.8970  222.8700 C   0  0  0  0  0  0  0  0  0  0  0  0
  138.7740   72.2140  222.5300 N   0  0  0  0  0  0  0  0  0  0  0  0
  140.1060   72.3990  222.0900 C   0  0  0  0  0  0  0  0  0  0  0  0
  140.9440   71.4700  221.9600 O   0  0  0  0  0  0  0  0  0  0  0  0
  140.5310   73.7760  221.7650 C   0  0  0  0  0  0  0  0  0  0  0  0
  141.5800   74.0010  220.8820 C   0  0  0  0  0  0  0  0  0  0  0  0
  142.0230   75.2470  220.5390 C   0  0  0  0  0  0  0  0  0  0  0  0
  141.3880   76.3310  221.1050 C   0  0  0  0  0  0  0  0  0  0  0  0
  141.8070   77.6000  220.7810 C   0  0  0  0  0  0  0  0  0  0  0  0
  141.1640   78.6680  221.3530 C   0  0  0  0  0  0  0  0  0  0  0  0
  141.6940   80.2910  220.9440 Cl  0  0  0  0  0  0  0  0  0  0  0  0
  140.1330   78.4650  222.2200 C   0  0  0  0  0  0  0  0  0  0  0  0
  139.7040   77.1780  222.5510 C   0  0  0  0  0  0  0  0  0  0  0  0
  140.3440   76.0880  221.9820 C   0  0  0  0  0  0  0  0  0  0  0  0
  139.9310   74.8490  222.3000 N   0  0  0  0  0  0  0  0  0  0  0  0
  141.4486   67.3537  227.2166 H   0  0  0  0  0  0  0  0  0  0  0  0
  141.0119   66.5300  225.6812 H   0  0  0  0  0  0  0  0  0  0  0  0
  142.2482   67.8331  225.6812 H   0  0  0  0  0  0  0  0  0  0  0  0
  140.1265   68.7546  224.8269 H   0  0  0  0  0  0  0  0  0  0  0  0
  138.9856   67.9096  227.5474 H   0  0  0  0  0  0  0  0  0  0  0  0
  138.0873   68.4758  226.0985 H   0  0  0  0  0  0  0  0  0  0  0  0
  138.8617   66.8550  226.0985 H   0  0  0  0  0  0  0  0  0  0  0  0
  141.2334   68.5689  228.2870 H   0  0  0  0  0  0  0  0  0  0  0  0
  141.8515   70.5131  229.7083 H   0  0  0  0  0  0  0  0  0  0  0  0
  141.5123   72.7963  228.7704 H   0  0  0  0  0  0  0  0  0  0  0  0
  140.5955   73.1113  226.5205 H   0  0  0  0  0  0  0  0  0  0  0  0
  140.4290   71.7280  224.0950 H   0  0  0  0  0  0  0  0  0  0  0  0
  138.7206   70.1384  222.2132 H   0  0  0  0  0  0  0  0  0  0  0  0
  137.1787   70.8477  222.7412 H   0  0  0  0  0  0  0  0  0  0  0  0
  138.1340   73.0540  222.6110 H   0  0  0  0  0  0  0  0  0  0  0  0
  142.0805   73.1293  220.4353 H   0  0  0  0  0  0  0  0  0  0  0  0
  142.8578   75.3803  219.8352 H   0  0  0  0  0  0  0  0  0  0  0  0
  142.6393   77.7551  220.0787 H   0  0  0  0  0  0  0  0  0  0  0  0
  139.6279   79.3330  222.6687 H   0  0  0  0  0  0  0  0  0  0  0  0
  138.8701   77.0313  223.2532 H   0  0  0  0  0  0  0  0  0  0  0  0
  1  2  1  0
  2  3  1  0
  2  4  1  0
  4  5  2  0
  5  6  1  0
  6  7  2  0
  7  8  1  0
  8  9  2  0
  9 10  1  0
 10 11  1  0
 11 12  2  0
 11 13  1  0
 13 14  1  0
 14 15  1  0
 15 16  2  0
 15 17  1  0
 17 18  2  0
 18 19  1  0
 19 20  2  0
 20 21  1  0
 21 22  2  0
 22 23  1  0
 22 24  1  0
 24 25  2  0
 25 26  1  0
 26 27  2  0
  9  4  1  0
 27 17  1  0
 26 20  1  0
  1 28  1  0
  1 29  1  0
  1 30  1  0
  2 31  1  0
  3 32  1  0
  3 33  1  0
  3 34  1  0
  5 35  1  0
  6 36  1  0
  7 37  1  0
  8 38  1  0
 10 39  1  0
 13 40  1  0
 13 41  1  0
 14 42  1  0
 18 43  1  0
 19 44  1  0
 21 45  1  0
 24 46  1  0
 25 47  1  0
M  END
>  <smiles>  (45) 
CC(C)c1ccccc1NC(=O)CNC(=O)c1ccc2cc(Cl)ccc2n1

>  <score_type>  (45) 
oracle

>  <origin>  (45) 
autodockgpu

>  <m_score__min__energy>  (45) 
-9.2699999999999996

>  <m_primary>  (45) 
energy

>  <rmsd>  (45) 
8.157596136040791

>  <m_score__min__rmsd>  (45) 
8.157596136040791

>  <meeko>  (45) 
{"free_energy": -8.11, "intermolecular_energy": -9.6, "internal_energy": -1.89, "cluster_size": 18, "cluster_id": 2, "rank_in_cluster": 16}

>  <energy>  (45) 
-8.69

>  <cluster_rmsd>  (45) 
0.0

>  <cluster>  (45) 
3

$$$$

     RDKit          3D

 47 49  0  0  0  0  0  0  0  0999 V2000
  141.5110   80.8900  219.4190 C   0  0  0  0  0  0  0  0  0  0  0  0
  141.2340   79.5420  220.0110 C   0  0  0  0  0  0  0  0  0  0  0  0
  142.1510   78.5710  219.2730 C   0  0  0  0  0  0  0  0  0  0  0  0
  141.5500   79.5610  221.4680 C   0  0  0  0  0  0  0  0  0  0  0  0
  141.9510   80.8070  221.9700 C   0  0  0  0  0  0  0  0  0  0  0  0
  142.2900   80.9810  223.2920 C   0  0  0  0  0  0  0  0  0  0  0  0
  142.2170   79.8720  224.1020 C   0  0  0  0  0  0  0  0  0  0  0  0
  141.8210   78.6420  223.6060 C   0  0  0  0  0  0  0  0  0  0  0  0
  141.4750   78.4440  222.2750 C   0  0  0  0  0  0  0  0  0  0  0  0
  141.0680   77.2280  221.7420 N   0  0  0  0  0  0  0  0  0  0  0  0
  139.8600   76.5410  221.9690 C   0  0  0  0  0  0  0  0  0  0  0  0
  138.9840   76.9800  222.7140 O   0  0  0  0  0  0  0  0  0  0  0  0
  139.6080   75.2350  221.2970 C   0  0  0  0  0  0  0  0  0  0  0  0
  139.6530   74.2150  222.3270 N   0  0  0  0  0  0  0  0  0  0  0  0
  140.0770   72.8970  222.0390 C   0  0  0  0  0  0  0  0  0  0  0  0
  140.4390   72.5040  220.9010 O   0  0  0  0  0  0  0  0  0  0  0  0
  140.0910   71.9270  223.1520 C   0  0  0  0  0  0  0  0  0  0  0  0
  139.5990   70.6400  222.9740 C   0  0  0  0  0  0  0  0  0  0  0  0
  139.5820   69.6940  223.9600 C   0  0  0  0  0  0  0  0  0  0  0  0
  140.0830   70.0480  225.1950 C   0  0  0  0  0  0  0  0  0  0  0  0
  140.0820   69.1210  226.2110 C   0  0  0  0  0  0  0  0  0  0  0  0
  140.5840   69.4890  227.4330 C   0  0  0  0  0  0  0  0  0  0  0  0
  140.5860   68.3110  228.7350 Cl  0  0  0  0  0  0  0  0  0  0  0  0
  141.0700   70.7470  227.6250 C   0  0  0  0  0  0  0  0  0  0  0  0
  141.0730   71.6910  226.5970 C   0  0  0  0  0  0  0  0  0  0  0  0
  140.5690   71.3340  225.3550 C   0  0  0  0  0  0  0  0  0  0  0  0
  140.5720   72.2430  224.3640 N   0  0  0  0  0  0  0  0  0  0  0  0
  141.6613   81.6214  220.2268 H   0  0  0  0  0  0  0  0  0  0  0  0
  142.4173   80.8384  218.7978 H   0  0  0  0  0  0  0  0  0  0  0  0
  140.6578   81.2000  218.7978 H   0  0  0  0  0  0  0  0  0  0  0  0
  140.1786   79.2499  219.9069 H   0  0  0  0  0  0  0  0  0  0  0  0
  142.7157   77.9730  220.0034 H   0  0  0  0  0  0  0  0  0  0  0  0
  141.5462   77.9033  218.6418 H   0  0  0  0  0  0  0  0  0  0  0  0
  142.8521   79.1367  218.6418 H   0  0  0  0  0  0  0  0  0  0  0  0
  141.9958   81.6691  221.2883 H   0  0  0  0  0  0  0  0  0  0  0  0
  142.6043   81.9602  223.6824 H   0  0  0  0  0  0  0  0  0  0  0  0
  142.4788   79.9644  225.1664 H   0  0  0  0  0  0  0  0  0  0  0  0
  141.7784   77.7852  224.2945 H   0  0  0  0  0  0  0  0  0  0  0  0
  141.7390   76.7380  221.0710 H   0  0  0  0  0  0  0  0  0  0  0  0
  138.6193   75.2423  220.8150 H   0  0  0  0  0  0  0  0  0  0  0  0
  140.3605   75.0414  220.5184 H   0  0  0  0  0  0  0  0  0  0  0  0
  139.3640   74.4620  223.3170 H   0  0  0  0  0  0  0  0  0  0  0  0
  139.2014   70.3676  221.9852 H   0  0  0  0  0  0  0  0  0  0  0  0
  139.1828   68.6858  223.7751 H   0  0  0  0  0  0  0  0  0  0  0  0
  139.6875   68.1073  226.0471 H   0  0  0  0  0  0  0  0  0  0  0  0
  141.4688   71.0249  228.6118 H   0  0  0  0  0  0  0  0  0  0  0  0
  141.4690   72.7027  226.7691 H   0  0  0  0  0  0  0  0  0  0  0  0
  1  2  1  0
  2  3  1  0
  2  4  1  0
  4  5  2  0
  5  6  1  0
  6  7  2  0
  7  8  1  0
  8  9  2  0
  9 10  1  0
 10 11  1  0
 11 12  2  0
 11 13  1  0
 13 14  1  0
 14 15  1  0
 15 16  2  0
 15 17  1  0
 17 18  2  0
 18 19  1  0
 19 20  2  0
 20 21  1  0
 21 22  2  0
 22 23  1  0
 22 24  1  0
 24 25  2  0
 25 26  1  0
 26 27  2  0
  9  4  1  0
 27 17  1  0
 26 20  1  0
  1 28  1  0
  1 29  1  0
  1 30  1  0
  2 31  1  0
  3 32  1  0
  3 33  1  0
  3 34  1  0
  5 35  1  0
  6 36  1  0
  7 37  1  0
  8 38  1  0
 10 39  1  0
 13 40  1  0
 13 41  1  0
 14 42  1  0
 18 43  1  0
 19 44  1  0
 21 45  1  0
 24 46  1  0
 25 47  1  0
M  END
>  <smiles>  (46) 
CC(C)c1ccccc1NC(=O)CNC(=O)c1ccc2cc(Cl)ccc2n1

>  <score_type>  (46) 
oracle

>  <origin>  (46) 
autodockgpu

>  <m_score__min__energy>  (46) 
-9.2699999999999996

>  <m_primary>  (46) 
energy

>  <rmsd>  (46) 
3.067876014488081

>  <m_score__min__rmsd>  (46) 
3.067876014488081

>  <meeko>  (46) 
{"free_energy": -9.13, "intermolecular_energy": -10.62, "internal_energy": -1.33, "cluster_size": 26, "cluster_id": 1, "rank_in_cluster": 6}

>  <energy>  (46) 
-8.08

>  <cluster_rmsd>  (46) 
1.22

>  <cluster>  (46) 
3

$$$$

     RDKit          3D

 47 49  0  0  0  0  0  0  0  0999 V2000
  142.1830   78.7080  218.6920 C   0  0  0  0  0  0  0  0  0  0  0  0
  141.7370   77.5210  219.4900 C   0  0  0  0  0  0  0  0  0  0  0  0
  142.8670   76.5020  219.3810 C   0  0  0  0  0  0  0  0  0  0  0  0
  141.5280   77.9240  220.9100 C   0  0  0  0  0  0  0  0  0  0  0  0
  142.1840   79.1010  221.2940 C   0  0  0  0  0  0  0  0  0  0  0  0
  142.0990   79.5940  222.5760 C   0  0  0  0  0  0  0  0  0  0  0  0
  141.3370   78.8760  223.4680 C   0  0  0  0  0  0  0  0  0  0  0  0
  140.6880   77.7140  223.0880 C   0  0  0  0  0  0  0  0  0  0  0  0
  140.7610   77.1980  221.8000 C   0  0  0  0  0  0  0  0  0  0  0  0
  140.1210   76.0390  221.3810 N   0  0  0  0  0  0  0  0  0  0  0  0
  138.7460   75.7410  221.4280 C   0  0  0  0  0  0  0  0  0  0  0  0
  137.9160   76.5320  221.8760 O   0  0  0  0  0  0  0  0  0  0  0  0
  138.2500   74.4280  220.9240 C   0  0  0  0  0  0  0  0  0  0  0  0
  138.4790   73.4590  221.9780 N   0  0  0  0  0  0  0  0  0  0  0  0
  139.7520   72.8720  222.1730 C   0  0  0  0  0  0  0  0  0  0  0  0
  140.7640   73.1290  221.4730 O   0  0  0  0  0  0  0  0  0  0  0  0
  139.8910   71.8960  223.2730 C   0  0  0  0  0  0  0  0  0  0  0  0
  139.5120   70.5720  223.0930 C   0  0  0  0  0  0  0  0  0  0  0  0
  139.6140   69.6190  224.0670 C   0  0  0  0  0  0  0  0  0  0  0  0
  140.1210   70.0040  225.2900 C   0  0  0  0  0  0  0  0  0  0  0  0
  140.2370   69.0710  226.2930 C   0  0  0  0  0  0  0  0  0  0  0  0
  140.7440   69.4710  227.5030 C   0  0  0  0  0  0  0  0  0  0  0  0
  140.8950   68.2850  228.7890 Cl  0  0  0  0  0  0  0  0  0  0  0  0
  141.1200   70.7660  227.6960 C   0  0  0  0  0  0  0  0  0  0  0  0
  141.0030   71.7170  226.6810 C   0  0  0  0  0  0  0  0  0  0  0  0
  140.4930   71.3280  225.4510 C   0  0  0  0  0  0  0  0  0  0  0  0
  140.3800   72.2430  224.4720 N   0  0  0  0  0  0  0  0  0  0  0  0
  142.4864   79.5156  219.3744 H   0  0  0  0  0  0  0  0  0  0  0  0
  143.0358   78.4241  218.0578 H   0  0  0  0  0  0  0  0  0  0  0  0
  141.3542   79.0559  218.0578 H   0  0  0  0  0  0  0  0  0  0  0  0
  140.7880   77.1041  219.1219 H   0  0  0  0  0  0  0  0  0  0  0  0
  143.1936   76.2074  220.3892 H   0  0  0  0  0  0  0  0  0  0  0  0
  142.5096   75.6149  218.8376 H   0  0  0  0  0  0  0  0  0  0  0  0
  143.7126   76.9489  218.8376 H   0  0  0  0  0  0  0  0  0  0  0  0
  142.7836   79.6461  220.5501 H   0  0  0  0  0  0  0  0  0  0  0  0
  142.6159   80.5184  222.8732 H   0  0  0  0  0  0  0  0  0  0  0  0
  141.2414   79.2324  224.5043 H   0  0  0  0  0  0  0  0  0  0  0  0
  140.0890   77.1762  223.8376 H   0  0  0  0  0  0  0  0  0  0  0  0
  140.7300   75.2660  220.9640 H   0  0  0  0  0  0  0  0  0  0  0  0
  137.1759   74.4917  220.6955 H   0  0  0  0  0  0  0  0  0  0  0  0
  138.7732   74.1372  220.0011 H   0  0  0  0  0  0  0  0  0  0  0  0
  137.6790   73.1850  222.6160 H   0  0  0  0  0  0  0  0  0  0  0  0
  139.1081   70.2746  222.1140 H   0  0  0  0  0  0  0  0  0  0  0  0
  139.3023   68.5805  223.8817 H   0  0  0  0  0  0  0  0  0  0  0  0
  139.9302   68.0275  226.1289 H   0  0  0  0  0  0  0  0  0  0  0  0
  141.5246   71.0689  228.6730 H   0  0  0  0  0  0  0  0  0  0  0  0
  141.3105   72.7589  226.8538 H   0  0  0  0  0  0  0  0  0  0  0  0
  1  2  1  0
  2  3  1  0
  2  4  1  0
  4  5  2  0
  5  6  1  0
  6  7  2  0
  7  8  1  0
  8  9  2  0
  9 10  1  0
 10 11  1  0
 11 12  2  0
 11 13  1  0
 13 14  1  0
 14 15  1  0
 15 16  2  0
 15 17  1  0
 17 18  2  0
 18 19  1  0
 19 20  2  0
 20 21  1  0
 21 22  2  0
 22 23  1  0
 22 24  1  0
 24 25  2  0
 25 26  1  0
 26 27  2  0
  9  4  1  0
 27 17  1  0
 26 20  1  0
  1 28  1  0
  1 29  1  0
  1 30  1  0
  2 31  1  0
  3 32  1  0
  3 33  1  0
  3 34  1  0
  5 35  1  0
  6 36  1  0
  7 37  1  0
  8 38  1  0
 10 39  1  0
 13 40  1  0
 13 41  1  0
 14 42  1  0
 18 43  1  0
 19 44  1  0
 21 45  1  0
 24 46  1  0
 25 47  1  0
M  END
>  <smiles>  (47) 
CC(C)c1ccccc1NC(=O)CNC(=O)c1ccc2cc(Cl)ccc2n1

>  <score_type>  (47) 
oracle

>  <origin>  (47) 
autodockgpu

>  <m_score__min__energy>  (47) 
-9.2699999999999996

>  <m_primary>  (47) 
energy

>  <rmsd>  (47) 
2.3383979349578

>  <m_score__min__rmsd>  (47) 
2.3383979349578

>  <meeko>  (47) 
{"free_energy": -7.93, "intermolecular_energy": -9.42, "internal_energy": -1.89, "cluster_size": 26, "cluster_id": 1, "rank_in_cluster": 23}

>  <energy>  (47) 
-8.07

>  <cluster_rmsd>  (47) 
1.21

>  <cluster>  (47) 
3

$$$$

     RDKit          3D

 47 49  0  0  0  0  0  0  0  0999 V2000
  141.1070   72.1740  227.4270 C   0  0  0  0  0  0  0  0  0  0  0  0
  140.2470   71.4640  226.4260 C   0  0  0  0  0  0  0  0  0  0  0  0
  140.7690   71.8890  225.0580 C   0  0  0  0  0  0  0  0  0  0  0  0
  140.3830   69.9900  226.6070 C   0  0  0  0  0  0  0  0  0  0  0  0
  141.0160   69.5960  227.7940 C   0  0  0  0  0  0  0  0  0  0  0  0
  141.2280   68.2710  228.0970 C   0  0  0  0  0  0  0  0  0  0  0  0
  140.7890   67.3460  227.1780 C   0  0  0  0  0  0  0  0  0  0  0  0
  140.1640   67.7360  226.0060 C   0  0  0  0  0  0  0  0  0  0  0  0
  139.9400   69.0680  225.6800 C   0  0  0  0  0  0  0  0  0  0  0  0
  139.3130   69.4970  224.5180 N   0  0  0  0  0  0  0  0  0  0  0  0
  137.9800   69.9200  224.3570 C   0  0  0  0  0  0  0  0  0  0  0  0
  137.1820   69.9530  225.2930 O   0  0  0  0  0  0  0  0  0  0  0  0
  137.4910   70.3470  223.0140 C   0  0  0  0  0  0  0  0  0  0  0  0
  138.0850   71.6420  222.7430 N   0  0  0  0  0  0  0  0  0  0  0  0
  139.3690   71.7550  222.1600 C   0  0  0  0  0  0  0  0  0  0  0  0
  140.0870   70.7750  221.8360 O   0  0  0  0  0  0  0  0  0  0  0  0
  139.8910   73.1150  221.9190 C   0  0  0  0  0  0  0  0  0  0  0  0
  141.0920   73.3010  221.2450 C   0  0  0  0  0  0  0  0  0  0  0  0
  141.6310   74.5300  220.9890 C   0  0  0  0  0  0  0  0  0  0  0  0
  140.9370   75.6380  221.4280 C   0  0  0  0  0  0  0  0  0  0  0  0
  141.4510   76.8910  221.1870 C   0  0  0  0  0  0  0  0  0  0  0  0
  140.7480   77.9820  221.6300 C   0  0  0  0  0  0  0  0  0  0  0  0
  141.3970   79.5850  221.3270 Cl  0  0  0  0  0  0  0  0  0  0  0  0
  139.5690   77.8180  222.2930 C   0  0  0  0  0  0  0  0  0  0  0  0
  139.0450   76.5470  222.5390 C   0  0  0  0  0  0  0  0  0  0  0  0
  139.7430   75.4340  222.0970 C   0  0  0  0  0  0  0  0  0  0  0  0
  139.2380   74.2100  222.3340 N   0  0  0  0  0  0  0  0  0  0  0  0
  140.7832   71.9067  228.4437 H   0  0  0  0  0  0  0  0  0  0  0  0
  142.1563   71.8756  227.2860 H   0  0  0  0  0  0  0  0  0  0  0  0
  141.0127   73.2609  227.2860 H   0  0  0  0  0  0  0  0  0  0  0  0
  139.1817   71.7134  226.5401 H   0  0  0  0  0  0  0  0  0  0  0  0
  141.6161   72.5787  225.1869 H   0  0  0  0  0  0  0  0  0  0  0  0
  141.1008   71.0010  224.5001 H   0  0  0  0  0  0  0  0  0  0  0  0
  139.9667   72.3939  224.5001 H   0  0  0  0  0  0  0  0  0  0  0  0
  141.3524   70.3673  228.5025 H   0  0  0  0  0  0  0  0  0  0  0  0
  141.7249   67.9656  229.0297 H   0  0  0  0  0  0  0  0  0  0  0  0
  140.9377   66.2747  227.3786 H   0  0  0  0  0  0  0  0  0  0  0  0
  139.8306   66.9584  225.3030 H   0  0  0  0  0  0  0  0  0  0  0  0
  139.8990   69.5220  223.6250 H   0  0  0  0  0  0  0  0  0  0  0  0
  137.8023   69.6203  222.2492 H   0  0  0  0  0  0  0  0  0  0  0  0
  136.3927   70.4051  222.9945 H   0  0  0  0  0  0  0  0  0  0  0  0
  137.5470   72.5230  222.9840 H   0  0  0  0  0  0  0  0  0  0  0  0
  141.6379   72.4109  220.8990 H   0  0  0  0  0  0  0  0  0  0  0  0
  142.5853   74.6322  220.4515 H   0  0  0  0  0  0  0  0  0  0  0  0
  142.4038   77.0150  220.6514 H   0  0  0  0  0  0  0  0  0  0  0  0
  139.0188   78.7045  222.6415 H   0  0  0  0  0  0  0  0  0  0  0  0
  138.0920   76.4308  223.0759 H   0  0  0  0  0  0  0  0  0  0  0  0
  1  2  1  0
  2  3  1  0
  2  4  1  0
  4  5  2  0
  5  6  1  0
  6  7  2  0
  7  8  1  0
  8  9  2  0
  9 10  1  0
 10 11  1  0
 11 12  2  0
 11 13  1  0
 13 14  1  0
 14 15  1  0
 15 16  2  0
 15 17  1  0
 17 18  2  0
 18 19  1  0
 19 20  2  0
 20 21  1  0
 21 22  2  0
 22 23  1  0
 22 24  1  0
 24 25  2  0
 25 26  1  0
 26 27  2  0
  9  4  1  0
 27 17  1  0
 26 20  1  0
  1 28  1  0
  1 29  1  0
  1 30  1  0
  2 31  1  0
  3 32  1  0
  3 33  1  0
  3 34  1  0
  5 35  1  0
  6 36  1  0
  7 37  1  0
  8 38  1  0
 10 39  1  0
 13 40  1  0
 13 41  1  0
 14 42  1  0
 18 43  1  0
 19 44  1  0
 21 45  1  0
 24 46  1  0
 25 47  1  0
M  END
>  <smiles>  (48) 
CC(C)c1ccccc1NC(=O)CNC(=O)c1ccc2cc(Cl)ccc2n1

>  <score_type>  (48) 
oracle

>  <origin>  (48) 
autodockgpu

>  <m_score__min__energy>  (48) 
-9.2699999999999996

>  <m_primary>  (48) 
energy

>  <rmsd>  (48) 
7.735270285673464

>  <m_score__min__rmsd>  (48) 
7.735270285673464

>  <meeko>  (48) 
{"free_energy": -7.94, "intermolecular_energy": -9.43, "internal_energy": -2.43, "cluster_size": 3, "cluster_id": 4, "rank_in_cluster": 2}

>  <energy>  (48) 
-8.44

>  <cluster_rmsd>  (48) 
0.0

>  <cluster>  (48) 
4

$$$$

     RDKit          3D

 47 49  0  0  0  0  0  0  0  0999 V2000
  141.3980   80.7780  219.5580 C   0  0  0  0  0  0  0  0  0  0  0  0
  141.2000   79.4040  220.1220 C   0  0  0  0  0  0  0  0  0  0  0  0
  142.1700   78.5030  219.3650 C   0  0  0  0  0  0  0  0  0  0  0  0
  141.5190   79.4130  221.5790 C   0  0  0  0  0  0  0  0  0  0  0  0
  141.8910   80.6610  222.0960 C   0  0  0  0  0  0  0  0  0  0  0  0
  142.2270   80.8260  223.4200 C   0  0  0  0  0  0  0  0  0  0  0  0
  142.1820   79.7070  224.2170 C   0  0  0  0  0  0  0  0  0  0  0  0
  141.8140   78.4740  223.7060 C   0  0  0  0  0  0  0  0  0  0  0  0
  141.4710   78.2840  222.3730 C   0  0  0  0  0  0  0  0  0  0  0  0
  141.0920   77.0650  221.8250 N   0  0  0  0  0  0  0  0  0  0  0  0
  139.8030   76.5010  221.7710 C   0  0  0  0  0  0  0  0  0  0  0  0
  138.8160   77.0700  222.2360 O   0  0  0  0  0  0  0  0  0  0  0  0
  139.5990   75.1690  221.1340 C   0  0  0  0  0  0  0  0  0  0  0  0
  139.6770   74.1800  222.1920 N   0  0  0  0  0  0  0  0  0  0  0  0
  139.9260   72.8170  221.9070 C   0  0  0  0  0  0  0  0  0  0  0  0
  140.0930   72.3550  220.7500 O   0  0  0  0  0  0  0  0  0  0  0  0
  139.9900   71.8820  223.0490 C   0  0  0  0  0  0  0  0  0  0  0  0
  139.5210   70.5810  222.9230 C   0  0  0  0  0  0  0  0  0  0  0  0
  139.5500   69.6670  223.9380 C   0  0  0  0  0  0  0  0  0  0  0  0
  140.0750   70.0690  225.1480 C   0  0  0  0  0  0  0  0  0  0  0  0
  140.1200   69.1750  226.1920 C   0  0  0  0  0  0  0  0  0  0  0  0
  140.6460   69.5920  227.3880 C   0  0  0  0  0  0  0  0  0  0  0  0
  140.7070   68.4550  228.7250 Cl  0  0  0  0  0  0  0  0  0  0  0  0
  141.1100   70.8650  227.5290 C   0  0  0  0  0  0  0  0  0  0  0  0
  141.0660   71.7760  226.4720 C   0  0  0  0  0  0  0  0  0  0  0  0
  140.5370   71.3700  225.2550 C   0  0  0  0  0  0  0  0  0  0  0  0
  140.4950   72.2470  224.2370 N   0  0  0  0  0  0  0  0  0  0  0  0
  141.5021   81.5006  220.3808 H   0  0  0  0  0  0  0  0  0  0  0  0
  142.3076   80.7929  218.9396 H   0  0  0  0  0  0  0  0  0  0  0  0
  140.5296   81.0491  218.9396 H   0  0  0  0  0  0  0  0  0  0  0  0
  140.1632   79.0533  220.0121 H   0  0  0  0  0  0  0  0  0  0  0  0
  142.7804   77.9360  220.0833 H   0  0  0  0  0  0  0  0  0  0  0  0
  141.6034   77.8035  218.7328 H   0  0  0  0  0  0  0  0  0  0  0  0
  142.8259   79.1196  218.7328 H   0  0  0  0  0  0  0  0  0  0  0  0
  141.9151   81.5325  221.4252 H   0  0  0  0  0  0  0  0  0  0  0  0
  142.5181   81.8077  223.8220 H   0  0  0  0  0  0  0  0  0  0  0  0
  142.4436   79.7928  225.2820 H   0  0  0  0  0  0  0  0  0  0  0  0
  141.7922   77.6081  224.3840 H   0  0  0  0  0  0  0  0  0  0  0  0
  141.8580   76.4690  221.3800 H   0  0  0  0  0  0  0  0  0  0  0  0
  138.6120   75.1282  220.6500 H   0  0  0  0  0  0  0  0  0  0  0  0
  140.3598   74.9809  220.3621 H   0  0  0  0  0  0  0  0  0  0  0  0
  139.5480   74.4830  223.1990 H   0  0  0  0  0  0  0  0  0  0  0  0
  139.1038   70.2697  221.9540 H   0  0  0  0  0  0  0  0  0  0  0  0
  139.1677   68.6455  223.7949 H   0  0  0  0  0  0  0  0  0  0  0  0
  139.7427   68.1489  226.0706 H   0  0  0  0  0  0  0  0  0  0  0  0
  141.5281   71.1818  228.4959 H   0  0  0  0  0  0  0  0  0  0  0  0
  141.4450   72.8004  226.6019 H   0  0  0  0  0  0  0  0  0  0  0  0
  1  2  1  0
  2  3  1  0
  2  4  1  0
  4  5  2  0
  5  6  1  0
  6  7  2  0
  7  8  1  0
  8  9  2  0
  9 10  1  0
 10 11  1  0
 11 12  2  0
 11 13  1  0
 13 14  1  0
 14 15  1  0
 15 16  2  0
 15 17  1  0
 17 18  2  0
 18 19  1  0
 19 20  2  0
 20 21  1  0
 21 22  2  0
 22 23  1  0
 22 24  1  0
 24 25  2  0
 25 26  1  0
 26 27  2  0
  9  4  1  0
 27 17  1  0
 26 20  1  0
  1 28  1  0
  1 29  1  0
  1 30  1  0
  2 31  1  0
  3 32  1  0
  3 33  1  0
  3 34  1  0
  5 35  1  0
  6 36  1  0
  7 37  1  0
  8 38  1  0
 10 39  1  0
 13 40  1  0
 13 41  1  0
 14 42  1  0
 18 43  1  0
 19 44  1  0
 21 45  1  0
 24 46  1  0
 25 47  1  0
M  END
>  <smiles>  (49) 
CC(C)c1ccccc1NC(=O)CNC(=O)c1ccc2cc(Cl)ccc2n1

>  <score_type>  (49) 
oracle

>  <origin>  (49) 
autodockgpu

>  <m_score__min__energy>  (49) 
-9.2699999999999996

>  <m_primary>  (49) 
energy

>  <rmsd>  (49) 
3.0246769843670664

>  <m_score__min__rmsd>  (49) 
3.0246769843670664

>  <meeko>  (49) 
{"free_energy": -9.25, "intermolecular_energy": -10.74, "internal_energy": -1.32, "cluster_size": 26, "cluster_id": 1, "rank_in_cluster": 2}

>  <energy>  (49) 
-7.94

>  <cluster_rmsd>  (49) 
1.12

>  <cluster>  (49) 
4

$$$$

     RDKit          3D

 47 49  0  0  0  0  0  0  0  0999 V2000
  141.0810   71.9280  227.2970 C   0  0  0  0  0  0  0  0  0  0  0  0
  140.2460   71.4430  226.1510 C   0  0  0  0  0  0  0  0  0  0  0  0
  141.0750   71.7040  224.8980 C   0  0  0  0  0  0  0  0  0  0  0  0
  139.9780   69.9850  226.3110 C   0  0  0  0  0  0  0  0  0  0  0  0
  140.2150   69.4770  227.5950 C   0  0  0  0  0  0  0  0  0  0  0  0
  140.0270   68.1470  227.8950 C   0  0  0  0  0  0  0  0  0  0  0  0
  139.5930   67.3360  226.8730 C   0  0  0  0  0  0  0  0  0  0  0  0
  139.3590   67.8380  225.6050 C   0  0  0  0  0  0  0  0  0  0  0  0
  139.5420   69.1770  225.2790 C   0  0  0  0  0  0  0  0  0  0  0  0
  139.3130   69.7180  224.0220 N   0  0  0  0  0  0  0  0  0  0  0  0
  138.3740   70.7020  223.6580 C   0  0  0  0  0  0  0  0  0  0  0  0
  137.6090   71.2150  224.4750 O   0  0  0  0  0  0  0  0  0  0  0  0
  138.2810   71.1560  222.2410 C   0  0  0  0  0  0  0  0  0  0  0  0
  138.7550   72.5260  222.2060 N   0  0  0  0  0  0  0  0  0  0  0  0
  139.8680   72.8980  221.4160 C   0  0  0  0  0  0  0  0  0  0  0  0
  140.5250   72.1000  220.7000 O   0  0  0  0  0  0  0  0  0  0  0  0
  140.2780   74.3170  221.4420 C   0  0  0  0  0  0  0  0  0  0  0  0
  141.4260   74.7320  220.7780 C   0  0  0  0  0  0  0  0  0  0  0  0
  141.8610   76.0270  220.7600 C   0  0  0  0  0  0  0  0  0  0  0  0
  141.1140   76.9630  221.4430 C   0  0  0  0  0  0  0  0  0  0  0  0
  141.5230   78.2760  221.4480 C   0  0  0  0  0  0  0  0  0  0  0  0
  140.7670   79.1940  222.1310 C   0  0  0  0  0  0  0  0  0  0  0  0
  141.2830   80.8730  222.1410 Cl  0  0  0  0  0  0  0  0  0  0  0  0
  139.6400   78.8040  222.7880 C   0  0  0  0  0  0  0  0  0  0  0  0
  139.2210   77.4720  222.7870 C   0  0  0  0  0  0  0  0  0  0  0  0
  139.9740   76.5310  222.1000 C   0  0  0  0  0  0  0  0  0  0  0  0
  139.5710   75.2480  222.0980 N   0  0  0  0  0  0  0  0  0  0  0  0
  140.5995   71.6483  228.2457 H   0  0  0  0  0  0  0  0  0  0  0  0
  142.0793   71.4692  227.2433 H   0  0  0  0  0  0  0  0  0  0  0  0
  141.1771   73.0225  227.2433 H   0  0  0  0  0  0  0  0  0  0  0  0
  139.2730   71.9533  226.0978 H   0  0  0  0  0  0  0  0  0  0  0  0
  142.0872   72.0227  225.1878 H   0  0  0  0  0  0  0  0  0  0  0  0
  141.1376   70.7821  224.3012 H   0  0  0  0  0  0  0  0  0  0  0  0
  140.5982   72.4955  224.3012 H   0  0  0  0  0  0  0  0  0  0  0  0
  140.5608   70.1599  228.3850 H   0  0  0  0  0  0  0  0  0  0  0  0
  140.2150   67.7517  228.9042 H   0  0  0  0  0  0  0  0  0  0  0  0
  139.4284   66.2659  227.0675 H   0  0  0  0  0  0  0  0  0  0  0  0
  139.0133   67.1479  224.8212 H   0  0  0  0  0  0  0  0  0  0  0  0
  139.9180   69.3610  223.2170 H   0  0  0  0  0  0  0  0  0  0  0  0
  138.9094   70.5217  221.5985 H   0  0  0  0  0  0  0  0  0  0  0  0
  137.2468   71.0875  221.8725 H   0  0  0  0  0  0  0  0  0  0  0  0
  138.2580   73.2650  222.7810 H   0  0  0  0  0  0  0  0  0  0  0  0
  142.0163   73.9772  220.2378 H   0  0  0  0  0  0  0  0  0  0  0  0
  142.7753   76.3128  220.2194 H   0  0  0  0  0  0  0  0  0  0  0  0
  142.4357   78.5829  220.9163 H   0  0  0  0  0  0  0  0  0  0  0  0
  139.0468   79.5544  223.3312 H   0  0  0  0  0  0  0  0  0  0  0  0
  138.3078   77.1734  223.3227 H   0  0  0  0  0  0  0  0  0  0  0  0
  1  2  1  0
  2  3  1  0
  2  4  1  0
  4  5  2  0
  5  6  1  0
  6  7  2  0
  7  8  1  0
  8  9  2  0
  9 10  1  0
 10 11  1  0
 11 12  2  0
 11 13  1  0
 13 14  1  0
 14 15  1  0
 15 16  2  0
 15 17  1  0
 17 18  2  0
 18 19  1  0
 19 20  2  0
 20 21  1  0
 21 22  2  0
 22 23  1  0
 22 24  1  0
 24 25  2  0
 25 26  1  0
 26 27  2  0
  9  4  1  0
 27 17  1  0
 26 20  1  0
  1 28  1  0
  1 29  1  0
  1 30  1  0
  2 31  1  0
  3 32  1  0
  3 33  1  0
  3 34  1  0
  5 35  1  0
  6 36  1  0
  7 37  1  0
  8 38  1  0
 10 39  1  0
 13 40  1  0
 13 41  1  0
 14 42  1  0
 18 43  1  0
 19 44  1  0
 21 45  1  0
 24 46  1  0
 25 47  1  0
M  END
>  <smiles>  (50) 
CC(C)c1ccccc1NC(=O)CNC(=O)c1ccc2cc(Cl)ccc2n1

>  <score_type>  (50) 
oracle

>  <origin>  (50) 
autodockgpu

>  <m_score__min__energy>  (50) 
-9.2699999999999996

>  <m_primary>  (50) 
energy

>  <rmsd>  (50) 
8.00071798387066

>  <m_score__min__rmsd>  (50) 
8.00071798387066

>  <meeko>  (50) 
{"free_energy": -8.14, "intermolecular_energy": -9.64, "internal_energy": -1.57, "cluster_size": 18, "cluster_id": 2, "rank_in_cluster": 15}

>  <energy>  (50) 
-7.81

>  <cluster_rmsd>  (50) 
1.14

>  <cluster>  (50) 
4

$$$$
