
     RDKit          3D

 53 56  0  0  0  0  0  0  0  0999 V2000
  139.2130   74.4900  222.3350 O   0  0  0  0  0  0  0  0  0  0  0  0
  140.0860   75.2620  221.8130 C   0  0  0  0  0  0  0  0  0  0  0  0
  140.9340   74.7210  220.7970 N   0  0  0  0  0  0  0  0  0  0  0  0
  140.7170   73.3260  220.4540 C   0  0  0  0  0  0  0  0  0  0  0  0
  141.9630   72.5550  220.5340 C   0  0  0  0  0  0  0  0  0  0  0  0
  142.0560   71.3990  221.0400 O   0  0  0  0  0  0  0  0  0  0  0  0
  143.1530   73.1350  220.0090 N   0  0  0  0  0  0  0  0  0  0  0  0
  143.7860   72.6400  218.7860 C   0  0  0  0  0  0  0  0  0  0  0  0
  145.2040   72.2050  219.0940 C   0  0  0  0  0  0  0  0  0  0  0  0
  145.9600   73.2040  219.9050 C   0  0  0  0  0  0  0  0  0  0  0  0
  145.2020   73.7610  221.0800 C   0  0  0  0  0  0  0  0  0  0  0  0
  143.8160   74.2590  220.6520 C   0  0  1  0  0  0  0  0  0  0  0  0
  144.0660   75.3930  219.6990 C   0  0  0  0  0  0  0  0  0  0  0  0
  143.3530   76.6050  220.0210 N   0  0  0  0  0  0  0  0  0  0  0  0
  142.5510   76.9120  218.8320 C   0  0  0  0  0  0  0  0  0  0  0  0
  143.2910   76.6370  217.5290 C   0  0  0  0  0  0  0  0  0  0  0  0
  142.0840   75.8730  217.9150 C   0  0  0  0  0  0  0  0  0  0  0  0
  140.2180   76.6510  222.2350 C   0  0  0  0  0  0  0  0  0  0  0  0
  139.0750   77.3360  222.5960 C   0  0  0  0  0  0  0  0  0  0  0  0
  139.1370   78.6620  223.0070 C   0  0  0  0  0  0  0  0  0  0  0  0
  140.3520   79.3150  223.0600 C   0  0  0  0  0  0  0  0  0  0  0  0
  140.4010   80.6340  223.4710 C   0  0  0  0  0  0  0  0  0  0  0  0
  141.6500   81.2230  223.5000 C   0  0  0  0  0  0  0  0  0  0  0  0
  142.7920   80.5320  223.1380 C   0  0  0  0  0  0  0  0  0  0  0  0
  142.7120   79.2080  222.7300 C   0  0  0  0  0  0  0  0  0  0  0  0
  141.4740   78.6000  222.6930 C   0  0  0  0  0  0  0  0  0  0  0  0
  141.3970   77.2970  222.2910 N   0  0  0  0  0  0  0  0  0  0  0  0
  141.6700   75.3100  220.3340 H   0  0  0  0  0  0  0  0  0  0  0  0
  139.9843   72.8955  221.1524 H   0  0  0  0  0  0  0  0  0  0  0  0
  140.3456   73.2775  219.4197 H   0  0  0  0  0  0  0  0  0  0  0  0
  143.2153   71.7833  218.3983 H   0  0  0  0  0  0  0  0  0  0  0  0
  143.8028   73.4400  218.0312 H   0  0  0  0  0  0  0  0  0  0  0  0
  145.1662   71.2578  219.6519 H   0  0  0  0  0  0  0  0  0  0  0  0
  145.7297   72.0969  218.1338 H   0  0  0  0  0  0  0  0  0  0  0  0
  146.8717   72.7189  220.2838 H   0  0  0  0  0  0  0  0  0  0  0  0
  146.1681   74.0534  219.2377 H   0  0  0  0  0  0  0  0  0  0  0  0
  145.0830   72.9728  221.8380 H   0  0  0  0  0  0  0  0  0  0  0  0
  145.7678   74.6093  221.4926 H   0  0  0  0  0  0  0  0  0  0  0  0
  143.1804   74.6133  221.4769 H   0  0  0  0  0  0  0  0  0  0  0  0
  145.1433   75.6154  219.7026 H   0  0  0  0  0  0  0  0  0  0  0  0
  143.7016   75.0643  218.7145 H   0  0  0  0  0  0  0  0  0  0  0  0
  142.7120   76.5090  220.8400 H   0  0  0  0  0  0  0  0  0  0  0  0
  142.0185   77.7335  219.3335 H   0  0  0  0  0  0  0  0  0  0  0  0
  143.2480   77.3621  216.7029 H   0  0  0  0  0  0  0  0  0  0  0  0
  144.3247   76.3877  217.2475 H   0  0  0  0  0  0  0  0  0  0  0  0
  141.1466   76.0206  217.3587 H   0  0  0  0  0  0  0  0  0  0  0  0
  141.8613   74.8014  218.0248 H   0  0  0  0  0  0  0  0  0  0  0  0
  138.1016   76.8250  222.5577 H   0  0  0  0  0  0  0  0  0  0  0  0
  138.2160   79.1924  223.2907 H   0  0  0  0  0  0  0  0  0  0  0  0
  139.4937   81.1850  223.7595 H   0  0  0  0  0  0  0  0  0  0  0  0
  141.7389   82.2716  223.8202 H   0  0  0  0  0  0  0  0  0  0  0  0
  143.7697   81.0349  223.1737 H   0  0  0  0  0  0  0  0  0  0  0  0
  143.6177   78.6542  222.4418 H   0  0  0  0  0  0  0  0  0  0  0  0
  1  2  2  0
  2  3  1  0
  3  4  1  0
  4  5  1  0
  5  6  2  0
  5  7  1  0
  7  8  1  0
  8  9  1  0
  9 10  1  0
 10 11  1  0
 11 12  1  0
 12 13  1  0
 13 14  1  0
 14 15  1  0
 15 16  1  0
 16 17  1  0
  2 18  1  0
 18 19  2  0
 19 20  1  0
 20 21  2  0
 21 22  1  0
 22 23  2  0
 23 24  1  0
 24 25  2  0
 25 26  1  0
 26 27  2  0
 12  7  1  0
 17 15  1  0
 27 18  1  0
 26 21  1  0
  3 28  1  0
  4 29  1  0
  4 30  1  0
  8 31  1  0
  8 32  1  0
  9 33  1  0
  9 34  1  0
 10 35  1  0
 10 36  1  0
 11 37  1  0
 11 38  1  0
 12 39  1  1
 13 40  1  0
 13 41  1  0
 14 42  1  0
 15 43  1  0
 16 44  1  0
 16 45  1  0
 17 46  1  0
 17 47  1  0
 19 48  1  0
 20 49  1  0
 22 50  1  0
 23 51  1  0
 24 52  1  0
 25 53  1  0
M  END
>  <smiles>  (1) 
O=C(NCC(=O)N1CCCC[C@H]1CNC1CC1)c1ccc2ccccc2n1

>  <score_type>  (1) 
oracle

>  <origin>  (1) 
autodockgpu

>  <m_score__min__energy>  (1) 
-8.3200000000000003

>  <m_primary>  (1) 
energy

>  <rmsd>  (1) 
7.192832261833188

>  <m_score__min__rmsd>  (1) 
7.192832261833188

>  <meeko>  (1) 
{"free_energy": -6.51, "intermolecular_energy": -8.6, "internal_energy": -3.52, "cluster_size": 13, "cluster_id": 3, "rank_in_cluster": 9}

>  <energy>  (1) 
-8.32

>  <cluster_rmsd>  (1) 
0.0

>  <cluster>  (1) 
1

$$$$

     RDKit          3D

 53 56  0  0  0  0  0  0  0  0999 V2000
  138.8460   75.1650  221.9800 O   0  0  0  0  0  0  0  0  0  0  0  0
  140.0130   75.6630  222.1150 C   0  0  0  0  0  0  0  0  0  0  0  0
  141.1360   74.8000  221.9180 N   0  0  0  0  0  0  0  0  0  0  0  0
  140.8330   73.4200  221.5800 C   0  0  0  0  0  0  0  0  0  0  0  0
  141.1270   73.1380  220.1690 C   0  0  0  0  0  0  0  0  0  0  0  0
  140.2900   72.6660  219.3460 O   0  0  0  0  0  0  0  0  0  0  0  0
  142.4370   73.4130  219.6830 N   0  0  0  0  0  0  0  0  0  0  0  0
  143.1250   72.5170  218.7530 C   0  0  0  0  0  0  0  0  0  0  0  0
  144.4260   72.0490  219.3740 C   0  0  0  0  0  0  0  0  0  0  0  0
  145.2200   73.1590  219.9760 C   0  0  0  0  0  0  0  0  0  0  0  0
  144.4230   74.1130  220.8250 C   0  0  0  0  0  0  0  0  0  0  0  0
  143.1760   74.6020  220.0770 C   0  0  1  0  0  0  0  0  0  0  0  0
  143.6870   75.3730  218.8930 C   0  0  0  0  0  0  0  0  0  0  0  0
  143.6420   76.8050  219.0560 N   0  0  0  0  0  0  0  0  0  0  0  0
  142.3640   77.0830  219.7190 C   0  0  0  0  0  0  0  0  0  0  0  0
  141.8190   78.4690  219.4020 C   0  0  0  0  0  0  0  0  0  0  0  0
  141.1160   77.2400  218.9730 C   0  0  0  0  0  0  0  0  0  0  0  0
  140.2020   77.0680  222.4570 C   0  0  0  0  0  0  0  0  0  0  0  0
  139.0820   77.8600  222.6100 C   0  0  0  0  0  0  0  0  0  0  0  0
  139.1980   79.2060  222.9360 C   0  0  0  0  0  0  0  0  0  0  0  0
  140.4450   79.7710  223.1140 C   0  0  0  0  0  0  0  0  0  0  0  0
  140.5480   81.1110  223.4390 C   0  0  0  0  0  0  0  0  0  0  0  0
  141.8260   81.6070  223.6010 C   0  0  0  0  0  0  0  0  0  0  0  0
  142.9450   80.8090  223.4480 C   0  0  0  0  0  0  0  0  0  0  0  0
  142.8110   79.4670  223.1210 C   0  0  0  0  0  0  0  0  0  0  0  0
  141.5430   78.9490  222.9540 C   0  0  0  0  0  0  0  0  0  0  0  0
  141.4120   77.6280  222.6330 N   0  0  0  0  0  0  0  0  0  0  0  0
  142.1180   75.1560  222.0170 H   0  0  0  0  0  0  0  0  0  0  0  0
  141.4398   72.7550  222.2121 H   0  0  0  0  0  0  0  0  0  0  0  0
  139.7600   73.2487  221.7515 H   0  0  0  0  0  0  0  0  0  0  0  0
  142.4859   71.6472  218.5408 H   0  0  0  0  0  0  0  0  0  0  0  0
  143.3370   73.0526  217.8159 H   0  0  0  0  0  0  0  0  0  0  0  0
  144.1944   71.3170  220.1618 H   0  0  0  0  0  0  0  0  0  0  0  0
  145.0340   71.6099  218.5694 H   0  0  0  0  0  0  0  0  0  0  0  0
  146.0067   72.7161  220.6044 H   0  0  0  0  0  0  0  0  0  0  0  0
  145.6177   73.7478  219.1363 H   0  0  0  0  0  0  0  0  0  0  0  0
  144.1118   73.6004  221.7471 H   0  0  0  0  0  0  0  0  0  0  0  0
  145.0535   74.9825  221.0624 H   0  0  0  0  0  0  0  0  0  0  0  0
  142.5089   75.2467  220.6681 H   0  0  0  0  0  0  0  0  0  0  0  0
  144.7318   75.0788  218.7146 H   0  0  0  0  0  0  0  0  0  0  0  0
  143.0256   75.1301  218.0483 H   0  0  0  0  0  0  0  0  0  0  0  0
  144.4150   77.1850  219.6480 H   0  0  0  0  0  0  0  0  0  0  0  0
  142.6176   76.4648  220.5928 H   0  0  0  0  0  0  0  0  0  0  0  0
  141.4004   79.0968  220.2023 H   0  0  0  0  0  0  0  0  0  0  0  0
  142.2030   79.3715  218.9039 H   0  0  0  0  0  0  0  0  0  0  0  0
  140.1617   76.9664  219.4467 H   0  0  0  0  0  0  0  0  0  0  0  0
  140.7531   76.8663  218.0042 H   0  0  0  0  0  0  0  0  0  0  0  0
  138.0835   77.4196  222.4720 H   0  0  0  0  0  0  0  0  0  0  0  0
  138.2944   79.8224  223.0524 H   0  0  0  0  0  0  0  0  0  0  0  0
  139.6594   81.7476  223.5618 H   0  0  0  0  0  0  0  0  0  0  0  0
  141.9582   82.6680  223.8593 H   0  0  0  0  0  0  0  0  0  0  0  0
  143.9473   81.2406  223.5863 H   0  0  0  0  0  0  0  0  0  0  0  0
  143.6983   78.8287  222.9974 H   0  0  0  0  0  0  0  0  0  0  0  0
  1  2  2  0
  2  3  1  0
  3  4  1  0
  4  5  1  0
  5  6  2  0
  5  7  1  0
  7  8  1  0
  8  9  1  0
  9 10  1  0
 10 11  1  0
 11 12  1  0
 12 13  1  0
 13 14  1  0
 14 15  1  0
 15 16  1  0
 16 17  1  0
  2 18  1  0
 18 19  2  0
 19 20  1  0
 20 21  2  0
 21 22  1  0
 22 23  2  0
 23 24  1  0
 24 25  2  0
 25 26  1  0
 26 27  2  0
 12  7  1  0
 17 15  1  0
 27 18  1  0
 26 21  1  0
  3 28  1  0
  4 29  1  0
  4 30  1  0
  8 31  1  0
  8 32  1  0
  9 33  1  0
  9 34  1  0
 10 35  1  0
 10 36  1  0
 11 37  1  0
 11 38  1  0
 12 39  1  1
 13 40  1  0
 13 41  1  0
 14 42  1  0
 15 43  1  0
 16 44  1  0
 16 45  1  0
 17 46  1  0
 17 47  1  0
 19 48  1  0
 20 49  1  0
 22 50  1  0
 23 51  1  0
 24 52  1  0
 25 53  1  0
M  END
>  <smiles>  (2) 
O=C(NCC(=O)N1CCCC[C@H]1CNC1CC1)c1ccc2ccccc2n1

>  <score_type>  (2) 
oracle

>  <origin>  (2) 
autodockgpu

>  <m_score__min__energy>  (2) 
-8.3200000000000003

>  <m_primary>  (2) 
energy

>  <rmsd>  (2) 
7.11214820784938

>  <m_score__min__rmsd>  (2) 
7.11214820784938

>  <meeko>  (2) 
{"free_energy": -6.51, "intermolecular_energy": -8.6, "internal_energy": -2.38, "cluster_size": 13, "cluster_id": 3, "rank_in_cluster": 8}

>  <energy>  (2) 
-8.23

>  <cluster_rmsd>  (2) 
1.51

>  <cluster>  (2) 
1

$$$$

     RDKit          3D

 53 56  0  0  0  0  0  0  0  0999 V2000
  136.0500   71.4390  221.9240 O   0  0  0  0  0  0  0  0  0  0  0  0
  137.0590   71.9040  222.5530 C   0  0  0  0  0  0  0  0  0  0  0  0
  137.3920   73.2800  222.3590 N   0  0  0  0  0  0  0  0  0  0  0  0
  136.5380   74.0260  221.4510 C   0  0  0  0  0  0  0  0  0  0  0  0
  137.2320   75.1990  220.9050 C   0  0  0  0  0  0  0  0  0  0  0  0
  136.7670   75.9450  219.9950 O   0  0  0  0  0  0  0  0  0  0  0  0
  138.5140   75.5300  221.4290 N   0  0  0  0  0  0  0  0  0  0  0  0
  138.6760   76.3360  222.6400 C   0  0  0  0  0  0  0  0  0  0  0  0
  139.4800   77.5780  222.3150 C   0  0  0  0  0  0  0  0  0  0  0  0
  140.7050   77.2890  221.5120 C   0  0  0  0  0  0  0  0  0  0  0  0
  140.4880   76.3560  220.3510 C   0  0  0  0  0  0  0  0  0  0  0  0
  139.7470   75.0890  220.7960 C   0  0  1  0  0  0  0  0  0  0  0  0
  140.6670   74.3980  221.7620 C   0  0  0  0  0  0  0  0  0  0  0  0
  140.1100   73.2120  222.3660 N   0  0  0  0  0  0  0  0  0  0  0  0
  141.0950   72.1520  222.1250 C   0  0  0  0  0  0  0  0  0  0  0  0
  140.6740   71.1900  221.0210 C   0  0  0  0  0  0  0  0  0  0  0  0
  141.8590   72.0650  220.8810 C   0  0  0  0  0  0  0  0  0  0  0  0
  137.8490   71.0620  223.4430 C   0  0  0  0  0  0  0  0  0  0  0  0
  137.5040   69.7310  223.5630 C   0  0  0  0  0  0  0  0  0  0  0  0
  138.2200   68.8790  224.3960 C   0  0  0  0  0  0  0  0  0  0  0  0
  139.2940   69.3570  225.1180 C   0  0  0  0  0  0  0  0  0  0  0  0
  139.9990   68.5000  225.9430 C   0  0  0  0  0  0  0  0  0  0  0  0
  141.0610   69.0480  226.6350 C   0  0  0  0  0  0  0  0  0  0  0  0
  141.4030   70.3830  226.5110 C   0  0  0  0  0  0  0  0  0  0  0  0
  140.6770   71.2190  225.6760 C   0  0  0  0  0  0  0  0  0  0  0  0
  139.6120   70.6930  224.9740 C   0  0  0  0  0  0  0  0  0  0  0  0
  138.8980   71.5180  224.1520 N   0  0  0  0  0  0  0  0  0  0  0  0
  138.2120   73.7150  222.8510 H   0  0  0  0  0  0  0  0  0  0  0  0
  136.2379   73.3693  220.6211 H   0  0  0  0  0  0  0  0  0  0  0  0
  135.6577   74.3742  222.0112 H   0  0  0  0  0  0  0  0  0  0  0  0
  137.6864   76.6288  223.0208 H   0  0  0  0  0  0  0  0  0  0  0  0
  139.2033   75.7472  223.4050 H   0  0  0  0  0  0  0  0  0  0  0  0
  138.8420   78.2686  221.7441 H   0  0  0  0  0  0  0  0  0  0  0  0
  139.8089   78.0150  223.2694 H   0  0  0  0  0  0  0  0  0  0  0  0
  141.0903   78.2415  221.1192 H   0  0  0  0  0  0  0  0  0  0  0  0
  141.4098   76.7847  222.1894 H   0  0  0  0  0  0  0  0  0  0  0  0
  139.8921   76.8703  219.5826 H   0  0  0  0  0  0  0  0  0  0  0  0
  141.4688   76.0650  219.9468 H   0  0  0  0  0  0  0  0  0  0  0  0
  139.4906   74.3965  219.9807 H   0  0  0  0  0  0  0  0  0  0  0  0
  141.5822   74.1127  221.2224 H   0  0  0  0  0  0  0  0  0  0  0  0
  140.8574   75.1087  222.5797 H   0  0  0  0  0  0  0  0  0  0  0  0
  139.9560   73.2980  223.3960 H   0  0  0  0  0  0  0  0  0  0  0  0
  141.4125   72.1283  223.1779 H   0  0  0  0  0  0  0  0  0  0  0  0
  140.7980   70.1051  221.1534 H   0  0  0  0  0  0  0  0  0  0  0  0
  139.7564   71.0077  220.4424 H   0  0  0  0  0  0  0  0  0  0  0  0
  142.8658   71.6220  220.8916 H   0  0  0  0  0  0  0  0  0  0  0  0
  142.1802   72.8009  220.1292 H   0  0  0  0  0  0  0  0  0  0  0  0
  136.6501   69.3387  222.9912 H   0  0  0  0  0  0  0  0  0  0  0  0
  137.9296   67.8213  224.4796 H   0  0  0  0  0  0  0  0  0  0  0  0
  139.7283   67.4385  226.0427 H   0  0  0  0  0  0  0  0  0  0  0  0
  141.6519   68.4049  227.3038 H   0  0  0  0  0  0  0  0  0  0  0  0
  142.2560   70.7837  227.0783 H   0  0  0  0  0  0  0  0  0  0  0  0
  140.9451   72.2811  225.5753 H   0  0  0  0  0  0  0  0  0  0  0  0
  1  2  2  0
  2  3  1  0
  3  4  1  0
  4  5  1  0
  5  6  2  0
  5  7  1  0
  7  8  1  0
  8  9  1  0
  9 10  1  0
 10 11  1  0
 11 12  1  0
 12 13  1  0
 13 14  1  0
 14 15  1  0
 15 16  1  0
 16 17  1  0
  2 18  1  0
 18 19  2  0
 19 20  1  0
 20 21  2  0
 21 22  1  0
 22 23  2  0
 23 24  1  0
 24 25  2  0
 25 26  1  0
 26 27  2  0
 12  7  1  0
 17 15  1  0
 27 18  1  0
 26 21  1  0
  3 28  1  0
  4 29  1  0
  4 30  1  0
  8 31  1  0
  8 32  1  0
  9 33  1  0
  9 34  1  0
 10 35  1  0
 10 36  1  0
 11 37  1  0
 11 38  1  0
 12 39  1  6
 13 40  1  0
 13 41  1  0
 14 42  1  0
 15 43  1  0
 16 44  1  0
 16 45  1  0
 17 46  1  0
 17 47  1  0
 19 48  1  0
 20 49  1  0
 22 50  1  0
 23 51  1  0
 24 52  1  0
 25 53  1  0
M  END
>  <smiles>  (3) 
O=C(NCC(=O)N1CCCC[C@H]1CNC1CC1)c1ccc2ccccc2n1

>  <score_type>  (3) 
oracle

>  <origin>  (3) 
autodockgpu

>  <m_score__min__energy>  (3) 
-8.3200000000000003

>  <m_primary>  (3) 
energy

>  <rmsd>  (3) 
4.041712314758102

>  <m_score__min__rmsd>  (3) 
4.041712314758102

>  <meeko>  (3) 
{"free_energy": -5.78, "intermolecular_energy": -7.87, "internal_energy": -3.66, "cluster_size": 1, "cluster_id": 5, "rank_in_cluster": 1}

>  <energy>  (3) 
-8.13

>  <cluster_rmsd>  (3) 
1.67

>  <cluster>  (3) 
1

$$$$

     RDKit          3D

 53 56  0  0  0  0  0  0  0  0999 V2000
  139.0500   74.8640  222.3960 O   0  0  0  0  0  0  0  0  0  0  0  0
  140.0170   75.5590  221.9360 C   0  0  0  0  0  0  0  0  0  0  0  0
  140.9070   74.9350  221.0070 N   0  0  0  0  0  0  0  0  0  0  0  0
  140.6200   73.5510  220.6740 C   0  0  0  0  0  0  0  0  0  0  0  0
  141.8070   72.7030  220.8420 C   0  0  0  0  0  0  0  0  0  0  0  0
  141.8500   71.6730  221.5760 O   0  0  0  0  0  0  0  0  0  0  0  0
  142.9930   73.0510  220.1350 N   0  0  0  0  0  0  0  0  0  0  0  0
  143.4650   72.2840  218.9820 C   0  0  0  0  0  0  0  0  0  0  0  0
  144.8600   71.7610  219.2630 C   0  0  0  0  0  0  0  0  0  0  0  0
  145.7740   72.8000  219.8190 C   0  0  0  0  0  0  0  0  0  0  0  0
  145.1790   73.6330  220.9230 C   0  0  0  0  0  0  0  0  0  0  0  0
  143.8110   74.1930  220.5120 C   0  0  1  0  0  0  0  0  0  0  0  0
  144.0790   75.1090  219.3510 C   0  0  0  0  0  0  0  0  0  0  0  0
  142.8990   75.7360  218.8080 N   0  0  0  0  0  0  0  0  0  0  0  0
  142.9340   77.1190  219.2960 C   0  0  0  0  0  0  0  0  0  0  0  0
  142.6280   78.1400  218.2080 C   0  0  0  0  0  0  0  0  0  0  0  0
  141.7330   77.9510  219.3710 C   0  0  0  0  0  0  0  0  0  0  0  0
  140.2120   76.9460  222.3400 C   0  0  0  0  0  0  0  0  0  0  0  0
  139.0960   77.7070  222.6270 C   0  0  0  0  0  0  0  0  0  0  0  0
  139.2180   79.0350  223.0170 C   0  0  0  0  0  0  0  0  0  0  0  0
  140.4660   79.6140  223.1250 C   0  0  0  0  0  0  0  0  0  0  0  0
  140.5740   80.9360  223.5150 C   0  0  0  0  0  0  0  0  0  0  0  0
  141.8540   81.4480  223.6020 C   0  0  0  0  0  0  0  0  0  0  0  0
  142.9690   80.6810  223.3140 C   0  0  0  0  0  0  0  0  0  0  0  0
  142.8290   79.3570  222.9250 C   0  0  0  0  0  0  0  0  0  0  0  0
  141.5600   78.8240  222.8320 C   0  0  0  0  0  0  0  0  0  0  0  0
  141.4240   77.5200  222.4490 N   0  0  0  0  0  0  0  0  0  0  0  0
  141.7190   75.4600  220.5980 H   0  0  0  0  0  0  0  0  0  0  0  0
  139.8205   73.1825  221.3335 H   0  0  0  0  0  0  0  0  0  0  0  0
  140.3081   73.5057  219.6201 H   0  0  0  0  0  0  0  0  0  0  0  0
  142.7855   71.4382  218.8006 H   0  0  0  0  0  0  0  0  0  0  0  0
  143.4872   72.9320  218.0934 H   0  0  0  0  0  0  0  0  0  0  0  0
  144.7853   70.9367  219.9875 H   0  0  0  0  0  0  0  0  0  0  0  0
  145.2851   71.4298  218.3041 H   0  0  0  0  0  0  0  0  0  0  0  0
  146.6677   72.2947  220.2141 H   0  0  0  0  0  0  0  0  0  0  0  0
  145.9985   73.4914  218.9935 H   0  0  0  0  0  0  0  0  0  0  0  0
  145.0572   73.0078  221.8198 H   0  0  0  0  0  0  0  0  0  0  0  0
  145.8551   74.4756  221.1300 H   0  0  0  0  0  0  0  0  0  0  0  0
  143.2866   74.7517  221.3012 H   0  0  0  0  0  0  0  0  0  0  0  0
  144.7662   75.8996  219.6868 H   0  0  0  0  0  0  0  0  0  0  0  0
  144.5039   74.4872  218.5493 H   0  0  0  0  0  0  0  0  0  0  0  0
  142.8750   75.7510  217.7640 H   0  0  0  0  0  0  0  0  0  0  0  0
  143.7144   76.8979  220.0391 H   0  0  0  0  0  0  0  0  0  0  0  0
  143.2348   79.0530  218.1177 H   0  0  0  0  0  0  0  0  0  0  0  0
  142.5141   78.1153  217.1142 H   0  0  0  0  0  0  0  0  0  0  0  0
  141.6638   78.7375  220.1369 H   0  0  0  0  0  0  0  0  0  0  0  0
  140.6601   77.7353  219.4820 H   0  0  0  0  0  0  0  0  0  0  0  0
  138.0963   77.2554  222.5457 H   0  0  0  0  0  0  0  0  0  0  0  0
  138.3177   79.6263  223.2402 H   0  0  0  0  0  0  0  0  0  0  0  0
  139.6884   81.5471  223.7437 H   0  0  0  0  0  0  0  0  0  0  0  0
  141.9908   82.4954  223.9090 H   0  0  0  0  0  0  0  0  0  0  0  0
  143.9727   81.1240  223.3940 H   0  0  0  0  0  0  0  0  0  0  0  0
  143.7128   78.7438  222.6951 H   0  0  0  0  0  0  0  0  0  0  0  0
  1  2  2  0
  2  3  1  0
  3  4  1  0
  4  5  1  0
  5  6  2  0
  5  7  1  0
  7  8  1  0
  8  9  1  0
  9 10  1  0
 10 11  1  0
 11 12  1  0
 12 13  1  0
 13 14  1  0
 14 15  1  0
 15 16  1  0
 16 17  1  0
  2 18  1  0
 18 19  2  0
 19 20  1  0
 20 21  2  0
 21 22  1  0
 22 23  2  0
 23 24  1  0
 24 25  2  0
 25 26  1  0
 26 27  2  0
 12  7  1  0
 17 15  1  0
 27 18  1  0
 26 21  1  0
  3 28  1  0
  4 29  1  0
  4 30  1  0
  8 31  1  0
  8 32  1  0
  9 33  1  0
  9 34  1  0
 10 35  1  0
 10 36  1  0
 11 37  1  0
 11 38  1  0
 12 39  1  1
 13 40  1  0
 13 41  1  0
 14 42  1  0
 15 43  1  0
 16 44  1  0
 16 45  1  0
 17 46  1  0
 17 47  1  0
 19 48  1  0
 20 49  1  0
 22 50  1  0
 23 51  1  0
 24 52  1  0
 25 53  1  0
M  END
>  <smiles>  (4) 
O=C(NCC(=O)N1CCCC[C@H]1CNC1CC1)c1ccc2ccccc2n1

>  <score_type>  (4) 
oracle

>  <origin>  (4) 
autodockgpu

>  <m_score__min__energy>  (4) 
-8.3200000000000003

>  <m_primary>  (4) 
energy

>  <rmsd>  (4) 
7.159004468875026

>  <m_score__min__rmsd>  (4) 
7.159004468875026

>  <meeko>  (4) 
{"free_energy": -6.31, "intermolecular_energy": -8.39, "internal_energy": -2.85, "cluster_size": 13, "cluster_id": 3, "rank_in_cluster": 11}

>  <energy>  (4) 
-8.03

>  <cluster_rmsd>  (4) 
0.96

>  <cluster>  (4) 
1

$$$$

     RDKit          3D

 53 56  0  0  0  0  0  0  0  0999 V2000
  139.1740   74.0660  222.3140 O   0  0  0  0  0  0  0  0  0  0  0  0
  140.1930   74.6900  221.8640 C   0  0  0  0  0  0  0  0  0  0  0  0
  140.1440   76.1190  221.8370 N   0  0  0  0  0  0  0  0  0  0  0  0
  138.9220   76.7290  222.3320 C   0  0  0  0  0  0  0  0  0  0  0  0
  139.0840   78.1760  222.5170 C   0  0  0  0  0  0  0  0  0  0  0  0
  138.1460   78.9650  222.8350 O   0  0  0  0  0  0  0  0  0  0  0  0
  140.3780   78.7420  222.3310 N   0  0  0  0  0  0  0  0  0  0  0  0
  141.5190   78.3650  223.1680 C   0  0  0  0  0  0  0  0  0  0  0  0
  142.0640   79.5970  223.8600 C   0  0  0  0  0  0  0  0  0  0  0  0
  142.2390   80.7580  222.9390 C   0  0  0  0  0  0  0  0  0  0  0  0
  141.0720   81.0140  222.0230 C   0  0  0  0  0  0  0  0  0  0  0  0
  140.6510   79.7280  221.2980 C   0  0  1  0  0  0  0  0  0  0  0  0
  141.8220   79.3430  220.4390 C   0  0  0  0  0  0  0  0  0  0  0  0
  142.0780   77.9250  220.3890 N   0  0  0  0  0  0  0  0  0  0  0  0
  142.1050   77.5840  218.9620 C   0  0  0  0  0  0  0  0  0  0  0  0
  143.2670   76.6720  218.5920 C   0  0  0  0  0  0  0  0  0  0  0  0
  141.8610   76.2250  218.4790 C   0  0  0  0  0  0  0  0  0  0  0  0
  141.3720   73.9740  221.3910 C   0  0  0  0  0  0  0  0  0  0  0  0
  141.2650   72.6180  221.1580 C   0  0  0  0  0  0  0  0  0  0  0  0
  142.3530   71.8820  220.7070 C   0  0  0  0  0  0  0  0  0  0  0  0
  143.5650   72.5030  220.4840 C   0  0  0  0  0  0  0  0  0  0  0  0
  144.6410   71.7600  220.0350 C   0  0  0  0  0  0  0  0  0  0  0  0
  145.8220   72.4480  219.8340 C   0  0  0  0  0  0  0  0  0  0  0  0
  145.9250   73.8070  220.0690 C   0  0  0  0  0  0  0  0  0  0  0  0
  144.8280   74.5270  220.5190 C   0  0  0  0  0  0  0  0  0  0  0  0
  143.6370   73.8600  220.7270 C   0  0  0  0  0  0  0  0  0  0  0  0
  142.5580   74.5700  221.1710 N   0  0  0  0  0  0  0  0  0  0  0  0
  140.9530   76.6830  221.4770 H   0  0  0  0  0  0  0  0  0  0  0  0
  138.1132   76.5488  221.6085 H   0  0  0  0  0  0  0  0  0  0  0  0
  138.6803   76.2798  223.3066 H   0  0  0  0  0  0  0  0  0  0  0  0
  141.1947   77.6334  223.9227 H   0  0  0  0  0  0  0  0  0  0  0  0
  142.3041   77.9189  222.5398 H   0  0  0  0  0  0  0  0  0  0  0  0
  141.3662   79.8867  224.6595 H   0  0  0  0  0  0  0  0  0  0  0  0
  143.0581   79.3386  224.2537 H   0  0  0  0  0  0  0  0  0  0  0  0
  142.3998   81.6588  223.5495 H   0  0  0  0  0  0  0  0  0  0  0  0
  143.0952   80.5160  222.2922 H   0  0  0  0  0  0  0  0  0  0  0  0
  140.2240   81.3870  222.6160 H   0  0  0  0  0  0  0  0  0  0  0  0
  141.3727   81.7585  221.2711 H   0  0  0  0  0  0  0  0  0  0  0  0
  139.7560   79.8280  220.6664 H   0  0  0  0  0  0  0  0  0  0  0  0
  141.6289   79.6949  219.4148 H   0  0  0  0  0  0  0  0  0  0  0  0
  142.7109   79.8088  220.8895 H   0  0  0  0  0  0  0  0  0  0  0  0
  142.9900   77.6480  220.8160 H   0  0  0  0  0  0  0  0  0  0  0  0
  141.6737   78.5510  218.6640 H   0  0  0  0  0  0  0  0  0  0  0  0
  143.8607   76.8694  217.6872 H   0  0  0  0  0  0  0  0  0  0  0  0
  144.1721   76.3047  219.0978 H   0  0  0  0  0  0  0  0  0  0  0  0
  141.4173   76.0734  217.4840 H   0  0  0  0  0  0  0  0  0  0  0  0
  141.2992   75.3643  218.8710 H   0  0  0  0  0  0  0  0  0  0  0  0
  140.3036   72.1125  221.3321 H   0  0  0  0  0  0  0  0  0  0  0  0
  142.2484   70.8019  220.5272 H   0  0  0  0  0  0  0  0  0  0  0  0
  144.5610   70.6790  219.8479 H   0  0  0  0  0  0  0  0  0  0  0  0
  146.7058   71.8991  219.4768 H   0  0  0  0  0  0  0  0  0  0  0  0
  146.8828   74.3202  219.8980 H   0  0  0  0  0  0  0  0  0  0  0  0
  144.9054   75.6081  220.7065 H   0  0  0  0  0  0  0  0  0  0  0  0
  1  2  2  0
  2  3  1  0
  3  4  1  0
  4  5  1  0
  5  6  2  0
  5  7  1  0
  7  8  1  0
  8  9  1  0
  9 10  1  0
 10 11  1  0
 11 12  1  0
 12 13  1  0
 13 14  1  0
 14 15  1  0
 15 16  1  0
 16 17  1  0
  2 18  1  0
 18 19  2  0
 19 20  1  0
 20 21  2  0
 21 22  1  0
 22 23  2  0
 23 24  1  0
 24 25  2  0
 25 26  1  0
 26 27  2  0
 12  7  1  0
 17 15  1  0
 27 18  1  0
 26 21  1  0
  3 28  1  0
  4 29  1  0
  4 30  1  0
  8 31  1  0
  8 32  1  0
  9 33  1  0
  9 34  1  0
 10 35  1  0
 10 36  1  0
 11 37  1  0
 11 38  1  0
 12 39  1  6
 13 40  1  0
 13 41  1  0
 14 42  1  0
 15 43  1  0
 16 44  1  0
 16 45  1  0
 17 46  1  0
 17 47  1  0
 19 48  1  0
 20 49  1  0
 22 50  1  0
 23 51  1  0
 24 52  1  0
 25 53  1  0
M  END
>  <smiles>  (5) 
O=C(NCC(=O)N1CCCC[C@H]1CNC1CC1)c1ccc2ccccc2n1

>  <score_type>  (5) 
oracle

>  <origin>  (5) 
autodockgpu

>  <m_score__min__energy>  (5) 
-8.3200000000000003

>  <m_primary>  (5) 
energy

>  <rmsd>  (5) 
6.068737797786806

>  <m_score__min__rmsd>  (5) 
6.068737797786806

>  <meeko>  (5) 
{"free_energy": -6.42, "intermolecular_energy": -8.51, "internal_energy": -3.06, "cluster_size": 18, "cluster_id": 4, "rank_in_cluster": 3}

>  <energy>  (5) 
-8.0

>  <cluster_rmsd>  (5) 
1.47

>  <cluster>  (5) 
1

$$$$

     RDKit          3D

 53 56  0  0  0  0  0  0  0  0999 V2000
  139.5580   74.3880  222.4940 O   0  0  0  0  0  0  0  0  0  0  0  0
  140.1710   74.7000  221.4180 C   0  0  0  0  0  0  0  0  0  0  0  0
  139.6610   75.7940  220.6520 N   0  0  0  0  0  0  0  0  0  0  0  0
  138.4790   76.4530  221.1800 C   0  0  0  0  0  0  0  0  0  0  0  0
  138.8380   77.5230  222.1190 C   0  0  0  0  0  0  0  0  0  0  0  0
  138.0500   78.0100  222.9810 O   0  0  0  0  0  0  0  0  0  0  0  0
  140.1580   78.0550  222.0660 N   0  0  0  0  0  0  0  0  0  0  0  0
  141.1740   77.7140  223.0640 C   0  0  0  0  0  0  0  0  0  0  0  0
  141.6550   78.9800  223.7440 C   0  0  0  0  0  0  0  0  0  0  0  0
  141.9740   80.0760  222.7820 C   0  0  0  0  0  0  0  0  0  0  0  0
  140.9390   80.2910  221.7100 C   0  0  0  0  0  0  0  0  0  0  0  0
  140.5830   78.9690  221.0180 C   0  0  1  0  0  0  0  0  0  0  0  0
  141.8450   78.5110  220.3420 C   0  0  0  0  0  0  0  0  0  0  0  0
  141.9750   77.0780  220.2400 N   0  0  0  0  0  0  0  0  0  0  0  0
  143.0080   76.8520  219.2230 C   0  0  0  0  0  0  0  0  0  0  0  0
  142.5530   75.9140  218.1130 C   0  0  0  0  0  0  0  0  0  0  0  0
  142.8700   77.3350  217.8490 C   0  0  0  0  0  0  0  0  0  0  0  0
  141.3530   73.9670  220.9810 C   0  0  0  0  0  0  0  0  0  0  0  0
  141.1800   72.7160  220.4260 C   0  0  0  0  0  0  0  0  0  0  0  0
  142.2680   71.9700  219.9910 C   0  0  0  0  0  0  0  0  0  0  0  0
  143.5470   72.4760  220.1080 C   0  0  0  0  0  0  0  0  0  0  0  0
  144.6220   71.7250  219.6700 C   0  0  0  0  0  0  0  0  0  0  0  0
  145.8710   72.2960  219.8190 C   0  0  0  0  0  0  0  0  0  0  0  0
  146.0390   73.5510  220.3760 C   0  0  0  0  0  0  0  0  0  0  0  0
  144.9420   74.2810  220.8060 C   0  0  0  0  0  0  0  0  0  0  0  0
  143.6840   73.7310  220.6670 C   0  0  0  0  0  0  0  0  0  0  0  0
  142.6040   74.4520  221.0910 N   0  0  0  0  0  0  0  0  0  0  0  0
  140.1250   76.0930  219.7590 H   0  0  0  0  0  0  0  0  0  0  0  0
  137.9074   76.8856  220.3457 H   0  0  0  0  0  0  0  0  0  0  0  0
  137.8773   75.7063  221.7189 H   0  0  0  0  0  0  0  0  0  0  0  0
  140.7393   77.0368  223.8140 H   0  0  0  0  0  0  0  0  0  0  0  0
  142.0220   77.2165  222.5705 H   0  0  0  0  0  0  0  0  0  0  0  0
  140.8675   79.3316  224.4268 H   0  0  0  0  0  0  0  0  0  0  0  0
  142.5836   78.7325  224.2792 H   0  0  0  0  0  0  0  0  0  0  0  0
  142.0783   81.0118  223.3506 H   0  0  0  0  0  0  0  0  0  0  0  0
  142.8991   79.7784  222.2665 H   0  0  0  0  0  0  0  0  0  0  0  0
  140.0317   80.7146  222.1655 H   0  0  0  0  0  0  0  0  0  0  0  0
  141.3503   80.9809  220.9584 H   0  0  0  0  0  0  0  0  0  0  0  0
  139.7779   79.0429  220.2721 H   0  0  0  0  0  0  0  0  0  0  0  0
  141.8645   78.9323  219.3260 H   0  0  0  0  0  0  0  0  0  0  0  0
  142.6817   78.8606  220.9647 H   0  0  0  0  0  0  0  0  0  0  0  0
  142.2750   76.6200  221.1290 H   0  0  0  0  0  0  0  0  0  0  0  0
  143.8270   76.9503  219.9507 H   0  0  0  0  0  0  0  0  0  0  0  0
  143.2214   75.1197  217.7492 H   0  0  0  0  0  0  0  0  0  0  0  0
  141.6886   75.2551  217.9435 H   0  0  0  0  0  0  0  0  0  0  0  0
  143.7695   77.5928  217.2707 H   0  0  0  0  0  0  0  0  0  0  0  0
  142.3207   78.1664  217.3831 H   0  0  0  0  0  0  0  0  0  0  0  0
  140.1653   72.3031  220.3264 H   0  0  0  0  0  0  0  0  0  0  0  0
  142.1101   70.9737  219.5523 H   0  0  0  0  0  0  0  0  0  0  0  0
  144.4899   70.7269  219.2269 H   0  0  0  0  0  0  0  0  0  0  0  0
  146.7574   71.7367  219.4851 H   0  0  0  0  0  0  0  0  0  0  0  0
  147.0499   73.9724  220.4784 H   0  0  0  0  0  0  0  0  0  0  0  0
  145.0716   75.2793  221.2494 H   0  0  0  0  0  0  0  0  0  0  0  0
  1  2  2  0
  2  3  1  0
  3  4  1  0
  4  5  1  0
  5  6  2  0
  5  7  1  0
  7  8  1  0
  8  9  1  0
  9 10  1  0
 10 11  1  0
 11 12  1  0
 12 13  1  0
 13 14  1  0
 14 15  1  0
 15 16  1  0
 16 17  1  0
  2 18  1  0
 18 19  2  0
 19 20  1  0
 20 21  2  0
 21 22  1  0
 22 23  2  0
 23 24  1  0
 24 25  2  0
 25 26  1  0
 26 27  2  0
 12  7  1  0
 17 15  1  0
 27 18  1  0
 26 21  1  0
  3 28  1  0
  4 29  1  0
  4 30  1  0
  8 31  1  0
  8 32  1  0
  9 33  1  0
  9 34  1  0
 10 35  1  0
 10 36  1  0
 11 37  1  0
 11 38  1  0
 12 39  1  6
 13 40  1  0
 13 41  1  0
 14 42  1  0
 15 43  1  0
 16 44  1  0
 16 45  1  0
 17 46  1  0
 17 47  1  0
 19 48  1  0
 20 49  1  0
 22 50  1  0
 23 51  1  0
 24 52  1  0
 25 53  1  0
M  END
>  <smiles>  (6) 
O=C(NCC(=O)N1CCCC[C@H]1CNC1CC1)c1ccc2ccccc2n1

>  <score_type>  (6) 
oracle

>  <origin>  (6) 
autodockgpu

>  <m_score__min__energy>  (6) 
-8.3200000000000003

>  <m_primary>  (6) 
energy

>  <rmsd>  (6) 
5.918949456738181

>  <m_score__min__rmsd>  (6) 
5.918949456738181

>  <meeko>  (6) 
{"free_energy": -6.19, "intermolecular_energy": -8.28, "internal_energy": -3.72, "cluster_size": 18, "cluster_id": 4, "rank_in_cluster": 12}

>  <energy>  (6) 
-7.99

>  <cluster_rmsd>  (6) 
0.93

>  <cluster>  (6) 
1

$$$$

     RDKit          3D

 53 56  0  0  0  0  0  0  0  0999 V2000
  139.6730   74.0720  222.3570 O   0  0  0  0  0  0  0  0  0  0  0  0
  140.1410   75.0050  221.6220 C   0  0  0  0  0  0  0  0  0  0  0  0
  140.6590   74.6480  220.3380 N   0  0  0  0  0  0  0  0  0  0  0  0
  140.6000   73.2390  219.9910 C   0  0  0  0  0  0  0  0  0  0  0  0
  141.8330   72.5410  220.3760 C   0  0  0  0  0  0  0  0  0  0  0  0
  141.8700   71.4990  221.0920 O   0  0  0  0  0  0  0  0  0  0  0  0
  143.0760   73.0620  219.9170 N   0  0  0  0  0  0  0  0  0  0  0  0
  143.8070   72.4620  218.7990 C   0  0  0  0  0  0  0  0  0  0  0  0
  145.1830   72.0350  219.2690 C   0  0  0  0  0  0  0  0  0  0  0  0
  145.8830   73.0870  220.0630 C   0  0  0  0  0  0  0  0  0  0  0  0
  145.0340   73.7460  221.1170 C   0  0  0  0  0  0  0  0  0  0  0  0
  143.7010   74.2260  220.5270 C   0  0  1  0  0  0  0  0  0  0  0  0
  144.0590   75.2760  219.5130 C   0  0  0  0  0  0  0  0  0  0  0  0
  142.9320   75.8020  218.7830 N   0  0  0  0  0  0  0  0  0  0  0  0
  142.6870   77.1330  219.3490 C   0  0  0  0  0  0  0  0  0  0  0  0
  142.5540   78.2150  218.2850 C   0  0  0  0  0  0  0  0  0  0  0  0
  141.4210   77.8400  219.1600 C   0  0  0  0  0  0  0  0  0  0  0  0
  140.1500   76.3920  222.0720 C   0  0  0  0  0  0  0  0  0  0  0  0
  138.9410   77.0020  222.3380 C   0  0  0  0  0  0  0  0  0  0  0  0
  138.8850   78.3210  222.7700 C   0  0  0  0  0  0  0  0  0  0  0  0
  140.0480   79.0440  222.9410 C   0  0  0  0  0  0  0  0  0  0  0  0
  139.9800   80.3560  223.3720 C   0  0  0  0  0  0  0  0  0  0  0  0
  141.1830   81.0170  223.5210 C   0  0  0  0  0  0  0  0  0  0  0  0
  142.3930   80.4010  223.2540 C   0  0  0  0  0  0  0  0  0  0  0  0
  142.4300   79.0830  222.8230 C   0  0  0  0  0  0  0  0  0  0  0  0
  141.2400   78.4030  222.6670 C   0  0  0  0  0  0  0  0  0  0  0  0
  141.2780   77.1050  222.2420 N   0  0  0  0  0  0  0  0  0  0  0  0
  141.0570   75.3750  219.6930 H   0  0  0  0  0  0  0  0  0  0  0  0
  139.7491   72.7770  220.5131 H   0  0  0  0  0  0  0  0  0  0  0  0
  140.4806   73.1554  218.9007 H   0  0  0  0  0  0  0  0  0  0  0  0
  143.2566   71.5842  218.4294 H   0  0  0  0  0  0  0  0  0  0  0  0
  143.9077   73.1985  217.9881 H   0  0  0  0  0  0  0  0  0  0  0  0
  145.0760   71.1370  219.8952 H   0  0  0  0  0  0  0  0  0  0  0  0
  145.7906   71.8421  218.3725 H   0  0  0  0  0  0  0  0  0  0  0  0
  146.7479   72.6231  220.5598 H   0  0  0  0  0  0  0  0  0  0  0  0
  146.1661   73.8772  219.3520 H   0  0  0  0  0  0  0  0  0  0  0  0
  144.8322   73.0226  221.9208 H   0  0  0  0  0  0  0  0  0  0  0  0
  145.5774   74.6174  221.5111 H   0  0  0  0  0  0  0  0  0  0  0  0
  143.0012   74.6538  221.2600 H   0  0  0  0  0  0  0  0  0  0  0  0
  144.5493   76.1092  220.0377 H   0  0  0  0  0  0  0  0  0  0  0  0
  144.7153   74.7917  218.7749 H   0  0  0  0  0  0  0  0  0  0  0  0
  143.1070   75.9010  217.7570 H   0  0  0  0  0  0  0  0  0  0  0  0
  143.2736   76.9192  220.2546 H   0  0  0  0  0  0  0  0  0  0  0  0
  143.0572   79.1846  218.4139 H   0  0  0  0  0  0  0  0  0  0  0  0
  142.7243   78.2784  217.2001 H   0  0  0  0  0  0  0  0  0  0  0  0
  141.0721   78.5447  219.9292 H   0  0  0  0  0  0  0  0  0  0  0  0
  140.3863   77.5167  218.9732 H   0  0  0  0  0  0  0  0  0  0  0  0
  138.0076   76.4352  222.2059 H   0  0  0  0  0  0  0  0  0  0  0  0
  137.9117   78.7902  222.9762 H   0  0  0  0  0  0  0  0  0  0  0  0
  139.0189   80.8469  223.5848 H   0  0  0  0  0  0  0  0  0  0  0  0
  141.1795   82.0629  223.8616 H   0  0  0  0  0  0  0  0  0  0  0  0
  143.3314   80.9600  223.3843 H   0  0  0  0  0  0  0  0  0  0  0  0
  143.3897   78.5896  222.6097 H   0  0  0  0  0  0  0  0  0  0  0  0
  1  2  2  0
  2  3  1  0
  3  4  1  0
  4  5  1  0
  5  6  2  0
  5  7  1  0
  7  8  1  0
  8  9  1  0
  9 10  1  0
 10 11  1  0
 11 12  1  0
 12 13  1  0
 13 14  1  0
 14 15  1  0
 15 16  1  0
 16 17  1  0
  2 18  1  0
 18 19  2  0
 19 20  1  0
 20 21  2  0
 21 22  1  0
 22 23  2  0
 23 24  1  0
 24 25  2  0
 25 26  1  0
 26 27  2  0
 12  7  1  0
 17 15  1  0
 27 18  1  0
 26 21  1  0
  3 28  1  0
  4 29  1  0
  4 30  1  0
  8 31  1  0
  8 32  1  0
  9 33  1  0
  9 34  1  0
 10 35  1  0
 10 36  1  0
 11 37  1  0
 11 38  1  0
 12 39  1  1
 13 40  1  0
 13 41  1  0
 14 42  1  0
 15 43  1  0
 16 44  1  0
 16 45  1  0
 17 46  1  0
 17 47  1  0
 19 48  1  0
 20 49  1  0
 22 50  1  0
 23 51  1  0
 24 52  1  0
 25 53  1  0
M  END
>  <smiles>  (7) 
O=C(NCC(=O)N1CCCC[C@H]1CNC1CC1)c1ccc2ccccc2n1

>  <score_type>  (7) 
oracle

>  <origin>  (7) 
autodockgpu

>  <m_score__min__energy>  (7) 
-8.3200000000000003

>  <m_primary>  (7) 
energy

>  <rmsd>  (7) 
6.937218974963435

>  <m_score__min__rmsd>  (7) 
6.937218974963435

>  <meeko>  (7) 
{"free_energy": -6.18, "intermolecular_energy": -8.27, "internal_energy": -3.0, "cluster_size": 13, "cluster_id": 3, "rank_in_cluster": 12}

>  <energy>  (7) 
-7.99

>  <cluster_rmsd>  (7) 
1.28

>  <cluster>  (7) 
1

$$$$

     RDKit          3D

 53 56  0  0  0  0  0  0  0  0999 V2000
  141.4020   72.5290  221.6110 O   0  0  0  0  0  0  0  0  0  0  0  0
  140.4520   72.6450  222.4560 C   0  0  0  0  0  0  0  0  0  0  0  0
  139.5920   73.7810  222.3430 N   0  0  0  0  0  0  0  0  0  0  0  0
  139.8870   74.7060  221.2630 C   0  0  0  0  0  0  0  0  0  0  0  0
  139.5730   76.0890  221.6410 C   0  0  0  0  0  0  0  0  0  0  0  0
  138.8470   76.4130  222.6260 O   0  0  0  0  0  0  0  0  0  0  0  0
  140.1160   77.1450  220.8550 N   0  0  0  0  0  0  0  0  0  0  0  0
  139.3830   77.7400  219.7360 C   0  0  0  0  0  0  0  0  0  0  0  0
  140.1920   77.5820  218.4640 C   0  0  0  0  0  0  0  0  0  0  0  0
  141.6240   77.9660  218.6300 C   0  0  0  0  0  0  0  0  0  0  0  0
  142.2820   77.4160  219.8670 C   0  0  0  0  0  0  0  0  0  0  0  0
  141.4340   77.7030  221.1130 C   0  0  1  0  0  0  0  0  0  0  0  0
  141.4030   79.2000  221.2480 C   0  0  0  0  0  0  0  0  0  0  0  0
  142.5470   79.7570  221.9260 N   0  0  0  0  0  0  0  0  0  0  0  0
  142.0920   80.0380  223.2920 C   0  0  0  0  0  0  0  0  0  0  0  0
  140.5810   79.9230  223.4500 C   0  0  0  0  0  0  0  0  0  0  0  0
  141.5080   79.0060  224.1480 C   0  0  0  0  0  0  0  0  0  0  0  0
  140.2460   71.6530  223.5050 C   0  0  0  0  0  0  0  0  0  0  0  0
  139.6030   70.4770  223.1760 C   0  0  0  0  0  0  0  0  0  0  0  0
  139.3770   69.4940  224.1320 C   0  0  0  0  0  0  0  0  0  0  0  0
  139.7990   69.6830  225.4330 C   0  0  0  0  0  0  0  0  0  0  0  0
  139.5700   68.6980  226.3750 C   0  0  0  0  0  0  0  0  0  0  0  0
  140.0190   68.9550  227.6550 C   0  0  0  0  0  0  0  0  0  0  0  0
  140.6640   70.1350  227.9800 C   0  0  0  0  0  0  0  0  0  0  0  0
  140.8800   71.1060  227.0130 C   0  0  0  0  0  0  0  0  0  0  0  0
  140.4400   70.8700  225.7260 C   0  0  0  0  0  0  0  0  0  0  0  0
  140.6530   71.8270  224.7760 N   0  0  0  0  0  0  0  0  0  0  0  0
  138.7950   73.9270  223.0120 H   0  0  0  0  0  0  0  0  0  0  0  0
  140.9564   74.6369  221.0148 H   0  0  0  0  0  0  0  0  0  0  0  0
  139.2665   74.4349  220.3961 H   0  0  0  0  0  0  0  0  0  0  0  0
  138.4141   77.2321  219.6203 H   0  0  0  0  0  0  0  0  0  0  0  0
  139.2141   78.8088  219.9339 H   0  0  0  0  0  0  0  0  0  0  0  0
  140.1461   76.5293  218.1484 H   0  0  0  0  0  0  0  0  0  0  0  0
  139.7564   78.2566  217.7122 H   0  0  0  0  0  0  0  0  0  0  0  0
  142.1806   77.6009  217.7543 H   0  0  0  0  0  0  0  0  0  0  0  0
  141.6431   79.0614  218.7281 H   0  0  0  0  0  0  0  0  0  0  0  0
  142.4033   76.3283  219.7569 H   0  0  0  0  0  0  0  0  0  0  0  0
  143.2613   77.9019  219.9893 H   0  0  0  0  0  0  0  0  0  0  0  0
  141.8212   77.2632  222.0440 H   0  0  0  0  0  0  0  0  0  0  0  0
  141.3539   79.6362  220.2394 H   0  0  0  0  0  0  0  0  0  0  0  0
  140.5230   79.4434  221.8615 H   0  0  0  0  0  0  0  0  0  0  0  0
  143.3640   79.1080  221.9720 H   0  0  0  0  0  0  0  0  0  0  0  0
  142.8986   80.7638  223.4727 H   0  0  0  0  0  0  0  0  0  0  0  0
  140.0229   80.6838  224.0154 H   0  0  0  0  0  0  0  0  0  0  0  0
  139.7241   79.8095  222.7696 H   0  0  0  0  0  0  0  0  0  0  0  0
  141.6227   79.0767  225.2397 H   0  0  0  0  0  0  0  0  0  0  0  0
  141.6050   77.9115  224.1990 H   0  0  0  0  0  0  0  0  0  0  0  0
  139.2644   70.3154  222.1419 H   0  0  0  0  0  0  0  0  0  0  0  0
  138.8611   68.5638  223.8518 H   0  0  0  0  0  0  0  0  0  0  0  0
  139.0573   67.7592  226.1186 H   0  0  0  0  0  0  0  0  0  0  0  0
  139.8593   68.2000  228.4389 H   0  0  0  0  0  0  0  0  0  0  0  0
  141.0076   70.3043  229.0112 H   0  0  0  0  0  0  0  0  0  0  0  0
  141.3920   72.0459  227.2669 H   0  0  0  0  0  0  0  0  0  0  0  0
  1  2  2  0
  2  3  1  0
  3  4  1  0
  4  5  1  0
  5  6  2  0
  5  7  1  0
  7  8  1  0
  8  9  1  0
  9 10  1  0
 10 11  1  0
 11 12  1  0
 12 13  1  0
 13 14  1  0
 14 15  1  0
 15 16  1  0
 16 17  1  0
  2 18  1  0
 18 19  2  0
 19 20  1  0
 20 21  2  0
 21 22  1  0
 22 23  2  0
 23 24  1  0
 24 25  2  0
 25 26  1  0
 26 27  2  0
 12  7  1  0
 17 15  1  0
 27 18  1  0
 26 21  1  0
  3 28  1  0
  4 29  1  0
  4 30  1  0
  8 31  1  0
  8 32  1  0
  9 33  1  0
  9 34  1  0
 10 35  1  0
 10 36  1  0
 11 37  1  0
 11 38  1  0
 12 39  1  1
 13 40  1  0
 13 41  1  0
 14 42  1  0
 15 43  1  0
 16 44  1  0
 16 45  1  0
 17 46  1  0
 17 47  1  0
 19 48  1  0
 20 49  1  0
 22 50  1  0
 23 51  1  0
 24 52  1  0
 25 53  1  0
M  END
>  <smiles>  (8) 
O=C(NCC(=O)N1CCCC[C@H]1CNC1CC1)c1ccc2ccccc2n1

>  <score_type>  (8) 
oracle

>  <origin>  (8) 
autodockgpu

>  <m_score__min__energy>  (8) 
-8.3200000000000003

>  <m_primary>  (8) 
energy

>  <rmsd>  (8) 
2.0073387013173534

>  <m_score__min__rmsd>  (8) 
2.0073387013173534

>  <meeko>  (8) 
{"free_energy": -8.0, "intermolecular_energy": -10.09, "internal_energy": -1.58, "cluster_size": 13, "cluster_id": 1, "rank_in_cluster": 5}

>  <energy>  (8) 
-7.92

>  <cluster_rmsd>  (8) 
1.3

>  <cluster>  (8) 
1

$$$$

     RDKit          3D

 53 56  0  0  0  0  0  0  0  0999 V2000
  139.2990   74.2070  222.3430 O   0  0  0  0  0  0  0  0  0  0  0  0
  140.2080   74.7290  221.6140 C   0  0  0  0  0  0  0  0  0  0  0  0
  140.0430   76.0900  221.2110 N   0  0  0  0  0  0  0  0  0  0  0  0
  138.8390   76.7570  221.6770 C   0  0  0  0  0  0  0  0  0  0  0  0
  139.1610   77.9120  222.5240 C   0  0  0  0  0  0  0  0  0  0  0  0
  138.3970   78.3740  223.4210 O   0  0  0  0  0  0  0  0  0  0  0  0
  140.4130   78.5630  222.3330 N   0  0  0  0  0  0  0  0  0  0  0  0
  141.3920   78.6980  223.4130 C   0  0  0  0  0  0  0  0  0  0  0  0
  141.6810   80.1670  223.6490 C   0  0  0  0  0  0  0  0  0  0  0  0
  141.9380   80.9230  222.3880 C   0  0  0  0  0  0  0  0  0  0  0  0
  140.9600   80.6430  221.2790 C   0  0  0  0  0  0  0  0  0  0  0  0
  140.8020   79.1340  221.0530 C   0  0  1  0  0  0  0  0  0  0  0  0
  142.1490   78.6480  220.5990 C   0  0  0  0  0  0  0  0  0  0  0  0
  142.2060   77.2330  220.3240 N   0  0  0  0  0  0  0  0  0  0  0  0
  143.0050   77.1060  219.1000 C   0  0  0  0  0  0  0  0  0  0  0  0
  142.3180   76.2720  218.0270 C   0  0  0  0  0  0  0  0  0  0  0  0
  142.5960   77.7130  217.8340 C   0  0  0  0  0  0  0  0  0  0  0  0
  141.3810   73.9650  221.2040 C   0  0  0  0  0  0  0  0  0  0  0  0
  141.2410   72.6060  221.0080 C   0  0  0  0  0  0  0  0  0  0  0  0
  142.3220   71.8250  220.6170 C   0  0  0  0  0  0  0  0  0  0  0  0
  143.5580   72.4040  220.4170 C   0  0  0  0  0  0  0  0  0  0  0  0
  144.6260   71.6170  220.0270 C   0  0  0  0  0  0  0  0  0  0  0  0
  145.8330   72.2640  219.8450 C   0  0  0  0  0  0  0  0  0  0  0  0
  145.9680   73.6270  220.0430 C   0  0  0  0  0  0  0  0  0  0  0  0
  144.8780   74.3910  220.4340 C   0  0  0  0  0  0  0  0  0  0  0  0
  143.6620   73.7660  220.6210 C   0  0  0  0  0  0  0  0  0  0  0  0
  142.5910   74.5190  221.0060 N   0  0  0  0  0  0  0  0  0  0  0  0
  140.7600   76.5690  220.6110 H   0  0  0  0  0  0  0  0  0  0  0  0
  138.2608   77.1013  220.8068 H   0  0  0  0  0  0  0  0  0  0  0  0
  138.2555   76.0411  222.2745 H   0  0  0  0  0  0  0  0  0  0  0  0
  140.9875   78.2510  224.3331 H   0  0  0  0  0  0  0  0  0  0  0  0
  142.3216   78.1807  223.1333 H   0  0  0  0  0  0  0  0  0  0  0  0
  140.8151   80.6170  224.1567 H   0  0  0  0  0  0  0  0  0  0  0  0
  142.5938   80.2278  224.2598 H   0  0  0  0  0  0  0  0  0  0  0  0
  141.8972   81.9979  222.6181 H   0  0  0  0  0  0  0  0  0  0  0  0
  142.9235   80.5965  222.0243 H   0  0  0  0  0  0  0  0  0  0  0  0
  139.9823   81.0711  221.5451 H   0  0  0  0  0  0  0  0  0  0  0  0
  141.3409   81.0980  220.3528 H   0  0  0  0  0  0  0  0  0  0  0  0
  140.0455   78.8575  220.3038 H   0  0  0  0  0  0  0  0  0  0  0  0
  142.4191   79.1890  219.6801 H   0  0  0  0  0  0  0  0  0  0  0  0
  142.8484   78.8373  221.4266 H   0  0  0  0  0  0  0  0  0  0  0  0
  142.6630   76.6760  221.0810 H   0  0  0  0  0  0  0  0  0  0  0  0
  143.9572   77.1404  219.6496 H   0  0  0  0  0  0  0  0  0  0  0  0
  142.8856   75.5171  217.4630 H   0  0  0  0  0  0  0  0  0  0  0  0
  141.4274   75.6281  217.9795 H   0  0  0  0  0  0  0  0  0  0  0  0
  143.3617   78.0264  217.1092 H   0  0  0  0  0  0  0  0  0  0  0  0
  141.9757   78.5818  217.5686 H   0  0  0  0  0  0  0  0  0  0  0  0
  140.2596   72.1342  221.1635 H   0  0  0  0  0  0  0  0  0  0  0  0
  142.1918   70.7431  220.4667 H   0  0  0  0  0  0  0  0  0  0  0  0
  144.5202   70.5334  219.8700 H   0  0  0  0  0  0  0  0  0  0  0  0
  146.7113   71.6794  219.5340 H   0  0  0  0  0  0  0  0  0  0  0  0
  146.9455   74.1075  219.8894 H   0  0  0  0  0  0  0  0  0  0  0  0
  144.9811   75.4747  220.5920 H   0  0  0  0  0  0  0  0  0  0  0  0
  1  2  2  0
  2  3  1  0
  3  4  1  0
  4  5  1  0
  5  6  2  0
  5  7  1  0
  7  8  1  0
  8  9  1  0
  9 10  1  0
 10 11  1  0
 11 12  1  0
 12 13  1  0
 13 14  1  0
 14 15  1  0
 15 16  1  0
 16 17  1  0
  2 18  1  0
 18 19  2  0
 19 20  1  0
 20 21  2  0
 21 22  1  0
 22 23  2  0
 23 24  1  0
 24 25  2  0
 25 26  1  0
 26 27  2  0
 12  7  1  0
 17 15  1  0
 27 18  1  0
 26 21  1  0
  3 28  1  0
  4 29  1  0
  4 30  1  0
  8 31  1  0
  8 32  1  0
  9 33  1  0
  9 34  1  0
 10 35  1  0
 10 36  1  0
 11 37  1  0
 11 38  1  0
 12 39  1  6
 13 40  1  0
 13 41  1  0
 14 42  1  0
 15 43  1  0
 16 44  1  0
 16 45  1  0
 17 46  1  0
 17 47  1  0
 19 48  1  0
 20 49  1  0
 22 50  1  0
 23 51  1  0
 24 52  1  0
 25 53  1  0
M  END
>  <smiles>  (9) 
O=C(NCC(=O)N1CCCC[C@H]1CNC1CC1)c1ccc2ccccc2n1

>  <score_type>  (9) 
oracle

>  <origin>  (9) 
autodockgpu

>  <m_score__min__energy>  (9) 
-8.3200000000000003

>  <m_primary>  (9) 
energy

>  <rmsd>  (9) 
6.002958950948364

>  <m_score__min__rmsd>  (9) 
6.002958950948364

>  <meeko>  (9) 
{"free_energy": -6.16, "intermolecular_energy": -8.25, "internal_energy": -3.53, "cluster_size": 18, "cluster_id": 4, "rank_in_cluster": 15}

>  <energy>  (9) 
-7.87

>  <cluster_rmsd>  (9) 
1.04

>  <cluster>  (9) 
1

$$$$

     RDKit          3D

 53 56  0  0  0  0  0  0  0  0999 V2000
  141.4550   72.0620  221.7790 O   0  0  0  0  0  0  0  0  0  0  0  0
  140.5100   72.2640  222.6130 C   0  0  0  0  0  0  0  0  0  0  0  0
  139.6640   73.3970  222.4030 N   0  0  0  0  0  0  0  0  0  0  0  0
  139.9670   74.2190  221.2440 C   0  0  0  0  0  0  0  0  0  0  0  0
  139.9680   75.6470  221.5870 C   0  0  0  0  0  0  0  0  0  0  0  0
  139.5910   76.1140  222.7000 O   0  0  0  0  0  0  0  0  0  0  0  0
  140.4240   76.5760  220.6090 N   0  0  0  0  0  0  0  0  0  0  0  0
  139.7270   76.7710  219.3360 C   0  0  0  0  0  0  0  0  0  0  0  0
  140.6750   76.4720  218.1930 C   0  0  0  0  0  0  0  0  0  0  0  0
  142.0100   77.1210  218.3530 C   0  0  0  0  0  0  0  0  0  0  0  0
  142.6140   76.9820  219.7250 C   0  0  0  0  0  0  0  0  0  0  0  0
  141.6100   77.3930  220.8110 C   0  0  1  0  0  0  0  0  0  0  0  0
  141.3410   78.8540  220.5830 C   0  0  0  0  0  0  0  0  0  0  0  0
  142.1880   79.7380  221.3450 N   0  0  0  0  0  0  0  0  0  0  0  0
  141.4610   79.9950  222.5930 C   0  0  0  0  0  0  0  0  0  0  0  0
  141.8300   79.0240  223.7060 C   0  0  0  0  0  0  0  0  0  0  0  0
  142.1310   80.4690  223.8030 C   0  0  0  0  0  0  0  0  0  0  0  0
  140.2950   71.3700  223.7450 C   0  0  0  0  0  0  0  0  0  0  0  0
  139.6070   70.1940  223.5290 C   0  0  0  0  0  0  0  0  0  0  0  0
  139.3710   69.3020  224.5680 C   0  0  0  0  0  0  0  0  0  0  0  0
  139.8270   69.5840  225.8400 C   0  0  0  0  0  0  0  0  0  0  0  0
  139.5870   68.6890  226.8660 C   0  0  0  0  0  0  0  0  0  0  0  0
  140.0720   69.0380  228.1110 C   0  0  0  0  0  0  0  0  0  0  0  0
  140.7620   70.2180  228.3230 C   0  0  0  0  0  0  0  0  0  0  0  0
  140.9880   71.0970  227.2740 C   0  0  0  0  0  0  0  0  0  0  0  0
  140.5120   70.7690  226.0210 C   0  0  0  0  0  0  0  0  0  0  0  0
  140.7350   71.6360  224.9890 N   0  0  0  0  0  0  0  0  0  0  0  0
  138.8720   73.6110  223.0580 H   0  0  0  0  0  0  0  0  0  0  0  0
  140.9594   73.9426  220.8585 H   0  0  0  0  0  0  0  0  0  0  0  0
  139.1914   74.0456  220.4835 H   0  0  0  0  0  0  0  0  0  0  0  0
  138.8627   76.0927  219.2831 H   0  0  0  0  0  0  0  0  0  0  0  0
  139.3796   77.8121  219.2628 H   0  0  0  0  0  0  0  0  0  0  0  0
  140.8200   75.3832  218.1344 H   0  0  0  0  0  0  0  0  0  0  0  0
  140.2214   76.8775  217.2766 H   0  0  0  0  0  0  0  0  0  0  0  0
  142.7009   76.6683  217.6265 H   0  0  0  0  0  0  0  0  0  0  0  0
  141.8551   78.1975  218.1882 H   0  0  0  0  0  0  0  0  0  0  0  0
  142.9078   75.9340  219.8845 H   0  0  0  0  0  0  0  0  0  0  0  0
  143.4916   77.6419  219.7906 H   0  0  0  0  0  0  0  0  0  0  0  0
  141.9619   77.2456  221.8427 H   0  0  0  0  0  0  0  0  0  0  0  0
  141.4903   79.0694  219.5147 H   0  0  0  0  0  0  0  0  0  0  0  0
  140.3093   79.0407  220.9159 H   0  0  0  0  0  0  0  0  0  0  0  0
  143.1200   79.3270  221.5800 H   0  0  0  0  0  0  0  0  0  0  0  0
  140.5680   80.3599  222.0645 H   0  0  0  0  0  0  0  0  0  0  0  0
  141.0459   78.5773  224.3350 H   0  0  0  0  0  0  0  0  0  0  0  0
  142.4097   78.0920  223.7782 H   0  0  0  0  0  0  0  0  0  0  0  0
  141.5783   81.0922  224.5215 H   0  0  0  0  0  0  0  0  0  0  0  0
  143.0475   81.0473  223.9919 H   0  0  0  0  0  0  0  0  0  0  0  0
  139.2397   69.9589  222.5192 H   0  0  0  0  0  0  0  0  0  0  0  0
  138.8198   68.3695  224.3765 H   0  0  0  0  0  0  0  0  0  0  0  0
  139.0393   67.7497  226.6996 H   0  0  0  0  0  0  0  0  0  0  0  0
  139.9047   68.3577  228.9590 H   0  0  0  0  0  0  0  0  0  0  0  0
  141.1337   70.4608  229.3294 H   0  0  0  0  0  0  0  0  0  0  0  0
  141.5358   72.0368  227.4377 H   0  0  0  0  0  0  0  0  0  0  0  0
  1  2  2  0
  2  3  1  0
  3  4  1  0
  4  5  1  0
  5  6  2  0
  5  7  1  0
  7  8  1  0
  8  9  1  0
  9 10  1  0
 10 11  1  0
 11 12  1  0
 12 13  1  0
 13 14  1  0
 14 15  1  0
 15 16  1  0
 16 17  1  0
  2 18  1  0
 18 19  2  0
 19 20  1  0
 20 21  2  0
 21 22  1  0
 22 23  2  0
 23 24  1  0
 24 25  2  0
 25 26  1  0
 26 27  2  0
 12  7  1  0
 17 15  1  0
 27 18  1  0
 26 21  1  0
  3 28  1  0
  4 29  1  0
  4 30  1  0
  8 31  1  0
  8 32  1  0
  9 33  1  0
  9 34  1  0
 10 35  1  0
 10 36  1  0
 11 37  1  0
 11 38  1  0
 12 39  1  1
 13 40  1  0
 13 41  1  0
 14 42  1  0
 15 43  1  0
 16 44  1  0
 16 45  1  0
 17 46  1  0
 17 47  1  0
 19 48  1  0
 20 49  1  0
 22 50  1  0
 23 51  1  0
 24 52  1  0
 25 53  1  0
M  END
>  <smiles>  (10) 
O=C(NCC(=O)N1CCCC[C@H]1CNC1CC1)c1ccc2ccccc2n1

>  <score_type>  (10) 
oracle

>  <origin>  (10) 
autodockgpu

>  <m_score__min__energy>  (10) 
-8.3200000000000003

>  <m_primary>  (10) 
energy

>  <rmsd>  (10) 
1.7344950580511422

>  <m_score__min__rmsd>  (10) 
1.7344950580511422

>  <meeko>  (10) 
{"free_energy": -8.23, "intermolecular_energy": -10.32, "internal_energy": -1.44, "cluster_size": 13, "cluster_id": 1, "rank_in_cluster": 2}

>  <energy>  (10) 
-7.8

>  <cluster_rmsd>  (10) 
1.06

>  <cluster>  (10) 
1

$$$$

     RDKit          3D

 53 56  0  0  0  0  0  0  0  0999 V2000
  139.5180   74.3310  222.3470 O   0  0  0  0  0  0  0  0  0  0  0  0
  140.1870   74.6690  221.3140 C   0  0  0  0  0  0  0  0  0  0  0  0
  139.7130   75.7760  220.5440 N   0  0  0  0  0  0  0  0  0  0  0  0
  138.4990   76.4170  221.0190 C   0  0  0  0  0  0  0  0  0  0  0  0
  138.8010   77.5230  221.9360 C   0  0  0  0  0  0  0  0  0  0  0  0
  137.9580   78.0550  222.7150 O   0  0  0  0  0  0  0  0  0  0  0  0
  140.1280   78.0380  221.9600 N   0  0  0  0  0  0  0  0  0  0  0  0
  141.1130   77.6050  222.9520 C   0  0  0  0  0  0  0  0  0  0  0  0
  141.5920   78.8050  223.7430 C   0  0  0  0  0  0  0  0  0  0  0  0
  141.9490   79.9700  222.8810 C   0  0  0  0  0  0  0  0  0  0  0  0
  140.9460   80.2850  221.8040 C   0  0  0  0  0  0  0  0  0  0  0  0
  140.5930   79.0270  220.9990 C   0  0  1  0  0  0  0  0  0  0  0  0
  141.8660   78.6070  220.3210 C   0  0  0  0  0  0  0  0  0  0  0  0
  142.0050   77.1810  220.1550 N   0  0  0  0  0  0  0  0  0  0  0  0
  142.9490   77.0080  219.0450 C   0  0  0  0  0  0  0  0  0  0  0  0
  142.4650   76.0070  218.0050 C   0  0  0  0  0  0  0  0  0  0  0  0
  142.6390   77.4400  217.6820 C   0  0  0  0  0  0  0  0  0  0  0  0
  141.3980   73.9540  220.9280 C   0  0  0  0  0  0  0  0  0  0  0  0
  141.2920   72.6170  220.6010 C   0  0  0  0  0  0  0  0  0  0  0  0
  142.4090   71.8820  220.2250 C   0  0  0  0  0  0  0  0  0  0  0  0
  143.6490   72.4850  220.1720 C   0  0  0  0  0  0  0  0  0  0  0  0
  144.7540   71.7440  219.7960 C   0  0  0  0  0  0  0  0  0  0  0  0
  145.9620   72.4140  219.7660 C   0  0  0  0  0  0  0  0  0  0  0  0
  146.0630   73.7540  220.0950 C   0  0  0  0  0  0  0  0  0  0  0  0
  144.9370   74.4720  220.4680 C   0  0  0  0  0  0  0  0  0  0  0  0
  143.7190   73.8230  220.5050 C   0  0  0  0  0  0  0  0  0  0  0  0
  142.6110   74.5320  220.8740 N   0  0  0  0  0  0  0  0  0  0  0  0
  140.2240   76.0970  219.6840 H   0  0  0  0  0  0  0  0  0  0  0  0
  137.9405   76.8095  220.1565 H   0  0  0  0  0  0  0  0  0  0  0  0
  137.9026   75.6695  221.5626 H   0  0  0  0  0  0  0  0  0  0  0  0
  140.6508   76.8765  223.6343 H   0  0  0  0  0  0  0  0  0  0  0  0
  141.9674   77.1370  222.4412 H   0  0  0  0  0  0  0  0  0  0  0  0
  140.7917   79.1119  224.4325 H   0  0  0  0  0  0  0  0  0  0  0  0
  142.5036   78.5019  224.2788 H   0  0  0  0  0  0  0  0  0  0  0  0
  142.0492   80.8556  223.5258 H   0  0  0  0  0  0  0  0  0  0  0  0
  142.8837   79.7017  222.3668 H   0  0  0  0  0  0  0  0  0  0  0  0
  140.0320   80.6835  222.2686 H   0  0  0  0  0  0  0  0  0  0  0  0
  141.3852   81.0273  221.1212 H   0  0  0  0  0  0  0  0  0  0  0  0
  139.8094   79.1712  220.2406 H   0  0  0  0  0  0  0  0  0  0  0  0
  141.8974   79.0748  219.3259 H   0  0  0  0  0  0  0  0  0  0  0  0
  142.6921   78.9315  220.9708 H   0  0  0  0  0  0  0  0  0  0  0  0
  142.3880   76.6960  220.9970 H   0  0  0  0  0  0  0  0  0  0  0  0
  143.8245   77.1903  219.6855 H   0  0  0  0  0  0  0  0  0  0  0  0
  143.1566   75.2576  217.5926 H   0  0  0  0  0  0  0  0  0  0  0  0
  141.6441   75.2781  217.9357 H   0  0  0  0  0  0  0  0  0  0  0  0
  143.4540   77.7510  217.0119 H   0  0  0  0  0  0  0  0  0  0  0  0
  141.9816   78.2124  217.2564 H   0  0  0  0  0  0  0  0  0  0  0  0
  140.3082   72.1264  220.6388 H   0  0  0  0  0  0  0  0  0  0  0  0
  142.3049   70.8173  219.9690 H   0  0  0  0  0  0  0  0  0  0  0  0
  144.6757   70.6783  219.5348 H   0  0  0  0  0  0  0  0  0  0  0  0
  146.8695   71.8662  219.4721 H   0  0  0  0  0  0  0  0  0  0  0  0
  147.0427   74.2529  220.0605 H   0  0  0  0  0  0  0  0  0  0  0  0
  145.0127   75.5378  220.7293 H   0  0  0  0  0  0  0  0  0  0  0  0
  1  2  2  0
  2  3  1  0
  3  4  1  0
  4  5  1  0
  5  6  2  0
  5  7  1  0
  7  8  1  0
  8  9  1  0
  9 10  1  0
 10 11  1  0
 11 12  1  0
 12 13  1  0
 13 14  1  0
 14 15  1  0
 15 16  1  0
 16 17  1  0
  2 18  1  0
 18 19  2  0
 19 20  1  0
 20 21  2  0
 21 22  1  0
 22 23  2  0
 23 24  1  0
 24 25  2  0
 25 26  1  0
 26 27  2  0
 12  7  1  0
 17 15  1  0
 27 18  1  0
 26 21  1  0
  3 28  1  0
  4 29  1  0
  4 30  1  0
  8 31  1  0
  8 32  1  0
  9 33  1  0
  9 34  1  0
 10 35  1  0
 10 36  1  0
 11 37  1  0
 11 38  1  0
 12 39  1  6
 13 40  1  0
 13 41  1  0
 14 42  1  0
 15 43  1  0
 16 44  1  0
 16 45  1  0
 17 46  1  0
 17 47  1  0
 19 48  1  0
 20 49  1  0
 22 50  1  0
 23 51  1  0
 24 52  1  0
 25 53  1  0
M  END
>  <smiles>  (11) 
O=C(NCC(=O)N1CCCC[C@H]1CNC1CC1)c1ccc2ccccc2n1

>  <score_type>  (11) 
oracle

>  <origin>  (11) 
autodockgpu

>  <m_score__min__energy>  (11) 
-8.3200000000000003

>  <m_primary>  (11) 
energy

>  <rmsd>  (11) 
5.956129122204175

>  <m_score__min__rmsd>  (11) 
5.956129122204175

>  <meeko>  (11) 
{"free_energy": -6.24, "intermolecular_energy": -8.33, "internal_energy": -3.73, "cluster_size": 18, "cluster_id": 4, "rank_in_cluster": 9}

>  <energy>  (11) 
-7.79

>  <cluster_rmsd>  (11) 
1.59

>  <cluster>  (11) 
1

$$$$

     RDKit          3D

 53 56  0  0  0  0  0  0  0  0999 V2000
  138.5470   74.8150  221.7170 O   0  0  0  0  0  0  0  0  0  0  0  0
  139.7480   75.2300  221.8410 C   0  0  0  0  0  0  0  0  0  0  0  0
  139.9500   76.5530  222.3450 N   0  0  0  0  0  0  0  0  0  0  0  0
  138.7510   77.3060  222.6700 C   0  0  0  0  0  0  0  0  0  0  0  0
  139.0770   78.6750  223.0880 C   0  0  0  0  0  0  0  0  0  0  0  0
  138.3450   79.3860  223.8380 O   0  0  0  0  0  0  0  0  0  0  0  0
  140.2950   79.2510  222.6280 N   0  0  0  0  0  0  0  0  0  0  0  0
  141.3910   79.5850  223.5400 C   0  0  0  0  0  0  0  0  0  0  0  0
  141.6970   81.0650  223.4380 C   0  0  0  0  0  0  0  0  0  0  0  0
  141.8030   81.5460  222.0290 C   0  0  0  0  0  0  0  0  0  0  0  0
  140.7050   81.0660  221.1190 C   0  0  0  0  0  0  0  0  0  0  0  0
  140.5310   79.5450  221.2230 C   0  0  1  0  0  0  0  0  0  0  0  0
  141.8200   78.9530  220.7270 C   0  0  0  0  0  0  0  0  0  0  0  0
  141.7870   77.5200  220.5600 N   0  0  0  0  0  0  0  0  0  0  0  0
  141.7740   77.2970  219.1100 C   0  0  0  0  0  0  0  0  0  0  0  0
  142.5240   78.3740  218.3370 C   0  0  0  0  0  0  0  0  0  0  0  0
  142.9860   76.9690  218.3600 C   0  0  0  0  0  0  0  0  0  0  0  0
  140.8820   74.3850  221.4840 C   0  0  0  0  0  0  0  0  0  0  0  0
  140.7090   73.0160  221.5000 C   0  0  0  0  0  0  0  0  0  0  0  0
  141.7520   72.1600  221.1700 C   0  0  0  0  0  0  0  0  0  0  0  0
  142.9840   72.6730  220.8160 C   0  0  0  0  0  0  0  0  0  0  0  0
  144.0140   71.8110  220.4880 C   0  0  0  0  0  0  0  0  0  0  0  0
  145.2170   72.3950  220.1440 C   0  0  0  0  0  0  0  0  0  0  0  0
  145.3850   73.7680  220.1290 C   0  0  0  0  0  0  0  0  0  0  0  0
  144.3330   74.6080  220.4620 C   0  0  0  0  0  0  0  0  0  0  0  0
  143.1210   74.0470  220.8090 C   0  0  0  0  0  0  0  0  0  0  0  0
  142.0860   74.8750  221.1380 N   0  0  0  0  0  0  0  0  0  0  0  0
  140.9160   76.9450  222.4660 H   0  0  0  0  0  0  0  0  0  0  0  0
  138.1024   77.3473  221.7825 H   0  0  0  0  0  0  0  0  0  0  0  0
  138.2397   76.8014  223.5030 H   0  0  0  0  0  0  0  0  0  0  0  0
  141.0972   79.3412  224.5716 H   0  0  0  0  0  0  0  0  0  0  0  0
  142.2853   79.0053  223.2676 H   0  0  0  0  0  0  0  0  0  0  0  0
  140.8929   81.6239  223.9390 H   0  0  0  0  0  0  0  0  0  0  0  0
  142.6740   81.2313  223.9154 H   0  0  0  0  0  0  0  0  0  0  0  0
  141.7837   82.6458  222.0395 H   0  0  0  0  0  0  0  0  0  0  0  0
  142.7415   81.1348  221.6290 H   0  0  0  0  0  0  0  0  0  0  0  0
  139.7622   81.5563  221.4030 H   0  0  0  0  0  0  0  0  0  0  0  0
  140.9732   81.3183  220.0824 H   0  0  0  0  0  0  0  0  0  0  0  0
  139.6951   79.1367  220.6361 H   0  0  0  0  0  0  0  0  0  0  0  0
  142.0570   79.4084  219.7541 H   0  0  0  0  0  0  0  0  0  0  0  0
  142.5805   79.1646  221.4930 H   0  0  0  0  0  0  0  0  0  0  0  0
  142.6160   77.0320  220.9660 H   0  0  0  0  0  0  0  0  0  0  0  0
  140.7815   76.8233  219.1339 H   0  0  0  0  0  0  0  0  0  0  0  0
  142.0921   78.8010  217.4198 H   0  0  0  0  0  0  0  0  0  0  0  0
  142.9657   79.3525  218.5766 H   0  0  0  0  0  0  0  0  0  0  0  0
  142.9121   76.3578  217.4484 H   0  0  0  0  0  0  0  0  0  0  0  0
  143.9372   76.4821  218.6209 H   0  0  0  0  0  0  0  0  0  0  0  0
  139.7309   72.5965  221.7781 H   0  0  0  0  0  0  0  0  0  0  0  0
  141.5961   71.0713  221.1907 H   0  0  0  0  0  0  0  0  0  0  0  0
  143.8823   70.7190  220.5004 H   0  0  0  0  0  0  0  0  0  0  0  0
  146.0661   71.7499  219.8741 H   0  0  0  0  0  0  0  0  0  0  0  0
  146.3593   74.1963  219.8511 H   0  0  0  0  0  0  0  0  0  0  0  0
  144.4622   75.7003  220.4498 H   0  0  0  0  0  0  0  0  0  0  0  0
  1  2  2  0
  2  3  1  0
  3  4  1  0
  4  5  1  0
  5  6  2  0
  5  7  1  0
  7  8  1  0
  8  9  1  0
  9 10  1  0
 10 11  1  0
 11 12  1  0
 12 13  1  0
 13 14  1  0
 14 15  1  0
 15 16  1  0
 16 17  1  0
  2 18  1  0
 18 19  2  0
 19 20  1  0
 20 21  2  0
 21 22  1  0
 22 23  2  0
 23 24  1  0
 24 25  2  0
 25 26  1  0
 26 27  2  0
 12  7  1  0
 17 15  1  0
 27 18  1  0
 26 21  1  0
  3 28  1  0
  4 29  1  0
  4 30  1  0
  8 31  1  0
  8 32  1  0
  9 33  1  0
  9 34  1  0
 10 35  1  0
 10 36  1  0
 11 37  1  0
 11 38  1  0
 12 39  1  6
 13 40  1  0
 13 41  1  0
 14 42  1  0
 15 43  1  0
 16 44  1  0
 16 45  1  0
 17 46  1  0
 17 47  1  0
 19 48  1  0
 20 49  1  0
 22 50  1  0
 23 51  1  0
 24 52  1  0
 25 53  1  0
M  END
>  <smiles>  (12) 
O=C(NCC(=O)N1CCCC[C@H]1CNC1CC1)c1ccc2ccccc2n1

>  <score_type>  (12) 
oracle

>  <origin>  (12) 
autodockgpu

>  <m_score__min__energy>  (12) 
-8.3200000000000003

>  <m_primary>  (12) 
energy

>  <rmsd>  (12) 
6.0161068111924045

>  <m_score__min__rmsd>  (12) 
6.0161068111924045

>  <meeko>  (12) 
{"free_energy": -6.22, "intermolecular_energy": -8.31, "internal_energy": -3.41, "cluster_size": 18, "cluster_id": 4, "rank_in_cluster": 10}

>  <energy>  (12) 
-7.7

>  <cluster_rmsd>  (12) 
1.26

>  <cluster>  (12) 
1

$$$$

     RDKit          3D

 53 56  0  0  0  0  0  0  0  0999 V2000
  139.5870   74.4880  222.3690 O   0  0  0  0  0  0  0  0  0  0  0  0
  140.2500   74.7660  221.3130 C   0  0  0  0  0  0  0  0  0  0  0  0
  139.7830   75.8420  220.4960 N   0  0  0  0  0  0  0  0  0  0  0  0
  138.5830   76.5220  220.9520 C   0  0  0  0  0  0  0  0  0  0  0  0
  138.8820   77.4630  222.0390 C   0  0  0  0  0  0  0  0  0  0  0  0
  138.0830   77.7470  222.9780 O   0  0  0  0  0  0  0  0  0  0  0  0
  140.1530   78.1040  222.0480 N   0  0  0  0  0  0  0  0  0  0  0  0
  141.1420   77.8570  223.0980 C   0  0  0  0  0  0  0  0  0  0  0  0
  141.4800   79.1630  223.7880 C   0  0  0  0  0  0  0  0  0  0  0  0
  141.7540   80.2770  222.8330 C   0  0  0  0  0  0  0  0  0  0  0  0
  140.7620   80.3960  221.7080 C   0  0  0  0  0  0  0  0  0  0  0  0
  140.5540   79.0450  221.0130 C   0  0  1  0  0  0  0  0  0  0  0  0
  141.8820   78.6910  220.4060 C   0  0  0  0  0  0  0  0  0  0  0  0
  142.0390   77.2900  220.1010 N   0  0  0  0  0  0  0  0  0  0  0  0
  142.9060   77.2430  218.9180 C   0  0  0  0  0  0  0  0  0  0  0  0
  142.7830   75.9370  218.1440 C   0  0  0  0  0  0  0  0  0  0  0  0
  142.3690   77.2310  217.5580 C   0  0  0  0  0  0  0  0  0  0  0  0
  141.4450   74.0160  220.9490 C   0  0  0  0  0  0  0  0  0  0  0  0
  141.3100   72.6760  220.6440 C   0  0  0  0  0  0  0  0  0  0  0  0
  142.4120   71.9090  220.2900 C   0  0  0  0  0  0  0  0  0  0  0  0
  143.6670   72.4810  220.2370 C   0  0  0  0  0  0  0  0  0  0  0  0
  144.7560   71.7070  219.8830 C   0  0  0  0  0  0  0  0  0  0  0  0
  145.9800   72.3470  219.8510 C   0  0  0  0  0  0  0  0  0  0  0  0
  146.1110   73.6900  220.1570 C   0  0  0  0  0  0  0  0  0  0  0  0
  144.9990   74.4410  220.5090 C   0  0  0  0  0  0  0  0  0  0  0  0
  143.7660   73.8230  220.5480 C   0  0  0  0  0  0  0  0  0  0  0  0
  142.6730   74.5640  220.8950 N   0  0  0  0  0  0  0  0  0  0  0  0
  140.2880   76.1140  219.6160 H   0  0  0  0  0  0  0  0  0  0  0  0
  138.1433   77.0760  220.1095 H   0  0  0  0  0  0  0  0  0  0  0  0
  137.8793   75.7664  221.3313 H   0  0  0  0  0  0  0  0  0  0  0  0
  140.7288   77.1501  223.8325 H   0  0  0  0  0  0  0  0  0  0  0  0
  142.0527   77.4305  222.6522 H   0  0  0  0  0  0  0  0  0  0  0  0
  140.6323   79.4506  224.4272 H   0  0  0  0  0  0  0  0  0  0  0  0
  142.3983   78.9976  224.3706 H   0  0  0  0  0  0  0  0  0  0  0  0
  141.7482   81.2215  223.3968 H   0  0  0  0  0  0  0  0  0  0  0  0
  142.7268   80.0575  222.3688 H   0  0  0  0  0  0  0  0  0  0  0  0
  139.8001   80.7445  222.1121 H   0  0  0  0  0  0  0  0  0  0  0  0
  141.1528   81.1127  220.9707 H   0  0  0  0  0  0  0  0  0  0  0  0
  139.7848   79.0463  220.2267 H   0  0  0  0  0  0  0  0  0  0  0  0
  141.9979   79.2621  219.4730 H   0  0  0  0  0  0  0  0  0  0  0  0
  142.6479   78.9386  221.1558 H   0  0  0  0  0  0  0  0  0  0  0  0
  142.4910   76.7420  220.8680 H   0  0  0  0  0  0  0  0  0  0  0  0
  143.6811   77.8650  219.3896 H   0  0  0  0  0  0  0  0  0  0  0  0
  143.6833   75.4237  217.7753 H   0  0  0  0  0  0  0  0  0  0  0  0
  142.3053   74.9612  218.3160 H   0  0  0  0  0  0  0  0  0  0  0  0
  142.9568   77.6689  216.7378 H   0  0  0  0  0  0  0  0  0  0  0  0
  141.4388   77.5996  217.1009 H   0  0  0  0  0  0  0  0  0  0  0  0
  140.3147   72.2093  220.6820 H   0  0  0  0  0  0  0  0  0  0  0  0
  142.2845   70.8428  220.0512 H   0  0  0  0  0  0  0  0  0  0  0  0
  144.6537   70.6391  219.6399 H   0  0  0  0  0  0  0  0  0  0  0  0
  146.8762   71.7723  219.5743 H   0  0  0  0  0  0  0  0  0  0  0  0
  147.1025   74.1649  220.1209 H   0  0  0  0  0  0  0  0  0  0  0  0
  145.0984   75.5091  220.7524 H   0  0  0  0  0  0  0  0  0  0  0  0
  1  2  2  0
  2  3  1  0
  3  4  1  0
  4  5  1  0
  5  6  2  0
  5  7  1  0
  7  8  1  0
  8  9  1  0
  9 10  1  0
 10 11  1  0
 11 12  1  0
 12 13  1  0
 13 14  1  0
 14 15  1  0
 15 16  1  0
 16 17  1  0
  2 18  1  0
 18 19  2  0
 19 20  1  0
 20 21  2  0
 21 22  1  0
 22 23  2  0
 23 24  1  0
 24 25  2  0
 25 26  1  0
 26 27  2  0
 12  7  1  0
 17 15  1  0
 27 18  1  0
 26 21  1  0
  3 28  1  0
  4 29  1  0
  4 30  1  0
  8 31  1  0
  8 32  1  0
  9 33  1  0
  9 34  1  0
 10 35  1  0
 10 36  1  0
 11 37  1  0
 11 38  1  0
 12 39  1  6
 13 40  1  0
 13 41  1  0
 14 42  1  0
 15 43  1  0
 16 44  1  0
 16 45  1  0
 17 46  1  0
 17 47  1  0
 19 48  1  0
 20 49  1  0
 22 50  1  0
 23 51  1  0
 24 52  1  0
 25 53  1  0
M  END
>  <smiles>  (13) 
O=C(NCC(=O)N1CCCC[C@H]1CNC1CC1)c1ccc2ccccc2n1

>  <score_type>  (13) 
oracle

>  <origin>  (13) 
autodockgpu

>  <m_score__min__energy>  (13) 
-8.3200000000000003

>  <m_primary>  (13) 
energy

>  <rmsd>  (13) 
6.000942651927821

>  <m_score__min__rmsd>  (13) 
6.000942651927821

>  <meeko>  (13) 
{"free_energy": -6.24, "intermolecular_energy": -8.33, "internal_energy": -3.7, "cluster_size": 18, "cluster_id": 4, "rank_in_cluster": 8}

>  <energy>  (13) 
-7.5

>  <cluster_rmsd>  (13) 
0.77

>  <cluster>  (13) 
1

$$$$

     RDKit          3D

 53 56  0  0  0  0  0  0  0  0999 V2000
  139.5370   74.2620  222.5470 O   0  0  0  0  0  0  0  0  0  0  0  0
  140.2150   74.6640  221.5430 C   0  0  0  0  0  0  0  0  0  0  0  0
  139.7660   75.8370  220.8600 N   0  0  0  0  0  0  0  0  0  0  0  0
  138.5650   76.4650  221.3820 C   0  0  0  0  0  0  0  0  0  0  0  0
  138.8870   77.6550  222.1800 C   0  0  0  0  0  0  0  0  0  0  0  0
  138.0620   78.2600  222.9250 O   0  0  0  0  0  0  0  0  0  0  0  0
  140.2130   78.1710  222.1200 N   0  0  0  0  0  0  0  0  0  0  0  0
  141.2350   77.8030  223.1010 C   0  0  0  0  0  0  0  0  0  0  0  0
  141.7410   79.0520  223.7940 C   0  0  0  0  0  0  0  0  0  0  0  0
  142.0620   80.1580  222.8460 C   0  0  0  0  0  0  0  0  0  0  0  0
  141.0190   80.4020  221.7890 C   0  0  0  0  0  0  0  0  0  0  0  0
  140.6380   79.0950  221.0810 C   0  0  1  0  0  0  0  0  0  0  0  0
  141.8860   78.6320  220.3840 C   0  0  0  0  0  0  0  0  0  0  0  0
  141.9750   77.2020  220.2180 N   0  0  0  0  0  0  0  0  0  0  0  0
  142.9300   76.9950  219.1240 C   0  0  0  0  0  0  0  0  0  0  0  0
  142.4520   75.9690  218.1050 C   0  0  0  0  0  0  0  0  0  0  0  0
  142.6380   77.3930  217.7470 C   0  0  0  0  0  0  0  0  0  0  0  0
  141.4110   73.9550  221.1030 C   0  0  0  0  0  0  0  0  0  0  0  0
  141.2920   72.6240  220.7560 C   0  0  0  0  0  0  0  0  0  0  0  0
  142.3950   71.8950  220.3300 C   0  0  0  0  0  0  0  0  0  0  0  0
  143.6340   72.4990  220.2460 C   0  0  0  0  0  0  0  0  0  0  0  0
  144.7240   71.7630  219.8200 C   0  0  0  0  0  0  0  0  0  0  0  0
  145.9310   72.4320  219.7610 C   0  0  0  0  0  0  0  0  0  0  0  0
  146.0450   73.7660  220.1090 C   0  0  0  0  0  0  0  0  0  0  0  0
  144.9330   74.4790  220.5330 C   0  0  0  0  0  0  0  0  0  0  0  0
  143.7160   73.8310  220.6000 C   0  0  0  0  0  0  0  0  0  0  0  0
  142.6220   74.5330  221.0180 N   0  0  0  0  0  0  0  0  0  0  0  0
  140.2850   76.2120  220.0270 H   0  0  0  0  0  0  0  0  0  0  0  0
  137.9214   76.7615  220.5407 H   0  0  0  0  0  0  0  0  0  0  0  0
  138.0498   75.7416  222.0310 H   0  0  0  0  0  0  0  0  0  0  0  0
  140.7997   77.1208  223.8461 H   0  0  0  0  0  0  0  0  0  0  0  0
  142.0707   77.3022  222.5904 H   0  0  0  0  0  0  0  0  0  0  0  0
  140.9668   79.4030  224.4922 H   0  0  0  0  0  0  0  0  0  0  0  0
  142.6730   78.7842  224.3132 H   0  0  0  0  0  0  0  0  0  0  0  0
  142.1835   81.0836  223.4277 H   0  0  0  0  0  0  0  0  0  0  0  0
  142.9776   79.8571  222.3158 H   0  0  0  0  0  0  0  0  0  0  0  0
  140.1223   80.8304  222.2605 H   0  0  0  0  0  0  0  0  0  0  0  0
  141.4315   81.0974  221.0432 H   0  0  0  0  0  0  0  0  0  0  0  0
  139.8256   79.1899  220.3455 H   0  0  0  0  0  0  0  0  0  0  0  0
  141.9176   79.0975  219.3878 H   0  0  0  0  0  0  0  0  0  0  0  0
  142.7323   78.9294  221.0207 H   0  0  0  0  0  0  0  0  0  0  0  0
  142.3260   76.7030  221.0670 H   0  0  0  0  0  0  0  0  0  0  0  0
  143.7993   77.1894  219.7694 H   0  0  0  0  0  0  0  0  0  0  0  0
  143.1440   75.2054  217.7202 H   0  0  0  0  0  0  0  0  0  0  0  0
  141.6279   75.2428  218.0453 H   0  0  0  0  0  0  0  0  0  0  0  0
  143.4623   77.6821  217.0785 H   0  0  0  0  0  0  0  0  0  0  0  0
  141.9899   78.1577  217.2940 H   0  0  0  0  0  0  0  0  0  0  0  0
  140.3093   72.1336  220.8178 H   0  0  0  0  0  0  0  0  0  0  0  0
  142.2814   70.8349  220.0592 H   0  0  0  0  0  0  0  0  0  0  0  0
  144.6349   70.7022  219.5431 H   0  0  0  0  0  0  0  0  0  0  0  0
  146.8273   71.8884  219.4277 H   0  0  0  0  0  0  0  0  0  0  0  0
  147.0237   74.2646  220.0491 H   0  0  0  0  0  0  0  0  0  0  0  0
  145.0194   75.5399  220.8104 H   0  0  0  0  0  0  0  0  0  0  0  0
  1  2  2  0
  2  3  1  0
  3  4  1  0
  4  5  1  0
  5  6  2  0
  5  7  1  0
  7  8  1  0
  8  9  1  0
  9 10  1  0
 10 11  1  0
 11 12  1  0
 12 13  1  0
 13 14  1  0
 14 15  1  0
 15 16  1  0
 16 17  1  0
  2 18  1  0
 18 19  2  0
 19 20  1  0
 20 21  2  0
 21 22  1  0
 22 23  2  0
 23 24  1  0
 24 25  2  0
 25 26  1  0
 26 27  2  0
 12  7  1  0
 17 15  1  0
 27 18  1  0
 26 21  1  0
  3 28  1  0
  4 29  1  0
  4 30  1  0
  8 31  1  0
  8 32  1  0
  9 33  1  0
  9 34  1  0
 10 35  1  0
 10 36  1  0
 11 37  1  0
 11 38  1  0
 12 39  1  6
 13 40  1  0
 13 41  1  0
 14 42  1  0
 15 43  1  0
 16 44  1  0
 16 45  1  0
 17 46  1  0
 17 47  1  0
 19 48  1  0
 20 49  1  0
 22 50  1  0
 23 51  1  0
 24 52  1  0
 25 53  1  0
M  END
>  <smiles>  (14) 
O=C(NCC(=O)N1CCCC[C@H]1CNC1CC1)c1ccc2ccccc2n1

>  <score_type>  (14) 
oracle

>  <origin>  (14) 
autodockgpu

>  <m_score__min__energy>  (14) 
-8.3200000000000003

>  <m_primary>  (14) 
energy

>  <rmsd>  (14) 
5.974593888907863

>  <m_score__min__rmsd>  (14) 
5.974593888907863

>  <meeko>  (14) 
{"free_energy": -6.26, "intermolecular_energy": -8.35, "internal_energy": -3.71, "cluster_size": 18, "cluster_id": 4, "rank_in_cluster": 6}

>  <energy>  (14) 
-7.68

>  <cluster_rmsd>  (14) 
0.0

>  <cluster>  (14) 
2

$$$$

     RDKit          3D

 53 56  0  0  0  0  0  0  0  0999 V2000
  139.2590   74.6960  222.3700 O   0  0  0  0  0  0  0  0  0  0  0  0
  140.0880   75.0900  221.4820 C   0  0  0  0  0  0  0  0  0  0  0  0
  139.8510   76.3560  220.8620 N   0  0  0  0  0  0  0  0  0  0  0  0
  138.6740   77.0800  221.3090 C   0  0  0  0  0  0  0  0  0  0  0  0
  139.0290   78.1510  222.2480 C   0  0  0  0  0  0  0  0  0  0  0  0
  138.2520   78.6100  223.1350 O   0  0  0  0  0  0  0  0  0  0  0  0
  140.3330   78.7170  222.1670 N   0  0  0  0  0  0  0  0  0  0  0  0
  141.4400   78.2420  222.9990 C   0  0  0  0  0  0  0  0  0  0  0  0
  141.9710   79.3890  223.8340 C   0  0  0  0  0  0  0  0  0  0  0  0
  142.1880   80.6370  223.0440 C   0  0  0  0  0  0  0  0  0  0  0  0
  141.0570   81.0000  222.1200 C   0  0  0  0  0  0  0  0  0  0  0  0
  140.6510   79.8020  221.2520 C   0  0  1  0  0  0  0  0  0  0  0  0
  141.8490   79.4940  220.3990 C   0  0  0  0  0  0  0  0  0  0  0  0
  142.1030   78.0850  220.2220 N   0  0  0  0  0  0  0  0  0  0  0  0
  142.2700   77.8970  218.7770 C   0  0  0  0  0  0  0  0  0  0  0  0
  143.2550   76.7880  218.4320 C   0  0  0  0  0  0  0  0  0  0  0  0
  141.8190   76.6870  218.0900 C   0  0  0  0  0  0  0  0  0  0  0  0
  141.2410   74.2790  221.1100 C   0  0  0  0  0  0  0  0  0  0  0  0
  141.0610   72.9200  220.9470 C   0  0  0  0  0  0  0  0  0  0  0  0
  142.1220   72.0960  220.5930 C   0  0  0  0  0  0  0  0  0  0  0  0
  143.3790   72.6300  220.3960 C   0  0  0  0  0  0  0  0  0  0  0  0
  144.4260   71.8000  220.0430 C   0  0  0  0  0  0  0  0  0  0  0  0
  145.6550   72.4040  219.8630 C   0  0  0  0  0  0  0  0  0  0  0  0
  145.8310   73.7670  220.0270 C   0  0  0  0  0  0  0  0  0  0  0  0
  144.7610   74.5750  220.3820 C   0  0  0  0  0  0  0  0  0  0  0  0
  143.5230   73.9930  220.5670 C   0  0  0  0  0  0  0  0  0  0  0  0
  142.4710   74.7900  220.9160 N   0  0  0  0  0  0  0  0  0  0  0  0
  140.5000   76.7280  220.1250 H   0  0  0  0  0  0  0  0  0  0  0  0
  138.1722   77.5216  220.4354 H   0  0  0  0  0  0  0  0  0  0  0  0
  138.0080   76.3732  221.8255 H   0  0  0  0  0  0  0  0  0  0  0  0
  141.0829   77.4402  223.6620 H   0  0  0  0  0  0  0  0  0  0  0  0
  142.2431   77.8542  222.3550 H   0  0  0  0  0  0  0  0  0  0  0  0
  141.2480   79.6029  224.6350 H   0  0  0  0  0  0  0  0  0  0  0  0
  142.9481   79.0793  224.2331 H   0  0  0  0  0  0  0  0  0  0  0  0
  142.3345   81.4682  223.7495 H   0  0  0  0  0  0  0  0  0  0  0  0
  143.0644   80.4524  222.4054 H   0  0  0  0  0  0  0  0  0  0  0  0
  140.1917   81.3201  222.7189 H   0  0  0  0  0  0  0  0  0  0  0  0
  141.3909   81.8142  221.4600 H   0  0  0  0  0  0  0  0  0  0  0  0
  139.7797   79.9777  220.6040 H   0  0  0  0  0  0  0  0  0  0  0  0
  141.6910   79.9432  219.4074 H   0  0  0  0  0  0  0  0  0  0  0  0
  142.7236   79.9095  220.9209 H   0  0  0  0  0  0  0  0  0  0  0  0
  142.9680   77.7510  220.7050 H   0  0  0  0  0  0  0  0  0  0  0  0
  142.1023   78.9625  218.5613 H   0  0  0  0  0  0  0  0  0  0  0  0
  144.0044   76.9380  217.6409 H   0  0  0  0  0  0  0  0  0  0  0  0
  143.9769   76.1738  218.9902 H   0  0  0  0  0  0  0  0  0  0  0  0
  141.5058   76.7446  217.0371 H   0  0  0  0  0  0  0  0  0  0  0  0
  141.0364   75.9408  218.2918 H   0  0  0  0  0  0  0  0  0  0  0  0
  140.0630   72.4833  221.0996 H   0  0  0  0  0  0  0  0  0  0  0  0
  141.9596   71.0151  220.4694 H   0  0  0  0  0  0  0  0  0  0  0  0
  144.2880   70.7165  219.9124 H   0  0  0  0  0  0  0  0  0  0  0  0
  146.5188   71.7839  219.5812 H   0  0  0  0  0  0  0  0  0  0  0  0
  146.8254   74.2121  219.8749 H   0  0  0  0  0  0  0  0  0  0  0  0
  144.8963   75.6587  220.5136 H   0  0  0  0  0  0  0  0  0  0  0  0
  1  2  2  0
  2  3  1  0
  3  4  1  0
  4  5  1  0
  5  6  2  0
  5  7  1  0
  7  8  1  0
  8  9  1  0
  9 10  1  0
 10 11  1  0
 11 12  1  0
 12 13  1  0
 13 14  1  0
 14 15  1  0
 15 16  1  0
 16 17  1  0
  2 18  1  0
 18 19  2  0
 19 20  1  0
 20 21  2  0
 21 22  1  0
 22 23  2  0
 23 24  1  0
 24 25  2  0
 25 26  1  0
 26 27  2  0
 12  7  1  0
 17 15  1  0
 27 18  1  0
 26 21  1  0
  3 28  1  0
  4 29  1  0
  4 30  1  0
  8 31  1  0
  8 32  1  0
  9 33  1  0
  9 34  1  0
 10 35  1  0
 10 36  1  0
 11 37  1  0
 11 38  1  0
 12 39  1  6
 13 40  1  0
 13 41  1  0
 14 42  1  0
 15 43  1  0
 16 44  1  0
 16 45  1  0
 17 46  1  0
 17 47  1  0
 19 48  1  0
 20 49  1  0
 22 50  1  0
 23 51  1  0
 24 52  1  0
 25 53  1  0
M  END
>  <smiles>  (15) 
O=C(NCC(=O)N1CCCC[C@H]1CNC1CC1)c1ccc2ccccc2n1

>  <score_type>  (15) 
oracle

>  <origin>  (15) 
autodockgpu

>  <m_score__min__energy>  (15) 
-8.3200000000000003

>  <m_primary>  (15) 
energy

>  <rmsd>  (15) 
6.094298505170957

>  <m_score__min__rmsd>  (15) 
6.094298505170957

>  <meeko>  (15) 
{"free_energy": -6.38, "intermolecular_energy": -8.47, "internal_energy": -3.1, "cluster_size": 18, "cluster_id": 4, "rank_in_cluster": 4}

>  <energy>  (15) 
-7.37

>  <cluster_rmsd>  (15) 
1.13

>  <cluster>  (15) 
2

$$$$

     RDKit          3D

 53 56  0  0  0  0  0  0  0  0999 V2000
  140.5510   71.5070  221.3100 O   0  0  0  0  0  0  0  0  0  0  0  0
  140.1990   72.0970  222.3870 C   0  0  0  0  0  0  0  0  0  0  0  0
  139.8510   73.4810  222.3080 N   0  0  0  0  0  0  0  0  0  0  0  0
  139.9330   74.0900  220.9920 C   0  0  0  0  0  0  0  0  0  0  0  0
  138.8340   75.0380  220.7710 C   0  0  0  0  0  0  0  0  0  0  0  0
  137.9580   74.9170  219.8660 O   0  0  0  0  0  0  0  0  0  0  0  0
  138.7340   76.1700  221.6290 N   0  0  0  0  0  0  0  0  0  0  0  0
  137.8950   76.1660  222.8290 C   0  0  0  0  0  0  0  0  0  0  0  0
  136.8680   77.2760  222.7280 C   0  0  0  0  0  0  0  0  0  0  0  0
  137.4560   78.5810  222.3030 C   0  0  0  0  0  0  0  0  0  0  0  0
  138.4040   78.4910  221.1370 C   0  0  0  0  0  0  0  0  0  0  0  0
  139.4600   77.4040  221.3710 C   0  0  1  0  0  0  0  0  0  0  0  0
  140.2540   77.8570  222.5640 C   0  0  0  0  0  0  0  0  0  0  0  0
  141.5160   78.4730  222.2360 N   0  0  0  0  0  0  0  0  0  0  0  0
  141.8670   79.2880  223.4030 C   0  0  0  0  0  0  0  0  0  0  0  0
  143.0400   80.2240  223.1430 C   0  0  0  0  0  0  0  0  0  0  0  0
  141.6820   80.7390  223.4260 C   0  0  0  0  0  0  0  0  0  0  0  0
  140.1510   71.3850  223.6590 C   0  0  0  0  0  0  0  0  0  0  0  0
  139.5970   70.1210  223.6810 C   0  0  0  0  0  0  0  0  0  0  0  0
  139.5230   69.3940  224.8630 C   0  0  0  0  0  0  0  0  0  0  0  0
  140.0080   69.9300  226.0380 C   0  0  0  0  0  0  0  0  0  0  0  0
  139.9300   69.1970  227.2070 C   0  0  0  0  0  0  0  0  0  0  0  0
  140.4340   69.7980  228.3440 C   0  0  0  0  0  0  0  0  0  0  0  0
  140.9890   71.0650  228.3170 C   0  0  0  0  0  0  0  0  0  0  0  0
  141.0540   71.7770  227.1280 C   0  0  0  0  0  0  0  0  0  0  0  0
  140.5560   71.1960  225.9790 C   0  0  0  0  0  0  0  0  0  0  0  0
  140.6210   71.8990  224.8100 N   0  0  0  0  0  0  0  0  0  0  0  0
  139.5550   74.0150  223.1620 H   0  0  0  0  0  0  0  0  0  0  0  0
  140.8902   74.6249  220.9042 H   0  0  0  0  0  0  0  0  0  0  0  0
  139.8602   73.2935  220.2368 H   0  0  0  0  0  0  0  0  0  0  0  0
  137.3812   75.1971  222.9145 H   0  0  0  0  0  0  0  0  0  0  0  0
  138.5234   76.3261  223.7176 H   0  0  0  0  0  0  0  0  0  0  0  0
  136.1041   76.9805  221.9937 H   0  0  0  0  0  0  0  0  0  0  0  0
  136.4408   77.4199  223.7314 H   0  0  0  0  0  0  0  0  0  0  0  0
  136.6319   79.2541  222.0240 H   0  0  0  0  0  0  0  0  0  0  0  0
  138.0447   78.9502  223.1557 H   0  0  0  0  0  0  0  0  0  0  0  0
  137.8341   78.2493  220.2277 H   0  0  0  0  0  0  0  0  0  0  0  0
  138.9153   79.4585  221.0251 H   0  0  0  0  0  0  0  0  0  0  0  0
  140.1420   77.2364  220.5244 H   0  0  0  0  0  0  0  0  0  0  0  0
  139.6497   78.5860  223.1238 H   0  0  0  0  0  0  0  0  0  0  0  0
  140.4857   76.9553  223.1499 H   0  0  0  0  0  0  0  0  0  0  0  0
  142.2860   77.7870  222.0640 H   0  0  0  0  0  0  0  0  0  0  0  0
  141.5652   78.5038  224.1129 H   0  0  0  0  0  0  0  0  0  0  0  0
  143.8405   80.3308  223.8898 H   0  0  0  0  0  0  0  0  0  0  0  0
  143.7805   80.3547  222.3402 H   0  0  0  0  0  0  0  0  0  0  0  0
  141.4813   81.2461  224.3813 H   0  0  0  0  0  0  0  0  0  0  0  0
  141.0036   81.4308  222.9053 H   0  0  0  0  0  0  0  0  0  0  0  0
  139.2086   69.6829  222.7498 H   0  0  0  0  0  0  0  0  0  0  0  0
  139.0766   68.3887  224.8617 H   0  0  0  0  0  0  0  0  0  0  0  0
  139.4901   68.1890  227.2307 H   0  0  0  0  0  0  0  0  0  0  0  0
  140.3929   69.2533  229.2988 H   0  0  0  0  0  0  0  0  0  0  0  0
  141.3809   71.5103  229.2433 H   0  0  0  0  0  0  0  0  0  0  0  0
  141.4938   72.7849  227.1014 H   0  0  0  0  0  0  0  0  0  0  0  0
  1  2  2  0
  2  3  1  0
  3  4  1  0
  4  5  1  0
  5  6  2  0
  5  7  1  0
  7  8  1  0
  8  9  1  0
  9 10  1  0
 10 11  1  0
 11 12  1  0
 12 13  1  0
 13 14  1  0
 14 15  1  0
 15 16  1  0
 16 17  1  0
  2 18  1  0
 18 19  2  0
 19 20  1  0
 20 21  2  0
 21 22  1  0
 22 23  2  0
 23 24  1  0
 24 25  2  0
 25 26  1  0
 26 27  2  0
 12  7  1  0
 17 15  1  0
 27 18  1  0
 26 21  1  0
  3 28  1  0
  4 29  1  0
  4 30  1  0
  8 31  1  0
  8 32  1  0
  9 33  1  0
  9 34  1  0
 10 35  1  0
 10 36  1  0
 11 37  1  0
 11 38  1  0
 12 39  1  6
 13 40  1  0
 13 41  1  0
 14 42  1  0
 15 43  1  0
 16 44  1  0
 16 45  1  0
 17 46  1  0
 17 47  1  0
 19 48  1  0
 20 49  1  0
 22 50  1  0
 23 51  1  0
 24 52  1  0
 25 53  1  0
M  END
>  <smiles>  (16) 
O=C(NCC(=O)N1CCCC[C@H]1CNC1CC1)c1ccc2ccccc2n1

>  <score_type>  (16) 
oracle

>  <origin>  (16) 
autodockgpu

>  <m_score__min__energy>  (16) 
-8.3200000000000003

>  <m_primary>  (16) 
energy

>  <rmsd>  (16) 
2.82630167813783

>  <m_score__min__rmsd>  (16) 
2.82630167813783

>  <meeko>  (16) 
{"free_energy": -7.92, "intermolecular_energy": -10.01, "internal_energy": -1.3, "cluster_size": 13, "cluster_id": 1, "rank_in_cluster": 8}

>  <energy>  (16) 
-7.34

>  <cluster_rmsd>  (16) 
1.07

>  <cluster>  (16) 
2

$$$$

     RDKit          3D

 53 56  0  0  0  0  0  0  0  0999 V2000
  141.4170   71.9200  222.1410 O   0  0  0  0  0  0  0  0  0  0  0  0
  140.4440   72.0110  222.9620 C   0  0  0  0  0  0  0  0  0  0  0  0
  139.3450   72.8530  222.6060 N   0  0  0  0  0  0  0  0  0  0  0  0
  139.4460   73.5340  221.3260 C   0  0  0  0  0  0  0  0  0  0  0  0
  140.4380   74.6150  221.3720 C   0  0  0  0  0  0  0  0  0  0  0  0
  141.6530   74.4830  221.0450 O   0  0  0  0  0  0  0  0  0  0  0  0
  140.0150   75.9020  221.8090 N   0  0  0  0  0  0  0  0  0  0  0  0
  138.8180   76.0910  222.6300 C   0  0  0  0  0  0  0  0  0  0  0  0
  137.8520   77.0080  221.9080 C   0  0  0  0  0  0  0  0  0  0  0  0
  138.5070   78.2300  221.3540 C   0  0  0  0  0  0  0  0  0  0  0  0
  139.7980   77.9730  220.6240 C   0  0  0  0  0  0  0  0  0  0  0  0
  140.7460   77.1140  221.4710 C   0  0  1  0  0  0  0  0  0  0  0  0
  141.0700   77.9400  222.6840 C   0  0  0  0  0  0  0  0  0  0  0  0
  142.0580   78.9650  222.4540 N   0  0  0  0  0  0  0  0  0  0  0  0
  141.9850   79.8460  223.6250 C   0  0  0  0  0  0  0  0  0  0  0  0
  143.1850   80.7760  223.7440 C   0  0  0  0  0  0  0  0  0  0  0  0
  141.8200   81.2940  223.5040 C   0  0  0  0  0  0  0  0  0  0  0  0
  140.4460   71.2800  224.2240 C   0  0  0  0  0  0  0  0  0  0  0  0
  141.0090   71.8850  225.3290 C   0  0  0  0  0  0  0  0  0  0  0  0
  141.0420   71.2390  226.5590 C   0  0  0  0  0  0  0  0  0  0  0  0
  140.5060   69.9740  226.6910 C   0  0  0  0  0  0  0  0  0  0  0  0
  140.5430   69.3420  227.9200 C   0  0  0  0  0  0  0  0  0  0  0  0
  139.9880   68.0780  227.9780 C   0  0  0  0  0  0  0  0  0  0  0  0
  139.4240   67.4760  226.8670 C   0  0  0  0  0  0  0  0  0  0  0  0
  139.4010   68.1360  225.6470 C   0  0  0  0  0  0  0  0  0  0  0  0
  139.9500   69.3990  225.5660 C   0  0  0  0  0  0  0  0  0  0  0  0
  139.9270   70.0470  224.3640 N   0  0  0  0  0  0  0  0  0  0  0  0
  138.5180   72.9660  223.2430 H   0  0  0  0  0  0  0  0  0  0  0  0
  139.7442   72.8070  220.5562 H   0  0  0  0  0  0  0  0  0  0  0  0
  138.4657   73.9732  221.0889 H   0  0  0  0  0  0  0  0  0  0  0  0
  138.3371   75.1177  222.8072 H   0  0  0  0  0  0  0  0  0  0  0  0
  139.1005   76.5403  223.5935 H   0  0  0  0  0  0  0  0  0  0  0  0
  137.3935   76.4500  221.0783 H   0  0  0  0  0  0  0  0  0  0  0  0
  137.1047   77.3413  222.6432 H   0  0  0  0  0  0  0  0  0  0  0  0
  137.8060   78.7073  220.6535 H   0  0  0  0  0  0  0  0  0  0  0  0
  138.7574   78.8669  222.2152 H   0  0  0  0  0  0  0  0  0  0  0  0
  139.5806   77.4474  219.6825 H   0  0  0  0  0  0  0  0  0  0  0  0
  140.2852   78.9384  220.4223 H   0  0  0  0  0  0  0  0  0  0  0  0
  141.6811   76.8281  220.9672 H   0  0  0  0  0  0  0  0  0  0  0  0
  140.1445   78.4241  223.0291 H   0  0  0  0  0  0  0  0  0  0  0  0
  141.4951   77.2528  223.4303 H   0  0  0  0  0  0  0  0  0  0  0  0
  143.0330   78.5980  222.3730 H   0  0  0  0  0  0  0  0  0  0  0  0
  141.4438   79.0991  224.2243 H   0  0  0  0  0  0  0  0  0  0  0  0
  143.6734   80.9296  224.7176 H   0  0  0  0  0  0  0  0  0  0  0  0
  144.1618   80.8693  223.2468 H   0  0  0  0  0  0  0  0  0  0  0  0
  141.3023   81.8503  224.2993 H   0  0  0  0  0  0  0  0  0  0  0  0
  141.3754   81.9510  222.7420 H   0  0  0  0  0  0  0  0  0  0  0  0
  141.4380   72.8935  225.2349 H   0  0  0  0  0  0  0  0  0  0  0  0
  141.4960   71.7366  227.4287 H   0  0  0  0  0  0  0  0  0  0  0  0
  140.9902   69.8197  228.8042 H   0  0  0  0  0  0  0  0  0  0  0  0
  139.9947   67.5348  228.9345 H   0  0  0  0  0  0  0  0  0  0  0  0
  138.9913   66.4682  226.9517 H   0  0  0  0  0  0  0  0  0  0  0  0
  138.9536   67.6614  224.7612 H   0  0  0  0  0  0  0  0  0  0  0  0
  1  2  2  0
  2  3  1  0
  3  4  1  0
  4  5  1  0
  5  6  2  0
  5  7  1  0
  7  8  1  0
  8  9  1  0
  9 10  1  0
 10 11  1  0
 11 12  1  0
 12 13  1  0
 13 14  1  0
 14 15  1  0
 15 16  1  0
 16 17  1  0
  2 18  1  0
 18 19  2  0
 19 20  1  0
 20 21  2  0
 21 22  1  0
 22 23  2  0
 23 24  1  0
 24 25  2  0
 25 26  1  0
 26 27  2  0
 12  7  1  0
 17 15  1  0
 27 18  1  0
 26 21  1  0
  3 28  1  0
  4 29  1  0
  4 30  1  0
  8 31  1  0
  8 32  1  0
  9 33  1  0
  9 34  1  0
 10 35  1  0
 10 36  1  0
 11 37  1  0
 11 38  1  0
 12 39  1  6
 13 40  1  0
 13 41  1  0
 14 42  1  0
 15 43  1  0
 16 44  1  0
 16 45  1  0
 17 46  1  0
 17 47  1  0
 19 48  1  0
 20 49  1  0
 22 50  1  0
 23 51  1  0
 24 52  1  0
 25 53  1  0
M  END
>  <smiles>  (17) 
O=C(NCC(=O)N1CCCC[C@H]1CNC1CC1)c1ccc2ccccc2n1

>  <score_type>  (17) 
oracle

>  <origin>  (17) 
autodockgpu

>  <m_score__min__energy>  (17) 
-8.3200000000000003

>  <m_primary>  (17) 
energy

>  <rmsd>  (17) 
3.156133150977215

>  <m_score__min__rmsd>  (17) 
3.156133150977215

>  <meeko>  (17) 
{"free_energy": -8.32, "intermolecular_energy": -10.41, "internal_energy": -1.22, "cluster_size": 13, "cluster_id": 1, "rank_in_cluster": 1}

>  <energy>  (17) 
-7.17

>  <cluster_rmsd>  (17) 
1.33

>  <cluster>  (17) 
2

$$$$

     RDKit          3D

 53 56  0  0  0  0  0  0  0  0999 V2000
  141.2890   72.1530  221.7010 O   0  0  0  0  0  0  0  0  0  0  0  0
  140.3220   72.3300  222.5160 C   0  0  0  0  0  0  0  0  0  0  0  0
  139.3630   73.3430  222.2050 N   0  0  0  0  0  0  0  0  0  0  0  0
  139.5860   74.0830  220.9750 C   0  0  0  0  0  0  0  0  0  0  0  0
  140.4880   75.2220  221.1920 C   0  0  0  0  0  0  0  0  0  0  0  0
  141.7480   75.1630  221.0950 O   0  0  0  0  0  0  0  0  0  0  0  0
  139.9170   76.4810  221.5320 N   0  0  0  0  0  0  0  0  0  0  0  0
  139.0580   76.6550  222.7040 C   0  0  0  0  0  0  0  0  0  0  0  0
  137.7030   77.1710  222.2630 C   0  0  0  0  0  0  0  0  0  0  0  0
  137.7940   78.3080  221.3020 C   0  0  0  0  0  0  0  0  0  0  0  0
  138.7870   78.1100  220.1870 C   0  0  0  0  0  0  0  0  0  0  0  0
  140.1520   77.6770  220.7380 C   0  0  1  0  0  0  0  0  0  0  0  0
  140.6370   78.8280  221.5740 C   0  0  0  0  0  0  0  0  0  0  0  0
  141.9320   78.6200  222.1730 N   0  0  0  0  0  0  0  0  0  0  0  0
  141.8510   79.2400  223.5010 C   0  0  0  0  0  0  0  0  0  0  0  0
  142.6580   80.5280  223.6040 C   0  0  0  0  0  0  0  0  0  0  0  0
  141.1840   80.5220  223.7240 C   0  0  0  0  0  0  0  0  0  0  0  0
  140.1940   71.5260  223.7260 C   0  0  0  0  0  0  0  0  0  0  0  0
  139.5320   70.3180  223.6420 C   0  0  0  0  0  0  0  0  0  0  0  0
  139.3780   69.5080  224.7610 C   0  0  0  0  0  0  0  0  0  0  0  0
  139.8910   69.9040  225.9790 C   0  0  0  0  0  0  0  0  0  0  0  0
  139.7330   69.0900  227.0850 C   0  0  0  0  0  0  0  0  0  0  0  0
  140.2720   69.5510  228.2700 C   0  0  0  0  0  0  0  0  0  0  0  0
  140.9360   70.7620  228.3480 C   0  0  0  0  0  0  0  0  0  0  0  0
  141.0800   71.5580  227.2220 C   0  0  0  0  0  0  0  0  0  0  0  0
  140.5490   71.1180  226.0270 C   0  0  0  0  0  0  0  0  0  0  0  0
  140.6910   71.9030  224.9180 N   0  0  0  0  0  0  0  0  0  0  0  0
  138.5480   73.5320  222.8400 H   0  0  0  0  0  0  0  0  0  0  0  0
  140.0323   73.4100  220.2281 H   0  0  0  0  0  0  0  0  0  0  0  0
  138.6183   74.4694  220.6226 H   0  0  0  0  0  0  0  0  0  0  0  0
  138.9342   75.6888  223.2149 H   0  0  0  0  0  0  0  0  0  0  0  0
  139.5194   77.3771  223.3937 H   0  0  0  0  0  0  0  0  0  0  0  0
  137.1551   76.3481  221.7807 H   0  0  0  0  0  0  0  0  0  0  0  0
  137.1851   77.5407  223.1603 H   0  0  0  0  0  0  0  0  0  0  0  0
  136.8008   78.4585  220.8539 H   0  0  0  0  0  0  0  0  0  0  0  0
  138.1436   79.1765  221.8795 H   0  0  0  0  0  0  0  0  0  0  0  0
  138.4116   77.3333  219.5045 H   0  0  0  0  0  0  0  0  0  0  0  0
  138.9106   79.0641  219.6537 H   0  0  0  0  0  0  0  0  0  0  0  0
  140.9046   77.4437  219.9704 H   0  0  0  0  0  0  0  0  0  0  0  0
  140.6928   79.7203  220.9331 H   0  0  0  0  0  0  0  0  0  0  0  0
  139.9209   78.9411  222.4013 H   0  0  0  0  0  0  0  0  0  0  0  0
  142.1830   77.6130  222.2900 H   0  0  0  0  0  0  0  0  0  0  0  0
  141.7549   78.2705  224.0117 H   0  0  0  0  0  0  0  0  0  0  0  0
  143.2857   80.7203  224.4867 H   0  0  0  0  0  0  0  0  0  0  0  0
  143.3951   81.0483  222.9748 H   0  0  0  0  0  0  0  0  0  0  0  0
  140.7174   80.7294  224.6983 H   0  0  0  0  0  0  0  0  0  0  0  0
  140.3740   81.0607  223.2105 H   0  0  0  0  0  0  0  0  0  0  0  0
  139.1203   69.9915  222.6756 H   0  0  0  0  0  0  0  0  0  0  0  0
  138.8459   68.5491  224.6753 H   0  0  0  0  0  0  0  0  0  0  0  0
  139.2060   68.1264  227.0245 H   0  0  0  0  0  0  0  0  0  0  0  0
  140.1704   68.9378  229.1776 H   0  0  0  0  0  0  0  0  0  0  0  0
  141.3526   71.0957  229.3098 H   0  0  0  0  0  0  0  0  0  0  0  0
  141.6073   72.5216  227.2802 H   0  0  0  0  0  0  0  0  0  0  0  0
  1  2  2  0
  2  3  1  0
  3  4  1  0
  4  5  1  0
  5  6  2  0
  5  7  1  0
  7  8  1  0
  8  9  1  0
  9 10  1  0
 10 11  1  0
 11 12  1  0
 12 13  1  0
 13 14  1  0
 14 15  1  0
 15 16  1  0
 16 17  1  0
  2 18  1  0
 18 19  2  0
 19 20  1  0
 20 21  2  0
 21 22  1  0
 22 23  2  0
 23 24  1  0
 24 25  2  0
 25 26  1  0
 26 27  2  0
 12  7  1  0
 17 15  1  0
 27 18  1  0
 26 21  1  0
  3 28  1  0
  4 29  1  0
  4 30  1  0
  8 31  1  0
  8 32  1  0
  9 33  1  0
  9 34  1  0
 10 35  1  0
 10 36  1  0
 11 37  1  0
 11 38  1  0
 12 39  1  6
 13 40  1  0
 13 41  1  0
 14 42  1  0
 15 43  1  0
 16 44  1  0
 16 45  1  0
 17 46  1  0
 17 47  1  0
 19 48  1  0
 20 49  1  0
 22 50  1  0
 23 51  1  0
 24 52  1  0
 25 53  1  0
M  END
>  <smiles>  (18) 
O=C(NCC(=O)N1CCCC[C@H]1CNC1CC1)c1ccc2ccccc2n1

>  <score_type>  (18) 
oracle

>  <origin>  (18) 
autodockgpu

>  <m_score__min__energy>  (18) 
-8.3200000000000003

>  <m_primary>  (18) 
energy

>  <rmsd>  (18) 
2.5378900463657734

>  <m_score__min__rmsd>  (18) 
2.5378900463657734

>  <meeko>  (18) 
{"free_energy": -7.99, "intermolecular_energy": -10.08, "internal_energy": -1.56, "cluster_size": 13, "cluster_id": 1, "rank_in_cluster": 6}

>  <energy>  (18) 
-7.16

>  <cluster_rmsd>  (18) 
0.98

>  <cluster>  (18) 
2

$$$$

     RDKit          3D

 53 56  0  0  0  0  0  0  0  0999 V2000
  141.3700   72.0840  221.6410 O   0  0  0  0  0  0  0  0  0  0  0  0
  140.5220   72.4040  222.5410 C   0  0  0  0  0  0  0  0  0  0  0  0
  139.7930   73.6220  222.3690 N   0  0  0  0  0  0  0  0  0  0  0  0
  140.0930   74.3870  221.1710 C   0  0  0  0  0  0  0  0  0  0  0  0
  139.8150   75.8150  221.3650 C   0  0  0  0  0  0  0  0  0  0  0  0
  139.1410   76.2880  222.3260 O   0  0  0  0  0  0  0  0  0  0  0  0
  140.3350   76.7400  220.4150 N   0  0  0  0  0  0  0  0  0  0  0  0
  139.5210   77.2730  219.3210 C   0  0  0  0  0  0  0  0  0  0  0  0
  140.1680   76.9240  217.9960 C   0  0  0  0  0  0  0  0  0  0  0  0
  141.6320   77.2100  217.9660 C   0  0  0  0  0  0  0  0  0  0  0  0
  142.3880   76.7390  219.1800 C   0  0  0  0  0  0  0  0  0  0  0  0
  141.7080   77.2170  220.4690 C   0  0  1  0  0  0  0  0  0  0  0  0
  141.7910   78.7170  220.4410 C   0  0  0  0  0  0  0  0  0  0  0  0
  142.2180   79.3100  221.6850 N   0  0  0  0  0  0  0  0  0  0  0  0
  141.3270   78.7520  222.7080 C   0  0  0  0  0  0  0  0  0  0  0  0
  141.8050   79.0290  224.1270 C   0  0  0  0  0  0  0  0  0  0  0  0
  140.5430   79.5990  223.6070 C   0  0  0  0  0  0  0  0  0  0  0  0
  140.3000   71.5580  223.7070 C   0  0  0  0  0  0  0  0  0  0  0  0
  139.6400   70.3590  223.5300 C   0  0  0  0  0  0  0  0  0  0  0  0
  139.3980   69.5110  224.6040 C   0  0  0  0  0  0  0  0  0  0  0  0
  139.8200   69.8590  225.8700 C   0  0  0  0  0  0  0  0  0  0  0  0
  139.5750   69.0060  226.9310 C   0  0  0  0  0  0  0  0  0  0  0  0
  140.0260   69.4200  228.1690 C   0  0  0  0  0  0  0  0  0  0  0  0
  140.6880   70.6220  228.3410 C   0  0  0  0  0  0  0  0  0  0  0  0
  140.9200   71.4570  227.2590 C   0  0  0  0  0  0  0  0  0  0  0  0
  140.4780   71.0640  226.0120 C   0  0  0  0  0  0  0  0  0  0  0  0
  140.7070   71.8880  224.9460 N   0  0  0  0  0  0  0  0  0  0  0  0
  139.0840   73.9340  223.0780 H   0  0  0  0  0  0  0  0  0  0  0  0
  141.1569   74.2599  220.9221 H   0  0  0  0  0  0  0  0  0  0  0  0
  139.4548   74.0174  220.3549 H   0  0  0  0  0  0  0  0  0  0  0  0
  138.5138   76.8329  219.3648 H   0  0  0  0  0  0  0  0  0  0  0  0
  139.4469   78.3663  219.4171 H   0  0  0  0  0  0  0  0  0  0  0  0
  140.0169   75.8514  217.8044 H   0  0  0  0  0  0  0  0  0  0  0  0
  139.6956   77.5507  217.2253 H   0  0  0  0  0  0  0  0  0  0  0  0
  142.0602   76.7150  217.0819 H   0  0  0  0  0  0  0  0  0  0  0  0
  141.7351   78.3048  217.9401 H   0  0  0  0  0  0  0  0  0  0  0  0
  142.4232   75.6396  219.1780 H   0  0  0  0  0  0  0  0  0  0  0  0
  143.4050   77.1566  219.1440 H   0  0  0  0  0  0  0  0  0  0  0  0
  142.1688   76.8459  221.3963 H   0  0  0  0  0  0  0  0  0  0  0  0
  142.5056   79.0082  219.6571 H   0  0  0  0  0  0  0  0  0  0  0  0
  140.7727   79.0859  220.2486 H   0  0  0  0  0  0  0  0  0  0  0  0
  143.2050   79.0820  221.9410 H   0  0  0  0  0  0  0  0  0  0  0  0
  141.0393   77.9001  222.0743 H   0  0  0  0  0  0  0  0  0  0  0  0
  141.7828   78.2323  224.8852 H   0  0  0  0  0  0  0  0  0  0  0  0
  142.7207   79.4307  224.5853 H   0  0  0  0  0  0  0  0  0  0  0  0
  139.5810   79.2342  223.9961 H   0  0  0  0  0  0  0  0  0  0  0  0
  140.1380   80.6192  223.5356 H   0  0  0  0  0  0  0  0  0  0  0  0
  139.3006   70.0704  222.5243 H   0  0  0  0  0  0  0  0  0  0  0  0
  138.8687   68.5601  224.4440 H   0  0  0  0  0  0  0  0  0  0  0  0
  139.0492   68.0493  226.7960 H   0  0  0  0  0  0  0  0  0  0  0  0
  139.8537   68.7751  229.0434 H   0  0  0  0  0  0  0  0  0  0  0  0
  141.0327   70.9174  229.3429 H   0  0  0  0  0  0  0  0  0  0  0  0
  141.4460   72.4139  227.3917 H   0  0  0  0  0  0  0  0  0  0  0  0
  1  2  2  0
  2  3  1  0
  3  4  1  0
  4  5  1  0
  5  6  2  0
  5  7  1  0
  7  8  1  0
  8  9  1  0
  9 10  1  0
 10 11  1  0
 11 12  1  0
 12 13  1  0
 13 14  1  0
 14 15  1  0
 15 16  1  0
 16 17  1  0
  2 18  1  0
 18 19  2  0
 19 20  1  0
 20 21  2  0
 21 22  1  0
 22 23  2  0
 23 24  1  0
 24 25  2  0
 25 26  1  0
 26 27  2  0
 12  7  1  0
 17 15  1  0
 27 18  1  0
 26 21  1  0
  3 28  1  0
  4 29  1  0
  4 30  1  0
  8 31  1  0
  8 32  1  0
  9 33  1  0
  9 34  1  0
 10 35  1  0
 10 36  1  0
 11 37  1  0
 11 38  1  0
 12 39  1  1
 13 40  1  0
 13 41  1  0
 14 42  1  0
 15 43  1  0
 16 44  1  0
 16 45  1  0
 17 46  1  0
 17 47  1  0
 19 48  1  0
 20 49  1  0
 22 50  1  0
 23 51  1  0
 24 52  1  0
 25 53  1  0
M  END
>  <smiles>  (19) 
O=C(NCC(=O)N1CCCC[C@H]1CNC1CC1)c1ccc2ccccc2n1

>  <score_type>  (19) 
oracle

>  <origin>  (19) 
autodockgpu

>  <m_score__min__energy>  (19) 
-8.3200000000000003

>  <m_primary>  (19) 
energy

>  <rmsd>  (19) 
1.891201758266059

>  <m_score__min__rmsd>  (19) 
1.891201758266059

>  <meeko>  (19) 
{"free_energy": -7.79, "intermolecular_energy": -9.88, "internal_energy": -1.67, "cluster_size": 13, "cluster_id": 1, "rank_in_cluster": 11}

>  <energy>  (19) 
-6.8

>  <cluster_rmsd>  (19) 
0.0

>  <cluster>  (19) 
3

$$$$

     RDKit          3D

 53 56  0  0  0  0  0  0  0  0999 V2000
  139.4590   74.1440  222.4070 O   0  0  0  0  0  0  0  0  0  0  0  0
  140.2160   74.6160  221.4940 C   0  0  0  0  0  0  0  0  0  0  0  0
  139.8510   75.8660  220.9030 N   0  0  0  0  0  0  0  0  0  0  0  0
  138.6370   76.4850  221.4070 C   0  0  0  0  0  0  0  0  0  0  0  0
  138.9210   77.7710  222.0560 C   0  0  0  0  0  0  0  0  0  0  0  0
  138.0510   78.4910  222.6260 O   0  0  0  0  0  0  0  0  0  0  0  0
  140.2630   78.2490  222.0510 N   0  0  0  0  0  0  0  0  0  0  0  0
  141.2250   77.8760  223.0900 C   0  0  0  0  0  0  0  0  0  0  0  0
  141.7300   79.1270  223.7800 C   0  0  0  0  0  0  0  0  0  0  0  0
  142.1300   80.2010  222.8240 C   0  0  0  0  0  0  0  0  0  0  0  0
  141.1480   80.4480  221.7110 C   0  0  0  0  0  0  0  0  0  0  0  0
  140.7660   79.1360  221.0150 C   0  0  1  0  0  0  0  0  0  0  0  0
  142.0330   78.6220  220.3910 C   0  0  0  0  0  0  0  0  0  0  0  0
  142.0600   77.1930  220.1980 N   0  0  0  0  0  0  0  0  0  0  0  0
  142.9500   76.9720  219.0530 C   0  0  0  0  0  0  0  0  0  0  0  0
  142.4260   75.9150  218.0890 C   0  0  0  0  0  0  0  0  0  0  0  0
  142.5690   77.3320  217.6870 C   0  0  0  0  0  0  0  0  0  0  0  0
  141.4160   73.9090  221.0640 C   0  0  0  0  0  0  0  0  0  0  0  0
  141.3020   72.5780  220.7150 C   0  0  0  0  0  0  0  0  0  0  0  0
  142.4100   71.8510  220.2970 C   0  0  0  0  0  0  0  0  0  0  0  0
  143.6480   72.4560  220.2240 C   0  0  0  0  0  0  0  0  0  0  0  0
  144.7430   71.7220  219.8070 C   0  0  0  0  0  0  0  0  0  0  0  0
  145.9500   72.3930  219.7590 C   0  0  0  0  0  0  0  0  0  0  0  0
  146.0590   73.7260  220.1090 C   0  0  0  0  0  0  0  0  0  0  0  0
  144.9430   74.4370  220.5240 C   0  0  0  0  0  0  0  0  0  0  0  0
  143.7260   73.7870  220.5800 C   0  0  0  0  0  0  0  0  0  0  0  0
  142.6280   74.4890  220.9890 N   0  0  0  0  0  0  0  0  0  0  0  0
  140.4370   76.3010  220.1480 H   0  0  0  0  0  0  0  0  0  0  0  0
  137.9457   76.6525  220.5679 H   0  0  0  0  0  0  0  0  0  0  0  0
  138.1893   75.8121  222.1532 H   0  0  0  0  0  0  0  0  0  0  0  0
  140.7347   77.2228  223.8269 H   0  0  0  0  0  0  0  0  0  0  0  0
  142.0708   77.3412  222.6331 H   0  0  0  0  0  0  0  0  0  0  0  0
  140.9315   79.5155  224.4291 H   0  0  0  0  0  0  0  0  0  0  0  0
  142.6262   78.8469  224.3530 H   0  0  0  0  0  0  0  0  0  0  0  0
  142.2494   81.1367  223.3899 H   0  0  0  0  0  0  0  0  0  0  0  0
  143.0618   79.8623  222.3475 H   0  0  0  0  0  0  0  0  0  0  0  0
  140.2415   80.9118  222.1272 H   0  0  0  0  0  0  0  0  0  0  0  0
  141.6163   81.1140  220.9714 H   0  0  0  0  0  0  0  0  0  0  0  0
  139.9942   79.2360  220.2377 H   0  0  0  0  0  0  0  0  0  0  0  0
  142.1550   79.1049  219.4102 H   0  0  0  0  0  0  0  0  0  0  0  0
  142.8488   78.8620  221.0888 H   0  0  0  0  0  0  0  0  0  0  0  0
  142.4340   76.6660  221.0180 H   0  0  0  0  0  0  0  0  0  0  0  0
  143.8538   77.1937  219.6395 H   0  0  0  0  0  0  0  0  0  0  0  0
  143.1045   75.1514  217.6808 H   0  0  0  0  0  0  0  0  0  0  0  0
  141.6105   75.1768  218.0967 H   0  0  0  0  0  0  0  0  0  0  0  0
  143.3469   77.6155  216.9627 H   0  0  0  0  0  0  0  0  0  0  0  0
  141.8833   78.0767  217.2565 H   0  0  0  0  0  0  0  0  0  0  0  0
  140.3197   72.0859  220.7686 H   0  0  0  0  0  0  0  0  0  0  0  0
  142.3000   70.7912  220.0238 H   0  0  0  0  0  0  0  0  0  0  0  0
  144.6579   70.6612  219.5285 H   0  0  0  0  0  0  0  0  0  0  0  0
  146.8499   71.8510  219.4330 H   0  0  0  0  0  0  0  0  0  0  0  0
  147.0375   74.2260  220.0579 H   0  0  0  0  0  0  0  0  0  0  0  0
  145.0256   75.4978  220.8031 H   0  0  0  0  0  0  0  0  0  0  0  0
  1  2  2  0
  2  3  1  0
  3  4  1  0
  4  5  1  0
  5  6  2  0
  5  7  1  0
  7  8  1  0
  8  9  1  0
  9 10  1  0
 10 11  1  0
 11 12  1  0
 12 13  1  0
 13 14  1  0
 14 15  1  0
 15 16  1  0
 16 17  1  0
  2 18  1  0
 18 19  2  0
 19 20  1  0
 20 21  2  0
 21 22  1  0
 22 23  2  0
 23 24  1  0
 24 25  2  0
 25 26  1  0
 26 27  2  0
 12  7  1  0
 17 15  1  0
 27 18  1  0
 26 21  1  0
  3 28  1  0
  4 29  1  0
  4 30  1  0
  8 31  1  0
  8 32  1  0
  9 33  1  0
  9 34  1  0
 10 35  1  0
 10 36  1  0
 11 37  1  0
 11 38  1  0
 12 39  1  6
 13 40  1  0
 13 41  1  0
 14 42  1  0
 15 43  1  0
 16 44  1  0
 16 45  1  0
 17 46  1  0
 17 47  1  0
 19 48  1  0
 20 49  1  0
 22 50  1  0
 23 51  1  0
 24 52  1  0
 25 53  1  0
M  END
>  <smiles>  (20) 
O=C(NCC(=O)N1CCCC[C@H]1CNC1CC1)c1ccc2ccccc2n1

>  <score_type>  (20) 
oracle

>  <origin>  (20) 
autodockgpu

>  <m_score__min__energy>  (20) 
-8.3200000000000003

>  <m_primary>  (20) 
energy

>  <rmsd>  (20) 
5.987733313438522

>  <m_score__min__rmsd>  (20) 
5.987733313438522

>  <meeko>  (20) 
{"free_energy": -6.19, "intermolecular_energy": -8.28, "internal_energy": -3.71, "cluster_size": 18, "cluster_id": 4, "rank_in_cluster": 14}

>  <energy>  (20) 
-6.75

>  <cluster_rmsd>  (20) 
0.3

>  <cluster>  (20) 
3

$$$$

     RDKit          3D

 53 56  0  0  0  0  0  0  0  0999 V2000
  139.5630   74.3920  222.7030 O   0  0  0  0  0  0  0  0  0  0  0  0
  140.1380   74.7410  221.6180 C   0  0  0  0  0  0  0  0  0  0  0  0
  139.5890   75.8460  220.8960 N   0  0  0  0  0  0  0  0  0  0  0  0
  138.4130   76.4720  221.4760 C   0  0  0  0  0  0  0  0  0  0  0  0
  138.7470   77.7530  222.1110 C   0  0  0  0  0  0  0  0  0  0  0  0
  137.9090   78.5010  222.6940 O   0  0  0  0  0  0  0  0  0  0  0  0
  140.1010   78.1930  222.0760 N   0  0  0  0  0  0  0  0  0  0  0  0
  141.0840   77.7640  223.0730 C   0  0  0  0  0  0  0  0  0  0  0  0
  141.6470   78.9810  223.7790 C   0  0  0  0  0  0  0  0  0  0  0  0
  142.0490   80.0690  222.8400 C   0  0  0  0  0  0  0  0  0  0  0  0
  141.0390   80.3750  221.7660 C   0  0  0  0  0  0  0  0  0  0  0  0
  140.5970   79.0930  221.0480 C   0  0  1  0  0  0  0  0  0  0  0  0
  141.8280   78.5610  220.3700 C   0  0  0  0  0  0  0  0  0  0  0  0
  141.8920   77.1220  220.3040 N   0  0  0  0  0  0  0  0  0  0  0  0
  142.0380   76.8040  218.8790 C   0  0  0  0  0  0  0  0  0  0  0  0
  142.8910   77.8170  218.1290 C   0  0  0  0  0  0  0  0  0  0  0  0
  143.3200   76.4110  218.2950 C   0  0  0  0  0  0  0  0  0  0  0  0
  141.3180   74.0400  221.1270 C   0  0  0  0  0  0  0  0  0  0  0  0
  141.1590   72.7670  220.6190 C   0  0  0  0  0  0  0  0  0  0  0  0
  142.2460   72.0490  220.1360 C   0  0  0  0  0  0  0  0  0  0  0  0
  143.5080   72.6050  220.1570 C   0  0  0  0  0  0  0  0  0  0  0  0
  144.5820   71.8810  219.6730 C   0  0  0  0  0  0  0  0  0  0  0  0
  145.8150   72.5010  219.7250 C   0  0  0  0  0  0  0  0  0  0  0  0
  145.9700   73.7770  220.2350 C   0  0  0  0  0  0  0  0  0  0  0  0
  144.8740   74.4800  220.7140 C   0  0  0  0  0  0  0  0  0  0  0  0
  143.6320   73.8800  220.6710 C   0  0  0  0  0  0  0  0  0  0  0  0
  142.5540   74.5730  221.1430 N   0  0  0  0  0  0  0  0  0  0  0  0
  140.0210   76.1760  219.9970 H   0  0  0  0  0  0  0  0  0  0  0  0
  137.6728   76.6484  220.6817 H   0  0  0  0  0  0  0  0  0  0  0  0
  138.0064   75.7994  222.2456 H   0  0  0  0  0  0  0  0  0  0  0  0
  140.5982   77.1052  223.8078 H   0  0  0  0  0  0  0  0  0  0  0  0
  141.8987   77.2177  222.5751 H   0  0  0  0  0  0  0  0  0  0  0  0
  140.8808   79.3745  224.4632 H   0  0  0  0  0  0  0  0  0  0  0  0
  142.5521   78.6596  224.3152 H   0  0  0  0  0  0  0  0  0  0  0  0
  142.2142   80.9848  223.4265 H   0  0  0  0  0  0  0  0  0  0  0  0
  142.9550   79.7172  222.3248 H   0  0  0  0  0  0  0  0  0  0  0  0
  140.1601   80.8526  222.2238 H   0  0  0  0  0  0  0  0  0  0  0  0
  141.5024   81.0480  221.0296 H   0  0  0  0  0  0  0  0  0  0  0  0
  139.8043   79.2355  220.2988 H   0  0  0  0  0  0  0  0  0  0  0  0
  141.8536   78.9548  219.3432 H   0  0  0  0  0  0  0  0  0  0  0  0
  142.6874   78.8880  220.9738 H   0  0  0  0  0  0  0  0  0  0  0  0
  142.7020   76.7130  220.8230 H   0  0  0  0  0  0  0  0  0  0  0  0
  141.0396   76.3460  218.8200 H   0  0  0  0  0  0  0  0  0  0  0  0
  142.5738   78.1874  217.1430 H   0  0  0  0  0  0  0  0  0  0  0  0
  143.3220   78.8038  218.3537 H   0  0  0  0  0  0  0  0  0  0  0  0
  143.3373   75.7414  217.4224 H   0  0  0  0  0  0  0  0  0  0  0  0
  144.2258   75.9306  218.6934 H   0  0  0  0  0  0  0  0  0  0  0  0
  140.1569   72.3139  220.5961 H   0  0  0  0  0  0  0  0  0  0  0  0
  142.0998   71.0348  219.7360 H   0  0  0  0  0  0  0  0  0  0  0  0
  144.4608   70.8654  219.2682 H   0  0  0  0  0  0  0  0  0  0  0  0
  146.6990   71.9645  219.3500 H   0  0  0  0  0  0  0  0  0  0  0  0
  146.9686   74.2376  220.2611 H   0  0  0  0  0  0  0  0  0  0  0  0
  144.9927   75.4954  221.1200 H   0  0  0  0  0  0  0  0  0  0  0  0
  1  2  2  0
  2  3  1  0
  3  4  1  0
  4  5  1  0
  5  6  2  0
  5  7  1  0
  7  8  1  0
  8  9  1  0
  9 10  1  0
 10 11  1  0
 11 12  1  0
 12 13  1  0
 13 14  1  0
 14 15  1  0
 15 16  1  0
 16 17  1  0
  2 18  1  0
 18 19  2  0
 19 20  1  0
 20 21  2  0
 21 22  1  0
 22 23  2  0
 23 24  1  0
 24 25  2  0
 25 26  1  0
 26 27  2  0
 12  7  1  0
 17 15  1  0
 27 18  1  0
 26 21  1  0
  3 28  1  0
  4 29  1  0
  4 30  1  0
  8 31  1  0
  8 32  1  0
  9 33  1  0
  9 34  1  0
 10 35  1  0
 10 36  1  0
 11 37  1  0
 11 38  1  0
 12 39  1  6
 13 40  1  0
 13 41  1  0
 14 42  1  0
 15 43  1  0
 16 44  1  0
 16 45  1  0
 17 46  1  0
 17 47  1  0
 19 48  1  0
 20 49  1  0
 22 50  1  0
 23 51  1  0
 24 52  1  0
 25 53  1  0
M  END
>  <smiles>  (21) 
O=C(NCC(=O)N1CCCC[C@H]1CNC1CC1)c1ccc2ccccc2n1

>  <score_type>  (21) 
oracle

>  <origin>  (21) 
autodockgpu

>  <m_score__min__energy>  (21) 
-8.3200000000000003

>  <m_primary>  (21) 
energy

>  <rmsd>  (21) 
5.954473690038396

>  <m_score__min__rmsd>  (21) 
5.954473690038396

>  <meeko>  (21) 
{"free_energy": -6.07, "intermolecular_energy": -8.15, "internal_energy": -3.66, "cluster_size": 18, "cluster_id": 4, "rank_in_cluster": 17}

>  <energy>  (21) 
-6.66

>  <cluster_rmsd>  (21) 
0.51

>  <cluster>  (21) 
3

$$$$

     RDKit          3D

 53 56  0  0  0  0  0  0  0  0999 V2000
  138.8620   75.0520  222.1010 O   0  0  0  0  0  0  0  0  0  0  0  0
  140.0030   75.6130  221.9850 C   0  0  0  0  0  0  0  0  0  0  0  0
  141.0780   74.8370  221.4500 N   0  0  0  0  0  0  0  0  0  0  0  0
  140.7630   73.4660  221.0870 C   0  0  0  0  0  0  0  0  0  0  0  0
  141.9810   72.6730  220.8820 C   0  0  0  0  0  0  0  0  0  0  0  0
  142.1470   71.4950  221.3120 O   0  0  0  0  0  0  0  0  0  0  0  0
  143.0530   73.2580  220.1500 N   0  0  0  0  0  0  0  0  0  0  0  0
  143.4490   72.7700  218.8270 C   0  0  0  0  0  0  0  0  0  0  0  0
  144.9000   72.3340  218.8650 C   0  0  0  0  0  0  0  0  0  0  0  0
  145.7930   73.3290  219.5280 C   0  0  0  0  0  0  0  0  0  0  0  0
  145.2660   73.8780  220.8260 C   0  0  0  0  0  0  0  0  0  0  0  0
  143.8240   74.3780  220.6660 C   0  0  1  0  0  0  0  0  0  0  0  0
  143.8950   75.5180  219.6900 C   0  0  0  0  0  0  0  0  0  0  0  0
  143.1500   76.6870  220.0910 N   0  0  0  0  0  0  0  0  0  0  0  0
  142.1980   76.9340  219.0030 C   0  0  0  0  0  0  0  0  0  0  0  0
  141.8060   78.4010  218.8790 C   0  0  0  0  0  0  0  0  0  0  0  0
  142.5570   77.7040  217.8120 C   0  0  0  0  0  0  0  0  0  0  0  0
  140.2090   77.0010  222.3820 C   0  0  0  0  0  0  0  0  0  0  0  0
  139.0990   77.7740  222.6570 C   0  0  0  0  0  0  0  0  0  0  0  0
  139.2310   79.1030  223.0390 C   0  0  0  0  0  0  0  0  0  0  0  0
  140.4840   79.6710  223.1520 C   0  0  0  0  0  0  0  0  0  0  0  0
  140.6030   80.9940  223.5340 C   0  0  0  0  0  0  0  0  0  0  0  0
  141.8870   81.4940  223.6260 C   0  0  0  0  0  0  0  0  0  0  0  0
  142.9960   80.7150  223.3490 C   0  0  0  0  0  0  0  0  0  0  0  0
  142.8460   79.3900  222.9680 C   0  0  0  0  0  0  0  0  0  0  0  0
  141.5720   78.8690  222.8700 C   0  0  0  0  0  0  0  0  0  0  0  0
  141.4260   77.5640  222.4940 N   0  0  0  0  0  0  0  0  0  0  0  0
  142.0380   75.2470  221.3330 H   0  0  0  0  0  0  0  0  0  0  0  0
  140.1702   73.0095  221.8933 H   0  0  0  0  0  0  0  0  0  0  0  0
  140.1956   73.4790  220.1447 H   0  0  0  0  0  0  0  0  0  0  0  0
  142.8161   71.9151  218.5466 H   0  0  0  0  0  0  0  0  0  0  0  0
  143.3262   73.5743  218.0867 H   0  0  0  0  0  0  0  0  0  0  0  0
  144.9657   71.3836  219.4149 H   0  0  0  0  0  0  0  0  0  0  0  0
  145.2391   72.2316  217.8236 H   0  0  0  0  0  0  0  0  0  0  0  0
  146.7591   72.8427  219.7284 H   0  0  0  0  0  0  0  0  0  0  0  0
  145.8737   74.1826  218.8389 H   0  0  0  0  0  0  0  0  0  0  0  0
  145.2894   73.0850  221.5880 H   0  0  0  0  0  0  0  0  0  0  0  0
  145.8988   74.7244  221.1314 H   0  0  0  0  0  0  0  0  0  0  0  0
  143.3519   74.7265  221.5964 H   0  0  0  0  0  0  0  0  0  0  0  0
  144.9502   75.8053  219.5712 H   0  0  0  0  0  0  0  0  0  0  0  0
  143.4426   75.1608  218.7531 H   0  0  0  0  0  0  0  0  0  0  0  0
  142.6160   76.5590  220.9800 H   0  0  0  0  0  0  0  0  0  0  0  0
  141.7226   75.9487  219.1176 H   0  0  0  0  0  0  0  0  0  0  0  0
  140.7541   78.6828  218.7235 H   0  0  0  0  0  0  0  0  0  0  0  0
  141.9535   79.3094  219.4815 H   0  0  0  0  0  0  0  0  0  0  0  0
  142.0628   77.4849  216.8540 H   0  0  0  0  0  0  0  0  0  0  0  0
  143.5037   77.9042  217.2888 H   0  0  0  0  0  0  0  0  0  0  0  0
  138.0956   77.3313  222.5724 H   0  0  0  0  0  0  0  0  0  0  0  0
  138.3348   79.7042  223.2520 H   0  0  0  0  0  0  0  0  0  0  0  0
  139.7221   81.6154  223.7530 H   0  0  0  0  0  0  0  0  0  0  0  0
  142.0320   82.5417  223.9282 H   0  0  0  0  0  0  0  0  0  0  0  0
  144.0033   81.1492  223.4314 H   0  0  0  0  0  0  0  0  0  0  0  0
  143.7253   78.7666  222.7483 H   0  0  0  0  0  0  0  0  0  0  0  0
  1  2  2  0
  2  3  1  0
  3  4  1  0
  4  5  1  0
  5  6  2  0
  5  7  1  0
  7  8  1  0
  8  9  1  0
  9 10  1  0
 10 11  1  0
 11 12  1  0
 12 13  1  0
 13 14  1  0
 14 15  1  0
 15 16  1  0
 16 17  1  0
  2 18  1  0
 18 19  2  0
 19 20  1  0
 20 21  2  0
 21 22  1  0
 22 23  2  0
 23 24  1  0
 24 25  2  0
 25 26  1  0
 26 27  2  0
 12  7  1  0
 17 15  1  0
 27 18  1  0
 26 21  1  0
  3 28  1  0
  4 29  1  0
  4 30  1  0
  8 31  1  0
  8 32  1  0
  9 33  1  0
  9 34  1  0
 10 35  1  0
 10 36  1  0
 11 37  1  0
 11 38  1  0
 12 39  1  1
 13 40  1  0
 13 41  1  0
 14 42  1  0
 15 43  1  0
 16 44  1  0
 16 45  1  0
 17 46  1  0
 17 47  1  0
 19 48  1  0
 20 49  1  0
 22 50  1  0
 23 51  1  0
 24 52  1  0
 25 53  1  0
M  END
>  <smiles>  (22) 
O=C(NCC(=O)N1CCCC[C@H]1CNC1CC1)c1ccc2ccccc2n1

>  <score_type>  (22) 
oracle

>  <origin>  (22) 
autodockgpu

>  <m_score__min__energy>  (22) 
-8.3200000000000003

>  <m_primary>  (22) 
energy

>  <rmsd>  (22) 
7.204521442249705

>  <m_score__min__rmsd>  (22) 
7.204521442249705

>  <meeko>  (22) 
{"free_energy": -6.75, "intermolecular_energy": -8.83, "internal_energy": -3.37, "cluster_size": 13, "cluster_id": 3, "rank_in_cluster": 2}

>  <energy>  (22) 
-6.62

>  <cluster_rmsd>  (22) 
0.68

>  <cluster>  (22) 
3

$$$$

     RDKit          3D

 53 56  0  0  0  0  0  0  0  0999 V2000
  141.2770   72.0970  221.6240 O   0  0  0  0  0  0  0  0  0  0  0  0
  140.4190   72.3780  222.5260 C   0  0  0  0  0  0  0  0  0  0  0  0
  139.6140   73.5460  222.3430 N   0  0  0  0  0  0  0  0  0  0  0  0
  139.8560   74.3090  221.1310 C   0  0  0  0  0  0  0  0  0  0  0  0
  140.1280   75.7200  221.4320 C   0  0  0  0  0  0  0  0  0  0  0  0
  139.9290   76.2610  222.5580 O   0  0  0  0  0  0  0  0  0  0  0  0
  140.6540   76.5440  220.3960 N   0  0  0  0  0  0  0  0  0  0  0  0
  140.0170   76.6420  219.0820 C   0  0  0  0  0  0  0  0  0  0  0  0
  141.0010   76.2140  218.0120 C   0  0  0  0  0  0  0  0  0  0  0  0
  142.3480   76.8360  218.1730 C   0  0  0  0  0  0  0  0  0  0  0  0
  142.8900   76.8050  219.5770 C   0  0  0  0  0  0  0  0  0  0  0  0
  141.8560   77.3420  220.5760 C   0  0  1  0  0  0  0  0  0  0  0  0
  141.6430   78.7830  220.2070 C   0  0  0  0  0  0  0  0  0  0  0  0
  141.9920   79.7180  221.2470 N   0  0  0  0  0  0  0  0  0  0  0  0
  141.7580   79.0040  222.5070 C   0  0  0  0  0  0  0  0  0  0  0  0
  142.1690   79.8110  223.7320 C   0  0  0  0  0  0  0  0  0  0  0  0
  140.7580   79.4450  223.4800 C   0  0  0  0  0  0  0  0  0  0  0  0
  140.2590   71.5390  223.7080 C   0  0  0  0  0  0  0  0  0  0  0  0
  139.6190   70.3240  223.5650 C   0  0  0  0  0  0  0  0  0  0  0  0
  139.4370   69.4800  224.6540 C   0  0  0  0  0  0  0  0  0  0  0  0
  139.8980   69.8490  225.9020 C   0  0  0  0  0  0  0  0  0  0  0  0
  139.7110   69.0010  226.9770 C   0  0  0  0  0  0  0  0  0  0  0  0
  140.1980   69.4360  228.1940 C   0  0  0  0  0  0  0  0  0  0  0  0
  140.8390   70.6550  228.3320 C   0  0  0  0  0  0  0  0  0  0  0  0
  141.0120   71.4850  227.2340 C   0  0  0  0  0  0  0  0  0  0  0  0
  140.5330   71.0700  226.0080 C   0  0  0  0  0  0  0  0  0  0  0  0
  140.7040   71.8890  224.9280 N   0  0  0  0  0  0  0  0  0  0  0  0
  138.8930   73.8250  223.0540 H   0  0  0  0  0  0  0  0  0  0  0  0
  140.7229   73.8814  220.6060 H   0  0  0  0  0  0  0  0  0  0  0  0
  138.9545   74.2564  220.5028 H   0  0  0  0  0  0  0  0  0  0  0  0
  139.1344   75.9862  219.0523 H   0  0  0  0  0  0  0  0  0  0  0  0
  139.7067   77.6817  218.9009 H   0  0  0  0  0  0  0  0  0  0  0  0
  141.1127   75.1206  218.0563 H   0  0  0  0  0  0  0  0  0  0  0  0
  140.5990   76.5480  217.0441 H   0  0  0  0  0  0  0  0  0  0  0  0
  143.0534   76.2997  217.5212 H   0  0  0  0  0  0  0  0  0  0  0  0
  142.2347   77.8972  217.9065 H   0  0  0  0  0  0  0  0  0  0  0  0
  143.1424   75.7678  219.8427 H   0  0  0  0  0  0  0  0  0  0  0  0
  143.7855   77.4423  219.6218 H   0  0  0  0  0  0  0  0  0  0  0  0
  142.1608   77.2797  221.6311 H   0  0  0  0  0  0  0  0  0  0  0  0
  142.2569   79.0067  219.3221 H   0  0  0  0  0  0  0  0  0  0  0  0
  140.5658   78.9053  220.0211 H   0  0  0  0  0  0  0  0  0  0  0  0
  142.9910   80.0250  221.2180 H   0  0  0  0  0  0  0  0  0  0  0  0
  141.9476   78.0207  222.0517 H   0  0  0  0  0  0  0  0  0  0  0  0
  142.7287   79.3325  224.5492 H   0  0  0  0  0  0  0  0  0  0  0  0
  142.7204   80.7459  223.9106 H   0  0  0  0  0  0  0  0  0  0  0  0
  140.2651   78.7040  224.1264 H   0  0  0  0  0  0  0  0  0  0  0  0
  139.8218   80.0179  223.4067 H   0  0  0  0  0  0  0  0  0  0  0  0
  139.2479   70.0197  222.5752 H   0  0  0  0  0  0  0  0  0  0  0  0
  138.9245   68.5158  224.5214 H   0  0  0  0  0  0  0  0  0  0  0  0
  139.2018   68.0319  226.8692 H   0  0  0  0  0  0  0  0  0  0  0  0
  140.0728   68.7952  229.0792 H   0  0  0  0  0  0  0  0  0  0  0  0
  141.2134   70.9674  229.3180 H   0  0  0  0  0  0  0  0  0  0  0  0
  141.5208   72.4546  227.3384 H   0  0  0  0  0  0  0  0  0  0  0  0
  1  2  2  0
  2  3  1  0
  3  4  1  0
  4  5  1  0
  5  6  2  0
  5  7  1  0
  7  8  1  0
  8  9  1  0
  9 10  1  0
 10 11  1  0
 11 12  1  0
 12 13  1  0
 13 14  1  0
 14 15  1  0
 15 16  1  0
 16 17  1  0
  2 18  1  0
 18 19  2  0
 19 20  1  0
 20 21  2  0
 21 22  1  0
 22 23  2  0
 23 24  1  0
 24 25  2  0
 25 26  1  0
 26 27  2  0
 12  7  1  0
 17 15  1  0
 27 18  1  0
 26 21  1  0
  3 28  1  0
  4 29  1  0
  4 30  1  0
  8 31  1  0
  8 32  1  0
  9 33  1  0
  9 34  1  0
 10 35  1  0
 10 36  1  0
 11 37  1  0
 11 38  1  0
 12 39  1  1
 13 40  1  0
 13 41  1  0
 14 42  1  0
 15 43  1  0
 16 44  1  0
 16 45  1  0
 17 46  1  0
 17 47  1  0
 19 48  1  0
 20 49  1  0
 22 50  1  0
 23 51  1  0
 24 52  1  0
 25 53  1  0
M  END
>  <smiles>  (23) 
O=C(NCC(=O)N1CCCC[C@H]1CNC1CC1)c1ccc2ccccc2n1

>  <score_type>  (23) 
oracle

>  <origin>  (23) 
autodockgpu

>  <m_score__min__energy>  (23) 
-8.3200000000000003

>  <m_primary>  (23) 
energy

>  <rmsd>  (23) 
1.8456208770217044

>  <m_score__min__rmsd>  (23) 
1.8456208770217044

>  <meeko>  (23) 
{"free_energy": -8.13, "intermolecular_energy": -10.22, "internal_energy": -1.52, "cluster_size": 13, "cluster_id": 1, "rank_in_cluster": 3}

>  <energy>  (23) 
-6.59

>  <cluster_rmsd>  (23) 
0.25

>  <cluster>  (23) 
3

$$$$

     RDKit          3D

 53 56  0  0  0  0  0  0  0  0999 V2000
  139.7070   70.8770  221.5430 O   0  0  0  0  0  0  0  0  0  0  0  0
  139.7650   71.6380  222.5670 C   0  0  0  0  0  0  0  0  0  0  0  0
  139.5740   73.0410  222.3690 N   0  0  0  0  0  0  0  0  0  0  0  0
  139.3310   73.4700  221.0030 C   0  0  0  0  0  0  0  0  0  0  0  0
  138.3050   74.5180  220.9450 C   0  0  0  0  0  0  0  0  0  0  0  0
  137.2030   74.4070  220.3330 O   0  0  0  0  0  0  0  0  0  0  0  0
  138.5550   75.7460  221.6220 N   0  0  0  0  0  0  0  0  0  0  0  0
  137.7670   76.1700  222.7810 C   0  0  0  0  0  0  0  0  0  0  0  0
  137.1120   77.5030  222.4850 C   0  0  0  0  0  0  0  0  0  0  0  0
  138.0520   78.4980  221.8900 C   0  0  0  0  0  0  0  0  0  0  0  0
  138.9160   77.9600  220.7810 C   0  0  0  0  0  0  0  0  0  0  0  0
  139.6080   76.6590  221.2070 C   0  0  1  0  0  0  0  0  0  0  0  0
  140.5160   77.0340  222.3440 C   0  0  0  0  0  0  0  0  0  0  0  0
  141.4900   78.0460  222.0150 N   0  0  0  0  0  0  0  0  0  0  0  0
  141.7070   78.7970  223.2570 C   0  0  0  0  0  0  0  0  0  0  0  0
  142.5910   80.0210  223.0630 C   0  0  0  0  0  0  0  0  0  0  0  0
  141.1710   80.1420  223.4600 C   0  0  0  0  0  0  0  0  0  0  0  0
  140.0150   71.0980  223.8980 C   0  0  0  0  0  0  0  0  0  0  0  0
  140.6970   71.8840  224.8050 C   0  0  0  0  0  0  0  0  0  0  0  0
  140.9650   71.4250  226.0890 C   0  0  0  0  0  0  0  0  0  0  0  0
  140.5490   70.1670  226.4760 C   0  0  0  0  0  0  0  0  0  0  0  0
  140.8220   69.7220  227.7560 C   0  0  0  0  0  0  0  0  0  0  0  0
  140.3760   68.4540  228.0730 C   0  0  0  0  0  0  0  0  0  0  0  0
  139.6920   67.6700  227.1610 C   0  0  0  0  0  0  0  0  0  0  0  0
  139.4330   68.1440  225.8830 C   0  0  0  0  0  0  0  0  0  0  0  0
  139.8700   69.4080  225.5440 C   0  0  0  0  0  0  0  0  0  0  0  0
  139.6140   69.8740  224.2860 N   0  0  0  0  0  0  0  0  0  0  0  0
  139.6110   73.7120  223.1750 H   0  0  0  0  0  0  0  0  0  0  0  0
  140.2673   73.8620  220.5791 H   0  0  0  0  0  0  0  0  0  0  0  0
  138.9739   72.6038  220.4266 H   0  0  0  0  0  0  0  0  0  0  0  0
  136.9914   75.4190  222.9918 H   0  0  0  0  0  0  0  0  0  0  0  0
  138.4262   76.2713  223.6557 H   0  0  0  0  0  0  0  0  0  0  0  0
  136.2846   77.3375  221.7792 H   0  0  0  0  0  0  0  0  0  0  0  0
  136.7605   77.9155  223.4423 H   0  0  0  0  0  0  0  0  0  0  0  0
  137.4587   79.3327  221.4883 H   0  0  0  0  0  0  0  0  0  0  0  0
  138.7349   78.8024  222.6969 H   0  0  0  0  0  0  0  0  0  0  0  0
  138.2884   77.7620  219.8996 H   0  0  0  0  0  0  0  0  0  0  0  0
  139.6880   78.7068  220.5437 H   0  0  0  0  0  0  0  0  0  0  0  0
  140.1986   76.1730  220.4164 H   0  0  0  0  0  0  0  0  0  0  0  0
  139.8956   77.4086  223.1715 H   0  0  0  0  0  0  0  0  0  0  0  0
  141.0799   76.1277  222.6098 H   0  0  0  0  0  0  0  0  0  0  0  0
  142.4050   77.6590  221.6940 H   0  0  0  0  0  0  0  0  0  0  0  0
  141.6575   77.8920  223.8803 H   0  0  0  0  0  0  0  0  0  0  0  0
  143.3899   80.2482  223.7842 H   0  0  0  0  0  0  0  0  0  0  0  0
  143.2190   80.4187  222.2522 H   0  0  0  0  0  0  0  0  0  0  0  0
  140.9176   80.4784  224.4762 H   0  0  0  0  0  0  0  0  0  0  0  0
  140.3082   80.6899  223.0533 H   0  0  0  0  0  0  0  0  0  0  0  0
  141.0332   72.8881  224.5071 H   0  0  0  0  0  0  0  0  0  0  0  0
  141.5097   72.0654  226.7984 H   0  0  0  0  0  0  0  0  0  0  0  0
  141.3651   70.3442  228.4827 H   0  0  0  0  0  0  0  0  0  0  0  0
  140.5702   68.0558  229.0798 H   0  0  0  0  0  0  0  0  0  0  0  0
  139.3515   66.6650  227.4508 H   0  0  0  0  0  0  0  0  0  0  0  0
  138.8899   67.5242  225.1544 H   0  0  0  0  0  0  0  0  0  0  0  0
  1  2  2  0
  2  3  1  0
  3  4  1  0
  4  5  1  0
  5  6  2  0
  5  7  1  0
  7  8  1  0
  8  9  1  0
  9 10  1  0
 10 11  1  0
 11 12  1  0
 12 13  1  0
 13 14  1  0
 14 15  1  0
 15 16  1  0
 16 17  1  0
  2 18  1  0
 18 19  2  0
 19 20  1  0
 20 21  2  0
 21 22  1  0
 22 23  2  0
 23 24  1  0
 24 25  2  0
 25 26  1  0
 26 27  2  0
 12  7  1  0
 17 15  1  0
 27 18  1  0
 26 21  1  0
  3 28  1  0
  4 29  1  0
  4 30  1  0
  8 31  1  0
  8 32  1  0
  9 33  1  0
  9 34  1  0
 10 35  1  0
 10 36  1  0
 11 37  1  0
 11 38  1  0
 12 39  1  6
 13 40  1  0
 13 41  1  0
 14 42  1  0
 15 43  1  0
 16 44  1  0
 16 45  1  0
 17 46  1  0
 17 47  1  0
 19 48  1  0
 20 49  1  0
 22 50  1  0
 23 51  1  0
 24 52  1  0
 25 53  1  0
M  END
>  <smiles>  (24) 
O=C(NCC(=O)N1CCCC[C@H]1CNC1CC1)c1ccc2ccccc2n1

>  <score_type>  (24) 
oracle

>  <origin>  (24) 
autodockgpu

>  <m_score__min__energy>  (24) 
-8.3200000000000003

>  <m_primary>  (24) 
energy

>  <rmsd>  (24) 
3.2885093414664492

>  <m_score__min__rmsd>  (24) 
3.2885093414664492

>  <meeko>  (24) 
{"free_energy": -7.7, "intermolecular_energy": -9.78, "internal_energy": -1.3, "cluster_size": 13, "cluster_id": 1, "rank_in_cluster": 12}

>  <energy>  (24) 
-6.54

>  <cluster_rmsd>  (24) 
0.8

>  <cluster>  (24) 
3

$$$$

     RDKit          3D

 53 56  0  0  0  0  0  0  0  0999 V2000
  140.6990   71.4120  221.2650 O   0  0  0  0  0  0  0  0  0  0  0  0
  140.2960   72.0290  222.3070 C   0  0  0  0  0  0  0  0  0  0  0  0
  139.9340   73.4050  222.1710 N   0  0  0  0  0  0  0  0  0  0  0  0
  140.0620   73.9750  220.8410 C   0  0  0  0  0  0  0  0  0  0  0  0
  140.8740   75.1980  220.8590 C   0  0  0  0  0  0  0  0  0  0  0  0
  142.0760   75.2630  220.4690 O   0  0  0  0  0  0  0  0  0  0  0  0
  140.2790   76.3980  221.3430 N   0  0  0  0  0  0  0  0  0  0  0  0
  139.6640   76.4810  222.6690 C   0  0  0  0  0  0  0  0  0  0  0  0
  138.2090   76.8780  222.5250 C   0  0  0  0  0  0  0  0  0  0  0  0
  138.0050   78.0300  221.5980 C   0  0  0  0  0  0  0  0  0  0  0  0
  138.7640   77.9340  220.3010 C   0  0  0  0  0  0  0  0  0  0  0  0
  140.2440   77.6190  220.5540 C   0  0  1  0  0  0  0  0  0  0  0  0
  140.7890   78.7990  221.3080 C   0  0  0  0  0  0  0  0  0  0  0  0
  142.1710   78.6660  221.6960 N   0  0  0  0  0  0  0  0  0  0  0  0
  142.2210   79.0730  223.1050 C   0  0  0  0  0  0  0  0  0  0  0  0
  142.0530   80.5750  223.2950 C   0  0  0  0  0  0  0  0  0  0  0  0
  141.0540   79.6100  223.8040 C   0  0  0  0  0  0  0  0  0  0  0  0
  140.2060   71.3560  223.5980 C   0  0  0  0  0  0  0  0  0  0  0  0
  139.6010   70.1160  223.6490 C   0  0  0  0  0  0  0  0  0  0  0  0
  139.4850   69.4270  224.8490 C   0  0  0  0  0  0  0  0  0  0  0  0
  139.9780   69.9770  226.0150 C   0  0  0  0  0  0  0  0  0  0  0  0
  139.8570   69.2810  227.2030 C   0  0  0  0  0  0  0  0  0  0  0  0
  140.3730   69.8930  228.3290 C   0  0  0  0  0  0  0  0  0  0  0  0
  140.9780   71.1350  228.2730 C   0  0  0  0  0  0  0  0  0  0  0  0
  141.0850   71.8100  227.0660 C   0  0  0  0  0  0  0  0  0  0  0  0
  140.5770   71.2180  225.9280 C   0  0  0  0  0  0  0  0  0  0  0  0
  140.6830   71.8840  224.7400 N   0  0  0  0  0  0  0  0  0  0  0  0
  139.5960   73.9610  222.9960 H   0  0  0  0  0  0  0  0  0  0  0  0
  140.5403   73.2374  220.1799 H   0  0  0  0  0  0  0  0  0  0  0  0
  139.0567   74.2319  220.4759 H   0  0  0  0  0  0  0  0  0  0  0  0
  139.7298   75.5019  223.1660 H   0  0  0  0  0  0  0  0  0  0  0  0
  140.1922   77.2338  223.2725 H   0  0  0  0  0  0  0  0  0  0  0  0
  137.6471   76.0146  222.1392 H   0  0  0  0  0  0  0  0  0  0  0  0
  137.8544   77.1899  223.5185 H   0  0  0  0  0  0  0  0  0  0  0  0
  136.9323   78.0957  221.3636 H   0  0  0  0  0  0  0  0  0  0  0  0
  138.3887   78.9200  222.1182 H   0  0  0  0  0  0  0  0  0  0  0  0
  138.3258   77.1343  219.6858 H   0  0  0  0  0  0  0  0  0  0  0  0
  138.6947   78.9009  219.7812 H   0  0  0  0  0  0  0  0  0  0  0  0
  140.8420   77.4628  219.6440 H   0  0  0  0  0  0  0  0  0  0  0  0
  140.6942   79.6898  220.6697 H   0  0  0  0  0  0  0  0  0  0  0  0
  140.2060   78.8764  222.2376 H   0  0  0  0  0  0  0  0  0  0  0  0
  142.5370   77.6910  221.6170 H   0  0  0  0  0  0  0  0  0  0  0  0
  142.9241   78.2702  223.3717 H   0  0  0  0  0  0  0  0  0  0  0  0
  142.7026   81.1218  223.9943 H   0  0  0  0  0  0  0  0  0  0  0  0
  142.0333   81.4552  222.6355 H   0  0  0  0  0  0  0  0  0  0  0  0
  140.9513   79.4553  224.8882 H   0  0  0  0  0  0  0  0  0  0  0  0
  139.9675   79.4962  223.6752 H   0  0  0  0  0  0  0  0  0  0  0  0
  139.2052   69.6675  222.7259 H   0  0  0  0  0  0  0  0  0  0  0  0
  138.9990   68.4404  224.8704 H   0  0  0  0  0  0  0  0  0  0  0  0
  139.3757   68.2930  227.2494 H   0  0  0  0  0  0  0  0  0  0  0  0
  140.3004   69.3773  229.2979 H   0  0  0  0  0  0  0  0  0  0  0  0
  141.3769   71.5906  229.1913 H   0  0  0  0  0  0  0  0  0  0  0  0
  141.5656   72.7982  227.0170 H   0  0  0  0  0  0  0  0  0  0  0  0
  1  2  2  0
  2  3  1  0
  3  4  1  0
  4  5  1  0
  5  6  2  0
  5  7  1  0
  7  8  1  0
  8  9  1  0
  9 10  1  0
 10 11  1  0
 11 12  1  0
 12 13  1  0
 13 14  1  0
 14 15  1  0
 15 16  1  0
 16 17  1  0
  2 18  1  0
 18 19  2  0
 19 20  1  0
 20 21  2  0
 21 22  1  0
 22 23  2  0
 23 24  1  0
 24 25  2  0
 25 26  1  0
 26 27  2  0
 12  7  1  0
 17 15  1  0
 27 18  1  0
 26 21  1  0
  3 28  1  0
  4 29  1  0
  4 30  1  0
  8 31  1  0
  8 32  1  0
  9 33  1  0
  9 34  1  0
 10 35  1  0
 10 36  1  0
 11 37  1  0
 11 38  1  0
 12 39  1  6
 13 40  1  0
 13 41  1  0
 14 42  1  0
 15 43  1  0
 16 44  1  0
 16 45  1  0
 17 46  1  0
 17 47  1  0
 19 48  1  0
 20 49  1  0
 22 50  1  0
 23 51  1  0
 24 52  1  0
 25 53  1  0
M  END
>  <smiles>  (25) 
O=C(NCC(=O)N1CCCC[C@H]1CNC1CC1)c1ccc2ccccc2n1

>  <score_type>  (25) 
oracle

>  <origin>  (25) 
autodockgpu

>  <m_score__min__energy>  (25) 
-8.3200000000000003

>  <m_primary>  (25) 
energy

>  <rmsd>  (25) 
2.5561754048840593

>  <m_score__min__rmsd>  (25) 
2.5561754048840593

>  <meeko>  (25) 
{"free_energy": -7.8, "intermolecular_energy": -9.89, "internal_energy": -1.72, "cluster_size": 13, "cluster_id": 1, "rank_in_cluster": 10}

>  <energy>  (25) 
-6.52

>  <cluster_rmsd>  (25) 
0.49

>  <cluster>  (25) 
3

$$$$

     RDKit          3D

 53 56  0  0  0  0  0  0  0  0999 V2000
  138.8160   75.1610  222.0380 O   0  0  0  0  0  0  0  0  0  0  0  0
  139.9810   75.6800  221.9820 C   0  0  0  0  0  0  0  0  0  0  0  0
  141.0590   74.8560  221.5310 N   0  0  0  0  0  0  0  0  0  0  0  0
  140.7180   73.4890  221.1770 C   0  0  0  0  0  0  0  0  0  0  0  0
  141.9170   72.7040  220.8570 C   0  0  0  0  0  0  0  0  0  0  0  0
  142.1370   71.5310  221.2780 O   0  0  0  0  0  0  0  0  0  0  0  0
  142.9040   73.2910  220.0140 N   0  0  0  0  0  0  0  0  0  0  0  0
  143.0760   72.8850  218.6190 C   0  0  0  0  0  0  0  0  0  0  0  0
  144.4900   72.3800  218.4120 C   0  0  0  0  0  0  0  0  0  0  0  0
  145.5250   73.2800  219.0010 C   0  0  0  0  0  0  0  0  0  0  0  0
  145.2230   73.7560  220.3970 C   0  0  0  0  0  0  0  0  0  0  0  0
  143.8040   74.3320  220.4850 C   0  0  1  0  0  0  0  0  0  0  0  0
  143.7980   75.5370  219.5870 C   0  0  0  0  0  0  0  0  0  0  0  0
  143.0400   76.6530  220.0990 N   0  0  0  0  0  0  0  0  0  0  0  0
  142.0270   76.9380  219.0770 C   0  0  0  0  0  0  0  0  0  0  0  0
  141.4610   78.3480  219.1800 C   0  0  0  0  0  0  0  0  0  0  0  0
  142.2500   77.9100  218.0080 C   0  0  0  0  0  0  0  0  0  0  0  0
  140.2110   77.0690  222.3630 C   0  0  0  0  0  0  0  0  0  0  0  0
  139.1150   77.8680  222.6150 C   0  0  0  0  0  0  0  0  0  0  0  0
  139.2700   79.1990  222.9820 C   0  0  0  0  0  0  0  0  0  0  0  0
  140.5330   79.7420  223.1000 C   0  0  0  0  0  0  0  0  0  0  0  0
  140.6760   81.0680  223.4670 C   0  0  0  0  0  0  0  0  0  0  0  0
  141.9690   81.5430  223.5650 C   0  0  0  0  0  0  0  0  0  0  0  0
  143.0640   80.7370  223.3120 C   0  0  0  0  0  0  0  0  0  0  0  0
  142.8910   79.4110  222.9460 C   0  0  0  0  0  0  0  0  0  0  0  0
  141.6070   78.9140  222.8410 C   0  0  0  0  0  0  0  0  0  0  0  0
  141.4380   77.6080  222.4810 N   0  0  0  0  0  0  0  0  0  0  0  0
  142.0380   75.2300  221.4660 H   0  0  0  0  0  0  0  0  0  0  0  0
  140.1979   73.0188  222.0246 H   0  0  0  0  0  0  0  0  0  0  0  0
  140.0716   73.5125  220.2872 H   0  0  0  0  0  0  0  0  0  0  0  0
  142.3614   72.0838  218.3793 H   0  0  0  0  0  0  0  0  0  0  0  0
  142.8938   73.7470  217.9605 H   0  0  0  0  0  0  0  0  0  0  0  0
  144.5800   71.3890  218.8808 H   0  0  0  0  0  0  0  0  0  0  0  0
  144.6687   72.3401  217.3273 H   0  0  0  0  0  0  0  0  0  0  0  0
  146.4802   72.7350  219.0238 H   0  0  0  0  0  0  0  0  0  0  0  0
  145.5543   74.1777  218.3659 H   0  0  0  0  0  0  0  0  0  0  0  0
  145.3115   72.9089  221.0932 H   0  0  0  0  0  0  0  0  0  0  0  0
  145.9401   74.5473  220.6609 H   0  0  0  0  0  0  0  0  0  0  0  0
  143.4916   74.6311  221.4964 H   0  0  0  0  0  0  0  0  0  0  0  0
  144.8382   75.8641  219.4419 H   0  0  0  0  0  0  0  0  0  0  0  0
  143.3129   75.2294  218.6489 H   0  0  0  0  0  0  0  0  0  0  0  0
  142.5560   76.4510  221.0030 H   0  0  0  0  0  0  0  0  0  0  0  0
  141.6752   75.8961  219.0523 H   0  0  0  0  0  0  0  0  0  0  0  0
  140.3784   78.5193  219.0873 H   0  0  0  0  0  0  0  0  0  0  0  0
  141.5220   79.1702  219.9082 H   0  0  0  0  0  0  0  0  0  0  0  0
  141.7510   77.7740  217.0372 H   0  0  0  0  0  0  0  0  0  0  0  0
  143.1472   78.2977  217.5033 H   0  0  0  0  0  0  0  0  0  0  0  0
  138.1036   77.4451  222.5241 H   0  0  0  0  0  0  0  0  0  0  0  0
  138.3843   79.8210  223.1788 H   0  0  0  0  0  0  0  0  0  0  0  0
  139.8061   81.7099  223.6700 H   0  0  0  0  0  0  0  0  0  0  0  0
  142.1326   82.5921  223.8524 H   0  0  0  0  0  0  0  0  0  0  0  0
  144.0792   81.1509  223.4018 H   0  0  0  0  0  0  0  0  0  0  0  0
  143.7597   78.7674  222.7432 H   0  0  0  0  0  0  0  0  0  0  0  0
  1  2  2  0
  2  3  1  0
  3  4  1  0
  4  5  1  0
  5  6  2  0
  5  7  1  0
  7  8  1  0
  8  9  1  0
  9 10  1  0
 10 11  1  0
 11 12  1  0
 12 13  1  0
 13 14  1  0
 14 15  1  0
 15 16  1  0
 16 17  1  0
  2 18  1  0
 18 19  2  0
 19 20  1  0
 20 21  2  0
 21 22  1  0
 22 23  2  0
 23 24  1  0
 24 25  2  0
 25 26  1  0
 26 27  2  0
 12  7  1  0
 17 15  1  0
 27 18  1  0
 26 21  1  0
  3 28  1  0
  4 29  1  0
  4 30  1  0
  8 31  1  0
  8 32  1  0
  9 33  1  0
  9 34  1  0
 10 35  1  0
 10 36  1  0
 11 37  1  0
 11 38  1  0
 12 39  1  1
 13 40  1  0
 13 41  1  0
 14 42  1  0
 15 43  1  0
 16 44  1  0
 16 45  1  0
 17 46  1  0
 17 47  1  0
 19 48  1  0
 20 49  1  0
 22 50  1  0
 23 51  1  0
 24 52  1  0
 25 53  1  0
M  END
>  <smiles>  (26) 
O=C(NCC(=O)N1CCCC[C@H]1CNC1CC1)c1ccc2ccccc2n1

>  <score_type>  (26) 
oracle

>  <origin>  (26) 
autodockgpu

>  <m_score__min__energy>  (26) 
-8.3200000000000003

>  <m_primary>  (26) 
energy

>  <rmsd>  (26) 
7.1705922962609305

>  <m_score__min__rmsd>  (26) 
7.1705922962609305

>  <meeko>  (26) 
{"free_energy": -6.59, "intermolecular_energy": -8.68, "internal_energy": -3.51, "cluster_size": 13, "cluster_id": 3, "rank_in_cluster": 5}

>  <energy>  (26) 
-6.51

>  <cluster_rmsd>  (26) 
0.9

>  <cluster>  (26) 
3

$$$$

     RDKit          3D

 53 56  0  0  0  0  0  0  0  0999 V2000
  139.2660   74.4800  222.3450 O   0  0  0  0  0  0  0  0  0  0  0  0
  140.0900   75.2800  221.7880 C   0  0  0  0  0  0  0  0  0  0  0  0
  140.8980   74.7730  220.7230 N   0  0  0  0  0  0  0  0  0  0  0  0
  140.7000   73.3770  220.3750 C   0  0  0  0  0  0  0  0  0  0  0  0
  141.9540   72.6190  220.4660 C   0  0  0  0  0  0  0  0  0  0  0  0
  142.0580   71.4690  220.9840 O   0  0  0  0  0  0  0  0  0  0  0  0
  143.1390   73.2070  219.9390 N   0  0  0  0  0  0  0  0  0  0  0  0
  143.7380   72.7550  218.6810 C   0  0  0  0  0  0  0  0  0  0  0  0
  145.1570   72.2900  218.9380 C   0  0  0  0  0  0  0  0  0  0  0  0
  145.9450   73.2450  219.7720 C   0  0  0  0  0  0  0  0  0  0  0  0
  145.2210   73.7620  220.9860 C   0  0  0  0  0  0  0  0  0  0  0  0
  143.8310   74.2940  220.6130 C   0  0  1  0  0  0  0  0  0  0  0  0
  144.0750   75.4640  219.7020 C   0  0  0  0  0  0  0  0  0  0  0  0
  143.3390   76.6530  220.0570 N   0  0  0  0  0  0  0  0  0  0  0  0
  142.5970   77.0270  218.8470 C   0  0  0  0  0  0  0  0  0  0  0  0
  141.3060   77.7750  219.1510 C   0  0  0  0  0  0  0  0  0  0  0  0
  142.4280   78.4190  218.4340 C   0  0  0  0  0  0  0  0  0  0  0  0
  140.2070   76.6680  222.2190 C   0  0  0  0  0  0  0  0  0  0  0  0
  139.0540   77.3460  222.5610 C   0  0  0  0  0  0  0  0  0  0  0  0
  139.1020   78.6710  222.9790 C   0  0  0  0  0  0  0  0  0  0  0  0
  140.3120   79.3290  223.0590 C   0  0  0  0  0  0  0  0  0  0  0  0
  140.3470   80.6460  223.4770 C   0  0  0  0  0  0  0  0  0  0  0  0
  141.5920   81.2400  223.5330 C   0  0  0  0  0  0  0  0  0  0  0  0
  142.7440   80.5560  223.1900 C   0  0  0  0  0  0  0  0  0  0  0  0
  142.6790   79.2350  222.7740 C   0  0  0  0  0  0  0  0  0  0  0  0
  141.4440   78.6200  222.7110 C   0  0  0  0  0  0  0  0  0  0  0  0
  141.3810   77.3190  222.3010 N   0  0  0  0  0  0  0  0  0  0  0  0
  141.5930   75.3870  220.2300 H   0  0  0  0  0  0  0  0  0  0  0  0
  139.9650   72.9370  221.0650 H   0  0  0  0  0  0  0  0  0  0  0  0
  140.3398   73.3268  219.3369 H   0  0  0  0  0  0  0  0  0  0  0  0
  143.1473   71.9222  218.2716 H   0  0  0  0  0  0  0  0  0  0  0  0
  143.7483   73.5854  217.9596 H   0  0  0  0  0  0  0  0  0  0  0  0
  145.1191   71.3209  219.4571 H   0  0  0  0  0  0  0  0  0  0  0  0
  145.6592   72.2156  217.9622 H   0  0  0  0  0  0  0  0  0  0  0  0
  146.8583   72.7330  220.1094 H   0  0  0  0  0  0  0  0  0  0  0  0
  146.1499   74.1186  219.1358 H   0  0  0  0  0  0  0  0  0  0  0  0
  145.1098   72.9446  221.7136 H   0  0  0  0  0  0  0  0  0  0  0  0
  145.8070   74.5864  221.4185 H   0  0  0  0  0  0  0  0  0  0  0  0
  143.2190   74.6201  221.4669 H   0  0  0  0  0  0  0  0  0  0  0  0
  145.1485   75.7025  219.7266 H   0  0  0  0  0  0  0  0  0  0  0  0
  143.7281   75.1640  218.7021 H   0  0  0  0  0  0  0  0  0  0  0  0
  142.6580   76.5080  220.8350 H   0  0  0  0  0  0  0  0  0  0  0  0
  142.9388   76.1399  218.2936 H   0  0  0  0  0  0  0  0  0  0  0  0
  140.3787   77.5212  218.6164 H   0  0  0  0  0  0  0  0  0  0  0  0
  140.7173   77.9960  220.0535 H   0  0  0  0  0  0  0  0  0  0  0  0
  142.3234   78.6599  217.3658 H   0  0  0  0  0  0  0  0  0  0  0  0
  143.0091   79.3391  218.5944 H   0  0  0  0  0  0  0  0  0  0  0  0
  138.0840   76.8307  222.5019 H   0  0  0  0  0  0  0  0  0  0  0  0
  138.1731   79.1960  223.2466 H   0  0  0  0  0  0  0  0  0  0  0  0
  139.4318   81.1917  223.7504 H   0  0  0  0  0  0  0  0  0  0  0  0
  141.6699   82.2874  223.8598 H   0  0  0  0  0  0  0  0  0  0  0  0
  143.7183   81.0634  223.2476 H   0  0  0  0  0  0  0  0  0  0  0  0
  143.5929   78.6877  222.4996 H   0  0  0  0  0  0  0  0  0  0  0  0
  1  2  2  0
  2  3  1  0
  3  4  1  0
  4  5  1  0
  5  6  2  0
  5  7  1  0
  7  8  1  0
  8  9  1  0
  9 10  1  0
 10 11  1  0
 11 12  1  0
 12 13  1  0
 13 14  1  0
 14 15  1  0
 15 16  1  0
 16 17  1  0
  2 18  1  0
 18 19  2  0
 19 20  1  0
 20 21  2  0
 21 22  1  0
 22 23  2  0
 23 24  1  0
 24 25  2  0
 25 26  1  0
 26 27  2  0
 12  7  1  0
 17 15  1  0
 27 18  1  0
 26 21  1  0
  3 28  1  0
  4 29  1  0
  4 30  1  0
  8 31  1  0
  8 32  1  0
  9 33  1  0
  9 34  1  0
 10 35  1  0
 10 36  1  0
 11 37  1  0
 11 38  1  0
 12 39  1  1
 13 40  1  0
 13 41  1  0
 14 42  1  0
 15 43  1  0
 16 44  1  0
 16 45  1  0
 17 46  1  0
 17 47  1  0
 19 48  1  0
 20 49  1  0
 22 50  1  0
 23 51  1  0
 24 52  1  0
 25 53  1  0
M  END
>  <smiles>  (27) 
O=C(NCC(=O)N1CCCC[C@H]1CNC1CC1)c1ccc2ccccc2n1

>  <score_type>  (27) 
oracle

>  <origin>  (27) 
autodockgpu

>  <m_score__min__energy>  (27) 
-8.3200000000000003

>  <m_primary>  (27) 
energy

>  <rmsd>  (27) 
7.0687330694191735

>  <m_score__min__rmsd>  (27) 
7.0687330694191735

>  <meeko>  (27) 
{"free_energy": -6.62, "intermolecular_energy": -8.71, "internal_energy": -3.6, "cluster_size": 13, "cluster_id": 3, "rank_in_cluster": 4}

>  <energy>  (27) 
-6.51

>  <cluster_rmsd>  (27) 
0.81

>  <cluster>  (27) 
3

$$$$

     RDKit          3D

 53 56  0  0  0  0  0  0  0  0999 V2000
  141.0990   71.6970  221.4120 O   0  0  0  0  0  0  0  0  0  0  0  0
  140.5080   72.2220  222.4150 C   0  0  0  0  0  0  0  0  0  0  0  0
  140.0710   73.5790  222.2990 N   0  0  0  0  0  0  0  0  0  0  0  0
  140.3480   74.2370  221.0340 C   0  0  0  0  0  0  0  0  0  0  0  0
  140.3640   75.6970  221.1820 C   0  0  0  0  0  0  0  0  0  0  0  0
  139.5130   76.3570  221.8460 O   0  0  0  0  0  0  0  0  0  0  0  0
  141.4040   76.4310  220.5430 N   0  0  0  0  0  0  0  0  0  0  0  0
  141.7090   77.8180  220.8980 C   0  0  0  0  0  0  0  0  0  0  0  0
  141.5600   78.6950  219.6710 C   0  0  0  0  0  0  0  0  0  0  0  0
  142.2280   78.1310  218.4620 C   0  0  0  0  0  0  0  0  0  0  0  0
  141.9650   76.6680  218.2260 C   0  0  0  0  0  0  0  0  0  0  0  0
  142.2310   75.8500  219.4970 C   0  0  1  0  0  0  0  0  0  0  0  0
  143.6990   76.0040  219.7800 C   0  0  0  0  0  0  0  0  0  0  0  0
  144.4480   74.7740  219.7040 N   0  0  0  0  0  0  0  0  0  0  0  0
  143.4940   73.7140  220.0490 C   0  0  0  0  0  0  0  0  0  0  0  0
  143.7960   72.3940  219.3520 C   0  0  0  0  0  0  0  0  0  0  0  0
  143.8820   72.5350  220.8220 C   0  0  0  0  0  0  0  0  0  0  0  0
  140.2810   71.4660  223.6410 C   0  0  0  0  0  0  0  0  0  0  0  0
  139.6040   70.2670  223.5540 C   0  0  0  0  0  0  0  0  0  0  0  0
  139.3570   69.5020  224.6880 C   0  0  0  0  0  0  0  0  0  0  0  0
  139.7910   69.9350  225.9240 C   0  0  0  0  0  0  0  0  0  0  0  0
  139.5410   69.1660  227.0450 C   0  0  0  0  0  0  0  0  0  0  0  0
  140.0040   69.6620  228.2480 C   0  0  0  0  0  0  0  0  0  0  0  0
  140.6820   70.8650  228.3290 C   0  0  0  0  0  0  0  0  0  0  0  0
  140.9190   71.6160  227.1870 C   0  0  0  0  0  0  0  0  0  0  0  0
  140.4650   71.1390  225.9740 C   0  0  0  0  0  0  0  0  0  0  0  0
  140.6990   71.8800  224.8510 N   0  0  0  0  0  0  0  0  0  0  0  0
  139.5810   74.0600  223.0920 H   0  0  0  0  0  0  0  0  0  0  0  0
  141.3292   73.9040  220.6647 H   0  0  0  0  0  0  0  0  0  0  0  0
  139.5521   73.9698  220.3232 H   0  0  0  0  0  0  0  0  0  0  0  0
  141.0136   78.1585  221.6793 H   0  0  0  0  0  0  0  0  0  0  0  0
  142.7408   77.8832  221.2737 H   0  0  0  0  0  0  0  0  0  0  0  0
  140.4881   78.8146  219.4546 H   0  0  0  0  0  0  0  0  0  0  0  0
  142.0456   79.6563  219.8948 H   0  0  0  0  0  0  0  0  0  0  0  0
  141.8744   78.6894  217.5827 H   0  0  0  0  0  0  0  0  0  0  0  0
  143.3107   78.2301  218.6293 H   0  0  0  0  0  0  0  0  0  0  0  0
  140.9152   76.5350  217.9256 H   0  0  0  0  0  0  0  0  0  0  0  0
  142.6402   76.3137  217.4332 H   0  0  0  0  0  0  0  0  0  0  0  0
  141.9882   74.7803  219.4151 H   0  0  0  0  0  0  0  0  0  0  0  0
  144.1192   76.7095  219.0481 H   0  0  0  0  0  0  0  0  0  0  0  0
  143.7852   76.3630  220.8162 H   0  0  0  0  0  0  0  0  0  0  0  0
  144.8370   74.5780  218.7550 H   0  0  0  0  0  0  0  0  0  0  0  0
  142.6625   74.4236  220.1715 H   0  0  0  0  0  0  0  0  0  0  0  0
  142.9835   71.8081  218.8975 H   0  0  0  0  0  0  0  0  0  0  0  0
  144.4737   72.0629  218.5513 H   0  0  0  0  0  0  0  0  0  0  0  0
  143.1386   72.0349  221.4602 H   0  0  0  0  0  0  0  0  0  0  0  0
  144.6688   72.3332  221.5638 H   0  0  0  0  0  0  0  0  0  0  0  0
  139.2548   69.9114  222.5734 H   0  0  0  0  0  0  0  0  0  0  0  0
  138.8143   68.5493  224.5998 H   0  0  0  0  0  0  0  0  0  0  0  0
  139.0017   68.2093  226.9823 H   0  0  0  0  0  0  0  0  0  0  0  0
  139.8287   69.0842  229.1675 H   0  0  0  0  0  0  0  0  0  0  0  0
  141.0355   71.2284  229.3052 H   0  0  0  0  0  0  0  0  0  0  0  0
  141.4582   72.5729  227.2470 H   0  0  0  0  0  0  0  0  0  0  0  0
  1  2  2  0
  2  3  1  0
  3  4  1  0
  4  5  1  0
  5  6  2  0
  5  7  1  0
  7  8  1  0
  8  9  1  0
  9 10  1  0
 10 11  1  0
 11 12  1  0
 12 13  1  0
 13 14  1  0
 14 15  1  0
 15 16  1  0
 16 17  1  0
  2 18  1  0
 18 19  2  0
 19 20  1  0
 20 21  2  0
 21 22  1  0
 22 23  2  0
 23 24  1  0
 24 25  2  0
 25 26  1  0
 26 27  2  0
 12  7  1  0
 17 15  1  0
 27 18  1  0
 26 21  1  0
  3 28  1  0
  4 29  1  0
  4 30  1  0
  8 31  1  0
  8 32  1  0
  9 33  1  0
  9 34  1  0
 10 35  1  0
 10 36  1  0
 11 37  1  0
 11 38  1  0
 12 39  1  6
 13 40  1  0
 13 41  1  0
 14 42  1  0
 15 43  1  0
 16 44  1  0
 16 45  1  0
 17 46  1  0
 17 47  1  0
 19 48  1  0
 20 49  1  0
 22 50  1  0
 23 51  1  0
 24 52  1  0
 25 53  1  0
M  END
>  <smiles>  (28) 
O=C(NCC(=O)N1CCCC[C@H]1CNC1CC1)c1ccc2ccccc2n1

>  <score_type>  (28) 
oracle

>  <origin>  (28) 
autodockgpu

>  <m_score__min__energy>  (28) 
-8.3200000000000003

>  <m_primary>  (28) 
energy

>  <rmsd>  (28) 
3.6917338362854983

>  <m_score__min__rmsd>  (28) 
3.6917338362854983

>  <meeko>  (28) 
{"free_energy": -7.37, "intermolecular_energy": -9.46, "internal_energy": -1.81, "cluster_size": 5, "cluster_id": 2, "rank_in_cluster": 2}

>  <energy>  (28) 
-6.46

>  <cluster_rmsd>  (28) 
1.05

>  <cluster>  (28) 
3

$$$$

     RDKit          3D

 53 56  0  0  0  0  0  0  0  0999 V2000
  141.3840   72.1160  221.6740 O   0  0  0  0  0  0  0  0  0  0  0  0
  140.4840   72.3680  222.5450 C   0  0  0  0  0  0  0  0  0  0  0  0
  139.6420   73.5030  222.3270 N   0  0  0  0  0  0  0  0  0  0  0  0
  139.8970   74.2690  221.1200 C   0  0  0  0  0  0  0  0  0  0  0  0
  141.1050   75.0930  221.2540 C   0  0  0  0  0  0  0  0  0  0  0  0
  141.3500   75.8460  222.2400 O   0  0  0  0  0  0  0  0  0  0  0  0
  142.0730   75.0480  220.2110 N   0  0  0  0  0  0  0  0  0  0  0  0
  142.9420   76.1860  219.9050 C   0  0  0  0  0  0  0  0  0  0  0  0
  142.7270   76.6110  218.4670 C   0  0  0  0  0  0  0  0  0  0  0  0
  142.7310   75.4650  217.5100 C   0  0  0  0  0  0  0  0  0  0  0  0
  141.9120   74.2810  217.9470 C   0  0  0  0  0  0  0  0  0  0  0  0
  142.2640   73.8680  219.3820 C   0  0  1  0  0  0  0  0  0  0  0  0
  143.7010   73.4300  219.3380 C   0  0  0  0  0  0  0  0  0  0  0  0
  143.9880   72.2610  220.1320 N   0  0  0  0  0  0  0  0  0  0  0  0
  145.4080   72.3670  220.4840 C   0  0  0  0  0  0  0  0  0  0  0  0
  145.9800   73.7550  220.2280 C   0  0  0  0  0  0  0  0  0  0  0  0
  145.8780   73.1950  221.5940 C   0  0  0  0  0  0  0  0  0  0  0  0
  140.3150   71.5280  223.7250 C   0  0  0  0  0  0  0  0  0  0  0  0
  139.6710   70.3160  223.5780 C   0  0  0  0  0  0  0  0  0  0  0  0
  139.4810   69.4720  224.6660 C   0  0  0  0  0  0  0  0  0  0  0  0
  139.9380   69.8380  225.9150 C   0  0  0  0  0  0  0  0  0  0  0  0
  139.7430   68.9900  226.9890 C   0  0  0  0  0  0  0  0  0  0  0  0
  140.2270   69.4210  228.2090 C   0  0  0  0  0  0  0  0  0  0  0  0
  140.8720   70.6370  228.3500 C   0  0  0  0  0  0  0  0  0  0  0  0
  141.0530   71.4670  227.2540 C   0  0  0  0  0  0  0  0  0  0  0  0
  140.5780   71.0560  226.0250 C   0  0  0  0  0  0  0  0  0  0  0  0
  140.7570   71.8750  224.9470 N   0  0  0  0  0  0  0  0  0  0  0  0
  138.8860   73.7570  223.0110 H   0  0  0  0  0  0  0  0  0  0  0  0
  140.0288   73.5750  220.2768 H   0  0  0  0  0  0  0  0  0  0  0  0
  139.0401   74.9364  220.9458 H   0  0  0  0  0  0  0  0  0  0  0  0
  142.6994   77.0237  220.5754 H   0  0  0  0  0  0  0  0  0  0  0  0
  143.9930   75.8948  220.0488 H   0  0  0  0  0  0  0  0  0  0  0  0
  141.7565   77.1237  218.3950 H   0  0  0  0  0  0  0  0  0  0  0  0
  143.5631   77.2707  218.1918 H   0  0  0  0  0  0  0  0  0  0  0  0
  142.3340   75.8203  216.5476 H   0  0  0  0  0  0  0  0  0  0  0  0
  143.7724   75.1167  217.4451 H   0  0  0  0  0  0  0  0  0  0  0  0
  140.8451   74.5447  217.9001 H   0  0  0  0  0  0  0  0  0  0  0  0
  142.1305   73.4371  217.2761 H   0  0  0  0  0  0  0  0  0  0  0  0
  141.6486   73.0526  219.7900 H   0  0  0  0  0  0  0  0  0  0  0  0
  143.9624   73.2094  218.2925 H   0  0  0  0  0  0  0  0  0  0  0  0
  144.2951   74.2531  219.7617 H   0  0  0  0  0  0  0  0  0  0  0  0
  143.4290   72.2050  221.0130 H   0  0  0  0  0  0  0  0  0  0  0  0
  145.6104   71.3180  220.2220 H   0  0  0  0  0  0  0  0  0  0  0  0
  146.9628   73.8700  219.7476 H   0  0  0  0  0  0  0  0  0  0  0  0
  145.6338   74.6690  219.7233 H   0  0  0  0  0  0  0  0  0  0  0  0
  146.7929   72.9108  222.1345 H   0  0  0  0  0  0  0  0  0  0  0  0
  145.4220   73.5462  222.5314 H   0  0  0  0  0  0  0  0  0  0  0  0
  139.3031   70.0139  222.5863 H   0  0  0  0  0  0  0  0  0  0  0  0
  138.9650   68.5100  224.5307 H   0  0  0  0  0  0  0  0  0  0  0  0
  139.2297   68.0234  226.8782 H   0  0  0  0  0  0  0  0  0  0  0  0
  140.0960   68.7796  229.0930 H   0  0  0  0  0  0  0  0  0  0  0  0
  141.2435   70.9473  229.3378 H   0  0  0  0  0  0  0  0  0  0  0  0
  141.5653   72.4344  227.3620 H   0  0  0  0  0  0  0  0  0  0  0  0
  1  2  2  0
  2  3  1  0
  3  4  1  0
  4  5  1  0
  5  6  2  0
  5  7  1  0
  7  8  1  0
  8  9  1  0
  9 10  1  0
 10 11  1  0
 11 12  1  0
 12 13  1  0
 13 14  1  0
 14 15  1  0
 15 16  1  0
 16 17  1  0
  2 18  1  0
 18 19  2  0
 19 20  1  0
 20 21  2  0
 21 22  1  0
 22 23  2  0
 23 24  1  0
 24 25  2  0
 25 26  1  0
 26 27  2  0
 12  7  1  0
 17 15  1  0
 27 18  1  0
 26 21  1  0
  3 28  1  0
  4 29  1  0
  4 30  1  0
  8 31  1  0
  8 32  1  0
  9 33  1  0
  9 34  1  0
 10 35  1  0
 10 36  1  0
 11 37  1  0
 11 38  1  0
 12 39  1  1
 13 40  1  0
 13 41  1  0
 14 42  1  0
 15 43  1  0
 16 44  1  0
 16 45  1  0
 17 46  1  0
 17 47  1  0
 19 48  1  0
 20 49  1  0
 22 50  1  0
 23 51  1  0
 24 52  1  0
 25 53  1  0
M  END
>  <smiles>  (29) 
O=C(NCC(=O)N1CCCC[C@H]1CNC1CC1)c1ccc2ccccc2n1

>  <score_type>  (29) 
oracle

>  <origin>  (29) 
autodockgpu

>  <m_score__min__energy>  (29) 
-8.3200000000000003

>  <m_primary>  (29) 
energy

>  <rmsd>  (29) 
4.033622877586235

>  <m_score__min__rmsd>  (29) 
4.033622877586235

>  <meeko>  (29) 
{"free_energy": -7.34, "intermolecular_energy": -9.43, "internal_energy": -2.34, "cluster_size": 5, "cluster_id": 2, "rank_in_cluster": 3}

>  <energy>  (29) 
-6.31

>  <cluster_rmsd>  (29) 
0.87

>  <cluster>  (29) 
3

$$$$

     RDKit          3D

 53 56  0  0  0  0  0  0  0  0999 V2000
  138.7520   74.7660  221.8790 O   0  0  0  0  0  0  0  0  0  0  0  0
  139.9560   75.1910  221.8840 C   0  0  0  0  0  0  0  0  0  0  0  0
  140.1900   76.5320  222.3190 N   0  0  0  0  0  0  0  0  0  0  0  0
  139.0180   77.2920  222.7190 C   0  0  0  0  0  0  0  0  0  0  0  0
  139.3710   78.6710  223.0790 C   0  0  0  0  0  0  0  0  0  0  0  0
  138.7390   79.3740  223.9200 O   0  0  0  0  0  0  0  0  0  0  0  0
  140.5000   79.2660  222.4480 N   0  0  0  0  0  0  0  0  0  0  0  0
  141.6670   79.7180  223.2070 C   0  0  0  0  0  0  0  0  0  0  0  0
  141.8800   81.2000  222.9680 C   0  0  0  0  0  0  0  0  0  0  0  0
  141.8080   81.5770  221.5260 C   0  0  0  0  0  0  0  0  0  0  0  0
  140.6470   80.9780  220.7780 C   0  0  0  0  0  0  0  0  0  0  0  0
  140.5690   79.4630  221.0080 C   0  0  1  0  0  0  0  0  0  0  0  0
  141.8270   78.8960  220.4150 C   0  0  0  0  0  0  0  0  0  0  0  0
  141.8620   77.4540  220.3690 N   0  0  0  0  0  0  0  0  0  0  0  0
  141.9970   77.1140  218.9480 C   0  0  0  0  0  0  0  0  0  0  0  0
  142.8090   78.1380  218.1670 C   0  0  0  0  0  0  0  0  0  0  0  0
  143.2810   76.7480  218.3520 C   0  0  0  0  0  0  0  0  0  0  0  0
  141.0610   74.3390  221.4610 C   0  0  0  0  0  0  0  0  0  0  0  0
  140.8420   72.9790  221.3700 C   0  0  0  0  0  0  0  0  0  0  0  0
  141.8560   72.1170  220.9730 C   0  0  0  0  0  0  0  0  0  0  0  0
  143.1050   72.6130  220.6610 C   0  0  0  0  0  0  0  0  0  0  0  0
  144.1060   71.7450  220.2660 C   0  0  0  0  0  0  0  0  0  0  0  0
  145.3300   72.3120  219.9700 C   0  0  0  0  0  0  0  0  0  0  0  0
  145.5450   73.6760  220.0620 C   0  0  0  0  0  0  0  0  0  0  0  0
  144.5210   74.5220  220.4610 C   0  0  0  0  0  0  0  0  0  0  0  0
  143.2900   73.9770  220.7620 C   0  0  0  0  0  0  0  0  0  0  0  0
  142.2820   74.8130  221.1550 N   0  0  0  0  0  0  0  0  0  0  0  0
  141.1600   76.9330  222.3430 H   0  0  0  0  0  0  0  0  0  0  0  0
  138.3023   77.3121  221.8839 H   0  0  0  0  0  0  0  0  0  0  0  0
  138.5750   76.8065  223.6011 H   0  0  0  0  0  0  0  0  0  0  0  0
  141.4989   79.5396  224.2794 H   0  0  0  0  0  0  0  0  0  0  0  0
  142.5571   79.1612  222.8787 H   0  0  0  0  0  0  0  0  0  0  0  0
  141.1053   81.7576  223.5147 H   0  0  0  0  0  0  0  0  0  0  0  0
  142.8920   81.4469  223.3213 H   0  0  0  0  0  0  0  0  0  0  0  0
  141.7292   82.6723  221.4614 H   0  0  0  0  0  0  0  0  0  0  0  0
  142.7197   81.1810  221.0547 H   0  0  0  0  0  0  0  0  0  0  0  0
  139.7142   81.4438  221.1285 H   0  0  0  0  0  0  0  0  0  0  0  0
  140.7891   81.1629  219.7030 H   0  0  0  0  0  0  0  0  0  0  0  0
  139.6989   78.9721  220.5477 H   0  0  0  0  0  0  0  0  0  0  0  0
  141.9259   79.2764  219.3876 H   0  0  0  0  0  0  0  0  0  0  0  0
  142.6542   79.2115  221.0679 H   0  0  0  0  0  0  0  0  0  0  0  0
  142.6650   77.0370  220.8900 H   0  0  0  0  0  0  0  0  0  0  0  0
  141.0119   76.6258  218.9123 H   0  0  0  0  0  0  0  0  0  0  0  0
  142.4668   78.4808  217.1794 H   0  0  0  0  0  0  0  0  0  0  0  0
  143.2142   79.1408  218.3674 H   0  0  0  0  0  0  0  0  0  0  0  0
  143.3052   76.0632  217.4915 H   0  0  0  0  0  0  0  0  0  0  0  0
  144.2061   76.3014  218.7454 H   0  0  0  0  0  0  0  0  0  0  0  0
  139.8499   72.5722  221.6155 H   0  0  0  0  0  0  0  0  0  0  0  0
  141.6628   71.0361  220.9072 H   0  0  0  0  0  0  0  0  0  0  0  0
  143.9366   70.6607  220.1915 H   0  0  0  0  0  0  0  0  0  0  0  0
  146.1576   71.6609  219.6520 H   0  0  0  0  0  0  0  0  0  0  0  0
  146.5337   74.0915  219.8173 H   0  0  0  0  0  0  0  0  0  0  0  0
  144.6872   75.6068  220.5360 H   0  0  0  0  0  0  0  0  0  0  0  0
  1  2  2  0
  2  3  1  0
  3  4  1  0
  4  5  1  0
  5  6  2  0
  5  7  1  0
  7  8  1  0
  8  9  1  0
  9 10  1  0
 10 11  1  0
 11 12  1  0
 12 13  1  0
 13 14  1  0
 14 15  1  0
 15 16  1  0
 16 17  1  0
  2 18  1  0
 18 19  2  0
 19 20  1  0
 20 21  2  0
 21 22  1  0
 22 23  2  0
 23 24  1  0
 24 25  2  0
 25 26  1  0
 26 27  2  0
 12  7  1  0
 17 15  1  0
 27 18  1  0
 26 21  1  0
  3 28  1  0
  4 29  1  0
  4 30  1  0
  8 31  1  0
  8 32  1  0
  9 33  1  0
  9 34  1  0
 10 35  1  0
 10 36  1  0
 11 37  1  0
 11 38  1  0
 12 39  1  6
 13 40  1  0
 13 41  1  0
 14 42  1  0
 15 43  1  0
 16 44  1  0
 16 45  1  0
 17 46  1  0
 17 47  1  0
 19 48  1  0
 20 49  1  0
 22 50  1  0
 23 51  1  0
 24 52  1  0
 25 53  1  0
M  END
>  <smiles>  (30) 
O=C(NCC(=O)N1CCCC[C@H]1CNC1CC1)c1ccc2ccccc2n1

>  <score_type>  (30) 
oracle

>  <origin>  (30) 
autodockgpu

>  <m_score__min__energy>  (30) 
-8.3200000000000003

>  <m_primary>  (30) 
energy

>  <rmsd>  (30) 
6.04670965967601

>  <m_score__min__rmsd>  (30) 
6.04670965967601

>  <meeko>  (30) 
{"free_energy": -6.12, "intermolecular_energy": -8.2, "internal_energy": -3.41, "cluster_size": 18, "cluster_id": 4, "rank_in_cluster": 16}

>  <energy>  (30) 
-6.18

>  <cluster_rmsd>  (30) 
1.14

>  <cluster>  (30) 
3

$$$$

     RDKit          3D

 53 56  0  0  0  0  0  0  0  0999 V2000
  141.3160   72.4030  221.8520 O   0  0  0  0  0  0  0  0  0  0  0  0
  140.3120   72.4770  222.6380 C   0  0  0  0  0  0  0  0  0  0  0  0
  139.3110   73.4580  222.3530 N   0  0  0  0  0  0  0  0  0  0  0  0
  139.5370   74.2850  221.1810 C   0  0  0  0  0  0  0  0  0  0  0  0
  140.5190   75.3420  221.4540 C   0  0  0  0  0  0  0  0  0  0  0  0
  141.7620   75.1460  221.5850 O   0  0  0  0  0  0  0  0  0  0  0  0
  140.0530   76.6820  221.5800 N   0  0  0  0  0  0  0  0  0  0  0  0
  139.2090   77.1100  222.6970 C   0  0  0  0  0  0  0  0  0  0  0  0
  137.9010   77.6560  222.1590 C   0  0  0  0  0  0  0  0  0  0  0  0
  138.0860   78.6130  221.0290 C   0  0  0  0  0  0  0  0  0  0  0  0
  139.0610   78.1590  219.9760 C   0  0  0  0  0  0  0  0  0  0  0  0
  140.3850   77.7120  220.6080 C   0  0  1  0  0  0  0  0  0  0  0  0
  140.9610   78.9400  221.2560 C   0  0  0  0  0  0  0  0  0  0  0  0
  142.1860   78.7070  221.9800 N   0  0  0  0  0  0  0  0  0  0  0  0
  141.9090   79.1240  223.3590 C   0  0  0  0  0  0  0  0  0  0  0  0
  142.5550   80.4560  223.7180 C   0  0  0  0  0  0  0  0  0  0  0  0
  141.0850   80.2910  223.6710 C   0  0  0  0  0  0  0  0  0  0  0  0
  140.1860   71.5920  223.7900 C   0  0  0  0  0  0  0  0  0  0  0  0
  139.5190   70.3950  223.6250 C   0  0  0  0  0  0  0  0  0  0  0  0
  139.3660   69.5110  224.6860 C   0  0  0  0  0  0  0  0  0  0  0  0
  139.8840   69.8200  225.9270 C   0  0  0  0  0  0  0  0  0  0  0  0
  139.7270   68.9320  226.9740 C   0  0  0  0  0  0  0  0  0  0  0  0
  140.2710   69.3080  228.1860 C   0  0  0  0  0  0  0  0  0  0  0  0
  140.9390   70.5090  228.3460 C   0  0  0  0  0  0  0  0  0  0  0  0
  141.0820   71.3810  227.2770 C   0  0  0  0  0  0  0  0  0  0  0  0
  140.5460   71.0250  226.0560 C   0  0  0  0  0  0  0  0  0  0  0  0
  140.6870   71.8850  225.0040 N   0  0  0  0  0  0  0  0  0  0  0  0
  138.4650   73.5630  222.9670 H   0  0  0  0  0  0  0  0  0  0  0  0
  139.9104   73.6520  220.3626 H   0  0  0  0  0  0  0  0  0  0  0  0
  138.5846   74.7599  220.9028 H   0  0  0  0  0  0  0  0  0  0  0  0
  139.0059   76.2512  223.3537 H   0  0  0  0  0  0  0  0  0  0  0  0
  139.7267   77.8937  223.2696 H   0  0  0  0  0  0  0  0  0  0  0  0
  137.2883   76.8130  221.8069 H   0  0  0  0  0  0  0  0  0  0  0  0
  137.4140   78.2059  222.9778 H   0  0  0  0  0  0  0  0  0  0  0  0
  137.1091   78.7685  220.5478 H   0  0  0  0  0  0  0  0  0  0  0  0
  138.5038   79.5325  221.4648 H   0  0  0  0  0  0  0  0  0  0  0  0
  138.6243   77.3153  219.4214 H   0  0  0  0  0  0  0  0  0  0  0  0
  139.2632   79.0022  219.2991 H   0  0  0  0  0  0  0  0  0  0  0  0
  141.1166   77.2986  219.8982 H   0  0  0  0  0  0  0  0  0  0  0  0
  141.1608   79.6832  220.4701 H   0  0  0  0  0  0  0  0  0  0  0  0
  140.2201   79.2862  221.9916 H   0  0  0  0  0  0  0  0  0  0  0  0
  142.4860   77.7060  221.9870 H   0  0  0  0  0  0  0  0  0  0  0  0
  141.8721   78.0875  223.7255 H   0  0  0  0  0  0  0  0  0  0  0  0
  143.0686   80.5814  224.6826 H   0  0  0  0  0  0  0  0  0  0  0  0
  143.2878   81.1284  223.2480 H   0  0  0  0  0  0  0  0  0  0  0  0
  140.5056   80.3128  224.6058 H   0  0  0  0  0  0  0  0  0  0  0  0
  140.2740   80.8159  223.1449 H   0  0  0  0  0  0  0  0  0  0  0  0
  139.1028   70.1373  222.6399 H   0  0  0  0  0  0  0  0  0  0  0  0
  138.8303   68.5620  224.5362 H   0  0  0  0  0  0  0  0  0  0  0  0
  139.1968   67.9764  226.8485 H   0  0  0  0  0  0  0  0  0  0  0  0
  140.1704   68.6334  229.0491 H   0  0  0  0  0  0  0  0  0  0  0  0
  141.3594   70.7740  229.3274 H   0  0  0  0  0  0  0  0  0  0  0  0
  141.6119   72.3371  227.3998 H   0  0  0  0  0  0  0  0  0  0  0  0
  1  2  2  0
  2  3  1  0
  3  4  1  0
  4  5  1  0
  5  6  2  0
  5  7  1  0
  7  8  1  0
  8  9  1  0
  9 10  1  0
 10 11  1  0
 11 12  1  0
 12 13  1  0
 13 14  1  0
 14 15  1  0
 15 16  1  0
 16 17  1  0
  2 18  1  0
 18 19  2  0
 19 20  1  0
 20 21  2  0
 21 22  1  0
 22 23  2  0
 23 24  1  0
 24 25  2  0
 25 26  1  0
 26 27  2  0
 12  7  1  0
 17 15  1  0
 27 18  1  0
 26 21  1  0
  3 28  1  0
  4 29  1  0
  4 30  1  0
  8 31  1  0
  8 32  1  0
  9 33  1  0
  9 34  1  0
 10 35  1  0
 10 36  1  0
 11 37  1  0
 11 38  1  0
 12 39  1  6
 13 40  1  0
 13 41  1  0
 14 42  1  0
 15 43  1  0
 16 44  1  0
 16 45  1  0
 17 46  1  0
 17 47  1  0
 19 48  1  0
 20 49  1  0
 22 50  1  0
 23 51  1  0
 24 52  1  0
 25 53  1  0
M  END
>  <smiles>  (31) 
O=C(NCC(=O)N1CCCC[C@H]1CNC1CC1)c1ccc2ccccc2n1

>  <score_type>  (31) 
oracle

>  <origin>  (31) 
autodockgpu

>  <m_score__min__energy>  (31) 
-8.3200000000000003

>  <m_primary>  (31) 
energy

>  <rmsd>  (31) 
2.5354900235213274

>  <m_score__min__rmsd>  (31) 
2.5354900235213274

>  <meeko>  (31) 
{"free_energy": -8.03, "intermolecular_energy": -10.12, "internal_energy": -1.62, "cluster_size": 13, "cluster_id": 1, "rank_in_cluster": 4}

>  <energy>  (31) 
-5.79

>  <cluster_rmsd>  (31) 
0.58

>  <cluster>  (31) 
3

$$$$

     RDKit          3D

 53 56  0  0  0  0  0  0  0  0999 V2000
  140.7870   71.0950  221.6110 O   0  0  0  0  0  0  0  0  0  0  0  0
  140.3100   71.6970  222.6300 C   0  0  0  0  0  0  0  0  0  0  0  0
  139.7710   73.0080  222.4410 N   0  0  0  0  0  0  0  0  0  0  0  0
  139.8220   73.5340  221.0870 C   0  0  0  0  0  0  0  0  0  0  0  0
  140.6240   74.7620  221.0200 C   0  0  0  0  0  0  0  0  0  0  0  0
  141.8240   74.8100  220.6200 O   0  0  0  0  0  0  0  0  0  0  0  0
  140.0220   75.9860  221.4260 N   0  0  0  0  0  0  0  0  0  0  0  0
  139.3560   76.1330  222.7220 C   0  0  0  0  0  0  0  0  0  0  0  0
  137.9110   76.5350  222.5020 C   0  0  0  0  0  0  0  0  0  0  0  0
  137.7560   77.6460  221.5170 C   0  0  0  0  0  0  0  0  0  0  0  0
  138.5640   77.4860  220.2580 C   0  0  0  0  0  0  0  0  0  0  0  0
  140.0300   77.1710  220.5830 C   0  0  1  0  0  0  0  0  0  0  0  0
  140.5560   78.3800  221.3050 C   0  0  0  0  0  0  0  0  0  0  0  0
  141.9840   78.3760  221.5040 N   0  0  0  0  0  0  0  0  0  0  0  0
  142.2050   79.0960  222.7630 C   0  0  0  0  0  0  0  0  0  0  0  0
  141.1700   80.1850  223.0130 C   0  0  0  0  0  0  0  0  0  0  0  0
  141.2780   78.9990  223.8900 C   0  0  0  0  0  0  0  0  0  0  0  0
  140.3100   71.0730  223.9480 C   0  0  0  0  0  0  0  0  0  0  0  0
  140.7350   71.8210  225.0270 C   0  0  0  0  0  0  0  0  0  0  0  0
  140.7580   71.2810  226.3070 C   0  0  0  0  0  0  0  0  0  0  0  0
  140.3510   69.9800  226.5170 C   0  0  0  0  0  0  0  0  0  0  0  0
  140.3770   69.4540  227.7950 C   0  0  0  0  0  0  0  0  0  0  0  0
  139.9550   68.1450  227.9300 C   0  0  0  0  0  0  0  0  0  0  0  0
  139.5300   67.3990  226.8460 C   0  0  0  0  0  0  0  0  0  0  0  0
  139.5140   67.9540  225.5740 C   0  0  0  0  0  0  0  0  0  0  0  0
  139.9310   69.2600  225.4160 C   0  0  0  0  0  0  0  0  0  0  0  0
  139.9150   69.8050  224.1630 N   0  0  0  0  0  0  0  0  0  0  0  0
  139.3660   73.5500  223.2440 H   0  0  0  0  0  0  0  0  0  0  0  0
  140.2696   72.7775  220.4257 H   0  0  0  0  0  0  0  0  0  0  0  0
  138.7963   73.7722  220.7689 H   0  0  0  0  0  0  0  0  0  0  0  0
  139.3925   75.1766  223.2641 H   0  0  0  0  0  0  0  0  0  0  0  0
  139.8674   76.9075  223.3125 H   0  0  0  0  0  0  0  0  0  0  0  0
  137.3564   75.6598  222.1327 H   0  0  0  0  0  0  0  0  0  0  0  0
  137.5199   76.8938  223.4655 H   0  0  0  0  0  0  0  0  0  0  0  0
  136.6942   77.7103  221.2370 H   0  0  0  0  0  0  0  0  0  0  0  0
  138.1283   78.5550  222.0122 H   0  0  0  0  0  0  0  0  0  0  0  0
  138.1426   76.6630  219.6621 H   0  0  0  0  0  0  0  0  0  0  0  0
  138.5246   78.4293  219.6935 H   0  0  0  0  0  0  0  0  0  0  0  0
  140.6621   76.9695  219.7056 H   0  0  0  0  0  0  0  0  0  0  0  0
  140.2920   79.2731  220.7196 H   0  0  0  0  0  0  0  0  0  0  0  0
  140.0980   78.3744  222.3051 H   0  0  0  0  0  0  0  0  0  0  0  0
  142.3930   77.4180  221.5910 H   0  0  0  0  0  0  0  0  0  0  0  0
  143.2972   78.9782  222.7059 H   0  0  0  0  0  0  0  0  0  0  0  0
  141.4830   81.1746  223.3773 H   0  0  0  0  0  0  0  0  0  0  0  0
  140.3701   80.6611  222.4268 H   0  0  0  0  0  0  0  0  0  0  0  0
  141.6564   79.1148  224.9163 H   0  0  0  0  0  0  0  0  0  0  0  0
  140.5656   78.2325  224.2290 H   0  0  0  0  0  0  0  0  0  0  0  0
  141.0604   72.8602  224.8714 H   0  0  0  0  0  0  0  0  0  0  0  0
  141.1015   71.8923  227.1546 H   0  0  0  0  0  0  0  0  0  0  0  0
  140.7155   70.0457  228.6583 H   0  0  0  0  0  0  0  0  0  0  0  0
  139.9572   67.6832  228.9284 H   0  0  0  0  0  0  0  0  0  0  0  0
  139.2025   66.3592  226.9928 H   0  0  0  0  0  0  0  0  0  0  0  0
  139.1757   67.3646  224.7090 H   0  0  0  0  0  0  0  0  0  0  0  0
  1  2  2  0
  2  3  1  0
  3  4  1  0
  4  5  1  0
  5  6  2  0
  5  7  1  0
  7  8  1  0
  8  9  1  0
  9 10  1  0
 10 11  1  0
 11 12  1  0
 12 13  1  0
 13 14  1  0
 14 15  1  0
 15 16  1  0
 16 17  1  0
  2 18  1  0
 18 19  2  0
 19 20  1  0
 20 21  2  0
 21 22  1  0
 22 23  2  0
 23 24  1  0
 24 25  2  0
 25 26  1  0
 26 27  2  0
 12  7  1  0
 17 15  1  0
 27 18  1  0
 26 21  1  0
  3 28  1  0
  4 29  1  0
  4 30  1  0
  8 31  1  0
  8 32  1  0
  9 33  1  0
  9 34  1  0
 10 35  1  0
 10 36  1  0
 11 37  1  0
 11 38  1  0
 12 39  1  6
 13 40  1  0
 13 41  1  0
 14 42  1  0
 15 43  1  0
 16 44  1  0
 16 45  1  0
 17 46  1  0
 17 47  1  0
 19 48  1  0
 20 49  1  0
 22 50  1  0
 23 51  1  0
 24 52  1  0
 25 53  1  0
M  END
>  <smiles>  (32) 
O=C(NCC(=O)N1CCCC[C@H]1CNC1CC1)c1ccc2ccccc2n1

>  <score_type>  (32) 
oracle

>  <origin>  (32) 
autodockgpu

>  <m_score__min__energy>  (32) 
-8.3200000000000003

>  <m_primary>  (32) 
energy

>  <rmsd>  (32) 
3.190505854137917

>  <m_score__min__rmsd>  (32) 
3.190505854137917

>  <meeko>  (32) 
{"free_energy": -7.5, "intermolecular_energy": -9.58, "internal_energy": -1.61, "cluster_size": 13, "cluster_id": 1, "rank_in_cluster": 13}

>  <energy>  (32) 
-6.48

>  <cluster_rmsd>  (32) 
0.0

>  <cluster>  (32) 
4

$$$$

     RDKit          3D

 53 56  0  0  0  0  0  0  0  0999 V2000
  139.0270   75.6230  223.0630 O   0  0  0  0  0  0  0  0  0  0  0  0
  139.6510   75.7530  221.9570 C   0  0  0  0  0  0  0  0  0  0  0  0
  139.2880   76.8450  221.1080 N   0  0  0  0  0  0  0  0  0  0  0  0
  138.2290   77.7110  221.5940 C   0  0  0  0  0  0  0  0  0  0  0  0
  138.7740   78.8950  222.2720 C   0  0  0  0  0  0  0  0  0  0  0  0
  138.0760   79.7420  222.9010 O   0  0  0  0  0  0  0  0  0  0  0  0
  140.1800   79.1120  222.2250 N   0  0  0  0  0  0  0  0  0  0  0  0
  141.0980   78.4680  223.1660 C   0  0  0  0  0  0  0  0  0  0  0  0
  141.8640   79.5300  223.9290 C   0  0  0  0  0  0  0  0  0  0  0  0
  142.4190   80.5990  223.0470 C   0  0  0  0  0  0  0  0  0  0  0  0
  141.4530   81.1320  222.0230 C   0  0  0  0  0  0  0  0  0  0  0  0
  140.7970   79.9870  221.2400 C   0  0  1  0  0  0  0  0  0  0  0  0
  141.9130   79.3100  220.4970 C   0  0  0  0  0  0  0  0  0  0  0  0
  141.7750   77.8770  220.4000 N   0  0  0  0  0  0  0  0  0  0  0  0
  142.4540   77.5040  219.1540 C   0  0  0  0  0  0  0  0  0  0  0  0
  141.5050   77.4130  217.9660 C   0  0  0  0  0  0  0  0  0  0  0  0
  142.5800   78.4280  218.0270 C   0  0  0  0  0  0  0  0  0  0  0  0
  140.7030   74.8210  221.5680 C   0  0  0  0  0  0  0  0  0  0  0  0
  140.4260   73.4700  221.6040 C   0  0  0  0  0  0  0  0  0  0  0  0
  141.3880   72.5330  221.2440 C   0  0  0  0  0  0  0  0  0  0  0  0
  142.6420   72.9470  220.8420 C   0  0  0  0  0  0  0  0  0  0  0  0
  143.5900   72.0060  220.4860 C   0  0  0  0  0  0  0  0  0  0  0  0
  144.8220   72.4930  220.0940 C   0  0  0  0  0  0  0  0  0  0  0  0
  145.0940   73.8490  220.0590 C   0  0  0  0  0  0  0  0  0  0  0  0
  144.1220   74.7700  220.4220 C   0  0  0  0  0  0  0  0  0  0  0  0
  142.8840   74.3060  220.8170 C   0  0  0  0  0  0  0  0  0  0  0  0
  141.9280   75.2140  221.1740 N   0  0  0  0  0  0  0  0  0  0  0  0
  139.7690   76.9990  220.1870 H   0  0  0  0  0  0  0  0  0  0  0  0
  137.6144   78.0375  220.7422 H   0  0  0  0  0  0  0  0  0  0  0  0
  137.6238   77.1454  222.3177 H   0  0  0  0  0  0  0  0  0  0  0  0
  140.5250   77.8498  223.8728 H   0  0  0  0  0  0  0  0  0  0  0  0
  141.8045   77.8317  222.6128 H   0  0  0  0  0  0  0  0  0  0  0  0
  141.1848   79.9955  224.6584 H   0  0  0  0  0  0  0  0  0  0  0  0
  142.7151   79.0332  224.4176 H   0  0  0  0  0  0  0  0  0  0  0  0
  142.7404   81.4364  223.6838 H   0  0  0  0  0  0  0  0  0  0  0  0
  143.2466   80.1409  222.4855 H   0  0  0  0  0  0  0  0  0  0  0  0
  140.6711   81.7131  222.5338 H   0  0  0  0  0  0  0  0  0  0  0  0
  142.0058   81.7688  221.3167 H   0  0  0  0  0  0  0  0  0  0  0  0
  140.0248   80.3035  220.5234 H   0  0  0  0  0  0  0  0  0  0  0  0
  141.9493   79.7228  219.4781 H   0  0  0  0  0  0  0  0  0  0  0  0
  142.8340   79.5010  221.0673 H   0  0  0  0  0  0  0  0  0  0  0  0
  142.2200   77.3580  221.1910 H   0  0  0  0  0  0  0  0  0  0  0  0
  143.1999   76.8876  219.6772 H   0  0  0  0  0  0  0  0  0  0  0  0
  141.5766   76.5708  217.2621 H   0  0  0  0  0  0  0  0  0  0  0  0
  140.4140   77.4284  217.8263 H   0  0  0  0  0  0  0  0  0  0  0  0
  143.4439   78.3459  217.3510 H   0  0  0  0  0  0  0  0  0  0  0  0
  142.6015   79.5241  217.9367 H   0  0  0  0  0  0  0  0  0  0  0  0
  139.4297   73.1292  221.9221 H   0  0  0  0  0  0  0  0  0  0  0  0
  141.1494   71.4598  221.2796 H   0  0  0  0  0  0  0  0  0  0  0  0
  143.3750   70.9276  220.5133 H   0  0  0  0  0  0  0  0  0  0  0  0
  145.6090   71.7824  219.8014 H   0  0  0  0  0  0  0  0  0  0  0  0
  146.0872   74.1992  219.7414 H   0  0  0  0  0  0  0  0  0  0  0  0
  144.3341   75.8490  220.3954 H   0  0  0  0  0  0  0  0  0  0  0  0
  1  2  2  0
  2  3  1  0
  3  4  1  0
  4  5  1  0
  5  6  2  0
  5  7  1  0
  7  8  1  0
  8  9  1  0
  9 10  1  0
 10 11  1  0
 11 12  1  0
 12 13  1  0
 13 14  1  0
 14 15  1  0
 15 16  1  0
 16 17  1  0
  2 18  1  0
 18 19  2  0
 19 20  1  0
 20 21  2  0
 21 22  1  0
 22 23  2  0
 23 24  1  0
 24 25  2  0
 25 26  1  0
 26 27  2  0
 12  7  1  0
 17 15  1  0
 27 18  1  0
 26 21  1  0
  3 28  1  0
  4 29  1  0
  4 30  1  0
  8 31  1  0
  8 32  1  0
  9 33  1  0
  9 34  1  0
 10 35  1  0
 10 36  1  0
 11 37  1  0
 11 38  1  0
 12 39  1  6
 13 40  1  0
 13 41  1  0
 14 42  1  0
 15 43  1  0
 16 44  1  0
 16 45  1  0
 17 46  1  0
 17 47  1  0
 19 48  1  0
 20 49  1  0
 22 50  1  0
 23 51  1  0
 24 52  1  0
 25 53  1  0
M  END
>  <smiles>  (33) 
O=C(NCC(=O)N1CCCC[C@H]1CNC1CC1)c1ccc2ccccc2n1

>  <score_type>  (33) 
oracle

>  <origin>  (33) 
autodockgpu

>  <m_score__min__energy>  (33) 
-8.3200000000000003

>  <m_primary>  (33) 
energy

>  <rmsd>  (33) 
5.99759330116879

>  <m_score__min__rmsd>  (33) 
5.99759330116879

>  <meeko>  (33) 
{"free_energy": -5.81, "intermolecular_energy": -7.9, "internal_energy": -3.62, "cluster_size": 18, "cluster_id": 4, "rank_in_cluster": 18}

>  <energy>  (33) 
-6.44

>  <cluster_rmsd>  (33) 
0.35

>  <cluster>  (33) 
4

$$$$

     RDKit          3D

 53 56  0  0  0  0  0  0  0  0999 V2000
  139.1390   74.7000  222.4230 O   0  0  0  0  0  0  0  0  0  0  0  0
  140.0670   75.4340  221.9440 C   0  0  0  0  0  0  0  0  0  0  0  0
  140.9600   74.8470  220.9930 N   0  0  0  0  0  0  0  0  0  0  0  0
  140.7190   73.4540  220.6610 C   0  0  0  0  0  0  0  0  0  0  0  0
  141.9660   72.6790  220.6650 C   0  0  0  0  0  0  0  0  0  0  0  0
  142.0940   71.5340  221.1870 O   0  0  0  0  0  0  0  0  0  0  0  0
  143.1150   73.2440  220.0410 N   0  0  0  0  0  0  0  0  0  0  0  0
  143.6010   72.7800  218.7410 C   0  0  0  0  0  0  0  0  0  0  0  0
  145.0280   72.2890  218.8830 C   0  0  0  0  0  0  0  0  0  0  0  0
  145.8970   73.2310  219.6480 C   0  0  0  0  0  0  0  0  0  0  0  0
  145.2840   73.7630  220.9150 C   0  0  0  0  0  0  0  0  0  0  0  0
  143.8790   74.3200  220.6530 C   0  0  1  0  0  0  0  0  0  0  0  0
  144.0690   75.4840  219.7220 C   0  0  0  0  0  0  0  0  0  0  0  0
  143.3260   76.6640  220.0900 N   0  0  0  0  0  0  0  0  0  0  0  0
  142.4910   76.9780  218.9250 C   0  0  0  0  0  0  0  0  0  0  0  0
  141.4760   78.0790  219.2020 C   0  0  0  0  0  0  0  0  0  0  0  0
  142.5750   78.2600  218.2270 C   0  0  0  0  0  0  0  0  0  0  0  0
  140.2180   76.8270  222.3500 C   0  0  0  0  0  0  0  0  0  0  0  0
  139.0860   77.5280  222.7120 C   0  0  0  0  0  0  0  0  0  0  0  0
  139.1660   78.8580  223.1080 C   0  0  0  0  0  0  0  0  0  0  0  0
  140.3880   79.4980  223.1440 C   0  0  0  0  0  0  0  0  0  0  0  0
  140.4540   80.8210  223.5400 C   0  0  0  0  0  0  0  0  0  0  0  0
  141.7100   81.3960  223.5520 C   0  0  0  0  0  0  0  0  0  0  0  0
  142.8410   80.6880  223.1880 C   0  0  0  0  0  0  0  0  0  0  0  0
  142.7440   79.3620  222.7950 C   0  0  0  0  0  0  0  0  0  0  0  0
  141.4990   78.7660  222.7760 C   0  0  0  0  0  0  0  0  0  0  0  0
  141.4040   77.4600  222.3880 N   0  0  0  0  0  0  0  0  0  0  0  0
  141.7420   75.4040  220.5680 H   0  0  0  0  0  0  0  0  0  0  0  0
  140.0280   73.0241  221.4010 H   0  0  0  0  0  0  0  0  0  0  0  0
  140.2864   73.4087  219.6507 H   0  0  0  0  0  0  0  0  0  0  0  0
  142.9639   71.9578  218.3832 H   0  0  0  0  0  0  0  0  0  0  0  0
  143.5679   73.6092  218.0190 H   0  0  0  0  0  0  0  0  0  0  0  0
  145.0151   71.3213  219.4059 H   0  0  0  0  0  0  0  0  0  0  0  0
  145.4482   72.2036  217.8700 H   0  0  0  0  0  0  0  0  0  0  0  0
  146.8255   72.7034  219.9117 H   0  0  0  0  0  0  0  0  0  0  0  0
  146.0641   74.1001  218.9947 H   0  0  0  0  0  0  0  0  0  0  0  0
  145.2168   72.9489  221.6517 H   0  0  0  0  0  0  0  0  0  0  0  0
  145.9183   74.5764  221.2970 H   0  0  0  0  0  0  0  0  0  0  0  0
  143.3441   74.6594  221.5523 H   0  0  0  0  0  0  0  0  0  0  0  0
  145.1384   75.7412  219.7053 H   0  0  0  0  0  0  0  0  0  0  0  0
  143.6910   75.1668  218.7389 H   0  0  0  0  0  0  0  0  0  0  0  0
  142.7050   76.5270  220.9190 H   0  0  0  0  0  0  0  0  0  0  0  0
  142.5208   75.9433  218.5528 H   0  0  0  0  0  0  0  0  0  0  0  0
  140.4374   77.9763  218.8545 H   0  0  0  0  0  0  0  0  0  0  0  0
  141.1176   78.6142  220.0937 H   0  0  0  0  0  0  0  0  0  0  0  0
  142.3454   78.3097  217.1524 H   0  0  0  0  0  0  0  0  0  0  0  0
  143.3690   79.0109  218.1017 H   0  0  0  0  0  0  0  0  0  0  0  0
  138.1068   77.0275  222.6869 H   0  0  0  0  0  0  0  0  0  0  0  0
  138.2532   79.4015  223.3933 H   0  0  0  0  0  0  0  0  0  0  0  0
  139.5552   81.3851  223.8298 H   0  0  0  0  0  0  0  0  0  0  0  0
  141.8136   82.4470  223.8598 H   0  0  0  0  0  0  0  0  0  0  0  0
  143.8244   81.1804  223.2105 H   0  0  0  0  0  0  0  0  0  0  0  0
  143.6413   78.7961  222.5041 H   0  0  0  0  0  0  0  0  0  0  0  0
  1  2  2  0
  2  3  1  0
  3  4  1  0
  4  5  1  0
  5  6  2  0
  5  7  1  0
  7  8  1  0
  8  9  1  0
  9 10  1  0
 10 11  1  0
 11 12  1  0
 12 13  1  0
 13 14  1  0
 14 15  1  0
 15 16  1  0
 16 17  1  0
  2 18  1  0
 18 19  2  0
 19 20  1  0
 20 21  2  0
 21 22  1  0
 22 23  2  0
 23 24  1  0
 24 25  2  0
 25 26  1  0
 26 27  2  0
 12  7  1  0
 17 15  1  0
 27 18  1  0
 26 21  1  0
  3 28  1  0
  4 29  1  0
  4 30  1  0
  8 31  1  0
  8 32  1  0
  9 33  1  0
  9 34  1  0
 10 35  1  0
 10 36  1  0
 11 37  1  0
 11 38  1  0
 12 39  1  1
 13 40  1  0
 13 41  1  0
 14 42  1  0
 15 43  1  0
 16 44  1  0
 16 45  1  0
 17 46  1  0
 17 47  1  0
 19 48  1  0
 20 49  1  0
 22 50  1  0
 23 51  1  0
 24 52  1  0
 25 53  1  0
M  END
>  <smiles>  (34) 
O=C(NCC(=O)N1CCCC[C@H]1CNC1CC1)c1ccc2ccccc2n1

>  <score_type>  (34) 
oracle

>  <origin>  (34) 
autodockgpu

>  <m_score__min__energy>  (34) 
-8.3200000000000003

>  <m_primary>  (34) 
energy

>  <rmsd>  (34) 
7.138249097946624

>  <m_score__min__rmsd>  (34) 
7.138249097946624

>  <meeko>  (34) 
{"free_energy": -6.66, "intermolecular_energy": -8.75, "internal_energy": -3.55, "cluster_size": 13, "cluster_id": 3, "rank_in_cluster": 3}

>  <energy>  (34) 
-6.42

>  <cluster_rmsd>  (34) 
0.1

>  <cluster>  (34) 
4

$$$$

     RDKit          3D

 53 56  0  0  0  0  0  0  0  0999 V2000
  140.7690   71.6540  221.3700 O   0  0  0  0  0  0  0  0  0  0  0  0
  140.2130   72.1530  222.4050 C   0  0  0  0  0  0  0  0  0  0  0  0
  139.6490   73.4630  222.2950 N   0  0  0  0  0  0  0  0  0  0  0  0
  139.7670   74.1060  220.9970 C   0  0  0  0  0  0  0  0  0  0  0  0
  140.9510   74.9730  220.9350 C   0  0  0  0  0  0  0  0  0  0  0  0
  142.1280   74.5960  221.2060 O   0  0  0  0  0  0  0  0  0  0  0  0
  140.7740   76.3310  220.5440 N   0  0  0  0  0  0  0  0  0  0  0  0
  139.5100   76.8240  219.9950 C   0  0  0  0  0  0  0  0  0  0  0  0
  139.7490   77.3940  218.6120 C   0  0  0  0  0  0  0  0  0  0  0  0
  140.9290   78.3060  218.5500 C   0  0  0  0  0  0  0  0  0  0  0  0
  142.1620   77.7840  219.2400 C   0  0  0  0  0  0  0  0  0  0  0  0
  141.8370   77.3160  220.6640 C   0  0  1  0  0  0  0  0  0  0  0  0
  141.3920   78.5450  221.4050 C   0  0  0  0  0  0  0  0  0  0  0  0
  142.4700   79.3080  221.9870 N   0  0  0  0  0  0  0  0  0  0  0  0
  142.0760   79.5370  223.3810 C   0  0  0  0  0  0  0  0  0  0  0  0
  141.1980   80.7690  223.5560 C   0  0  0  0  0  0  0  0  0  0  0  0
  140.6910   79.4070  223.8330 C   0  0  0  0  0  0  0  0  0  0  0  0
  140.1500   71.4160  223.6610 C   0  0  0  0  0  0  0  0  0  0  0  0
  139.5690   70.1640  223.6570 C   0  0  0  0  0  0  0  0  0  0  0  0
  139.4800   69.4140  224.8230 C   0  0  0  0  0  0  0  0  0  0  0  0
  139.9770   69.9150  226.0090 C   0  0  0  0  0  0  0  0  0  0  0  0
  139.8840   69.1590  227.1630 C   0  0  0  0  0  0  0  0  0  0  0  0
  140.4020   69.7240  228.3120 C   0  0  0  0  0  0  0  0  0  0  0  0
  140.9840   70.9790  228.3100 C   0  0  0  0  0  0  0  0  0  0  0  0
  141.0640   71.7140  227.1370 C   0  0  0  0  0  0  0  0  0  0  0  0
  140.5520   71.1700  225.9770 C   0  0  0  0  0  0  0  0  0  0  0  0
  140.6310   71.8960  224.8230 N   0  0  0  0  0  0  0  0  0  0  0  0
  139.1810   73.9220  223.1140 H   0  0  0  0  0  0  0  0  0  0  0  0
  139.8491   73.3317  220.2200 H   0  0  0  0  0  0  0  0  0  0  0  0
  138.8737   74.7272  220.8355 H   0  0  0  0  0  0  0  0  0  0  0  0
  138.7899   75.9949  219.9306 H   0  0  0  0  0  0  0  0  0  0  0  0
  139.1066   77.6095  220.6509 H   0  0  0  0  0  0  0  0  0  0  0  0
  139.9139   76.5603  217.9135 H   0  0  0  0  0  0  0  0  0  0  0  0
  138.8620   77.9869  218.3440 H   0  0  0  0  0  0  0  0  0  0  0  0
  141.1748   78.4775  217.4916 H   0  0  0  0  0  0  0  0  0  0  0  0
  140.6406   79.2254  219.0805 H   0  0  0  0  0  0  0  0  0  0  0  0
  142.5644   76.9365  218.6656 H   0  0  0  0  0  0  0  0  0  0  0  0
  142.9021   78.5957  219.2977 H   0  0  0  0  0  0  0  0  0  0  0  0
  142.6801   76.8551  221.1995 H   0  0  0  0  0  0  0  0  0  0  0  0
  140.8502   79.1945  220.7017 H   0  0  0  0  0  0  0  0  0  0  0  0
  140.7625   78.2007  222.2388 H   0  0  0  0  0  0  0  0  0  0  0  0
  143.3890   78.8110  221.9760 H   0  0  0  0  0  0  0  0  0  0  0  0
  143.0130   79.1159  223.7742 H   0  0  0  0  0  0  0  0  0  0  0  0
  141.3846   81.4702  224.3827 H   0  0  0  0  0  0  0  0  0  0  0  0
  140.8868   81.6113  222.9206 H   0  0  0  0  0  0  0  0  0  0  0  0
  140.4840   79.1047  224.8702 H   0  0  0  0  0  0  0  0  0  0  0  0
  139.8239   78.8286  223.4814 H   0  0  0  0  0  0  0  0  0  0  0  0
  139.1707   69.7542  222.7171 H   0  0  0  0  0  0  0  0  0  0  0  0
  139.0123   68.4186  224.8009 H   0  0  0  0  0  0  0  0  0  0  0  0
  139.4221   68.1607  227.1658 H   0  0  0  0  0  0  0  0  0  0  0  0
  140.3503   69.1602  229.2551 H   0  0  0  0  0  0  0  0  0  0  0  0
  141.3859   71.3965  229.2450 H   0  0  0  0  0  0  0  0  0  0  0  0
  141.5269   72.7119  227.1313 H   0  0  0  0  0  0  0  0  0  0  0  0
  1  2  2  0
  2  3  1  0
  3  4  1  0
  4  5  1  0
  5  6  2  0
  5  7  1  0
  7  8  1  0
  8  9  1  0
  9 10  1  0
 10 11  1  0
 11 12  1  0
 12 13  1  0
 13 14  1  0
 14 15  1  0
 15 16  1  0
 16 17  1  0
  2 18  1  0
 18 19  2  0
 19 20  1  0
 20 21  2  0
 21 22  1  0
 22 23  2  0
 23 24  1  0
 24 25  2  0
 25 26  1  0
 26 27  2  0
 12  7  1  0
 17 15  1  0
 27 18  1  0
 26 21  1  0
  3 28  1  0
  4 29  1  0
  4 30  1  0
  8 31  1  0
  8 32  1  0
  9 33  1  0
  9 34  1  0
 10 35  1  0
 10 36  1  0
 11 37  1  0
 11 38  1  0
 12 39  1  1
 13 40  1  0
 13 41  1  0
 14 42  1  0
 15 43  1  0
 16 44  1  0
 16 45  1  0
 17 46  1  0
 17 47  1  0
 19 48  1  0
 20 49  1  0
 22 50  1  0
 23 51  1  0
 24 52  1  0
 25 53  1  0
M  END
>  <smiles>  (35) 
O=C(NCC(=O)N1CCCC[C@H]1CNC1CC1)c1ccc2ccccc2n1

>  <score_type>  (35) 
oracle

>  <origin>  (35) 
autodockgpu

>  <m_score__min__energy>  (35) 
-8.3200000000000003

>  <m_primary>  (35) 
energy

>  <rmsd>  (35) 
1.7791107541233515

>  <m_score__min__rmsd>  (35) 
1.7791107541233515

>  <meeko>  (35) 
{"free_energy": -7.99, "intermolecular_energy": -10.08, "internal_energy": -1.27, "cluster_size": 13, "cluster_id": 1, "rank_in_cluster": 7}

>  <energy>  (35) 
-6.38

>  <cluster_rmsd>  (35) 
0.5

>  <cluster>  (35) 
4

$$$$

     RDKit          3D

 53 56  0  0  0  0  0  0  0  0999 V2000
  139.2520   74.4900  222.3550 O   0  0  0  0  0  0  0  0  0  0  0  0
  140.0600   75.3010  221.7890 C   0  0  0  0  0  0  0  0  0  0  0  0
  140.8600   74.8050  220.7120 N   0  0  0  0  0  0  0  0  0  0  0  0
  140.6710   73.4070  220.3630 C   0  0  0  0  0  0  0  0  0  0  0  0
  141.9290   72.6560  220.4640 C   0  0  0  0  0  0  0  0  0  0  0  0
  142.0370   71.5110  220.9910 O   0  0  0  0  0  0  0  0  0  0  0  0
  143.1130   73.2460  219.9350 N   0  0  0  0  0  0  0  0  0  0  0  0
  143.6980   72.8100  218.6660 C   0  0  0  0  0  0  0  0  0  0  0  0
  145.1170   72.3340  218.9040 C   0  0  0  0  0  0  0  0  0  0  0  0
  145.9170   73.2730  219.7450 C   0  0  0  0  0  0  0  0  0  0  0  0
  145.2060   73.7750  220.9730 C   0  0  0  0  0  0  0  0  0  0  0  0
  143.8160   74.3190  220.6190 C   0  0  1  0  0  0  0  0  0  0  0  0
  144.0580   75.5020  219.7240 C   0  0  0  0  0  0  0  0  0  0  0  0
  143.2990   76.6760  220.0760 N   0  0  0  0  0  0  0  0  0  0  0  0
  142.5630   77.0440  218.8620 C   0  0  0  0  0  0  0  0  0  0  0  0
  143.3060   76.6790  217.5840 C   0  0  0  0  0  0  0  0  0  0  0  0
  142.0200   76.0430  217.9450 C   0  0  0  0  0  0  0  0  0  0  0  0
  140.1680   76.6890  222.2220 C   0  0  0  0  0  0  0  0  0  0  0  0
  139.0130   77.3560  222.5730 C   0  0  0  0  0  0  0  0  0  0  0  0
  139.0520   78.6800  222.9930 C   0  0  0  0  0  0  0  0  0  0  0  0
  140.2570   79.3490  223.0660 C   0  0  0  0  0  0  0  0  0  0  0  0
  140.2830   80.6660  223.4870 C   0  0  0  0  0  0  0  0  0  0  0  0
  141.5240   81.2710  223.5350 C   0  0  0  0  0  0  0  0  0  0  0  0
  142.6800   80.5970  223.1820 C   0  0  0  0  0  0  0  0  0  0  0  0
  142.6220   79.2760  222.7640 C   0  0  0  0  0  0  0  0  0  0  0  0
  141.3930   78.6510  222.7080 C   0  0  0  0  0  0  0  0  0  0  0  0
  141.3380   77.3500  222.2960 N   0  0  0  0  0  0  0  0  0  0  0  0
  141.5410   75.4270  220.2110 H   0  0  0  0  0  0  0  0  0  0  0  0
  139.9332   72.9635  221.0478 H   0  0  0  0  0  0  0  0  0  0  0  0
  140.3181   73.3540  219.3225 H   0  0  0  0  0  0  0  0  0  0  0  0
  143.0995   71.9864  218.2496 H   0  0  0  0  0  0  0  0  0  0  0  0
  143.7062   73.6507  217.9567 H   0  0  0  0  0  0  0  0  0  0  0  0
  145.0785   71.3577  219.4094 H   0  0  0  0  0  0  0  0  0  0  0  0
  145.6105   72.2711  217.9229 H   0  0  0  0  0  0  0  0  0  0  0  0
  146.8309   72.7520  220.0665 H   0  0  0  0  0  0  0  0  0  0  0  0
  146.1205   74.1551  219.1201 H   0  0  0  0  0  0  0  0  0  0  0  0
  145.0968   72.9472  221.6892 H   0  0  0  0  0  0  0  0  0  0  0  0
  145.7996   74.5896  221.4136 H   0  0  0  0  0  0  0  0  0  0  0  0
  143.2126   74.6350  221.4827 H   0  0  0  0  0  0  0  0  0  0  0  0
  145.1272   75.7561  219.7702 H   0  0  0  0  0  0  0  0  0  0  0  0
  143.7326   75.2065  218.7156 H   0  0  0  0  0  0  0  0  0  0  0  0
  142.6120   76.5160  220.8470 H   0  0  0  0  0  0  0  0  0  0  0  0
  142.1014   77.9213  219.3388 H   0  0  0  0  0  0  0  0  0  0  0  0
  143.3566   77.3928  216.7486 H   0  0  0  0  0  0  0  0  0  0  0  0
  144.3172   76.3252  217.3342 H   0  0  0  0  0  0  0  0  0  0  0  0
  141.1168   76.2740  217.3613 H   0  0  0  0  0  0  0  0  0  0  0  0
  141.6897   75.0002  218.0612 H   0  0  0  0  0  0  0  0  0  0  0  0
  138.0471   76.8324  222.5197 H   0  0  0  0  0  0  0  0  0  0  0  0
  138.1203   79.1961  223.2679 H   0  0  0  0  0  0  0  0  0  0  0  0
  139.3651   81.2029  223.7685 H   0  0  0  0  0  0  0  0  0  0  0  0
  141.5954   82.3185  223.8632 H   0  0  0  0  0  0  0  0  0  0  0  0
  143.6506   81.1121  223.2333 H   0  0  0  0  0  0  0  0  0  0  0  0
  143.5384   78.7366  222.4824 H   0  0  0  0  0  0  0  0  0  0  0  0
  1  2  2  0
  2  3  1  0
  3  4  1  0
  4  5  1  0
  5  6  2  0
  5  7  1  0
  7  8  1  0
  8  9  1  0
  9 10  1  0
 10 11  1  0
 11 12  1  0
 12 13  1  0
 13 14  1  0
 14 15  1  0
 15 16  1  0
 16 17  1  0
  2 18  1  0
 18 19  2  0
 19 20  1  0
 20 21  2  0
 21 22  1  0
 22 23  2  0
 23 24  1  0
 24 25  2  0
 25 26  1  0
 26 27  2  0
 12  7  1  0
 17 15  1  0
 27 18  1  0
 26 21  1  0
  3 28  1  0
  4 29  1  0
  4 30  1  0
  8 31  1  0
  8 32  1  0
  9 33  1  0
  9 34  1  0
 10 35  1  0
 10 36  1  0
 11 37  1  0
 11 38  1  0
 12 39  1  1
 13 40  1  0
 13 41  1  0
 14 42  1  0
 15 43  1  0
 16 44  1  0
 16 45  1  0
 17 46  1  0
 17 47  1  0
 19 48  1  0
 20 49  1  0
 22 50  1  0
 23 51  1  0
 24 52  1  0
 25 53  1  0
M  END
>  <smiles>  (36) 
O=C(NCC(=O)N1CCCC[C@H]1CNC1CC1)c1ccc2ccccc2n1

>  <score_type>  (36) 
oracle

>  <origin>  (36) 
autodockgpu

>  <m_score__min__energy>  (36) 
-8.3200000000000003

>  <m_primary>  (36) 
energy

>  <rmsd>  (36) 
7.166207182977751

>  <m_score__min__rmsd>  (36) 
7.166207182977751

>  <meeko>  (36) 
{"free_energy": -6.54, "intermolecular_energy": -8.63, "internal_energy": -3.56, "cluster_size": 13, "cluster_id": 3, "rank_in_cluster": 6}

>  <energy>  (36) 
-6.28

>  <cluster_rmsd>  (36) 
0.54

>  <cluster>  (36) 
4

$$$$

     RDKit          3D

 53 56  0  0  0  0  0  0  0  0999 V2000
  139.1160   73.9830  221.5300 O   0  0  0  0  0  0  0  0  0  0  0  0
  140.2800   74.5040  221.5940 C   0  0  0  0  0  0  0  0  0  0  0  0
  140.3940   75.8190  222.1450 N   0  0  0  0  0  0  0  0  0  0  0  0
  139.1570   76.4410  222.5830 C   0  0  0  0  0  0  0  0  0  0  0  0
  139.3020   77.8980  222.6980 C   0  0  0  0  0  0  0  0  0  0  0  0
  138.3710   78.6840  223.0390 O   0  0  0  0  0  0  0  0  0  0  0  0
  140.5720   78.4760  222.4120 N   0  0  0  0  0  0  0  0  0  0  0  0
  141.6310   78.5650  223.4190 C   0  0  0  0  0  0  0  0  0  0  0  0
  142.0170   80.0170  223.6150 C   0  0  0  0  0  0  0  0  0  0  0  0
  142.2250   80.7470  222.3300 C   0  0  0  0  0  0  0  0  0  0  0  0
  141.1570   80.5130  221.2960 C   0  0  0  0  0  0  0  0  0  0  0  0
  140.9000   79.0130  221.1010 C   0  0  1  0  0  0  0  0  0  0  0  0
  142.1830   78.4480  220.5590 C   0  0  0  0  0  0  0  0  0  0  0  0
  142.1620   77.0200  220.3590 N   0  0  0  0  0  0  0  0  0  0  0  0
  143.1240   76.7630  219.2820 C   0  0  0  0  0  0  0  0  0  0  0  0
  142.5830   75.8200  218.2150 C   0  0  0  0  0  0  0  0  0  0  0  0
  142.9060   77.2310  217.9130 C   0  0  0  0  0  0  0  0  0  0  0  0
  141.4590   73.7870  221.1230 C   0  0  0  0  0  0  0  0  0  0  0  0
  141.2980   72.4950  220.6640 C   0  0  0  0  0  0  0  0  0  0  0  0
  142.3840   71.7610  220.2030 C   0  0  0  0  0  0  0  0  0  0  0  0
  143.6460   72.3190  220.1970 C   0  0  0  0  0  0  0  0  0  0  0  0
  144.7180   71.5790  219.7350 C   0  0  0  0  0  0  0  0  0  0  0  0
  145.9510   72.2020  219.7590 C   0  0  0  0  0  0  0  0  0  0  0  0
  146.1060   73.4970  220.2200 C   0  0  0  0  0  0  0  0  0  0  0  0
  145.0120   74.2150  220.6770 C   0  0  0  0  0  0  0  0  0  0  0  0
  143.7700   73.6130  220.6630 C   0  0  0  0  0  0  0  0  0  0  0  0
  142.6930   74.3220  221.1140 N   0  0  0  0  0  0  0  0  0  0  0  0
  141.3260   76.2960  222.2210 H   0  0  0  0  0  0  0  0  0  0  0  0
  138.3653   76.2165  221.8530 H   0  0  0  0  0  0  0  0  0  0  0  0
  138.8991   76.0392  223.5740 H   0  0  0  0  0  0  0  0  0  0  0  0
  141.2684   78.1498  224.3709 H   0  0  0  0  0  0  0  0  0  0  0  0
  142.5083   77.9935  223.0817 H   0  0  0  0  0  0  0  0  0  0  0  0
  141.2158   80.5192  224.1770 H   0  0  0  0  0  0  0  0  0  0  0  0
  142.9733   80.0313  224.1584 H   0  0  0  0  0  0  0  0  0  0  0  0
  142.2599   81.8244  222.5493 H   0  0  0  0  0  0  0  0  0  0  0  0
  143.1626   80.3630  221.9018 H   0  0  0  0  0  0  0  0  0  0  0  0
  140.2258   80.9978  221.6245 H   0  0  0  0  0  0  0  0  0  0  0  0
  141.4959   80.9378  220.3396 H   0  0  0  0  0  0  0  0  0  0  0  0
  140.0779   78.7728  220.4107 H   0  0  0  0  0  0  0  0  0  0  0  0
  142.3902   78.9288  219.5916 H   0  0  0  0  0  0  0  0  0  0  0  0
  142.9601   78.6506  221.3107 H   0  0  0  0  0  0  0  0  0  0  0  0
  142.4510   76.4740  221.2020 H   0  0  0  0  0  0  0  0  0  0  0  0
  143.9893   76.8555  219.9548 H   0  0  0  0  0  0  0  0  0  0  0  0
  143.2133   75.0099  217.8196 H   0  0  0  0  0  0  0  0  0  0  0  0
  141.6985   75.1745  218.1095 H   0  0  0  0  0  0  0  0  0  0  0  0
  143.7707   77.4659  217.2749 H   0  0  0  0  0  0  0  0  0  0  0  0
  142.3418   78.0661  217.4722 H   0  0  0  0  0  0  0  0  0  0  0  0
  140.2963   72.0404  220.6632 H   0  0  0  0  0  0  0  0  0  0  0  0
  142.2373   70.7324  219.8419 H   0  0  0  0  0  0  0  0  0  0  0  0
  144.5961   70.5493  219.3679 H   0  0  0  0  0  0  0  0  0  0  0  0
  146.8344   71.6527  219.4014 H   0  0  0  0  0  0  0  0  0  0  0  0
  147.1038   73.9599  220.2239 H   0  0  0  0  0  0  0  0  0  0  0  0
  145.1313   75.2451  221.0439 H   0  0  0  0  0  0  0  0  0  0  0  0
  1  2  2  0
  2  3  1  0
  3  4  1  0
  4  5  1  0
  5  6  2  0
  5  7  1  0
  7  8  1  0
  8  9  1  0
  9 10  1  0
 10 11  1  0
 11 12  1  0
 12 13  1  0
 13 14  1  0
 14 15  1  0
 15 16  1  0
 16 17  1  0
  2 18  1  0
 18 19  2  0
 19 20  1  0
 20 21  2  0
 21 22  1  0
 22 23  2  0
 23 24  1  0
 24 25  2  0
 25 26  1  0
 26 27  2  0
 12  7  1  0
 17 15  1  0
 27 18  1  0
 26 21  1  0
  3 28  1  0
  4 29  1  0
  4 30  1  0
  8 31  1  0
  8 32  1  0
  9 33  1  0
  9 34  1  0
 10 35  1  0
 10 36  1  0
 11 37  1  0
 11 38  1  0
 12 39  1  6
 13 40  1  0
 13 41  1  0
 14 42  1  0
 15 43  1  0
 16 44  1  0
 16 45  1  0
 17 46  1  0
 17 47  1  0
 19 48  1  0
 20 49  1  0
 22 50  1  0
 23 51  1  0
 24 52  1  0
 25 53  1  0
M  END
>  <smiles>  (37) 
O=C(NCC(=O)N1CCCC[C@H]1CNC1CC1)c1ccc2ccccc2n1

>  <score_type>  (37) 
oracle

>  <origin>  (37) 
autodockgpu

>  <m_score__min__energy>  (37) 
-8.3200000000000003

>  <m_primary>  (37) 
energy

>  <rmsd>  (37) 
6.022355881967287

>  <m_score__min__rmsd>  (37) 
6.022355881967287

>  <meeko>  (37) 
{"free_energy": -6.19, "intermolecular_energy": -8.28, "internal_energy": -3.67, "cluster_size": 18, "cluster_id": 4, "rank_in_cluster": 13}

>  <energy>  (37) 
-6.26

>  <cluster_rmsd>  (37) 
0.69

>  <cluster>  (37) 
4

$$$$

     RDKit          3D

 53 56  0  0  0  0  0  0  0  0999 V2000
  141.1670   71.9890  221.5560 O   0  0  0  0  0  0  0  0  0  0  0  0
  140.3650   72.3180  222.4930 C   0  0  0  0  0  0  0  0  0  0  0  0
  139.5830   73.5020  222.3200 N   0  0  0  0  0  0  0  0  0  0  0  0
  139.7810   74.2260  221.0760 C   0  0  0  0  0  0  0  0  0  0  0  0
  140.7940   75.2790  221.2250 C   0  0  0  0  0  0  0  0  0  0  0  0
  142.0420   75.0710  221.2500 O   0  0  0  0  0  0  0  0  0  0  0  0
  140.3540   76.6270  221.3480 N   0  0  0  0  0  0  0  0  0  0  0  0
  139.9350   77.1950  222.6310 C   0  0  0  0  0  0  0  0  0  0  0  0
  138.5040   77.6820  222.5230 C   0  0  0  0  0  0  0  0  0  0  0  0
  138.2530   78.4930  221.2960 C   0  0  0  0  0  0  0  0  0  0  0  0
  138.8170   77.9070  220.0300 C   0  0  0  0  0  0  0  0  0  0  0  0
  140.2930   77.5300  220.2090 C   0  0  1  0  0  0  0  0  0  0  0  0
  141.0150   78.8220  220.4680 C   0  0  0  0  0  0  0  0  0  0  0  0
  142.1600   78.6970  221.3360 N   0  0  0  0  0  0  0  0  0  0  0  0
  142.0480   79.8050  222.2900 C   0  0  0  0  0  0  0  0  0  0  0  0
  142.1360   79.3510  223.7410 C   0  0  0  0  0  0  0  0  0  0  0  0
  143.1660   80.2230  223.1360 C   0  0  0  0  0  0  0  0  0  0  0  0
  140.2460   71.5140  223.7040 C   0  0  0  0  0  0  0  0  0  0  0  0
  139.6340   70.2800  223.6130 C   0  0  0  0  0  0  0  0  0  0  0  0
  139.4900   69.4690  224.7320 C   0  0  0  0  0  0  0  0  0  0  0  0
  139.9630   69.8900  225.9580 C   0  0  0  0  0  0  0  0  0  0  0  0
  139.8150   69.0740  227.0640 C   0  0  0  0  0  0  0  0  0  0  0  0
  140.3120   69.5610  228.2570 C   0  0  0  0  0  0  0  0  0  0  0  0
  140.9240   70.7980  228.3440 C   0  0  0  0  0  0  0  0  0  0  0  0
  141.0590   71.5950  227.2170 C   0  0  0  0  0  0  0  0  0  0  0  0
  140.5700   71.1290  226.0130 C   0  0  0  0  0  0  0  0  0  0  0  0
  140.7030   71.9150  224.9040 N   0  0  0  0  0  0  0  0  0  0  0  0
  138.9080   73.8190  223.0590 H   0  0  0  0  0  0  0  0  0  0  0  0
  140.1101   73.5200  220.2993 H   0  0  0  0  0  0  0  0  0  0  0  0
  138.8284   74.6989  220.7949 H   0  0  0  0  0  0  0  0  0  0  0  0
  140.0023   76.4243  223.4130 H   0  0  0  0  0  0  0  0  0  0  0  0
  140.5914   78.0385  222.8911 H   0  0  0  0  0  0  0  0  0  0  0  0
  137.8368   76.8076  222.5073 H   0  0  0  0  0  0  0  0  0  0  0  0
  138.3119   78.3309  223.3902 H   0  0  0  0  0  0  0  0  0  0  0  0
  137.1652   78.5973  221.1706 H   0  0  0  0  0  0  0  0  0  0  0  0
  138.7647   79.4547  221.4486 H   0  0  0  0  0  0  0  0  0  0  0  0
  138.2451   77.0056  219.7648 H   0  0  0  0  0  0  0  0  0  0  0  0
  138.7418   78.6597  219.2314 H   0  0  0  0  0  0  0  0  0  0  0  0
  140.7477   77.0286  219.3419 H   0  0  0  0  0  0  0  0  0  0  0  0
  141.3562   79.2257  219.5033 H   0  0  0  0  0  0  0  0  0  0  0  0
  140.3019   79.4849  220.9799 H   0  0  0  0  0  0  0  0  0  0  0  0
  142.1860   77.7980  221.8690 H   0  0  0  0  0  0  0  0  0  0  0  0
  141.3775   80.3782  221.6328 H   0  0  0  0  0  0  0  0  0  0  0  0
  141.4396   79.7535  224.4913 H   0  0  0  0  0  0  0  0  0  0  0  0
  142.1317   78.3840  224.2653 H   0  0  0  0  0  0  0  0  0  0  0  0
  143.2439   81.2732  223.4539 H   0  0  0  0  0  0  0  0  0  0  0  0
  144.2602   80.1605  223.0417 H   0  0  0  0  0  0  0  0  0  0  0  0
  139.2547   69.9336  222.6403 H   0  0  0  0  0  0  0  0  0  0  0  0
  138.9980   68.4894  224.6404 H   0  0  0  0  0  0  0  0  0  0  0  0
  139.3278   68.0900  226.9975 H   0  0  0  0  0  0  0  0  0  0  0  0
  140.2183   68.9468  229.1647 H   0  0  0  0  0  0  0  0  0  0  0  0
  141.3060   71.1520  229.3129 H   0  0  0  0  0  0  0  0  0  0  0  0
  141.5462   72.5791  227.2812 H   0  0  0  0  0  0  0  0  0  0  0  0
  1  2  2  0
  2  3  1  0
  3  4  1  0
  4  5  1  0
  5  6  2  0
  5  7  1  0
  7  8  1  0
  8  9  1  0
  9 10  1  0
 10 11  1  0
 11 12  1  0
 12 13  1  0
 13 14  1  0
 14 15  1  0
 15 16  1  0
 16 17  1  0
  2 18  1  0
 18 19  2  0
 19 20  1  0
 20 21  2  0
 21 22  1  0
 22 23  2  0
 23 24  1  0
 24 25  2  0
 25 26  1  0
 26 27  2  0
 12  7  1  0
 17 15  1  0
 27 18  1  0
 26 21  1  0
  3 28  1  0
  4 29  1  0
  4 30  1  0
  8 31  1  0
  8 32  1  0
  9 33  1  0
  9 34  1  0
 10 35  1  0
 10 36  1  0
 11 37  1  0
 11 38  1  0
 12 39  1  6
 13 40  1  0
 13 41  1  0
 14 42  1  0
 15 43  1  0
 16 44  1  0
 16 45  1  0
 17 46  1  0
 17 47  1  0
 19 48  1  0
 20 49  1  0
 22 50  1  0
 23 51  1  0
 24 52  1  0
 25 53  1  0
M  END
>  <smiles>  (38) 
O=C(NCC(=O)N1CCCC[C@H]1CNC1CC1)c1ccc2ccccc2n1

>  <score_type>  (38) 
oracle

>  <origin>  (38) 
autodockgpu

>  <m_score__min__energy>  (38) 
-8.3200000000000003

>  <m_primary>  (38) 
energy

>  <rmsd>  (38) 
2.5388805291905476

>  <m_score__min__rmsd>  (38) 
2.5388805291905476

>  <meeko>  (38) 
{"free_energy": -7.87, "intermolecular_energy": -9.96, "internal_energy": -1.54, "cluster_size": 13, "cluster_id": 1, "rank_in_cluster": 9}

>  <energy>  (38) 
-6.24

>  <cluster_rmsd>  (38) 
0.54

>  <cluster>  (38) 
4

$$$$

     RDKit          3D

 53 56  0  0  0  0  0  0  0  0999 V2000
  141.3760   72.0380  221.6140 O   0  0  0  0  0  0  0  0  0  0  0  0
  140.4290   72.2720  222.4370 C   0  0  0  0  0  0  0  0  0  0  0  0
  139.5220   73.3340  222.1280 N   0  0  0  0  0  0  0  0  0  0  0  0
  139.7720   74.0530  220.8910 C   0  0  0  0  0  0  0  0  0  0  0  0
  140.8550   75.0320  221.0500 C   0  0  0  0  0  0  0  0  0  0  0  0
  141.0150   75.7610  222.0720 O   0  0  0  0  0  0  0  0  0  0  0  0
  141.7960   75.1780  219.9910 N   0  0  0  0  0  0  0  0  0  0  0  0
  142.9490   76.0740  220.0930 C   0  0  0  0  0  0  0  0  0  0  0  0
  142.8890   77.1000  218.9790 C   0  0  0  0  0  0  0  0  0  0  0  0
  142.5990   76.4990  217.6440 C   0  0  0  0  0  0  0  0  0  0  0  0
  141.4770   75.4960  217.6380 C   0  0  0  0  0  0  0  0  0  0  0  0
  141.6730   74.4470  218.7400 C   0  0  1  0  0  0  0  0  0  0  0  0
  142.9350   73.7130  218.3830 C   0  0  0  0  0  0  0  0  0  0  0  0
  143.4750   72.9110  219.4530 N   0  0  0  0  0  0  0  0  0  0  0  0
  144.7990   73.4760  219.7340 C   0  0  0  0  0  0  0  0  0  0  0  0
  145.1490   73.4600  221.2160 C   0  0  0  0  0  0  0  0  0  0  0  0
  145.9080   72.6610  220.2290 C   0  0  0  0  0  0  0  0  0  0  0  0
  140.2700   71.4850  223.6540 C   0  0  0  0  0  0  0  0  0  0  0  0
  139.6480   70.2570  223.5620 C   0  0  0  0  0  0  0  0  0  0  0  0
  139.4680   69.4610  224.6870 C   0  0  0  0  0  0  0  0  0  0  0  0
  139.9140   69.8920  225.9190 C   0  0  0  0  0  0  0  0  0  0  0  0
  139.7300   69.0910  227.0310 C   0  0  0  0  0  0  0  0  0  0  0  0
  140.2030   69.5860  228.2300 C   0  0  0  0  0  0  0  0  0  0  0  0
  140.8270   70.8180  228.3170 C   0  0  0  0  0  0  0  0  0  0  0  0
  140.9970   71.6000  227.1840 C   0  0  0  0  0  0  0  0  0  0  0  0
  140.5330   71.1250  225.9750 C   0  0  0  0  0  0  0  0  0  0  0  0
  140.7020   71.8960  224.8600 N   0  0  0  0  0  0  0  0  0  0  0  0
  138.7260   73.5710  222.7700 H   0  0  0  0  0  0  0  0  0  0  0  0
  140.0528   73.3325  220.1087 H   0  0  0  0  0  0  0  0  0  0  0  0
  138.8550   74.5932  220.6130 H   0  0  0  0  0  0  0  0  0  0  0  0
  142.9303   76.5870  221.0659 H   0  0  0  0  0  0  0  0  0  0  0  0
  143.8771   75.4901  220.0053 H   0  0  0  0  0  0  0  0  0  0  0  0
  142.0979   77.8269  219.2149 H   0  0  0  0  0  0  0  0  0  0  0  0
  143.8794   77.5746  218.9167 H   0  0  0  0  0  0  0  0  0  0  0  0
  142.3357   77.3122  216.9517 H   0  0  0  0  0  0  0  0  0  0  0  0
  143.5060   75.9534  217.3444 H   0  0  0  0  0  0  0  0  0  0  0  0
  140.5246   76.0203  217.8055 H   0  0  0  0  0  0  0  0  0  0  0  0
  141.4687   74.9846  216.6641 H   0  0  0  0  0  0  0  0  0  0  0  0
  140.8491   73.7249  218.8389 H   0  0  0  0  0  0  0  0  0  0  0  0
  142.7201   73.0516  217.5307 H   0  0  0  0  0  0  0  0  0  0  0  0
  143.6902   74.4778  218.1490 H   0  0  0  0  0  0  0  0  0  0  0  0
  142.9060   72.9410  220.3290 H   0  0  0  0  0  0  0  0  0  0  0  0
  144.7352   74.1876  218.8976 H   0  0  0  0  0  0  0  0  0  0  0  0
  145.6083   74.3416  221.6870 H   0  0  0  0  0  0  0  0  0  0  0  0
  144.6085   73.2503  222.1508 H   0  0  0  0  0  0  0  0  0  0  0  0
  146.9421   72.9428  219.9816 H   0  0  0  0  0  0  0  0  0  0  0  0
  146.1687   71.5955  220.1473 H   0  0  0  0  0  0  0  0  0  0  0  0
  139.2894   69.9028  222.5843 H   0  0  0  0  0  0  0  0  0  0  0  0
  138.9688   68.4852  224.5947 H   0  0  0  0  0  0  0  0  0  0  0  0
  139.2333   68.1118  226.9640 H   0  0  0  0  0  0  0  0  0  0  0  0
  140.0803   68.9837  229.1422 H   0  0  0  0  0  0  0  0  0  0  0  0
  141.1904   71.1794  229.2903 H   0  0  0  0  0  0  0  0  0  0  0  0
  141.4923   72.5801  227.2484 H   0  0  0  0  0  0  0  0  0  0  0  0
  1  2  2  0
  2  3  1  0
  3  4  1  0
  4  5  1  0
  5  6  2  0
  5  7  1  0
  7  8  1  0
  8  9  1  0
  9 10  1  0
 10 11  1  0
 11 12  1  0
 12 13  1  0
 13 14  1  0
 14 15  1  0
 15 16  1  0
 16 17  1  0
  2 18  1  0
 18 19  2  0
 19 20  1  0
 20 21  2  0
 21 22  1  0
 22 23  2  0
 23 24  1  0
 24 25  2  0
 25 26  1  0
 26 27  2  0
 12  7  1  0
 17 15  1  0
 27 18  1  0
 26 21  1  0
  3 28  1  0
  4 29  1  0
  4 30  1  0
  8 31  1  0
  8 32  1  0
  9 33  1  0
  9 34  1  0
 10 35  1  0
 10 36  1  0
 11 37  1  0
 11 38  1  0
 12 39  1  1
 13 40  1  0
 13 41  1  0
 14 42  1  0
 15 43  1  0
 16 44  1  0
 16 45  1  0
 17 46  1  0
 17 47  1  0
 19 48  1  0
 20 49  1  0
 22 50  1  0
 23 51  1  0
 24 52  1  0
 25 53  1  0
M  END
>  <smiles>  (39) 
O=C(NCC(=O)N1CCCC[C@H]1CNC1CC1)c1ccc2ccccc2n1

>  <score_type>  (39) 
oracle

>  <origin>  (39) 
autodockgpu

>  <m_score__min__energy>  (39) 
-8.3200000000000003

>  <m_primary>  (39) 
energy

>  <rmsd>  (39) 
3.9407452469076967

>  <m_score__min__rmsd>  (39) 
3.9407452469076967

>  <meeko>  (39) 
{"free_energy": -7.16, "intermolecular_energy": -9.24, "internal_energy": -2.37, "cluster_size": 5, "cluster_id": 2, "rank_in_cluster": 5}

>  <energy>  (39) 
-6.24

>  <cluster_rmsd>  (39) 
0.83

>  <cluster>  (39) 
4

$$$$

     RDKit          3D

 53 56  0  0  0  0  0  0  0  0999 V2000
  138.8180   75.1480  222.0220 O   0  0  0  0  0  0  0  0  0  0  0  0
  139.9860   75.6630  222.0050 C   0  0  0  0  0  0  0  0  0  0  0  0
  141.0720   74.8430  221.5680 N   0  0  0  0  0  0  0  0  0  0  0  0
  140.7360   73.4840  221.1810 C   0  0  0  0  0  0  0  0  0  0  0  0
  141.9400   72.6950  220.8940 C   0  0  0  0  0  0  0  0  0  0  0  0
  142.1390   71.5170  221.3110 O   0  0  0  0  0  0  0  0  0  0  0  0
  142.9590   73.2850  220.0920 N   0  0  0  0  0  0  0  0  0  0  0  0
  143.2110   72.8560  218.7150 C   0  0  0  0  0  0  0  0  0  0  0  0
  144.6420   72.3740  218.5920 C   0  0  0  0  0  0  0  0  0  0  0  0
  145.6290   73.3050  219.2150 C   0  0  0  0  0  0  0  0  0  0  0  0
  145.2460   73.8010  220.5830 C   0  0  0  0  0  0  0  0  0  0  0  0
  143.8140   74.3520  220.5870 C   0  0  1  0  0  0  0  0  0  0  0  0
  143.8330   75.5400  219.6660 C   0  0  0  0  0  0  0  0  0  0  0  0
  143.0030   76.6370  220.0990 N   0  0  0  0  0  0  0  0  0  0  0  0
  141.9910   76.7980  219.0490 C   0  0  0  0  0  0  0  0  0  0  0  0
  142.5810   76.7550  217.6460 C   0  0  0  0  0  0  0  0  0  0  0  0
  141.6430   75.7170  218.1280 C   0  0  0  0  0  0  0  0  0  0  0  0
  140.2100   77.0440  222.4150 C   0  0  0  0  0  0  0  0  0  0  0  0
  139.1110   77.8320  222.6930 C   0  0  0  0  0  0  0  0  0  0  0  0
  139.2620   79.1550  223.0890 C   0  0  0  0  0  0  0  0  0  0  0  0
  140.5230   79.7030  223.2110 C   0  0  0  0  0  0  0  0  0  0  0  0
  140.6600   81.0200  223.6070 C   0  0  0  0  0  0  0  0  0  0  0  0
  141.9510   81.5000  223.7080 C   0  0  0  0  0  0  0  0  0  0  0  0
  143.0490   80.7070  223.4280 C   0  0  0  0  0  0  0  0  0  0  0  0
  142.8810   79.3880  223.0340 C   0  0  0  0  0  0  0  0  0  0  0  0
  141.5990   78.8870  222.9260 C   0  0  0  0  0  0  0  0  0  0  0  0
  141.4350   77.5880  222.5380 N   0  0  0  0  0  0  0  0  0  0  0  0
  142.0530   75.2150  221.5340 H   0  0  0  0  0  0  0  0  0  0  0  0
  140.1816   73.0051  222.0015 H   0  0  0  0  0  0  0  0  0  0  0  0
  140.1239   73.5256  220.2680 H   0  0  0  0  0  0  0  0  0  0  0  0
  142.5243   72.0372  218.4542 H   0  0  0  0  0  0  0  0  0  0  0  0
  143.0481   73.7019  218.0310 H   0  0  0  0  0  0  0  0  0  0  0  0
  144.7251   71.3943  219.0853 H   0  0  0  0  0  0  0  0  0  0  0  0
  144.8776   72.3161  217.5191 H   0  0  0  0  0  0  0  0  0  0  0  0
  146.5916   72.7791  219.2979 H   0  0  0  0  0  0  0  0  0  0  0  0
  145.6755   74.1907  218.5643 H   0  0  0  0  0  0  0  0  0  0  0  0
  145.3133   72.9688  221.2992 H   0  0  0  0  0  0  0  0  0  0  0  0
  145.9339   74.6108  220.8675 H   0  0  0  0  0  0  0  0  0  0  0  0
  143.4441   74.6647  221.5746 H   0  0  0  0  0  0  0  0  0  0  0  0
  144.8693   75.9007  219.5896 H   0  0  0  0  0  0  0  0  0  0  0  0
  143.4283   75.1989  218.7017 H   0  0  0  0  0  0  0  0  0  0  0  0
  142.5170   76.4620  221.0080 H   0  0  0  0  0  0  0  0  0  0  0  0
  141.3646   77.4527  219.6727 H   0  0  0  0  0  0  0  0  0  0  0  0
  142.2600   77.4833  216.8867 H   0  0  0  0  0  0  0  0  0  0  0  0
  143.5937   76.7636  217.2166 H   0  0  0  0  0  0  0  0  0  0  0  0
  140.6271   75.6658  217.7092 H   0  0  0  0  0  0  0  0  0  0  0  0
  141.6836   74.6194  218.1883 H   0  0  0  0  0  0  0  0  0  0  0  0
  138.1011   77.4061  222.5996 H   0  0  0  0  0  0  0  0  0  0  0  0
  138.3744   79.7674  223.3059 H   0  0  0  0  0  0  0  0  0  0  0  0
  139.7876   81.6519  223.8298 H   0  0  0  0  0  0  0  0  0  0  0  0
  142.1105   82.5427  224.0200 H   0  0  0  0  0  0  0  0  0  0  0  0
  144.0623   81.1253  223.5184 H   0  0  0  0  0  0  0  0  0  0  0  0
  143.7518   78.7536  222.8120 H   0  0  0  0  0  0  0  0  0  0  0  0
  1  2  2  0
  2  3  1  0
  3  4  1  0
  4  5  1  0
  5  6  2  0
  5  7  1  0
  7  8  1  0
  8  9  1  0
  9 10  1  0
 10 11  1  0
 11 12  1  0
 12 13  1  0
 13 14  1  0
 14 15  1  0
 15 16  1  0
 16 17  1  0
  2 18  1  0
 18 19  2  0
 19 20  1  0
 20 21  2  0
 21 22  1  0
 22 23  2  0
 23 24  1  0
 24 25  2  0
 25 26  1  0
 26 27  2  0
 12  7  1  0
 17 15  1  0
 27 18  1  0
 26 21  1  0
  3 28  1  0
  4 29  1  0
  4 30  1  0
  8 31  1  0
  8 32  1  0
  9 33  1  0
  9 34  1  0
 10 35  1  0
 10 36  1  0
 11 37  1  0
 11 38  1  0
 12 39  1  1
 13 40  1  0
 13 41  1  0
 14 42  1  0
 15 43  1  0
 16 44  1  0
 16 45  1  0
 17 46  1  0
 17 47  1  0
 19 48  1  0
 20 49  1  0
 22 50  1  0
 23 51  1  0
 24 52  1  0
 25 53  1  0
M  END
>  <smiles>  (40) 
O=C(NCC(=O)N1CCCC[C@H]1CNC1CC1)c1ccc2ccccc2n1

>  <score_type>  (40) 
oracle

>  <origin>  (40) 
autodockgpu

>  <m_score__min__energy>  (40) 
-8.3200000000000003

>  <m_primary>  (40) 
energy

>  <rmsd>  (40) 
7.234564992954274

>  <m_score__min__rmsd>  (40) 
7.234564992954274

>  <meeko>  (40) 
{"free_energy": -6.52, "intermolecular_energy": -8.61, "internal_energy": -3.45, "cluster_size": 13, "cluster_id": 3, "rank_in_cluster": 7}

>  <energy>  (40) 
-6.24

>  <cluster_rmsd>  (40) 
0.83

>  <cluster>  (40) 
4

$$$$

     RDKit          3D

 53 56  0  0  0  0  0  0  0  0999 V2000
  139.5120   74.2500  222.3520 O   0  0  0  0  0  0  0  0  0  0  0  0
  140.2150   74.6580  221.3670 C   0  0  0  0  0  0  0  0  0  0  0  0
  139.7830   75.8340  220.6790 N   0  0  0  0  0  0  0  0  0  0  0  0
  138.5690   76.4580  221.1740 C   0  0  0  0  0  0  0  0  0  0  0  0
  138.8690   77.6540  221.9720 C   0  0  0  0  0  0  0  0  0  0  0  0
  138.0170   78.2830  222.6640 O   0  0  0  0  0  0  0  0  0  0  0  0
  140.2050   78.1460  221.9760 N   0  0  0  0  0  0  0  0  0  0  0  0
  141.1760   77.7500  222.9970 C   0  0  0  0  0  0  0  0  0  0  0  0
  141.6720   78.9830  223.7250 C   0  0  0  0  0  0  0  0  0  0  0  0
  142.0560   80.0930  222.8030 C   0  0  0  0  0  0  0  0  0  0  0  0
  141.0650   80.3650  221.7030 C   0  0  0  0  0  0  0  0  0  0  0  0
  140.6930   79.0720  220.9660 C   0  0  1  0  0  0  0  0  0  0  0  0
  141.9620   78.5920  220.3200 C   0  0  0  0  0  0  0  0  0  0  0  0
  142.0600   77.1590  220.2000 N   0  0  0  0  0  0  0  0  0  0  0  0
  142.9340   76.9230  219.0460 C   0  0  0  0  0  0  0  0  0  0  0  0
  142.2600   76.1110  217.9480 C   0  0  0  0  0  0  0  0  0  0  0  0
  142.6720   77.5150  217.7350 C   0  0  0  0  0  0  0  0  0  0  0  0
  141.4220   73.9510  220.9550 C   0  0  0  0  0  0  0  0  0  0  0  0
  141.3100   72.6270  220.5800 C   0  0  0  0  0  0  0  0  0  0  0  0
  142.4240   71.9010  220.1780 C   0  0  0  0  0  0  0  0  0  0  0  0
  143.6660   72.5000  220.1450 C   0  0  0  0  0  0  0  0  0  0  0  0
  144.7670   71.7680  219.7420 C   0  0  0  0  0  0  0  0  0  0  0  0
  145.9780   72.4330  219.7340 C   0  0  0  0  0  0  0  0  0  0  0  0
  146.0860   73.7600  220.1100 C   0  0  0  0  0  0  0  0  0  0  0  0
  144.9630   74.4690  220.5100 C   0  0  0  0  0  0  0  0  0  0  0  0
  143.7430   73.8250  220.5250 C   0  0  0  0  0  0  0  0  0  0  0  0
  142.6380   74.5260  220.9200 N   0  0  0  0  0  0  0  0  0  0  0  0
  140.3230   76.2130  219.8620 H   0  0  0  0  0  0  0  0  0  0  0  0
  137.9404   76.7467  220.3187 H   0  0  0  0  0  0  0  0  0  0  0  0
  138.0450   75.7351  221.8166 H   0  0  0  0  0  0  0  0  0  0  0  0
  140.6964   77.0681  223.7147 H   0  0  0  0  0  0  0  0  0  0  0  0
  142.0248   77.2395  222.5185 H   0  0  0  0  0  0  0  0  0  0  0  0
  140.8731   79.3415  224.3908 H   0  0  0  0  0  0  0  0  0  0  0  0
  142.5745   78.6934  224.2833 H   0  0  0  0  0  0  0  0  0  0  0  0
  142.1677   81.0109  223.3989 H   0  0  0  0  0  0  0  0  0  0  0  0
  142.9895   79.7813  222.3116 H   0  0  0  0  0  0  0  0  0  0  0  0
  140.1558   80.8050  222.1386 H   0  0  0  0  0  0  0  0  0  0  0  0
  141.5225   81.0595  220.9830 H   0  0  0  0  0  0  0  0  0  0  0  0
  139.9162   79.1890  220.1960 H   0  0  0  0  0  0  0  0  0  0  0  0
  142.0215   79.0272  219.3115 H   0  0  0  0  0  0  0  0  0  0  0  0
  142.7883   78.9112  220.9721 H   0  0  0  0  0  0  0  0  0  0  0  0
  142.4800   76.6950  221.0370 H   0  0  0  0  0  0  0  0  0  0  0  0
  143.8424   76.8987  219.6658 H   0  0  0  0  0  0  0  0  0  0  0  0
  142.8017   75.2925  217.4514 H   0  0  0  0  0  0  0  0  0  0  0  0
  141.3240   75.5414  217.8512 H   0  0  0  0  0  0  0  0  0  0  0  0
  143.5128   77.7383  217.0619 H   0  0  0  0  0  0  0  0  0  0  0  0
  142.1484   78.4216  217.3974 H   0  0  0  0  0  0  0  0  0  0  0  0
  140.3240   72.1398  220.5999 H   0  0  0  0  0  0  0  0  0  0  0  0
  142.3154   70.8462  219.8854 H   0  0  0  0  0  0  0  0  0  0  0  0
  144.6835   70.7125  219.4436 H   0  0  0  0  0  0  0  0  0  0  0  0
  146.8825   71.8917  219.4195 H   0  0  0  0  0  0  0  0  0  0  0  0
  147.0679   74.2555  220.0916 H   0  0  0  0  0  0  0  0  0  0  0  0
  145.0436   75.5244  220.8095 H   0  0  0  0  0  0  0  0  0  0  0  0
  1  2  2  0
  2  3  1  0
  3  4  1  0
  4  5  1  0
  5  6  2  0
  5  7  1  0
  7  8  1  0
  8  9  1  0
  9 10  1  0
 10 11  1  0
 11 12  1  0
 12 13  1  0
 13 14  1  0
 14 15  1  0
 15 16  1  0
 16 17  1  0
  2 18  1  0
 18 19  2  0
 19 20  1  0
 20 21  2  0
 21 22  1  0
 22 23  2  0
 23 24  1  0
 24 25  2  0
 25 26  1  0
 26 27  2  0
 12  7  1  0
 17 15  1  0
 27 18  1  0
 26 21  1  0
  3 28  1  0
  4 29  1  0
  4 30  1  0
  8 31  1  0
  8 32  1  0
  9 33  1  0
  9 34  1  0
 10 35  1  0
 10 36  1  0
 11 37  1  0
 11 38  1  0
 12 39  1  6
 13 40  1  0
 13 41  1  0
 14 42  1  0
 15 43  1  0
 16 44  1  0
 16 45  1  0
 17 46  1  0
 17 47  1  0
 19 48  1  0
 20 49  1  0
 22 50  1  0
 23 51  1  0
 24 52  1  0
 25 53  1  0
M  END
>  <smiles>  (41) 
O=C(NCC(=O)N1CCCC[C@H]1CNC1CC1)c1ccc2ccccc2n1

>  <score_type>  (41) 
oracle

>  <origin>  (41) 
autodockgpu

>  <m_score__min__energy>  (41) 
-8.3200000000000003

>  <m_primary>  (41) 
energy

>  <rmsd>  (41) 
5.975455902859235

>  <m_score__min__rmsd>  (41) 
5.975455902859235

>  <meeko>  (41) 
{"free_energy": -6.22, "intermolecular_energy": -8.31, "internal_energy": -3.69, "cluster_size": 18, "cluster_id": 4, "rank_in_cluster": 11}

>  <energy>  (41) 
-6.22

>  <cluster_rmsd>  (41) 
0.72

>  <cluster>  (41) 
4

$$$$

     RDKit          3D

 53 56  0  0  0  0  0  0  0  0999 V2000
  138.9700   74.3910  221.2420 O   0  0  0  0  0  0  0  0  0  0  0  0
  140.1410   74.7950  221.5530 C   0  0  0  0  0  0  0  0  0  0  0  0
  140.2540   76.0210  222.2800 N   0  0  0  0  0  0  0  0  0  0  0  0
  139.0070   76.6970  222.5980 C   0  0  0  0  0  0  0  0  0  0  0  0
  139.2230   78.1280  222.8460 C   0  0  0  0  0  0  0  0  0  0  0  0
  138.3550   78.9050  223.3400 O   0  0  0  0  0  0  0  0  0  0  0  0
  140.4890   78.6880  222.5150 N   0  0  0  0  0  0  0  0  0  0  0  0
  141.6080   78.6940  223.4590 C   0  0  0  0  0  0  0  0  0  0  0  0
  142.0470   80.1220  223.7110 C   0  0  0  0  0  0  0  0  0  0  0  0
  142.1990   80.9180  222.4570 C   0  0  0  0  0  0  0  0  0  0  0  0
  141.0650   80.7700  221.4790 C   0  0  0  0  0  0  0  0  0  0  0  0
  140.7550   79.2900  221.2180 C   0  0  1  0  0  0  0  0  0  0  0  0
  141.9860   78.7240  220.5700 C   0  0  0  0  0  0  0  0  0  0  0  0
  141.9920   77.2860  220.4650 N   0  0  0  0  0  0  0  0  0  0  0  0
  142.6580   76.9900  219.1920 C   0  0  0  0  0  0  0  0  0  0  0  0
  141.6800   76.7910  218.0420 C   0  0  0  0  0  0  0  0  0  0  0  0
  142.6350   77.9210  218.0640 C   0  0  0  0  0  0  0  0  0  0  0  0
  141.3280   74.0340  221.1820 C   0  0  0  0  0  0  0  0  0  0  0  0
  141.1960   72.6770  220.9700 C   0  0  0  0  0  0  0  0  0  0  0  0
  142.2910   71.8990  220.6140 C   0  0  0  0  0  0  0  0  0  0  0  0
  143.5340   72.4790  220.4670 C   0  0  0  0  0  0  0  0  0  0  0  0
  144.6160   71.6950  220.1130 C   0  0  0  0  0  0  0  0  0  0  0  0
  145.8290   72.3430  219.9840 C   0  0  0  0  0  0  0  0  0  0  0  0
  145.9570   73.7040  220.1970 C   0  0  0  0  0  0  0  0  0  0  0  0
  144.8530   74.4660  220.5520 C   0  0  0  0  0  0  0  0  0  0  0  0
  143.6310   73.8390  220.6870 C   0  0  0  0  0  0  0  0  0  0  0  0
  142.5450   74.5900  221.0360 N   0  0  0  0  0  0  0  0  0  0  0  0
  141.1910   76.4010  222.5620 H   0  0  0  0  0  0  0  0  0  0  0  0
  138.3113   76.5808  221.7539 H   0  0  0  0  0  0  0  0  0  0  0  0
  138.5909   76.2458  223.5109 H   0  0  0  0  0  0  0  0  0  0  0  0
  141.2907   78.2350  224.4070 H   0  0  0  0  0  0  0  0  0  0  0  0
  142.4470   78.1209  223.0375 H   0  0  0  0  0  0  0  0  0  0  0  0
  141.2957   80.6120  224.3478 H   0  0  0  0  0  0  0  0  0  0  0  0
  143.0338   80.0812  224.1952 H   0  0  0  0  0  0  0  0  0  0  0  0
  142.2780   81.9800  222.7324 H   0  0  0  0  0  0  0  0  0  0  0  0
  143.0979   80.5348  221.9519 H   0  0  0  0  0  0  0  0  0  0  0  0
  140.1691   81.2583  221.8901 H   0  0  0  0  0  0  0  0  0  0  0  0
  141.3577   81.2401  220.5286 H   0  0  0  0  0  0  0  0  0  0  0  0
  139.8875   79.1103  220.5660 H   0  0  0  0  0  0  0  0  0  0  0  0
  142.0662   79.1440  219.5565 H   0  0  0  0  0  0  0  0  0  0  0  0
  142.8353   78.9969  221.2136 H   0  0  0  0  0  0  0  0  0  0  0  0
  142.5160   76.8110  221.2340 H   0  0  0  0  0  0  0  0  0  0  0  0
  143.4882   76.4618  219.6836 H   0  0  0  0  0  0  0  0  0  0  0  0
  141.8187   75.9613  217.3332 H   0  0  0  0  0  0  0  0  0  0  0  0
  140.5896   76.6829  217.9450 H   0  0  0  0  0  0  0  0  0  0  0  0
  143.4755   77.9361  217.3546 H   0  0  0  0  0  0  0  0  0  0  0  0
  142.5292   79.0124  217.9764 H   0  0  0  0  0  0  0  0  0  0  0  0
  140.2095   72.2041  221.0845 H   0  0  0  0  0  0  0  0  0  0  0  0
  142.1664   70.8186  220.4491 H   0  0  0  0  0  0  0  0  0  0  0  0
  144.5164   70.6128  219.9431 H   0  0  0  0  0  0  0  0  0  0  0  0
  146.7188   71.7602  219.7038 H   0  0  0  0  0  0  0  0  0  0  0  0
  146.9398   74.1849  220.0843 H   0  0  0  0  0  0  0  0  0  0  0  0
  144.9499   75.5484  220.7224 H   0  0  0  0  0  0  0  0  0  0  0  0
  1  2  2  0
  2  3  1  0
  3  4  1  0
  4  5  1  0
  5  6  2  0
  5  7  1  0
  7  8  1  0
  8  9  1  0
  9 10  1  0
 10 11  1  0
 11 12  1  0
 12 13  1  0
 13 14  1  0
 14 15  1  0
 15 16  1  0
 16 17  1  0
  2 18  1  0
 18 19  2  0
 19 20  1  0
 20 21  2  0
 21 22  1  0
 22 23  2  0
 23 24  1  0
 24 25  2  0
 25 26  1  0
 26 27  2  0
 12  7  1  0
 17 15  1  0
 27 18  1  0
 26 21  1  0
  3 28  1  0
  4 29  1  0
  4 30  1  0
  8 31  1  0
  8 32  1  0
  9 33  1  0
  9 34  1  0
 10 35  1  0
 10 36  1  0
 11 37  1  0
 11 38  1  0
 12 39  1  6
 13 40  1  0
 13 41  1  0
 14 42  1  0
 15 43  1  0
 16 44  1  0
 16 45  1  0
 17 46  1  0
 17 47  1  0
 19 48  1  0
 20 49  1  0
 22 50  1  0
 23 51  1  0
 24 52  1  0
 25 53  1  0
M  END
>  <smiles>  (42) 
O=C(NCC(=O)N1CCCC[C@H]1CNC1CC1)c1ccc2ccccc2n1

>  <score_type>  (42) 
oracle

>  <origin>  (42) 
autodockgpu

>  <m_score__min__energy>  (42) 
-8.3200000000000003

>  <m_primary>  (42) 
energy

>  <rmsd>  (42) 
6.0016425358034455

>  <m_score__min__rmsd>  (42) 
6.0016425358034455

>  <meeko>  (42) 
{"free_energy": -6.24, "intermolecular_energy": -8.33, "internal_energy": -3.27, "cluster_size": 18, "cluster_id": 4, "rank_in_cluster": 7}

>  <energy>  (42) 
-6.22

>  <cluster_rmsd>  (42) 
0.76

>  <cluster>  (42) 
4

$$$$

     RDKit          3D

 53 56  0  0  0  0  0  0  0  0999 V2000
  139.8220   73.8380  222.3650 O   0  0  0  0  0  0  0  0  0  0  0  0
  140.1080   74.8020  221.5770 C   0  0  0  0  0  0  0  0  0  0  0  0
  140.5130   74.4780  220.2450 N   0  0  0  0  0  0  0  0  0  0  0  0
  140.5600   73.0640  219.9130 C   0  0  0  0  0  0  0  0  0  0  0  0
  141.8760   72.4870  220.2170 C   0  0  0  0  0  0  0  0  0  0  0  0
  142.0530   71.4130  220.8610 O   0  0  0  0  0  0  0  0  0  0  0  0
  143.0370   73.1730  219.7590 N   0  0  0  0  0  0  0  0  0  0  0  0
  143.7130   72.8120  218.5120 C   0  0  0  0  0  0  0  0  0  0  0  0
  145.1500   72.4340  218.8090 C   0  0  0  0  0  0  0  0  0  0  0  0
  145.8370   73.4070  219.7090 C   0  0  0  0  0  0  0  0  0  0  0  0
  145.0340   73.8260  220.9110 C   0  0  0  0  0  0  0  0  0  0  0  0
  143.6270   74.2770  220.5000 C   0  0  1  0  0  0  0  0  0  0  0  0
  143.8240   75.4960  219.6430 C   0  0  0  0  0  0  0  0  0  0  0  0
  143.0780   76.6520  220.0770 N   0  0  0  0  0  0  0  0  0  0  0  0
  142.1680   76.9660  218.9700 C   0  0  0  0  0  0  0  0  0  0  0  0
  142.8860   77.5360  217.7540 C   0  0  0  0  0  0  0  0  0  0  0  0
  142.1930   76.2300  217.7060 C   0  0  0  0  0  0  0  0  0  0  0  0
  140.0250   76.1900  222.0160 C   0  0  0  0  0  0  0  0  0  0  0  0
  138.7770   76.7680  222.1260 C   0  0  0  0  0  0  0  0  0  0  0  0
  138.6340   78.0870  222.5390 C   0  0  0  0  0  0  0  0  0  0  0  0
  139.7480   78.8400  222.8490 C   0  0  0  0  0  0  0  0  0  0  0  0
  139.5930   80.1510  223.2600 C   0  0  0  0  0  0  0  0  0  0  0  0
  140.7520   80.8440  223.5540 C   0  0  0  0  0  0  0  0  0  0  0  0
  142.0000   80.2600  223.4430 C   0  0  0  0  0  0  0  0  0  0  0  0
  142.1250   78.9420  223.0280 C   0  0  0  0  0  0  0  0  0  0  0  0
  140.9810   78.2300  222.7300 C   0  0  0  0  0  0  0  0  0  0  0  0
  141.1050   76.9330  222.3210 N   0  0  0  0  0  0  0  0  0  0  0  0
  140.7600   75.2300  219.5550 H   0  0  0  0  0  0  0  0  0  0  0  0
  139.7929   72.5335  220.4962 H   0  0  0  0  0  0  0  0  0  0  0  0
  140.3742   72.9547  218.8343 H   0  0  0  0  0  0  0  0  0  0  0  0
  143.1971   71.9579  218.0490 H   0  0  0  0  0  0  0  0  0  0  0  0
  143.6937   73.6689  217.8225 H   0  0  0  0  0  0  0  0  0  0  0  0
  145.1596   71.4449  219.2902 H   0  0  0  0  0  0  0  0  0  0  0  0
  145.6932   72.4317  217.8525 H   0  0  0  0  0  0  0  0  0  0  0  0
  146.7702   72.9455  220.0641 H   0  0  0  0  0  0  0  0  0  0  0  0
  146.0038   74.3169  219.1138 H   0  0  0  0  0  0  0  0  0  0  0  0
  144.9514   72.9751  221.6032 H   0  0  0  0  0  0  0  0  0  0  0  0
  145.5449   74.6697  221.3979 H   0  0  0  0  0  0  0  0  0  0  0  0
  142.9619   74.5274  221.3396 H   0  0  0  0  0  0  0  0  0  0  0  0
  144.8935   75.7532  219.6501 H   0  0  0  0  0  0  0  0  0  0  0  0
  143.4534   75.2396  218.6396 H   0  0  0  0  0  0  0  0  0  0  0  0
  142.5110   76.4860  220.9380 H   0  0  0  0  0  0  0  0  0  0  0  0
  141.3403   77.2219  219.6478 H   0  0  0  0  0  0  0  0  0  0  0  0
  142.4708   78.4041  217.2212 H   0  0  0  0  0  0  0  0  0  0  0  0
  143.9021   77.8969  217.5368 H   0  0  0  0  0  0  0  0  0  0  0  0
  141.2685   76.1267  217.1190 H   0  0  0  0  0  0  0  0  0  0  0  0
  142.4993   75.2129  217.4203 H   0  0  0  0  0  0  0  0  0  0  0  0
  137.8822   76.1760  221.8832 H   0  0  0  0  0  0  0  0  0  0  0  0
  137.6311   78.5317  222.6190 H   0  0  0  0  0  0  0  0  0  0  0  0
  138.6006   80.6173  223.3482 H   0  0  0  0  0  0  0  0  0  0  0  0
  140.6793   81.8902  223.8858 H   0  0  0  0  0  0  0  0  0  0  0  0
  142.9000   80.8442  223.6853 H   0  0  0  0  0  0  0  0  0  0  0  0
  143.1163   78.4738  222.9383 H   0  0  0  0  0  0  0  0  0  0  0  0
  1  2  2  0
  2  3  1  0
  3  4  1  0
  4  5  1  0
  5  6  2  0
  5  7  1  0
  7  8  1  0
  8  9  1  0
  9 10  1  0
 10 11  1  0
 11 12  1  0
 12 13  1  0
 13 14  1  0
 14 15  1  0
 15 16  1  0
 16 17  1  0
  2 18  1  0
 18 19  2  0
 19 20  1  0
 20 21  2  0
 21 22  1  0
 22 23  2  0
 23 24  1  0
 24 25  2  0
 25 26  1  0
 26 27  2  0
 12  7  1  0
 17 15  1  0
 27 18  1  0
 26 21  1  0
  3 28  1  0
  4 29  1  0
  4 30  1  0
  8 31  1  0
  8 32  1  0
  9 33  1  0
  9 34  1  0
 10 35  1  0
 10 36  1  0
 11 37  1  0
 11 38  1  0
 12 39  1  1
 13 40  1  0
 13 41  1  0
 14 42  1  0
 15 43  1  0
 16 44  1  0
 16 45  1  0
 17 46  1  0
 17 47  1  0
 19 48  1  0
 20 49  1  0
 22 50  1  0
 23 51  1  0
 24 52  1  0
 25 53  1  0
M  END
>  <smiles>  (43) 
O=C(NCC(=O)N1CCCC[C@H]1CNC1CC1)c1ccc2ccccc2n1

>  <score_type>  (43) 
oracle

>  <origin>  (43) 
autodockgpu

>  <m_score__min__energy>  (43) 
-8.3200000000000003

>  <m_primary>  (43) 
energy

>  <rmsd>  (43) 
6.905452767695446

>  <m_score__min__rmsd>  (43) 
6.905452767695446

>  <meeko>  (43) 
{"free_energy": -6.46, "intermolecular_energy": -8.55, "internal_energy": -3.1, "cluster_size": 13, "cluster_id": 3, "rank_in_cluster": 10}

>  <energy>  (43) 
-6.19

>  <cluster_rmsd>  (43) 
0.81

>  <cluster>  (43) 
4

$$$$

     RDKit          3D

 53 56  0  0  0  0  0  0  0  0999 V2000
  139.3120   73.7560  222.3300 O   0  0  0  0  0  0  0  0  0  0  0  0
  140.3030   74.3980  221.8430 C   0  0  0  0  0  0  0  0  0  0  0  0
  140.2250   75.8250  221.8130 N   0  0  0  0  0  0  0  0  0  0  0  0
  139.0090   76.4130  222.3460 C   0  0  0  0  0  0  0  0  0  0  0  0
  139.1960   77.8350  222.6620 C   0  0  0  0  0  0  0  0  0  0  0  0
  138.2930   78.5870  223.1320 O   0  0  0  0  0  0  0  0  0  0  0  0
  140.4750   78.4160  222.4300 N   0  0  0  0  0  0  0  0  0  0  0  0
  141.4970   78.4920  223.4750 C   0  0  0  0  0  0  0  0  0  0  0  0
  141.8750   79.9410  223.7060 C   0  0  0  0  0  0  0  0  0  0  0  0
  142.1290   80.6880  222.4400 C   0  0  0  0  0  0  0  0  0  0  0  0
  141.0990   80.4690  221.3640 C   0  0  0  0  0  0  0  0  0  0  0  0
  140.8500   78.9720  221.1390 C   0  0  1  0  0  0  0  0  0  0  0  0
  142.1520   78.4140  220.6370 C   0  0  0  0  0  0  0  0  0  0  0  0
  142.1340   76.9920  220.3980 N   0  0  0  0  0  0  0  0  0  0  0  0
  143.0520   76.7730  219.2750 C   0  0  0  0  0  0  0  0  0  0  0  0
  142.5270   75.7600  218.2670 C   0  0  0  0  0  0  0  0  0  0  0  0
  142.7270   77.1810  217.9090 C   0  0  0  0  0  0  0  0  0  0  0  0
  141.4790   73.7030  221.3330 C   0  0  0  0  0  0  0  0  0  0  0  0
  141.3520   72.3750  220.9770 C   0  0  0  0  0  0  0  0  0  0  0  0
  142.4370   71.6600  220.4850 C   0  0  0  0  0  0  0  0  0  0  0  0
  143.6650   72.2730  220.3450 C   0  0  0  0  0  0  0  0  0  0  0  0
  144.7370   71.5520  219.8540 C   0  0  0  0  0  0  0  0  0  0  0  0
  145.9350   72.2310  219.7410 C   0  0  0  0  0  0  0  0  0  0  0  0
  146.0570   73.5610  220.0990 C   0  0  0  0  0  0  0  0  0  0  0  0
  144.9640   74.2600  220.5890 C   0  0  0  0  0  0  0  0  0  0  0  0
  143.7570   73.6020  220.7100 C   0  0  0  0  0  0  0  0  0  0  0  0
  142.6810   74.2910  221.1930 N   0  0  0  0  0  0  0  0  0  0  0  0
  141.0100   76.4030  221.4230 H   0  0  0  0  0  0  0  0  0  0  0  0
  138.2068   76.3146  221.5998 H   0  0  0  0  0  0  0  0  0  0  0  0
  138.7459   75.8836  223.2736 H   0  0  0  0  0  0  0  0  0  0  0  0
  141.1010   78.0631  224.4073 H   0  0  0  0  0  0  0  0  0  0  0  0
  142.3864   77.9263  223.1605 H   0  0  0  0  0  0  0  0  0  0  0  0
  141.0538   80.4354  224.2456 H   0  0  0  0  0  0  0  0  0  0  0  0
  142.8106   79.9479  224.2845 H   0  0  0  0  0  0  0  0  0  0  0  0
  142.1559   81.7622  222.6753 H   0  0  0  0  0  0  0  0  0  0  0  0
  143.0814   80.3090  222.0408 H   0  0  0  0  0  0  0  0  0  0  0  0
  140.1563   80.9494  221.6651 H   0  0  0  0  0  0  0  0  0  0  0  0
  141.4722   80.9073  220.4267 H   0  0  0  0  0  0  0  0  0  0  0  0
  140.0536   78.7423  220.4158 H   0  0  0  0  0  0  0  0  0  0  0  0
  142.4022   78.9192  219.6924 H   0  0  0  0  0  0  0  0  0  0  0  0
  142.8969   78.5919  221.4266 H   0  0  0  0  0  0  0  0  0  0  0  0
  142.4610   76.4260  221.2130 H   0  0  0  0  0  0  0  0  0  0  0  0
  143.9429   76.9500  219.8954 H   0  0  0  0  0  0  0  0  0  0  0  0
  143.1941   74.9861  217.8595 H   0  0  0  0  0  0  0  0  0  0  0  0
  141.6890   75.0484  218.2288 H   0  0  0  0  0  0  0  0  0  0  0  0
  143.5364   77.4585  217.2177 H   0  0  0  0  0  0  0  0  0  0  0  0
  142.0793   77.9585  217.4778 H   0  0  0  0  0  0  0  0  0  0  0  0
  140.3777   71.8758  221.0845 H   0  0  0  0  0  0  0  0  0  0  0  0
  142.3166   70.6027  220.2064 H   0  0  0  0  0  0  0  0  0  0  0  0
  144.6415   70.4940  219.5684 H   0  0  0  0  0  0  0  0  0  0  0  0
  146.8168   71.6984  219.3553 H   0  0  0  0  0  0  0  0  0  0  0  0
  147.0276   74.0680  219.9944 H   0  0  0  0  0  0  0  0  0  0  0  0
  145.0573   75.3179  220.8755 H   0  0  0  0  0  0  0  0  0  0  0  0
  1  2  2  0
  2  3  1  0
  3  4  1  0
  4  5  1  0
  5  6  2  0
  5  7  1  0
  7  8  1  0
  8  9  1  0
  9 10  1  0
 10 11  1  0
 11 12  1  0
 12 13  1  0
 13 14  1  0
 14 15  1  0
 15 16  1  0
 16 17  1  0
  2 18  1  0
 18 19  2  0
 19 20  1  0
 20 21  2  0
 21 22  1  0
 22 23  2  0
 23 24  1  0
 24 25  2  0
 25 26  1  0
 26 27  2  0
 12  7  1  0
 17 15  1  0
 27 18  1  0
 26 21  1  0
  3 28  1  0
  4 29  1  0
  4 30  1  0
  8 31  1  0
  8 32  1  0
  9 33  1  0
  9 34  1  0
 10 35  1  0
 10 36  1  0
 11 37  1  0
 11 38  1  0
 12 39  1  6
 13 40  1  0
 13 41  1  0
 14 42  1  0
 15 43  1  0
 16 44  1  0
 16 45  1  0
 17 46  1  0
 17 47  1  0
 19 48  1  0
 20 49  1  0
 22 50  1  0
 23 51  1  0
 24 52  1  0
 25 53  1  0
M  END
>  <smiles>  (44) 
O=C(NCC(=O)N1CCCC[C@H]1CNC1CC1)c1ccc2ccccc2n1

>  <score_type>  (44) 
oracle

>  <origin>  (44) 
autodockgpu

>  <m_score__min__energy>  (44) 
-8.3200000000000003

>  <m_primary>  (44) 
energy

>  <rmsd>  (44) 
5.9917329811166855

>  <m_score__min__rmsd>  (44) 
5.9917329811166855

>  <meeko>  (44) 
{"free_energy": -6.28, "intermolecular_energy": -8.37, "internal_energy": -3.62, "cluster_size": 18, "cluster_id": 4, "rank_in_cluster": 5}

>  <energy>  (44) 
-6.19

>  <cluster_rmsd>  (44) 
0.6

>  <cluster>  (44) 
4

$$$$

     RDKit          3D

 53 56  0  0  0  0  0  0  0  0999 V2000
  138.7980   75.3090  221.7800 O   0  0  0  0  0  0  0  0  0  0  0  0
  139.9790   75.7550  221.9720 C   0  0  0  0  0  0  0  0  0  0  0  0
  141.0720   74.8530  221.7860 N   0  0  0  0  0  0  0  0  0  0  0  0
  140.7270   73.4980  221.3920 C   0  0  0  0  0  0  0  0  0  0  0  0
  141.9260   72.7110  221.0780 C   0  0  0  0  0  0  0  0  0  0  0  0
  142.1580   71.5510  221.5290 O   0  0  0  0  0  0  0  0  0  0  0  0
  142.9000   73.2790  220.2080 N   0  0  0  0  0  0  0  0  0  0  0  0
  143.1450   72.7510  218.8640 C   0  0  0  0  0  0  0  0  0  0  0  0
  144.5950   72.3270  218.7470 C   0  0  0  0  0  0  0  0  0  0  0  0
  145.5480   73.3500  219.2700 C   0  0  0  0  0  0  0  0  0  0  0  0
  145.1690   73.9380  220.6020 C   0  0  0  0  0  0  0  0  0  0  0  0
  143.7130   74.4210  220.5950 C   0  0  1  0  0  0  0  0  0  0  0  0
  143.6570   75.5290  219.5810 C   0  0  0  0  0  0  0  0  0  0  0  0
  143.1330   76.7720  220.0920 N   0  0  0  0  0  0  0  0  0  0  0  0
  142.2180   77.2640  219.0570 C   0  0  0  0  0  0  0  0  0  0  0  0
  141.6580   78.6460  219.3670 C   0  0  0  0  0  0  0  0  0  0  0  0
  142.5440   78.4080  218.2060 C   0  0  0  0  0  0  0  0  0  0  0  0
  140.2110   77.1390  222.3670 C   0  0  0  0  0  0  0  0  0  0  0  0
  139.1150   77.9500  222.5850 C   0  0  0  0  0  0  0  0  0  0  0  0
  139.2730   79.2780  222.9630 C   0  0  0  0  0  0  0  0  0  0  0  0
  140.5370   79.8060  223.1280 C   0  0  0  0  0  0  0  0  0  0  0  0
  140.6810   81.1280  223.5050 C   0  0  0  0  0  0  0  0  0  0  0  0
  141.9750   81.5880  223.6510 C   0  0  0  0  0  0  0  0  0  0  0  0
  143.0700   80.7710  223.4320 C   0  0  0  0  0  0  0  0  0  0  0  0
  142.8950   79.4480  223.0540 C   0  0  0  0  0  0  0  0  0  0  0  0
  141.6100   78.9670  222.9030 C   0  0  0  0  0  0  0  0  0  0  0  0
  141.4390   77.6640  222.5300 N   0  0  0  0  0  0  0  0  0  0  0  0
  142.0640   75.1660  221.9310 H   0  0  0  0  0  0  0  0  0  0  0  0
  140.1856   73.0120  222.2170 H   0  0  0  0  0  0  0  0  0  0  0  0
  140.0993   73.5484  220.4901 H   0  0  0  0  0  0  0  0  0  0  0  0
  142.4932   71.8829  218.6862 H   0  0  0  0  0  0  0  0  0  0  0  0
  142.9283   73.5297  218.1179 H   0  0  0  0  0  0  0  0  0  0  0  0
  144.7344   71.3956  219.3154 H   0  0  0  0  0  0  0  0  0  0  0  0
  144.8123   72.1928  217.6771 H   0  0  0  0  0  0  0  0  0  0  0  0
  146.5360   72.8774  219.3725 H   0  0  0  0  0  0  0  0  0  0  0  0
  145.5390   74.1809  218.5492 H   0  0  0  0  0  0  0  0  0  0  0  0
  145.2900   73.1712  221.3813 H   0  0  0  0  0  0  0  0  0  0  0  0
  145.8231   74.7990  220.8041 H   0  0  0  0  0  0  0  0  0  0  0  0
  143.3483   74.7961  221.5626 H   0  0  0  0  0  0  0  0  0  0  0  0
  144.6771   75.7105  219.2116 H   0  0  0  0  0  0  0  0  0  0  0  0
  142.9695   75.1980  218.7886 H   0  0  0  0  0  0  0  0  0  0  0  0
  142.6010   76.6680  220.9860 H   0  0  0  0  0  0  0  0  0  0  0  0
  141.8602   76.2530  218.8125 H   0  0  0  0  0  0  0  0  0  0  0  0
  140.5895   78.8584  219.2150 H   0  0  0  0  0  0  0  0  0  0  0  0
  141.6618   79.3209  220.2356 H   0  0  0  0  0  0  0  0  0  0  0  0
  142.1318   78.4627  217.1876 H   0  0  0  0  0  0  0  0  0  0  0  0
  143.4859   78.8580  217.8591 H   0  0  0  0  0  0  0  0  0  0  0  0
  138.1026   77.5392  222.4577 H   0  0  0  0  0  0  0  0  0  0  0  0
  138.3882   79.9097  223.1310 H   0  0  0  0  0  0  0  0  0  0  0  0
  139.8115   81.7788  223.6794 H   0  0  0  0  0  0  0  0  0  0  0  0
  142.1398   82.6337  223.9499 H   0  0  0  0  0  0  0  0  0  0  0  0
  144.0859   81.1733  223.5585 H   0  0  0  0  0  0  0  0  0  0  0  0
  143.7627   78.7952  222.8781 H   0  0  0  0  0  0  0  0  0  0  0  0
  1  2  2  0
  2  3  1  0
  3  4  1  0
  4  5  1  0
  5  6  2  0
  5  7  1  0
  7  8  1  0
  8  9  1  0
  9 10  1  0
 10 11  1  0
 11 12  1  0
 12 13  1  0
 13 14  1  0
 14 15  1  0
 15 16  1  0
 16 17  1  0
  2 18  1  0
 18 19  2  0
 19 20  1  0
 20 21  2  0
 21 22  1  0
 22 23  2  0
 23 24  1  0
 24 25  2  0
 25 26  1  0
 26 27  2  0
 12  7  1  0
 17 15  1  0
 27 18  1  0
 26 21  1  0
  3 28  1  0
  4 29  1  0
  4 30  1  0
  8 31  1  0
  8 32  1  0
  9 33  1  0
  9 34  1  0
 10 35  1  0
 10 36  1  0
 11 37  1  0
 11 38  1  0
 12 39  1  1
 13 40  1  0
 13 41  1  0
 14 42  1  0
 15 43  1  0
 16 44  1  0
 16 45  1  0
 17 46  1  0
 17 47  1  0
 19 48  1  0
 20 49  1  0
 22 50  1  0
 23 51  1  0
 24 52  1  0
 25 53  1  0
M  END
>  <smiles>  (45) 
O=C(NCC(=O)N1CCCC[C@H]1CNC1CC1)c1ccc2ccccc2n1

>  <score_type>  (45) 
oracle

>  <origin>  (45) 
autodockgpu

>  <m_score__min__energy>  (45) 
-8.3200000000000003

>  <m_primary>  (45) 
energy

>  <rmsd>  (45) 
7.169642602932655

>  <m_score__min__rmsd>  (45) 
7.169642602932655

>  <meeko>  (45) 
{"free_energy": -6.8, "intermolecular_energy": -8.89, "internal_energy": -3.1, "cluster_size": 13, "cluster_id": 3, "rank_in_cluster": 1}

>  <energy>  (45) 
-6.19

>  <cluster_rmsd>  (45) 
0.67

>  <cluster>  (45) 
4

$$$$

     RDKit          3D

 53 56  0  0  0  0  0  0  0  0999 V2000
  141.3910   72.6890  222.0370 O   0  0  0  0  0  0  0  0  0  0  0  0
  140.3050   72.5550  222.6960 C   0  0  0  0  0  0  0  0  0  0  0  0
  139.1840   73.3520  222.3050 N   0  0  0  0  0  0  0  0  0  0  0  0
  139.3930   74.2490  221.1810 C   0  0  0  0  0  0  0  0  0  0  0  0
  139.9550   75.5330  221.6190 C   0  0  0  0  0  0  0  0  0  0  0  0
  139.5320   76.1980  222.6090 O   0  0  0  0  0  0  0  0  0  0  0  0
  141.0520   76.0750  220.8890 N   0  0  0  0  0  0  0  0  0  0  0  0
  141.5820   77.4120  221.1610 C   0  0  0  0  0  0  0  0  0  0  0  0
  141.4910   78.2540  219.9040 C   0  0  0  0  0  0  0  0  0  0  0  0
  141.9920   77.5480  218.6890 C   0  0  0  0  0  0  0  0  0  0  0  0
  141.5000   76.1330  218.5370 C   0  0  0  0  0  0  0  0  0  0  0  0
  141.7180   75.3350  219.8290 C   0  0  1  0  0  0  0  0  0  0  0  0
  143.2060   75.2760  220.0250 C   0  0  0  0  0  0  0  0  0  0  0  0
  143.6920   73.9980  220.4840 N   0  0  0  0  0  0  0  0  0  0  0  0
  145.1120   74.2070  220.7880 C   0  0  0  0  0  0  0  0  0  0  0  0
  145.7310   73.0500  221.5610 C   0  0  0  0  0  0  0  0  0  0  0  0
  146.1670   73.3900  220.1890 C   0  0  0  0  0  0  0  0  0  0  0  0
  140.2050   71.6210  223.8110 C   0  0  0  0  0  0  0  0  0  0  0  0
  139.5990   70.4010  223.5900 C   0  0  0  0  0  0  0  0  0  0  0  0
  139.4740   69.4690  224.6130 C   0  0  0  0  0  0  0  0  0  0  0  0
  139.9600   69.7540  225.8730 C   0  0  0  0  0  0  0  0  0  0  0  0
  139.8310   68.8190  226.8820 C   0  0  0  0  0  0  0  0  0  0  0  0
  140.3400   69.1730  228.1170 C   0  0  0  0  0  0  0  0  0  0  0  0
  140.9480   70.3970  228.3330 C   0  0  0  0  0  0  0  0  0  0  0  0
  141.0630   71.3150  227.3000 C   0  0  0  0  0  0  0  0  0  0  0  0
  140.5610   70.9830  226.0580 C   0  0  0  0  0  0  0  0  0  0  0  0
  140.6750   71.8890  225.0420 N   0  0  0  0  0  0  0  0  0  0  0  0
  138.2660   73.2830  222.8110 H   0  0  0  0  0  0  0  0  0  0  0  0
  140.0882   73.7774  220.4709 H   0  0  0  0  0  0  0  0  0  0  0  0
  138.4201   74.4407  220.7049 H   0  0  0  0  0  0  0  0  0  0  0  0
  140.9944   77.8839  221.9623 H   0  0  0  0  0  0  0  0  0  0  0  0
  142.6330   77.3339  221.4761 H   0  0  0  0  0  0  0  0  0  0  0  0
  140.4379   78.5270  219.7410 H   0  0  0  0  0  0  0  0  0  0  0  0
  142.1272   79.1385  220.0550 H   0  0  0  0  0  0  0  0  0  0  0  0
  141.6726   78.1189  217.8046 H   0  0  0  0  0  0  0  0  0  0  0  0
  143.0854   77.4878  218.7928 H   0  0  0  0  0  0  0  0  0  0  0  0
  140.4258   76.1488  218.3005 H   0  0  0  0  0  0  0  0  0  0  0  0
  142.0652   75.6499  217.7263 H   0  0  0  0  0  0  0  0  0  0  0  0
  141.3143   74.3119  219.8112 H   0  0  0  0  0  0  0  0  0  0  0  0
  143.6898   75.5040  219.0638 H   0  0  0  0  0  0  0  0  0  0  0  0
  143.4506   76.0073  220.8095 H   0  0  0  0  0  0  0  0  0  0  0  0
  143.2130   73.6530  221.3470 H   0  0  0  0  0  0  0  0  0  0  0  0
  144.9926   75.2975  220.8695 H   0  0  0  0  0  0  0  0  0  0  0  0
  146.3924   73.2462  222.4178 H   0  0  0  0  0  0  0  0  0  0  0  0
  145.3534   72.1493  222.0671 H   0  0  0  0  0  0  0  0  0  0  0  0
  147.1649   73.8239  220.0278 H   0  0  0  0  0  0  0  0  0  0  0  0
  146.2528   72.8206  219.2517 H   0  0  0  0  0  0  0  0  0  0  0  0
  139.2092   70.1629  222.5893 H   0  0  0  0  0  0  0  0  0  0  0  0
  138.9868   68.5022  224.4183 H   0  0  0  0  0  0  0  0  0  0  0  0
  139.3490   67.8451  226.7114 H   0  0  0  0  0  0  0  0  0  0  0  0
  140.2595   68.4615  228.9521 H   0  0  0  0  0  0  0  0  0  0  0  0
  141.3424   70.6433  229.3299 H   0  0  0  0  0  0  0  0  0  0  0  0
  141.5452   72.2894  227.4673 H   0  0  0  0  0  0  0  0  0  0  0  0
  1  2  2  0
  2  3  1  0
  3  4  1  0
  4  5  1  0
  5  6  2  0
  5  7  1  0
  7  8  1  0
  8  9  1  0
  9 10  1  0
 10 11  1  0
 11 12  1  0
 12 13  1  0
 13 14  1  0
 14 15  1  0
 15 16  1  0
 16 17  1  0
  2 18  1  0
 18 19  2  0
 19 20  1  0
 20 21  2  0
 21 22  1  0
 22 23  2  0
 23 24  1  0
 24 25  2  0
 25 26  1  0
 26 27  2  0
 12  7  1  0
 17 15  1  0
 27 18  1  0
 26 21  1  0
  3 28  1  0
  4 29  1  0
  4 30  1  0
  8 31  1  0
  8 32  1  0
  9 33  1  0
  9 34  1  0
 10 35  1  0
 10 36  1  0
 11 37  1  0
 11 38  1  0
 12 39  1  6
 13 40  1  0
 13 41  1  0
 14 42  1  0
 15 43  1  0
 16 44  1  0
 16 45  1  0
 17 46  1  0
 17 47  1  0
 19 48  1  0
 20 49  1  0
 22 50  1  0
 23 51  1  0
 24 52  1  0
 25 53  1  0
M  END
>  <smiles>  (46) 
O=C(NCC(=O)N1CCCC[C@H]1CNC1CC1)c1ccc2ccccc2n1

>  <score_type>  (46) 
oracle

>  <origin>  (46) 
autodockgpu

>  <m_score__min__energy>  (46) 
-8.3200000000000003

>  <m_primary>  (46) 
energy

>  <rmsd>  (46) 
3.702092397669311

>  <m_score__min__rmsd>  (46) 
3.702092397669311

>  <meeko>  (46) 
{"free_energy": -7.68, "intermolecular_energy": -9.77, "internal_energy": -2.1, "cluster_size": 5, "cluster_id": 2, "rank_in_cluster": 1}

>  <energy>  (46) 
-6.16

>  <cluster_rmsd>  (46) 
0.54

>  <cluster>  (46) 
4

$$$$

     RDKit          3D

 53 56  0  0  0  0  0  0  0  0999 V2000
  139.1700   74.0940  222.3490 O   0  0  0  0  0  0  0  0  0  0  0  0
  140.1840   74.7050  221.8700 C   0  0  0  0  0  0  0  0  0  0  0  0
  140.1340   76.1320  221.8010 N   0  0  0  0  0  0  0  0  0  0  0  0
  138.9160   76.7560  222.2890 C   0  0  0  0  0  0  0  0  0  0  0  0
  139.1380   78.1670  222.6310 C   0  0  0  0  0  0  0  0  0  0  0  0
  138.2570   78.9290  223.1260 O   0  0  0  0  0  0  0  0  0  0  0  0
  140.4270   78.7250  222.3970 N   0  0  0  0  0  0  0  0  0  0  0  0
  141.5790   78.4020  223.2410 C   0  0  0  0  0  0  0  0  0  0  0  0
  142.1270   79.6750  223.8530 C   0  0  0  0  0  0  0  0  0  0  0  0
  142.2870   80.7800  222.8620 C   0  0  0  0  0  0  0  0  0  0  0  0
  141.1080   80.9770  221.9460 C   0  0  0  0  0  0  0  0  0  0  0  0
  140.6840   79.6490  221.3040 C   0  0  1  0  0  0  0  0  0  0  0  0
  141.8470   79.2180  220.4560 C   0  0  0  0  0  0  0  0  0  0  0  0
  142.0440   77.7900  220.4030 N   0  0  0  0  0  0  0  0  0  0  0  0
  142.0790   77.4540  218.9760 C   0  0  0  0  0  0  0  0  0  0  0  0
  143.3030   76.6350  218.5890 C   0  0  0  0  0  0  0  0  0  0  0  0
  141.9350   76.0800  218.4940 C   0  0  0  0  0  0  0  0  0  0  0  0
  141.3590   73.9750  221.4080 C   0  0  0  0  0  0  0  0  0  0  0  0
  141.2400   72.6190  221.1820 C   0  0  0  0  0  0  0  0  0  0  0  0
  142.3240   71.8700  220.7420 C   0  0  0  0  0  0  0  0  0  0  0  0
  143.5430   72.4780  220.5210 C   0  0  0  0  0  0  0  0  0  0  0  0
  144.6140   71.7230  220.0820 C   0  0  0  0  0  0  0  0  0  0  0  0
  145.8020   72.3990  219.8830 C   0  0  0  0  0  0  0  0  0  0  0  0
  145.9160   73.7590  220.1110 C   0  0  0  0  0  0  0  0  0  0  0  0
  144.8240   74.4910  220.5510 C   0  0  0  0  0  0  0  0  0  0  0  0
  143.6260   73.8360  220.7570 C   0  0  0  0  0  0  0  0  0  0  0  0
  142.5510   74.5590  221.1910 N   0  0  0  0  0  0  0  0  0  0  0  0
  140.9390   76.6850  221.4160 H   0  0  0  0  0  0  0  0  0  0  0  0
  138.1441   76.6940  221.5078 H   0  0  0  0  0  0  0  0  0  0  0  0
  138.5946   76.2255  223.1974 H   0  0  0  0  0  0  0  0  0  0  0  0
  141.2665   77.7150  224.0412 H   0  0  0  0  0  0  0  0  0  0  0  0
  142.3586   77.9224  222.6309 H   0  0  0  0  0  0  0  0  0  0  0  0
  141.4370   80.0094  224.6417 H   0  0  0  0  0  0  0  0  0  0  0  0
  143.1263   79.4439  224.2505 H   0  0  0  0  0  0  0  0  0  0  0  0
  142.4513   81.7162  223.4157 H   0  0  0  0  0  0  0  0  0  0  0  0
  143.1367   80.5027  222.2208 H   0  0  0  0  0  0  0  0  0  0  0  0
  140.2654   81.3817  222.5258 H   0  0  0  0  0  0  0  0  0  0  0  0
  141.3968   81.6764  221.1476 H   0  0  0  0  0  0  0  0  0  0  0  0
  139.7813   79.7079  220.6782 H   0  0  0  0  0  0  0  0  0  0  0  0
  141.6799   79.5813  219.4313 H   0  0  0  0  0  0  0  0  0  0  0  0
  142.7497   79.6443  220.9179 H   0  0  0  0  0  0  0  0  0  0  0  0
  142.9380   77.4740  220.8430 H   0  0  0  0  0  0  0  0  0  0  0  0
  141.5704   78.3851  218.6853 H   0  0  0  0  0  0  0  0  0  0  0  0
  143.8674   76.8784  217.6767 H   0  0  0  0  0  0  0  0  0  0  0  0
  144.2406   76.3389  219.0822 H   0  0  0  0  0  0  0  0  0  0  0  0
  141.4911   75.8948  217.5047 H   0  0  0  0  0  0  0  0  0  0  0  0
  141.4472   75.1780  218.8921 H   0  0  0  0  0  0  0  0  0  0  0  0
  140.2727   72.1239  221.3528 H   0  0  0  0  0  0  0  0  0  0  0  0
  142.2105   70.7896  220.5693 H   0  0  0  0  0  0  0  0  0  0  0  0
  144.5252   70.6417  219.9008 H   0  0  0  0  0  0  0  0  0  0  0  0
  146.6826   71.8402  219.5333 H   0  0  0  0  0  0  0  0  0  0  0  0
  146.8793   74.2626  219.9420 H   0  0  0  0  0  0  0  0  0  0  0  0
  144.9102   75.5725  220.7325 H   0  0  0  0  0  0  0  0  0  0  0  0
  1  2  2  0
  2  3  1  0
  3  4  1  0
  4  5  1  0
  5  6  2  0
  5  7  1  0
  7  8  1  0
  8  9  1  0
  9 10  1  0
 10 11  1  0
 11 12  1  0
 12 13  1  0
 13 14  1  0
 14 15  1  0
 15 16  1  0
 16 17  1  0
  2 18  1  0
 18 19  2  0
 19 20  1  0
 20 21  2  0
 21 22  1  0
 22 23  2  0
 23 24  1  0
 24 25  2  0
 25 26  1  0
 26 27  2  0
 12  7  1  0
 17 15  1  0
 27 18  1  0
 26 21  1  0
  3 28  1  0
  4 29  1  0
  4 30  1  0
  8 31  1  0
  8 32  1  0
  9 33  1  0
  9 34  1  0
 10 35  1  0
 10 36  1  0
 11 37  1  0
 11 38  1  0
 12 39  1  6
 13 40  1  0
 13 41  1  0
 14 42  1  0
 15 43  1  0
 16 44  1  0
 16 45  1  0
 17 46  1  0
 17 47  1  0
 19 48  1  0
 20 49  1  0
 22 50  1  0
 23 51  1  0
 24 52  1  0
 25 53  1  0
M  END
>  <smiles>  (47) 
O=C(NCC(=O)N1CCCC[C@H]1CNC1CC1)c1ccc2ccccc2n1

>  <score_type>  (47) 
oracle

>  <origin>  (47) 
autodockgpu

>  <m_score__min__energy>  (47) 
-8.3200000000000003

>  <m_primary>  (47) 
energy

>  <rmsd>  (47) 
6.059562111858376

>  <m_score__min__rmsd>  (47) 
6.059562111858376

>  <meeko>  (47) 
{"free_energy": -6.48, "intermolecular_energy": -8.56, "internal_energy": -3.15, "cluster_size": 18, "cluster_id": 4, "rank_in_cluster": 1}

>  <energy>  (47) 
-6.12

>  <cluster_rmsd>  (47) 
0.67

>  <cluster>  (47) 
4

$$$$

     RDKit          3D

 53 56  0  0  0  0  0  0  0  0999 V2000
  138.7860   75.0980  222.2880 O   0  0  0  0  0  0  0  0  0  0  0  0
  139.9430   75.6290  222.1920 C   0  0  0  0  0  0  0  0  0  0  0  0
  141.0370   74.7860  221.8230 N   0  0  0  0  0  0  0  0  0  0  0  0
  140.7210   73.3880  221.5910 C   0  0  0  0  0  0  0  0  0  0  0  0
  141.8130   72.7020  220.8880 C   0  0  0  0  0  0  0  0  0  0  0  0
  142.2010   71.5260  221.1460 O   0  0  0  0  0  0  0  0  0  0  0  0
  142.4850   73.3960  219.8420 N   0  0  0  0  0  0  0  0  0  0  0  0
  142.1380   73.2060  218.4330 C   0  0  0  0  0  0  0  0  0  0  0  0
  143.3570   72.7190  217.6760 C   0  0  0  0  0  0  0  0  0  0  0  0
  144.5890   73.5040  217.9820 C   0  0  0  0  0  0  0  0  0  0  0  0
  144.8190   73.7650  219.4460 C   0  0  0  0  0  0  0  0  0  0  0  0
  143.5590   74.3410  220.1050 C   0  0  1  0  0  0  0  0  0  0  0  0
  143.3240   75.6690  219.4430 C   0  0  0  0  0  0  0  0  0  0  0  0
  142.8180   76.6900  220.3270 N   0  0  0  0  0  0  0  0  0  0  0  0
  141.8930   77.4860  219.5130 C   0  0  0  0  0  0  0  0  0  0  0  0
  142.5100   77.9610  218.2050 C   0  0  0  0  0  0  0  0  0  0  0  0
  141.3750   77.0120  218.2300 C   0  0  0  0  0  0  0  0  0  0  0  0
  140.1470   77.0500  222.4480 C   0  0  0  0  0  0  0  0  0  0  0  0
  139.0410   77.8740  222.4870 C   0  0  0  0  0  0  0  0  0  0  0  0
  139.1720   79.2360  222.7270 C   0  0  0  0  0  0  0  0  0  0  0  0
  140.4210   79.7860  222.9320 C   0  0  0  0  0  0  0  0  0  0  0  0
  140.5390   81.1430  223.1710 C   0  0  0  0  0  0  0  0  0  0  0  0
  141.8190   81.6230  223.3680 C   0  0  0  0  0  0  0  0  0  0  0  0
  142.9250   80.7930  223.3290 C   0  0  0  0  0  0  0  0  0  0  0  0
  142.7750   79.4360  223.0870 C   0  0  0  0  0  0  0  0  0  0  0  0
  141.5050   78.9330  222.8880 C   0  0  0  0  0  0  0  0  0  0  0  0
  141.3600   77.5960  222.6500 N   0  0  0  0  0  0  0  0  0  0  0  0
  142.0100   75.1700  221.7300 H   0  0  0  0  0  0  0  0  0  0  0  0
  140.5521   72.8937  222.5591 H   0  0  0  0  0  0  0  0  0  0  0  0
  139.8187   73.3361  220.9640 H   0  0  0  0  0  0  0  0  0  0  0  0
  141.3329   72.4610  218.3505 H   0  0  0  0  0  0  0  0  0  0  0  0
  141.7976   74.1610  218.0063 H   0  0  0  0  0  0  0  0  0  0  0  0
  143.5371   71.6670  217.9422 H   0  0  0  0  0  0  0  0  0  0  0  0
  143.1476   72.8425  216.6032 H   0  0  0  0  0  0  0  0  0  0  0  0
  145.4550   72.9487  217.5925 H   0  0  0  0  0  0  0  0  0  0  0  0
  144.4574   74.4875  217.5073 H   0  0  0  0  0  0  0  0  0  0  0  0
  145.0851   72.8202  219.9426 H   0  0  0  0  0  0  0  0  0  0  0  0
  145.6343   74.4964  219.5483 H   0  0  0  0  0  0  0  0  0  0  0  0
  143.6351   74.4871  221.1926 H   0  0  0  0  0  0  0  0  0  0  0  0
  144.2787   76.0187  219.0231 H   0  0  0  0  0  0  0  0  0  0  0  0
  142.5538   75.5067  218.6746 H   0  0  0  0  0  0  0  0  0  0  0  0
  142.2990   76.3120  221.1510 H   0  0  0  0  0  0  0  0  0  0  0  0
  141.3838   77.9003  220.3956 H   0  0  0  0  0  0  0  0  0  0  0  0
  142.3600   78.9962  217.8647 H   0  0  0  0  0  0  0  0  0  0  0  0
  143.5194   77.9705  217.7679 H   0  0  0  0  0  0  0  0  0  0  0  0
  140.3827   77.3424  217.8890 H   0  0  0  0  0  0  0  0  0  0  0  0
  141.2025   76.0157  217.7968 H   0  0  0  0  0  0  0  0  0  0  0  0
  138.0406   77.4461  222.3256 H   0  0  0  0  0  0  0  0  0  0  0  0
  138.2786   79.8772  222.7537 H   0  0  0  0  0  0  0  0  0  0  0  0
  139.6607   81.8045  223.2025 H   0  0  0  0  0  0  0  0  0  0  0  0
  141.9631   82.6962  223.5615 H   0  0  0  0  0  0  0  0  0  0  0  0
  143.9291   81.2119  223.4909 H   0  0  0  0  0  0  0  0  0  0  0  0
  143.6518   78.7725  223.0542 H   0  0  0  0  0  0  0  0  0  0  0  0
  1  2  2  0
  2  3  1  0
  3  4  1  0
  4  5  1  0
  5  6  2  0
  5  7  1  0
  7  8  1  0
  8  9  1  0
  9 10  1  0
 10 11  1  0
 11 12  1  0
 12 13  1  0
 13 14  1  0
 14 15  1  0
 15 16  1  0
 16 17  1  0
  2 18  1  0
 18 19  2  0
 19 20  1  0
 20 21  2  0
 21 22  1  0
 22 23  2  0
 23 24  1  0
 24 25  2  0
 25 26  1  0
 26 27  2  0
 12  7  1  0
 17 15  1  0
 27 18  1  0
 26 21  1  0
  3 28  1  0
  4 29  1  0
  4 30  1  0
  8 31  1  0
  8 32  1  0
  9 33  1  0
  9 34  1  0
 10 35  1  0
 10 36  1  0
 11 37  1  0
 11 38  1  0
 12 39  1  1
 13 40  1  0
 13 41  1  0
 14 42  1  0
 15 43  1  0
 16 44  1  0
 16 45  1  0
 17 46  1  0
 17 47  1  0
 19 48  1  0
 20 49  1  0
 22 50  1  0
 23 51  1  0
 24 52  1  0
 25 53  1  0
M  END
>  <smiles>  (48) 
O=C(NCC(=O)N1CCCC[C@H]1CNC1CC1)c1ccc2ccccc2n1

>  <score_type>  (48) 
oracle

>  <origin>  (48) 
autodockgpu

>  <m_score__min__energy>  (48) 
-8.3200000000000003

>  <m_primary>  (48) 
energy

>  <rmsd>  (48) 
7.048921654713891

>  <m_score__min__rmsd>  (48) 
7.048921654713891

>  <meeko>  (48) 
{"free_energy": -5.79, "intermolecular_energy": -7.88, "internal_energy": -3.56, "cluster_size": 13, "cluster_id": 3, "rank_in_cluster": 13}

>  <energy>  (48) 
-6.07

>  <cluster_rmsd>  (48) 
0.72

>  <cluster>  (48) 
4

$$$$

     RDKit          3D

 53 56  0  0  0  0  0  0  0  0999 V2000
  139.3000   74.0070  222.3460 O   0  0  0  0  0  0  0  0  0  0  0  0
  140.2050   74.6150  221.6830 C   0  0  0  0  0  0  0  0  0  0  0  0
  140.0050   76.0010  221.3920 N   0  0  0  0  0  0  0  0  0  0  0  0
  138.7720   76.5890  221.8870 C   0  0  0  0  0  0  0  0  0  0  0  0
  138.9830   77.9670  222.3470 C   0  0  0  0  0  0  0  0  0  0  0  0
  138.0760   78.7070  222.8280 O   0  0  0  0  0  0  0  0  0  0  0  0
  140.2930   78.5190  222.2510 N   0  0  0  0  0  0  0  0  0  0  0  0
  141.4000   78.0430  223.0830 C   0  0  0  0  0  0  0  0  0  0  0  0
  141.9460   79.1960  223.9000 C   0  0  0  0  0  0  0  0  0  0  0  0
  142.1720   80.4310  223.0930 C   0  0  0  0  0  0  0  0  0  0  0  0
  141.0390   80.7930  222.1700 C   0  0  0  0  0  0  0  0  0  0  0  0
  140.6170   79.5880  221.3200 C   0  0  1  0  0  0  0  0  0  0  0  0
  141.8060   79.2570  220.4640 C   0  0  0  0  0  0  0  0  0  0  0  0
  142.0120   77.8440  220.2590 N   0  0  0  0  0  0  0  0  0  0  0  0
  142.5100   77.7190  218.8850 C   0  0  0  0  0  0  0  0  0  0  0  0
  143.2860   76.4290  218.6500 C   0  0  0  0  0  0  0  0  0  0  0  0
  142.0060   76.7030  217.9610 C   0  0  0  0  0  0  0  0  0  0  0  0
  141.4080   73.9250  221.2340 C   0  0  0  0  0  0  0  0  0  0  0  0
  141.3000   72.6030  220.8510 C   0  0  0  0  0  0  0  0  0  0  0  0
  142.4110   71.8920  220.4150 C   0  0  0  0  0  0  0  0  0  0  0  0
  143.6460   72.5040  220.3560 C   0  0  0  0  0  0  0  0  0  0  0  0
  144.7440   71.7870  219.9190 C   0  0  0  0  0  0  0  0  0  0  0  0
  145.9480   72.4640  219.8870 C   0  0  0  0  0  0  0  0  0  0  0  0
  146.0510   73.7890  220.2710 C   0  0  0  0  0  0  0  0  0  0  0  0
  144.9320   74.4830  220.7050 C   0  0  0  0  0  0  0  0  0  0  0  0
  143.7190   73.8270  220.7450 C   0  0  0  0  0  0  0  0  0  0  0  0
  142.6170   74.5120  221.1730 N   0  0  0  0  0  0  0  0  0  0  0  0
  140.7160   76.5500  220.8500 H   0  0  0  0  0  0  0  0  0  0  0  0
  138.0268   76.5919  221.0779 H   0  0  0  0  0  0  0  0  0  0  0  0
  138.4202   75.9894  222.7394 H   0  0  0  0  0  0  0  0  0  0  0  0
  141.0387   77.2533  223.7581 H   0  0  0  0  0  0  0  0  0  0  0  0
  142.1957   77.6383  222.4402 H   0  0  0  0  0  0  0  0  0  0  0  0
  141.2287   79.4278  224.7011 H   0  0  0  0  0  0  0  0  0  0  0  0
  142.9219   78.8819  224.2986 H   0  0  0  0  0  0  0  0  0  0  0  0
  142.3307   81.2698  223.7867 H   0  0  0  0  0  0  0  0  0  0  0  0
  143.0434   80.2297  222.4526 H   0  0  0  0  0  0  0  0  0  0  0  0
  140.1800   81.1291  222.7693 H   0  0  0  0  0  0  0  0  0  0  0  0
  141.3770   81.5954  221.4977 H   0  0  0  0  0  0  0  0  0  0  0  0
  139.7441   79.7637  220.6741 H   0  0  0  0  0  0  0  0  0  0  0  0
  141.6665   79.7314  219.4814 H   0  0  0  0  0  0  0  0  0  0  0  0
  142.6928   79.6318  220.9961 H   0  0  0  0  0  0  0  0  0  0  0  0
  142.7140   77.4240  220.9080 H   0  0  0  0  0  0  0  0  0  0  0  0
  142.6404   78.8054  218.7724 H   0  0  0  0  0  0  0  0  0  0  0  0
  144.2323   76.4452  218.0894 H   0  0  0  0  0  0  0  0  0  0  0  0
  143.6827   75.6218  219.2833 H   0  0  0  0  0  0  0  0  0  0  0  0
  142.0034   76.9053  216.8798 H   0  0  0  0  0  0  0  0  0  0  0  0
  141.0552   76.1572  217.8709 H   0  0  0  0  0  0  0  0  0  0  0  0
  140.3199   72.1053  220.8917 H   0  0  0  0  0  0  0  0  0  0  0  0
  142.3057   70.8386  220.1161 H   0  0  0  0  0  0  0  0  0  0  0  0
  144.6635   70.7335  219.6130 H   0  0  0  0  0  0  0  0  0  0  0  0
  146.8501   71.9345  219.5466 H   0  0  0  0  0  0  0  0  0  0  0  0
  147.0268   74.2951  220.2317 H   0  0  0  0  0  0  0  0  0  0  0  0
  145.0099   75.5365  221.0116 H   0  0  0  0  0  0  0  0  0  0  0  0
  1  2  2  0
  2  3  1  0
  3  4  1  0
  4  5  1  0
  5  6  2  0
  5  7  1  0
  7  8  1  0
  8  9  1  0
  9 10  1  0
 10 11  1  0
 11 12  1  0
 12 13  1  0
 13 14  1  0
 14 15  1  0
 15 16  1  0
 16 17  1  0
  2 18  1  0
 18 19  2  0
 19 20  1  0
 20 21  2  0
 21 22  1  0
 22 23  2  0
 23 24  1  0
 24 25  2  0
 25 26  1  0
 26 27  2  0
 12  7  1  0
 17 15  1  0
 27 18  1  0
 26 21  1  0
  3 28  1  0
  4 29  1  0
  4 30  1  0
  8 31  1  0
  8 32  1  0
  9 33  1  0
  9 34  1  0
 10 35  1  0
 10 36  1  0
 11 37  1  0
 11 38  1  0
 12 39  1  6
 13 40  1  0
 13 41  1  0
 14 42  1  0
 15 43  1  0
 16 44  1  0
 16 45  1  0
 17 46  1  0
 17 47  1  0
 19 48  1  0
 20 49  1  0
 22 50  1  0
 23 51  1  0
 24 52  1  0
 25 53  1  0
M  END
>  <smiles>  (49) 
O=C(NCC(=O)N1CCCC[C@H]1CNC1CC1)c1ccc2ccccc2n1

>  <score_type>  (49) 
oracle

>  <origin>  (49) 
autodockgpu

>  <m_score__min__energy>  (49) 
-8.3200000000000003

>  <m_primary>  (49) 
energy

>  <rmsd>  (49) 
6.043583352489451

>  <m_score__min__rmsd>  (49) 
6.043583352489451

>  <meeko>  (49) 
{"free_energy": -6.44, "intermolecular_energy": -8.53, "internal_energy": -3.06, "cluster_size": 18, "cluster_id": 4, "rank_in_cluster": 2}

>  <energy>  (49) 
-5.81

>  <cluster_rmsd>  (49) 
0.93

>  <cluster>  (49) 
4

$$$$

     RDKit          3D

 53 56  0  0  0  0  0  0  0  0999 V2000
  139.8840   70.6470  221.6220 O   0  0  0  0  0  0  0  0  0  0  0  0
  139.8050   71.4540  222.6080 C   0  0  0  0  0  0  0  0  0  0  0  0
  139.4390   72.8090  222.3350 N   0  0  0  0  0  0  0  0  0  0  0  0
  139.1900   73.1390  220.9420 C   0  0  0  0  0  0  0  0  0  0  0  0
  140.4420   73.4040  220.2230 C   0  0  0  0  0  0  0  0  0  0  0  0
  140.9480   72.6280  219.3610 O   0  0  0  0  0  0  0  0  0  0  0  0
  141.1400   74.6130  220.5030 N   0  0  0  0  0  0  0  0  0  0  0  0
  141.0620   75.2710  221.8080 C   0  0  0  0  0  0  0  0  0  0  0  0
  140.5240   76.6770  221.6310 C   0  0  0  0  0  0  0  0  0  0  0  0
  141.1880   77.4230  220.5220 C   0  0  0  0  0  0  0  0  0  0  0  0
  141.3430   76.6410  219.2450 C   0  0  0  0  0  0  0  0  0  0  0  0
  141.9780   75.2710  219.5140 C   0  0  1  0  0  0  0  0  0  0  0  0
  143.3580   75.5580  220.0360 C   0  0  0  0  0  0  0  0  0  0  0  0
  144.3630   74.6210  219.5980 N   0  0  0  0  0  0  0  0  0  0  0  0
  144.6350   73.7690  220.7610 C   0  0  0  0  0  0  0  0  0  0  0  0
  145.2310   72.4200  220.3820 C   0  0  0  0  0  0  0  0  0  0  0  0
  145.9940   73.4140  221.1680 C   0  0  0  0  0  0  0  0  0  0  0  0
  140.0770   71.0140  223.9710 C   0  0  0  0  0  0  0  0  0  0  0  0
  140.7420   71.8770  224.8170 C   0  0  0  0  0  0  0  0  0  0  0  0
  141.0300   71.5140  226.1270 C   0  0  0  0  0  0  0  0  0  0  0  0
  140.6500   70.2750  226.6020 C   0  0  0  0  0  0  0  0  0  0  0  0
  140.9410   69.9260  227.9070 C   0  0  0  0  0  0  0  0  0  0  0  0
  140.5310   68.6710  228.3130 C   0  0  0  0  0  0  0  0  0  0  0  0
  139.8650   67.8090  227.4610 C   0  0  0  0  0  0  0  0  0  0  0  0
  139.5860   68.1870  226.1560 C   0  0  0  0  0  0  0  0  0  0  0  0
  139.9860   69.4370  225.7290 C   0  0  0  0  0  0  0  0  0  0  0  0
  139.7110   69.8080  224.4430 N   0  0  0  0  0  0  0  0  0  0  0  0
  139.3600   73.5160  223.1070 H   0  0  0  0  0  0  0  0  0  0  0  0
  138.6727   72.2957  220.4612 H   0  0  0  0  0  0  0  0  0  0  0  0
  138.5710   74.0476  220.9065 H   0  0  0  0  0  0  0  0  0  0  0  0
  140.3903   74.7012  222.4669 H   0  0  0  0  0  0  0  0  0  0  0  0
  142.0647   75.3150  222.2581 H   0  0  0  0  0  0  0  0  0  0  0  0
  139.4471   76.6152  221.4156 H   0  0  0  0  0  0  0  0  0  0  0  0
  140.7271   77.2254  222.5627 H   0  0  0  0  0  0  0  0  0  0  0  0
  140.5888   78.3195  220.3047 H   0  0  0  0  0  0  0  0  0  0  0  0
  142.2051   77.6573  220.8693 H   0  0  0  0  0  0  0  0  0  0  0  0
  140.3523   76.4953  218.7897 H   0  0  0  0  0  0  0  0  0  0  0  0
  141.9996   77.2047  218.5659 H   0  0  0  0  0  0  0  0  0  0  0  0
  142.0528   74.6176  218.6323 H   0  0  0  0  0  0  0  0  0  0  0  0
  143.6525   76.5626  219.6982 H   0  0  0  0  0  0  0  0  0  0  0  0
  143.3049   75.4750  221.1316 H   0  0  0  0  0  0  0  0  0  0  0  0
  144.0550   74.0150  218.8050 H   0  0  0  0  0  0  0  0  0  0  0  0
  143.7876   74.1780  221.3307 H   0  0  0  0  0  0  0  0  0  0  0  0
  144.8653   71.4985  220.8585 H   0  0  0  0  0  0  0  0  0  0  0  0
  145.3914   71.8646  219.4462 H   0  0  0  0  0  0  0  0  0  0  0  0
  146.2099   73.2182  222.2287 H   0  0  0  0  0  0  0  0  0  0  0  0
  146.9772   73.8921  221.0463 H   0  0  0  0  0  0  0  0  0  0  0  0
  141.0489   72.8672  224.4492 H   0  0  0  0  0  0  0  0  0  0  0  0
  141.5618   72.2154  226.7867 H   0  0  0  0  0  0  0  0  0  0  0  0
  141.4705   70.6106  228.5858 H   0  0  0  0  0  0  0  0  0  0  0  0
  140.7402   68.3480  229.3435 H   0  0  0  0  0  0  0  0  0  0  0  0
  139.5545   66.8169  227.8207 H   0  0  0  0  0  0  0  0  0  0  0  0
  139.0566   67.5043  225.4751 H   0  0  0  0  0  0  0  0  0  0  0  0
  1  2  2  0
  2  3  1  0
  3  4  1  0
  4  5  1  0
  5  6  2  0
  5  7  1  0
  7  8  1  0
  8  9  1  0
  9 10  1  0
 10 11  1  0
 11 12  1  0
 12 13  1  0
 13 14  1  0
 14 15  1  0
 15 16  1  0
 16 17  1  0
  2 18  1  0
 18 19  2  0
 19 20  1  0
 20 21  2  0
 21 22  1  0
 22 23  2  0
 23 24  1  0
 24 25  2  0
 25 26  1  0
 26 27  2  0
 12  7  1  0
 17 15  1  0
 27 18  1  0
 26 21  1  0
  3 28  1  0
  4 29  1  0
  4 30  1  0
  8 31  1  0
  8 32  1  0
  9 33  1  0
  9 34  1  0
 10 35  1  0
 10 36  1  0
 11 37  1  0
 11 38  1  0
 12 39  1  6
 13 40  1  0
 13 41  1  0
 14 42  1  0
 15 43  1  0
 16 44  1  0
 16 45  1  0
 17 46  1  0
 17 47  1  0
 19 48  1  0
 20 49  1  0
 22 50  1  0
 23 51  1  0
 24 52  1  0
 25 53  1  0
M  END
>  <smiles>  (50) 
O=C(NCC(=O)N1CCCC[C@H]1CNC1CC1)c1ccc2ccccc2n1

>  <score_type>  (50) 
oracle

>  <origin>  (50) 
autodockgpu

>  <m_score__min__energy>  (50) 
-8.3200000000000003

>  <m_primary>  (50) 
energy

>  <rmsd>  (50) 
4.108744203507754

>  <m_score__min__rmsd>  (50) 
4.108744203507754

>  <meeko>  (50) 
{"free_energy": -7.17, "intermolecular_energy": -9.26, "internal_energy": -1.49, "cluster_size": 5, "cluster_id": 2, "rank_in_cluster": 4}

>  <energy>  (50) 
-5.78

>  <cluster_rmsd>  (50) 
0.0

>  <cluster>  (50) 
5

$$$$
