
     RDKit          3D

 47 50  0  0  0  0  0  0  0  0999 V2000
  140.9760   71.8300  221.5690 O   0  0  0  0  0  0  0  0  0  0  0  0
  140.1210   72.0570  222.4800 C   0  0  0  0  0  0  0  0  0  0  0  0
  139.2070   73.1350  222.3290 N   0  0  0  0  0  0  0  0  0  0  0  0
  139.2910   73.9390  221.1290 C   0  0  0  0  0  0  0  0  0  0  0  0
  140.5010   74.7980  221.2070 C   0  0  0  0  0  0  0  0  0  0  0  0
  141.6750   74.3610  221.1020 O   0  0  0  0  0  0  0  0  0  0  0  0
  140.3300   76.1950  221.4140 N   0  0  0  0  0  0  0  0  0  0  0  0
  139.4020   77.1160  220.7880 C   0  0  0  0  0  0  0  0  0  0  0  0
  138.8980   77.8930  221.9690 C   0  0  0  0  0  0  0  0  0  0  0  0
  140.0580   78.0310  222.8650 C   0  0  2  0  0  0  0  0  0  0  0  0
  140.6970   79.3620  222.9230 C   0  0  0  0  0  0  0  0  0  0  0  0
  141.9050   79.6360  223.4870 C   0  0  0  0  0  0  0  0  0  0  0  0
  142.4350   80.9120  223.4990 C   0  0  0  0  0  0  0  0  0  0  0  0
  141.7760   81.9400  222.9510 N   0  0  0  0  0  0  0  0  0  0  0  0
  140.5710   81.7250  222.3750 C   0  0  0  0  0  0  0  0  0  0  0  0
  140.0230   80.4530  222.3530 C   0  0  0  0  0  0  0  0  0  0  0  0
  141.0850   77.0490  222.3440 C   0  0  0  0  0  0  0  0  0  0  0  0
  140.0790   71.2120  223.6750 C   0  0  0  0  0  0  0  0  0  0  0  0
  139.4970   69.9670  223.6020 C   0  0  0  0  0  0  0  0  0  0  0  0
  139.4100   69.0990  224.6710 C   0  0  0  0  0  0  0  0  0  0  0  0
  139.9400   69.5180  225.8700 C   0  0  0  0  0  0  0  0  0  0  0  0
  139.8580   68.6580  226.9430 C   0  0  0  0  0  0  0  0  0  0  0  0
  140.3860   69.0700  228.1490 C   0  0  0  0  0  0  0  0  0  0  0  0
  140.2920   68.1990  229.2010 F   0  0  0  0  0  0  0  0  0  0  0  0
  140.9730   70.3060  228.2550 C   0  0  0  0  0  0  0  0  0  0  0  0
  141.0420   71.1560  227.1490 C   0  0  0  0  0  0  0  0  0  0  0  0
  140.5200   70.7660  225.9330 C   0  0  0  0  0  0  0  0  0  0  0  0
  140.5880   71.5930  224.8600 N   0  0  0  0  0  0  0  0  0  0  0  0
  138.4810   73.3510  223.0700 H   0  0  0  0  0  0  0  0  0  0  0  0
  139.3607   73.2825  220.2491 H   0  0  0  0  0  0  0  0  0  0  0  0
  138.3932   74.5682  221.0392 H   0  0  0  0  0  0  0  0  0  0  0  0
  139.9126   77.7704  220.0662 H   0  0  0  0  0  0  0  0  0  0  0  0
  138.6084   76.6232  220.2071 H   0  0  0  0  0  0  0  0  0  0  0  0
  138.5349   78.8822  221.6532 H   0  0  0  0  0  0  0  0  0  0  0  0
  138.0549   77.3881  222.4633 H   0  0  0  0  0  0  0  0  0  0  0  0
  139.6960   77.8538  223.8885 H   0  0  0  0  0  0  0  0  0  0  0  0
  142.4768   78.8167  223.9473 H   0  0  0  0  0  0  0  0  0  0  0  0
  143.4152   81.0859  223.9669 H   0  0  0  0  0  0  0  0  0  0  0  0
  140.0235   82.5646  221.9218 H   0  0  0  0  0  0  0  0  0  0  0  0
  139.0423   80.2953  221.8804 H   0  0  0  0  0  0  0  0  0  0  0  0
  141.8963   77.5749  221.8193 H   0  0  0  0  0  0  0  0  0  0  0  0
  141.5636   76.4733  223.1499 H   0  0  0  0  0  0  0  0  0  0  0  0
  139.0776   69.6459  222.6371 H   0  0  0  0  0  0  0  0  0  0  0  0
  138.9360   68.1116  224.5690 H   0  0  0  0  0  0  0  0  0  0  0  0
  139.3847   67.6703  226.8410 H   0  0  0  0  0  0  0  0  0  0  0  0
  141.3926   70.6298  229.2189 H   0  0  0  0  0  0  0  0  0  0  0  0
  141.5160   72.1437  227.2482 H   0  0  0  0  0  0  0  0  0  0  0  0
  1  2  2  0
  2  3  1  0
  3  4  1  0
  4  5  1  0
  5  6  2  0
  5  7  1  0
  7  8  1  0
  8  9  1  0
  9 10  1  0
 10 11  1  0
 11 12  2  0
 12 13  1  0
 13 14  2  0
 14 15  1  0
 15 16  2  0
 10 17  1  0
  2 18  1  0
 18 19  2  0
 19 20  1  0
 20 21  2  0
 21 22  1  0
 22 23  2  0
 23 24  1  0
 23 25  1  0
 25 26  2  0
 26 27  1  0
 27 28  2  0
 17  7  1  0
 28 18  1  0
 16 11  1  0
 27 21  1  0
  3 29  1  0
  4 30  1  0
  4 31  1  0
  8 32  1  0
  8 33  1  0
  9 34  1  0
  9 35  1  0
 10 36  1  1
 12 37  1  0
 13 38  1  0
 15 39  1  0
 16 40  1  0
 17 41  1  0
 17 42  1  0
 19 43  1  0
 20 44  1  0
 22 45  1  0
 25 46  1  0
 26 47  1  0
M  END
>  <smiles>  (1) 
O=C(NCC(=O)N1CC[C@H](c2ccncc2)C1)c1ccc2cc(F)ccc2n1

>  <score_type>  (1) 
oracle

>  <origin>  (1) 
autodockgpu

>  <m_score__min__energy>  (1) 
-8.7400000000000002

>  <m_primary>  (1) 
energy

>  <rmsd>  (1) 
2.9713060119430654

>  <m_score__min__rmsd>  (1) 
2.9713060119430654

>  <meeko>  (1) 
{"free_energy": -8.37, "intermolecular_energy": -9.86, "internal_energy": -0.95, "cluster_size": 42, "cluster_id": 1, "rank_in_cluster": 28}

>  <energy>  (1) 
-8.74

>  <cluster_rmsd>  (1) 
0.0

>  <cluster>  (1) 
1

$$$$

     RDKit          3D

 47 50  0  0  0  0  0  0  0  0999 V2000
  141.0820   72.9790  222.2500 O   0  0  0  0  0  0  0  0  0  0  0  0
  140.0060   72.5880  222.7990 C   0  0  0  0  0  0  0  0  0  0  0  0
  138.7630   73.1150  222.3570 N   0  0  0  0  0  0  0  0  0  0  0  0
  138.7760   74.0890  221.2870 C   0  0  0  0  0  0  0  0  0  0  0  0
  138.5230   75.4370  221.8580 C   0  0  0  0  0  0  0  0  0  0  0  0
  137.3970   75.8220  222.2640 O   0  0  0  0  0  0  0  0  0  0  0  0
  139.6090   76.3500  221.9530 N   0  0  0  0  0  0  0  0  0  0  0  0
  141.0290   76.1220  221.7700 C   0  0  0  0  0  0  0  0  0  0  0  0
  141.4210   77.2920  220.9190 C   0  0  0  0  0  0  0  0  0  0  0  0
  140.6010   78.4150  221.4020 C   0  0  2  0  0  0  0  0  0  0  0  0
  141.2910   79.4400  222.2140 C   0  0  0  0  0  0  0  0  0  0  0  0
  142.2640   79.1970  223.1340 C   0  0  0  0  0  0  0  0  0  0  0  0
  142.8620   80.2140  223.8540 C   0  0  0  0  0  0  0  0  0  0  0  0
  142.5050   81.4920  223.6730 N   0  0  0  0  0  0  0  0  0  0  0  0
  141.5420   81.7910  222.7690 C   0  0  0  0  0  0  0  0  0  0  0  0
  140.9320   80.7850  222.0380 C   0  0  0  0  0  0  0  0  0  0  0  0
  139.5320   77.7850  222.2690 C   0  0  0  0  0  0  0  0  0  0  0  0
  140.0500   71.6000  223.8790 C   0  0  0  0  0  0  0  0  0  0  0  0
  139.5710   70.3300  223.6530 C   0  0  0  0  0  0  0  0  0  0  0  0
  139.5690   69.3320  224.6050 C   0  0  0  0  0  0  0  0  0  0  0  0
  140.0810   69.6400  225.8450 C   0  0  0  0  0  0  0  0  0  0  0  0
  140.0850   68.6500  226.8020 C   0  0  0  0  0  0  0  0  0  0  0  0
  140.5950   68.9500  228.0480 C   0  0  0  0  0  0  0  0  0  0  0  0
  140.5870   67.9500  228.9830 F   0  0  0  0  0  0  0  0  0  0  0  0
  141.0810   70.2070  228.3060 C   0  0  0  0  0  0  0  0  0  0  0  0
  141.0640   71.1910  227.3150 C   0  0  0  0  0  0  0  0  0  0  0  0
  140.5590   70.9140  226.0610 C   0  0  0  0  0  0  0  0  0  0  0  0
  140.5430   71.8710  225.1000 N   0  0  0  0  0  0  0  0  0  0  0  0
  137.8470   72.8100  222.7930 H   0  0  0  0  0  0  0  0  0  0  0  0
  139.7569   74.0773  220.7893 H   0  0  0  0  0  0  0  0  0  0  0  0
  137.9955   73.8441  220.5515 H   0  0  0  0  0  0  0  0  0  0  0  0
  141.5630   76.1296  222.7317 H   0  0  0  0  0  0  0  0  0  0  0  0
  141.2692   75.1461  221.3230 H   0  0  0  0  0  0  0  0  0  0  0  0
  142.4911   77.5158  221.0408 H   0  0  0  0  0  0  0  0  0  0  0  0
  141.2571   77.0946  219.8494 H   0  0  0  0  0  0  0  0  0  0  0  0
  140.2458   78.9585  220.5140 H   0  0  0  0  0  0  0  0  0  0  0  0
  142.5843   78.1595  223.3099 H   0  0  0  0  0  0  0  0  0  0  0  0
  143.6441   79.9696  224.5879 H   0  0  0  0  0  0  0  0  0  0  0  0
  141.2427   82.8382  222.6145 H   0  0  0  0  0  0  0  0  0  0  0  0
  140.1525   81.0450  221.3067 H   0  0  0  0  0  0  0  0  0  0  0  0
  139.7401   77.9614  223.3346 H   0  0  0  0  0  0  0  0  0  0  0  0
  138.5335   78.2051  222.0781 H   0  0  0  0  0  0  0  0  0  0  0  0
  139.1668   70.0975  222.6567 H   0  0  0  0  0  0  0  0  0  0  0  0
  139.1740   68.3298  224.3822 H   0  0  0  0  0  0  0  0  0  0  0  0
  139.6922   67.6471  226.5789 H   0  0  0  0  0  0  0  0  0  0  0  0
  141.4871   70.4415  229.3010 H   0  0  0  0  0  0  0  0  0  0  0  0
  141.4562   72.1947  227.5358 H   0  0  0  0  0  0  0  0  0  0  0  0
  1  2  2  0
  2  3  1  0
  3  4  1  0
  4  5  1  0
  5  6  2  0
  5  7  1  0
  7  8  1  0
  8  9  1  0
  9 10  1  0
 10 11  1  0
 11 12  2  0
 12 13  1  0
 13 14  2  0
 14 15  1  0
 15 16  2  0
 10 17  1  0
  2 18  1  0
 18 19  2  0
 19 20  1  0
 20 21  2  0
 21 22  1  0
 22 23  2  0
 23 24  1  0
 23 25  1  0
 25 26  2  0
 26 27  1  0
 27 28  2  0
 17  7  1  0
 28 18  1  0
 16 11  1  0
 27 21  1  0
  3 29  1  0
  4 30  1  0
  4 31  1  0
  8 32  1  0
  8 33  1  0
  9 34  1  0
  9 35  1  0
 10 36  1  6
 12 37  1  0
 13 38  1  0
 15 39  1  0
 16 40  1  0
 17 41  1  0
 17 42  1  0
 19 43  1  0
 20 44  1  0
 22 45  1  0
 25 46  1  0
 26 47  1  0
M  END
>  <smiles>  (2) 
O=C(NCC(=O)N1CC[C@H](c2ccncc2)C1)c1ccc2cc(F)ccc2n1

>  <score_type>  (2) 
oracle

>  <origin>  (2) 
autodockgpu

>  <m_score__min__energy>  (2) 
-8.7400000000000002

>  <m_primary>  (2) 
energy

>  <rmsd>  (2) 
2.646944425730301

>  <m_score__min__rmsd>  (2) 
2.646944425730301

>  <meeko>  (2) 
{"free_energy": -8.61, "intermolecular_energy": -10.1, "internal_energy": -1.08, "cluster_size": 42, "cluster_id": 1, "rank_in_cluster": 10}

>  <energy>  (2) 
-8.7

>  <cluster_rmsd>  (2) 
0.89

>  <cluster>  (2) 
1

$$$$

     RDKit          3D

 47 50  0  0  0  0  0  0  0  0999 V2000
  141.2290   72.1610  221.7180 O   0  0  0  0  0  0  0  0  0  0  0  0
  140.2710   72.2590  222.5460 C   0  0  0  0  0  0  0  0  0  0  0  0
  139.2600   73.2350  222.3340 N   0  0  0  0  0  0  0  0  0  0  0  0
  139.3670   74.0890  221.1710 C   0  0  0  0  0  0  0  0  0  0  0  0
  138.9670   75.4690  221.5470 C   0  0  0  0  0  0  0  0  0  0  0  0
  137.7790   75.8120  221.7790 O   0  0  0  0  0  0  0  0  0  0  0  0
  139.9750   76.4660  221.6510 N   0  0  0  0  0  0  0  0  0  0  0  0
  141.3260   76.4750  221.1250 C   0  0  0  0  0  0  0  0  0  0  0  0
  141.4220   77.8560  220.5490 C   0  0  0  0  0  0  0  0  0  0  0  0
  140.6590   78.7140  221.4690 C   0  0  2  0  0  0  0  0  0  0  0  0
  141.4430   79.5950  222.3600 C   0  0  0  0  0  0  0  0  0  0  0  0
  142.7650   79.4520  222.6500 C   0  0  0  0  0  0  0  0  0  0  0  0
  143.4270   80.3230  223.4960 C   0  0  0  0  0  0  0  0  0  0  0  0
  142.7880   81.3500  224.0680 N   0  0  0  0  0  0  0  0  0  0  0  0
  141.4730   81.5400  223.8140 C   0  0  0  0  0  0  0  0  0  0  0  0
  140.7920   80.6790  222.9700 C   0  0  0  0  0  0  0  0  0  0  0  0
  139.8700   77.7610  222.3420 C   0  0  0  0  0  0  0  0  0  0  0  0
  140.2100   71.3690  223.7070 C   0  0  0  0  0  0  0  0  0  0  0  0
  139.6540   70.1170  223.5710 C   0  0  0  0  0  0  0  0  0  0  0  0
  139.5520   69.2090  224.6050 C   0  0  0  0  0  0  0  0  0  0  0  0
  140.0400   69.5910  225.8330 C   0  0  0  0  0  0  0  0  0  0  0  0
  139.9430   68.6910  226.8700 C   0  0  0  0  0  0  0  0  0  0  0  0
  140.4290   69.0660  228.1060 C   0  0  0  0  0  0  0  0  0  0  0  0
  140.3220   68.1550  229.1220 F   0  0  0  0  0  0  0  0  0  0  0  0
  140.9910   70.3070  228.2750 C   0  0  0  0  0  0  0  0  0  0  0  0
  141.0750   71.1990  227.2030 C   0  0  0  0  0  0  0  0  0  0  0  0
  140.5950   70.8460  225.9590 C   0  0  0  0  0  0  0  0  0  0  0  0
  140.6780   71.7140  224.9190 N   0  0  0  0  0  0  0  0  0  0  0  0
  138.4470   73.3430  223.0050 H   0  0  0  0  0  0  0  0  0  0  0  0
  140.4059   74.0916  220.8095 H   0  0  0  0  0  0  0  0  0  0  0  0
  138.7085   73.7152  220.3731 H   0  0  0  0  0  0  0  0  0  0  0  0
  142.0675   76.3215  221.9229 H   0  0  0  0  0  0  0  0  0  0  0  0
  141.5261   75.6743  220.3978 H   0  0  0  0  0  0  0  0  0  0  0  0
  142.4717   78.1811  220.5002 H   0  0  0  0  0  0  0  0  0  0  0  0
  141.0270   77.9010  219.5234 H   0  0  0  0  0  0  0  0  0  0  0  0
  140.0680   79.4040  220.8488 H   0  0  0  0  0  0  0  0  0  0  0  0
  143.3235   78.6190  222.1981 H   0  0  0  0  0  0  0  0  0  0  0  0
  144.4965   80.1689  223.7020 H   0  0  0  0  0  0  0  0  0  0  0  0
  140.9419   82.3829  224.2803 H   0  0  0  0  0  0  0  0  0  0  0  0
  139.7227   80.8472  222.7742 H   0  0  0  0  0  0  0  0  0  0  0  0
  140.3076   77.7020  223.3495 H   0  0  0  0  0  0  0  0  0  0  0  0
  138.8267   78.0816  222.4792 H   0  0  0  0  0  0  0  0  0  0  0  0
  139.2696   69.8241  222.5829 H   0  0  0  0  0  0  0  0  0  0  0  0
  139.0982   68.2185  224.4532 H   0  0  0  0  0  0  0  0  0  0  0  0
  139.4905   67.7000  226.7177 H   0  0  0  0  0  0  0  0  0  0  0  0
  141.3780   70.6013  229.2617 H   0  0  0  0  0  0  0  0  0  0  0  0
  141.5274   72.1905  227.3522 H   0  0  0  0  0  0  0  0  0  0  0  0
  1  2  2  0
  2  3  1  0
  3  4  1  0
  4  5  1  0
  5  6  2  0
  5  7  1  0
  7  8  1  0
  8  9  1  0
  9 10  1  0
 10 11  1  0
 11 12  2  0
 12 13  1  0
 13 14  2  0
 14 15  1  0
 15 16  2  0
 10 17  1  0
  2 18  1  0
 18 19  2  0
 19 20  1  0
 20 21  2  0
 21 22  1  0
 22 23  2  0
 23 24  1  0
 23 25  1  0
 25 26  2  0
 26 27  1  0
 27 28  2  0
 17  7  1  0
 28 18  1  0
 16 11  1  0
 27 21  1  0
  3 29  1  0
  4 30  1  0
  4 31  1  0
  8 32  1  0
  8 33  1  0
  9 34  1  0
  9 35  1  0
 10 36  1  6
 12 37  1  0
 13 38  1  0
 15 39  1  0
 16 40  1  0
 17 41  1  0
 17 42  1  0
 19 43  1  0
 20 44  1  0
 22 45  1  0
 25 46  1  0
 26 47  1  0
M  END
>  <smiles>  (3) 
O=C(NCC(=O)N1CC[C@H](c2ccncc2)C1)c1ccc2cc(F)ccc2n1

>  <score_type>  (3) 
oracle

>  <origin>  (3) 
autodockgpu

>  <m_score__min__energy>  (3) 
-8.7400000000000002

>  <m_primary>  (3) 
energy

>  <rmsd>  (3) 
2.6260933358154217

>  <m_score__min__rmsd>  (3) 
2.6260933358154217

>  <meeko>  (3) 
{"free_energy": -8.6, "intermolecular_energy": -10.1, "internal_energy": -1.04, "cluster_size": 42, "cluster_id": 1, "rank_in_cluster": 11}

>  <energy>  (3) 
-8.7

>  <cluster_rmsd>  (3) 
0.19

>  <cluster>  (3) 
1

$$$$

     RDKit          3D

 47 50  0  0  0  0  0  0  0  0999 V2000
  141.0040   73.0220  222.2580 O   0  0  0  0  0  0  0  0  0  0  0  0
  139.9410   72.5850  222.7990 C   0  0  0  0  0  0  0  0  0  0  0  0
  138.6800   73.0680  222.3560 N   0  0  0  0  0  0  0  0  0  0  0  0
  138.6600   74.0510  221.2940 C   0  0  0  0  0  0  0  0  0  0  0  0
  138.4020   75.3910  221.8810 C   0  0  0  0  0  0  0  0  0  0  0  0
  137.2740   75.7680  222.2890 O   0  0  0  0  0  0  0  0  0  0  0  0
  139.4860   76.3050  221.9920 N   0  0  0  0  0  0  0  0  0  0  0  0
  140.9040   76.0880  221.7890 C   0  0  0  0  0  0  0  0  0  0  0  0
  141.2840   77.2840  220.9680 C   0  0  0  0  0  0  0  0  0  0  0  0
  140.4650   78.3890  221.4920 C   0  0  2  0  0  0  0  0  0  0  0  0
  141.1590   79.3930  222.3270 C   0  0  0  0  0  0  0  0  0  0  0  0
  140.5540   80.3640  223.0630 C   0  0  0  0  0  0  0  0  0  0  0  0
  141.2780   81.2660  223.8200 C   0  0  0  0  0  0  0  0  0  0  0  0
  142.6150   81.2210  223.8590 N   0  0  0  0  0  0  0  0  0  0  0  0
  143.2690   80.2740  223.1460 C   0  0  0  0  0  0  0  0  0  0  0  0
  142.5610   79.3610  222.3820 C   0  0  0  0  0  0  0  0  0  0  0  0
  139.4070   77.7300  222.3510 C   0  0  0  0  0  0  0  0  0  0  0  0
  140.0200   71.5900  223.8700 C   0  0  0  0  0  0  0  0  0  0  0  0
  139.5700   70.3110  223.6390 C   0  0  0  0  0  0  0  0  0  0  0  0
  139.6010   69.3060  224.5830 C   0  0  0  0  0  0  0  0  0  0  0  0
  140.1160   69.6170  225.8210 C   0  0  0  0  0  0  0  0  0  0  0  0
  140.1520   68.6200  226.7700 C   0  0  0  0  0  0  0  0  0  0  0  0
  140.6650   68.9230  228.0140 C   0  0  0  0  0  0  0  0  0  0  0  0
  140.6910   67.9170  228.9410 F   0  0  0  0  0  0  0  0  0  0  0  0
  141.1220   70.1900  228.2780 C   0  0  0  0  0  0  0  0  0  0  0  0
  141.0730   71.1810  227.2950 C   0  0  0  0  0  0  0  0  0  0  0  0
  140.5640   70.9010  226.0430 C   0  0  0  0  0  0  0  0  0  0  0  0
  140.5160   71.8650  225.0900 N   0  0  0  0  0  0  0  0  0  0  0  0
  137.7750   72.7240  222.7860 H   0  0  0  0  0  0  0  0  0  0  0  0
  139.6310   74.0554  220.7771 H   0  0  0  0  0  0  0  0  0  0  0  0
  137.8682   73.8025  220.5721 H   0  0  0  0  0  0  0  0  0  0  0  0
  141.4472   76.0699  222.7454 H   0  0  0  0  0  0  0  0  0  0  0  0
  141.1432   75.1263  221.3116 H   0  0  0  0  0  0  0  0  0  0  0  0
  142.3545   77.5081  221.0856 H   0  0  0  0  0  0  0  0  0  0  0  0
  141.1105   77.1173  219.8946 H   0  0  0  0  0  0  0  0  0  0  0  0
  140.0993   78.9565  220.6236 H   0  0  0  0  0  0  0  0  0  0  0  0
  139.4562   80.4334  223.0555 H   0  0  0  0  0  0  0  0  0  0  0  0
  140.7460   82.0341  224.4005 H   0  0  0  0  0  0  0  0  0  0  0  0
  144.3677   80.2294  223.1735 H   0  0  0  0  0  0  0  0  0  0  0  0
  143.1071   78.5976  221.8084 H   0  0  0  0  0  0  0  0  0  0  0  0
  139.6254   77.8758  223.4192 H   0  0  0  0  0  0  0  0  0  0  0  0
  138.4051   78.1518  222.1828 H   0  0  0  0  0  0  0  0  0  0  0  0
  139.1622   70.0763  222.6447 H   0  0  0  0  0  0  0  0  0  0  0  0
  139.2290   68.2961  224.3556 H   0  0  0  0  0  0  0  0  0  0  0  0
  139.7818   67.6095  226.5423 H   0  0  0  0  0  0  0  0  0  0  0  0
  141.5301   70.4268  229.2717 H   0  0  0  0  0  0  0  0  0  0  0  0
  141.4428   72.1922  227.5203 H   0  0  0  0  0  0  0  0  0  0  0  0
  1  2  2  0
  2  3  1  0
  3  4  1  0
  4  5  1  0
  5  6  2  0
  5  7  1  0
  7  8  1  0
  8  9  1  0
  9 10  1  0
 10 11  1  0
 11 12  2  0
 12 13  1  0
 13 14  2  0
 14 15  1  0
 15 16  2  0
 10 17  1  0
  2 18  1  0
 18 19  2  0
 19 20  1  0
 20 21  2  0
 21 22  1  0
 22 23  2  0
 23 24  1  0
 23 25  1  0
 25 26  2  0
 26 27  1  0
 27 28  2  0
 17  7  1  0
 28 18  1  0
 16 11  1  0
 27 21  1  0
  3 29  1  0
  4 30  1  0
  4 31  1  0
  8 32  1  0
  8 33  1  0
  9 34  1  0
  9 35  1  0
 10 36  1  6
 12 37  1  0
 13 38  1  0
 15 39  1  0
 16 40  1  0
 17 41  1  0
 17 42  1  0
 19 43  1  0
 20 44  1  0
 22 45  1  0
 25 46  1  0
 26 47  1  0
M  END
>  <smiles>  (4) 
O=C(NCC(=O)N1CC[C@H](c2ccncc2)C1)c1ccc2cc(F)ccc2n1

>  <score_type>  (4) 
oracle

>  <origin>  (4) 
autodockgpu

>  <m_score__min__energy>  (4) 
-8.7400000000000002

>  <m_primary>  (4) 
energy

>  <rmsd>  (4) 
2.661976757968372

>  <m_score__min__rmsd>  (4) 
2.661976757968372

>  <meeko>  (4) 
{"free_energy": -8.7, "intermolecular_energy": -10.19, "internal_energy": -1.09, "cluster_size": 42, "cluster_id": 1, "rank_in_cluster": 3}

>  <energy>  (4) 
-8.69

>  <cluster_rmsd>  (4) 
0.92

>  <cluster>  (4) 
1

$$$$

     RDKit          3D

 47 50  0  0  0  0  0  0  0  0999 V2000
  141.2130   72.1900  221.5540 O   0  0  0  0  0  0  0  0  0  0  0  0
  140.3420   72.4480  222.4410 C   0  0  0  0  0  0  0  0  0  0  0  0
  139.5030   73.5850  222.2890 N   0  0  0  0  0  0  0  0  0  0  0  0
  139.6800   74.4120  221.1150 C   0  0  0  0  0  0  0  0  0  0  0  0
  140.9320   75.1970  221.2620 C   0  0  0  0  0  0  0  0  0  0  0  0
  142.0830   74.6990  221.1680 O   0  0  0  0  0  0  0  0  0  0  0  0
  140.8340   76.5920  221.5230 N   0  0  0  0  0  0  0  0  0  0  0  0
  139.9880   77.3000  222.4640 C   0  0  0  0  0  0  0  0  0  0  0  0
  140.9550   78.2670  223.0790 C   0  0  0  0  0  0  0  0  0  0  0  0
  141.8550   78.6650  221.9840 C   0  0  2  0  0  0  0  0  0  0  0  0
  141.6610   80.0200  221.4260 C   0  0  0  0  0  0  0  0  0  0  0  0
  141.6330   80.3330  220.1010 C   0  0  0  0  0  0  0  0  0  0  0  0
  141.4460   81.6290  219.6600 C   0  0  0  0  0  0  0  0  0  0  0  0
  141.2840   82.6380  220.5240 N   0  0  0  0  0  0  0  0  0  0  0  0
  141.3030   82.3830  221.8540 C   0  0  0  0  0  0  0  0  0  0  0  0
  141.4890   81.0910  222.3160 C   0  0  0  0  0  0  0  0  0  0  0  0
  141.5980   77.6690  220.8740 C   0  0  0  0  0  0  0  0  0  0  0  0
  140.2060   71.5770  223.6100 C   0  0  0  0  0  0  0  0  0  0  0  0
  139.5650   70.3660  223.4800 C   0  0  0  0  0  0  0  0  0  0  0  0
  139.3870   69.4790  224.5210 C   0  0  0  0  0  0  0  0  0  0  0  0
  139.8860   69.8400  225.7520 C   0  0  0  0  0  0  0  0  0  0  0  0
  139.7140   68.9600  226.7970 C   0  0  0  0  0  0  0  0  0  0  0  0
  140.2090   69.3140  228.0350 C   0  0  0  0  0  0  0  0  0  0  0  0
  140.0260   68.4240  229.0590 F   0  0  0  0  0  0  0  0  0  0  0  0
  140.8540   70.5140  228.1990 C   0  0  0  0  0  0  0  0  0  0  0  0
  141.0130   71.3870  227.1200 C   0  0  0  0  0  0  0  0  0  0  0  0
  140.5260   71.0540  225.8720 C   0  0  0  0  0  0  0  0  0  0  0  0
  140.6820   71.9030  224.8250 N   0  0  0  0  0  0  0  0  0  0  0  0
  138.7670   73.8280  223.0110 H   0  0  0  0  0  0  0  0  0  0  0  0
  139.7471   73.7743  220.2212 H   0  0  0  0  0  0  0  0  0  0  0  0
  138.8237   75.0941  221.0079 H   0  0  0  0  0  0  0  0  0  0  0  0
  139.1691   77.8247  221.9501 H   0  0  0  0  0  0  0  0  0  0  0  0
  139.4882   76.6455  223.1933 H   0  0  0  0  0  0  0  0  0  0  0  0
  140.4227   79.1430  223.4781 H   0  0  0  0  0  0  0  0  0  0  0  0
  141.5049   77.8187  223.9197 H   0  0  0  0  0  0  0  0  0  0  0  0
  142.8754   78.6782  222.3947 H   0  0  0  0  0  0  0  0  0  0  0  0
  141.7631   79.5305  219.3600 H   0  0  0  0  0  0  0  0  0  0  0  0
  141.4300   81.8350  218.5796 H   0  0  0  0  0  0  0  0  0  0  0  0
  141.1700   83.2066  222.5710 H   0  0  0  0  0  0  0  0  0  0  0  0
  141.5021   80.9010  223.3994 H   0  0  0  0  0  0  0  0  0  0  0  0
  141.0122   78.1296  220.0649 H   0  0  0  0  0  0  0  0  0  0  0  0
  142.5275   77.3056  220.4114 H   0  0  0  0  0  0  0  0  0  0  0  0
  139.1726   70.0901  222.4901 H   0  0  0  0  0  0  0  0  0  0  0  0
  138.8669   68.5210  224.3734 H   0  0  0  0  0  0  0  0  0  0  0  0
  139.1961   68.0010  226.6487 H   0  0  0  0  0  0  0  0  0  0  0  0
  141.2489   70.7907  229.1877 H   0  0  0  0  0  0  0  0  0  0  0  0
  141.5301   72.3469  227.2660 H   0  0  0  0  0  0  0  0  0  0  0  0
  1  2  2  0
  2  3  1  0
  3  4  1  0
  4  5  1  0
  5  6  2  0
  5  7  1  0
  7  8  1  0
  8  9  1  0
  9 10  1  0
 10 11  1  0
 11 12  2  0
 12 13  1  0
 13 14  2  0
 14 15  1  0
 15 16  2  0
 10 17  1  0
  2 18  1  0
 18 19  2  0
 19 20  1  0
 20 21  2  0
 21 22  1  0
 22 23  2  0
 23 24  1  0
 23 25  1  0
 25 26  2  0
 26 27  1  0
 27 28  2  0
 17  7  1  0
 28 18  1  0
 16 11  1  0
 27 21  1  0
  3 29  1  0
  4 30  1  0
  4 31  1  0
  8 32  1  0
  8 33  1  0
  9 34  1  0
  9 35  1  0
 10 36  1  1
 12 37  1  0
 13 38  1  0
 15 39  1  0
 16 40  1  0
 17 41  1  0
 17 42  1  0
 19 43  1  0
 20 44  1  0
 22 45  1  0
 25 46  1  0
 26 47  1  0
M  END
>  <smiles>  (5) 
O=C(NCC(=O)N1CC[C@H](c2ccncc2)C1)c1ccc2cc(F)ccc2n1

>  <score_type>  (5) 
oracle

>  <origin>  (5) 
autodockgpu

>  <m_score__min__energy>  (5) 
-8.7400000000000002

>  <m_primary>  (5) 
energy

>  <rmsd>  (5) 
3.0346932251545327

>  <m_score__min__rmsd>  (5) 
3.0346932251545327

>  <meeko>  (5) 
{"free_energy": -8.38, "intermolecular_energy": -9.88, "internal_energy": -0.96, "cluster_size": 42, "cluster_id": 1, "rank_in_cluster": 23}

>  <energy>  (5) 
-8.65

>  <cluster_rmsd>  (5) 
0.87

>  <cluster>  (5) 
1

$$$$

     RDKit          3D

 47 50  0  0  0  0  0  0  0  0999 V2000
  140.7650   71.7130  221.2560 O   0  0  0  0  0  0  0  0  0  0  0  0
  140.2130   72.1920  222.2940 C   0  0  0  0  0  0  0  0  0  0  0  0
  139.6670   73.5030  222.2540 N   0  0  0  0  0  0  0  0  0  0  0  0
  139.7680   74.2480  221.0180 C   0  0  0  0  0  0  0  0  0  0  0  0
  141.1690   74.7100  220.8450 C   0  0  0  0  0  0  0  0  0  0  0  0
  142.1240   73.9450  220.5570 O   0  0  0  0  0  0  0  0  0  0  0  0
  141.4550   76.0930  221.0120 N   0  0  0  0  0  0  0  0  0  0  0  0
  142.2100   76.9920  220.1620 C   0  0  0  0  0  0  0  0  0  0  0  0
  141.3240   78.2010  220.1290 C   0  0  0  0  0  0  0  0  0  0  0  0
  140.7400   78.2900  221.4780 C   0  0  2  0  0  0  0  0  0  0  0  0
  141.2710   79.3460  222.3640 C   0  0  0  0  0  0  0  0  0  0  0  0
  140.5250   80.2710  223.0270 C   0  0  0  0  0  0  0  0  0  0  0  0
  141.1010   81.2290  223.8400 C   0  0  0  0  0  0  0  0  0  0  0  0
  142.4270   81.2870  224.0090 N   0  0  0  0  0  0  0  0  0  0  0  0
  143.2170   80.3900  223.3730 C   0  0  0  0  0  0  0  0  0  0  0  0
  142.6590   79.4230  222.5550 C   0  0  0  0  0  0  0  0  0  0  0  0
  141.0320   76.9540  222.1270 C   0  0  0  0  0  0  0  0  0  0  0  0
  140.1380   71.3940  223.5200 C   0  0  0  0  0  0  0  0  0  0  0  0
  139.5480   70.1520  223.4830 C   0  0  0  0  0  0  0  0  0  0  0  0
  139.4310   69.3280  224.5830 C   0  0  0  0  0  0  0  0  0  0  0  0
  139.9380   69.7890  225.7760 C   0  0  0  0  0  0  0  0  0  0  0  0
  139.8260   68.9730  226.8800 C   0  0  0  0  0  0  0  0  0  0  0  0
  140.3310   69.4280  228.0800 C   0  0  0  0  0  0  0  0  0  0  0  0
  140.2080   68.6010  229.1630 F   0  0  0  0  0  0  0  0  0  0  0  0
  140.9260   70.6630  228.1510 C   0  0  0  0  0  0  0  0  0  0  0  0
  141.0250   71.4690  227.0140 C   0  0  0  0  0  0  0  0  0  0  0  0
  140.5270   71.0350  225.8030 C   0  0  0  0  0  0  0  0  0  0  0  0
  140.6240   71.8190  224.6990 N   0  0  0  0  0  0  0  0  0  0  0  0
  139.1990   73.9330  223.1030 H   0  0  0  0  0  0  0  0  0  0  0  0
  139.4859   73.6018  220.1738 H   0  0  0  0  0  0  0  0  0  0  0  0
  139.0920   75.1152  221.0505 H   0  0  0  0  0  0  0  0  0  0  0  0
  143.1916   77.2268  220.5995 H   0  0  0  0  0  0  0  0  0  0  0  0
  142.4368   76.5792  219.1680 H   0  0  0  0  0  0  0  0  0  0  0  0
  141.9112   79.1032  219.9028 H   0  0  0  0  0  0  0  0  0  0  0  0
  140.5504   78.1221  219.3510 H   0  0  0  0  0  0  0  0  0  0  0  0
  139.6775   78.5455  221.3520 H   0  0  0  0  0  0  0  0  0  0  0  0
  139.4311   80.2559  222.9125 H   0  0  0  0  0  0  0  0  0  0  0  0
  140.4580   81.9564  224.3571 H   0  0  0  0  0  0  0  0  0  0  0  0
  144.3081   80.4300  223.5071 H   0  0  0  0  0  0  0  0  0  0  0  0
  143.3152   78.7020  222.0456 H   0  0  0  0  0  0  0  0  0  0  0  0
  141.8357   77.0500  222.8718 H   0  0  0  0  0  0  0  0  0  0  0  0
  140.1619   76.5487  222.6643 H   0  0  0  0  0  0  0  0  0  0  0  0
  139.1471   69.7960  222.5225 H   0  0  0  0  0  0  0  0  0  0  0  0
  138.9511   68.3410  224.5092 H   0  0  0  0  0  0  0  0  0  0  0  0
  139.3469   67.9855  226.8066 H   0  0  0  0  0  0  0  0  0  0  0  0
  141.3279   71.0208  229.1104 H   0  0  0  0  0  0  0  0  0  0  0  0
  141.5036   72.4569  227.0851 H   0  0  0  0  0  0  0  0  0  0  0  0
  1  2  2  0
  2  3  1  0
  3  4  1  0
  4  5  1  0
  5  6  2  0
  5  7  1  0
  7  8  1  0
  8  9  1  0
  9 10  1  0
 10 11  1  0
 11 12  2  0
 12 13  1  0
 13 14  2  0
 14 15  1  0
 15 16  2  0
 10 17  1  0
  2 18  1  0
 18 19  2  0
 19 20  1  0
 20 21  2  0
 21 22  1  0
 22 23  2  0
 23 24  1  0
 23 25  1  0
 25 26  2  0
 26 27  1  0
 27 28  2  0
 17  7  1  0
 28 18  1  0
 16 11  1  0
 27 21  1  0
  3 29  1  0
  4 30  1  0
  4 31  1  0
  8 32  1  0
  8 33  1  0
  9 34  1  0
  9 35  1  0
 10 36  1  6
 12 37  1  0
 13 38  1  0
 15 39  1  0
 16 40  1  0
 17 41  1  0
 17 42  1  0
 19 43  1  0
 20 44  1  0
 22 45  1  0
 25 46  1  0
 26 47  1  0
M  END
>  <smiles>  (6) 
O=C(NCC(=O)N1CC[C@H](c2ccncc2)C1)c1ccc2cc(F)ccc2n1

>  <score_type>  (6) 
oracle

>  <origin>  (6) 
autodockgpu

>  <m_score__min__energy>  (6) 
-8.7400000000000002

>  <m_primary>  (6) 
energy

>  <rmsd>  (6) 
2.512836177149414

>  <m_score__min__rmsd>  (6) 
2.512836177149414

>  <meeko>  (6) 
{"free_energy": -8.7, "intermolecular_energy": -10.19, "internal_energy": -0.98, "cluster_size": 42, "cluster_id": 1, "rank_in_cluster": 2}

>  <energy>  (6) 
-8.65

>  <cluster_rmsd>  (6) 
0.97

>  <cluster>  (6) 
1

$$$$

     RDKit          3D

 47 50  0  0  0  0  0  0  0  0999 V2000
  140.3820   71.6900  221.1270 O   0  0  0  0  0  0  0  0  0  0  0  0
  140.0600   72.2160  222.2370 C   0  0  0  0  0  0  0  0  0  0  0  0
  139.6960   73.5890  222.2810 N   0  0  0  0  0  0  0  0  0  0  0  0
  139.7090   74.3400  221.0440 C   0  0  0  0  0  0  0  0  0  0  0  0
  141.1030   74.7590  220.7480 C   0  0  0  0  0  0  0  0  0  0  0  0
  142.0090   73.9630  220.3920 O   0  0  0  0  0  0  0  0  0  0  0  0
  141.4410   76.1340  220.8730 N   0  0  0  0  0  0  0  0  0  0  0  0
  142.3350   76.9440  220.0700 C   0  0  0  0  0  0  0  0  0  0  0  0
  141.5240   78.1900  219.8680 C   0  0  0  0  0  0  0  0  0  0  0  0
  140.7940   78.3860  221.1310 C   0  0  2  0  0  0  0  0  0  0  0  0
  141.2760   79.4680  222.0150 C   0  0  0  0  0  0  0  0  0  0  0  0
  140.6500   80.6600  222.2190 C   0  0  0  0  0  0  0  0  0  0  0  0
  141.1680   81.6220  223.0660 C   0  0  0  0  0  0  0  0  0  0  0  0
  142.3150   81.4190  223.7250 N   0  0  0  0  0  0  0  0  0  0  0  0
  142.9780   80.2510  223.5600 C   0  0  0  0  0  0  0  0  0  0  0  0
  142.4760   79.2740  222.7160 C   0  0  0  0  0  0  0  0  0  0  0  0
  140.9390   77.0790  221.8820 C   0  0  0  0  0  0  0  0  0  0  0  0
  140.0640   71.4110  223.4600 C   0  0  0  0  0  0  0  0  0  0  0  0
  139.5630   70.1290  223.4260 C   0  0  0  0  0  0  0  0  0  0  0  0
  139.5240   69.2940  224.5240 C   0  0  0  0  0  0  0  0  0  0  0  0
  140.0180   69.7860  225.7100 C   0  0  0  0  0  0  0  0  0  0  0  0
  139.9830   68.9590  226.8110 C   0  0  0  0  0  0  0  0  0  0  0  0
  140.4750   69.4440  228.0050 C   0  0  0  0  0  0  0  0  0  0  0  0
  140.4300   68.6050  229.0860 F   0  0  0  0  0  0  0  0  0  0  0  0
  140.9820   70.7170  228.0730 C   0  0  0  0  0  0  0  0  0  0  0  0
  141.0040   71.5330  226.9390 C   0  0  0  0  0  0  0  0  0  0  0  0
  140.5170   71.0700  225.7340 C   0  0  0  0  0  0  0  0  0  0  0  0
  140.5390   71.8630  224.6330 N   0  0  0  0  0  0  0  0  0  0  0  0
  139.4220   74.0590  223.1910 H   0  0  0  0  0  0  0  0  0  0  0  0
  139.3317   73.7093  220.2256 H   0  0  0  0  0  0  0  0  0  0  0  0
  139.0665   75.2276  221.1410 H   0  0  0  0  0  0  0  0  0  0  0  0
  143.2713   77.1583  220.6061 H   0  0  0  0  0  0  0  0  0  0  0  0
  142.6514   76.4622  219.1331 H   0  0  0  0  0  0  0  0  0  0  0  0
  142.1808   79.0488  219.6651 H   0  0  0  0  0  0  0  0  0  0  0  0
  140.8423   78.1014  219.0093 H   0  0  0  0  0  0  0  0  0  0  0  0
  139.7678   78.6814  220.8672 H   0  0  0  0  0  0  0  0  0  0  0  0
  139.7047   80.8633  221.6946 H   0  0  0  0  0  0  0  0  0  0  0  0
  140.6280   82.5708  223.2006 H   0  0  0  0  0  0  0  0  0  0  0  0
  143.9208   80.0764  224.0991 H   0  0  0  0  0  0  0  0  0  0  0  0
  143.0274   78.3301  222.5932 H   0  0  0  0  0  0  0  0  0  0  0  0
  141.6560   77.1826  222.7097 H   0  0  0  0  0  0  0  0  0  0  0  0
  139.9930   76.7472  222.3348 H   0  0  0  0  0  0  0  0  0  0  0  0
  139.1721   69.7492  222.4705 H   0  0  0  0  0  0  0  0  0  0  0  0
  139.1142   68.2756  224.4538 H   0  0  0  0  0  0  0  0  0  0  0  0
  139.5741   67.9403  226.7401 H   0  0  0  0  0  0  0  0  0  0  0  0
  141.3741   71.0981  229.0274 H   0  0  0  0  0  0  0  0  0  0  0  0
  141.4126   72.5520  227.0075 H   0  0  0  0  0  0  0  0  0  0  0  0
  1  2  2  0
  2  3  1  0
  3  4  1  0
  4  5  1  0
  5  6  2  0
  5  7  1  0
  7  8  1  0
  8  9  1  0
  9 10  1  0
 10 11  1  0
 11 12  2  0
 12 13  1  0
 13 14  2  0
 14 15  1  0
 15 16  2  0
 10 17  1  0
  2 18  1  0
 18 19  2  0
 19 20  1  0
 20 21  2  0
 21 22  1  0
 22 23  2  0
 23 24  1  0
 23 25  1  0
 25 26  2  0
 26 27  1  0
 27 28  2  0
 17  7  1  0
 28 18  1  0
 16 11  1  0
 27 21  1  0
  3 29  1  0
  4 30  1  0
  4 31  1  0
  8 32  1  0
  8 33  1  0
  9 34  1  0
  9 35  1  0
 10 36  1  6
 12 37  1  0
 13 38  1  0
 15 39  1  0
 16 40  1  0
 17 41  1  0
 17 42  1  0
 19 43  1  0
 20 44  1  0
 22 45  1  0
 25 46  1  0
 26 47  1  0
M  END
>  <smiles>  (7) 
O=C(NCC(=O)N1CC[C@H](c2ccncc2)C1)c1ccc2cc(F)ccc2n1

>  <score_type>  (7) 
oracle

>  <origin>  (7) 
autodockgpu

>  <m_score__min__energy>  (7) 
-8.7400000000000002

>  <m_primary>  (7) 
energy

>  <rmsd>  (7) 
2.4168171024313168

>  <m_score__min__rmsd>  (7) 
2.4168171024313168

>  <meeko>  (7) 
{"free_energy": -8.5, "intermolecular_energy": -9.99, "internal_energy": -1.05, "cluster_size": 42, "cluster_id": 1, "rank_in_cluster": 20}

>  <energy>  (7) 
-8.64

>  <cluster_rmsd>  (7) 
0.2

>  <cluster>  (7) 
1

$$$$

     RDKit          3D

 47 50  0  0  0  0  0  0  0  0999 V2000
  140.4440   71.6650  221.1420 O   0  0  0  0  0  0  0  0  0  0  0  0
  140.0600   72.1760  222.2390 C   0  0  0  0  0  0  0  0  0  0  0  0
  139.6300   73.5300  222.2680 N   0  0  0  0  0  0  0  0  0  0  0  0
  139.6510   74.2800  221.0300 C   0  0  0  0  0  0  0  0  0  0  0  0
  141.0520   74.6640  220.7220 C   0  0  0  0  0  0  0  0  0  0  0  0
  141.9280   73.8510  220.3310 O   0  0  0  0  0  0  0  0  0  0  0  0
  141.4330   76.0260  220.8750 N   0  0  0  0  0  0  0  0  0  0  0  0
  142.3660   76.8190  220.1000 C   0  0  0  0  0  0  0  0  0  0  0  0
  141.5990   78.0940  219.9080 C   0  0  0  0  0  0  0  0  0  0  0  0
  140.8570   78.2930  221.1630 C   0  0  2  0  0  0  0  0  0  0  0  0
  141.3600   79.3440  222.0730 C   0  0  0  0  0  0  0  0  0  0  0  0
  142.1660   79.1380  223.1500 C   0  0  0  0  0  0  0  0  0  0  0  0
  142.5940   80.1780  223.9530 C   0  0  0  0  0  0  0  0  0  0  0  0
  142.2320   81.4420  223.7000 N   0  0  0  0  0  0  0  0  0  0  0  0
  141.4320   81.7040  222.6400 C   0  0  0  0  0  0  0  0  0  0  0  0
  140.9920   80.6750  221.8240 C   0  0  0  0  0  0  0  0  0  0  0  0
  140.9470   76.9700  221.8940 C   0  0  0  0  0  0  0  0  0  0  0  0
  140.0590   71.3720  223.4630 C   0  0  0  0  0  0  0  0  0  0  0  0
  139.5450   70.0960  223.4330 C   0  0  0  0  0  0  0  0  0  0  0  0
  139.5000   69.2630  224.5320 C   0  0  0  0  0  0  0  0  0  0  0  0
  140.0030   69.7510  225.7160 C   0  0  0  0  0  0  0  0  0  0  0  0
  139.9630   68.9260  226.8180 C   0  0  0  0  0  0  0  0  0  0  0  0
  140.4650   69.4070  228.0100 C   0  0  0  0  0  0  0  0  0  0  0  0
  140.4140   68.5700  229.0920 F   0  0  0  0  0  0  0  0  0  0  0  0
  140.9860   70.6750  228.0740 C   0  0  0  0  0  0  0  0  0  0  0  0
  141.0120   71.4890  226.9390 C   0  0  0  0  0  0  0  0  0  0  0  0
  140.5160   71.0290  225.7360 C   0  0  0  0  0  0  0  0  0  0  0  0
  140.5430   71.8210  224.6340 N   0  0  0  0  0  0  0  0  0  0  0  0
  139.3040   73.9870  223.1660 H   0  0  0  0  0  0  0  0  0  0  0  0
  139.2512   73.6584  220.2153 H   0  0  0  0  0  0  0  0  0  0  0  0
  139.0315   75.1833  221.1318 H   0  0  0  0  0  0  0  0  0  0  0  0
  143.3003   76.9931  220.6539 H   0  0  0  0  0  0  0  0  0  0  0  0
  142.6817   76.3430  219.1599 H   0  0  0  0  0  0  0  0  0  0  0  0
  142.2863   78.9340  219.7293 H   0  0  0  0  0  0  0  0  0  0  0  0
  140.9276   78.0419  219.0383 H   0  0  0  0  0  0  0  0  0  0  0  0
  139.8454   78.6266  220.8884 H   0  0  0  0  0  0  0  0  0  0  0  0
  142.4864   78.1131  223.3884 H   0  0  0  0  0  0  0  0  0  0  0  0
  143.2432   79.9638  224.8148 H   0  0  0  0  0  0  0  0  0  0  0  0
  141.1297   82.7397  222.4255 H   0  0  0  0  0  0  0  0  0  0  0  0
  140.3430   80.9051  220.9662 H   0  0  0  0  0  0  0  0  0  0  0  0
  141.6545   77.0358  222.7337 H   0  0  0  0  0  0  0  0  0  0  0  0
  139.9841   76.6623  222.3278 H   0  0  0  0  0  0  0  0  0  0  0  0
  139.1476   69.7188  222.4792 H   0  0  0  0  0  0  0  0  0  0  0  0
  139.0788   68.2491  224.4643 H   0  0  0  0  0  0  0  0  0  0  0  0
  139.5426   67.9118  226.7499 H   0  0  0  0  0  0  0  0  0  0  0  0
  141.3862   71.0533  229.0263 H   0  0  0  0  0  0  0  0  0  0  0  0
  141.4308   72.5040  227.0046 H   0  0  0  0  0  0  0  0  0  0  0  0
  1  2  2  0
  2  3  1  0
  3  4  1  0
  4  5  1  0
  5  6  2  0
  5  7  1  0
  7  8  1  0
  8  9  1  0
  9 10  1  0
 10 11  1  0
 11 12  2  0
 12 13  1  0
 13 14  2  0
 14 15  1  0
 15 16  2  0
 10 17  1  0
  2 18  1  0
 18 19  2  0
 19 20  1  0
 20 21  2  0
 21 22  1  0
 22 23  2  0
 23 24  1  0
 23 25  1  0
 25 26  2  0
 26 27  1  0
 27 28  2  0
 17  7  1  0
 28 18  1  0
 16 11  1  0
 27 21  1  0
  3 29  1  0
  4 30  1  0
  4 31  1  0
  8 32  1  0
  8 33  1  0
  9 34  1  0
  9 35  1  0
 10 36  1  6
 12 37  1  0
 13 38  1  0
 15 39  1  0
 16 40  1  0
 17 41  1  0
 17 42  1  0
 19 43  1  0
 20 44  1  0
 22 45  1  0
 25 46  1  0
 26 47  1  0
M  END
>  <smiles>  (8) 
O=C(NCC(=O)N1CC[C@H](c2ccncc2)C1)c1ccc2cc(F)ccc2n1

>  <score_type>  (8) 
oracle

>  <origin>  (8) 
autodockgpu

>  <m_score__min__energy>  (8) 
-8.7400000000000002

>  <m_primary>  (8) 
energy

>  <rmsd>  (8) 
2.3942332295793434

>  <m_score__min__rmsd>  (8) 
2.3942332295793434

>  <meeko>  (8) 
{"free_energy": -8.58, "intermolecular_energy": -10.07, "internal_energy": -1.02, "cluster_size": 42, "cluster_id": 1, "rank_in_cluster": 14}

>  <energy>  (8) 
-8.63

>  <cluster_rmsd>  (8) 
1.0

>  <cluster>  (8) 
1

$$$$

     RDKit          3D

 47 50  0  0  0  0  0  0  0  0999 V2000
  140.0050   71.2730  221.3080 O   0  0  0  0  0  0  0  0  0  0  0  0
  139.8690   71.8310  222.4410 C   0  0  0  0  0  0  0  0  0  0  0  0
  139.6900   73.2390  222.5100 N   0  0  0  0  0  0  0  0  0  0  0  0
  139.6720   73.9870  221.2720 C   0  0  0  0  0  0  0  0  0  0  0  0
  141.0120   74.5880  221.0500 C   0  0  0  0  0  0  0  0  0  0  0  0
  142.0440   73.9160  220.7950 O   0  0  0  0  0  0  0  0  0  0  0  0
  141.1450   76.0010  221.1300 N   0  0  0  0  0  0  0  0  0  0  0  0
  141.3800   76.9700  220.0780 C   0  0  0  0  0  0  0  0  0  0  0  0
  140.3910   78.0440  220.4230 C   0  0  0  0  0  0  0  0  0  0  0  0
  140.3680   78.0910  221.8940 C   0  0  2  0  0  0  0  0  0  0  0  0
  141.0480   79.2370  222.5320 C   0  0  0  0  0  0  0  0  0  0  0  0
  142.1820   79.1670  223.2820 C   0  0  0  0  0  0  0  0  0  0  0  0
  142.7570   80.2900  223.8460 C   0  0  0  0  0  0  0  0  0  0  0  0
  142.2180   81.5030  223.6760 N   0  0  0  0  0  0  0  0  0  0  0  0
  141.0900   81.6310  222.9390 C   0  0  0  0  0  0  0  0  0  0  0  0
  140.4990   80.5180  222.3650 C   0  0  0  0  0  0  0  0  0  0  0  0
  141.0710   76.8290  222.3440 C   0  0  0  0  0  0  0  0  0  0  0  0
  139.8960   71.0260  223.6630 C   0  0  0  0  0  0  0  0  0  0  0  0
  139.3970   69.7440  223.6390 C   0  0  0  0  0  0  0  0  0  0  0  0
  139.3780   68.9090  224.7380 C   0  0  0  0  0  0  0  0  0  0  0  0
  139.8910   69.4020  225.9150 C   0  0  0  0  0  0  0  0  0  0  0  0
  139.8770   68.5760  227.0170 C   0  0  0  0  0  0  0  0  0  0  0  0
  140.3890   69.0620  228.2020 C   0  0  0  0  0  0  0  0  0  0  0  0
  140.3640   68.2240  229.2840 F   0  0  0  0  0  0  0  0  0  0  0  0
  140.8950   70.3370  228.2600 C   0  0  0  0  0  0  0  0  0  0  0  0
  140.8960   71.1520  227.1260 C   0  0  0  0  0  0  0  0  0  0  0  0
  140.3890   70.6870  225.9290 C   0  0  0  0  0  0  0  0  0  0  0  0
  140.3900   71.4800  224.8280 N   0  0  0  0  0  0  0  0  0  0  0  0
  139.5730   73.7360  223.4390 H   0  0  0  0  0  0  0  0  0  0  0  0
  139.4273   73.3132  220.4377 H   0  0  0  0  0  0  0  0  0  0  0  0
  138.9134   74.7815  221.3291 H   0  0  0  0  0  0  0  0  0  0  0  0
  142.4115   77.3510  220.1076 H   0  0  0  0  0  0  0  0  0  0  0  0
  141.2598   76.5633  219.0630 H   0  0  0  0  0  0  0  0  0  0  0  0
  140.7135   79.0117  220.0114 H   0  0  0  0  0  0  0  0  0  0  0  0
  139.3958   77.8360  220.0032 H   0  0  0  0  0  0  0  0  0  0  0  0
  139.3152   78.1921  222.1964 H   0  0  0  0  0  0  0  0  0  0  0  0
  142.6548   78.1871  223.4440 H   0  0  0  0  0  0  0  0  0  0  0  0
  143.6736   80.1850  224.4450 H   0  0  0  0  0  0  0  0  0  0  0  0
  140.6403   82.6245  222.7952 H   0  0  0  0  0  0  0  0  0  0  0  0
  139.5833   80.6399  221.7678 H   0  0  0  0  0  0  0  0  0  0  0  0
  142.0785   77.0578  222.7216 H   0  0  0  0  0  0  0  0  0  0  0  0
  140.5422   76.3237  223.1656 H   0  0  0  0  0  0  0  0  0  0  0  0
  138.9903   69.3630  222.6906 H   0  0  0  0  0  0  0  0  0  0  0  0
  138.9689   67.8899  224.6749 H   0  0  0  0  0  0  0  0  0  0  0  0
  139.4686   67.5566  226.9539 H   0  0  0  0  0  0  0  0  0  0  0  0
  141.3029   70.7196  229.2072 H   0  0  0  0  0  0  0  0  0  0  0  0
  141.3037   72.1718  227.1869 H   0  0  0  0  0  0  0  0  0  0  0  0
  1  2  2  0
  2  3  1  0
  3  4  1  0
  4  5  1  0
  5  6  2  0
  5  7  1  0
  7  8  1  0
  8  9  1  0
  9 10  1  0
 10 11  1  0
 11 12  2  0
 12 13  1  0
 13 14  2  0
 14 15  1  0
 15 16  2  0
 10 17  1  0
  2 18  1  0
 18 19  2  0
 19 20  1  0
 20 21  2  0
 21 22  1  0
 22 23  2  0
 23 24  1  0
 23 25  1  0
 25 26  2  0
 26 27  1  0
 27 28  2  0
 17  7  1  0
 28 18  1  0
 16 11  1  0
 27 21  1  0
  3 29  1  0
  4 30  1  0
  4 31  1  0
  8 32  1  0
  8 33  1  0
  9 34  1  0
  9 35  1  0
 10 36  1  1
 12 37  1  0
 13 38  1  0
 15 39  1  0
 16 40  1  0
 17 41  1  0
 17 42  1  0
 19 43  1  0
 20 44  1  0
 22 45  1  0
 25 46  1  0
 26 47  1  0
M  END
>  <smiles>  (9) 
O=C(NCC(=O)N1CC[C@H](c2ccncc2)C1)c1ccc2cc(F)ccc2n1

>  <score_type>  (9) 
oracle

>  <origin>  (9) 
autodockgpu

>  <m_score__min__energy>  (9) 
-8.7400000000000002

>  <m_primary>  (9) 
energy

>  <rmsd>  (9) 
2.542658991177399

>  <m_score__min__rmsd>  (9) 
2.542658991177399

>  <meeko>  (9) 
{"free_energy": -8.37, "intermolecular_energy": -9.86, "internal_energy": -1.08, "cluster_size": 42, "cluster_id": 1, "rank_in_cluster": 25}

>  <energy>  (9) 
-8.62

>  <cluster_rmsd>  (9) 
1.01

>  <cluster>  (9) 
1

$$$$

     RDKit          3D

 47 50  0  0  0  0  0  0  0  0999 V2000
  139.8590   71.1650  221.3120 O   0  0  0  0  0  0  0  0  0  0  0  0
  139.7870   71.7310  222.4460 C   0  0  0  0  0  0  0  0  0  0  0  0
  139.6350   73.1420  222.5150 N   0  0  0  0  0  0  0  0  0  0  0  0
  139.5690   73.8840  221.2750 C   0  0  0  0  0  0  0  0  0  0  0  0
  140.8690   74.5670  221.0520 C   0  0  0  0  0  0  0  0  0  0  0  0
  141.9360   73.9620  220.7740 O   0  0  0  0  0  0  0  0  0  0  0  0
  140.9200   75.9840  221.1570 N   0  0  0  0  0  0  0  0  0  0  0  0
  140.8320   76.9940  220.1200 C   0  0  0  0  0  0  0  0  0  0  0  0
  139.8810   77.9800  220.7300 C   0  0  0  0  0  0  0  0  0  0  0  0
  140.2010   77.9890  222.1670 C   0  0  2  0  0  0  0  0  0  0  0  0
  140.9310   79.1690  222.6770 C   0  0  0  0  0  0  0  0  0  0  0  0
  142.0720   79.1330  223.4180 C   0  0  0  0  0  0  0  0  0  0  0  0
  142.6960   80.2850  223.8570 C   0  0  0  0  0  0  0  0  0  0  0  0
  142.1990   81.4940  223.5680 N   0  0  0  0  0  0  0  0  0  0  0  0
  141.0660   81.5880  222.8330 C   0  0  0  0  0  0  0  0  0  0  0  0
  140.4260   80.4450  222.3840 C   0  0  0  0  0  0  0  0  0  0  0  0
  141.0760   76.7740  222.3890 C   0  0  0  0  0  0  0  0  0  0  0  0
  139.8580   70.9320  223.6710 C   0  0  0  0  0  0  0  0  0  0  0  0
  139.3530   69.6520  223.6730 C   0  0  0  0  0  0  0  0  0  0  0  0
  139.3750   68.8230  224.7760 C   0  0  0  0  0  0  0  0  0  0  0  0
  139.9370   69.3200  225.9300 C   0  0  0  0  0  0  0  0  0  0  0  0
  139.9630   68.4990  227.0360 C   0  0  0  0  0  0  0  0  0  0  0  0
  140.5240   68.9890  228.1970 C   0  0  0  0  0  0  0  0  0  0  0  0
  140.5380   68.1560  229.2830 F   0  0  0  0  0  0  0  0  0  0  0  0
  141.0360   70.2610  228.2280 C   0  0  0  0  0  0  0  0  0  0  0  0
  140.9960   71.0710  227.0900 C   0  0  0  0  0  0  0  0  0  0  0  0
  140.4400   70.6020  225.9170 C   0  0  0  0  0  0  0  0  0  0  0  0
  140.4010   71.3900  224.8130 N   0  0  0  0  0  0  0  0  0  0  0  0
  139.5710   73.6460  223.4460 H   0  0  0  0  0  0  0  0  0  0  0  0
  139.3670   73.1941  220.4424 H   0  0  0  0  0  0  0  0  0  0  0  0
  138.7616   74.6291  221.3296 H   0  0  0  0  0  0  0  0  0  0  0  0
  141.8124   77.4524  219.9235 H   0  0  0  0  0  0  0  0  0  0  0  0
  140.5036   76.6036  219.1454 H   0  0  0  0  0  0  0  0  0  0  0  0
  140.0307   78.9794  220.2955 H   0  0  0  0  0  0  0  0  0  0  0  0
  138.8317   77.7068  220.5448 H   0  0  0  0  0  0  0  0  0  0  0  0
  139.2441   78.0009  222.7095 H   0  0  0  0  0  0  0  0  0  0  0  0
  142.5106   78.1575  223.6751 H   0  0  0  0  0  0  0  0  0  0  0  0
  143.6166   80.2074  224.4540 H   0  0  0  0  0  0  0  0  0  0  0  0
  140.6515   82.5778  222.5911 H   0  0  0  0  0  0  0  0  0  0  0  0
  139.5064   80.5389  221.7877 H   0  0  0  0  0  0  0  0  0  0  0  0
  142.1257   77.0705  222.5316 H   0  0  0  0  0  0  0  0  0  0  0  0
  140.7912   76.2096  223.2892 H   0  0  0  0  0  0  0  0  0  0  0  0
  138.9069   69.2682  222.7436 H   0  0  0  0  0  0  0  0  0  0  0  0
  138.9598   67.8052  224.7346 H   0  0  0  0  0  0  0  0  0  0  0  0
  139.5480   67.4811  226.9944 H   0  0  0  0  0  0  0  0  0  0  0  0
  141.4819   70.6469  229.1566 H   0  0  0  0  0  0  0  0  0  0  0  0
  141.4104   72.0892  227.1293 H   0  0  0  0  0  0  0  0  0  0  0  0
  1  2  2  0
  2  3  1  0
  3  4  1  0
  4  5  1  0
  5  6  2  0
  5  7  1  0
  7  8  1  0
  8  9  1  0
  9 10  1  0
 10 11  1  0
 11 12  2  0
 12 13  1  0
 13 14  2  0
 14 15  1  0
 15 16  2  0
 10 17  1  0
  2 18  1  0
 18 19  2  0
 19 20  1  0
 20 21  2  0
 21 22  1  0
 22 23  2  0
 23 24  1  0
 23 25  1  0
 25 26  2  0
 26 27  1  0
 27 28  2  0
 17  7  1  0
 28 18  1  0
 16 11  1  0
 27 21  1  0
  3 29  1  0
  4 30  1  0
  4 31  1  0
  8 32  1  0
  8 33  1  0
  9 34  1  0
  9 35  1  0
 10 36  1  1
 12 37  1  0
 13 38  1  0
 15 39  1  0
 16 40  1  0
 17 41  1  0
 17 42  1  0
 19 43  1  0
 20 44  1  0
 22 45  1  0
 25 46  1  0
 26 47  1  0
M  END
>  <smiles>  (10) 
O=C(NCC(=O)N1CC[C@H](c2ccncc2)C1)c1ccc2cc(F)ccc2n1

>  <score_type>  (10) 
oracle

>  <origin>  (10) 
autodockgpu

>  <m_score__min__energy>  (10) 
-8.7400000000000002

>  <m_primary>  (10) 
energy

>  <rmsd>  (10) 
2.6104107320703878

>  <m_score__min__rmsd>  (10) 
2.6104107320703878

>  <meeko>  (10) 
{"free_energy": -8.31, "intermolecular_energy": -9.8, "internal_energy": -1.07, "cluster_size": 42, "cluster_id": 1, "rank_in_cluster": 34}

>  <energy>  (10) 
-8.61

>  <cluster_rmsd>  (10) 
0.38

>  <cluster>  (10) 
1

$$$$

     RDKit          3D

 47 50  0  0  0  0  0  0  0  0999 V2000
  140.1080   70.8320  221.5870 O   0  0  0  0  0  0  0  0  0  0  0  0
  139.9800   71.5870  222.6000 C   0  0  0  0  0  0  0  0  0  0  0  0
  139.6080   72.9460  222.4160 N   0  0  0  0  0  0  0  0  0  0  0  0
  139.3890   73.4180  221.0660 C   0  0  0  0  0  0  0  0  0  0  0  0
  138.9360   74.8320  221.1170 C   0  0  0  0  0  0  0  0  0  0  0  0
  137.7290   75.1810  221.0600 O   0  0  0  0  0  0  0  0  0  0  0  0
  139.9160   75.8560  221.2350 N   0  0  0  0  0  0  0  0  0  0  0  0
  141.2660   75.9110  220.7090 C   0  0  0  0  0  0  0  0  0  0  0  0
  141.3220   77.3020  220.1510 C   0  0  0  0  0  0  0  0  0  0  0  0
  140.5350   78.1250  221.0830 C   0  0  2  0  0  0  0  0  0  0  0  0
  141.2930   79.0160  221.9860 C   0  0  0  0  0  0  0  0  0  0  0  0
  141.8820   80.1900  221.6270 C   0  0  0  0  0  0  0  0  0  0  0  0
  142.5750   80.9680  222.5360 C   0  0  0  0  0  0  0  0  0  0  0  0
  142.6960   80.5950  223.8160 N   0  0  0  0  0  0  0  0  0  0  0  0
  142.1290   79.4370  224.2270 C   0  0  0  0  0  0  0  0  0  0  0  0
  141.4300   78.6440  223.3320 C   0  0  0  0  0  0  0  0  0  0  0  0
  139.7740   77.1380  221.9420 C   0  0  0  0  0  0  0  0  0  0  0  0
  140.2140   71.0570  223.9440 C   0  0  0  0  0  0  0  0  0  0  0  0
  140.7100   71.8890  224.9220 C   0  0  0  0  0  0  0  0  0  0  0  0
  140.9640   71.4830  226.2160 C   0  0  0  0  0  0  0  0  0  0  0  0
  140.6990   70.1700  226.5300 C   0  0  0  0  0  0  0  0  0  0  0  0
  140.9480   69.7560  227.8200 C   0  0  0  0  0  0  0  0  0  0  0  0
  140.6870   68.4410  228.1440 C   0  0  0  0  0  0  0  0  0  0  0  0
  140.9430   68.0520  229.4310 F   0  0  0  0  0  0  0  0  0  0  0  0
  140.1920   67.5850  227.1920 C   0  0  0  0  0  0  0  0  0  0  0  0
  139.9490   68.0340  225.8920 C   0  0  0  0  0  0  0  0  0  0  0  0
  140.2030   69.3450  225.5450 C   0  0  0  0  0  0  0  0  0  0  0  0
  139.9660   69.7790  224.2810 N   0  0  0  0  0  0  0  0  0  0  0  0
  139.4930   73.6030  223.2400 H   0  0  0  0  0  0  0  0  0  0  0  0
  140.3268   73.3513  220.4950 H   0  0  0  0  0  0  0  0  0  0  0  0
  138.6234   72.7993  220.5749 H   0  0  0  0  0  0  0  0  0  0  0  0
  142.0119   75.7685  221.5048 H   0  0  0  0  0  0  0  0  0  0  0  0
  141.4888   75.1260  219.9713 H   0  0  0  0  0  0  0  0  0  0  0  0
  142.3619   77.6578  220.1063 H   0  0  0  0  0  0  0  0  0  0  0  0
  140.9255   77.3495  219.1260 H   0  0  0  0  0  0  0  0  0  0  0  0
  139.9245   78.8065  220.4723 H   0  0  0  0  0  0  0  0  0  0  0  0
  141.8043   80.5293  220.5835 H   0  0  0  0  0  0  0  0  0  0  0  0
  143.0348   81.9097  222.2016 H   0  0  0  0  0  0  0  0  0  0  0  0
  142.2237   79.1239  225.2772 H   0  0  0  0  0  0  0  0  0  0  0  0
  140.9743   77.7062  223.6825 H   0  0  0  0  0  0  0  0  0  0  0  0
  140.2128   77.0784  222.9489 H   0  0  0  0  0  0  0  0  0  0  0  0
  138.7218   77.4265  222.0820 H   0  0  0  0  0  0  0  0  0  0  0  0
  140.9155   72.9366  224.6570 H   0  0  0  0  0  0  0  0  0  0  0  0
  141.3625   72.1813  226.9667 H   0  0  0  0  0  0  0  0  0  0  0  0
  141.3442   70.4551  228.5712 H   0  0  0  0  0  0  0  0  0  0  0  0
  139.9851   66.5371  227.4550 H   0  0  0  0  0  0  0  0  0  0  0  0
  139.5521   67.3371  225.1391 H   0  0  0  0  0  0  0  0  0  0  0  0
  1  2  2  0
  2  3  1  0
  3  4  1  0
  4  5  1  0
  5  6  2  0
  5  7  1  0
  7  8  1  0
  8  9  1  0
  9 10  1  0
 10 11  1  0
 11 12  2  0
 12 13  1  0
 13 14  2  0
 14 15  1  0
 15 16  2  0
 10 17  1  0
  2 18  1  0
 18 19  2  0
 19 20  1  0
 20 21  2  0
 21 22  1  0
 22 23  2  0
 23 24  1  0
 23 25  1  0
 25 26  2  0
 26 27  1  0
 27 28  2  0
 17  7  1  0
 28 18  1  0
 16 11  1  0
 27 21  1  0
  3 29  1  0
  4 30  1  0
  4 31  1  0
  8 32  1  0
  8 33  1  0
  9 34  1  0
  9 35  1  0
 10 36  1  6
 12 37  1  0
 13 38  1  0
 15 39  1  0
 16 40  1  0
 17 41  1  0
 17 42  1  0
 19 43  1  0
 20 44  1  0
 22 45  1  0
 25 46  1  0
 26 47  1  0
M  END
>  <smiles>  (11) 
O=C(NCC(=O)N1CC[C@H](c2ccncc2)C1)c1ccc2cc(F)ccc2n1

>  <score_type>  (11) 
oracle

>  <origin>  (11) 
autodockgpu

>  <m_score__min__energy>  (11) 
-8.7400000000000002

>  <m_primary>  (11) 
energy

>  <rmsd>  (11) 
3.186239139341935

>  <m_score__min__rmsd>  (11) 
3.186239139341935

>  <meeko>  (11) 
{"free_energy": -8.22, "intermolecular_energy": -9.71, "internal_energy": -0.96, "cluster_size": 42, "cluster_id": 1, "rank_in_cluster": 41}

>  <energy>  (11) 
-8.6

>  <cluster_rmsd>  (11) 
0.36

>  <cluster>  (11) 
1

$$$$

     RDKit          3D

 47 50  0  0  0  0  0  0  0  0999 V2000
  140.0900   71.0080  221.3580 O   0  0  0  0  0  0  0  0  0  0  0  0
  139.6890   71.6240  222.3940 C   0  0  0  0  0  0  0  0  0  0  0  0
  138.9290   72.8160  222.2490 N   0  0  0  0  0  0  0  0  0  0  0  0
  138.6430   73.2850  220.9100 C   0  0  0  0  0  0  0  0  0  0  0  0
  139.2250   74.6410  220.7390 C   0  0  0  0  0  0  0  0  0  0  0  0
  138.6060   75.7040  221.0010 O   0  0  0  0  0  0  0  0  0  0  0  0
  140.5560   74.7520  220.2510 N   0  0  0  0  0  0  0  0  0  0  0  0
  141.1130   75.6780  219.2840 C   0  0  0  0  0  0  0  0  0  0  0  0
  142.3870   76.0950  219.9560 C   0  0  0  0  0  0  0  0  0  0  0  0
  142.8760   74.8880  220.6430 C   0  0  2  0  0  0  0  0  0  0  0  0
  144.0340   74.2010  220.0350 C   0  0  0  0  0  0  0  0  0  0  0  0
  144.0780   73.6920  218.7730 C   0  0  0  0  0  0  0  0  0  0  0  0
  145.2040   73.0620  218.2780 C   0  0  0  0  0  0  0  0  0  0  0  0
  146.3060   72.9260  219.0250 N   0  0  0  0  0  0  0  0  0  0  0  0
  146.3180   73.4140  220.2870 C   0  0  0  0  0  0  0  0  0  0  0  0
  145.2000   74.0490  220.8020 C   0  0  0  0  0  0  0  0  0  0  0  0
  141.7100   73.9230  220.6330 C   0  0  0  0  0  0  0  0  0  0  0  0
  140.0080   71.1050  223.7250 C   0  0  0  0  0  0  0  0  0  0  0  0
  140.7190   71.8900  224.6040 C   0  0  0  0  0  0  0  0  0  0  0  0
  141.0670   71.4900  225.8780 C   0  0  0  0  0  0  0  0  0  0  0  0
  140.6720   70.2330  226.2760 C   0  0  0  0  0  0  0  0  0  0  0  0
  141.0150   69.8250  227.5460 C   0  0  0  0  0  0  0  0  0  0  0  0
  140.6240   68.5660  227.9540 C   0  0  0  0  0  0  0  0  0  0  0  0
  140.9760   68.1830  229.2190 F   0  0  0  0  0  0  0  0  0  0  0  0
  139.9140   67.7590  227.1010 C   0  0  0  0  0  0  0  0  0  0  0  0
  139.5810   68.2000  225.8180 C   0  0  0  0  0  0  0  0  0  0  0  0
  139.9610   69.4550  225.3890 C   0  0  0  0  0  0  0  0  0  0  0  0
  139.6370   69.8820  224.1420 N   0  0  0  0  0  0  0  0  0  0  0  0
  138.5800   73.3540  223.0920 H   0  0  0  0  0  0  0  0  0  0  0  0
  139.0875   72.5974  220.1754 H   0  0  0  0  0  0  0  0  0  0  0  0
  137.5548   73.3248  220.7542 H   0  0  0  0  0  0  0  0  0  0  0  0
  141.3113   75.1817  218.3226 H   0  0  0  0  0  0  0  0  0  0  0  0
  140.4459   76.5165  219.0351 H   0  0  0  0  0  0  0  0  0  0  0  0
  143.1206   76.4389  219.2119 H   0  0  0  0  0  0  0  0  0  0  0  0
  142.2283   76.9293  220.6551 H   0  0  0  0  0  0  0  0  0  0  0  0
  143.2330   75.2048  221.6341 H   0  0  0  0  0  0  0  0  0  0  0  0
  143.1914   73.7850  218.1286 H   0  0  0  0  0  0  0  0  0  0  0  0
  145.1943   72.6654  217.2520 H   0  0  0  0  0  0  0  0  0  0  0  0
  147.2202   73.3059  220.9070 H   0  0  0  0  0  0  0  0  0  0  0  0
  145.2261   74.4409  221.8295 H   0  0  0  0  0  0  0  0  0  0  0  0
  141.8741   73.1210  219.8982 H   0  0  0  0  0  0  0  0  0  0  0  0
  141.5675   73.4256  221.6037 H   0  0  0  0  0  0  0  0  0  0  0  0
  141.0271   72.8925  224.2723 H   0  0  0  0  0  0  0  0  0  0  0  0
  141.6373   72.1494  226.5487 H   0  0  0  0  0  0  0  0  0  0  0  0
  141.5850   70.4847  228.2168 H   0  0  0  0  0  0  0  0  0  0  0  0
  139.6044   66.7562  227.4303 H   0  0  0  0  0  0  0  0  0  0  0  0
  139.0118   67.5420  225.1450 H   0  0  0  0  0  0  0  0  0  0  0  0
  1  2  2  0
  2  3  1  0
  3  4  1  0
  4  5  1  0
  5  6  2  0
  5  7  1  0
  7  8  1  0
  8  9  1  0
  9 10  1  0
 10 11  1  0
 11 12  2  0
 12 13  1  0
 13 14  2  0
 14 15  1  0
 15 16  2  0
 10 17  1  0
  2 18  1  0
 18 19  2  0
 19 20  1  0
 20 21  2  0
 21 22  1  0
 22 23  2  0
 23 24  1  0
 23 25  1  0
 25 26  2  0
 26 27  1  0
 27 28  2  0
 17  7  1  0
 28 18  1  0
 16 11  1  0
 27 21  1  0
  3 29  1  0
  4 30  1  0
  4 31  1  0
  8 32  1  0
  8 33  1  0
  9 34  1  0
  9 35  1  0
 10 36  1  1
 12 37  1  0
 13 38  1  0
 15 39  1  0
 16 40  1  0
 17 41  1  0
 17 42  1  0
 19 43  1  0
 20 44  1  0
 22 45  1  0
 25 46  1  0
 26 47  1  0
M  END
>  <smiles>  (12) 
O=C(NCC(=O)N1CC[C@H](c2ccncc2)C1)c1ccc2cc(F)ccc2n1

>  <score_type>  (12) 
oracle

>  <origin>  (12) 
autodockgpu

>  <m_score__min__energy>  (12) 
-8.7400000000000002

>  <m_primary>  (12) 
energy

>  <rmsd>  (12) 
3.0103969127258723

>  <m_score__min__rmsd>  (12) 
3.0103969127258723

>  <meeko>  (12) 
{"free_energy": -8.11, "intermolecular_energy": -9.6, "internal_energy": -1.19, "cluster_size": 8, "cluster_id": 2, "rank_in_cluster": 6}

>  <energy>  (12) 
-8.6

>  <cluster_rmsd>  (12) 
0.96

>  <cluster>  (12) 
1

$$$$

     RDKit          3D

 47 50  0  0  0  0  0  0  0  0999 V2000
  140.6490   71.6150  221.2670 O   0  0  0  0  0  0  0  0  0  0  0  0
  140.0220   72.0180  222.2950 C   0  0  0  0  0  0  0  0  0  0  0  0
  139.3110   73.2470  222.2450 N   0  0  0  0  0  0  0  0  0  0  0  0
  139.3350   73.9990  221.0090 C   0  0  0  0  0  0  0  0  0  0  0  0
  140.6530   74.6710  220.8770 C   0  0  0  0  0  0  0  0  0  0  0  0
  141.7170   74.0670  220.5860 O   0  0  0  0  0  0  0  0  0  0  0  0
  140.7250   76.0750  221.0900 N   0  0  0  0  0  0  0  0  0  0  0  0
  140.4760   77.1660  220.1690 C   0  0  0  0  0  0  0  0  0  0  0  0
  139.6390   78.0890  221.0040 C   0  0  0  0  0  0  0  0  0  0  0  0
  140.1870   77.9820  222.3660 C   0  0  2  0  0  0  0  0  0  0  0  0
  140.9950   79.1220  222.8480 C   0  0  0  0  0  0  0  0  0  0  0  0
  140.5040   80.2460  223.4380 C   0  0  0  0  0  0  0  0  0  0  0  0
  141.3300   81.2700  223.8630 C   0  0  0  0  0  0  0  0  0  0  0  0
  142.6570   81.1960  223.7100 N   0  0  0  0  0  0  0  0  0  0  0  0
  143.2000   80.1000  223.1300 C   0  0  0  0  0  0  0  0  0  0  0  0
  142.3890   79.0640  222.6980 C   0  0  0  0  0  0  0  0  0  0  0  0
  141.0820   76.7610  222.3420 C   0  0  0  0  0  0  0  0  0  0  0  0
  140.0320   71.2170  223.5210 C   0  0  0  0  0  0  0  0  0  0  0  0
  139.4940   69.9500  223.5050 C   0  0  0  0  0  0  0  0  0  0  0  0
  139.4570   69.1210  224.6070 C   0  0  0  0  0  0  0  0  0  0  0  0
  139.9920   69.6030  225.7800 C   0  0  0  0  0  0  0  0  0  0  0  0
  139.9600   68.7820  226.8850 C   0  0  0  0  0  0  0  0  0  0  0  0
  140.4930   69.2570  228.0650 C   0  0  0  0  0  0  0  0  0  0  0  0
  140.4490   68.4240  229.1500 F   0  0  0  0  0  0  0  0  0  0  0  0
  141.0360   70.5160  228.1150 C   0  0  0  0  0  0  0  0  0  0  0  0
  141.0550   71.3270  226.9770 C   0  0  0  0  0  0  0  0  0  0  0  0
  140.5270   70.8730  225.7860 C   0  0  0  0  0  0  0  0  0  0  0  0
  140.5460   71.6610  224.6810 N   0  0  0  0  0  0  0  0  0  0  0  0
  138.7780   73.6120  223.0840 H   0  0  0  0  0  0  0  0  0  0  0  0
  139.1820   73.3171  220.1595 H   0  0  0  0  0  0  0  0  0  0  0  0
  138.5332   74.7520  221.0166 H   0  0  0  0  0  0  0  0  0  0  0  0
  141.4140   77.6484  219.8569 H   0  0  0  0  0  0  0  0  0  0  0  0
  139.9940   76.8549  219.2305 H   0  0  0  0  0  0  0  0  0  0  0  0
  139.7201   79.1223  220.6358 H   0  0  0  0  0  0  0  0  0  0  0  0
  138.5725   77.8220  220.9681 H   0  0  0  0  0  0  0  0  0  0  0  0
  139.3301   77.9400  223.0545 H   0  0  0  0  0  0  0  0  0  0  0  0
  139.4176   80.3426  223.5809 H   0  0  0  0  0  0  0  0  0  0  0  0
  140.8888   82.1604  224.3348 H   0  0  0  0  0  0  0  0  0  0  0  0
  144.2903   80.0320  223.0013 H   0  0  0  0  0  0  0  0  0  0  0  0
  142.8456   78.1800  222.2290 H   0  0  0  0  0  0  0  0  0  0  0  0
  142.1421   77.0546  222.3372 H   0  0  0  0  0  0  0  0  0  0  0  0
  140.9450   76.1213  223.2263 H   0  0  0  0  0  0  0  0  0  0  0  0
  139.0699   69.5778  222.5607 H   0  0  0  0  0  0  0  0  0  0  0  0
  139.0172   68.1143  224.5505 H   0  0  0  0  0  0  0  0  0  0  0  0
  139.5213   67.7749  226.8281 H   0  0  0  0  0  0  0  0  0  0  0  0
  141.4599   70.8901  229.0586 H   0  0  0  0  0  0  0  0  0  0  0  0
  141.4939   72.3342  227.0313 H   0  0  0  0  0  0  0  0  0  0  0  0
  1  2  2  0
  2  3  1  0
  3  4  1  0
  4  5  1  0
  5  6  2  0
  5  7  1  0
  7  8  1  0
  8  9  1  0
  9 10  1  0
 10 11  1  0
 11 12  2  0
 12 13  1  0
 13 14  2  0
 14 15  1  0
 15 16  2  0
 10 17  1  0
  2 18  1  0
 18 19  2  0
 19 20  1  0
 20 21  2  0
 21 22  1  0
 22 23  2  0
 23 24  1  0
 23 25  1  0
 25 26  2  0
 26 27  1  0
 27 28  2  0
 17  7  1  0
 28 18  1  0
 16 11  1  0
 27 21  1  0
  3 29  1  0
  4 30  1  0
  4 31  1  0
  8 32  1  0
  8 33  1  0
  9 34  1  0
  9 35  1  0
 10 36  1  1
 12 37  1  0
 13 38  1  0
 15 39  1  0
 16 40  1  0
 17 41  1  0
 17 42  1  0
 19 43  1  0
 20 44  1  0
 22 45  1  0
 25 46  1  0
 26 47  1  0
M  END
>  <smiles>  (13) 
O=C(NCC(=O)N1CC[C@H](c2ccncc2)C1)c1ccc2cc(F)ccc2n1

>  <score_type>  (13) 
oracle

>  <origin>  (13) 
autodockgpu

>  <m_score__min__energy>  (13) 
-8.7400000000000002

>  <m_primary>  (13) 
energy

>  <rmsd>  (13) 
2.6831281243450897

>  <m_score__min__rmsd>  (13) 
2.6831281243450897

>  <meeko>  (13) 
{"free_energy": -8.5, "intermolecular_energy": -9.99, "internal_energy": -1.01, "cluster_size": 42, "cluster_id": 1, "rank_in_cluster": 19}

>  <energy>  (13) 
-8.59

>  <cluster_rmsd>  (13) 
0.99

>  <cluster>  (13) 
1

$$$$

     RDKit          3D

 47 50  0  0  0  0  0  0  0  0999 V2000
  141.0360   72.4770  221.8060 O   0  0  0  0  0  0  0  0  0  0  0  0
  140.0380   72.3900  222.5860 C   0  0  0  0  0  0  0  0  0  0  0  0
  138.8890   73.1910  222.3450 N   0  0  0  0  0  0  0  0  0  0  0  0
  138.9050   74.0840  221.2060 C   0  0  0  0  0  0  0  0  0  0  0  0
  138.5750   75.4570  221.6650 C   0  0  0  0  0  0  0  0  0  0  0  0
  137.4150   75.8260  221.9810 O   0  0  0  0  0  0  0  0  0  0  0  0
  139.6220   76.4150  221.7540 N   0  0  0  0  0  0  0  0  0  0  0  0
  141.0020   76.3210  221.3200 C   0  0  0  0  0  0  0  0  0  0  0  0
  141.2010   77.6420  220.6390 C   0  0  0  0  0  0  0  0  0  0  0  0
  140.4230   78.6080  221.4330 C   0  0  2  0  0  0  0  0  0  0  0  0
  141.1910   79.5270  222.2990 C   0  0  0  0  0  0  0  0  0  0  0  0
  140.6640   80.5330  223.0490 C   0  0  0  0  0  0  0  0  0  0  0  0
  141.4540   81.3510  223.8350 C   0  0  0  0  0  0  0  0  0  0  0  0
  142.7810   81.1850  223.8910 N   0  0  0  0  0  0  0  0  0  0  0  0
  143.3580   80.1990  223.1660 C   0  0  0  0  0  0  0  0  0  0  0  0
  142.5840   79.3690  222.3720 C   0  0  0  0  0  0  0  0  0  0  0  0
  139.5360   77.7670  222.3270 C   0  0  0  0  0  0  0  0  0  0  0  0
  140.0750   71.4700  223.7250 C   0  0  0  0  0  0  0  0  0  0  0  0
  139.5990   70.1870  223.5730 C   0  0  0  0  0  0  0  0  0  0  0  0
  139.5910   69.2500  224.5840 C   0  0  0  0  0  0  0  0  0  0  0  0
  140.0920   69.6340  225.8070 C   0  0  0  0  0  0  0  0  0  0  0  0
  140.0880   68.7040  226.8230 C   0  0  0  0  0  0  0  0  0  0  0  0
  140.5870   69.0810  228.0530 C   0  0  0  0  0  0  0  0  0  0  0  0
  140.5740   68.1400  229.0470 F   0  0  0  0  0  0  0  0  0  0  0  0
  141.0700   70.3520  228.2370 C   0  0  0  0  0  0  0  0  0  0  0  0
  141.0600   71.2740  227.1880 C   0  0  0  0  0  0  0  0  0  0  0  0
  140.5650   70.9200  225.9490 C   0  0  0  0  0  0  0  0  0  0  0  0
  140.5570   71.8170  224.9310 N   0  0  0  0  0  0  0  0  0  0  0  0
  138.0400   73.1430  222.9770 H   0  0  0  0  0  0  0  0  0  0  0  0
  139.9046   74.0787  220.7469 H   0  0  0  0  0  0  0  0  0  0  0  0
  138.1652   73.7523  220.4626 H   0  0  0  0  0  0  0  0  0  0  0  0
  141.6837   76.2049  222.1755 H   0  0  0  0  0  0  0  0  0  0  0  0
  141.2081   75.4530  220.6765 H   0  0  0  0  0  0  0  0  0  0  0  0
  142.2662   77.9164  220.6337 H   0  0  0  0  0  0  0  0  0  0  0  0
  140.8745   77.6160  219.5889 H   0  0  0  0  0  0  0  0  0  0  0  0
  139.9060   79.2674  220.7203 H   0  0  0  0  0  0  0  0  0  0  0  0
  139.5770   80.7002  223.0291 H   0  0  0  0  0  0  0  0  0  0  0  0
  140.9840   82.1520  224.4245 H   0  0  0  0  0  0  0  0  0  0  0  0
  144.4479   80.0558  223.2074 H   0  0  0  0  0  0  0  0  0  0  0  0
  143.0691   78.5725  221.7887 H   0  0  0  0  0  0  0  0  0  0  0  0
  139.9061   77.7757  223.3628 H   0  0  0  0  0  0  0  0  0  0  0  0
  138.5027   78.1420  222.3673 H   0  0  0  0  0  0  0  0  0  0  0  0
  139.2029   69.8933  222.5897 H   0  0  0  0  0  0  0  0  0  0  0  0
  139.1996   68.2352  224.4197 H   0  0  0  0  0  0  0  0  0  0  0  0
  139.6978   67.6888  226.6584 H   0  0  0  0  0  0  0  0  0  0  0  0
  141.4684   70.6472  229.2189 H   0  0  0  0  0  0  0  0  0  0  0  0
  141.4495   72.2899  227.3504 H   0  0  0  0  0  0  0  0  0  0  0  0
  1  2  2  0
  2  3  1  0
  3  4  1  0
  4  5  1  0
  5  6  2  0
  5  7  1  0
  7  8  1  0
  8  9  1  0
  9 10  1  0
 10 11  1  0
 11 12  2  0
 12 13  1  0
 13 14  2  0
 14 15  1  0
 15 16  2  0
 10 17  1  0
  2 18  1  0
 18 19  2  0
 19 20  1  0
 20 21  2  0
 21 22  1  0
 22 23  2  0
 23 24  1  0
 23 25  1  0
 25 26  2  0
 26 27  1  0
 27 28  2  0
 17  7  1  0
 28 18  1  0
 16 11  1  0
 27 21  1  0
  3 29  1  0
  4 30  1  0
  4 31  1  0
  8 32  1  0
  8 33  1  0
  9 34  1  0
  9 35  1  0
 10 36  1  6
 12 37  1  0
 13 38  1  0
 15 39  1  0
 16 40  1  0
 17 41  1  0
 17 42  1  0
 19 43  1  0
 20 44  1  0
 22 45  1  0
 25 46  1  0
 26 47  1  0
M  END
>  <smiles>  (14) 
O=C(NCC(=O)N1CC[C@H](c2ccncc2)C1)c1ccc2cc(F)ccc2n1

>  <score_type>  (14) 
oracle

>  <origin>  (14) 
autodockgpu

>  <m_score__min__energy>  (14) 
-8.7400000000000002

>  <m_primary>  (14) 
energy

>  <rmsd>  (14) 
2.598553118315096

>  <m_score__min__rmsd>  (14) 
2.598553118315096

>  <meeko>  (14) 
{"free_energy": -8.64, "intermolecular_energy": -10.13, "internal_energy": -1.06, "cluster_size": 42, "cluster_id": 1, "rank_in_cluster": 7}

>  <energy>  (14) 
-8.58

>  <cluster_rmsd>  (14) 
1.02

>  <cluster>  (14) 
1

$$$$

     RDKit          3D

 47 50  0  0  0  0  0  0  0  0999 V2000
  139.3150   70.9030  221.5140 O   0  0  0  0  0  0  0  0  0  0  0  0
  139.5720   71.4740  222.6190 C   0  0  0  0  0  0  0  0  0  0  0  0
  139.7230   72.8860  222.6590 N   0  0  0  0  0  0  0  0  0  0  0  0
  139.5760   73.6240  221.4230 C   0  0  0  0  0  0  0  0  0  0  0  0
  140.9240   73.9850  220.9130 C   0  0  0  0  0  0  0  0  0  0  0  0
  141.7200   73.1570  220.4020 O   0  0  0  0  0  0  0  0  0  0  0  0
  141.3460   75.3400  221.0040 N   0  0  0  0  0  0  0  0  0  0  0  0
  142.2400   76.0910  220.1460 C   0  0  0  0  0  0  0  0  0  0  0  0
  141.4910   77.3790  219.9720 C   0  0  0  0  0  0  0  0  0  0  0  0
  140.8420   77.6270  221.2700 C   0  0  2  0  0  0  0  0  0  0  0  0
  141.4300   78.6870  222.1150 C   0  0  0  0  0  0  0  0  0  0  0  0
  141.6090   78.6170  223.4620 C   0  0  0  0  0  0  0  0  0  0  0  0
  142.1690   79.6560  224.1810 C   0  0  0  0  0  0  0  0  0  0  0  0
  142.5630   80.7830  223.5760 N   0  0  0  0  0  0  0  0  0  0  0  0
  142.4090   80.9060  222.2370 C   0  0  0  0  0  0  0  0  0  0  0  0
  141.8500   79.8770  221.4990 C   0  0  0  0  0  0  0  0  0  0  0  0
  140.9520   76.3210  222.0270 C   0  0  0  0  0  0  0  0  0  0  0  0
  139.7110   70.6780  223.8400 C   0  0  0  0  0  0  0  0  0  0  0  0
  139.2290   69.3890  223.8650 C   0  0  0  0  0  0  0  0  0  0  0  0
  139.3120   68.5630  224.9670 C   0  0  0  0  0  0  0  0  0  0  0  0
  139.9140   69.0710  226.0950 C   0  0  0  0  0  0  0  0  0  0  0  0
  140.0030   68.2530  227.1990 C   0  0  0  0  0  0  0  0  0  0  0  0
  140.6040   68.7550  228.3350 C   0  0  0  0  0  0  0  0  0  0  0  0
  140.6800   67.9250  229.4200 F   0  0  0  0  0  0  0  0  0  0  0  0
  141.0950   70.0370  228.3430 C   0  0  0  0  0  0  0  0  0  0  0  0
  140.9910   70.8430  227.2070 C   0  0  0  0  0  0  0  0  0  0  0  0
  140.3930   70.3630  226.0600 C   0  0  0  0  0  0  0  0  0  0  0  0
  140.2930   71.1470  224.9570 N   0  0  0  0  0  0  0  0  0  0  0  0
  139.9380   73.3930  223.5640 H   0  0  0  0  0  0  0  0  0  0  0  0
  139.0554   73.0009  220.6809 H   0  0  0  0  0  0  0  0  0  0  0  0
  138.9893   74.5370  221.6024 H   0  0  0  0  0  0  0  0  0  0  0  0
  143.2139   76.2566  220.6298 H   0  0  0  0  0  0  0  0  0  0  0  0
  142.4786   75.5838  219.1995 H   0  0  0  0  0  0  0  0  0  0  0  0
  142.1832   78.1972  219.7243 H   0  0  0  0  0  0  0  0  0  0  0  0
  140.7605   77.3220  219.1515 H   0  0  0  0  0  0  0  0  0  0  0  0
  139.8217   77.9785  221.0569 H   0  0  0  0  0  0  0  0  0  0  0  0
  141.2986   77.7060  223.9948 H   0  0  0  0  0  0  0  0  0  0  0  0
  142.2931   79.5550  225.2693 H   0  0  0  0  0  0  0  0  0  0  0  0
  142.7299   81.8291  221.7322 H   0  0  0  0  0  0  0  0  0  0  0  0
  141.7328   79.9934  220.4115 H   0  0  0  0  0  0  0  0  0  0  0  0
  141.7163   76.3905  222.8150 H   0  0  0  0  0  0  0  0  0  0  0  0
  140.0138   76.0477  222.5321 H   0  0  0  0  0  0  0  0  0  0  0  0
  138.7510   68.9955  222.9558 H   0  0  0  0  0  0  0  0  0  0  0  0
  138.9125   67.5384  224.9446 H   0  0  0  0  0  0  0  0  0  0  0  0
  139.6059   67.2274  227.1759 H   0  0  0  0  0  0  0  0  0  0  0  0
  141.5739   70.4324  229.2509 H   0  0  0  0  0  0  0  0  0  0  0  0
  141.3889   71.8683  227.2270 H   0  0  0  0  0  0  0  0  0  0  0  0
  1  2  2  0
  2  3  1  0
  3  4  1  0
  4  5  1  0
  5  6  2  0
  5  7  1  0
  7  8  1  0
  8  9  1  0
  9 10  1  0
 10 11  1  0
 11 12  2  0
 12 13  1  0
 13 14  2  0
 14 15  1  0
 15 16  2  0
 10 17  1  0
  2 18  1  0
 18 19  2  0
 19 20  1  0
 20 21  2  0
 21 22  1  0
 22 23  2  0
 23 24  1  0
 23 25  1  0
 25 26  2  0
 26 27  1  0
 27 28  2  0
 17  7  1  0
 28 18  1  0
 16 11  1  0
 27 21  1  0
  3 29  1  0
  4 30  1  0
  4 31  1  0
  8 32  1  0
  8 33  1  0
  9 34  1  0
  9 35  1  0
 10 36  1  6
 12 37  1  0
 13 38  1  0
 15 39  1  0
 16 40  1  0
 17 41  1  0
 17 42  1  0
 19 43  1  0
 20 44  1  0
 22 45  1  0
 25 46  1  0
 26 47  1  0
M  END
>  <smiles>  (15) 
O=C(NCC(=O)N1CC[C@H](c2ccncc2)C1)c1ccc2cc(F)ccc2n1

>  <score_type>  (15) 
oracle

>  <origin>  (15) 
autodockgpu

>  <m_score__min__energy>  (15) 
-8.7400000000000002

>  <m_primary>  (15) 
energy

>  <rmsd>  (15) 
2.281072306275759

>  <m_score__min__rmsd>  (15) 
2.281072306275759

>  <meeko>  (15) 
{"free_energy": -8.32, "intermolecular_energy": -9.82, "internal_energy": -1.12, "cluster_size": 42, "cluster_id": 1, "rank_in_cluster": 31}

>  <energy>  (15) 
-8.57

>  <cluster_rmsd>  (15) 
0.85

>  <cluster>  (15) 
1

$$$$

     RDKit          3D

 47 50  0  0  0  0  0  0  0  0999 V2000
  140.2610   70.8870  221.5000 O   0  0  0  0  0  0  0  0  0  0  0  0
  139.9210   71.5890  222.5020 C   0  0  0  0  0  0  0  0  0  0  0  0
  139.3490   72.8730  222.2970 N   0  0  0  0  0  0  0  0  0  0  0  0
  139.1750   73.3340  220.9360 C   0  0  0  0  0  0  0  0  0  0  0  0
  138.8520   74.7840  220.9540 C   0  0  0  0  0  0  0  0  0  0  0  0
  137.7050   75.2450  220.7290 O   0  0  0  0  0  0  0  0  0  0  0  0
  139.8940   75.7080  221.2410 N   0  0  0  0  0  0  0  0  0  0  0  0
  141.3300   75.5490  221.1290 C   0  0  0  0  0  0  0  0  0  0  0  0
  141.7310   76.8330  220.4640 C   0  0  0  0  0  0  0  0  0  0  0  0
  140.8380   77.8580  221.0300 C   0  0  2  0  0  0  0  0  0  0  0  0
  141.4340   78.7880  222.0120 C   0  0  0  0  0  0  0  0  0  0  0  0
  141.5090   78.5780  223.3550 C   0  0  0  0  0  0  0  0  0  0  0  0
  142.0840   79.5010  224.2080 C   0  0  0  0  0  0  0  0  0  0  0  0
  142.5950   80.6480  223.7450 N   0  0  0  0  0  0  0  0  0  0  0  0
  142.5470   80.9070  222.4170 C   0  0  0  0  0  0  0  0  0  0  0  0
  141.9760   79.9960  221.5460 C   0  0  0  0  0  0  0  0  0  0  0  0
  139.7410   77.0870  221.7320 C   0  0  0  0  0  0  0  0  0  0  0  0
  140.1190   71.0740  223.8590 C   0  0  0  0  0  0  0  0  0  0  0  0
  140.6980   71.8820  224.8110 C   0  0  0  0  0  0  0  0  0  0  0  0
  140.9260   71.4870  226.1130 C   0  0  0  0  0  0  0  0  0  0  0  0
  140.5460   70.2120  226.4630 C   0  0  0  0  0  0  0  0  0  0  0  0
  140.7690   69.8100  227.7610 C   0  0  0  0  0  0  0  0  0  0  0  0
  140.3910   68.5330  228.1210 C   0  0  0  0  0  0  0  0  0  0  0  0
  140.6230   68.1550  229.4160 F   0  0  0  0  0  0  0  0  0  0  0  0
  139.8110   67.7020  227.1960 C   0  0  0  0  0  0  0  0  0  0  0  0
  139.5980   68.1380  225.8860 C   0  0  0  0  0  0  0  0  0  0  0  0
  139.9670   69.4110  225.5030 C   0  0  0  0  0  0  0  0  0  0  0  0
  139.7590   69.8330  224.2310 N   0  0  0  0  0  0  0  0  0  0  0  0
  139.0550   73.4840  223.1110 H   0  0  0  0  0  0  0  0  0  0  0  0
  140.1036   73.1700  220.3695 H   0  0  0  0  0  0  0  0  0  0  0  0
  138.3565   72.7769  220.4567 H   0  0  0  0  0  0  0  0  0  0  0  0
  141.7999   75.4468  222.1183 H   0  0  0  0  0  0  0  0  0  0  0  0
  141.6364   74.6477  220.5778 H   0  0  0  0  0  0  0  0  0  0  0  0
  142.7815   77.0711  220.6873 H   0  0  0  0  0  0  0  0  0  0  0  0
  141.6446   76.7726  219.3691 H   0  0  0  0  0  0  0  0  0  0  0  0
  140.5193   78.5027  220.1977 H   0  0  0  0  0  0  0  0  0  0  0  0
  141.1000   77.6465  223.7734 H   0  0  0  0  0  0  0  0  0  0  0  0
  142.1223   79.2891  225.2867 H   0  0  0  0  0  0  0  0  0  0  0  0
  142.9645   81.8474  222.0281 H   0  0  0  0  0  0  0  0  0  0  0  0
  141.9463   80.2224  220.4700 H   0  0  0  0  0  0  0  0  0  0  0  0
  139.8724   77.1288  222.8233 H   0  0  0  0  0  0  0  0  0  0  0  0
  138.7414   77.4976  221.5268 H   0  0  0  0  0  0  0  0  0  0  0  0
  140.9955   72.8995  224.5173 H   0  0  0  0  0  0  0  0  0  0  0  0
  141.3932   72.1648  226.8426 H   0  0  0  0  0  0  0  0  0  0  0  0
  141.2356   70.4882  228.4906 H   0  0  0  0  0  0  0  0  0  0  0  0
  139.5114   66.6847  227.4882 H   0  0  0  0  0  0  0  0  0  0  0  0
  139.1326   67.4612  225.1543 H   0  0  0  0  0  0  0  0  0  0  0  0
  1  2  2  0
  2  3  1  0
  3  4  1  0
  4  5  1  0
  5  6  2  0
  5  7  1  0
  7  8  1  0
  8  9  1  0
  9 10  1  0
 10 11  1  0
 11 12  2  0
 12 13  1  0
 13 14  2  0
 14 15  1  0
 15 16  2  0
 10 17  1  0
  2 18  1  0
 18 19  2  0
 19 20  1  0
 20 21  2  0
 21 22  1  0
 22 23  2  0
 23 24  1  0
 23 25  1  0
 25 26  2  0
 26 27  1  0
 27 28  2  0
 17  7  1  0
 28 18  1  0
 16 11  1  0
 27 21  1  0
  3 29  1  0
  4 30  1  0
  4 31  1  0
  8 32  1  0
  8 33  1  0
  9 34  1  0
  9 35  1  0
 10 36  1  6
 12 37  1  0
 13 38  1  0
 15 39  1  0
 16 40  1  0
 17 41  1  0
 17 42  1  0
 19 43  1  0
 20 44  1  0
 22 45  1  0
 25 46  1  0
 26 47  1  0
M  END
>  <smiles>  (16) 
O=C(NCC(=O)N1CC[C@H](c2ccncc2)C1)c1ccc2cc(F)ccc2n1

>  <score_type>  (16) 
oracle

>  <origin>  (16) 
autodockgpu

>  <m_score__min__energy>  (16) 
-8.7400000000000002

>  <m_primary>  (16) 
energy

>  <rmsd>  (16) 
3.1593848582121304

>  <m_score__min__rmsd>  (16) 
3.1593848582121304

>  <meeko>  (16) 
{"free_energy": -8.32, "intermolecular_energy": -9.81, "internal_energy": -0.99, "cluster_size": 42, "cluster_id": 1, "rank_in_cluster": 33}

>  <energy>  (16) 
-8.57

>  <cluster_rmsd>  (16) 
0.35

>  <cluster>  (16) 
1

$$$$

     RDKit          3D

 47 50  0  0  0  0  0  0  0  0999 V2000
  140.3960   72.0250  221.3100 O   0  0  0  0  0  0  0  0  0  0  0  0
  139.6370   72.2060  222.3110 C   0  0  0  0  0  0  0  0  0  0  0  0
  138.6280   73.2060  222.2530 N   0  0  0  0  0  0  0  0  0  0  0  0
  138.5080   73.9860  221.0400 C   0  0  0  0  0  0  0  0  0  0  0  0
  139.5110   75.0810  221.0700 C   0  0  0  0  0  0  0  0  0  0  0  0
  139.3310   76.1770  221.6600 O   0  0  0  0  0  0  0  0  0  0  0  0
  140.7480   74.8880  220.3950 N   0  0  0  0  0  0  0  0  0  0  0  0
  141.0630   75.0150  218.9860 C   0  0  0  0  0  0  0  0  0  0  0  0
  142.3490   75.7870  219.0270 C   0  0  0  0  0  0  0  0  0  0  0  0
  143.0640   75.2860  220.2120 C   0  0  2  0  0  0  0  0  0  0  0  0
  144.2150   74.3920  219.9650 C   0  0  0  0  0  0  0  0  0  0  0  0
  145.2480   74.1770  220.8240 C   0  0  0  0  0  0  0  0  0  0  0  0
  146.2890   73.3210  220.5170 C   0  0  0  0  0  0  0  0  0  0  0  0
  146.3230   72.6630  219.3520 N   0  0  0  0  0  0  0  0  0  0  0  0
  145.3200   72.8390  218.4600 C   0  0  0  0  0  0  0  0  0  0  0  0
  144.2680   73.6920  218.7490 C   0  0  0  0  0  0  0  0  0  0  0  0
  142.0340   74.5040  220.9990 C   0  0  0  0  0  0  0  0  0  0  0  0
  139.8010   71.3880  223.5140 C   0  0  0  0  0  0  0  0  0  0  0  0
  139.4340   70.0620  223.4850 C   0  0  0  0  0  0  0  0  0  0  0  0
  139.5510   69.2120  224.5660 C   0  0  0  0  0  0  0  0  0  0  0  0
  140.0670   69.7360  225.7290 C   0  0  0  0  0  0  0  0  0  0  0  0
  140.1870   68.8950  226.8130 C   0  0  0  0  0  0  0  0  0  0  0  0
  140.7020   69.4110  227.9840 C   0  0  0  0  0  0  0  0  0  0  0  0
  140.8130   68.5570  229.0480 F   0  0  0  0  0  0  0  0  0  0  0  0
  141.0780   70.7300  228.0460 C   0  0  0  0  0  0  0  0  0  0  0  0
  140.9440   71.5590  226.9300 C   0  0  0  0  0  0  0  0  0  0  0  0
  140.4310   71.0650  225.7480 C   0  0  0  0  0  0  0  0  0  0  0  0
  140.3010   71.8710  224.6650 N   0  0  0  0  0  0  0  0  0  0  0  0
  137.9780   73.3820  223.0710 H   0  0  0  0  0  0  0  0  0  0  0  0
  138.6908   73.3418  220.1673 H   0  0  0  0  0  0  0  0  0  0  0  0
  137.4956   74.4102  220.9687 H   0  0  0  0  0  0  0  0  0  0  0  0
  141.2020   74.0301  218.5164 H   0  0  0  0  0  0  0  0  0  0  0  0
  140.2717   75.4989  218.3946 H   0  0  0  0  0  0  0  0  0  0  0  0
  142.9375   75.6042  218.1158 H   0  0  0  0  0  0  0  0  0  0  0  0
  142.1750   76.8718  219.0807 H   0  0  0  0  0  0  0  0  0  0  0  0
  143.4980   76.1607  220.7186 H   0  0  0  0  0  0  0  0  0  0  0  0
  145.2549   74.7000  221.7917 H   0  0  0  0  0  0  0  0  0  0  0  0
  147.1034   73.1782  221.2425 H   0  0  0  0  0  0  0  0  0  0  0  0
  145.3407   72.3015  217.5005 H   0  0  0  0  0  0  0  0  0  0  0  0
  143.4605   73.8233  218.0137 H   0  0  0  0  0  0  0  0  0  0  0  0
  142.2048   73.4221  220.8974 H   0  0  0  0  0  0  0  0  0  0  0  0
  142.0742   74.7211  222.0766 H   0  0  0  0  0  0  0  0  0  0  0  0
  139.0245   69.6569  222.5479 H   0  0  0  0  0  0  0  0  0  0  0  0
  139.2440   68.1577  224.5005 H   0  0  0  0  0  0  0  0  0  0  0  0
  139.8805   67.8406  226.7468 H   0  0  0  0  0  0  0  0  0  0  0  0
  141.4880   71.1371  228.9820 H   0  0  0  0  0  0  0  0  0  0  0  0
  141.2497   72.6137  226.9937 H   0  0  0  0  0  0  0  0  0  0  0  0
  1  2  2  0
  2  3  1  0
  3  4  1  0
  4  5  1  0
  5  6  2  0
  5  7  1  0
  7  8  1  0
  8  9  1  0
  9 10  1  0
 10 11  1  0
 11 12  2  0
 12 13  1  0
 13 14  2  0
 14 15  1  0
 15 16  2  0
 10 17  1  0
  2 18  1  0
 18 19  2  0
 19 20  1  0
 20 21  2  0
 21 22  1  0
 22 23  2  0
 23 24  1  0
 23 25  1  0
 25 26  2  0
 26 27  1  0
 27 28  2  0
 17  7  1  0
 28 18  1  0
 16 11  1  0
 27 21  1  0
  3 29  1  0
  4 30  1  0
  4 31  1  0
  8 32  1  0
  8 33  1  0
  9 34  1  0
  9 35  1  0
 10 36  1  1
 12 37  1  0
 13 38  1  0
 15 39  1  0
 16 40  1  0
 17 41  1  0
 17 42  1  0
 19 43  1  0
 20 44  1  0
 22 45  1  0
 25 46  1  0
 26 47  1  0
M  END
>  <smiles>  (17) 
O=C(NCC(=O)N1CC[C@H](c2ccncc2)C1)c1ccc2cc(F)ccc2n1

>  <score_type>  (17) 
oracle

>  <origin>  (17) 
autodockgpu

>  <m_score__min__energy>  (17) 
-8.7400000000000002

>  <m_primary>  (17) 
energy

>  <rmsd>  (17) 
2.0940671607313464

>  <m_score__min__rmsd>  (17) 
2.0940671607313464

>  <meeko>  (17) 
{"free_energy": -8.21, "intermolecular_energy": -9.7, "internal_energy": -1.23, "cluster_size": 8, "cluster_id": 2, "rank_in_cluster": 4}

>  <energy>  (17) 
-8.51

>  <cluster_rmsd>  (17) 
0.25

>  <cluster>  (17) 
1

$$$$

     RDKit          3D

 47 50  0  0  0  0  0  0  0  0999 V2000
  139.6940   71.3430  221.1450 O   0  0  0  0  0  0  0  0  0  0  0  0
  139.6990   71.9190  222.2760 C   0  0  0  0  0  0  0  0  0  0  0  0
  139.5790   73.3340  222.3410 N   0  0  0  0  0  0  0  0  0  0  0  0
  139.4570   74.0670  221.1000 C   0  0  0  0  0  0  0  0  0  0  0  0
  140.7490   74.7390  220.8070 C   0  0  0  0  0  0  0  0  0  0  0  0
  141.7720   74.1350  220.3940 O   0  0  0  0  0  0  0  0  0  0  0  0
  140.8440   76.1440  221.0030 N   0  0  0  0  0  0  0  0  0  0  0  0
  140.7450   77.2230  220.0400 C   0  0  0  0  0  0  0  0  0  0  0  0
  139.8470   78.1900  220.7520 C   0  0  0  0  0  0  0  0  0  0  0  0
  140.2230   78.0950  222.1720 C   0  0  2  0  0  0  0  0  0  0  0  0
  141.0070   79.2180  222.7270 C   0  0  0  0  0  0  0  0  0  0  0  0
  140.4900   80.3040  223.3650 C   0  0  0  0  0  0  0  0  0  0  0  0
  141.2940   81.3140  223.8580 C   0  0  0  0  0  0  0  0  0  0  0  0
  142.6250   81.2660  223.7270 N   0  0  0  0  0  0  0  0  0  0  0  0
  143.1920   80.2080  223.1010 C   0  0  0  0  0  0  0  0  0  0  0  0
  142.4040   79.1860  222.6010 C   0  0  0  0  0  0  0  0  0  0  0  0
  141.0720   76.8460  222.2770 C   0  0  0  0  0  0  0  0  0  0  0  0
  139.8250   71.1290  223.5020 C   0  0  0  0  0  0  0  0  0  0  0  0
  139.3940   69.8210  223.5110 C   0  0  0  0  0  0  0  0  0  0  0  0
  139.4710   68.9980  224.6150 C   0  0  0  0  0  0  0  0  0  0  0  0
  140.0110   69.5290  225.7640 C   0  0  0  0  0  0  0  0  0  0  0  0
  140.0920   68.7140  226.8710 C   0  0  0  0  0  0  0  0  0  0  0  0
  140.6320   69.2380  228.0270 C   0  0  0  0  0  0  0  0  0  0  0  0
  140.7020   68.4100  229.1150 F   0  0  0  0  0  0  0  0  0  0  0  0
  141.0710   70.5380  228.0520 C   0  0  0  0  0  0  0  0  0  0  0  0
  140.9760   71.3410  226.9130 C   0  0  0  0  0  0  0  0  0  0  0  0
  140.4400   70.8390  225.7450 C   0  0  0  0  0  0  0  0  0  0  0  0
  140.3480   71.6200  224.6400 N   0  0  0  0  0  0  0  0  0  0  0  0
  139.5790   73.8460  223.2690 H   0  0  0  0  0  0  0  0  0  0  0  0
  139.2091   73.3722  220.2840 H   0  0  0  0  0  0  0  0  0  0  0  0
  138.6587   74.8185  221.1889 H   0  0  0  0  0  0  0  0  0  0  0  0
  141.7298   77.6680  219.8347 H   0  0  0  0  0  0  0  0  0  0  0  0
  140.3682   76.9078  219.0558 H   0  0  0  0  0  0  0  0  0  0  0  0
  140.0077   79.2120  220.3783 H   0  0  0  0  0  0  0  0  0  0  0  0
  138.7840   77.9566  220.5925 H   0  0  0  0  0  0  0  0  0  0  0  0
  139.2889   78.0956  222.7528 H   0  0  0  0  0  0  0  0  0  0  0  0
  139.4000   80.3797  223.4918 H   0  0  0  0  0  0  0  0  0  0  0  0
  140.8318   82.1726  224.3671 H   0  0  0  0  0  0  0  0  0  0  0  0
  144.2853   80.1604  222.9891 H   0  0  0  0  0  0  0  0  0  0  0  0
  142.8815   78.3335  222.0958 H   0  0  0  0  0  0  0  0  0  0  0  0
  142.1345   77.1056  222.3943 H   0  0  0  0  0  0  0  0  0  0  0  0
  140.8083   76.2303  223.1496 H   0  0  0  0  0  0  0  0  0  0  0  0
  138.9642   69.4096  222.5858 H   0  0  0  0  0  0  0  0  0  0  0  0
  139.1147   67.9579  224.5785 H   0  0  0  0  0  0  0  0  0  0  0  0
  139.7359   67.6739  226.8344 H   0  0  0  0  0  0  0  0  0  0  0  0
  141.5011   70.9510  228.9764 H   0  0  0  0  0  0  0  0  0  0  0  0
  141.3312   72.3815  226.9475 H   0  0  0  0  0  0  0  0  0  0  0  0
  1  2  2  0
  2  3  1  0
  3  4  1  0
  4  5  1  0
  5  6  2  0
  5  7  1  0
  7  8  1  0
  8  9  1  0
  9 10  1  0
 10 11  1  0
 11 12  2  0
 12 13  1  0
 13 14  2  0
 14 15  1  0
 15 16  2  0
 10 17  1  0
  2 18  1  0
 18 19  2  0
 19 20  1  0
 20 21  2  0
 21 22  1  0
 22 23  2  0
 23 24  1  0
 23 25  1  0
 25 26  2  0
 26 27  1  0
 27 28  2  0
 17  7  1  0
 28 18  1  0
 16 11  1  0
 27 21  1  0
  3 29  1  0
  4 30  1  0
  4 31  1  0
  8 32  1  0
  8 33  1  0
  9 34  1  0
  9 35  1  0
 10 36  1  1
 12 37  1  0
 13 38  1  0
 15 39  1  0
 16 40  1  0
 17 41  1  0
 17 42  1  0
 19 43  1  0
 20 44  1  0
 22 45  1  0
 25 46  1  0
 26 47  1  0
M  END
>  <smiles>  (18) 
O=C(NCC(=O)N1CC[C@H](c2ccncc2)C1)c1ccc2cc(F)ccc2n1

>  <score_type>  (18) 
oracle

>  <origin>  (18) 
autodockgpu

>  <m_score__min__energy>  (18) 
-8.7400000000000002

>  <m_primary>  (18) 
energy

>  <rmsd>  (18) 
2.6143308171182476

>  <m_score__min__rmsd>  (18) 
2.6143308171182476

>  <meeko>  (18) 
{"free_energy": -8.32, "intermolecular_energy": -9.82, "internal_energy": -1.11, "cluster_size": 42, "cluster_id": 1, "rank_in_cluster": 32}

>  <energy>  (18) 
-8.51

>  <cluster_rmsd>  (18) 
0.88

>  <cluster>  (18) 
1

$$$$

     RDKit          3D

 47 50  0  0  0  0  0  0  0  0999 V2000
  140.6180   71.7640  221.1520 O   0  0  0  0  0  0  0  0  0  0  0  0
  140.1480   72.2530  222.2250 C   0  0  0  0  0  0  0  0  0  0  0  0
  139.6520   73.5850  222.2280 N   0  0  0  0  0  0  0  0  0  0  0  0
  139.7070   74.3380  220.9930 C   0  0  0  0  0  0  0  0  0  0  0  0
  141.1080   74.7670  220.7500 C   0  0  0  0  0  0  0  0  0  0  0  0
  142.0240   73.9850  220.3880 O   0  0  0  0  0  0  0  0  0  0  0  0
  141.4410   76.1360  220.9350 N   0  0  0  0  0  0  0  0  0  0  0  0
  142.2060   77.0270  220.0850 C   0  0  0  0  0  0  0  0  0  0  0  0
  141.3590   78.2640  220.0930 C   0  0  0  0  0  0  0  0  0  0  0  0
  140.8060   78.3460  221.4550 C   0  0  2  0  0  0  0  0  0  0  0  0
  141.3890   79.3690  222.3480 C   0  0  0  0  0  0  0  0  0  0  0  0
  142.7120   79.5000  222.6430 C   0  0  0  0  0  0  0  0  0  0  0  0
  143.1780   80.4880  223.4900 C   0  0  0  0  0  0  0  0  0  0  0  0
  142.3400   81.3630  224.0600 N   0  0  0  0  0  0  0  0  0  0  0  0
  141.0150   81.2790  223.8000 C   0  0  0  0  0  0  0  0  0  0  0  0
  140.5280   80.2970  222.9540 C   0  0  0  0  0  0  0  0  0  0  0  0
  141.0690   76.9900  222.0750 C   0  0  0  0  0  0  0  0  0  0  0  0
  140.1170   71.4480  223.4470 C   0  0  0  0  0  0  0  0  0  0  0  0
  139.5680   70.1860  223.4120 C   0  0  0  0  0  0  0  0  0  0  0  0
  139.4930   69.3540  224.5090 C   0  0  0  0  0  0  0  0  0  0  0  0
  140.0020   69.8260  225.6970 C   0  0  0  0  0  0  0  0  0  0  0  0
  139.9320   69.0010  226.7980 C   0  0  0  0  0  0  0  0  0  0  0  0
  140.4380   69.4660  227.9940 C   0  0  0  0  0  0  0  0  0  0  0  0
  140.3570   68.6300  229.0740 F   0  0  0  0  0  0  0  0  0  0  0  0
  140.9920   70.7200  228.0630 C   0  0  0  0  0  0  0  0  0  0  0  0
  141.0490   71.5350  226.9290 C   0  0  0  0  0  0  0  0  0  0  0  0
  140.5490   71.0900  225.7230 C   0  0  0  0  0  0  0  0  0  0  0  0
  140.6050   71.8820  224.6220 N   0  0  0  0  0  0  0  0  0  0  0  0
  139.2540   74.0240  223.1060 H   0  0  0  0  0  0  0  0  0  0  0  0
  139.3652   73.7059  220.1602 H   0  0  0  0  0  0  0  0  0  0  0  0
  139.0555   75.2212  221.0670 H   0  0  0  0  0  0  0  0  0  0  0  0
  143.2036   77.2224  220.5052 H   0  0  0  0  0  0  0  0  0  0  0  0
  142.3979   76.6259  219.0789 H   0  0  0  0  0  0  0  0  0  0  0  0
  141.9702   79.1512  219.8711 H   0  0  0  0  0  0  0  0  0  0  0  0
  140.5674   78.2245  219.3302 H   0  0  0  0  0  0  0  0  0  0  0  0
  139.7496   78.6360  221.3557 H   0  0  0  0  0  0  0  0  0  0  0  0
  143.4310   78.7989  222.1940 H   0  0  0  0  0  0  0  0  0  0  0  0
  144.2557   80.5566  223.6993 H   0  0  0  0  0  0  0  0  0  0  0  0
  140.3204   81.9951  224.2635 H   0  0  0  0  0  0  0  0  0  0  0  0
  139.4478   80.2433  222.7534 H   0  0  0  0  0  0  0  0  0  0  0  0
  141.8910   77.0473  222.8037 H   0  0  0  0  0  0  0  0  0  0  0  0
  140.1983   76.6026  222.6244 H   0  0  0  0  0  0  0  0  0  0  0  0
  139.1666   69.8209  222.4551 H   0  0  0  0  0  0  0  0  0  0  0  0
  139.0439   68.3524  224.4372 H   0  0  0  0  0  0  0  0  0  0  0  0
  139.4848   67.9987  226.7254 H   0  0  0  0  0  0  0  0  0  0  0  0
  141.3945   71.0866  229.0188 H   0  0  0  0  0  0  0  0  0  0  0  0
  141.4955   72.5379  226.9987 H   0  0  0  0  0  0  0  0  0  0  0  0
  1  2  2  0
  2  3  1  0
  3  4  1  0
  4  5  1  0
  5  6  2  0
  5  7  1  0
  7  8  1  0
  8  9  1  0
  9 10  1  0
 10 11  1  0
 11 12  2  0
 12 13  1  0
 13 14  2  0
 14 15  1  0
 15 16  2  0
 10 17  1  0
  2 18  1  0
 18 19  2  0
 19 20  1  0
 20 21  2  0
 21 22  1  0
 22 23  2  0
 23 24  1  0
 23 25  1  0
 25 26  2  0
 26 27  1  0
 27 28  2  0
 17  7  1  0
 28 18  1  0
 16 11  1  0
 27 21  1  0
  3 29  1  0
  4 30  1  0
  4 31  1  0
  8 32  1  0
  8 33  1  0
  9 34  1  0
  9 35  1  0
 10 36  1  6
 12 37  1  0
 13 38  1  0
 15 39  1  0
 16 40  1  0
 17 41  1  0
 17 42  1  0
 19 43  1  0
 20 44  1  0
 22 45  1  0
 25 46  1  0
 26 47  1  0
M  END
>  <smiles>  (19) 
O=C(NCC(=O)N1CC[C@H](c2ccncc2)C1)c1ccc2cc(F)ccc2n1

>  <score_type>  (19) 
oracle

>  <origin>  (19) 
autodockgpu

>  <m_score__min__energy>  (19) 
-8.7400000000000002

>  <m_primary>  (19) 
energy

>  <rmsd>  (19) 
2.511076930520656

>  <m_score__min__rmsd>  (19) 
2.511076930520656

>  <meeko>  (19) 
{"free_energy": -8.69, "intermolecular_energy": -10.19, "internal_energy": -1.01, "cluster_size": 42, "cluster_id": 1, "rank_in_cluster": 4}

>  <energy>  (19) 
-8.5

>  <cluster_rmsd>  (19) 
0.82

>  <cluster>  (19) 
1

$$$$

     RDKit          3D

 47 50  0  0  0  0  0  0  0  0999 V2000
  139.8430   70.9370  221.3470 O   0  0  0  0  0  0  0  0  0  0  0  0
  139.6230   71.6350  222.3840 C   0  0  0  0  0  0  0  0  0  0  0  0
  139.0470   72.9270  222.2490 N   0  0  0  0  0  0  0  0  0  0  0  0
  138.7320   73.3990  220.9180 C   0  0  0  0  0  0  0  0  0  0  0  0
  139.8190   74.2990  220.4550 C   0  0  0  0  0  0  0  0  0  0  0  0
  140.6800   73.9710  219.5990 O   0  0  0  0  0  0  0  0  0  0  0  0
  139.8990   75.6070  221.0060 N   0  0  0  0  0  0  0  0  0  0  0  0
  138.8480   76.5750  221.2510 C   0  0  0  0  0  0  0  0  0  0  0  0
  139.1840   77.0530  222.6320 C   0  0  0  0  0  0  0  0  0  0  0  0
  140.6550   77.0790  222.6860 C   0  0  2  0  0  0  0  0  0  0  0  0
  141.2980   78.4080  222.6330 C   0  0  0  0  0  0  0  0  0  0  0  0
  141.5250   79.1330  221.5040 C   0  0  0  0  0  0  0  0  0  0  0  0
  142.1340   80.3730  221.5400 C   0  0  0  0  0  0  0  0  0  0  0  0
  142.5290   80.9170  222.6980 N   0  0  0  0  0  0  0  0  0  0  0  0
  142.3280   80.2390  223.8520 C   0  0  0  0  0  0  0  0  0  0  0  0
  141.7190   78.9950  223.8370 C   0  0  0  0  0  0  0  0  0  0  0  0
  141.1120   76.2980  221.4720 C   0  0  0  0  0  0  0  0  0  0  0  0
  139.9610   71.1090  223.7080 C   0  0  0  0  0  0  0  0  0  0  0  0
  140.6850   71.8890  224.5810 C   0  0  0  0  0  0  0  0  0  0  0  0
  141.0510   71.4820  225.8480 C   0  0  0  0  0  0  0  0  0  0  0  0
  140.6620   70.2230  226.2450 C   0  0  0  0  0  0  0  0  0  0  0  0
  141.0220   69.8090  227.5080 C   0  0  0  0  0  0  0  0  0  0  0  0
  140.6370   68.5480  227.9140 C   0  0  0  0  0  0  0  0  0  0  0  0
  141.0070   68.1570  229.1720 F   0  0  0  0  0  0  0  0  0  0  0  0
  139.9150   67.7450  227.0670 C   0  0  0  0  0  0  0  0  0  0  0  0
  139.5640   68.1930  225.7910 C   0  0  0  0  0  0  0  0  0  0  0  0
  139.9380   69.4500  225.3640 C   0  0  0  0  0  0  0  0  0  0  0  0
  139.5960   69.8830  224.1240 N   0  0  0  0  0  0  0  0  0  0  0  0
  138.8500   73.5350  223.0940 H   0  0  0  0  0  0  0  0  0  0  0  0
  138.6457   72.5422  220.2335 H   0  0  0  0  0  0  0  0  0  0  0  0
  137.7776   73.9458  220.9334 H   0  0  0  0  0  0  0  0  0  0  0  0
  138.8847   77.3984  220.5226 H   0  0  0  0  0  0  0  0  0  0  0  0
  137.8327   76.1620  221.1582 H   0  0  0  0  0  0  0  0  0  0  0  0
  138.7742   78.0596  222.8018 H   0  0  0  0  0  0  0  0  0  0  0  0
  138.7563   76.4006  223.4075 H   0  0  0  0  0  0  0  0  0  0  0  0
  140.9482   76.6695  223.6639 H   0  0  0  0  0  0  0  0  0  0  0  0
  141.2143   78.7195  220.5332 H   0  0  0  0  0  0  0  0  0  0  0  0
  142.2971   80.9226  220.6012 H   0  0  0  0  0  0  0  0  0  0  0  0
  142.6502   80.6785  224.8075 H   0  0  0  0  0  0  0  0  0  0  0  0
  141.5626   78.4580  224.7842 H   0  0  0  0  0  0  0  0  0  0  0  0
  141.4973   76.9752  220.6955 H   0  0  0  0  0  0  0  0  0  0  0  0
  141.9298   75.6002  221.7048 H   0  0  0  0  0  0  0  0  0  0  0  0
  140.9890   72.8931  224.2503 H   0  0  0  0  0  0  0  0  0  0  0  0
  141.6307   72.1380  226.5141 H   0  0  0  0  0  0  0  0  0  0  0  0
  141.6005   70.4655  228.1746 H   0  0  0  0  0  0  0  0  0  0  0  0
  139.6101   66.7404  227.3954 H   0  0  0  0  0  0  0  0  0  0  0  0
  138.9854   67.5387  225.1224 H   0  0  0  0  0  0  0  0  0  0  0  0
  1  2  2  0
  2  3  1  0
  3  4  1  0
  4  5  1  0
  5  6  2  0
  5  7  1  0
  7  8  1  0
  8  9  1  0
  9 10  1  0
 10 11  1  0
 11 12  2  0
 12 13  1  0
 13 14  2  0
 14 15  1  0
 15 16  2  0
 10 17  1  0
  2 18  1  0
 18 19  2  0
 19 20  1  0
 20 21  2  0
 21 22  1  0
 22 23  2  0
 23 24  1  0
 23 25  1  0
 25 26  2  0
 26 27  1  0
 27 28  2  0
 17  7  1  0
 28 18  1  0
 16 11  1  0
 27 21  1  0
  3 29  1  0
  4 30  1  0
  4 31  1  0
  8 32  1  0
  8 33  1  0
  9 34  1  0
  9 35  1  0
 10 36  1  1
 12 37  1  0
 13 38  1  0
 15 39  1  0
 16 40  1  0
 17 41  1  0
 17 42  1  0
 19 43  1  0
 20 44  1  0
 22 45  1  0
 25 46  1  0
 26 47  1  0
M  END
>  <smiles>  (20) 
O=C(NCC(=O)N1CC[C@H](c2ccncc2)C1)c1ccc2cc(F)ccc2n1

>  <score_type>  (20) 
oracle

>  <origin>  (20) 
autodockgpu

>  <m_score__min__energy>  (20) 
-8.7400000000000002

>  <m_primary>  (20) 
energy

>  <rmsd>  (20) 
3.543504545108924

>  <m_score__min__rmsd>  (20) 
3.543504545108924

>  <meeko>  (20) 
{"free_energy": -8.27, "intermolecular_energy": -9.76, "internal_energy": -1.08, "cluster_size": 42, "cluster_id": 1, "rank_in_cluster": 38}

>  <energy>  (20) 
-8.5

>  <cluster_rmsd>  (20) 
0.99

>  <cluster>  (20) 
1

$$$$

     RDKit          3D

 47 50  0  0  0  0  0  0  0  0999 V2000
  139.9270   73.6880  222.7010 O   0  0  0  0  0  0  0  0  0  0  0  0
  140.2820   72.4740  222.5790 C   0  0  0  0  0  0  0  0  0  0  0  0
  140.7530   72.0050  221.3230 N   0  0  0  0  0  0  0  0  0  0  0  0
  140.8080   72.9410  220.2210 C   0  0  0  0  0  0  0  0  0  0  0  0
  142.1500   73.5770  220.1940 C   0  0  0  0  0  0  0  0  0  0  0  0
  143.2200   72.9400  220.0220 O   0  0  0  0  0  0  0  0  0  0  0  0
  142.2390   74.9850  220.3720 N   0  0  0  0  0  0  0  0  0  0  0  0
  143.0950   75.9500  219.7090 C   0  0  0  0  0  0  0  0  0  0  0  0
  142.1290   77.0540  219.3980 C   0  0  0  0  0  0  0  0  0  0  0  0
  141.2060   77.0960  220.5440 C   0  0  2  0  0  0  0  0  0  0  0  0
  141.3750   78.2170  221.4920 C   0  0  0  0  0  0  0  0  0  0  0  0
  141.7870   79.4730  221.1670 C   0  0  0  0  0  0  0  0  0  0  0  0
  141.9190   80.4680  222.1170 C   0  0  0  0  0  0  0  0  0  0  0  0
  141.6460   80.2350  223.4060 N   0  0  0  0  0  0  0  0  0  0  0  0
  141.2320   79.0040  223.7850 C   0  0  0  0  0  0  0  0  0  0  0  0
  141.0920   77.9930  222.8480 C   0  0  0  0  0  0  0  0  0  0  0  0
  141.4530   75.8100  221.3020 C   0  0  0  0  0  0  0  0  0  0  0  0
  140.2050   71.5690  223.7280 C   0  0  0  0  0  0  0  0  0  0  0  0
  139.6160   70.3350  223.5770 C   0  0  0  0  0  0  0  0  0  0  0  0
  139.4970   69.4140  224.5980 C   0  0  0  0  0  0  0  0  0  0  0  0
  140.0020   69.7660  225.8290 C   0  0  0  0  0  0  0  0  0  0  0  0
  139.8880   68.8540  226.8540 C   0  0  0  0  0  0  0  0  0  0  0  0
  140.3910   69.1980  228.0920 C   0  0  0  0  0  0  0  0  0  0  0  0
  140.2660   68.2760  229.0950 F   0  0  0  0  0  0  0  0  0  0  0  0
  140.9840   70.4220  228.2750 C   0  0  0  0  0  0  0  0  0  0  0  0
  141.0850   71.3270  227.2160 C   0  0  0  0  0  0  0  0  0  0  0  0
  140.5900   71.0050  225.9690 C   0  0  0  0  0  0  0  0  0  0  0  0
  140.6890   71.8850  224.9420 N   0  0  0  0  0  0  0  0  0  0  0  0
  141.0560   70.9990  221.1880 H   0  0  0  0  0  0  0  0  0  0  0  0
  140.6334   72.4077  219.2749 H   0  0  0  0  0  0  0  0  0  0  0  0
  140.0337   73.7118  220.3488 H   0  0  0  0  0  0  0  0  0  0  0  0
  143.8987   76.2968  220.3752 H   0  0  0  0  0  0  0  0  0  0  0  0
  143.6153   75.5512  218.8257 H   0  0  0  0  0  0  0  0  0  0  0  0
  142.6591   78.0123  219.2948 H   0  0  0  0  0  0  0  0  0  0  0  0
  141.5986   76.8803  218.4501 H   0  0  0  0  0  0  0  0  0  0  0  0
  140.1931   77.2303  220.1365 H   0  0  0  0  0  0  0  0  0  0  0  0
  142.0218   79.7028  220.1172 H   0  0  0  0  0  0  0  0  0  0  0  0
  142.2544   81.4690  221.8081 H   0  0  0  0  0  0  0  0  0  0  0  0
  141.0053   78.8047  224.8428 H   0  0  0  0  0  0  0  0  0  0  0  0
  140.7533   76.9980  223.1725 H   0  0  0  0  0  0  0  0  0  0  0  0
  142.0195   76.0042  222.2247 H   0  0  0  0  0  0  0  0  0  0  0  0
  140.5188   75.3192  221.6124 H   0  0  0  0  0  0  0  0  0  0  0  0
  139.2176   70.0674  222.5872 H   0  0  0  0  0  0  0  0  0  0  0  0
  139.0176   68.4375  224.4344 H   0  0  0  0  0  0  0  0  0  0  0  0
  139.4089   67.8774  226.6905 H   0  0  0  0  0  0  0  0  0  0  0  0
  141.3830   70.6925  229.2637 H   0  0  0  0  0  0  0  0  0  0  0  0
  141.5631   72.3044  227.3774 H   0  0  0  0  0  0  0  0  0  0  0  0
  1  2  2  0
  2  3  1  0
  3  4  1  0
  4  5  1  0
  5  6  2  0
  5  7  1  0
  7  8  1  0
  8  9  1  0
  9 10  1  0
 10 11  1  0
 11 12  2  0
 12 13  1  0
 13 14  2  0
 14 15  1  0
 15 16  2  0
 10 17  1  0
  2 18  1  0
 18 19  2  0
 19 20  1  0
 20 21  2  0
 21 22  1  0
 22 23  2  0
 23 24  1  0
 23 25  1  0
 25 26  2  0
 26 27  1  0
 27 28  2  0
 17  7  1  0
 28 18  1  0
 16 11  1  0
 27 21  1  0
  3 29  1  0
  4 30  1  0
  4 31  1  0
  8 32  1  0
  8 33  1  0
  9 34  1  0
  9 35  1  0
 10 36  1  6
 12 37  1  0
 13 38  1  0
 15 39  1  0
 16 40  1  0
 17 41  1  0
 17 42  1  0
 19 43  1  0
 20 44  1  0
 22 45  1  0
 25 46  1  0
 26 47  1  0
M  END
>  <smiles>  (21) 
O=C(NCC(=O)N1CC[C@H](c2ccncc2)C1)c1ccc2cc(F)ccc2n1

>  <score_type>  (21) 
oracle

>  <origin>  (21) 
autodockgpu

>  <m_score__min__energy>  (21) 
-8.7400000000000002

>  <m_primary>  (21) 
energy

>  <rmsd>  (21) 
2.4825981424736483

>  <m_score__min__rmsd>  (21) 
2.4825981424736483

>  <meeko>  (21) 
{"free_energy": -8.36, "intermolecular_energy": -9.85, "internal_energy": -1.14, "cluster_size": 42, "cluster_id": 1, "rank_in_cluster": 30}

>  <energy>  (21) 
-8.48

>  <cluster_rmsd>  (21) 
0.89

>  <cluster>  (21) 
1

$$$$

     RDKit          3D

 47 50  0  0  0  0  0  0  0  0999 V2000
  140.5850   71.1160  221.5690 O   0  0  0  0  0  0  0  0  0  0  0  0
  139.9570   71.6370  222.5420 C   0  0  0  0  0  0  0  0  0  0  0  0
  139.0910   72.7390  222.3060 N   0  0  0  0  0  0  0  0  0  0  0  0
  138.9620   73.2280  220.9510 C   0  0  0  0  0  0  0  0  0  0  0  0
  138.6660   74.6830  220.9890 C   0  0  0  0  0  0  0  0  0  0  0  0
  137.5240   75.1680  220.7820 O   0  0  0  0  0  0  0  0  0  0  0  0
  139.7270   75.5860  221.2740 N   0  0  0  0  0  0  0  0  0  0  0  0
  141.1580   75.3540  221.3000 C   0  0  0  0  0  0  0  0  0  0  0  0
  141.6760   76.5470  220.5530 C   0  0  0  0  0  0  0  0  0  0  0  0
  140.7950   77.6600  220.9410 C   0  0  2  0  0  0  0  0  0  0  0  0
  141.3570   78.6560  221.8780 C   0  0  0  0  0  0  0  0  0  0  0  0
  141.8930   79.8570  221.5280 C   0  0  0  0  0  0  0  0  0  0  0  0
  142.3990   80.7340  222.4680 C   0  0  0  0  0  0  0  0  0  0  0  0
  142.3820   80.4360  223.7730 N   0  0  0  0  0  0  0  0  0  0  0  0
  141.8590   79.2550  224.1770 C   0  0  0  0  0  0  0  0  0  0  0  0
  141.3480   78.3620  223.2510 C   0  0  0  0  0  0  0  0  0  0  0  0
  139.6070   77.0110  221.6180 C   0  0  0  0  0  0  0  0  0  0  0  0
  140.1250   71.1020  223.8950 C   0  0  0  0  0  0  0  0  0  0  0  0
  140.7140   71.8840  224.8620 C   0  0  0  0  0  0  0  0  0  0  0  0
  140.9150   71.4690  226.1630 C   0  0  0  0  0  0  0  0  0  0  0  0
  140.4980   70.2000  226.4940 C   0  0  0  0  0  0  0  0  0  0  0  0
  140.6950   69.7780  227.7900 C   0  0  0  0  0  0  0  0  0  0  0  0
  140.2800   68.5070  228.1310 C   0  0  0  0  0  0  0  0  0  0  0  0
  140.4870   68.1090  229.4240 F   0  0  0  0  0  0  0  0  0  0  0  0
  139.6900   67.7020  227.1890 C   0  0  0  0  0  0  0  0  0  0  0  0
  139.5040   68.1580  225.8820 C   0  0  0  0  0  0  0  0  0  0  0  0
  139.9100   69.4250  225.5180 C   0  0  0  0  0  0  0  0  0  0  0  0
  139.7290   69.8670  224.2480 N   0  0  0  0  0  0  0  0  0  0  0  0
  138.5520   73.1960  223.0960 H   0  0  0  0  0  0  0  0  0  0  0  0
  139.9020   73.0568  220.4059 H   0  0  0  0  0  0  0  0  0  0  0  0
  138.1465   72.6957  220.4395 H   0  0  0  0  0  0  0  0  0  0  0  0
  141.5411   75.3296  222.3308 H   0  0  0  0  0  0  0  0  0  0  0  0
  141.4609   74.3901  220.8650 H   0  0  0  0  0  0  0  0  0  0  0  0
  142.7160   76.7603  220.8410 H   0  0  0  0  0  0  0  0  0  0  0  0
  141.6745   76.3825  219.4654 H   0  0  0  0  0  0  0  0  0  0  0  0
  140.5781   78.2320  220.0268 H   0  0  0  0  0  0  0  0  0  0  0  0
  141.9243   80.1379  220.4649 H   0  0  0  0  0  0  0  0  0  0  0  0
  142.8232   81.6939  222.1384 H   0  0  0  0  0  0  0  0  0  0  0  0
  141.8398   79.0032  225.2476 H   0  0  0  0  0  0  0  0  0  0  0  0
  140.9278   77.4059  223.5965 H   0  0  0  0  0  0  0  0  0  0  0  0
  139.6532   77.1541  222.7077 H   0  0  0  0  0  0  0  0  0  0  0  0
  138.6494   77.4431  221.2918 H   0  0  0  0  0  0  0  0  0  0  0  0
  141.0429   72.8959  224.5827 H   0  0  0  0  0  0  0  0  0  0  0  0
  141.3898   72.1267  226.9060 H   0  0  0  0  0  0  0  0  0  0  0  0
  141.1700   70.4359  228.5327 H   0  0  0  0  0  0  0  0  0  0  0  0
  139.3609   66.6895  227.4656 H   0  0  0  0  0  0  0  0  0  0  0  0
  139.0301   67.5017  225.1372 H   0  0  0  0  0  0  0  0  0  0  0  0
  1  2  2  0
  2  3  1  0
  3  4  1  0
  4  5  1  0
  5  6  2  0
  5  7  1  0
  7  8  1  0
  8  9  1  0
  9 10  1  0
 10 11  1  0
 11 12  2  0
 12 13  1  0
 13 14  2  0
 14 15  1  0
 15 16  2  0
 10 17  1  0
  2 18  1  0
 18 19  2  0
 19 20  1  0
 20 21  2  0
 21 22  1  0
 22 23  2  0
 23 24  1  0
 23 25  1  0
 25 26  2  0
 26 27  1  0
 27 28  2  0
 17  7  1  0
 28 18  1  0
 16 11  1  0
 27 21  1  0
  3 29  1  0
  4 30  1  0
  4 31  1  0
  8 32  1  0
  8 33  1  0
  9 34  1  0
  9 35  1  0
 10 36  1  6
 12 37  1  0
 13 38  1  0
 15 39  1  0
 16 40  1  0
 17 41  1  0
 17 42  1  0
 19 43  1  0
 20 44  1  0
 22 45  1  0
 25 46  1  0
 26 47  1  0
M  END
>  <smiles>  (22) 
O=C(NCC(=O)N1CC[C@H](c2ccncc2)C1)c1ccc2cc(F)ccc2n1

>  <score_type>  (22) 
oracle

>  <origin>  (22) 
autodockgpu

>  <m_score__min__energy>  (22) 
-8.7400000000000002

>  <m_primary>  (22) 
energy

>  <rmsd>  (22) 
3.144317860022911

>  <m_score__min__rmsd>  (22) 
3.144317860022911

>  <meeko>  (22) 
{"free_energy": -8.3, "intermolecular_energy": -9.79, "internal_energy": -1.05, "cluster_size": 42, "cluster_id": 1, "rank_in_cluster": 36}

>  <energy>  (22) 
-8.45

>  <cluster_rmsd>  (22) 
0.82

>  <cluster>  (22) 
1

$$$$

     RDKit          3D

 47 50  0  0  0  0  0  0  0  0999 V2000
  140.6020   71.7360  221.1920 O   0  0  0  0  0  0  0  0  0  0  0  0
  140.1260   72.2250  222.2630 C   0  0  0  0  0  0  0  0  0  0  0  0
  139.6340   73.5580  222.2660 N   0  0  0  0  0  0  0  0  0  0  0  0
  139.7000   74.3140  221.0330 C   0  0  0  0  0  0  0  0  0  0  0  0
  141.1080   74.7230  220.7930 C   0  0  0  0  0  0  0  0  0  0  0  0
  142.0250   73.9190  220.4850 O   0  0  0  0  0  0  0  0  0  0  0  0
  141.4460   76.0990  220.9150 N   0  0  0  0  0  0  0  0  0  0  0  0
  142.2980   76.9210  220.0780 C   0  0  0  0  0  0  0  0  0  0  0  0
  141.4730   78.1640  219.9270 C   0  0  0  0  0  0  0  0  0  0  0  0
  140.8040   78.3450  221.2260 C   0  0  2  0  0  0  0  0  0  0  0  0
  141.3220   79.4210  222.0960 C   0  0  0  0  0  0  0  0  0  0  0  0
  142.1890   79.2510  223.1320 C   0  0  0  0  0  0  0  0  0  0  0  0
  142.6280   80.3140  223.9000 C   0  0  0  0  0  0  0  0  0  0  0  0
  142.2150   81.5630  223.6540 N   0  0  0  0  0  0  0  0  0  0  0  0
  141.3530   81.7890  222.6350 C   0  0  0  0  0  0  0  0  0  0  0  0
  140.9020   80.7380  221.8540 C   0  0  0  0  0  0  0  0  0  0  0  0
  140.9890   77.0320  221.9560 C   0  0  0  0  0  0  0  0  0  0  0  0
  140.0830   71.4160  223.4830 C   0  0  0  0  0  0  0  0  0  0  0  0
  139.5210   70.1610  223.4430 C   0  0  0  0  0  0  0  0  0  0  0  0
  139.4350   69.3260  224.5370 C   0  0  0  0  0  0  0  0  0  0  0  0
  139.9440   69.7890  225.7290 C   0  0  0  0  0  0  0  0  0  0  0  0
  139.8630   68.9620  226.8270 C   0  0  0  0  0  0  0  0  0  0  0  0
  140.3710   69.4190  228.0250 C   0  0  0  0  0  0  0  0  0  0  0  0
  140.2780   68.5810  229.1030 F   0  0  0  0  0  0  0  0  0  0  0  0
  140.9370   70.6670  228.0990 C   0  0  0  0  0  0  0  0  0  0  0  0
  141.0060   71.4840  226.9680 C   0  0  0  0  0  0  0  0  0  0  0  0
  140.5050   71.0480  225.7590 C   0  0  0  0  0  0  0  0  0  0  0  0
  140.5720   71.8420  224.6610 N   0  0  0  0  0  0  0  0  0  0  0  0
  139.2310   73.9960  223.1420 H   0  0  0  0  0  0  0  0  0  0  0  0
  139.3496   73.6895  220.1980 H   0  0  0  0  0  0  0  0  0  0  0  0
  139.0609   75.2061  221.1086 H   0  0  0  0  0  0  0  0  0  0  0  0
  143.2577   77.1348  220.5712 H   0  0  0  0  0  0  0  0  0  0  0  0
  142.5721   76.4496  219.1227 H   0  0  0  0  0  0  0  0  0  0  0  0
  142.1153   79.0278  219.7005 H   0  0  0  0  0  0  0  0  0  0  0  0
  140.7509   78.0798  219.1015 H   0  0  0  0  0  0  0  0  0  0  0  0
  139.7652   78.6387  221.0144 H   0  0  0  0  0  0  0  0  0  0  0  0
  142.5508   78.2386  223.3649 H   0  0  0  0  0  0  0  0  0  0  0  0
  143.3289   80.1297  224.7275 H   0  0  0  0  0  0  0  0  0  0  0  0
  141.0090   82.8127  222.4262 H   0  0  0  0  0  0  0  0  0  0  0  0
  140.2022   80.9391  221.0295 H   0  0  0  0  0  0  0  0  0  0  0  0
  141.7441   77.1305  222.7498 H   0  0  0  0  0  0  0  0  0  0  0  0
  140.0667   76.6920  222.4498 H   0  0  0  0  0  0  0  0  0  0  0  0
  139.1175   69.8034  222.4842 H   0  0  0  0  0  0  0  0  0  0  0  0
  138.9774   68.3287  224.4600 H   0  0  0  0  0  0  0  0  0  0  0  0
  139.4058   67.9644  226.7507 H   0  0  0  0  0  0  0  0  0  0  0  0
  141.3398   71.0271  229.0572 H   0  0  0  0  0  0  0  0  0  0  0  0
  141.4630   72.4818  227.0420 H   0  0  0  0  0  0  0  0  0  0  0  0
  1  2  2  0
  2  3  1  0
  3  4  1  0
  4  5  1  0
  5  6  2  0
  5  7  1  0
  7  8  1  0
  8  9  1  0
  9 10  1  0
 10 11  1  0
 11 12  2  0
 12 13  1  0
 13 14  2  0
 14 15  1  0
 15 16  2  0
 10 17  1  0
  2 18  1  0
 18 19  2  0
 19 20  1  0
 20 21  2  0
 21 22  1  0
 22 23  2  0
 23 24  1  0
 23 25  1  0
 25 26  2  0
 26 27  1  0
 27 28  2  0
 17  7  1  0
 28 18  1  0
 16 11  1  0
 27 21  1  0
  3 29  1  0
  4 30  1  0
  4 31  1  0
  8 32  1  0
  8 33  1  0
  9 34  1  0
  9 35  1  0
 10 36  1  6
 12 37  1  0
 13 38  1  0
 15 39  1  0
 16 40  1  0
 17 41  1  0
 17 42  1  0
 19 43  1  0
 20 44  1  0
 22 45  1  0
 25 46  1  0
 26 47  1  0
M  END
>  <smiles>  (23) 
O=C(NCC(=O)N1CC[C@H](c2ccncc2)C1)c1ccc2cc(F)ccc2n1

>  <score_type>  (23) 
oracle

>  <origin>  (23) 
autodockgpu

>  <m_score__min__energy>  (23) 
-8.7400000000000002

>  <m_primary>  (23) 
energy

>  <rmsd>  (23) 
2.4396572595900956

>  <m_score__min__rmsd>  (23) 
2.4396572595900956

>  <meeko>  (23) 
{"free_energy": -8.63, "intermolecular_energy": -10.12, "internal_energy": -0.99, "cluster_size": 42, "cluster_id": 1, "rank_in_cluster": 8}

>  <energy>  (23) 
-8.38

>  <cluster_rmsd>  (23) 
1.45

>  <cluster>  (23) 
1

$$$$

     RDKit          3D

 47 50  0  0  0  0  0  0  0  0999 V2000
  140.7190   71.3920  221.7680 O   0  0  0  0  0  0  0  0  0  0  0  0
  139.9750   71.6980  222.7500 C   0  0  0  0  0  0  0  0  0  0  0  0
  138.9080   72.6170  222.5610 N   0  0  0  0  0  0  0  0  0  0  0  0
  138.7130   73.1750  221.2400 C   0  0  0  0  0  0  0  0  0  0  0  0
  139.3650   74.5080  221.1780 C   0  0  0  0  0  0  0  0  0  0  0  0
  138.8880   75.5430  221.7100 O   0  0  0  0  0  0  0  0  0  0  0  0
  140.5980   74.6310  220.4790 N   0  0  0  0  0  0  0  0  0  0  0  0
  140.9180   75.4030  219.2950 C   0  0  0  0  0  0  0  0  0  0  0  0
  142.2220   76.0340  219.6830 C   0  0  0  0  0  0  0  0  0  0  0  0
  142.9230   75.0150  220.4820 C   0  0  2  0  0  0  0  0  0  0  0  0
  144.0510   74.3190  219.8290 C   0  0  0  0  0  0  0  0  0  0  0  0
  144.0960   73.9370  218.5230 C   0  0  0  0  0  0  0  0  0  0  0  0
  145.1920   73.2890  217.9870 C   0  0  0  0  0  0  0  0  0  0  0  0
  146.2650   73.0080  218.7370 N   0  0  0  0  0  0  0  0  0  0  0  0
  146.2740   73.3650  220.0430 C   0  0  0  0  0  0  0  0  0  0  0  0
  145.1850   74.0160  220.5980 C   0  0  0  0  0  0  0  0  0  0  0  0
  141.8720   73.9770  220.8150 C   0  0  0  0  0  0  0  0  0  0  0  0
  140.2170   71.1040  224.0670 C   0  0  0  0  0  0  0  0  0  0  0  0
  140.7290   71.8850  225.0770 C   0  0  0  0  0  0  0  0  0  0  0  0
  140.9910   71.4170  226.3480 C   0  0  0  0  0  0  0  0  0  0  0  0
  140.7180   70.0930  226.6030 C   0  0  0  0  0  0  0  0  0  0  0  0
  140.9750   69.6170  227.8700 C   0  0  0  0  0  0  0  0  0  0  0  0
  140.7060   68.2900  228.1340 C   0  0  0  0  0  0  0  0  0  0  0  0
  140.9700   67.8390  229.3990 F   0  0  0  0  0  0  0  0  0  0  0  0
  140.1950   67.4840  227.1480 C   0  0  0  0  0  0  0  0  0  0  0  0
  139.9440   67.9940  225.8720 C   0  0  0  0  0  0  0  0  0  0  0  0
  140.2060   69.3180  225.5850 C   0  0  0  0  0  0  0  0  0  0  0  0
  139.9620   69.8130  224.3460 N   0  0  0  0  0  0  0  0  0  0  0  0
  138.2690   72.8930  223.3600 H   0  0  0  0  0  0  0  0  0  0  0  0
  139.1621   72.5093  220.4883 H   0  0  0  0  0  0  0  0  0  0  0  0
  137.6372   73.2772  221.0344 H   0  0  0  0  0  0  0  0  0  0  0  0
  141.0332   74.7551  218.4135 H   0  0  0  0  0  0  0  0  0  0  0  0
  140.1398   76.1270  219.0116 H   0  0  0  0  0  0  0  0  0  0  0  0
  142.8071   76.2916  218.7878 H   0  0  0  0  0  0  0  0  0  0  0  0
  142.0749   76.9675  220.2460 H   0  0  0  0  0  0  0  0  0  0  0  0
  143.3782   75.5349  221.3378 H   0  0  0  0  0  0  0  0  0  0  0  0
  143.2333   74.1508  217.8748 H   0  0  0  0  0  0  0  0  0  0  0  0
  145.1830   72.9989  216.9260 H   0  0  0  0  0  0  0  0  0  0  0  0
  147.1510   73.1367  220.6665 H   0  0  0  0  0  0  0  0  0  0  0  0
  145.2093   74.3006  221.6603 H   0  0  0  0  0  0  0  0  0  0  0  0
  142.0155   73.0691  220.2108 H   0  0  0  0  0  0  0  0  0  0  0  0
  141.9158   73.6559  221.8662 H   0  0  0  0  0  0  0  0  0  0  0  0
  140.9415   72.9420  224.8590 H   0  0  0  0  0  0  0  0  0  0  0  0
  141.4019   72.0764  227.1267 H   0  0  0  0  0  0  0  0  0  0  0  0
  141.3834   70.2768  228.6496 H   0  0  0  0  0  0  0  0  0  0  0  0
  139.9811   66.4269  227.3643 H   0  0  0  0  0  0  0  0  0  0  0  0
  139.5349   67.3360  225.0911 H   0  0  0  0  0  0  0  0  0  0  0  0
  1  2  2  0
  2  3  1  0
  3  4  1  0
  4  5  1  0
  5  6  2  0
  5  7  1  0
  7  8  1  0
  8  9  1  0
  9 10  1  0
 10 11  1  0
 11 12  2  0
 12 13  1  0
 13 14  2  0
 14 15  1  0
 15 16  2  0
 10 17  1  0
  2 18  1  0
 18 19  2  0
 19 20  1  0
 20 21  2  0
 21 22  1  0
 22 23  2  0
 23 24  1  0
 23 25  1  0
 25 26  2  0
 26 27  1  0
 27 28  2  0
 17  7  1  0
 28 18  1  0
 16 11  1  0
 27 21  1  0
  3 29  1  0
  4 30  1  0
  4 31  1  0
  8 32  1  0
  8 33  1  0
  9 34  1  0
  9 35  1  0
 10 36  1  1
 12 37  1  0
 13 38  1  0
 15 39  1  0
 16 40  1  0
 17 41  1  0
 17 42  1  0
 19 43  1  0
 20 44  1  0
 22 45  1  0
 25 46  1  0
 26 47  1  0
M  END
>  <smiles>  (24) 
O=C(NCC(=O)N1CC[C@H](c2ccncc2)C1)c1ccc2cc(F)ccc2n1

>  <score_type>  (24) 
oracle

>  <origin>  (24) 
autodockgpu

>  <m_score__min__energy>  (24) 
-8.7400000000000002

>  <m_primary>  (24) 
energy

>  <rmsd>  (24) 
3.066704020885332

>  <m_score__min__rmsd>  (24) 
3.066704020885332

>  <meeko>  (24) 
{"free_energy": -8.26, "intermolecular_energy": -9.75, "internal_energy": -1.17, "cluster_size": 8, "cluster_id": 2, "rank_in_cluster": 3}

>  <energy>  (24) 
-8.38

>  <cluster_rmsd>  (24) 
1.05

>  <cluster>  (24) 
1

$$$$

     RDKit          3D

 47 50  0  0  0  0  0  0  0  0999 V2000
  138.2410   70.5110  221.8170 O   0  0  0  0  0  0  0  0  0  0  0  0
  138.8050   71.0950  222.7940 C   0  0  0  0  0  0  0  0  0  0  0  0
  139.0590   72.4910  222.7220 N   0  0  0  0  0  0  0  0  0  0  0  0
  138.6610   73.1970  221.5240 C   0  0  0  0  0  0  0  0  0  0  0  0
  139.4160   74.4740  221.4420 C   0  0  0  0  0  0  0  0  0  0  0  0
  139.0490   75.5380  222.0020 O   0  0  0  0  0  0  0  0  0  0  0  0
  140.6220   74.5030  220.6890 N   0  0  0  0  0  0  0  0  0  0  0  0
  140.8410   74.8730  219.3050 C   0  0  0  0  0  0  0  0  0  0  0  0
  142.0560   75.7460  219.4080 C   0  0  0  0  0  0  0  0  0  0  0  0
  142.8810   75.1390  220.4660 C   0  0  2  0  0  0  0  0  0  0  0  0
  144.0860   74.4050  220.0280 C   0  0  0  0  0  0  0  0  0  0  0  0
  145.1350   74.0600  220.8240 C   0  0  0  0  0  0  0  0  0  0  0  0
  146.2280   73.3700  220.3360 C   0  0  0  0  0  0  0  0  0  0  0  0
  146.3010   73.0100  219.0490 N   0  0  0  0  0  0  0  0  0  0  0  0
  145.2860   73.3270  218.2120 C   0  0  0  0  0  0  0  0  0  0  0  0
  144.1810   74.0170  218.6820 C   0  0  0  0  0  0  0  0  0  0  0  0
  141.9700   74.1530  221.1650 C   0  0  0  0  0  0  0  0  0  0  0  0
  139.1870   70.3320  223.9840 C   0  0  0  0  0  0  0  0  0  0  0  0
  138.9240   68.9820  224.0350 C   0  0  0  0  0  0  0  0  0  0  0  0
  139.2460   68.1800  225.1100 C   0  0  0  0  0  0  0  0  0  0  0  0
  139.8650   68.7790  226.1830 C   0  0  0  0  0  0  0  0  0  0  0  0
  140.1900   67.9850  227.2610 C   0  0  0  0  0  0  0  0  0  0  0  0
  140.8100   68.5770  228.3420 C   0  0  0  0  0  0  0  0  0  0  0  0
  141.1230   67.7700  229.4010 F   0  0  0  0  0  0  0  0  0  0  0  0
  141.0870   69.9210  228.3230 C   0  0  0  0  0  0  0  0  0  0  0  0
  140.7450   70.7010  227.2150 C   0  0  0  0  0  0  0  0  0  0  0  0
  140.1240   70.1310  226.1230 C   0  0  0  0  0  0  0  0  0  0  0  0
  139.7920   70.8890  225.0480 N   0  0  0  0  0  0  0  0  0  0  0  0
  139.5270   73.0090  223.5190 H   0  0  0  0  0  0  0  0  0  0  0  0
  138.8833   72.5797  220.6411 H   0  0  0  0  0  0  0  0  0  0  0  0
  137.5813   73.4049  221.5564 H   0  0  0  0  0  0  0  0  0  0  0  0
  141.0352   73.9888  218.6802 H   0  0  0  0  0  0  0  0  0  0  0  0
  139.9776   75.3659  218.8342 H   0  0  0  0  0  0  0  0  0  0  0  0
  142.6025   75.7601  218.4535 H   0  0  0  0  0  0  0  0  0  0  0  0
  141.7937   76.7889  219.6396 H   0  0  0  0  0  0  0  0  0  0  0  0
  143.2685   75.9620  221.0845 H   0  0  0  0  0  0  0  0  0  0  0  0
  145.1118   74.3390  221.8878 H   0  0  0  0  0  0  0  0  0  0  0  0
  147.0525   73.1121  221.0170 H   0  0  0  0  0  0  0  0  0  0  0  0
  145.3389   73.0351  217.1528 H   0  0  0  0  0  0  0  0  0  0  0  0
  143.3637   74.2653  217.9889 H   0  0  0  0  0  0  0  0  0  0  0  0
  142.2260   73.1203  220.8857 H   0  0  0  0  0  0  0  0  0  0  0  0
  142.0557   74.2052  222.2604 H   0  0  0  0  0  0  0  0  0  0  0  0
  138.4292   68.5165  223.1699 H   0  0  0  0  0  0  0  0  0  0  0  0
  139.0170   67.1041  225.1095 H   0  0  0  0  0  0  0  0  0  0  0  0
  139.9615   66.9090  227.2598 H   0  0  0  0  0  0  0  0  0  0  0  0
  141.5823   70.3881  229.1870 H   0  0  0  0  0  0  0  0  0  0  0  0
  140.9726   71.7772  227.2136 H   0  0  0  0  0  0  0  0  0  0  0  0
  1  2  2  0
  2  3  1  0
  3  4  1  0
  4  5  1  0
  5  6  2  0
  5  7  1  0
  7  8  1  0
  8  9  1  0
  9 10  1  0
 10 11  1  0
 11 12  2  0
 12 13  1  0
 13 14  2  0
 14 15  1  0
 15 16  2  0
 10 17  1  0
  2 18  1  0
 18 19  2  0
 19 20  1  0
 20 21  2  0
 21 22  1  0
 22 23  2  0
 23 24  1  0
 23 25  1  0
 25 26  2  0
 26 27  1  0
 27 28  2  0
 17  7  1  0
 28 18  1  0
 16 11  1  0
 27 21  1  0
  3 29  1  0
  4 30  1  0
  4 31  1  0
  8 32  1  0
  8 33  1  0
  9 34  1  0
  9 35  1  0
 10 36  1  1
 12 37  1  0
 13 38  1  0
 15 39  1  0
 16 40  1  0
 17 41  1  0
 17 42  1  0
 19 43  1  0
 20 44  1  0
 22 45  1  0
 25 46  1  0
 26 47  1  0
M  END
>  <smiles>  (25) 
O=C(NCC(=O)N1CC[C@H](c2ccncc2)C1)c1ccc2cc(F)ccc2n1

>  <score_type>  (25) 
oracle

>  <origin>  (25) 
autodockgpu

>  <m_score__min__energy>  (25) 
-8.7400000000000002

>  <m_primary>  (25) 
energy

>  <rmsd>  (25) 
2.1422755661110258

>  <m_score__min__rmsd>  (25) 
2.1422755661110258

>  <meeko>  (25) 
{"free_energy": -8.05, "intermolecular_energy": -9.54, "internal_energy": -1.2, "cluster_size": 8, "cluster_id": 2, "rank_in_cluster": 8}

>  <energy>  (25) 
-8.37

>  <cluster_rmsd>  (25) 
0.97

>  <cluster>  (25) 
1

$$$$

     RDKit          3D

 47 50  0  0  0  0  0  0  0  0999 V2000
  140.5480   71.3220  221.6220 O   0  0  0  0  0  0  0  0  0  0  0  0
  139.8250   71.6940  222.5970 C   0  0  0  0  0  0  0  0  0  0  0  0
  138.7970   72.6510  222.3810 N   0  0  0  0  0  0  0  0  0  0  0  0
  138.6170   73.1690  221.0420 C   0  0  0  0  0  0  0  0  0  0  0  0
  139.2190   74.5250  220.9650 C   0  0  0  0  0  0  0  0  0  0  0  0
  138.6380   75.5690  221.3570 O   0  0  0  0  0  0  0  0  0  0  0  0
  140.5240   74.6590  220.4160 N   0  0  0  0  0  0  0  0  0  0  0  0
  141.0110   75.5670  219.3960 C   0  0  0  0  0  0  0  0  0  0  0  0
  142.2980   76.0450  220.0000 C   0  0  0  0  0  0  0  0  0  0  0  0
  142.8530   74.8780  220.7050 C   0  0  2  0  0  0  0  0  0  0  0  0
  144.0060   74.2050  220.0700 C   0  0  0  0  0  0  0  0  0  0  0  0
  144.0380   73.7250  218.7970 C   0  0  0  0  0  0  0  0  0  0  0  0
  145.1600   73.1060  218.2770 C   0  0  0  0  0  0  0  0  0  0  0  0
  146.2690   72.9540  219.0110 N   0  0  0  0  0  0  0  0  0  0  0  0
  146.2920   73.4140  220.2830 C   0  0  0  0  0  0  0  0  0  0  0  0
  145.1780   74.0360  220.8220 C   0  0  0  0  0  0  0  0  0  0  0  0
  141.7180   73.8790  220.7760 C   0  0  0  0  0  0  0  0  0  0  0  0
  140.0500   71.1360  223.9320 C   0  0  0  0  0  0  0  0  0  0  0  0
  140.7230   71.8840  224.8720 C   0  0  0  0  0  0  0  0  0  0  0  0
  140.9830   71.4460  226.1540 C   0  0  0  0  0  0  0  0  0  0  0  0
  140.5380   70.1900  226.4960 C   0  0  0  0  0  0  0  0  0  0  0  0
  140.7930   69.7450  227.7740 C   0  0  0  0  0  0  0  0  0  0  0  0
  140.3510   68.4860  228.1260 C   0  0  0  0  0  0  0  0  0  0  0  0
  140.6160   68.0650  229.4010 F   0  0  0  0  0  0  0  0  0  0  0  0
  139.6770   67.7150  227.2120 C   0  0  0  0  0  0  0  0  0  0  0  0
  139.4330   68.1930  225.9230 C   0  0  0  0  0  0  0  0  0  0  0  0
  139.8660   69.4490  225.5490 C   0  0  0  0  0  0  0  0  0  0  0  0
  139.6280   69.9120  224.2960 N   0  0  0  0  0  0  0  0  0  0  0  0
  138.1760   72.9820  223.1730 H   0  0  0  0  0  0  0  0  0  0  0  0
  139.1120   72.5038  220.3192 H   0  0  0  0  0  0  0  0  0  0  0  0
  137.5442   73.2238  220.8049 H   0  0  0  0  0  0  0  0  0  0  0  0
  141.1852   75.0439  218.4442 H   0  0  0  0  0  0  0  0  0  0  0  0
  140.3082   76.3758  219.1472 H   0  0  0  0  0  0  0  0  0  0  0  0
  142.9891   76.3854  219.2148 H   0  0  0  0  0  0  0  0  0  0  0  0
  142.1415   76.8973  220.6776 H   0  0  0  0  0  0  0  0  0  0  0  0
  143.2412   75.2388  221.6689 H   0  0  0  0  0  0  0  0  0  0  0  0
  143.1454   73.8325  218.1632 H   0  0  0  0  0  0  0  0  0  0  0  0
  145.1408   72.7322  217.2426 H   0  0  0  0  0  0  0  0  0  0  0  0
  147.1999   73.2935  220.8922 H   0  0  0  0  0  0  0  0  0  0  0  0
  145.2129   74.4039  221.8581 H   0  0  0  0  0  0  0  0  0  0  0  0
  141.8767   73.0576  220.0618 H   0  0  0  0  0  0  0  0  0  0  0  0
  141.6312   73.4115  221.7679 H   0  0  0  0  0  0  0  0  0  0  0  0
  141.0728   72.8866  224.5847 H   0  0  0  0  0  0  0  0  0  0  0  0
  141.5249   72.0763  226.8745 H   0  0  0  0  0  0  0  0  0  0  0  0
  141.3342   70.3758  228.4945 H   0  0  0  0  0  0  0  0  0  0  0  0
  139.3262   66.7123  227.4974 H   0  0  0  0  0  0  0  0  0  0  0  0
  138.8919   67.5642  225.2006 H   0  0  0  0  0  0  0  0  0  0  0  0
  1  2  2  0
  2  3  1  0
  3  4  1  0
  4  5  1  0
  5  6  2  0
  5  7  1  0
  7  8  1  0
  8  9  1  0
  9 10  1  0
 10 11  1  0
 11 12  2  0
 12 13  1  0
 13 14  2  0
 14 15  1  0
 15 16  2  0
 10 17  1  0
  2 18  1  0
 18 19  2  0
 19 20  1  0
 20 21  2  0
 21 22  1  0
 22 23  2  0
 23 24  1  0
 23 25  1  0
 25 26  2  0
 26 27  1  0
 27 28  2  0
 17  7  1  0
 28 18  1  0
 16 11  1  0
 27 21  1  0
  3 29  1  0
  4 30  1  0
  4 31  1  0
  8 32  1  0
  8 33  1  0
  9 34  1  0
  9 35  1  0
 10 36  1  1
 12 37  1  0
 13 38  1  0
 15 39  1  0
 16 40  1  0
 17 41  1  0
 17 42  1  0
 19 43  1  0
 20 44  1  0
 22 45  1  0
 25 46  1  0
 26 47  1  0
M  END
>  <smiles>  (26) 
O=C(NCC(=O)N1CC[C@H](c2ccncc2)C1)c1ccc2cc(F)ccc2n1

>  <score_type>  (26) 
oracle

>  <origin>  (26) 
autodockgpu

>  <m_score__min__energy>  (26) 
-8.7400000000000002

>  <m_primary>  (26) 
energy

>  <rmsd>  (26) 
3.0536889988415585

>  <m_score__min__rmsd>  (26) 
3.0536889988415585

>  <meeko>  (26) 
{"free_energy": -8.18, "intermolecular_energy": -9.67, "internal_energy": -1.19, "cluster_size": 8, "cluster_id": 2, "rank_in_cluster": 5}

>  <energy>  (26) 
-8.37

>  <cluster_rmsd>  (26) 
1.02

>  <cluster>  (26) 
1

$$$$

     RDKit          3D

 47 50  0  0  0  0  0  0  0  0999 V2000
  139.8120   71.5700  221.0950 O   0  0  0  0  0  0  0  0  0  0  0  0
  139.7630   72.1530  222.2220 C   0  0  0  0  0  0  0  0  0  0  0  0
  139.5860   73.5620  222.2740 N   0  0  0  0  0  0  0  0  0  0  0  0
  139.4680   74.2830  221.0240 C   0  0  0  0  0  0  0  0  0  0  0  0
  140.8250   74.6690  220.5600 C   0  0  0  0  0  0  0  0  0  0  0  0
  141.6040   73.8870  219.9570 O   0  0  0  0  0  0  0  0  0  0  0  0
  141.2770   75.9940  220.8070 N   0  0  0  0  0  0  0  0  0  0  0  0
  142.3100   76.7600  220.1370 C   0  0  0  0  0  0  0  0  0  0  0  0
  141.6380   78.0890  219.9570 C   0  0  0  0  0  0  0  0  0  0  0  0
  140.8230   78.2780  221.1680 C   0  0  2  0  0  0  0  0  0  0  0  0
  141.3240   79.2510  222.1610 C   0  0  0  0  0  0  0  0  0  0  0  0
  142.6330   79.4870  222.4470 C   0  0  0  0  0  0  0  0  0  0  0  0
  143.0200   80.4180  223.3920 C   0  0  0  0  0  0  0  0  0  0  0  0
  142.1140   81.1320  224.0710 N   0  0  0  0  0  0  0  0  0  0  0  0
  140.7970   80.9390  223.8260 C   0  0  0  0  0  0  0  0  0  0  0  0
  140.3900   80.0110  222.8820 C   0  0  0  0  0  0  0  0  0  0  0  0
  140.7790   76.9200  221.8360 C   0  0  0  0  0  0  0  0  0  0  0  0
  139.8880   71.3760  223.4570 C   0  0  0  0  0  0  0  0  0  0  0  0
  139.4870   70.0590  223.4700 C   0  0  0  0  0  0  0  0  0  0  0  0
  139.5650   69.2470  224.5820 C   0  0  0  0  0  0  0  0  0  0  0  0
  140.0750   69.8000  225.7340 C   0  0  0  0  0  0  0  0  0  0  0  0
  140.1570   68.9960  226.8500 C   0  0  0  0  0  0  0  0  0  0  0  0
  140.6660   69.5420  228.0100 C   0  0  0  0  0  0  0  0  0  0  0  0
  140.7380   68.7250  229.1050 F   0  0  0  0  0  0  0  0  0  0  0  0
  141.0750   70.8520  228.0300 C   0  0  0  0  0  0  0  0  0  0  0  0
  140.9790   71.6430  226.8830 C   0  0  0  0  0  0  0  0  0  0  0  0
  140.4730   71.1190  225.7110 C   0  0  0  0  0  0  0  0  0  0  0  0
  140.3810   71.8880  224.5980 N   0  0  0  0  0  0  0  0  0  0  0  0
  139.5410   74.0800  223.1980 H   0  0  0  0  0  0  0  0  0  0  0  0
  138.9895   73.6398  220.2708 H   0  0  0  0  0  0  0  0  0  0  0  0
  138.8544   75.1841  221.1706 H   0  0  0  0  0  0  0  0  0  0  0  0
  143.2116   76.8483  220.7610 H   0  0  0  0  0  0  0  0  0  0  0  0
  142.6618   76.3078  219.1980 H   0  0  0  0  0  0  0  0  0  0  0  0
  142.3862   78.8903  219.8670 H   0  0  0  0  0  0  0  0  0  0  0  0
  141.0277   78.1199  219.0424 H   0  0  0  0  0  0  0  0  0  0  0  0
  139.8558   78.6889  220.8428 H   0  0  0  0  0  0  0  0  0  0  0  0
  143.4069   78.9194  221.9096 H   0  0  0  0  0  0  0  0  0  0  0  0
  144.0907   80.5750  223.5896 H   0  0  0  0  0  0  0  0  0  0  0  0
  140.0462   81.5221  224.3794 H   0  0  0  0  0  0  0  0  0  0  0  0
  139.3158   79.8670  222.6940 H   0  0  0  0  0  0  0  0  0  0  0  0
  141.4276   76.9012  222.7243 H   0  0  0  0  0  0  0  0  0  0  0  0
  139.7705   76.6561  222.1870 H   0  0  0  0  0  0  0  0  0  0  0  0
  139.0817   69.6304  222.5415 H   0  0  0  0  0  0  0  0  0  0  0  0
  139.2327   68.1989  224.5492 H   0  0  0  0  0  0  0  0  0  0  0  0
  139.8257   67.9476  226.8168 H   0  0  0  0  0  0  0  0  0  0  0  0
  141.4817   71.2824  228.9570 H   0  0  0  0  0  0  0  0  0  0  0  0
  141.3093   72.6918  226.9141 H   0  0  0  0  0  0  0  0  0  0  0  0
  1  2  2  0
  2  3  1  0
  3  4  1  0
  4  5  1  0
  5  6  2  0
  5  7  1  0
  7  8  1  0
  8  9  1  0
  9 10  1  0
 10 11  1  0
 11 12  2  0
 12 13  1  0
 13 14  2  0
 14 15  1  0
 15 16  2  0
 10 17  1  0
  2 18  1  0
 18 19  2  0
 19 20  1  0
 20 21  2  0
 21 22  1  0
 22 23  2  0
 23 24  1  0
 23 25  1  0
 25 26  2  0
 26 27  1  0
 27 28  2  0
 17  7  1  0
 28 18  1  0
 16 11  1  0
 27 21  1  0
  3 29  1  0
  4 30  1  0
  4 31  1  0
  8 32  1  0
  8 33  1  0
  9 34  1  0
  9 35  1  0
 10 36  1  6
 12 37  1  0
 13 38  1  0
 15 39  1  0
 16 40  1  0
 17 41  1  0
 17 42  1  0
 19 43  1  0
 20 44  1  0
 22 45  1  0
 25 46  1  0
 26 47  1  0
M  END
>  <smiles>  (27) 
O=C(NCC(=O)N1CC[C@H](c2ccncc2)C1)c1ccc2cc(F)ccc2n1

>  <score_type>  (27) 
oracle

>  <origin>  (27) 
autodockgpu

>  <m_score__min__energy>  (27) 
-8.7400000000000002

>  <m_primary>  (27) 
energy

>  <rmsd>  (27) 
2.3489044058854045

>  <m_score__min__rmsd>  (27) 
2.3489044058854045

>  <meeko>  (27) 
{"free_energy": -8.37, "intermolecular_energy": -9.86, "internal_energy": -1.11, "cluster_size": 42, "cluster_id": 1, "rank_in_cluster": 26}

>  <energy>  (27) 
-8.37

>  <cluster_rmsd>  (27) 
1.04

>  <cluster>  (27) 
1

$$$$

     RDKit          3D

 47 50  0  0  0  0  0  0  0  0999 V2000
  139.4160   71.1500  221.1000 O   0  0  0  0  0  0  0  0  0  0  0  0
  139.4520   71.7600  222.2140 C   0  0  0  0  0  0  0  0  0  0  0  0
  139.3010   73.1720  222.2440 N   0  0  0  0  0  0  0  0  0  0  0  0
  139.1130   73.8660  220.9880 C   0  0  0  0  0  0  0  0  0  0  0  0
  140.4400   74.1140  220.3690 C   0  0  0  0  0  0  0  0  0  0  0  0
  141.0140   73.3020  219.6000 O   0  0  0  0  0  0  0  0  0  0  0  0
  141.1070   75.3360  220.6590 N   0  0  0  0  0  0  0  0  0  0  0  0
  142.4070   75.8070  220.2230 C   0  0  0  0  0  0  0  0  0  0  0  0
  142.1050   77.2230  219.8280 C   0  0  0  0  0  0  0  0  0  0  0  0
  141.1000   77.6890  220.7980 C   0  0  2  0  0  0  0  0  0  0  0  0
  141.5670   78.6300  221.8380 C   0  0  0  0  0  0  0  0  0  0  0  0
  142.1480   79.8390  221.6070 C   0  0  0  0  0  0  0  0  0  0  0  0
  142.5580   80.6620  222.6390 C   0  0  0  0  0  0  0  0  0  0  0  0
  142.3990   80.3010  223.9180 N   0  0  0  0  0  0  0  0  0  0  0  0
  141.8260   79.1080  224.2040 C   0  0  0  0  0  0  0  0  0  0  0  0
  141.4080   78.2700  223.1850 C   0  0  0  0  0  0  0  0  0  0  0  0
  140.6080   76.4390  221.4950 C   0  0  0  0  0  0  0  0  0  0  0  0
  139.6450   71.0080  223.4560 C   0  0  0  0  0  0  0  0  0  0  0  0
  139.2780   69.6830  223.5080 C   0  0  0  0  0  0  0  0  0  0  0  0
  139.4200   68.8930  224.6300 C   0  0  0  0  0  0  0  0  0  0  0  0
  139.9630   69.4790  225.7510 C   0  0  0  0  0  0  0  0  0  0  0  0
  140.1090   68.6980  226.8760 C   0  0  0  0  0  0  0  0  0  0  0  0
  140.6520   69.2770  228.0050 C   0  0  0  0  0  0  0  0  0  0  0  0
  140.7870   68.4830  229.1100 F   0  0  0  0  0  0  0  0  0  0  0  0
  141.0290   70.5970  227.9850 C   0  0  0  0  0  0  0  0  0  0  0  0
  140.8670   71.3640  226.8290 C   0  0  0  0  0  0  0  0  0  0  0  0
  140.3270   70.8060  225.6890 C   0  0  0  0  0  0  0  0  0  0  0  0
  140.1710   71.5530  224.5670 N   0  0  0  0  0  0  0  0  0  0  0  0
  139.3260   73.7110  223.1560 H   0  0  0  0  0  0  0  0  0  0  0  0
  138.5011   73.2488  220.3137 H   0  0  0  0  0  0  0  0  0  0  0  0
  138.6011   74.8233  221.1655 H   0  0  0  0  0  0  0  0  0  0  0  0
  143.1420   75.7675  221.0405 H   0  0  0  0  0  0  0  0  0  0  0  0
  142.8510   75.2050  219.4165 H   0  0  0  0  0  0  0  0  0  0  0  0
  143.0128   77.8415  219.8860 H   0  0  0  0  0  0  0  0  0  0  0  0
  141.7397   77.2918  218.7927 H   0  0  0  0  0  0  0  0  0  0  0  0
  140.3459   78.2556  220.2321 H   0  0  0  0  0  0  0  0  0  0  0  0
  142.2956   80.1708  220.5687 H   0  0  0  0  0  0  0  0  0  0  0  0
  143.0232   81.6309  222.4050 H   0  0  0  0  0  0  0  0  0  0  0  0
  141.6920   78.8031  225.2524 H   0  0  0  0  0  0  0  0  0  0  0  0
  140.9431   77.3050  223.4353 H   0  0  0  0  0  0  0  0  0  0  0  0
  141.0193   76.3731  222.5131 H   0  0  0  0  0  0  0  0  0  0  0  0
  139.5135   76.4218  221.6038 H   0  0  0  0  0  0  0  0  0  0  0  0
  138.8471   69.2279  222.6040 H   0  0  0  0  0  0  0  0  0  0  0  0
  139.1117   67.8371  224.6289 H   0  0  0  0  0  0  0  0  0  0  0  0
  139.8013   67.6419  226.8747 H   0  0  0  0  0  0  0  0  0  0  0  0
  141.4622   71.0543  228.8868 H   0  0  0  0  0  0  0  0  0  0  0  0
  141.1723   72.4208  226.8277 H   0  0  0  0  0  0  0  0  0  0  0  0
  1  2  2  0
  2  3  1  0
  3  4  1  0
  4  5  1  0
  5  6  2  0
  5  7  1  0
  7  8  1  0
  8  9  1  0
  9 10  1  0
 10 11  1  0
 11 12  2  0
 12 13  1  0
 13 14  2  0
 14 15  1  0
 15 16  2  0
 10 17  1  0
  2 18  1  0
 18 19  2  0
 19 20  1  0
 20 21  2  0
 21 22  1  0
 22 23  2  0
 23 24  1  0
 23 25  1  0
 25 26  2  0
 26 27  1  0
 27 28  2  0
 17  7  1  0
 28 18  1  0
 16 11  1  0
 27 21  1  0
  3 29  1  0
  4 30  1  0
  4 31  1  0
  8 32  1  0
  8 33  1  0
  9 34  1  0
  9 35  1  0
 10 36  1  6
 12 37  1  0
 13 38  1  0
 15 39  1  0
 16 40  1  0
 17 41  1  0
 17 42  1  0
 19 43  1  0
 20 44  1  0
 22 45  1  0
 25 46  1  0
 26 47  1  0
M  END
>  <smiles>  (28) 
O=C(NCC(=O)N1CC[C@H](c2ccncc2)C1)c1ccc2cc(F)ccc2n1

>  <score_type>  (28) 
oracle

>  <origin>  (28) 
autodockgpu

>  <m_score__min__energy>  (28) 
-8.7400000000000002

>  <m_primary>  (28) 
energy

>  <rmsd>  (28) 
2.075018260817432

>  <m_score__min__rmsd>  (28) 
2.075018260817432

>  <meeko>  (28) 
{"free_energy": -8.26, "intermolecular_energy": -9.75, "internal_energy": -1.15, "cluster_size": 42, "cluster_id": 1, "rank_in_cluster": 39}

>  <energy>  (28) 
-8.37

>  <cluster_rmsd>  (28) 
0.91

>  <cluster>  (28) 
1

$$$$

     RDKit          3D

 47 50  0  0  0  0  0  0  0  0999 V2000
  141.2340   72.0360  222.2920 O   0  0  0  0  0  0  0  0  0  0  0  0
  140.2620   71.9090  223.0990 C   0  0  0  0  0  0  0  0  0  0  0  0
  138.9870   72.4280  222.7450 N   0  0  0  0  0  0  0  0  0  0  0  0
  138.8500   73.0900  221.4660 C   0  0  0  0  0  0  0  0  0  0  0  0
  138.5430   74.5260  221.6950 C   0  0  0  0  0  0  0  0  0  0  0  0
  137.3770   74.9770  221.8270 O   0  0  0  0  0  0  0  0  0  0  0  0
  139.6230   75.4480  221.7710 N   0  0  0  0  0  0  0  0  0  0  0  0
  141.0270   75.2570  221.4650 C   0  0  0  0  0  0  0  0  0  0  0  0
  141.3390   76.4890  220.6700 C   0  0  0  0  0  0  0  0  0  0  0  0
  140.5460   77.5630  221.2910 C   0  0  2  0  0  0  0  0  0  0  0  0
  141.2850   78.5410  222.1170 C   0  0  0  0  0  0  0  0  0  0  0  0
  141.4540   78.4690  223.4660 C   0  0  0  0  0  0  0  0  0  0  0  0
  142.1610   79.4280  224.1660 C   0  0  0  0  0  0  0  0  0  0  0  0
  142.7130   80.4750  223.5410 N   0  0  0  0  0  0  0  0  0  0  0  0
  142.5770   80.5950  222.2000 C   0  0  0  0  0  0  0  0  0  0  0  0
  141.8720   79.6450  221.4800 C   0  0  0  0  0  0  0  0  0  0  0  0
  139.5540   76.8560  222.1900 C   0  0  0  0  0  0  0  0  0  0  0  0
  140.4560   71.2300  224.3810 C   0  0  0  0  0  0  0  0  0  0  0  0
  140.8920   71.9520  225.4690 C   0  0  0  0  0  0  0  0  0  0  0  0
  141.1040   71.4020  226.7160 C   0  0  0  0  0  0  0  0  0  0  0  0
  140.8610   70.0560  226.8640 C   0  0  0  0  0  0  0  0  0  0  0  0
  141.0700   69.4990  228.1060 C   0  0  0  0  0  0  0  0  0  0  0  0
  140.8290   68.1490  228.2640 C   0  0  0  0  0  0  0  0  0  0  0  0
  141.0440   67.6180  229.5060 F   0  0  0  0  0  0  0  0  0  0  0  0
  140.3930   67.4010  227.1990 C   0  0  0  0  0  0  0  0  0  0  0  0
  140.1910   67.9940  225.9500 C   0  0  0  0  0  0  0  0  0  0  0  0
  140.4250   69.3420  225.7690 C   0  0  0  0  0  0  0  0  0  0  0  0
  140.2280   69.9160  224.5560 N   0  0  0  0  0  0  0  0  0  0  0  0
  138.1550   72.3390  223.3950 H   0  0  0  0  0  0  0  0  0  0  0  0
  139.7896   72.9992  220.9012 H   0  0  0  0  0  0  0  0  0  0  0  0
  138.0367   72.6231  220.8910 H   0  0  0  0  0  0  0  0  0  0  0  0
  141.6334   75.2077  222.3814 H   0  0  0  0  0  0  0  0  0  0  0  0
  141.2431   74.3182  220.9341 H   0  0  0  0  0  0  0  0  0  0  0  0
  142.4127   76.7216  220.7252 H   0  0  0  0  0  0  0  0  0  0  0  0
  141.0952   76.3625  219.6048 H   0  0  0  0  0  0  0  0  0  0  0  0
  140.1173   78.1612  220.4735 H   0  0  0  0  0  0  0  0  0  0  0  0
  141.0149   77.6228  224.0147 H   0  0  0  0  0  0  0  0  0  0  0  0
  142.2721   79.3292  225.2559 H   0  0  0  0  0  0  0  0  0  0  0  0
  143.0289   81.4519  221.6789 H   0  0  0  0  0  0  0  0  0  0  0  0
  141.7705   79.7577  220.3905 H   0  0  0  0  0  0  0  0  0  0  0  0
  139.8409   76.9626  223.2466 H   0  0  0  0  0  0  0  0  0  0  0  0
  138.5389   77.2708  222.1038 H   0  0  0  0  0  0  0  0  0  0  0  0
  141.0819   73.0274  225.3365 H   0  0  0  0  0  0  0  0  0  0  0  0
  141.4537   72.0157  227.5593 H   0  0  0  0  0  0  0  0  0  0  0  0
  141.4195   70.1131  228.9491 H   0  0  0  0  0  0  0  0  0  0  0  0
  140.2010   66.3258  227.3298 H   0  0  0  0  0  0  0  0  0  0  0  0
  139.8429   67.3820  225.1049 H   0  0  0  0  0  0  0  0  0  0  0  0
  1  2  2  0
  2  3  1  0
  3  4  1  0
  4  5  1  0
  5  6  2  0
  5  7  1  0
  7  8  1  0
  8  9  1  0
  9 10  1  0
 10 11  1  0
 11 12  2  0
 12 13  1  0
 13 14  2  0
 14 15  1  0
 15 16  2  0
 10 17  1  0
  2 18  1  0
 18 19  2  0
 19 20  1  0
 20 21  2  0
 21 22  1  0
 22 23  2  0
 23 24  1  0
 23 25  1  0
 25 26  2  0
 26 27  1  0
 27 28  2  0
 17  7  1  0
 28 18  1  0
 16 11  1  0
 27 21  1  0
  3 29  1  0
  4 30  1  0
  4 31  1  0
  8 32  1  0
  8 33  1  0
  9 34  1  0
  9 35  1  0
 10 36  1  6
 12 37  1  0
 13 38  1  0
 15 39  1  0
 16 40  1  0
 17 41  1  0
 17 42  1  0
 19 43  1  0
 20 44  1  0
 22 45  1  0
 25 46  1  0
 26 47  1  0
M  END
>  <smiles>  (29) 
O=C(NCC(=O)N1CC[C@H](c2ccncc2)C1)c1ccc2cc(F)ccc2n1

>  <score_type>  (29) 
oracle

>  <origin>  (29) 
autodockgpu

>  <m_score__min__energy>  (29) 
-8.7400000000000002

>  <m_primary>  (29) 
energy

>  <rmsd>  (29) 
3.3411871986120416

>  <m_score__min__rmsd>  (29) 
3.3411871986120416

>  <meeko>  (29) 
{"free_energy": -8.37, "intermolecular_energy": -9.86, "internal_energy": -1.12, "cluster_size": 42, "cluster_id": 1, "rank_in_cluster": 27}

>  <energy>  (29) 
-8.36

>  <cluster_rmsd>  (29) 
1.69

>  <cluster>  (29) 
1

$$$$

     RDKit          3D

 47 50  0  0  0  0  0  0  0  0999 V2000
  139.6190   73.5280  222.4110 O   0  0  0  0  0  0  0  0  0  0  0  0
  140.2810   72.4450  222.4400 C   0  0  0  0  0  0  0  0  0  0  0  0
  141.0970   72.0930  221.3310 N   0  0  0  0  0  0  0  0  0  0  0  0
  141.1370   72.9940  220.2000 C   0  0  0  0  0  0  0  0  0  0  0  0
  142.3730   73.8140  220.2780 C   0  0  0  0  0  0  0  0  0  0  0  0
  143.5310   73.3460  220.1270 O   0  0  0  0  0  0  0  0  0  0  0  0
  142.2510   75.2060  220.5400 N   0  0  0  0  0  0  0  0  0  0  0  0
  142.8570   76.3330  219.8590 C   0  0  0  0  0  0  0  0  0  0  0  0
  141.6950   77.2720  219.7220 C   0  0  0  0  0  0  0  0  0  0  0  0
  140.9120   77.1010  220.9560 C   0  0  2  0  0  0  0  0  0  0  0  0
  141.0010   78.1860  221.9550 C   0  0  0  0  0  0  0  0  0  0  0  0
  140.0310   78.5190  222.8510 C   0  0  0  0  0  0  0  0  0  0  0  0
  140.1930   79.5510  223.7550 C   0  0  0  0  0  0  0  0  0  0  0  0
  141.3200   80.2720  223.7880 N   0  0  0  0  0  0  0  0  0  0  0  0
  142.3180   79.9840  222.9200 C   0  0  0  0  0  0  0  0  0  0  0  0
  142.1750   78.9530  222.0060 C   0  0  0  0  0  0  0  0  0  0  0  0
  141.4490   75.8390  221.5980 C   0  0  0  0  0  0  0  0  0  0  0  0
  140.2040   71.5690  223.6110 C   0  0  0  0  0  0  0  0  0  0  0  0
  139.5970   70.3390  223.4970 C   0  0  0  0  0  0  0  0  0  0  0  0
  139.4760   69.4460  224.5410 C   0  0  0  0  0  0  0  0  0  0  0  0
  139.9970   69.8210  225.7580 C   0  0  0  0  0  0  0  0  0  0  0  0
  139.8810   68.9350  226.8060 C   0  0  0  0  0  0  0  0  0  0  0  0
  140.4000   69.3030  228.0300 C   0  0  0  0  0  0  0  0  0  0  0  0
  140.2720   68.4070  229.0570 F   0  0  0  0  0  0  0  0  0  0  0  0
  141.0110   70.5230  228.1780 C   0  0  0  0  0  0  0  0  0  0  0  0
  141.1140   71.4010  227.0970 C   0  0  0  0  0  0  0  0  0  0  0  0
  140.6020   71.0540  225.8630 C   0  0  0  0  0  0  0  0  0  0  0  0
  140.7030   71.9080  224.8130 N   0  0  0  0  0  0  0  0  0  0  0  0
  141.6630   71.1970  221.3240 H   0  0  0  0  0  0  0  0  0  0  0  0
  141.1381   72.4133  219.2658 H   0  0  0  0  0  0  0  0  0  0  0  0
  140.2543   73.6501  220.2163 H   0  0  0  0  0  0  0  0  0  0  0  0
  143.6627   76.7784  220.4611 H   0  0  0  0  0  0  0  0  0  0  0  0
  143.3325   76.0712  218.9022 H   0  0  0  0  0  0  0  0  0  0  0  0
  142.0470   78.3101  219.6294 H   0  0  0  0  0  0  0  0  0  0  0  0
  141.0976   77.0579  218.8235 H   0  0  0  0  0  0  0  0  0  0  0  0
  139.8518   77.0818  220.6633 H   0  0  0  0  0  0  0  0  0  0  0  0
  139.0902   77.9491  222.8550 H   0  0  0  0  0  0  0  0  0  0  0  0
  139.3815   79.7842  224.4600 H   0  0  0  0  0  0  0  0  0  0  0  0
  143.2475   80.5718  222.9406 H   0  0  0  0  0  0  0  0  0  0  0  0
  142.9959   78.7317  221.3081 H   0  0  0  0  0  0  0  0  0  0  0  0
  142.0751   76.0811  222.4694 H   0  0  0  0  0  0  0  0  0  0  0  0
  140.6480   75.1821  221.9681 H   0  0  0  0  0  0  0  0  0  0  0  0
  139.1852   70.0521  222.5182 H   0  0  0  0  0  0  0  0  0  0  0  0
  138.9824   68.4723  224.4061 H   0  0  0  0  0  0  0  0  0  0  0  0
  139.3882   67.9609  226.6708 H   0  0  0  0  0  0  0  0  0  0  0  0
  141.4230   70.8116  229.1562 H   0  0  0  0  0  0  0  0  0  0  0  0
  141.6064   72.3756  227.2298 H   0  0  0  0  0  0  0  0  0  0  0  0
  1  2  2  0
  2  3  1  0
  3  4  1  0
  4  5  1  0
  5  6  2  0
  5  7  1  0
  7  8  1  0
  8  9  1  0
  9 10  1  0
 10 11  1  0
 11 12  2  0
 12 13  1  0
 13 14  2  0
 14 15  1  0
 15 16  2  0
 10 17  1  0
  2 18  1  0
 18 19  2  0
 19 20  1  0
 20 21  2  0
 21 22  1  0
 22 23  2  0
 23 24  1  0
 23 25  1  0
 25 26  2  0
 26 27  1  0
 27 28  2  0
 17  7  1  0
 28 18  1  0
 16 11  1  0
 27 21  1  0
  3 29  1  0
  4 30  1  0
  4 31  1  0
  8 32  1  0
  8 33  1  0
  9 34  1  0
  9 35  1  0
 10 36  1  6
 12 37  1  0
 13 38  1  0
 15 39  1  0
 16 40  1  0
 17 41  1  0
 17 42  1  0
 19 43  1  0
 20 44  1  0
 22 45  1  0
 25 46  1  0
 26 47  1  0
M  END
>  <smiles>  (30) 
O=C(NCC(=O)N1CC[C@H](c2ccncc2)C1)c1ccc2cc(F)ccc2n1

>  <score_type>  (30) 
oracle

>  <origin>  (30) 
autodockgpu

>  <m_score__min__energy>  (30) 
-8.7400000000000002

>  <m_primary>  (30) 
energy

>  <rmsd>  (30) 
2.5920085781682833

>  <m_score__min__rmsd>  (30) 
2.5920085781682833

>  <meeko>  (30) 
{"free_energy": -8.18, "intermolecular_energy": -9.67, "internal_energy": -1.15, "cluster_size": 42, "cluster_id": 1, "rank_in_cluster": 42}

>  <energy>  (30) 
-8.36

>  <cluster_rmsd>  (30) 
1.69

>  <cluster>  (30) 
1

$$$$

     RDKit          3D

 47 50  0  0  0  0  0  0  0  0999 V2000
  139.9150   73.6970  222.7010 O   0  0  0  0  0  0  0  0  0  0  0  0
  140.2620   72.4830  222.5650 C   0  0  0  0  0  0  0  0  0  0  0  0
  140.7040   72.0190  221.2970 N   0  0  0  0  0  0  0  0  0  0  0  0
  140.7360   72.9600  220.1980 C   0  0  0  0  0  0  0  0  0  0  0  0
  142.0950   73.5530  220.1100 C   0  0  0  0  0  0  0  0  0  0  0  0
  143.1260   72.8940  219.8180 O   0  0  0  0  0  0  0  0  0  0  0  0
  142.2500   74.9420  220.3690 N   0  0  0  0  0  0  0  0  0  0  0  0
  143.1980   75.8880  219.8140 C   0  0  0  0  0  0  0  0  0  0  0  0
  142.3160   77.0610  219.5050 C   0  0  0  0  0  0  0  0  0  0  0  0
  141.3240   77.0990  220.5920 C   0  0  2  0  0  0  0  0  0  0  0  0
  141.4930   78.1580  221.6080 C   0  0  0  0  0  0  0  0  0  0  0  0
  141.3500   77.9940  222.9520 C   0  0  0  0  0  0  0  0  0  0  0  0
  141.5260   79.0400  223.8390 C   0  0  0  0  0  0  0  0  0  0  0  0
  141.8470   80.2660  223.4090 N   0  0  0  0  0  0  0  0  0  0  0  0
  142.0030   80.4840  222.0820 C   0  0  0  0  0  0  0  0  0  0  0  0
  141.8310   79.4500  221.1780 C   0  0  0  0  0  0  0  0  0  0  0  0
  141.4510   75.7630  221.2930 C   0  0  0  0  0  0  0  0  0  0  0  0
  140.2100   71.5730  223.7110 C   0  0  0  0  0  0  0  0  0  0  0  0
  139.6500   70.3250  223.5570 C   0  0  0  0  0  0  0  0  0  0  0  0
  139.5550   69.3990  224.5750 C   0  0  0  0  0  0  0  0  0  0  0  0
  140.0530   69.7590  225.8070 C   0  0  0  0  0  0  0  0  0  0  0  0
  139.9620   68.8400  226.8290 C   0  0  0  0  0  0  0  0  0  0  0  0
  140.4580   69.1930  228.0670 C   0  0  0  0  0  0  0  0  0  0  0  0
  140.3570   68.2650  229.0670 F   0  0  0  0  0  0  0  0  0  0  0  0
  141.0220   70.4300  228.2530 C   0  0  0  0  0  0  0  0  0  0  0  0
  141.1000   71.3410  227.1980 C   0  0  0  0  0  0  0  0  0  0  0  0
  140.6110   71.0110  225.9500 C   0  0  0  0  0  0  0  0  0  0  0  0
  140.6870   71.8970  224.9260 N   0  0  0  0  0  0  0  0  0  0  0  0
  141.0010   71.0130  221.1500 H   0  0  0  0  0  0  0  0  0  0  0  0
  140.4994   72.4386  219.2588 H   0  0  0  0  0  0  0  0  0  0  0  0
  139.9937   73.7541  220.3663 H   0  0  0  0  0  0  0  0  0  0  0  0
  143.9748   76.1530  220.5464 H   0  0  0  0  0  0  0  0  0  0  0  0
  143.7514   75.5054  218.9437 H   0  0  0  0  0  0  0  0  0  0  0  0
  142.9037   77.9907  219.4872 H   0  0  0  0  0  0  0  0  0  0  0  0
  141.8392   76.9665  218.5182 H   0  0  0  0  0  0  0  0  0  0  0  0
  140.3486   77.3130  220.1308 H   0  0  0  0  0  0  0  0  0  0  0  0
  141.0868   77.0004  223.3436 H   0  0  0  0  0  0  0  0  0  0  0  0
  141.4000   78.8613  224.9170 H   0  0  0  0  0  0  0  0  0  0  0  0
  142.2679   81.4884  221.7202 H   0  0  0  0  0  0  0  0  0  0  0  0
  141.9616   79.6447  220.1033 H   0  0  0  0  0  0  0  0  0  0  0  0
  141.9663   75.8768  222.2582 H   0  0  0  0  0  0  0  0  0  0  0  0
  140.4733   75.3118  221.5179 H   0  0  0  0  0  0  0  0  0  0  0  0
  139.2563   70.0509  222.5671 H   0  0  0  0  0  0  0  0  0  0  0  0
  139.0992   68.4117  224.4090 H   0  0  0  0  0  0  0  0  0  0  0  0
  139.5067   67.8525  226.6627 H   0  0  0  0  0  0  0  0  0  0  0  0
  141.4162   70.7063  229.2421 H   0  0  0  0  0  0  0  0  0  0  0  0
  141.5545   72.3291  227.3624 H   0  0  0  0  0  0  0  0  0  0  0  0
  1  2  2  0
  2  3  1  0
  3  4  1  0
  4  5  1  0
  5  6  2  0
  5  7  1  0
  7  8  1  0
  8  9  1  0
  9 10  1  0
 10 11  1  0
 11 12  2  0
 12 13  1  0
 13 14  2  0
 14 15  1  0
 15 16  2  0
 10 17  1  0
  2 18  1  0
 18 19  2  0
 19 20  1  0
 20 21  2  0
 21 22  1  0
 22 23  2  0
 23 24  1  0
 23 25  1  0
 25 26  2  0
 26 27  1  0
 27 28  2  0
 17  7  1  0
 28 18  1  0
 16 11  1  0
 27 21  1  0
  3 29  1  0
  4 30  1  0
  4 31  1  0
  8 32  1  0
  8 33  1  0
  9 34  1  0
  9 35  1  0
 10 36  1  6
 12 37  1  0
 13 38  1  0
 15 39  1  0
 16 40  1  0
 17 41  1  0
 17 42  1  0
 19 43  1  0
 20 44  1  0
 22 45  1  0
 25 46  1  0
 26 47  1  0
M  END
>  <smiles>  (31) 
O=C(NCC(=O)N1CC[C@H](c2ccncc2)C1)c1ccc2cc(F)ccc2n1

>  <score_type>  (31) 
oracle

>  <origin>  (31) 
autodockgpu

>  <m_score__min__energy>  (31) 
-8.7400000000000002

>  <m_primary>  (31) 
energy

>  <rmsd>  (31) 
2.494488483217249

>  <m_score__min__rmsd>  (31) 
2.494488483217249

>  <meeko>  (31) 
{"free_energy": -8.36, "intermolecular_energy": -9.86, "internal_energy": -1.13, "cluster_size": 42, "cluster_id": 1, "rank_in_cluster": 29}

>  <energy>  (31) 
-8.32

>  <cluster_rmsd>  (31) 
1.23

>  <cluster>  (31) 
1

$$$$

     RDKit          3D

 47 50  0  0  0  0  0  0  0  0999 V2000
  140.6710   71.7800  221.2160 O   0  0  0  0  0  0  0  0  0  0  0  0
  140.1740   72.2640  222.2800 C   0  0  0  0  0  0  0  0  0  0  0  0
  139.6690   73.5920  222.2760 N   0  0  0  0  0  0  0  0  0  0  0  0
  139.7440   74.3470  221.0440 C   0  0  0  0  0  0  0  0  0  0  0  0
  141.1510   74.7670  220.8200 C   0  0  0  0  0  0  0  0  0  0  0  0
  142.0810   73.9670  220.5450 O   0  0  0  0  0  0  0  0  0  0  0  0
  141.4730   76.1480  220.9190 N   0  0  0  0  0  0  0  0  0  0  0  0
  142.3480   76.9570  220.0940 C   0  0  0  0  0  0  0  0  0  0  0  0
  141.5190   78.1890  219.8820 C   0  0  0  0  0  0  0  0  0  0  0  0
  140.8010   78.3960  221.1500 C   0  0  2  0  0  0  0  0  0  0  0  0
  141.2780   79.4970  222.0120 C   0  0  0  0  0  0  0  0  0  0  0  0
  140.9630   80.8130  221.8610 C   0  0  0  0  0  0  0  0  0  0  0  0
  141.4530   81.7850  222.7130 C   0  0  0  0  0  0  0  0  0  0  0  0
  142.2630   81.4690  223.7300 N   0  0  0  0  0  0  0  0  0  0  0  0
  142.6080   80.1750  223.9280 C   0  0  0  0  0  0  0  0  0  0  0  0
  142.1280   79.1870  223.0850 C   0  0  0  0  0  0  0  0  0  0  0  0
  140.9700   77.1030  221.9200 C   0  0  0  0  0  0  0  0  0  0  0  0
  140.1230   71.4550  223.5000 C   0  0  0  0  0  0  0  0  0  0  0  0
  139.5610   70.2000  223.4550 C   0  0  0  0  0  0  0  0  0  0  0  0
  139.4670   69.3640  224.5490 C   0  0  0  0  0  0  0  0  0  0  0  0
  139.9700   69.8270  225.7440 C   0  0  0  0  0  0  0  0  0  0  0  0
  139.8810   69.0000  226.8410 C   0  0  0  0  0  0  0  0  0  0  0  0
  140.3810   69.4560  228.0430 C   0  0  0  0  0  0  0  0  0  0  0  0
  140.2810   68.6180  229.1200 F   0  0  0  0  0  0  0  0  0  0  0  0
  140.9480   70.7040  228.1210 C   0  0  0  0  0  0  0  0  0  0  0  0
  141.0240   71.5210  226.9910 C   0  0  0  0  0  0  0  0  0  0  0  0
  140.5300   71.0860  225.7780 C   0  0  0  0  0  0  0  0  0  0  0  0
  140.6050   71.8800  224.6810 N   0  0  0  0  0  0  0  0  0  0  0  0
  139.2480   74.0250  223.1460 H   0  0  0  0  0  0  0  0  0  0  0  0
  139.4085   73.7191  220.2055 H   0  0  0  0  0  0  0  0  0  0  0  0
  139.0972   75.2342  221.1115 H   0  0  0  0  0  0  0  0  0  0  0  0
  143.2871   77.1914  220.6166 H   0  0  0  0  0  0  0  0  0  0  0  0
  142.6606   76.4650  219.1612 H   0  0  0  0  0  0  0  0  0  0  0  0
  142.1624   79.0526  219.6579 H   0  0  0  0  0  0  0  0  0  0  0  0
  140.8286   78.0780  219.0328 H   0  0  0  0  0  0  0  0  0  0  0  0
  139.7687   78.6750  220.8921 H   0  0  0  0  0  0  0  0  0  0  0  0
  140.2989   81.1116  221.0365 H   0  0  0  0  0  0  0  0  0  0  0  0
  141.1722   82.8363  222.5521 H   0  0  0  0  0  0  0  0  0  0  0  0
  143.2728   79.9072  224.7625 H   0  0  0  0  0  0  0  0  0  0  0  0
  142.4181   78.1403  223.2594 H   0  0  0  0  0  0  0  0  0  0  0  0
  141.6947   77.2282  222.7380 H   0  0  0  0  0  0  0  0  0  0  0  0
  140.0333   76.7669  222.3887 H   0  0  0  0  0  0  0  0  0  0  0  0
  139.1644   69.8429  222.4931 H   0  0  0  0  0  0  0  0  0  0  0  0
  139.0084   68.3673  224.4694 H   0  0  0  0  0  0  0  0  0  0  0  0
  139.4236   68.0028  226.7612 H   0  0  0  0  0  0  0  0  0  0  0  0
  141.3457   71.0633  229.0816 H   0  0  0  0  0  0  0  0  0  0  0  0
  141.4810   72.5186  227.0683 H   0  0  0  0  0  0  0  0  0  0  0  0
  1  2  2  0
  2  3  1  0
  3  4  1  0
  4  5  1  0
  5  6  2  0
  5  7  1  0
  7  8  1  0
  8  9  1  0
  9 10  1  0
 10 11  1  0
 11 12  2  0
 12 13  1  0
 13 14  2  0
 14 15  1  0
 15 16  2  0
 10 17  1  0
  2 18  1  0
 18 19  2  0
 19 20  1  0
 20 21  2  0
 21 22  1  0
 22 23  2  0
 23 24  1  0
 23 25  1  0
 25 26  2  0
 26 27  1  0
 27 28  2  0
 17  7  1  0
 28 18  1  0
 16 11  1  0
 27 21  1  0
  3 29  1  0
  4 30  1  0
  4 31  1  0
  8 32  1  0
  8 33  1  0
  9 34  1  0
  9 35  1  0
 10 36  1  6
 12 37  1  0
 13 38  1  0
 15 39  1  0
 16 40  1  0
 17 41  1  0
 17 42  1  0
 19 43  1  0
 20 44  1  0
 22 45  1  0
 25 46  1  0
 26 47  1  0
M  END
>  <smiles>  (32) 
O=C(NCC(=O)N1CC[C@H](c2ccncc2)C1)c1ccc2cc(F)ccc2n1

>  <score_type>  (32) 
oracle

>  <origin>  (32) 
autodockgpu

>  <m_score__min__energy>  (32) 
-8.7400000000000002

>  <m_primary>  (32) 
energy

>  <rmsd>  (32) 
2.4479476785636796

>  <m_score__min__rmsd>  (32) 
2.4479476785636796

>  <meeko>  (32) 
{"free_energy": -8.62, "intermolecular_energy": -10.11, "internal_energy": -1.0, "cluster_size": 42, "cluster_id": 1, "rank_in_cluster": 9}

>  <energy>  (32) 
-8.32

>  <cluster_rmsd>  (32) 
0.95

>  <cluster>  (32) 
1

$$$$

     RDKit          3D

 47 50  0  0  0  0  0  0  0  0999 V2000
  141.3090   72.6500  222.0340 O   0  0  0  0  0  0  0  0  0  0  0  0
  140.2370   72.5280  222.7040 C   0  0  0  0  0  0  0  0  0  0  0  0
  139.1010   73.3050  222.3530 N   0  0  0  0  0  0  0  0  0  0  0  0
  139.2150   74.2160  221.2350 C   0  0  0  0  0  0  0  0  0  0  0  0
  138.8380   75.5810  221.6830 C   0  0  0  0  0  0  0  0  0  0  0  0
  137.6710   75.9070  222.0210 O   0  0  0  0  0  0  0  0  0  0  0  0
  139.8460   76.5830  221.7350 N   0  0  0  0  0  0  0  0  0  0  0  0
  141.1140   76.6570  221.0360 C   0  0  0  0  0  0  0  0  0  0  0  0
  141.1240   78.0820  220.5690 C   0  0  0  0  0  0  0  0  0  0  0  0
  140.4860   78.8490  221.6520 C   0  0  2  0  0  0  0  0  0  0  0  0
  141.3780   79.6670  222.5000 C   0  0  0  0  0  0  0  0  0  0  0  0
  142.7360   79.5880  222.5270 C   0  0  0  0  0  0  0  0  0  0  0  0
  143.5000   80.3920  223.3520 C   0  0  0  0  0  0  0  0  0  0  0  0
  142.9300   81.2890  224.1650 N   0  0  0  0  0  0  0  0  0  0  0  0
  141.5810   81.4100  224.1790 C   0  0  0  0  0  0  0  0  0  0  0  0
  140.7990   80.6140  223.3600 C   0  0  0  0  0  0  0  0  0  0  0  0
  139.8270   77.8150  222.5390 C   0  0  0  0  0  0  0  0  0  0  0  0
  140.1770   71.5910  223.8270 C   0  0  0  0  0  0  0  0  0  0  0  0
  139.6030   70.3530  223.6450 C   0  0  0  0  0  0  0  0  0  0  0  0
  139.5000   69.4040  224.6410 C   0  0  0  0  0  0  0  0  0  0  0  0
  140.0040   69.7290  225.8790 C   0  0  0  0  0  0  0  0  0  0  0  0
  139.9050   68.7870  226.8790 C   0  0  0  0  0  0  0  0  0  0  0  0
  140.4070   69.1040  228.1240 C   0  0  0  0  0  0  0  0  0  0  0  0
  140.2970   68.1530  229.1020 F   0  0  0  0  0  0  0  0  0  0  0  0
  140.9850   70.3300  228.3390 C   0  0  0  0  0  0  0  0  0  0  0  0
  141.0710   71.2650  227.3050 C   0  0  0  0  0  0  0  0  0  0  0  0
  140.5760   70.9700  226.0520 C   0  0  0  0  0  0  0  0  0  0  0  0
  140.6600   71.8800  225.0480 N   0  0  0  0  0  0  0  0  0  0  0  0
  138.1910   73.2280  222.8910 H   0  0  0  0  0  0  0  0  0  0  0  0
  140.2520   74.2216  220.8681 H   0  0  0  0  0  0  0  0  0  0  0  0
  138.5465   73.8935  220.4232 H   0  0  0  0  0  0  0  0  0  0  0  0
  141.9568   76.4512  221.7123 H   0  0  0  0  0  0  0  0  0  0  0  0
  141.2191   75.9216  220.2248 H   0  0  0  0  0  0  0  0  0  0  0  0
  142.1558   78.4277  220.4079 H   0  0  0  0  0  0  0  0  0  0  0  0
  140.5949   78.2043  219.6124 H   0  0  0  0  0  0  0  0  0  0  0  0
  139.8126   79.5775  221.1767 H   0  0  0  0  0  0  0  0  0  0  0  0
  143.2412   78.8624  221.8725 H   0  0  0  0  0  0  0  0  0  0  0  0
  144.5954   80.2927  223.3400 H   0  0  0  0  0  0  0  0  0  0  0  0
  141.1044   82.1447  224.8447 H   0  0  0  0  0  0  0  0  0  0  0  0
  139.7049   80.7252  223.3833 H   0  0  0  0  0  0  0  0  0  0  0  0
  140.3959   77.6812  223.4709 H   0  0  0  0  0  0  0  0  0  0  0  0
  138.8096   78.1056  222.8397 H   0  0  0  0  0  0  0  0  0  0  0  0
  139.2042   70.1067  222.6499 H   0  0  0  0  0  0  0  0  0  0  0  0
  139.0332   68.4259  224.4526 H   0  0  0  0  0  0  0  0  0  0  0  0
  139.4385   67.8089  226.6900 H   0  0  0  0  0  0  0  0  0  0  0  0
  141.3838   70.5783  229.3337 H   0  0  0  0  0  0  0  0  0  0  0  0
  141.5370   72.2438  227.4914 H   0  0  0  0  0  0  0  0  0  0  0  0
  1  2  2  0
  2  3  1  0
  3  4  1  0
  4  5  1  0
  5  6  2  0
  5  7  1  0
  7  8  1  0
  8  9  1  0
  9 10  1  0
 10 11  1  0
 11 12  2  0
 12 13  1  0
 13 14  2  0
 14 15  1  0
 15 16  2  0
 10 17  1  0
  2 18  1  0
 18 19  2  0
 19 20  1  0
 20 21  2  0
 21 22  1  0
 22 23  2  0
 23 24  1  0
 23 25  1  0
 25 26  2  0
 26 27  1  0
 27 28  2  0
 17  7  1  0
 28 18  1  0
 16 11  1  0
 27 21  1  0
  3 29  1  0
  4 30  1  0
  4 31  1  0
  8 32  1  0
  8 33  1  0
  9 34  1  0
  9 35  1  0
 10 36  1  6
 12 37  1  0
 13 38  1  0
 15 39  1  0
 16 40  1  0
 17 41  1  0
 17 42  1  0
 19 43  1  0
 20 44  1  0
 22 45  1  0
 25 46  1  0
 26 47  1  0
M  END
>  <smiles>  (33) 
O=C(NCC(=O)N1CC[C@H](c2ccncc2)C1)c1ccc2cc(F)ccc2n1

>  <score_type>  (33) 
oracle

>  <origin>  (33) 
autodockgpu

>  <m_score__min__energy>  (33) 
-8.7400000000000002

>  <m_primary>  (33) 
energy

>  <rmsd>  (33) 
2.7307005554186037

>  <m_score__min__rmsd>  (33) 
2.7307005554186037

>  <meeko>  (33) 
{"free_energy": -8.57, "intermolecular_energy": -10.06, "internal_energy": -1.05, "cluster_size": 42, "cluster_id": 1, "rank_in_cluster": 16}

>  <energy>  (33) 
-8.32

>  <cluster_rmsd>  (33) 
1.1

>  <cluster>  (33) 
1

$$$$

     RDKit          3D

 47 50  0  0  0  0  0  0  0  0999 V2000
  140.4440   71.6670  221.8090 O   0  0  0  0  0  0  0  0  0  0  0  0
  139.5940   71.7100  222.7520 C   0  0  0  0  0  0  0  0  0  0  0  0
  138.4930   72.6030  222.6610 N   0  0  0  0  0  0  0  0  0  0  0  0
  138.3860   73.4390  221.4840 C   0  0  0  0  0  0  0  0  0  0  0  0
  139.4320   74.4920  221.5430 C   0  0  0  0  0  0  0  0  0  0  0  0
  139.3590   75.5060  222.2830 O   0  0  0  0  0  0  0  0  0  0  0  0
  140.5820   74.3550  220.7190 N   0  0  0  0  0  0  0  0  0  0  0  0
  140.6790   74.2160  219.2790 C   0  0  0  0  0  0  0  0  0  0  0  0
  141.7870   75.1720  218.9520 C   0  0  0  0  0  0  0  0  0  0  0  0
  142.7350   75.0650  220.0740 C   0  0  2  0  0  0  0  0  0  0  0  0
  143.9920   74.3330  219.8140 C   0  0  0  0  0  0  0  0  0  0  0  0
  144.9620   74.0760  220.7330 C   0  0  0  0  0  0  0  0  0  0  0  0
  146.1120   73.3820  220.4080 C   0  0  0  0  0  0  0  0  0  0  0  0
  146.3210   72.9300  219.1660 N   0  0  0  0  0  0  0  0  0  0  0  0
  145.3870   73.1570  218.2120 C   0  0  0  0  0  0  0  0  0  0  0  0
  144.2290   73.8500  218.5170 C   0  0  0  0  0  0  0  0  0  0  0  0
  141.9860   74.3230  221.1590 C   0  0  0  0  0  0  0  0  0  0  0  0
  139.7510   70.8420  223.9210 C   0  0  0  0  0  0  0  0  0  0  0  0
  139.2680   69.5540  223.8760 C   0  0  0  0  0  0  0  0  0  0  0  0
  139.3680   68.6630  224.9240 C   0  0  0  0  0  0  0  0  0  0  0  0
  139.9890   69.1030  226.0710 C   0  0  0  0  0  0  0  0  0  0  0  0
  140.0940   68.2200  227.1230 C   0  0  0  0  0  0  0  0  0  0  0  0
  140.7140   68.6520  228.2770 C   0  0  0  0  0  0  0  0  0  0  0  0
  140.8060   67.7580  229.3090 F   0  0  0  0  0  0  0  0  0  0  0  0
  141.2060   69.9300  228.3540 C   0  0  0  0  0  0  0  0  0  0  0  0
  141.0850   70.8040  227.2700 C   0  0  0  0  0  0  0  0  0  0  0  0
  140.4690   70.3940  226.1060 C   0  0  0  0  0  0  0  0  0  0  0  0
  140.3520   71.2430  225.0550 N   0  0  0  0  0  0  0  0  0  0  0  0
  137.7670   72.6640  223.4300 H   0  0  0  0  0  0  0  0  0  0  0  0
  138.5299   72.8262  220.5819 H   0  0  0  0  0  0  0  0  0  0  0  0
  137.3904   73.9053  221.4482 H   0  0  0  0  0  0  0  0  0  0  0  0
  140.9407   73.1866  218.9928 H   0  0  0  0  0  0  0  0  0  0  0  0
  139.7391   74.4250  218.7472 H   0  0  0  0  0  0  0  0  0  0  0  0
  142.2742   74.8888  218.0073 H   0  0  0  0  0  0  0  0  0  0  0  0
  141.4176   76.2001  218.8233 H   0  0  0  0  0  0  0  0  0  0  0  0
  143.0575   76.0873  220.3210 H   0  0  0  0  0  0  0  0  0  0  0  0
  144.8268   74.4312  221.7653 H   0  0  0  0  0  0  0  0  0  0  0  0
  146.8692   73.1978  221.1843 H   0  0  0  0  0  0  0  0  0  0  0  0
  145.5500   72.7882  217.1886 H   0  0  0  0  0  0  0  0  0  0  0  0
  143.4810   74.0256  217.7298 H   0  0  0  0  0  0  0  0  0  0  0  0
  142.3450   73.2865  221.2413 H   0  0  0  0  0  0  0  0  0  0  0  0
  142.1257   74.7764  222.1514 H   0  0  0  0  0  0  0  0  0  0  0  0
  138.7747   69.2164  222.9526 H   0  0  0  0  0  0  0  0  0  0  0  0
  138.9675   67.6415  224.8464 H   0  0  0  0  0  0  0  0  0  0  0  0
  139.6943   67.1982  227.0450 H   0  0  0  0  0  0  0  0  0  0  0  0
  141.6998   70.2698  229.2763 H   0  0  0  0  0  0  0  0  0  0  0  0
  141.4840   71.8263  227.3457 H   0  0  0  0  0  0  0  0  0  0  0  0
  1  2  2  0
  2  3  1  0
  3  4  1  0
  4  5  1  0
  5  6  2  0
  5  7  1  0
  7  8  1  0
  8  9  1  0
  9 10  1  0
 10 11  1  0
 11 12  2  0
 12 13  1  0
 13 14  2  0
 14 15  1  0
 15 16  2  0
 10 17  1  0
  2 18  1  0
 18 19  2  0
 19 20  1  0
 20 21  2  0
 21 22  1  0
 22 23  2  0
 23 24  1  0
 23 25  1  0
 25 26  2  0
 26 27  1  0
 27 28  2  0
 17  7  1  0
 28 18  1  0
 16 11  1  0
 27 21  1  0
  3 29  1  0
  4 30  1  0
  4 31  1  0
  8 32  1  0
  8 33  1  0
  9 34  1  0
  9 35  1  0
 10 36  1  1
 12 37  1  0
 13 38  1  0
 15 39  1  0
 16 40  1  0
 17 41  1  0
 17 42  1  0
 19 43  1  0
 20 44  1  0
 22 45  1  0
 25 46  1  0
 26 47  1  0
M  END
>  <smiles>  (34) 
O=C(NCC(=O)N1CC[C@H](c2ccncc2)C1)c1ccc2cc(F)ccc2n1

>  <score_type>  (34) 
oracle

>  <origin>  (34) 
autodockgpu

>  <m_score__min__energy>  (34) 
-8.7400000000000002

>  <m_primary>  (34) 
energy

>  <rmsd>  (34) 
2.1209620293344487

>  <m_score__min__rmsd>  (34) 
2.1209620293344487

>  <meeko>  (34) 
{"free_energy": -8.27, "intermolecular_energy": -9.76, "internal_energy": -1.18, "cluster_size": 8, "cluster_id": 2, "rank_in_cluster": 2}

>  <energy>  (34) 
-8.31

>  <cluster_rmsd>  (34) 
1.0

>  <cluster>  (34) 
1

$$$$

     RDKit          3D

 47 50  0  0  0  0  0  0  0  0999 V2000
  141.0790   72.7200  222.0460 O   0  0  0  0  0  0  0  0  0  0  0  0
  140.0250   72.4800  222.7100 C   0  0  0  0  0  0  0  0  0  0  0  0
  138.8130   73.1340  222.3600 N   0  0  0  0  0  0  0  0  0  0  0  0
  138.8330   74.0610  221.2490 C   0  0  0  0  0  0  0  0  0  0  0  0
  138.5720   75.4320  221.7590 C   0  0  0  0  0  0  0  0  0  0  0  0
  137.4310   75.8520  222.0790 O   0  0  0  0  0  0  0  0  0  0  0  0
  139.6690   76.3260  221.8960 N   0  0  0  0  0  0  0  0  0  0  0  0
  141.0810   76.1020  221.6580 C   0  0  0  0  0  0  0  0  0  0  0  0
  141.4620   77.3330  220.8900 C   0  0  0  0  0  0  0  0  0  0  0  0
  140.6670   78.4210  221.4810 C   0  0  2  0  0  0  0  0  0  0  0  0
  141.3870   79.3740  222.3510 C   0  0  0  0  0  0  0  0  0  0  0  0
  142.7300   79.3820  222.5740 C   0  0  0  0  0  0  0  0  0  0  0  0
  143.3290   80.3100  223.4040 C   0  0  0  0  0  0  0  0  0  0  0  0
  142.6060   81.2480  224.0290 N   0  0  0  0  0  0  0  0  0  0  0  0
  141.2660   81.2860  223.8430 C   0  0  0  0  0  0  0  0  0  0  0  0
  140.6470   80.3650  223.0150 C   0  0  0  0  0  0  0  0  0  0  0  0
  139.6150   77.7330  222.3240 C   0  0  0  0  0  0  0  0  0  0  0  0
  140.0600   71.5320  223.8260 C   0  0  0  0  0  0  0  0  0  0  0  0
  139.5840   70.2540  223.6430 C   0  0  0  0  0  0  0  0  0  0  0  0
  139.5750   69.2920  224.6320 C   0  0  0  0  0  0  0  0  0  0  0  0
  140.0760   69.6470  225.8640 C   0  0  0  0  0  0  0  0  0  0  0  0
  140.0720   68.6930  226.8570 C   0  0  0  0  0  0  0  0  0  0  0  0
  140.5710   69.0400  228.0960 C   0  0  0  0  0  0  0  0  0  0  0  0
  140.5560   68.0760  229.0670 F   0  0  0  0  0  0  0  0  0  0  0  0
  141.0540   70.3070  228.3110 C   0  0  0  0  0  0  0  0  0  0  0  0
  141.0450   71.2530  227.2840 C   0  0  0  0  0  0  0  0  0  0  0  0
  140.5510   70.9290  226.0370 C   0  0  0  0  0  0  0  0  0  0  0  0
  140.5420   71.8500  225.0400 N   0  0  0  0  0  0  0  0  0  0  0  0
  137.9150   72.9560  222.8940 H   0  0  0  0  0  0  0  0  0  0  0  0
  139.8182   74.0304  220.7606 H   0  0  0  0  0  0  0  0  0  0  0  0
  138.0594   73.7825  220.5183 H   0  0  0  0  0  0  0  0  0  0  0  0
  141.6399   76.0303  222.6027 H   0  0  0  0  0  0  0  0  0  0  0  0
  141.3001   75.1621  221.1302 H   0  0  0  0  0  0  0  0  0  0  0  0
  142.5372   77.5381  220.9995 H   0  0  0  0  0  0  0  0  0  0  0  0
  141.2674   77.2211  219.8132 H   0  0  0  0  0  0  0  0  0  0  0  0
  140.2948   79.0356  220.6481 H   0  0  0  0  0  0  0  0  0  0  0  0
  143.3574   78.6266  222.0782 H   0  0  0  0  0  0  0  0  0  0  0  0
  144.4182   80.2778  223.5540 H   0  0  0  0  0  0  0  0  0  0  0  0
  140.6649   82.0534  224.3528 H   0  0  0  0  0  0  0  0  0  0  0  0
  139.5569   80.4106  222.8751 H   0  0  0  0  0  0  0  0  0  0  0  0
  139.8524   77.8241  223.3942 H   0  0  0  0  0  0  0  0  0  0  0  0
  138.6161   78.1743  222.1921 H   0  0  0  0  0  0  0  0  0  0  0  0
  139.1885   69.9842  222.6527 H   0  0  0  0  0  0  0  0  0  0  0  0
  139.1831   68.2816  224.4435 H   0  0  0  0  0  0  0  0  0  0  0  0
  139.6818   67.6821  226.6678 H   0  0  0  0  0  0  0  0  0  0  0  0
  141.4512   70.5790  229.3001 H   0  0  0  0  0  0  0  0  0  0  0  0
  141.4348   72.2646  227.4705 H   0  0  0  0  0  0  0  0  0  0  0  0
  1  2  2  0
  2  3  1  0
  3  4  1  0
  4  5  1  0
  5  6  2  0
  5  7  1  0
  7  8  1  0
  8  9  1  0
  9 10  1  0
 10 11  1  0
 11 12  2  0
 12 13  1  0
 13 14  2  0
 14 15  1  0
 15 16  2  0
 10 17  1  0
  2 18  1  0
 18 19  2  0
 19 20  1  0
 20 21  2  0
 21 22  1  0
 22 23  2  0
 23 24  1  0
 23 25  1  0
 25 26  2  0
 26 27  1  0
 27 28  2  0
 17  7  1  0
 28 18  1  0
 16 11  1  0
 27 21  1  0
  3 29  1  0
  4 30  1  0
  4 31  1  0
  8 32  1  0
  8 33  1  0
  9 34  1  0
  9 35  1  0
 10 36  1  6
 12 37  1  0
 13 38  1  0
 15 39  1  0
 16 40  1  0
 17 41  1  0
 17 42  1  0
 19 43  1  0
 20 44  1  0
 22 45  1  0
 25 46  1  0
 26 47  1  0
M  END
>  <smiles>  (35) 
O=C(NCC(=O)N1CC[C@H](c2ccncc2)C1)c1ccc2cc(F)ccc2n1

>  <score_type>  (35) 
oracle

>  <origin>  (35) 
autodockgpu

>  <m_score__min__energy>  (35) 
-8.7400000000000002

>  <m_primary>  (35) 
energy

>  <rmsd>  (35) 
2.6377003624800115

>  <m_score__min__rmsd>  (35) 
2.6377003624800115

>  <meeko>  (35) 
{"free_energy": -8.74, "intermolecular_energy": -10.23, "internal_energy": -1.08, "cluster_size": 42, "cluster_id": 1, "rank_in_cluster": 1}

>  <energy>  (35) 
-8.3

>  <cluster_rmsd>  (35) 
0.71

>  <cluster>  (35) 
1

$$$$

     RDKit          3D

 47 50  0  0  0  0  0  0  0  0999 V2000
  140.8220   71.7810  221.2630 O   0  0  0  0  0  0  0  0  0  0  0  0
  140.2440   72.2490  222.2920 C   0  0  0  0  0  0  0  0  0  0  0  0
  139.6840   73.5540  222.2480 N   0  0  0  0  0  0  0  0  0  0  0  0
  139.7990   74.3050  221.0160 C   0  0  0  0  0  0  0  0  0  0  0  0
  141.1860   74.8220  220.8930 C   0  0  0  0  0  0  0  0  0  0  0  0
  142.1890   74.0870  220.7070 O   0  0  0  0  0  0  0  0  0  0  0  0
  141.4010   76.2240  220.9920 N   0  0  0  0  0  0  0  0  0  0  0  0
  141.9650   77.1440  220.0240 C   0  0  0  0  0  0  0  0  0  0  0  0
  141.0050   78.2940  220.0980 C   0  0  0  0  0  0  0  0  0  0  0  0
  140.6160   78.3840  221.5140 C   0  0  2  0  0  0  0  0  0  0  0  0
  141.1970   79.4960  222.2940 C   0  0  0  0  0  0  0  0  0  0  0  0
  141.0230   80.8210  222.0340 C   0  0  0  0  0  0  0  0  0  0  0  0
  141.6030   81.8030  222.8140 C   0  0  0  0  0  0  0  0  0  0  0  0
  142.3660   81.4880  223.8680 N   0  0  0  0  0  0  0  0  0  0  0  0
  142.5730   80.1860  224.1730 C   0  0  0  0  0  0  0  0  0  0  0  0
  142.0000   79.1870  223.4030 C   0  0  0  0  0  0  0  0  0  0  0  0
  141.0860   77.0880  222.1400 C   0  0  0  0  0  0  0  0  0  0  0  0
  140.1560   71.4450  223.5130 C   0  0  0  0  0  0  0  0  0  0  0  0
  139.5200   70.2250  223.4750 C   0  0  0  0  0  0  0  0  0  0  0  0
  139.3860   69.3980  224.5700 C   0  0  0  0  0  0  0  0  0  0  0  0
  139.9260   69.8310  225.7600 C   0  0  0  0  0  0  0  0  0  0  0  0
  139.7980   69.0110  226.8590 C   0  0  0  0  0  0  0  0  0  0  0  0
  140.3350   69.4370  228.0560 C   0  0  0  0  0  0  0  0  0  0  0  0
  140.1950   68.6060  229.1340 F   0  0  0  0  0  0  0  0  0  0  0  0
  140.9760   70.6490  228.1270 C   0  0  0  0  0  0  0  0  0  0  0  0
  141.0910   71.4590  226.9950 C   0  0  0  0  0  0  0  0  0  0  0  0
  140.5610   71.0530  225.7880 C   0  0  0  0  0  0  0  0  0  0  0  0
  140.6730   71.8420  224.6890 N   0  0  0  0  0  0  0  0  0  0  0  0
  139.1950   73.9740  223.0890 H   0  0  0  0  0  0  0  0  0  0  0  0
  139.5725   73.6497  220.1620 H   0  0  0  0  0  0  0  0  0  0  0  0
  139.0886   75.1448  221.0248 H   0  0  0  0  0  0  0  0  0  0  0  0
  142.9817   77.4520  220.3093 H   0  0  0  0  0  0  0  0  0  0  0  0
  142.0733   76.7183  219.0155 H   0  0  0  0  0  0  0  0  0  0  0  0
  141.4927   79.2247  219.7725 H   0  0  0  0  0  0  0  0  0  0  0  0
  140.1346   78.1447  219.4421 H   0  0  0  0  0  0  0  0  0  0  0  0
  139.5318   78.5682  221.5376 H   0  0  0  0  0  0  0  0  0  0  0  0
  140.4016   81.1189  221.1766 H   0  0  0  0  0  0  0  0  0  0  0  0
  141.4350   82.8612  222.5648 H   0  0  0  0  0  0  0  0  0  0  0  0
  143.1996   79.9194  225.0369 H   0  0  0  0  0  0  0  0  0  0  0  0
  142.1774   78.1335  223.6652 H   0  0  0  0  0  0  0  0  0  0  0  0
  141.9800   77.2556  222.7586 H   0  0  0  0  0  0  0  0  0  0  0  0
  140.3309   76.6443  222.8056 H   0  0  0  0  0  0  0  0  0  0  0  0
  139.0947   69.8910  222.5171 H   0  0  0  0  0  0  0  0  0  0  0  0
  138.8681   68.4304  224.4957 H   0  0  0  0  0  0  0  0  0  0  0  0
  139.2816   68.0426  226.7843 H   0  0  0  0  0  0  0  0  0  0  0  0
  141.4026   70.9850  229.0836 H   0  0  0  0  0  0  0  0  0  0  0  0
  141.6078   72.4274  227.0665 H   0  0  0  0  0  0  0  0  0  0  0  0
  1  2  2  0
  2  3  1  0
  3  4  1  0
  4  5  1  0
  5  6  2  0
  5  7  1  0
  7  8  1  0
  8  9  1  0
  9 10  1  0
 10 11  1  0
 11 12  2  0
 12 13  1  0
 13 14  2  0
 14 15  1  0
 15 16  2  0
 10 17  1  0
  2 18  1  0
 18 19  2  0
 19 20  1  0
 20 21  2  0
 21 22  1  0
 22 23  2  0
 23 24  1  0
 23 25  1  0
 25 26  2  0
 26 27  1  0
 27 28  2  0
 17  7  1  0
 28 18  1  0
 16 11  1  0
 27 21  1  0
  3 29  1  0
  4 30  1  0
  4 31  1  0
  8 32  1  0
  8 33  1  0
  9 34  1  0
  9 35  1  0
 10 36  1  6
 12 37  1  0
 13 38  1  0
 15 39  1  0
 16 40  1  0
 17 41  1  0
 17 42  1  0
 19 43  1  0
 20 44  1  0
 22 45  1  0
 25 46  1  0
 26 47  1  0
M  END
>  <smiles>  (36) 
O=C(NCC(=O)N1CC[C@H](c2ccncc2)C1)c1ccc2cc(F)ccc2n1

>  <score_type>  (36) 
oracle

>  <origin>  (36) 
autodockgpu

>  <m_score__min__energy>  (36) 
-8.7400000000000002

>  <m_primary>  (36) 
energy

>  <rmsd>  (36) 
2.5550875901648524

>  <m_score__min__rmsd>  (36) 
2.5550875901648524

>  <meeko>  (36) 
{"free_energy": -8.59, "intermolecular_energy": -10.08, "internal_energy": -0.99, "cluster_size": 42, "cluster_id": 1, "rank_in_cluster": 13}

>  <energy>  (36) 
-8.3

>  <cluster_rmsd>  (36) 
1.08

>  <cluster>  (36) 
1

$$$$

     RDKit          3D

 47 50  0  0  0  0  0  0  0  0999 V2000
  140.8570   71.5850  221.3210 O   0  0  0  0  0  0  0  0  0  0  0  0
  140.2430   72.0570  222.3270 C   0  0  0  0  0  0  0  0  0  0  0  0
  139.6600   73.3510  222.2470 N   0  0  0  0  0  0  0  0  0  0  0  0
  139.7940   74.0850  221.0080 C   0  0  0  0  0  0  0  0  0  0  0  0
  141.1730   74.6290  220.9150 C   0  0  0  0  0  0  0  0  0  0  0  0
  142.1910   73.9190  220.7150 O   0  0  0  0  0  0  0  0  0  0  0  0
  141.3630   76.0310  221.0620 N   0  0  0  0  0  0  0  0  0  0  0  0
  141.8770   77.0000  220.1140 C   0  0  0  0  0  0  0  0  0  0  0  0
  140.8970   78.1250  220.2620 C   0  0  0  0  0  0  0  0  0  0  0  0
  140.5500   78.1520  221.6920 C   0  0  2  0  0  0  0  0  0  0  0  0
  141.1330   79.2460  222.4970 C   0  0  0  0  0  0  0  0  0  0  0  0
  140.4310   80.2390  223.1080 C   0  0  0  0  0  0  0  0  0  0  0  0
  141.0540   81.2280  223.8460 C   0  0  0  0  0  0  0  0  0  0  0  0
  142.3850   81.2500  223.9890 N   0  0  0  0  0  0  0  0  0  0  0  0
  143.1320   80.2860  223.4030 C   0  0  0  0  0  0  0  0  0  0  0  0
  142.5270   79.2860  222.6600 C   0  0  0  0  0  0  0  0  0  0  0  0
  141.0660   76.8430  222.2520 C   0  0  0  0  0  0  0  0  0  0  0  0
  140.1370   71.2710  223.5580 C   0  0  0  0  0  0  0  0  0  0  0  0
  139.5360   70.0340  223.5200 C   0  0  0  0  0  0  0  0  0  0  0  0
  139.3890   69.2210  224.6250 C   0  0  0  0  0  0  0  0  0  0  0  0
  139.8780   69.6870  225.8230 C   0  0  0  0  0  0  0  0  0  0  0  0
  139.7360   68.8820  226.9320 C   0  0  0  0  0  0  0  0  0  0  0  0
  140.2230   69.3420  228.1380 C   0  0  0  0  0  0  0  0  0  0  0  0
  140.0710   68.5250  229.2250 F   0  0  0  0  0  0  0  0  0  0  0  0
  140.8280   70.5720  228.2090 C   0  0  0  0  0  0  0  0  0  0  0  0
  140.9570   71.3670  227.0680 C   0  0  0  0  0  0  0  0  0  0  0  0
  140.4780   70.9270  225.8510 C   0  0  0  0  0  0  0  0  0  0  0  0
  140.6050   71.7010  224.7430 N   0  0  0  0  0  0  0  0  0  0  0  0
  139.1410   73.7750  223.0680 H   0  0  0  0  0  0  0  0  0  0  0  0
  139.6048   73.4123  220.1585 H   0  0  0  0  0  0  0  0  0  0  0  0
  139.0667   74.9099  220.9841 H   0  0  0  0  0  0  0  0  0  0  0  0
  142.8956   77.3188  220.3799 H   0  0  0  0  0  0  0  0  0  0  0  0
  141.9618   76.6159  219.0867 H   0  0  0  0  0  0  0  0  0  0  0  0
  141.3555   79.0778  219.9587 H   0  0  0  0  0  0  0  0  0  0  0  0
  140.0100   77.9824  219.6273 H   0  0  0  0  0  0  0  0  0  0  0  0
  139.4635   78.3116  221.7560 H   0  0  0  0  0  0  0  0  0  0  0  0
  139.3353   80.2551  223.0117 H   0  0  0  0  0  0  0  0  0  0  0  0
  140.4459   82.0102  224.3239 H   0  0  0  0  0  0  0  0  0  0  0  0
  144.2260   80.2966  223.5174 H   0  0  0  0  0  0  0  0  0  0  0  0
  143.1490   78.5101  222.1897 H   0  0  0  0  0  0  0  0  0  0  0  0
  141.9751   77.0061  222.8494 H   0  0  0  0  0  0  0  0  0  0  0  0
  140.3412   76.3575  222.9220 H   0  0  0  0  0  0  0  0  0  0  0  0
  139.1512   69.6730  222.5548 H   0  0  0  0  0  0  0  0  0  0  0  0
  138.8998   68.2386  224.5507 H   0  0  0  0  0  0  0  0  0  0  0  0
  139.2475   67.8992  226.8579 H   0  0  0  0  0  0  0  0  0  0  0  0
  141.2146   70.9347  229.1729 H   0  0  0  0  0  0  0  0  0  0  0  0
  141.4438   72.3508  227.1400 H   0  0  0  0  0  0  0  0  0  0  0  0
  1  2  2  0
  2  3  1  0
  3  4  1  0
  4  5  1  0
  5  6  2  0
  5  7  1  0
  7  8  1  0
  8  9  1  0
  9 10  1  0
 10 11  1  0
 11 12  2  0
 12 13  1  0
 13 14  2  0
 14 15  1  0
 15 16  2  0
 10 17  1  0
  2 18  1  0
 18 19  2  0
 19 20  1  0
 20 21  2  0
 21 22  1  0
 22 23  2  0
 23 24  1  0
 23 25  1  0
 25 26  2  0
 26 27  1  0
 27 28  2  0
 17  7  1  0
 28 18  1  0
 16 11  1  0
 27 21  1  0
  3 29  1  0
  4 30  1  0
  4 31  1  0
  8 32  1  0
  8 33  1  0
  9 34  1  0
  9 35  1  0
 10 36  1  6
 12 37  1  0
 13 38  1  0
 15 39  1  0
 16 40  1  0
 17 41  1  0
 17 42  1  0
 19 43  1  0
 20 44  1  0
 22 45  1  0
 25 46  1  0
 26 47  1  0
M  END
>  <smiles>  (37) 
O=C(NCC(=O)N1CC[C@H](c2ccncc2)C1)c1ccc2cc(F)ccc2n1

>  <score_type>  (37) 
oracle

>  <origin>  (37) 
autodockgpu

>  <m_score__min__energy>  (37) 
-8.7400000000000002

>  <m_primary>  (37) 
energy

>  <rmsd>  (37) 
2.536370280919012

>  <m_score__min__rmsd>  (37) 
2.536370280919012

>  <meeko>  (37) 
{"free_energy": -8.65, "intermolecular_energy": -10.15, "internal_energy": -0.99, "cluster_size": 42, "cluster_id": 1, "rank_in_cluster": 5}

>  <energy>  (37) 
-8.3

>  <cluster_rmsd>  (37) 
1.71

>  <cluster>  (37) 
1

$$$$

     RDKit          3D

 47 50  0  0  0  0  0  0  0  0999 V2000
  140.8330   71.7680  221.2850 O   0  0  0  0  0  0  0  0  0  0  0  0
  140.2230   72.2140  222.3060 C   0  0  0  0  0  0  0  0  0  0  0  0
  139.6120   73.4960  222.2520 N   0  0  0  0  0  0  0  0  0  0  0  0
  139.7150   74.2500  221.0220 C   0  0  0  0  0  0  0  0  0  0  0  0
  141.0950   74.7840  220.8960 C   0  0  0  0  0  0  0  0  0  0  0  0
  142.1040   74.0640  220.6820 O   0  0  0  0  0  0  0  0  0  0  0  0
  141.2970   76.1850  221.0240 N   0  0  0  0  0  0  0  0  0  0  0  0
  141.7510   77.1490  220.0410 C   0  0  0  0  0  0  0  0  0  0  0  0
  140.7850   78.2780  220.2470 C   0  0  0  0  0  0  0  0  0  0  0  0
  140.5320   78.3110  221.6970 C   0  0  2  0  0  0  0  0  0  0  0  0
  141.1690   79.4070  222.4570 C   0  0  0  0  0  0  0  0  0  0  0  0
  141.9920   79.2510  223.5300 C   0  0  0  0  0  0  0  0  0  0  0  0
  142.5500   80.3310  224.1870 C   0  0  0  0  0  0  0  0  0  0  0  0
  142.3000   81.5860  223.7930 N   0  0  0  0  0  0  0  0  0  0  0  0
  141.4880   81.7980  222.7310 C   0  0  0  0  0  0  0  0  0  0  0  0
  140.9200   80.7290  222.0590 C   0  0  0  0  0  0  0  0  0  0  0  0
  141.0800   77.0030  222.2270 C   0  0  0  0  0  0  0  0  0  0  0  0
  140.1490   71.4080  223.5260 C   0  0  0  0  0  0  0  0  0  0  0  0
  139.5540   70.1680  223.4830 C   0  0  0  0  0  0  0  0  0  0  0  0
  139.4370   69.3370  224.5770 C   0  0  0  0  0  0  0  0  0  0  0  0
  139.9500   69.7880  225.7720 C   0  0  0  0  0  0  0  0  0  0  0  0
  139.8390   68.9640  226.8700 C   0  0  0  0  0  0  0  0  0  0  0  0
  140.3500   69.4090  228.0720 C   0  0  0  0  0  0  0  0  0  0  0  0
  140.2270   68.5740  229.1490 F   0  0  0  0  0  0  0  0  0  0  0  0
  140.9490   70.6410  228.1490 C   0  0  0  0  0  0  0  0  0  0  0  0
  141.0480   71.4540  227.0180 C   0  0  0  0  0  0  0  0  0  0  0  0
  140.5440   71.0310  225.8050 C   0  0  0  0  0  0  0  0  0  0  0  0
  140.6410   71.8220  224.7070 N   0  0  0  0  0  0  0  0  0  0  0  0
  139.0950   73.8970  223.0860 H   0  0  0  0  0  0  0  0  0  0  0  0
  139.4942   73.5935  220.1675 H   0  0  0  0  0  0  0  0  0  0  0  0
  138.9947   75.0813  221.0344 H   0  0  0  0  0  0  0  0  0  0  0  0
  142.7854   77.4661  220.2395 H   0  0  0  0  0  0  0  0  0  0  0  0
  141.7683   76.7605  219.0120 H   0  0  0  0  0  0  0  0  0  0  0  0
  141.2252   79.2283  219.9107 H   0  0  0  0  0  0  0  0  0  0  0  0
  139.8584   78.1360  219.6715 H   0  0  0  0  0  0  0  0  0  0  0  0
  139.4524   78.4731  221.8320 H   0  0  0  0  0  0  0  0  0  0  0  0
  142.2196   78.2349  223.8846 H   0  0  0  0  0  0  0  0  0  0  0  0
  143.2111   80.1567  225.0487 H   0  0  0  0  0  0  0  0  0  0  0  0
  141.2781   82.8258  222.3998 H   0  0  0  0  0  0  0  0  0  0  0  0
  140.2622   80.9196  221.1982 H   0  0  0  0  0  0  0  0  0  0  0  0
  142.0265   77.1660  222.7632 H   0  0  0  0  0  0  0  0  0  0  0  0
  140.3988   76.5222  222.9445 H   0  0  0  0  0  0  0  0  0  0  0  0
  139.1488   69.8200  222.5214 H   0  0  0  0  0  0  0  0  0  0  0  0
  138.9528   68.3525  224.4979 H   0  0  0  0  0  0  0  0  0  0  0  0
  139.3565   67.9787  226.7909 H   0  0  0  0  0  0  0  0  0  0  0  0
  141.3546   70.9912  229.1097 H   0  0  0  0  0  0  0  0  0  0  0  0
  141.5314   72.4391  227.0946 H   0  0  0  0  0  0  0  0  0  0  0  0
  1  2  2  0
  2  3  1  0
  3  4  1  0
  4  5  1  0
  5  6  2  0
  5  7  1  0
  7  8  1  0
  8  9  1  0
  9 10  1  0
 10 11  1  0
 11 12  2  0
 12 13  1  0
 13 14  2  0
 14 15  1  0
 15 16  2  0
 10 17  1  0
  2 18  1  0
 18 19  2  0
 19 20  1  0
 20 21  2  0
 21 22  1  0
 22 23  2  0
 23 24  1  0
 23 25  1  0
 25 26  2  0
 26 27  1  0
 27 28  2  0
 17  7  1  0
 28 18  1  0
 16 11  1  0
 27 21  1  0
  3 29  1  0
  4 30  1  0
  4 31  1  0
  8 32  1  0
  8 33  1  0
  9 34  1  0
  9 35  1  0
 10 36  1  6
 12 37  1  0
 13 38  1  0
 15 39  1  0
 16 40  1  0
 17 41  1  0
 17 42  1  0
 19 43  1  0
 20 44  1  0
 22 45  1  0
 25 46  1  0
 26 47  1  0
M  END
>  <smiles>  (38) 
O=C(NCC(=O)N1CC[C@H](c2ccncc2)C1)c1ccc2cc(F)ccc2n1

>  <score_type>  (38) 
oracle

>  <origin>  (38) 
autodockgpu

>  <m_score__min__energy>  (38) 
-8.7400000000000002

>  <m_primary>  (38) 
energy

>  <rmsd>  (38) 
2.572816043836943

>  <m_score__min__rmsd>  (38) 
2.572816043836943

>  <meeko>  (38) 
{"free_energy": -8.6, "intermolecular_energy": -10.09, "internal_energy": -0.98, "cluster_size": 42, "cluster_id": 1, "rank_in_cluster": 12}

>  <energy>  (38) 
-8.27

>  <cluster_rmsd>  (38) 
1.24

>  <cluster>  (38) 
1

$$$$

     RDKit          3D

 47 50  0  0  0  0  0  0  0  0999 V2000
  140.1510   71.4800  221.3520 O   0  0  0  0  0  0  0  0  0  0  0  0
  139.4530   71.7320  222.3830 C   0  0  0  0  0  0  0  0  0  0  0  0
  138.5060   72.7900  222.3450 N   0  0  0  0  0  0  0  0  0  0  0  0
  138.3760   73.5470  221.1190 C   0  0  0  0  0  0  0  0  0  0  0  0
  139.2120   74.7710  221.2160 C   0  0  0  0  0  0  0  0  0  0  0  0
  138.8560   75.8120  221.8260 O   0  0  0  0  0  0  0  0  0  0  0  0
  140.4870   74.7750  220.5870 N   0  0  0  0  0  0  0  0  0  0  0  0
  140.9580   75.5460  219.4540 C   0  0  0  0  0  0  0  0  0  0  0  0
  142.3020   76.0090  219.9340 C   0  0  0  0  0  0  0  0  0  0  0  0
  142.8370   74.8890  220.7250 C   0  0  2  0  0  0  0  0  0  0  0  0
  143.9140   74.0910  220.1020 C   0  0  0  0  0  0  0  0  0  0  0  0
  143.7980   73.3610  218.9590 C   0  0  0  0  0  0  0  0  0  0  0  0
  144.8570   72.6400  218.4400 C   0  0  0  0  0  0  0  0  0  0  0  0
  146.0500   72.6300  219.0460 N   0  0  0  0  0  0  0  0  0  0  0  0
  146.2220   73.3390  220.1860 C   0  0  0  0  0  0  0  0  0  0  0  0
  145.1730   74.0680  220.7220 C   0  0  0  0  0  0  0  0  0  0  0  0
  141.6590   73.9680  220.9610 C   0  0  0  0  0  0  0  0  0  0  0  0
  139.6250   70.9340  223.5980 C   0  0  0  0  0  0  0  0  0  0  0  0
  139.1930   69.6270  223.6160 C   0  0  0  0  0  0  0  0  0  0  0  0
  139.3110   68.7970  224.7120 C   0  0  0  0  0  0  0  0  0  0  0  0
  139.8970   69.3200  225.8410 C   0  0  0  0  0  0  0  0  0  0  0  0
  140.0190   68.4990  226.9400 C   0  0  0  0  0  0  0  0  0  0  0  0
  140.6050   69.0150  228.0770 C   0  0  0  0  0  0  0  0  0  0  0  0
  140.7160   68.1810  229.1560 F   0  0  0  0  0  0  0  0  0  0  0  0
  141.0470   70.3140  228.0920 C   0  0  0  0  0  0  0  0  0  0  0  0
  140.9090   71.1240  226.9630 C   0  0  0  0  0  0  0  0  0  0  0  0
  140.3270   70.6290  225.8140 C   0  0  0  0  0  0  0  0  0  0  0  0
  140.1930   71.4170  224.7170 N   0  0  0  0  0  0  0  0  0  0  0  0
  137.9070   73.0260  223.1870 H   0  0  0  0  0  0  0  0  0  0  0  0
  138.7149   72.9352  220.2700 H   0  0  0  0  0  0  0  0  0  0  0  0
  137.3235   73.8269  220.9646 H   0  0  0  0  0  0  0  0  0  0  0  0
  141.0481   74.9204  218.5537 H   0  0  0  0  0  0  0  0  0  0  0  0
  140.2837   76.3643  219.1613 H   0  0  0  0  0  0  0  0  0  0  0  0
  142.9614   76.2285  219.0813 H   0  0  0  0  0  0  0  0  0  0  0  0
  142.2307   76.9331  220.5264 H   0  0  0  0  0  0  0  0  0  0  0  0
  143.2994   75.3226  221.6240 H   0  0  0  0  0  0  0  0  0  0  0  0
  142.8324   73.3443  218.4324 H   0  0  0  0  0  0  0  0  0  0  0  0
  144.7166   72.0646  217.5130 H   0  0  0  0  0  0  0  0  0  0  0  0
  147.1999   73.3364  220.6896 H   0  0  0  0  0  0  0  0  0  0  0  0
  145.3294   74.6386  221.6493 H   0  0  0  0  0  0  0  0  0  0  0  0
  141.7326   73.0711  220.3285 H   0  0  0  0  0  0  0  0  0  0  0  0
  141.6079   73.6081  221.9992 H   0  0  0  0  0  0  0  0  0  0  0  0
  138.7276   69.2215  222.7055 H   0  0  0  0  0  0  0  0  0  0  0  0
  138.9506   67.7581  224.6839 H   0  0  0  0  0  0  0  0  0  0  0  0
  139.6589   67.4600  226.9118 H   0  0  0  0  0  0  0  0  0  0  0  0
  141.5140   70.7207  229.0011 H   0  0  0  0  0  0  0  0  0  0  0  0
  141.2667   72.1639  226.9898 H   0  0  0  0  0  0  0  0  0  0  0  0
  1  2  2  0
  2  3  1  0
  3  4  1  0
  4  5  1  0
  5  6  2  0
  5  7  1  0
  7  8  1  0
  8  9  1  0
  9 10  1  0
 10 11  1  0
 11 12  2  0
 12 13  1  0
 13 14  2  0
 14 15  1  0
 15 16  2  0
 10 17  1  0
  2 18  1  0
 18 19  2  0
 19 20  1  0
 20 21  2  0
 21 22  1  0
 22 23  2  0
 23 24  1  0
 23 25  1  0
 25 26  2  0
 26 27  1  0
 27 28  2  0
 17  7  1  0
 28 18  1  0
 16 11  1  0
 27 21  1  0
  3 29  1  0
  4 30  1  0
  4 31  1  0
  8 32  1  0
  8 33  1  0
  9 34  1  0
  9 35  1  0
 10 36  1  1
 12 37  1  0
 13 38  1  0
 15 39  1  0
 16 40  1  0
 17 41  1  0
 17 42  1  0
 19 43  1  0
 20 44  1  0
 22 45  1  0
 25 46  1  0
 26 47  1  0
M  END
>  <smiles>  (39) 
O=C(NCC(=O)N1CC[C@H](c2ccncc2)C1)c1ccc2cc(F)ccc2n1

>  <score_type>  (39) 
oracle

>  <origin>  (39) 
autodockgpu

>  <m_score__min__energy>  (39) 
-8.7400000000000002

>  <m_primary>  (39) 
energy

>  <rmsd>  (39) 
2.0654074538858387

>  <m_score__min__rmsd>  (39) 
2.0654074538858387

>  <meeko>  (39) 
{"free_energy": -8.08, "intermolecular_energy": -9.57, "internal_energy": -1.2, "cluster_size": 8, "cluster_id": 2, "rank_in_cluster": 7}

>  <energy>  (39) 
-8.26

>  <cluster_rmsd>  (39) 
1.22

>  <cluster>  (39) 
1

$$$$

     RDKit          3D

 47 50  0  0  0  0  0  0  0  0999 V2000
  140.8890   71.5400  221.4430 O   0  0  0  0  0  0  0  0  0  0  0  0
  140.2070   71.9850  222.4180 C   0  0  0  0  0  0  0  0  0  0  0  0
  139.5500   73.2400  222.2970 N   0  0  0  0  0  0  0  0  0  0  0  0
  139.6890   73.9670  221.0530 C   0  0  0  0  0  0  0  0  0  0  0  0
  141.0550   74.5440  220.9810 C   0  0  0  0  0  0  0  0  0  0  0  0
  142.0940   73.8570  220.8060 O   0  0  0  0  0  0  0  0  0  0  0  0
  141.2070   75.9510  221.1180 N   0  0  0  0  0  0  0  0  0  0  0  0
  141.5260   76.9500  220.1160 C   0  0  0  0  0  0  0  0  0  0  0  0
  140.5350   78.0300  220.4330 C   0  0  0  0  0  0  0  0  0  0  0  0
  140.4170   78.0290  221.9000 C   0  0  2  0  0  0  0  0  0  0  0  0
  141.0730   79.1410  222.6200 C   0  0  0  0  0  0  0  0  0  0  0  0
  142.4140   79.2810  222.8050 C   0  0  0  0  0  0  0  0  0  0  0  0
  142.9500   80.3540  223.4920 C   0  0  0  0  0  0  0  0  0  0  0  0
  142.1640   81.3070  224.0080 N   0  0  0  0  0  0  0  0  0  0  0  0
  140.8230   81.2170  223.8540 C   0  0  0  0  0  0  0  0  0  0  0  0
  140.2670   80.1510  223.1680 C   0  0  0  0  0  0  0  0  0  0  0  0
  141.0680   76.7400  222.3520 C   0  0  0  0  0  0  0  0  0  0  0  0
  140.1000   71.2080  223.6540 C   0  0  0  0  0  0  0  0  0  0  0  0
  139.4730   69.9840  223.6310 C   0  0  0  0  0  0  0  0  0  0  0  0
  139.3230   69.1790  224.7420 C   0  0  0  0  0  0  0  0  0  0  0  0
  139.8360   69.6430  225.9310 C   0  0  0  0  0  0  0  0  0  0  0  0
  139.6910   68.8470  227.0460 C   0  0  0  0  0  0  0  0  0  0  0  0
  140.2020   69.3030  228.2430 C   0  0  0  0  0  0  0  0  0  0  0  0
  140.0460   68.4960  229.3370 F   0  0  0  0  0  0  0  0  0  0  0  0
  140.8330   70.5210  228.3010 C   0  0  0  0  0  0  0  0  0  0  0  0
  140.9640   71.3070  227.1540 C   0  0  0  0  0  0  0  0  0  0  0  0
  140.4620   70.8700  225.9450 C   0  0  0  0  0  0  0  0  0  0  0  0
  140.5900   71.6350  224.8310 N   0  0  0  0  0  0  0  0  0  0  0  0
  138.9740   73.6400  223.0910 H   0  0  0  0  0  0  0  0  0  0  0  0
  139.5326   73.2825  220.2062 H   0  0  0  0  0  0  0  0  0  0  0  0
  138.9420   74.7732  221.0079 H   0  0  0  0  0  0  0  0  0  0  0  0
  142.5596   77.3104  220.2246 H   0  0  0  0  0  0  0  0  0  0  0  0
  141.4652   76.5792  219.0822 H   0  0  0  0  0  0  0  0  0  0  0  0
  140.8997   79.0046  220.0763 H   0  0  0  0  0  0  0  0  0  0  0  0
  139.5659   77.8546  219.9431 H   0  0  0  0  0  0  0  0  0  0  0  0
  139.3484   78.1398  222.1363 H   0  0  0  0  0  0  0  0  0  0  0  0
  143.0917   78.5174  222.3955 H   0  0  0  0  0  0  0  0  0  0  0  0
  144.0405   80.4260  223.6168 H   0  0  0  0  0  0  0  0  0  0  0  0
  140.1706   81.9955  224.2764 H   0  0  0  0  0  0  0  0  0  0  0  0
  139.1748   80.0945  223.0503 H   0  0  0  0  0  0  0  0  0  0  0  0
  142.0524   76.9373  222.8014 H   0  0  0  0  0  0  0  0  0  0  0  0
  140.4785   76.2183  223.1204 H   0  0  0  0  0  0  0  0  0  0  0  0
  139.0682   69.6264  222.6728 H   0  0  0  0  0  0  0  0  0  0  0  0
  138.8139   68.2059  224.6792 H   0  0  0  0  0  0  0  0  0  0  0  0
  139.1815   67.8741  226.9832 H   0  0  0  0  0  0  0  0  0  0  0  0
  141.2385   70.8806  229.2582 H   0  0  0  0  0  0  0  0  0  0  0  0
  141.4709   72.2813  227.2147 H   0  0  0  0  0  0  0  0  0  0  0  0
  1  2  2  0
  2  3  1  0
  3  4  1  0
  4  5  1  0
  5  6  2  0
  5  7  1  0
  7  8  1  0
  8  9  1  0
  9 10  1  0
 10 11  1  0
 11 12  2  0
 12 13  1  0
 13 14  2  0
 14 15  1  0
 15 16  2  0
 10 17  1  0
  2 18  1  0
 18 19  2  0
 19 20  1  0
 20 21  2  0
 21 22  1  0
 22 23  2  0
 23 24  1  0
 23 25  1  0
 25 26  2  0
 26 27  1  0
 27 28  2  0
 17  7  1  0
 28 18  1  0
 16 11  1  0
 27 21  1  0
  3 29  1  0
  4 30  1  0
  4 31  1  0
  8 32  1  0
  8 33  1  0
  9 34  1  0
  9 35  1  0
 10 36  1  6
 12 37  1  0
 13 38  1  0
 15 39  1  0
 16 40  1  0
 17 41  1  0
 17 42  1  0
 19 43  1  0
 20 44  1  0
 22 45  1  0
 25 46  1  0
 26 47  1  0
M  END
>  <smiles>  (40) 
O=C(NCC(=O)N1CC[C@H](c2ccncc2)C1)c1ccc2cc(F)ccc2n1

>  <score_type>  (40) 
oracle

>  <origin>  (40) 
autodockgpu

>  <m_score__min__energy>  (40) 
-8.7400000000000002

>  <m_primary>  (40) 
energy

>  <rmsd>  (40) 
2.565804565010855

>  <m_score__min__rmsd>  (40) 
2.565804565010855

>  <meeko>  (40) 
{"free_energy": -8.57, "intermolecular_energy": -10.06, "internal_energy": -0.97, "cluster_size": 42, "cluster_id": 1, "rank_in_cluster": 15}

>  <energy>  (40) 
-8.25

>  <cluster_rmsd>  (40) 
1.53

>  <cluster>  (40) 
1

$$$$

     RDKit          3D

 47 50  0  0  0  0  0  0  0  0999 V2000
  140.5930   71.7850  221.1770 O   0  0  0  0  0  0  0  0  0  0  0  0
  140.1970   72.2950  222.2710 C   0  0  0  0  0  0  0  0  0  0  0  0
  139.7980   73.6580  222.3040 N   0  0  0  0  0  0  0  0  0  0  0  0
  139.8620   74.4190  221.0740 C   0  0  0  0  0  0  0  0  0  0  0  0
  141.0760   75.2750  221.0980 C   0  0  0  0  0  0  0  0  0  0  0  0
  142.2330   74.8520  220.8470 O   0  0  0  0  0  0  0  0  0  0  0  0
  140.9300   76.6520  221.4230 N   0  0  0  0  0  0  0  0  0  0  0  0
  140.0070   77.2950  222.3380 C   0  0  0  0  0  0  0  0  0  0  0  0
  140.9100   78.2450  223.0670 C   0  0  0  0  0  0  0  0  0  0  0  0
  141.8730   78.7160  222.0580 C   0  0  2  0  0  0  0  0  0  0  0  0
  141.6890   80.0950  221.5570 C   0  0  0  0  0  0  0  0  0  0  0  0
  141.5670   81.2080  222.3310 C   0  0  0  0  0  0  0  0  0  0  0  0
  141.3980   82.4650  221.7830 C   0  0  0  0  0  0  0  0  0  0  0  0
  141.3480   82.6410  220.4570 N   0  0  0  0  0  0  0  0  0  0  0  0
  141.4650   81.5680  219.6400 C   0  0  0  0  0  0  0  0  0  0  0  0
  141.6350   80.3000  220.1700 C   0  0  0  0  0  0  0  0  0  0  0  0
  141.7130   77.7750  220.8840 C   0  0  0  0  0  0  0  0  0  0  0  0
  140.1530   71.4800  223.4860 C   0  0  0  0  0  0  0  0  0  0  0  0
  139.5910   70.2250  223.4380 C   0  0  0  0  0  0  0  0  0  0  0  0
  139.5020   69.3840  224.5280 C   0  0  0  0  0  0  0  0  0  0  0  0
  140.0110   69.8400  225.7220 C   0  0  0  0  0  0  0  0  0  0  0  0
  139.9280   69.0070  226.8160 C   0  0  0  0  0  0  0  0  0  0  0  0
  140.4340   69.4570  228.0180 C   0  0  0  0  0  0  0  0  0  0  0  0
  140.3400   68.6130  229.0900 F   0  0  0  0  0  0  0  0  0  0  0  0
  141.0020   70.7040  228.0990 C   0  0  0  0  0  0  0  0  0  0  0  0
  141.0720   71.5270  226.9730 C   0  0  0  0  0  0  0  0  0  0  0  0
  140.5720   71.0980  225.7600 C   0  0  0  0  0  0  0  0  0  0  0  0
  140.6410   71.8990  224.6670 N   0  0  0  0  0  0  0  0  0  0  0  0
  139.4640   74.1140  223.2000 H   0  0  0  0  0  0  0  0  0  0  0  0
  139.9124   73.7313  220.2170 H   0  0  0  0  0  0  0  0  0  0  0  0
  138.9650   75.0485  220.9791 H   0  0  0  0  0  0  0  0  0  0  0  0
  139.2144   77.8318  221.7961 H   0  0  0  0  0  0  0  0  0  0  0  0
  139.4720   76.5949  222.9964 H   0  0  0  0  0  0  0  0  0  0  0  0
  140.3338   79.0892  223.4735 H   0  0  0  0  0  0  0  0  0  0  0  0
  141.4113   77.7626  223.9191 H   0  0  0  0  0  0  0  0  0  0  0  0
  142.8625   78.7264  222.5384 H   0  0  0  0  0  0  0  0  0  0  0  0
  141.6041   81.1036  223.4254 H   0  0  0  0  0  0  0  0  0  0  0  0
  141.3029   83.3362  222.4479 H   0  0  0  0  0  0  0  0  0  0  0  0
  141.4248   81.7041  218.5492 H   0  0  0  0  0  0  0  0  0  0  0  0
  141.7293   79.4389  219.4921 H   0  0  0  0  0  0  0  0  0  0  0  0
  141.1736   78.2667  220.0610 H   0  0  0  0  0  0  0  0  0  0  0  0
  142.6793   77.4528  220.4686 H   0  0  0  0  0  0  0  0  0  0  0  0
  139.1901   69.8723  222.4763 H   0  0  0  0  0  0  0  0  0  0  0  0
  139.0422   68.3881  224.4456 H   0  0  0  0  0  0  0  0  0  0  0  0
  139.4706   68.0100  226.7334 H   0  0  0  0  0  0  0  0  0  0  0  0
  141.4055   71.0581  229.0591 H   0  0  0  0  0  0  0  0  0  0  0  0
  141.5289   72.5244  227.0533 H   0  0  0  0  0  0  0  0  0  0  0  0
  1  2  2  0
  2  3  1  0
  3  4  1  0
  4  5  1  0
  5  6  2  0
  5  7  1  0
  7  8  1  0
  8  9  1  0
  9 10  1  0
 10 11  1  0
 11 12  2  0
 12 13  1  0
 13 14  2  0
 14 15  1  0
 15 16  2  0
 10 17  1  0
  2 18  1  0
 18 19  2  0
 19 20  1  0
 20 21  2  0
 21 22  1  0
 22 23  2  0
 23 24  1  0
 23 25  1  0
 25 26  2  0
 26 27  1  0
 27 28  2  0
 17  7  1  0
 28 18  1  0
 16 11  1  0
 27 21  1  0
  3 29  1  0
  4 30  1  0
  4 31  1  0
  8 32  1  0
  8 33  1  0
  9 34  1  0
  9 35  1  0
 10 36  1  1
 12 37  1  0
 13 38  1  0
 15 39  1  0
 16 40  1  0
 17 41  1  0
 17 42  1  0
 19 43  1  0
 20 44  1  0
 22 45  1  0
 25 46  1  0
 26 47  1  0
M  END
>  <smiles>  (41) 
O=C(NCC(=O)N1CC[C@H](c2ccncc2)C1)c1ccc2cc(F)ccc2n1

>  <score_type>  (41) 
oracle

>  <origin>  (41) 
autodockgpu

>  <m_score__min__energy>  (41) 
-8.7400000000000002

>  <m_primary>  (41) 
energy

>  <rmsd>  (41) 
3.060205899903152

>  <m_score__min__rmsd>  (41) 
3.060205899903152

>  <meeko>  (41) 
{"free_energy": -8.25, "intermolecular_energy": -9.74, "internal_energy": -1.05, "cluster_size": 42, "cluster_id": 1, "rank_in_cluster": 40}

>  <energy>  (41) 
-8.22

>  <cluster_rmsd>  (41) 
1.12

>  <cluster>  (41) 
1

$$$$

     RDKit          3D

 47 50  0  0  0  0  0  0  0  0999 V2000
  140.9770   71.6740  221.4830 O   0  0  0  0  0  0  0  0  0  0  0  0
  140.2150   72.0210  222.4370 C   0  0  0  0  0  0  0  0  0  0  0  0
  139.4230   73.1940  222.3090 N   0  0  0  0  0  0  0  0  0  0  0  0
  139.5220   73.9550  221.0820 C   0  0  0  0  0  0  0  0  0  0  0  0
  140.8270   74.6650  221.0590 C   0  0  0  0  0  0  0  0  0  0  0  0
  141.9350   74.0830  220.9350 O   0  0  0  0  0  0  0  0  0  0  0  0
  140.8330   76.0810  221.1830 N   0  0  0  0  0  0  0  0  0  0  0  0
  140.6180   77.1000  220.1750 C   0  0  0  0  0  0  0  0  0  0  0  0
  139.6870   78.0400  220.8820 C   0  0  0  0  0  0  0  0  0  0  0  0
  140.1300   78.0420  222.2860 C   0  0  2  0  0  0  0  0  0  0  0  0
  140.8570   79.2420  222.7500 C   0  0  0  0  0  0  0  0  0  0  0  0
  141.9750   79.2380  223.5260 C   0  0  0  0  0  0  0  0  0  0  0  0
  142.5980   80.4080  223.9190 C   0  0  0  0  0  0  0  0  0  0  0  0
  142.1220   81.6030  223.5480 N   0  0  0  0  0  0  0  0  0  0  0  0
  141.0120   81.6650  222.7750 C   0  0  0  0  0  0  0  0  0  0  0  0
  140.3750   80.5050  222.3720 C   0  0  0  0  0  0  0  0  0  0  0  0
  141.0660   76.8600  222.4100 C   0  0  0  0  0  0  0  0  0  0  0  0
  140.1530   71.2140  223.6570 C   0  0  0  0  0  0  0  0  0  0  0  0
  139.5600   69.9720  223.6170 C   0  0  0  0  0  0  0  0  0  0  0  0
  139.4530   69.1400  224.7120 C   0  0  0  0  0  0  0  0  0  0  0  0
  139.9750   69.5910  225.9020 C   0  0  0  0  0  0  0  0  0  0  0  0
  139.8740   68.7660  227.0010 C   0  0  0  0  0  0  0  0  0  0  0  0
  140.3930   69.2100  228.1990 C   0  0  0  0  0  0  0  0  0  0  0  0
  140.2800   68.3740  229.2770 F   0  0  0  0  0  0  0  0  0  0  0  0
  140.9910   70.4440  228.2730 C   0  0  0  0  0  0  0  0  0  0  0  0
  141.0790   71.2580  227.1420 C   0  0  0  0  0  0  0  0  0  0  0  0
  140.5660   70.8350  225.9320 C   0  0  0  0  0  0  0  0  0  0  0  0
  140.6520   71.6270  224.8350 N   0  0  0  0  0  0  0  0  0  0  0  0
  138.7760   73.5110  223.0860 H   0  0  0  0  0  0  0  0  0  0  0  0
  139.4564   73.2752  220.2197 H   0  0  0  0  0  0  0  0  0  0  0  0
  138.7003   74.6844  221.0289 H   0  0  0  0  0  0  0  0  0  0  0  0
  141.5598   77.5987  219.9025 H   0  0  0  0  0  0  0  0  0  0  0  0
  140.2215   76.7106  219.2257 H   0  0  0  0  0  0  0  0  0  0  0  0
  139.7606   79.0503  220.4532 H   0  0  0  0  0  0  0  0  0  0  0  0
  138.6366   77.7284  220.7836 H   0  0  0  0  0  0  0  0  0  0  0  0
  139.2245   78.0092  222.9096 H   0  0  0  0  0  0  0  0  0  0  0  0
  142.3957   78.2748  223.8503 H   0  0  0  0  0  0  0  0  0  0  0  0
  143.4997   80.3561  224.5469 H   0  0  0  0  0  0  0  0  0  0  0  0
  140.6146   82.6430  222.4658 H   0  0  0  0  0  0  0  0  0  0  0  0
  139.4745   80.5736  221.7440 H   0  0  0  0  0  0  0  0  0  0  0  0
  142.1121   77.1955  222.4657 H   0  0  0  0  0  0  0  0  0  0  0  0
  140.8826   76.2726  223.3218 H   0  0  0  0  0  0  0  0  0  0  0  0
  139.1485   69.6237  222.6581 H   0  0  0  0  0  0  0  0  0  0  0  0
  138.9694   68.1549  224.6366 H   0  0  0  0  0  0  0  0  0  0  0  0
  139.3924   67.7800  226.9248 H   0  0  0  0  0  0  0  0  0  0  0  0
  141.4039   70.7939  229.2307 H   0  0  0  0  0  0  0  0  0  0  0  0
  141.5609   72.2441  227.2156 H   0  0  0  0  0  0  0  0  0  0  0  0
  1  2  2  0
  2  3  1  0
  3  4  1  0
  4  5  1  0
  5  6  2  0
  5  7  1  0
  7  8  1  0
  8  9  1  0
  9 10  1  0
 10 11  1  0
 11 12  2  0
 12 13  1  0
 13 14  2  0
 14 15  1  0
 15 16  2  0
 10 17  1  0
  2 18  1  0
 18 19  2  0
 19 20  1  0
 20 21  2  0
 21 22  1  0
 22 23  2  0
 23 24  1  0
 23 25  1  0
 25 26  2  0
 26 27  1  0
 27 28  2  0
 17  7  1  0
 28 18  1  0
 16 11  1  0
 27 21  1  0
  3 29  1  0
  4 30  1  0
  4 31  1  0
  8 32  1  0
  8 33  1  0
  9 34  1  0
  9 35  1  0
 10 36  1  1
 12 37  1  0
 13 38  1  0
 15 39  1  0
 16 40  1  0
 17 41  1  0
 17 42  1  0
 19 43  1  0
 20 44  1  0
 22 45  1  0
 25 46  1  0
 26 47  1  0
M  END
>  <smiles>  (42) 
O=C(NCC(=O)N1CC[C@H](c2ccncc2)C1)c1ccc2cc(F)ccc2n1

>  <score_type>  (42) 
oracle

>  <origin>  (42) 
autodockgpu

>  <m_score__min__energy>  (42) 
-8.7400000000000002

>  <m_primary>  (42) 
energy

>  <rmsd>  (42) 
2.70447374546475

>  <m_score__min__rmsd>  (42) 
2.70447374546475

>  <meeko>  (42) 
{"free_energy": -8.51, "intermolecular_energy": -10.0, "internal_energy": -0.95, "cluster_size": 42, "cluster_id": 1, "rank_in_cluster": 18}

>  <energy>  (42) 
-8.18

>  <cluster_rmsd>  (42) 
1.69

>  <cluster>  (42) 
1

$$$$

     RDKit          3D

 47 50  0  0  0  0  0  0  0  0999 V2000
  140.7640   72.2420  221.5890 O   0  0  0  0  0  0  0  0  0  0  0  0
  139.8750   72.3050  222.4940 C   0  0  0  0  0  0  0  0  0  0  0  0
  138.8040   73.2300  222.3600 N   0  0  0  0  0  0  0  0  0  0  0  0
  138.7720   74.0730  221.1840 C   0  0  0  0  0  0  0  0  0  0  0  0
  138.4460   75.4620  221.5950 C   0  0  0  0  0  0  0  0  0  0  0  0
  137.2730   75.8870  221.7480 O   0  0  0  0  0  0  0  0  0  0  0  0
  139.5150   76.3710  221.8290 N   0  0  0  0  0  0  0  0  0  0  0  0
  140.9460   76.1420  221.8060 C   0  0  0  0  0  0  0  0  0  0  0  0
  141.4350   77.3250  221.0240 C   0  0  0  0  0  0  0  0  0  0  0  0
  140.5660   78.4420  221.4290 C   0  0  2  0  0  0  0  0  0  0  0  0
  141.1590   79.4520  222.3310 C   0  0  0  0  0  0  0  0  0  0  0  0
  140.4660   80.3890  223.0340 C   0  0  0  0  0  0  0  0  0  0  0  0
  141.0980   81.3000  223.8590 C   0  0  0  0  0  0  0  0  0  0  0  0
  142.4290   81.2970  224.0020 N   0  0  0  0  0  0  0  0  0  0  0  0
  143.1680   80.3850  223.3270 C   0  0  0  0  0  0  0  0  0  0  0  0
  142.5530   79.4640  222.4950 C   0  0  0  0  0  0  0  0  0  0  0  0
  139.4040   77.8000  222.1570 C   0  0  0  0  0  0  0  0  0  0  0  0
  139.9560   71.4290  223.6640 C   0  0  0  0  0  0  0  0  0  0  0  0
  139.5510   70.1180  223.5560 C   0  0  0  0  0  0  0  0  0  0  0  0
  139.5890   69.2170  224.6010 C   0  0  0  0  0  0  0  0  0  0  0  0
  140.0620   69.6710  225.8100 C   0  0  0  0  0  0  0  0  0  0  0  0
  140.1050   68.7780  226.8580 C   0  0  0  0  0  0  0  0  0  0  0  0
  140.5770   69.2250  228.0750 C   0  0  0  0  0  0  0  0  0  0  0  0
  140.6090   68.3210  229.1020 F   0  0  0  0  0  0  0  0  0  0  0  0
  140.9880   70.5260  228.2160 C   0  0  0  0  0  0  0  0  0  0  0  0
  140.9340   71.4090  227.1350 C   0  0  0  0  0  0  0  0  0  0  0  0
  140.4650   70.9850  225.9080 C   0  0  0  0  0  0  0  0  0  0  0  0
  140.4130   71.8430  224.8590 N   0  0  0  0  0  0  0  0  0  0  0  0
  138.0470   73.3080  223.0970 H   0  0  0  0  0  0  0  0  0  0  0  0
  139.7549   74.0553  220.6904 H   0  0  0  0  0  0  0  0  0  0  0  0
  138.0096   73.7039  220.4822 H   0  0  0  0  0  0  0  0  0  0  0  0
  141.3663   76.1327  222.8225 H   0  0  0  0  0  0  0  0  0  0  0  0
  141.2345   75.1727  221.3734 H   0  0  0  0  0  0  0  0  0  0  0  0
  142.4844   77.5436  221.2711 H   0  0  0  0  0  0  0  0  0  0  0  0
  141.3950   77.1456  219.9395 H   0  0  0  0  0  0  0  0  0  0  0  0
  140.3152   79.0013  220.5156 H   0  0  0  0  0  0  0  0  0  0  0  0
  139.3703   80.4222  222.9428 H   0  0  0  0  0  0  0  0  0  0  0  0
  140.4970   82.0403  224.4075 H   0  0  0  0  0  0  0  0  0  0  0  0
  144.2621   80.3755  223.4399 H   0  0  0  0  0  0  0  0  0  0  0  0
  143.1674   78.7296  221.9536 H   0  0  0  0  0  0  0  0  0  0  0  0
  139.4886   77.9585  223.2422 H   0  0  0  0  0  0  0  0  0  0  0  0
  138.4344   78.2256  221.8590 H   0  0  0  0  0  0  0  0  0  0  0  0
  139.1761   69.7688  222.5826 H   0  0  0  0  0  0  0  0  0  0  0  0
  139.2543   68.1771  224.4719 H   0  0  0  0  0  0  0  0  0  0  0  0
  139.7723   67.7376  226.7282 H   0  0  0  0  0  0  0  0  0  0  0  0
  141.3633   70.8770  229.1886 H   0  0  0  0  0  0  0  0  0  0  0  0
  141.2676   72.4494  227.2624 H   0  0  0  0  0  0  0  0  0  0  0  0
  1  2  2  0
  2  3  1  0
  3  4  1  0
  4  5  1  0
  5  6  2  0
  5  7  1  0
  7  8  1  0
  8  9  1  0
  9 10  1  0
 10 11  1  0
 11 12  2  0
 12 13  1  0
 13 14  2  0
 14 15  1  0
 15 16  2  0
 10 17  1  0
  2 18  1  0
 18 19  2  0
 19 20  1  0
 20 21  2  0
 21 22  1  0
 22 23  2  0
 23 24  1  0
 23 25  1  0
 25 26  2  0
 26 27  1  0
 27 28  2  0
 17  7  1  0
 28 18  1  0
 16 11  1  0
 27 21  1  0
  3 29  1  0
  4 30  1  0
  4 31  1  0
  8 32  1  0
  8 33  1  0
  9 34  1  0
  9 35  1  0
 10 36  1  6
 12 37  1  0
 13 38  1  0
 15 39  1  0
 16 40  1  0
 17 41  1  0
 17 42  1  0
 19 43  1  0
 20 44  1  0
 22 45  1  0
 25 46  1  0
 26 47  1  0
M  END
>  <smiles>  (43) 
O=C(NCC(=O)N1CC[C@H](c2ccncc2)C1)c1ccc2cc(F)ccc2n1

>  <score_type>  (43) 
oracle

>  <origin>  (43) 
autodockgpu

>  <m_score__min__energy>  (43) 
-8.7400000000000002

>  <m_primary>  (43) 
energy

>  <rmsd>  (43) 
2.5991961909467007

>  <m_score__min__rmsd>  (43) 
2.5991961909467007

>  <meeko>  (43) 
{"free_energy": -8.51, "intermolecular_energy": -10.0, "internal_energy": -1.07, "cluster_size": 42, "cluster_id": 1, "rank_in_cluster": 17}

>  <energy>  (43) 
-8.34

>  <cluster_rmsd>  (43) 
0.0

>  <cluster>  (43) 
2

$$$$

     RDKit          3D

 47 50  0  0  0  0  0  0  0  0999 V2000
  141.2890   72.6700  222.0110 O   0  0  0  0  0  0  0  0  0  0  0  0
  140.2160   72.5370  222.6780 C   0  0  0  0  0  0  0  0  0  0  0  0
  139.0750   73.3100  222.3300 N   0  0  0  0  0  0  0  0  0  0  0  0
  139.1860   74.2280  221.2170 C   0  0  0  0  0  0  0  0  0  0  0  0
  138.2230   75.3430  221.4140 C   0  0  0  0  0  0  0  0  0  0  0  0
  136.9750   75.1940  221.4110 O   0  0  0  0  0  0  0  0  0  0  0  0
  138.7340   76.6540  221.6160 N   0  0  0  0  0  0  0  0  0  0  0  0
  138.3520   77.9040  220.9880 C   0  0  0  0  0  0  0  0  0  0  0  0
  138.2760   78.8290  222.1660 C   0  0  0  0  0  0  0  0  0  0  0  0
  139.3650   78.4050  223.0620 C   0  0  2  0  0  0  0  0  0  0  0  0
  140.5580   79.2750  223.1160 C   0  0  0  0  0  0  0  0  0  0  0  0
  140.5670   80.5830  223.4930 C   0  0  0  0  0  0  0  0  0  0  0  0
  141.7290   81.3300  223.5170 C   0  0  0  0  0  0  0  0  0  0  0  0
  142.9040   80.7930  223.1670 N   0  0  0  0  0  0  0  0  0  0  0  0
  142.9530   79.4950  222.7840 C   0  0  0  0  0  0  0  0  0  0  0  0
  141.8000   78.7300  222.7540 C   0  0  0  0  0  0  0  0  0  0  0  0
  139.8040   77.0530  222.5440 C   0  0  0  0  0  0  0  0  0  0  0  0
  140.1600   71.5930  223.7960 C   0  0  0  0  0  0  0  0  0  0  0  0
  139.5730   70.3620  223.6110 C   0  0  0  0  0  0  0  0  0  0  0  0
  139.4710   69.4070  224.6020 C   0  0  0  0  0  0  0  0  0  0  0  0
  139.9920   69.7180  225.8360 C   0  0  0  0  0  0  0  0  0  0  0  0
  139.8960   68.7700  226.8310 C   0  0  0  0  0  0  0  0  0  0  0  0
  140.4150   69.0740  228.0730 C   0  0  0  0  0  0  0  0  0  0  0  0
  140.3070   68.1170  229.0450 F   0  0  0  0  0  0  0  0  0  0  0  0
  141.0070   70.2930  228.2900 C   0  0  0  0  0  0  0  0  0  0  0  0
  141.0900   71.2350  227.2610 C   0  0  0  0  0  0  0  0  0  0  0  0
  140.5780   70.9530  226.0110 C   0  0  0  0  0  0  0  0  0  0  0  0
  140.6590   71.8690  225.0130 N   0  0  0  0  0  0  0  0  0  0  0  0
  138.1650   73.2230  222.8660 H   0  0  0  0  0  0  0  0  0  0  0  0
  140.2095   74.6283  221.1693 H   0  0  0  0  0  0  0  0  0  0  0  0
  138.9606   73.7028  220.2771 H   0  0  0  0  0  0  0  0  0  0  0  0
  139.1113   78.2375  220.2653 H   0  0  0  0  0  0  0  0  0  0  0  0
  137.4193   77.8441  220.4080 H   0  0  0  0  0  0  0  0  0  0  0  0
  138.4226   79.8717  221.8476 H   0  0  0  0  0  0  0  0  0  0  0  0
  137.2950   78.7832  222.6616 H   0  0  0  0  0  0  0  0  0  0  0  0
  138.9639   78.4239  224.0861 H   0  0  0  0  0  0  0  0  0  0  0  0
  139.6204   81.0597  223.7875 H   0  0  0  0  0  0  0  0  0  0  0  0
  141.6878   82.3840  223.8291 H   0  0  0  0  0  0  0  0  0  0  0  0
  143.9148   79.0461  222.4951 H   0  0  0  0  0  0  0  0  0  0  0  0
  141.8578   77.6770  222.4412 H   0  0  0  0  0  0  0  0  0  0  0  0
  140.7669   77.1312  222.0180 H   0  0  0  0  0  0  0  0  0  0  0  0
  139.9537   76.3218  223.3521 H   0  0  0  0  0  0  0  0  0  0  0  0
  139.1624   70.1262  222.6181 H   0  0  0  0  0  0  0  0  0  0  0  0
  138.9918   68.4352  224.4123 H   0  0  0  0  0  0  0  0  0  0  0  0
  139.4187   67.7974  226.6407 H   0  0  0  0  0  0  0  0  0  0  0  0
  141.4195   70.5305  229.2817 H   0  0  0  0  0  0  0  0  0  0  0  0
  141.5669   72.2083  227.4489 H   0  0  0  0  0  0  0  0  0  0  0  0
  1  2  2  0
  2  3  1  0
  3  4  1  0
  4  5  1  0
  5  6  2  0
  5  7  1  0
  7  8  1  0
  8  9  1  0
  9 10  1  0
 10 11  1  0
 11 12  2  0
 12 13  1  0
 13 14  2  0
 14 15  1  0
 15 16  2  0
 10 17  1  0
  2 18  1  0
 18 19  2  0
 19 20  1  0
 20 21  2  0
 21 22  1  0
 22 23  2  0
 23 24  1  0
 23 25  1  0
 25 26  2  0
 26 27  1  0
 27 28  2  0
 17  7  1  0
 28 18  1  0
 16 11  1  0
 27 21  1  0
  3 29  1  0
  4 30  1  0
  4 31  1  0
  8 32  1  0
  8 33  1  0
  9 34  1  0
  9 35  1  0
 10 36  1  1
 12 37  1  0
 13 38  1  0
 15 39  1  0
 16 40  1  0
 17 41  1  0
 17 42  1  0
 19 43  1  0
 20 44  1  0
 22 45  1  0
 25 46  1  0
 26 47  1  0
M  END
>  <smiles>  (44) 
O=C(NCC(=O)N1CC[C@H](c2ccncc2)C1)c1ccc2cc(F)ccc2n1

>  <score_type>  (44) 
oracle

>  <origin>  (44) 
autodockgpu

>  <m_score__min__energy>  (44) 
-8.7400000000000002

>  <m_primary>  (44) 
energy

>  <rmsd>  (44) 
3.250260621544294

>  <m_score__min__rmsd>  (44) 
3.250260621544294

>  <meeko>  (44) 
{"free_energy": -8.3, "intermolecular_energy": -9.79, "internal_energy": -1.09, "cluster_size": 42, "cluster_id": 1, "rank_in_cluster": 35}

>  <energy>  (44) 
-8.27

>  <cluster_rmsd>  (44) 
0.27

>  <cluster>  (44) 
2

$$$$

     RDKit          3D

 47 50  0  0  0  0  0  0  0  0999 V2000
  140.6960   71.5550  221.3630 O   0  0  0  0  0  0  0  0  0  0  0  0
  140.0030   71.9370  222.3560 C   0  0  0  0  0  0  0  0  0  0  0  0
  139.2440   73.1340  222.2600 N   0  0  0  0  0  0  0  0  0  0  0  0
  139.2940   73.8780  221.0200 C   0  0  0  0  0  0  0  0  0  0  0  0
  140.6060   74.5670  220.9230 C   0  0  0  0  0  0  0  0  0  0  0  0
  141.6850   73.9780  220.6590 O   0  0  0  0  0  0  0  0  0  0  0  0
  140.6540   75.9720  221.1390 N   0  0  0  0  0  0  0  0  0  0  0  0
  140.3250   77.0590  220.2380 C   0  0  0  0  0  0  0  0  0  0  0  0
  139.5130   77.9570  221.1240 C   0  0  0  0  0  0  0  0  0  0  0  0
  140.1400   77.8600  222.4530 C   0  0  2  0  0  0  0  0  0  0  0  0
  140.9440   79.0190  222.8940 C   0  0  0  0  0  0  0  0  0  0  0  0
  142.3020   79.0980  222.8610 C   0  0  0  0  0  0  0  0  0  0  0  0
  142.9810   80.2210  223.2930 C   0  0  0  0  0  0  0  0  0  0  0  0
  142.3240   81.2870  223.7660 N   0  0  0  0  0  0  0  0  0  0  0  0
  140.9710   81.2630  223.8210 C   0  0  0  0  0  0  0  0  0  0  0  0
  140.2730   80.1470  223.3930 C   0  0  0  0  0  0  0  0  0  0  0  0
  141.0630   76.6630  222.3720 C   0  0  0  0  0  0  0  0  0  0  0  0
  139.9890   71.1460  223.5880 C   0  0  0  0  0  0  0  0  0  0  0  0
  139.3910   69.9070  223.5890 C   0  0  0  0  0  0  0  0  0  0  0  0
  139.3260   69.0890  224.6980 C   0  0  0  0  0  0  0  0  0  0  0  0
  139.8980   69.5530  225.8600 C   0  0  0  0  0  0  0  0  0  0  0  0
  139.8390   68.7430  226.9720 C   0  0  0  0  0  0  0  0  0  0  0  0
  140.4080   69.2010  228.1420 C   0  0  0  0  0  0  0  0  0  0  0  0
  140.3370   68.3800  229.2340 F   0  0  0  0  0  0  0  0  0  0  0  0
  141.0130   70.4330  228.1750 C   0  0  0  0  0  0  0  0  0  0  0  0
  141.0570   71.2330  227.0310 C   0  0  0  0  0  0  0  0  0  0  0  0
  140.4940   70.7960  225.8490 C   0  0  0  0  0  0  0  0  0  0  0  0
  140.5380   71.5740  224.7390 N   0  0  0  0  0  0  0  0  0  0  0  0
  138.6550   73.4810  223.0700 H   0  0  0  0  0  0  0  0  0  0  0  0
  139.1757   73.1886  220.1711 H   0  0  0  0  0  0  0  0  0  0  0  0
  138.4819   74.6196  220.9982 H   0  0  0  0  0  0  0  0  0  0  0  0
  141.2309   77.5668  219.8754 H   0  0  0  0  0  0  0  0  0  0  0  0
  139.7990   76.7384  219.3266 H   0  0  0  0  0  0  0  0  0  0  0  0
  139.5462   78.9934  220.7568 H   0  0  0  0  0  0  0  0  0  0  0  0
  138.4536   77.6620  221.1473 H   0  0  0  0  0  0  0  0  0  0  0  0
  139.3252   77.7936  223.1890 H   0  0  0  0  0  0  0  0  0  0  0  0
  142.8768   78.2416  222.4787 H   0  0  0  0  0  0  0  0  0  0  0  0
  144.0799   80.2394  223.2475 H   0  0  0  0  0  0  0  0  0  0  0  0
  140.4238   82.1352  224.2079 H   0  0  0  0  0  0  0  0  0  0  0  0
  139.1742   80.1437  223.4447 H   0  0  0  0  0  0  0  0  0  0  0  0
  142.1132   76.9842  222.3088 H   0  0  0  0  0  0  0  0  0  0  0  0
  140.9924   76.0168  223.2594 H   0  0  0  0  0  0  0  0  0  0  0  0
  138.9391   69.5482  222.6525 H   0  0  0  0  0  0  0  0  0  0  0  0
  138.8363   68.1049  224.6549 H   0  0  0  0  0  0  0  0  0  0  0  0
  139.3515   67.7579  226.9284 H   0  0  0  0  0  0  0  0  0  0  0  0
  141.4668   70.7930  229.1101 H   0  0  0  0  0  0  0  0  0  0  0  0
  141.5439   72.2185  227.0723 H   0  0  0  0  0  0  0  0  0  0  0  0
  1  2  2  0
  2  3  1  0
  3  4  1  0
  4  5  1  0
  5  6  2  0
  5  7  1  0
  7  8  1  0
  8  9  1  0
  9 10  1  0
 10 11  1  0
 11 12  2  0
 12 13  1  0
 13 14  2  0
 14 15  1  0
 15 16  2  0
 10 17  1  0
  2 18  1  0
 18 19  2  0
 19 20  1  0
 20 21  2  0
 21 22  1  0
 22 23  2  0
 23 24  1  0
 23 25  1  0
 25 26  2  0
 26 27  1  0
 27 28  2  0
 17  7  1  0
 28 18  1  0
 16 11  1  0
 27 21  1  0
  3 29  1  0
  4 30  1  0
  4 31  1  0
  8 32  1  0
  8 33  1  0
  9 34  1  0
  9 35  1  0
 10 36  1  1
 12 37  1  0
 13 38  1  0
 15 39  1  0
 16 40  1  0
 17 41  1  0
 17 42  1  0
 19 43  1  0
 20 44  1  0
 22 45  1  0
 25 46  1  0
 26 47  1  0
M  END
>  <smiles>  (45) 
O=C(NCC(=O)N1CC[C@H](c2ccncc2)C1)c1ccc2cc(F)ccc2n1

>  <score_type>  (45) 
oracle

>  <origin>  (45) 
autodockgpu

>  <m_score__min__energy>  (45) 
-8.7400000000000002

>  <m_primary>  (45) 
energy

>  <rmsd>  (45) 
2.695990625623041

>  <m_score__min__rmsd>  (45) 
2.695990625623041

>  <meeko>  (45) 
{"free_energy": -8.45, "intermolecular_energy": -9.94, "internal_energy": -0.98, "cluster_size": 42, "cluster_id": 1, "rank_in_cluster": 22}

>  <energy>  (45) 
-8.26

>  <cluster_rmsd>  (45) 
0.7

>  <cluster>  (45) 
2

$$$$

     RDKit          3D

 47 50  0  0  0  0  0  0  0  0999 V2000
  141.1100   71.9530  222.2120 O   0  0  0  0  0  0  0  0  0  0  0  0
  140.1600   71.8740  223.0520 C   0  0  0  0  0  0  0  0  0  0  0  0
  138.8980   72.4460  222.7370 N   0  0  0  0  0  0  0  0  0  0  0  0
  138.7460   73.1050  221.4570 C   0  0  0  0  0  0  0  0  0  0  0  0
  138.4740   74.5470  221.6860 C   0  0  0  0  0  0  0  0  0  0  0  0
  137.3190   75.0290  221.7990 O   0  0  0  0  0  0  0  0  0  0  0  0
  139.5770   75.4400  221.7820 N   0  0  0  0  0  0  0  0  0  0  0  0
  140.9940   75.1820  221.6170 C   0  0  0  0  0  0  0  0  0  0  0  0
  141.4180   76.3350  220.7560 C   0  0  0  0  0  0  0  0  0  0  0  0
  140.6150   77.4790  221.2180 C   0  0  2  0  0  0  0  0  0  0  0  0
  141.3160   78.5000  222.0250 C   0  0  0  0  0  0  0  0  0  0  0  0
  141.9330   79.6090  221.5340 C   0  0  0  0  0  0  0  0  0  0  0  0
  142.5680   80.5190  222.3590 C   0  0  0  0  0  0  0  0  0  0  0  0
  142.6020   80.3430  223.6860 N   0  0  0  0  0  0  0  0  0  0  0  0
  142.0030   79.2570  224.2280 C   0  0  0  0  0  0  0  0  0  0  0  0
  141.3620   78.3350  223.4180 C   0  0  0  0  0  0  0  0  0  0  0  0
  139.5250   76.8800  222.0800 C   0  0  0  0  0  0  0  0  0  0  0  0
  140.3690   71.1970  224.3330 C   0  0  0  0  0  0  0  0  0  0  0  0
  140.9150   71.8940  225.3860 C   0  0  0  0  0  0  0  0  0  0  0  0
  141.1490   71.3440  226.6290 C   0  0  0  0  0  0  0  0  0  0  0  0
  140.8110   70.0220  226.8090 C   0  0  0  0  0  0  0  0  0  0  0  0
  141.0410   69.4640  228.0470 C   0  0  0  0  0  0  0  0  0  0  0  0
  140.7060   68.1400  228.2370 C   0  0  0  0  0  0  0  0  0  0  0  0
  140.9430   67.6070  229.4750 F   0  0  0  0  0  0  0  0  0  0  0  0
  140.1590   67.4160  227.2070 C   0  0  0  0  0  0  0  0  0  0  0  0
  139.9370   68.0090  225.9620 C   0  0  0  0  0  0  0  0  0  0  0  0
  140.2650   69.3320  225.7490 C   0  0  0  0  0  0  0  0  0  0  0  0
  140.0490   69.9070  224.5390 N   0  0  0  0  0  0  0  0  0  0  0  0
  138.0850   72.3980  223.4150 H   0  0  0  0  0  0  0  0  0  0  0  0
  139.6706   72.9923  220.8719 H   0  0  0  0  0  0  0  0  0  0  0  0
  137.9109   72.6523  220.9023 H   0  0  0  0  0  0  0  0  0  0  0  0
  141.5179   75.1906  222.5842 H   0  0  0  0  0  0  0  0  0  0  0  0
  141.2197   74.1963  221.1841 H   0  0  0  0  0  0  0  0  0  0  0  0
  142.4910   76.5394  220.8864 H   0  0  0  0  0  0  0  0  0  0  0  0
  141.2615   76.1285  219.6869 H   0  0  0  0  0  0  0  0  0  0  0  0
  140.2797   78.0190  220.3203 H   0  0  0  0  0  0  0  0  0  0  0  0
  141.9264   79.7869  220.4485 H   0  0  0  0  0  0  0  0  0  0  0  0
  143.0533   81.4021  221.9179 H   0  0  0  0  0  0  0  0  0  0  0  0
  142.0256   79.1062  225.3174 H   0  0  0  0  0  0  0  0  0  0  0  0
  140.8803   77.4577  223.8743 H   0  0  0  0  0  0  0  0  0  0  0  0
  139.7250   77.0650  223.1457 H   0  0  0  0  0  0  0  0  0  0  0  0
  138.5370   77.3170  221.8727 H   0  0  0  0  0  0  0  0  0  0  0  0
  141.1799   72.9498  225.2276 H   0  0  0  0  0  0  0  0  0  0  0  0
  141.5882   71.9382  227.4439 H   0  0  0  0  0  0  0  0  0  0  0  0
  141.4800   70.0583  228.8619 H   0  0  0  0  0  0  0  0  0  0  0  0
  139.8933   66.3601  227.3634 H   0  0  0  0  0  0  0  0  0  0  0  0
  139.4976   67.4170  225.1457 H   0  0  0  0  0  0  0  0  0  0  0  0
  1  2  2  0
  2  3  1  0
  3  4  1  0
  4  5  1  0
  5  6  2  0
  5  7  1  0
  7  8  1  0
  8  9  1  0
  9 10  1  0
 10 11  1  0
 11 12  2  0
 12 13  1  0
 13 14  2  0
 14 15  1  0
 15 16  2  0
 10 17  1  0
  2 18  1  0
 18 19  2  0
 19 20  1  0
 20 21  2  0
 21 22  1  0
 22 23  2  0
 23 24  1  0
 23 25  1  0
 25 26  2  0
 26 27  1  0
 27 28  2  0
 17  7  1  0
 28 18  1  0
 16 11  1  0
 27 21  1  0
  3 29  1  0
  4 30  1  0
  4 31  1  0
  8 32  1  0
  8 33  1  0
  9 34  1  0
  9 35  1  0
 10 36  1  6
 12 37  1  0
 13 38  1  0
 15 39  1  0
 16 40  1  0
 17 41  1  0
 17 42  1  0
 19 43  1  0
 20 44  1  0
 22 45  1  0
 25 46  1  0
 26 47  1  0
M  END
>  <smiles>  (46) 
O=C(NCC(=O)N1CC[C@H](c2ccncc2)C1)c1ccc2cc(F)ccc2n1

>  <score_type>  (46) 
oracle

>  <origin>  (46) 
autodockgpu

>  <m_score__min__energy>  (46) 
-8.7400000000000002

>  <m_primary>  (46) 
energy

>  <rmsd>  (46) 
3.316635365542661

>  <m_score__min__rmsd>  (46) 
3.316635365542661

>  <meeko>  (46) 
{"free_energy": -8.38, "intermolecular_energy": -9.87, "internal_energy": -1.13, "cluster_size": 42, "cluster_id": 1, "rank_in_cluster": 24}

>  <energy>  (46) 
-8.21

>  <cluster_rmsd>  (46) 
0.66

>  <cluster>  (46) 
2

$$$$

     RDKit          3D

 47 50  0  0  0  0  0  0  0  0999 V2000
  140.8170   71.6860  221.2830 O   0  0  0  0  0  0  0  0  0  0  0  0
  140.2320   72.1570  222.3070 C   0  0  0  0  0  0  0  0  0  0  0  0
  139.6750   73.4640  222.2560 N   0  0  0  0  0  0  0  0  0  0  0  0
  139.8020   74.2130  221.0240 C   0  0  0  0  0  0  0  0  0  0  0  0
  141.2000   74.6950  220.8930 C   0  0  0  0  0  0  0  0  0  0  0  0
  142.1850   73.9360  220.7030 O   0  0  0  0  0  0  0  0  0  0  0  0
  141.4490   76.0920  220.9880 N   0  0  0  0  0  0  0  0  0  0  0  0
  142.1120   76.9800  220.0530 C   0  0  0  0  0  0  0  0  0  0  0  0
  141.1840   78.1580  220.0380 C   0  0  0  0  0  0  0  0  0  0  0  0
  140.6920   78.2820  221.4210 C   0  0  2  0  0  0  0  0  0  0  0  0
  141.2470   79.3890  222.2260 C   0  0  0  0  0  0  0  0  0  0  0  0
  142.1770   79.2620  223.2120 C   0  0  0  0  0  0  0  0  0  0  0  0
  142.6460   80.3520  223.9210 C   0  0  0  0  0  0  0  0  0  0  0  0
  142.2020   81.5880  223.6640 N   0  0  0  0  0  0  0  0  0  0  0  0
  141.2770   81.7720  222.6930 C   0  0  0  0  0  0  0  0  0  0  0  0
  140.7950   80.6930  221.9720 C   0  0  0  0  0  0  0  0  0  0  0  0
  141.0750   76.9830  222.0980 C   0  0  0  0  0  0  0  0  0  0  0  0
  140.1330   71.3560  223.5280 C   0  0  0  0  0  0  0  0  0  0  0  0
  139.4990   70.1350  223.4860 C   0  0  0  0  0  0  0  0  0  0  0  0
  139.3550   69.3100  224.5820 C   0  0  0  0  0  0  0  0  0  0  0  0
  139.8820   69.7460  225.7760 C   0  0  0  0  0  0  0  0  0  0  0  0
  139.7430   68.9290  226.8760 C   0  0  0  0  0  0  0  0  0  0  0  0
  140.2670   69.3590  228.0770 C   0  0  0  0  0  0  0  0  0  0  0  0
  140.1170   68.5300  229.1560 F   0  0  0  0  0  0  0  0  0  0  0  0
  140.9050   70.5710  228.1530 C   0  0  0  0  0  0  0  0  0  0  0  0
  141.0300   71.3800  227.0210 C   0  0  0  0  0  0  0  0  0  0  0  0
  140.5140   70.9700  225.8080 C   0  0  0  0  0  0  0  0  0  0  0  0
  140.6360   71.7560  224.7090 N   0  0  0  0  0  0  0  0  0  0  0  0
  139.1800   73.8860  223.0920 H   0  0  0  0  0  0  0  0  0  0  0  0
  139.5541   73.5643  220.1709 H   0  0  0  0  0  0  0  0  0  0  0  0
  139.1131   75.0705  221.0378 H   0  0  0  0  0  0  0  0  0  0  0  0
  143.1130   77.2632  220.4106 H   0  0  0  0  0  0  0  0  0  0  0  0
  142.2835   76.5354  219.0616 H   0  0  0  0  0  0  0  0  0  0  0  0
  141.7223   79.0689  219.7373 H   0  0  0  0  0  0  0  0  0  0  0  0
  140.3614   78.0233  219.3203 H   0  0  0  0  0  0  0  0  0  0  0  0
  139.6150   78.4975  221.3613 H   0  0  0  0  0  0  0  0  0  0  0  0
  142.5670   78.2618  223.4518 H   0  0  0  0  0  0  0  0  0  0  0  0
  143.3972   80.2008  224.7102 H   0  0  0  0  0  0  0  0  0  0  0  0
  140.9062   82.7846  222.4756 H   0  0  0  0  0  0  0  0  0  0  0  0
  140.0442   80.8608  221.1858 H   0  0  0  0  0  0  0  0  0  0  0  0
  141.9250   77.1345  222.7796 H   0  0  0  0  0  0  0  0  0  0  0  0
  140.2595   76.5718  222.7110 H   0  0  0  0  0  0  0  0  0  0  0  0
  139.0839   69.7983  222.5246 H   0  0  0  0  0  0  0  0  0  0  0  0
  138.8391   68.3416  224.5046 H   0  0  0  0  0  0  0  0  0  0  0  0
  139.2281   67.9600  226.7987 H   0  0  0  0  0  0  0  0  0  0  0  0
  141.3217   70.9087  229.1134 H   0  0  0  0  0  0  0  0  0  0  0  0
  141.5430   72.3501  227.0967 H   0  0  0  0  0  0  0  0  0  0  0  0
  1  2  2  0
  2  3  1  0
  3  4  1  0
  4  5  1  0
  5  6  2  0
  5  7  1  0
  7  8  1  0
  8  9  1  0
  9 10  1  0
 10 11  1  0
 11 12  2  0
 12 13  1  0
 13 14  2  0
 14 15  1  0
 15 16  2  0
 10 17  1  0
  2 18  1  0
 18 19  2  0
 19 20  1  0
 20 21  2  0
 21 22  1  0
 22 23  2  0
 23 24  1  0
 23 25  1  0
 25 26  2  0
 26 27  1  0
 27 28  2  0
 17  7  1  0
 28 18  1  0
 16 11  1  0
 27 21  1  0
  3 29  1  0
  4 30  1  0
  4 31  1  0
  8 32  1  0
  8 33  1  0
  9 34  1  0
  9 35  1  0
 10 36  1  6
 12 37  1  0
 13 38  1  0
 15 39  1  0
 16 40  1  0
 17 41  1  0
 17 42  1  0
 19 43  1  0
 20 44  1  0
 22 45  1  0
 25 46  1  0
 26 47  1  0
M  END
>  <smiles>  (47) 
O=C(NCC(=O)N1CC[C@H](c2ccncc2)C1)c1ccc2cc(F)ccc2n1

>  <score_type>  (47) 
oracle

>  <origin>  (47) 
autodockgpu

>  <m_score__min__energy>  (47) 
-8.7400000000000002

>  <m_primary>  (47) 
energy

>  <rmsd>  (47) 
2.4955822909929615

>  <m_score__min__rmsd>  (47) 
2.4955822909929615

>  <meeko>  (47) 
{"free_energy": -8.65, "intermolecular_energy": -10.14, "internal_energy": -0.98, "cluster_size": 42, "cluster_id": 1, "rank_in_cluster": 6}

>  <energy>  (47) 
-8.18

>  <cluster_rmsd>  (47) 
0.71

>  <cluster>  (47) 
2

$$$$

     RDKit          3D

 47 50  0  0  0  0  0  0  0  0999 V2000
  140.3760   71.4510  221.7340 O   0  0  0  0  0  0  0  0  0  0  0  0
  139.5790   71.5930  222.7130 C   0  0  0  0  0  0  0  0  0  0  0  0
  138.5550   72.5760  222.6440 N   0  0  0  0  0  0  0  0  0  0  0  0
  138.4630   73.3840  221.4480 C   0  0  0  0  0  0  0  0  0  0  0  0
  139.4220   74.5130  221.5530 C   0  0  0  0  0  0  0  0  0  0  0  0
  139.2510   75.5070  222.3040 O   0  0  0  0  0  0  0  0  0  0  0  0
  140.6030   74.4780  220.7610 N   0  0  0  0  0  0  0  0  0  0  0  0
  140.7990   74.8480  219.3740 C   0  0  0  0  0  0  0  0  0  0  0  0
  142.0680   75.6450  219.4450 C   0  0  0  0  0  0  0  0  0  0  0  0
  142.8880   74.9780  220.4700 C   0  0  2  0  0  0  0  0  0  0  0  0
  144.0320   74.1770  219.9870 C   0  0  0  0  0  0  0  0  0  0  0  0
  144.0840   73.5030  218.8060 C   0  0  0  0  0  0  0  0  0  0  0  0
  145.1960   72.7750  218.4270 C   0  0  0  0  0  0  0  0  0  0  0  0
  146.2760   72.7030  219.2130 N   0  0  0  0  0  0  0  0  0  0  0  0
  146.2800   73.3550  220.3990 C   0  0  0  0  0  0  0  0  0  0  0  0
  145.1760   74.0900  220.7970 C   0  0  0  0  0  0  0  0  0  0  0  0
  141.9410   74.0420  221.1900 C   0  0  0  0  0  0  0  0  0  0  0  0
  139.7180   70.7480  223.9000 C   0  0  0  0  0  0  0  0  0  0  0  0
  139.2230   69.4640  223.8780 C   0  0  0  0  0  0  0  0  0  0  0  0
  139.3050   68.5940  224.9450 C   0  0  0  0  0  0  0  0  0  0  0  0
  139.9200   69.0500  226.0880 C   0  0  0  0  0  0  0  0  0  0  0  0
  140.0080   68.1880  227.1580 C   0  0  0  0  0  0  0  0  0  0  0  0
  140.6220   68.6380  228.3080 C   0  0  0  0  0  0  0  0  0  0  0  0
  140.6970   67.7640  229.3590 F   0  0  0  0  0  0  0  0  0  0  0  0
  141.1260   69.9130  228.3640 C   0  0  0  0  0  0  0  0  0  0  0  0
  141.0230   70.7650  227.2620 C   0  0  0  0  0  0  0  0  0  0  0  0
  140.4120   70.3370  226.1010 C   0  0  0  0  0  0  0  0  0  0  0  0
  140.3130   71.1660  225.0310 N   0  0  0  0  0  0  0  0  0  0  0  0
  137.8740   72.7210  223.4430 H   0  0  0  0  0  0  0  0  0  0  0  0
  138.7098   72.7709  220.5687 H   0  0  0  0  0  0  0  0  0  0  0  0
  137.4400   73.7738  221.3403 H   0  0  0  0  0  0  0  0  0  0  0  0
  140.9189   73.9601  218.7358 H   0  0  0  0  0  0  0  0  0  0  0  0
  139.9524   75.3967  218.9356 H   0  0  0  0  0  0  0  0  0  0  0  0
  142.5835   75.6363  218.4733 H   0  0  0  0  0  0  0  0  0  0  0  0
  141.8771   76.6992  219.6942 H   0  0  0  0  0  0  0  0  0  0  0  0
  143.3449   75.7694  221.0823 H   0  0  0  0  0  0  0  0  0  0  0  0
  143.2148   73.5386  218.1327 H   0  0  0  0  0  0  0  0  0  0  0  0
  145.1929   72.2458  217.4627 H   0  0  0  0  0  0  0  0  0  0  0  0
  147.1649   73.3008  221.0502 H   0  0  0  0  0  0  0  0  0  0  0  0
  145.1953   74.6145  221.7637 H   0  0  0  0  0  0  0  0  0  0  0  0
  142.1244   72.9986  220.8940 H   0  0  0  0  0  0  0  0  0  0  0  0
  142.0645   74.0777  222.2825 H   0  0  0  0  0  0  0  0  0  0  0  0
  138.7345   69.1118  222.9575 H   0  0  0  0  0  0  0  0  0  0  0  0
  138.8946   67.5752  224.8845 H   0  0  0  0  0  0  0  0  0  0  0  0
  139.5998   67.1684  227.0973 H   0  0  0  0  0  0  0  0  0  0  0  0
  141.6149   70.2668  229.2837 H   0  0  0  0  0  0  0  0  0  0  0  0
  141.4319   71.7845  227.3200 H   0  0  0  0  0  0  0  0  0  0  0  0
  1  2  2  0
  2  3  1  0
  3  4  1  0
  4  5  1  0
  5  6  2  0
  5  7  1  0
  7  8  1  0
  8  9  1  0
  9 10  1  0
 10 11  1  0
 11 12  2  0
 12 13  1  0
 13 14  2  0
 14 15  1  0
 15 16  2  0
 10 17  1  0
  2 18  1  0
 18 19  2  0
 19 20  1  0
 20 21  2  0
 21 22  1  0
 22 23  2  0
 23 24  1  0
 23 25  1  0
 25 26  2  0
 26 27  1  0
 27 28  2  0
 17  7  1  0
 28 18  1  0
 16 11  1  0
 27 21  1  0
  3 29  1  0
  4 30  1  0
  4 31  1  0
  8 32  1  0
  8 33  1  0
  9 34  1  0
  9 35  1  0
 10 36  1  1
 12 37  1  0
 13 38  1  0
 15 39  1  0
 16 40  1  0
 17 41  1  0
 17 42  1  0
 19 43  1  0
 20 44  1  0
 22 45  1  0
 25 46  1  0
 26 47  1  0
M  END
>  <smiles>  (48) 
O=C(NCC(=O)N1CC[C@H](c2ccncc2)C1)c1ccc2cc(F)ccc2n1

>  <score_type>  (48) 
oracle

>  <origin>  (48) 
autodockgpu

>  <m_score__min__energy>  (48) 
-8.7400000000000002

>  <m_primary>  (48) 
energy

>  <rmsd>  (48) 
2.1435847058222413

>  <m_score__min__rmsd>  (48) 
2.1435847058222413

>  <meeko>  (48) 
{"free_energy": -8.34, "intermolecular_energy": -9.83, "internal_energy": -1.18, "cluster_size": 8, "cluster_id": 2, "rank_in_cluster": 1}

>  <energy>  (48) 
-8.11

>  <cluster_rmsd>  (48) 
0.79

>  <cluster>  (48) 
2

$$$$

     RDKit          3D

 47 50  0  0  0  0  0  0  0  0999 V2000
  139.8880   73.6780  222.7130 O   0  0  0  0  0  0  0  0  0  0  0  0
  140.2660   72.4720  222.5890 C   0  0  0  0  0  0  0  0  0  0  0  0
  140.7420   72.0130  221.3320 N   0  0  0  0  0  0  0  0  0  0  0  0
  140.7760   72.9510  220.2300 C   0  0  0  0  0  0  0  0  0  0  0  0
  142.1390   73.5360  220.1350 C   0  0  0  0  0  0  0  0  0  0  0  0
  143.1610   72.8730  219.8220 O   0  0  0  0  0  0  0  0  0  0  0  0
  142.3060   74.9200  220.4120 N   0  0  0  0  0  0  0  0  0  0  0  0
  143.3310   75.8380  219.9570 C   0  0  0  0  0  0  0  0  0  0  0  0
  142.5190   77.0360  219.5640 C   0  0  0  0  0  0  0  0  0  0  0  0
  141.4250   77.1020  220.5460 C   0  0  2  0  0  0  0  0  0  0  0  0
  141.5210   78.1560  221.5770 C   0  0  0  0  0  0  0  0  0  0  0  0
  141.4120   77.9620  222.9200 C   0  0  0  0  0  0  0  0  0  0  0  0
  141.5150   79.0050  223.8210 C   0  0  0  0  0  0  0  0  0  0  0  0
  141.7270   80.2600  223.4060 N   0  0  0  0  0  0  0  0  0  0  0  0
  141.8440   80.5100  222.0810 C   0  0  0  0  0  0  0  0  0  0  0  0
  141.7440   79.4790  221.1620 C   0  0  0  0  0  0  0  0  0  0  0  0
  141.4420   75.7640  221.2530 C   0  0  0  0  0  0  0  0  0  0  0  0
  140.2100   71.5650  223.7370 C   0  0  0  0  0  0  0  0  0  0  0  0
  139.6510   70.3160  223.5850 C   0  0  0  0  0  0  0  0  0  0  0  0
  139.5530   69.3930  224.6050 C   0  0  0  0  0  0  0  0  0  0  0  0
  140.0480   69.7560  225.8370 C   0  0  0  0  0  0  0  0  0  0  0  0
  139.9550   68.8400  226.8610 C   0  0  0  0  0  0  0  0  0  0  0  0
  140.4470   69.1960  228.1000 C   0  0  0  0  0  0  0  0  0  0  0  0
  140.3440   68.2700  229.1020 F   0  0  0  0  0  0  0  0  0  0  0  0
  141.0110   70.4330  228.2840 C   0  0  0  0  0  0  0  0  0  0  0  0
  141.0920   71.3420  227.2260 C   0  0  0  0  0  0  0  0  0  0  0  0
  140.6050   71.0080  225.9790 C   0  0  0  0  0  0  0  0  0  0  0  0
  140.6840   71.8910  224.9520 N   0  0  0  0  0  0  0  0  0  0  0  0
  141.0650   71.0130  221.1940 H   0  0  0  0  0  0  0  0  0  0  0  0
  140.5328   72.4284  219.2931 H   0  0  0  0  0  0  0  0  0  0  0  0
  140.0393   73.7502  220.3991 H   0  0  0  0  0  0  0  0  0  0  0  0
  144.0379   76.0808  220.7641 H   0  0  0  0  0  0  0  0  0  0  0  0
  143.9572   75.4391  219.1454 H   0  0  0  0  0  0  0  0  0  0  0  0
  143.1319   77.9483  219.6080 H   0  0  0  0  0  0  0  0  0  0  0  0
  142.1415   76.9559  218.5339 H   0  0  0  0  0  0  0  0  0  0  0  0
  140.5076   77.3433  219.9890 H   0  0  0  0  0  0  0  0  0  0  0  0
  141.2367   76.9445  223.2995 H   0  0  0  0  0  0  0  0  0  0  0  0
  141.4211   78.8004  224.8977 H   0  0  0  0  0  0  0  0  0  0  0  0
  142.0196   81.5383  221.7321 H   0  0  0  0  0  0  0  0  0  0  0  0
  141.8409   79.7000  220.0888 H   0  0  0  0  0  0  0  0  0  0  0  0
  141.8606   75.8634  222.2654 H   0  0  0  0  0  0  0  0  0  0  0  0
  140.4341   75.3414  221.3776 H   0  0  0  0  0  0  0  0  0  0  0  0
  139.2607   70.0388  222.5946 H   0  0  0  0  0  0  0  0  0  0  0  0
  139.0971   68.4055  224.4405 H   0  0  0  0  0  0  0  0  0  0  0  0
  139.5010   67.8518  226.6958 H   0  0  0  0  0  0  0  0  0  0  0  0
  141.4030   70.7117  229.2733 H   0  0  0  0  0  0  0  0  0  0  0  0
  141.5469   72.3303  227.3883 H   0  0  0  0  0  0  0  0  0  0  0  0
  1  2  2  0
  2  3  1  0
  3  4  1  0
  4  5  1  0
  5  6  2  0
  5  7  1  0
  7  8  1  0
  8  9  1  0
  9 10  1  0
 10 11  1  0
 11 12  2  0
 12 13  1  0
 13 14  2  0
 14 15  1  0
 15 16  2  0
 10 17  1  0
  2 18  1  0
 18 19  2  0
 19 20  1  0
 20 21  2  0
 21 22  1  0
 22 23  2  0
 23 24  1  0
 23 25  1  0
 25 26  2  0
 26 27  1  0
 27 28  2  0
 17  7  1  0
 28 18  1  0
 16 11  1  0
 27 21  1  0
  3 29  1  0
  4 30  1  0
  4 31  1  0
  8 32  1  0
  8 33  1  0
  9 34  1  0
  9 35  1  0
 10 36  1  6
 12 37  1  0
 13 38  1  0
 15 39  1  0
 16 40  1  0
 17 41  1  0
 17 42  1  0
 19 43  1  0
 20 44  1  0
 22 45  1  0
 25 46  1  0
 26 47  1  0
M  END
>  <smiles>  (49) 
O=C(NCC(=O)N1CC[C@H](c2ccncc2)C1)c1ccc2cc(F)ccc2n1

>  <score_type>  (49) 
oracle

>  <origin>  (49) 
autodockgpu

>  <m_score__min__energy>  (49) 
-8.7400000000000002

>  <m_primary>  (49) 
energy

>  <rmsd>  (49) 
2.5098471135587435

>  <m_score__min__rmsd>  (49) 
2.5098471135587435

>  <meeko>  (49) 
{"free_energy": -8.3, "intermolecular_energy": -9.79, "internal_energy": -1.13, "cluster_size": 42, "cluster_id": 1, "rank_in_cluster": 37}

>  <energy>  (49) 
-8.08

>  <cluster_rmsd>  (49) 
0.42

>  <cluster>  (49) 
2

$$$$

     RDKit          3D

 47 50  0  0  0  0  0  0  0  0999 V2000
  140.9300   71.6400  221.4320 O   0  0  0  0  0  0  0  0  0  0  0  0
  140.2030   72.0090  222.4050 C   0  0  0  0  0  0  0  0  0  0  0  0
  139.4410   73.2040  222.2960 N   0  0  0  0  0  0  0  0  0  0  0  0
  139.5290   73.9600  221.0660 C   0  0  0  0  0  0  0  0  0  0  0  0
  140.8080   74.7160  221.0540 C   0  0  0  0  0  0  0  0  0  0  0  0
  141.9360   74.1740  220.9310 O   0  0  0  0  0  0  0  0  0  0  0  0
  140.7640   76.1300  221.1880 N   0  0  0  0  0  0  0  0  0  0  0  0
  140.4180   77.1430  220.2110 C   0  0  0  0  0  0  0  0  0  0  0  0
  139.5120   78.0380  221.0030 C   0  0  0  0  0  0  0  0  0  0  0  0
  140.0750   78.0550  222.3630 C   0  0  2  0  0  0  0  0  0  0  0  0
  140.7870   79.2830  222.7720 C   0  0  0  0  0  0  0  0  0  0  0  0
  140.4620   80.5490  222.3930 C   0  0  0  0  0  0  0  0  0  0  0  0
  141.1820   81.6490  222.8220 C   0  0  0  0  0  0  0  0  0  0  0  0
  142.2360   81.5120  223.6340 N   0  0  0  0  0  0  0  0  0  0  0  0
  142.6030   80.2750  224.0430 C   0  0  0  0  0  0  0  0  0  0  0  0
  141.8950   79.1610  223.6250 C   0  0  0  0  0  0  0  0  0  0  0  0
  141.0690   76.9130  222.3960 C   0  0  0  0  0  0  0  0  0  0  0  0
  140.1510   71.2050  223.6280 C   0  0  0  0  0  0  0  0  0  0  0  0
  139.5710   69.9580  223.5930 C   0  0  0  0  0  0  0  0  0  0  0  0
  139.4750   69.1280  224.6910 C   0  0  0  0  0  0  0  0  0  0  0  0
  139.9930   69.5880  225.8790 C   0  0  0  0  0  0  0  0  0  0  0  0
  139.9020   68.7660  226.9810 C   0  0  0  0  0  0  0  0  0  0  0  0
  140.4170   69.2200  228.1770 C   0  0  0  0  0  0  0  0  0  0  0  0
  140.3150   68.3870  229.2570 F   0  0  0  0  0  0  0  0  0  0  0  0
  141.0020   70.4600  228.2460 C   0  0  0  0  0  0  0  0  0  0  0  0
  141.0800   71.2720  227.1120 C   0  0  0  0  0  0  0  0  0  0  0  0
  140.5710   70.8390  225.9050 C   0  0  0  0  0  0  0  0  0  0  0  0
  140.6470   71.6290  224.8040 N   0  0  0  0  0  0  0  0  0  0  0  0
  138.8240   73.5400  223.0890 H   0  0  0  0  0  0  0  0  0  0  0  0
  139.4986   73.2728  220.2076 H   0  0  0  0  0  0  0  0  0  0  0  0
  138.6829   74.6596  220.9981 H   0  0  0  0  0  0  0  0  0  0  0  0
  141.3100   77.6839  219.8621 H   0  0  0  0  0  0  0  0  0  0  0  0
  139.9577   76.7405  219.2966 H   0  0  0  0  0  0  0  0  0  0  0  0
  139.5034   79.0521  220.5768 H   0  0  0  0  0  0  0  0  0  0  0  0
  138.4718   77.6802  220.9941 H   0  0  0  0  0  0  0  0  0  0  0  0
  139.2293   77.9816  223.0625 H   0  0  0  0  0  0  0  0  0  0  0  0
  139.6011   80.7019  221.7256 H   0  0  0  0  0  0  0  0  0  0  0  0
  140.8827   82.6540  222.4897 H   0  0  0  0  0  0  0  0  0  0  0  0
  143.4685   80.1541  224.7111 H   0  0  0  0  0  0  0  0  0  0  0  0
  142.2062   78.1630  223.9673 H   0  0  0  0  0  0  0  0  0  0  0  0
  142.1006   77.2934  222.3636 H   0  0  0  0  0  0  0  0  0  0  0  0
  140.9908   76.3144  223.3155 H   0  0  0  0  0  0  0  0  0  0  0  0
  139.1608   69.6028  222.6361 H   0  0  0  0  0  0  0  0  0  0  0  0
  139.0027   68.1372  224.6189 H   0  0  0  0  0  0  0  0  0  0  0  0
  139.4313   67.7744  226.9088 H   0  0  0  0  0  0  0  0  0  0  0  0
  141.4126   70.8171  229.2020 H   0  0  0  0  0  0  0  0  0  0  0  0
  141.5506   72.2638  227.1819 H   0  0  0  0  0  0  0  0  0  0  0  0
  1  2  2  0
  2  3  1  0
  3  4  1  0
  4  5  1  0
  5  6  2  0
  5  7  1  0
  7  8  1  0
  8  9  1  0
  9 10  1  0
 10 11  1  0
 11 12  2  0
 12 13  1  0
 13 14  2  0
 14 15  1  0
 15 16  2  0
 10 17  1  0
  2 18  1  0
 18 19  2  0
 19 20  1  0
 20 21  2  0
 21 22  1  0
 22 23  2  0
 23 24  1  0
 23 25  1  0
 25 26  2  0
 26 27  1  0
 27 28  2  0
 17  7  1  0
 28 18  1  0
 16 11  1  0
 27 21  1  0
  3 29  1  0
  4 30  1  0
  4 31  1  0
  8 32  1  0
  8 33  1  0
  9 34  1  0
  9 35  1  0
 10 36  1  1
 12 37  1  0
 13 38  1  0
 15 39  1  0
 16 40  1  0
 17 41  1  0
 17 42  1  0
 19 43  1  0
 20 44  1  0
 22 45  1  0
 25 46  1  0
 26 47  1  0
M  END
>  <smiles>  (50) 
O=C(NCC(=O)N1CC[C@H](c2ccncc2)C1)c1ccc2cc(F)ccc2n1

>  <score_type>  (50) 
oracle

>  <origin>  (50) 
autodockgpu

>  <m_score__min__energy>  (50) 
-8.7400000000000002

>  <m_primary>  (50) 
energy

>  <rmsd>  (50) 
2.7415627284086224

>  <m_score__min__rmsd>  (50) 
2.7415627284086224

>  <meeko>  (50) 
{"free_energy": -8.48, "intermolecular_energy": -9.98, "internal_energy": -0.99, "cluster_size": 42, "cluster_id": 1, "rank_in_cluster": 21}

>  <energy>  (50) 
-8.05

>  <cluster_rmsd>  (50) 
0.66

>  <cluster>  (50) 
2

$$$$
