
     RDKit          3D

 49 52  0  0  0  0  0  0  0  0999 V2000
  141.5570   72.3200  221.9160 O   0  0  0  0  0  0  0  0  0  0  0  0
  140.5240   72.4520  222.6310 C   0  0  0  0  0  0  0  0  0  0  0  0
  139.5690   73.4670  222.3240 N   0  0  0  0  0  0  0  0  0  0  0  0
  139.7410   74.3550  221.2210 C   0  0  0  0  0  0  0  0  0  0  0  0
  140.8400   75.3120  221.3740 C   0  0  0  0  0  0  0  0  0  0  0  0
  140.9230   76.1410  222.3440 O   0  0  0  0  0  0  0  0  0  0  0  0
  141.8690   75.3160  220.3900 N   0  0  0  0  0  0  0  0  0  0  0  0
  142.5700   76.5370  220.0070 C   0  0  0  0  0  0  0  0  0  0  0  0
  142.5840   76.7240  218.5120 C   0  0  0  0  0  0  0  0  0  0  0  0
  142.9270   75.4500  217.7810 C   0  0  0  0  0  0  0  0  0  0  0  0
  142.0850   74.2990  218.2290 C   0  0  0  0  0  0  0  0  0  0  0  0
  142.2740   74.1000  219.7170 C   0  0  1  0  0  0  0  0  0  0  0  0
  143.6780   73.7150  219.9960 C   0  0  0  0  0  0  0  0  0  0  0  0
  144.4390   74.5000  220.8090 N   0  0  0  0  0  0  0  0  0  0  0  0
  145.7080   74.1380  221.0520 C   0  0  0  0  0  0  0  0  0  0  0  0
  146.2990   73.0100  220.5280 C   0  0  0  0  0  0  0  0  0  0  0  0
  145.4950   72.2250  219.6990 C   0  0  0  0  0  0  0  0  0  0  0  0
  144.2470   72.6300  219.4910 N   0  0  0  0  0  0  0  0  0  0  0  0
  140.2810   71.5660  223.7910 C   0  0  0  0  0  0  0  0  0  0  0  0
  139.5560   70.4100  223.5830 C   0  0  0  0  0  0  0  0  0  0  0  0
  139.3150   69.5600  224.6560 C   0  0  0  0  0  0  0  0  0  0  0  0
  139.8050   69.8910  225.9110 C   0  0  0  0  0  0  0  0  0  0  0  0
  139.5730   69.0530  226.9940 C   0  0  0  0  0  0  0  0  0  0  0  0
  140.1020   69.4650  228.2140 C   0  0  0  0  0  0  0  0  0  0  0  0
  140.8180   70.6380  228.3410 C   0  0  0  0  0  0  0  0  0  0  0  0
  141.0420   71.4620  227.2550 C   0  0  0  0  0  0  0  0  0  0  0  0
  140.5190   71.0650  226.0280 C   0  0  0  0  0  0  0  0  0  0  0  0
  140.7510   71.8840  224.9860 N   0  0  0  0  0  0  0  0  0  0  0  0
  138.7220   73.5240  222.9650 H   0  0  0  0  0  0  0  0  0  0  0  0
  139.9341   73.7517  220.3217 H   0  0  0  0  0  0  0  0  0  0  0  0
  138.8177   74.9490  221.1520 H   0  0  0  0  0  0  0  0  0  0  0  0
  142.0655   77.3981  220.4696 H   0  0  0  0  0  0  0  0  0  0  0  0
  143.6111   76.4585  220.3532 H   0  0  0  0  0  0  0  0  0  0  0  0
  141.5883   77.0611  218.1879 H   0  0  0  0  0  0  0  0  0  0  0  0
  143.3569   77.4691  218.2724 H   0  0  0  0  0  0  0  0  0  0  0  0
  142.7695   75.6062  216.7036 H   0  0  0  0  0  0  0  0  0  0  0  0
  143.9770   75.2064  218.0004 H   0  0  0  0  0  0  0  0  0  0  0  0
  141.0268   74.5116  218.0168 H   0  0  0  0  0  0  0  0  0  0  0  0
  142.3850   73.3876  217.6911 H   0  0  0  0  0  0  0  0  0  0  0  0
  141.6485   73.2792  220.0978 H   0  0  0  0  0  0  0  0  0  0  0  0
  146.3123   74.7807  221.7091 H   0  0  0  0  0  0  0  0  0  0  0  0
  147.3429   72.7431  220.7494 H   0  0  0  0  0  0  0  0  0  0  0  0
  145.8808   71.3052  219.2353 H   0  0  0  0  0  0  0  0  0  0  0  0
  139.1739   70.1646  222.5811 H   0  0  0  0  0  0  0  0  0  0  0  0
  138.7408   68.6330  224.5114 H   0  0  0  0  0  0  0  0  0  0  0  0
  139.0037   68.1171  226.8935 H   0  0  0  0  0  0  0  0  0  0  0  0
  139.9447   68.8369  229.1032 H   0  0  0  0  0  0  0  0  0  0  0  0
  141.2179   70.9222  229.3256 H   0  0  0  0  0  0  0  0  0  0  0  0
  141.6125   72.3970  227.3564 H   0  0  0  0  0  0  0  0  0  0  0  0
  1  2  2  0
  2  3  1  0
  3  4  1  0
  4  5  1  0
  5  6  2  0
  5  7  1  0
  7  8  1  0
  8  9  1  0
  9 10  1  0
 10 11  1  0
 11 12  1  0
 12 13  1  0
 13 14  2  0
 14 15  1  0
 15 16  2  0
 16 17  1  0
 17 18  2  0
  2 19  1  0
 19 20  2  0
 20 21  1  0
 21 22  2  0
 22 23  1  0
 23 24  2  0
 24 25  1  0
 25 26  2  0
 26 27  1  0
 27 28  2  0
 12  7  1  0
 18 13  1  0
 28 19  1  0
 27 22  1  0
  3 29  1  0
  4 30  1  0
  4 31  1  0
  8 32  1  0
  8 33  1  0
  9 34  1  0
  9 35  1  0
 10 36  1  0
 10 37  1  0
 11 38  1  0
 11 39  1  0
 12 40  1  1
 15 41  1  0
 16 42  1  0
 17 43  1  0
 20 44  1  0
 21 45  1  0
 23 46  1  0
 24 47  1  0
 25 48  1  0
 26 49  1  0
M  END
>  <smiles>  (1) 
O=C(NCC(=O)N1CCCC[C@H]1c1ncccn1)c1ccc2ccccc2n1

>  <score_type>  (1) 
oracle

>  <origin>  (1) 
autodockgpu

>  <m_score__min__energy>  (1) 
-8.6099999999999994

>  <m_primary>  (1) 
energy

>  <rmsd>  (1) 
3.8895585353621507

>  <m_score__min__rmsd>  (1) 
3.8895585353621507

>  <meeko>  (1) 
{"free_energy": -8.19, "intermolecular_energy": -9.68, "internal_energy": -1.6, "cluster_size": 9, "cluster_id": 2, "rank_in_cluster": 3}

>  <energy>  (1) 
-8.61

>  <cluster_rmsd>  (1) 
0.0

>  <cluster>  (1) 
1

$$$$

     RDKit          3D

 49 52  0  0  0  0  0  0  0  0999 V2000
  140.8540   71.4080  221.3250 O   0  0  0  0  0  0  0  0  0  0  0  0
  140.3740   71.9970  222.3360 C   0  0  0  0  0  0  0  0  0  0  0  0
  139.9530   73.3560  222.2350 N   0  0  0  0  0  0  0  0  0  0  0  0
  140.0550   74.0900  221.0160 C   0  0  0  0  0  0  0  0  0  0  0  0
  140.9410   75.2550  221.0780 C   0  0  0  0  0  0  0  0  0  0  0  0
  142.1960   75.2000  220.8390 O   0  0  0  0  0  0  0  0  0  0  0  0
  140.3720   76.5140  221.4240 N   0  0  0  0  0  0  0  0  0  0  0  0
  139.2360   76.6270  222.3320 C   0  0  0  0  0  0  0  0  0  0  0  0
  138.1360   77.4730  221.7440 C   0  0  0  0  0  0  0  0  0  0  0  0
  138.6650   78.7340  221.1080 C   0  0  0  0  0  0  0  0  0  0  0  0
  139.7800   78.4590  220.1530 C   0  0  0  0  0  0  0  0  0  0  0  0
  140.8970   77.7510  220.8890 C   0  0  1  0  0  0  0  0  0  0  0  0
  141.4590   78.6480  221.9270 C   0  0  0  0  0  0  0  0  0  0  0  0
  141.3800   78.2870  223.2390 N   0  0  0  0  0  0  0  0  0  0  0  0
  141.8920   79.1090  224.1670 C   0  0  0  0  0  0  0  0  0  0  0  0
  142.5010   80.3100  223.8780 C   0  0  0  0  0  0  0  0  0  0  0  0
  142.5670   80.6540  222.5260 C   0  0  0  0  0  0  0  0  0  0  0  0
  142.0440   79.8040  221.6490 N   0  0  0  0  0  0  0  0  0  0  0  0
  140.2380   71.2970  223.6330 C   0  0  0  0  0  0  0  0  0  0  0  0
  139.6260   70.0600  223.6410 C   0  0  0  0  0  0  0  0  0  0  0  0
  139.4860   69.3830  224.8450 C   0  0  0  0  0  0  0  0  0  0  0  0
  139.9630   69.9620  226.0130 C   0  0  0  0  0  0  0  0  0  0  0  0
  139.8320   69.2980  227.2250 C   0  0  0  0  0  0  0  0  0  0  0  0
  140.3390   69.9540  228.3430 C   0  0  0  0  0  0  0  0  0  0  0  0
  140.9400   71.1930  228.2530 C   0  0  0  0  0  0  0  0  0  0  0  0
  141.0640   71.8420  227.0400 C   0  0  0  0  0  0  0  0  0  0  0  0
  140.5610   71.2000  225.9120 C   0  0  0  0  0  0  0  0  0  0  0  0
  140.6950   71.8530  224.7430 N   0  0  0  0  0  0  0  0  0  0  0  0
  139.5570   73.7920  223.1220 H   0  0  0  0  0  0  0  0  0  0  0  0
  140.4343   73.4115  220.2377 H   0  0  0  0  0  0  0  0  0  0  0  0
  139.0479   74.4754  220.7990 H   0  0  0  0  0  0  0  0  0  0  0  0
  138.8415   75.6208  222.5367 H   0  0  0  0  0  0  0  0  0  0  0  0
  139.5829   77.1095  223.2577 H   0  0  0  0  0  0  0  0  0  0  0  0
  137.6076   76.8852  220.9790 H   0  0  0  0  0  0  0  0  0  0  0  0
  137.4608   77.7650  222.5619 H   0  0  0  0  0  0  0  0  0  0  0  0
  137.8459   79.2269  220.5638 H   0  0  0  0  0  0  0  0  0  0  0  0
  139.0574   79.3775  221.9092 H   0  0  0  0  0  0  0  0  0  0  0  0
  139.4154   77.8209  219.3345 H   0  0  0  0  0  0  0  0  0  0  0  0
  140.1526   79.4057  219.7347 H   0  0  0  0  0  0  0  0  0  0  0  0
  141.7298   77.5000  220.2156 H   0  0  0  0  0  0  0  0  0  0  0  0
  141.8212   78.8058  225.2220 H   0  0  0  0  0  0  0  0  0  0  0  0
  142.9111   80.9597  224.6652 H   0  0  0  0  0  0  0  0  0  0  0  0
  143.0349   81.5944  222.1992 H   0  0  0  0  0  0  0  0  0  0  0  0
  139.2540   69.6163  222.7057 H   0  0  0  0  0  0  0  0  0  0  0  0
  139.0011   68.3960  224.8732 H   0  0  0  0  0  0  0  0  0  0  0  0
  139.3547   68.3096  227.2977 H   0  0  0  0  0  0  0  0  0  0  0  0
  140.2582   69.4704  229.3277 H   0  0  0  0  0  0  0  0  0  0  0  0
  141.3274   71.6726  229.1640 H   0  0  0  0  0  0  0  0  0  0  0  0
  141.5426   72.8298  226.9681 H   0  0  0  0  0  0  0  0  0  0  0  0
  1  2  2  0
  2  3  1  0
  3  4  1  0
  4  5  1  0
  5  6  2  0
  5  7  1  0
  7  8  1  0
  8  9  1  0
  9 10  1  0
 10 11  1  0
 11 12  1  0
 12 13  1  0
 13 14  2  0
 14 15  1  0
 15 16  2  0
 16 17  1  0
 17 18  2  0
  2 19  1  0
 19 20  2  0
 20 21  1  0
 21 22  2  0
 22 23  1  0
 23 24  2  0
 24 25  1  0
 25 26  2  0
 26 27  1  0
 27 28  2  0
 12  7  1  0
 18 13  1  0
 28 19  1  0
 27 22  1  0
  3 29  1  0
  4 30  1  0
  4 31  1  0
  8 32  1  0
  8 33  1  0
  9 34  1  0
  9 35  1  0
 10 36  1  0
 10 37  1  0
 11 38  1  0
 11 39  1  0
 12 40  1  6
 15 41  1  0
 16 42  1  0
 17 43  1  0
 20 44  1  0
 21 45  1  0
 23 46  1  0
 24 47  1  0
 25 48  1  0
 26 49  1  0
M  END
>  <smiles>  (2) 
O=C(NCC(=O)N1CCCC[C@H]1c1ncccn1)c1ccc2ccccc2n1

>  <score_type>  (2) 
oracle

>  <origin>  (2) 
autodockgpu

>  <m_score__min__energy>  (2) 
-8.6099999999999994

>  <m_primary>  (2) 
energy

>  <rmsd>  (2) 
2.4555477463605353

>  <m_score__min__rmsd>  (2) 
2.4555477463605353

>  <meeko>  (2) 
{"free_energy": -8.55, "intermolecular_energy": -10.04, "internal_energy": -1.4, "cluster_size": 28, "cluster_id": 1, "rank_in_cluster": 6}

>  <energy>  (2) 
-8.59

>  <cluster_rmsd>  (2) 
0.16

>  <cluster>  (2) 
1

$$$$

     RDKit          3D

 49 52  0  0  0  0  0  0  0  0999 V2000
  140.7570   71.3820  221.3040 O   0  0  0  0  0  0  0  0  0  0  0  0
  140.3110   71.9820  222.3240 C   0  0  0  0  0  0  0  0  0  0  0  0
  139.9100   73.3480  222.2280 N   0  0  0  0  0  0  0  0  0  0  0  0
  139.9960   74.0750  221.0040 C   0  0  0  0  0  0  0  0  0  0  0  0
  140.8870   75.2380  221.0470 C   0  0  0  0  0  0  0  0  0  0  0  0
  142.1340   75.1820  220.7730 O   0  0  0  0  0  0  0  0  0  0  0  0
  140.3310   76.4970  221.4140 N   0  0  0  0  0  0  0  0  0  0  0  0
  139.2100   76.6080  222.3420 C   0  0  0  0  0  0  0  0  0  0  0  0
  138.1050   77.4650  221.7800 C   0  0  0  0  0  0  0  0  0  0  0  0
  138.6300   78.7290  221.1470 C   0  0  0  0  0  0  0  0  0  0  0  0
  139.7280   78.4570  220.1700 C   0  0  0  0  0  0  0  0  0  0  0  0
  140.8530   77.7360  220.8810 C   0  0  1  0  0  0  0  0  0  0  0  0
  141.4370   78.6210  221.9190 C   0  0  0  0  0  0  0  0  0  0  0  0
  142.0810   79.7600  221.5420 N   0  0  0  0  0  0  0  0  0  0  0  0
  142.6040   80.5510  222.4910 C   0  0  0  0  0  0  0  0  0  0  0  0
  142.5310   80.2820  223.8400 C   0  0  0  0  0  0  0  0  0  0  0  0
  141.8660   79.1070  224.1970 C   0  0  0  0  0  0  0  0  0  0  0  0
  141.3680   78.3620  223.2160 N   0  0  0  0  0  0  0  0  0  0  0  0
  140.1940   71.2890  223.6260 C   0  0  0  0  0  0  0  0  0  0  0  0
  139.5870   70.0490  223.6480 C   0  0  0  0  0  0  0  0  0  0  0  0
  139.4650   69.3780  224.8580 C   0  0  0  0  0  0  0  0  0  0  0  0
  139.9540   69.9660  226.0170 C   0  0  0  0  0  0  0  0  0  0  0  0
  139.8400   69.3080  227.2350 C   0  0  0  0  0  0  0  0  0  0  0  0
  140.3580   69.9730  228.3420 C   0  0  0  0  0  0  0  0  0  0  0  0
  140.9510   71.2140  228.2380 C   0  0  0  0  0  0  0  0  0  0  0  0
  141.0580   71.8580  227.0200 C   0  0  0  0  0  0  0  0  0  0  0  0
  140.5450   71.2060  225.9020 C   0  0  0  0  0  0  0  0  0  0  0  0
  140.6610   71.8530  224.7280 N   0  0  0  0  0  0  0  0  0  0  0  0
  139.5440   73.7940  223.1220 H   0  0  0  0  0  0  0  0  0  0  0  0
  140.3615   73.3913  220.2237 H   0  0  0  0  0  0  0  0  0  0  0  0
  138.9870   74.4624  220.7997 H   0  0  0  0  0  0  0  0  0  0  0  0
  138.8134   75.6021  222.5442 H   0  0  0  0  0  0  0  0  0  0  0  0
  139.5747   77.0805  223.2659 H   0  0  0  0  0  0  0  0  0  0  0  0
  137.5610   76.8870  221.0184 H   0  0  0  0  0  0  0  0  0  0  0  0
  137.4449   77.7528  222.6115 H   0  0  0  0  0  0  0  0  0  0  0  0
  137.8045   79.2313  220.6214 H   0  0  0  0  0  0  0  0  0  0  0  0
  139.0394   79.3628  221.9474 H   0  0  0  0  0  0  0  0  0  0  0  0
  139.3463   77.8287  219.3518 H   0  0  0  0  0  0  0  0  0  0  0  0
  140.0987   79.4055  219.7541 H   0  0  0  0  0  0  0  0  0  0  0  0
  141.6726   77.4868  220.1909 H   0  0  0  0  0  0  0  0  0  0  0  0
  143.1215   81.4682  222.1732 H   0  0  0  0  0  0  0  0  0  0  0  0
  142.9708   80.9535  224.5921 H   0  0  0  0  0  0  0  0  0  0  0  0
  141.7585   78.8095  225.2506 H   0  0  0  0  0  0  0  0  0  0  0  0
  139.2052   69.5987  222.7198 H   0  0  0  0  0  0  0  0  0  0  0  0
  138.9850   68.3890  224.8978 H   0  0  0  0  0  0  0  0  0  0  0  0
  139.3675   68.3183  227.3195 H   0  0  0  0  0  0  0  0  0  0  0  0
  140.2926   69.4944  229.3303 H   0  0  0  0  0  0  0  0  0  0  0  0
  141.3463   71.7004  229.1420 H   0  0  0  0  0  0  0  0  0  0  0  0
  141.5304   72.8479  226.9370 H   0  0  0  0  0  0  0  0  0  0  0  0
  1  2  2  0
  2  3  1  0
  3  4  1  0
  4  5  1  0
  5  6  2  0
  5  7  1  0
  7  8  1  0
  8  9  1  0
  9 10  1  0
 10 11  1  0
 11 12  1  0
 12 13  1  0
 13 14  2  0
 14 15  1  0
 15 16  2  0
 16 17  1  0
 17 18  2  0
  2 19  1  0
 19 20  2  0
 20 21  1  0
 21 22  2  0
 22 23  1  0
 23 24  2  0
 24 25  1  0
 25 26  2  0
 26 27  1  0
 27 28  2  0
 12  7  1  0
 18 13  1  0
 28 19  1  0
 27 22  1  0
  3 29  1  0
  4 30  1  0
  4 31  1  0
  8 32  1  0
  8 33  1  0
  9 34  1  0
  9 35  1  0
 10 36  1  0
 10 37  1  0
 11 38  1  0
 11 39  1  0
 12 40  1  6
 15 41  1  0
 16 42  1  0
 17 43  1  0
 20 44  1  0
 21 45  1  0
 23 46  1  0
 24 47  1  0
 25 48  1  0
 26 49  1  0
M  END
>  <smiles>  (3) 
O=C(NCC(=O)N1CCCC[C@H]1c1ncccn1)c1ccc2ccccc2n1

>  <score_type>  (3) 
oracle

>  <origin>  (3) 
autodockgpu

>  <m_score__min__energy>  (3) 
-8.6099999999999994

>  <m_primary>  (3) 
energy

>  <rmsd>  (3) 
2.6441331629736826

>  <m_score__min__rmsd>  (3) 
2.6441331629736826

>  <meeko>  (3) 
{"free_energy": -8.54, "intermolecular_energy": -10.03, "internal_energy": -1.43, "cluster_size": 28, "cluster_id": 1, "rank_in_cluster": 7}

>  <energy>  (3) 
-8.58

>  <cluster_rmsd>  (3) 
0.1

>  <cluster>  (3) 
1

$$$$

     RDKit          3D

 49 52  0  0  0  0  0  0  0  0999 V2000
  141.4420   72.5380  221.6500 O   0  0  0  0  0  0  0  0  0  0  0  0
  140.4760   72.6490  222.4580 C   0  0  0  0  0  0  0  0  0  0  0  0
  139.5760   73.7510  222.3450 N   0  0  0  0  0  0  0  0  0  0  0  0
  139.7270   74.7490  221.3360 C   0  0  0  0  0  0  0  0  0  0  0  0
  139.1940   76.0650  221.6970 C   0  0  0  0  0  0  0  0  0  0  0  0
  138.1540   76.2310  222.4210 O   0  0  0  0  0  0  0  0  0  0  0  0
  139.8750   77.2200  221.2160 N   0  0  0  0  0  0  0  0  0  0  0  0
  139.2320   78.1850  220.3310 C   0  0  0  0  0  0  0  0  0  0  0  0
  140.0730   78.4690  219.1130 C   0  0  0  0  0  0  0  0  0  0  0  0
  141.5250   78.6830  219.4610 C   0  0  0  0  0  0  0  0  0  0  0  0
  142.0680   77.5840  220.3160 C   0  0  0  0  0  0  0  0  0  0  0  0
  141.2470   77.4950  221.5840 C   0  0  1  0  0  0  0  0  0  0  0  0
  141.4040   78.7430  222.3710 C   0  0  0  0  0  0  0  0  0  0  0  0
  142.6160   79.3640  222.4070 N   0  0  0  0  0  0  0  0  0  0  0  0
  142.7430   80.4910  223.1220 C   0  0  0  0  0  0  0  0  0  0  0  0
  141.7140   81.0700  223.8320 C   0  0  0  0  0  0  0  0  0  0  0  0
  140.4840   80.4120  223.7770 C   0  0  0  0  0  0  0  0  0  0  0  0
  140.4150   79.2990  223.0540 N   0  0  0  0  0  0  0  0  0  0  0  0
  140.2580   71.6520  223.5290 C   0  0  0  0  0  0  0  0  0  0  0  0
  139.5900   70.4890  223.2040 C   0  0  0  0  0  0  0  0  0  0  0  0
  139.3720   69.5350  224.1910 C   0  0  0  0  0  0  0  0  0  0  0  0
  139.8310   69.7710  225.4800 C   0  0  0  0  0  0  0  0  0  0  0  0
  139.6220   68.8290  226.4780 C   0  0  0  0  0  0  0  0  0  0  0  0
  140.1160   69.1510  227.7390 C   0  0  0  0  0  0  0  0  0  0  0  0
  140.7750   70.3370  227.9850 C   0  0  0  0  0  0  0  0  0  0  0  0
  140.9760   71.2660  226.9820 C   0  0  0  0  0  0  0  0  0  0  0  0
  140.4880   70.9600  225.7150 C   0  0  0  0  0  0  0  0  0  0  0  0
  140.6970   71.8810  224.7560 N   0  0  0  0  0  0  0  0  0  0  0  0
  138.7850   73.7860  223.0560 H   0  0  0  0  0  0  0  0  0  0  0  0
  140.8000   74.8603  221.1211 H   0  0  0  0  0  0  0  0  0  0  0  0
  139.1471   74.4048  220.4670 H   0  0  0  0  0  0  0  0  0  0  0  0
  138.2612   77.7811  220.0079 H   0  0  0  0  0  0  0  0  0  0  0  0
  139.1018   79.1260  220.8855 H   0  0  0  0  0  0  0  0  0  0  0  0
  139.9961   77.6161  218.4226 H   0  0  0  0  0  0  0  0  0  0  0  0
  139.6966   79.3934  218.6505 H   0  0  0  0  0  0  0  0  0  0  0  0
  142.1093   78.7294  218.5302 H   0  0  0  0  0  0  0  0  0  0  0  0
  141.6016   79.6221  220.0287 H   0  0  0  0  0  0  0  0  0  0  0  0
  142.0100   76.6301  219.7713 H   0  0  0  0  0  0  0  0  0  0  0  0
  143.1183   77.7929  220.5672 H   0  0  0  0  0  0  0  0  0  0  0  0
  141.5929   76.6763  222.2321 H   0  0  0  0  0  0  0  0  0  0  0  0
  143.7269   80.9824  223.1430 H   0  0  0  0  0  0  0  0  0  0  0  0
  141.8535   81.9964  224.4084 H   0  0  0  0  0  0  0  0  0  0  0  0
  139.6048   80.8002  224.3121 H   0  0  0  0  0  0  0  0  0  0  0  0
  139.2346   70.3192  222.1769 H   0  0  0  0  0  0  0  0  0  0  0  0
  138.8407   68.6016  223.9531 H   0  0  0  0  0  0  0  0  0  0  0  0
  139.0963   67.8825  226.2836 H   0  0  0  0  0  0  0  0  0  0  0  0
  139.9764   68.4375  228.5645 H   0  0  0  0  0  0  0  0  0  0  0  0
  141.1476   70.5475  228.9984 H   0  0  0  0  0  0  0  0  0  0  0  0
  141.5020   72.2120  227.1776 H   0  0  0  0  0  0  0  0  0  0  0  0
  1  2  2  0
  2  3  1  0
  3  4  1  0
  4  5  1  0
  5  6  2  0
  5  7  1  0
  7  8  1  0
  8  9  1  0
  9 10  1  0
 10 11  1  0
 11 12  1  0
 12 13  1  0
 13 14  2  0
 14 15  1  0
 15 16  2  0
 16 17  1  0
 17 18  2  0
  2 19  1  0
 19 20  2  0
 20 21  1  0
 21 22  2  0
 22 23  1  0
 23 24  2  0
 24 25  1  0
 25 26  2  0
 26 27  1  0
 27 28  2  0
 12  7  1  0
 18 13  1  0
 28 19  1  0
 27 22  1  0
  3 29  1  0
  4 30  1  0
  4 31  1  0
  8 32  1  0
  8 33  1  0
  9 34  1  0
  9 35  1  0
 10 36  1  0
 10 37  1  0
 11 38  1  0
 11 39  1  0
 12 40  1  1
 15 41  1  0
 16 42  1  0
 17 43  1  0
 20 44  1  0
 21 45  1  0
 23 46  1  0
 24 47  1  0
 25 48  1  0
 26 49  1  0
M  END
>  <smiles>  (4) 
O=C(NCC(=O)N1CCCC[C@H]1c1ncccn1)c1ccc2ccccc2n1

>  <score_type>  (4) 
oracle

>  <origin>  (4) 
autodockgpu

>  <m_score__min__energy>  (4) 
-8.6099999999999994

>  <m_primary>  (4) 
energy

>  <rmsd>  (4) 
2.3895799966519173

>  <m_score__min__rmsd>  (4) 
2.3895799966519173

>  <meeko>  (4) 
{"free_energy": -8.33, "intermolecular_energy": -9.82, "internal_energy": -1.54, "cluster_size": 28, "cluster_id": 1, "rank_in_cluster": 15}

>  <energy>  (4) 
-8.58

>  <cluster_rmsd>  (4) 
0.13

>  <cluster>  (4) 
1

$$$$

     RDKit          3D

 49 52  0  0  0  0  0  0  0  0999 V2000
  141.4420   72.4930  221.6280 O   0  0  0  0  0  0  0  0  0  0  0  0
  140.4870   72.6310  222.4460 C   0  0  0  0  0  0  0  0  0  0  0  0
  139.6150   73.7540  222.3390 N   0  0  0  0  0  0  0  0  0  0  0  0
  139.7810   74.7460  221.3270 C   0  0  0  0  0  0  0  0  0  0  0  0
  139.2130   76.0560  221.6590 C   0  0  0  0  0  0  0  0  0  0  0  0
  138.1500   76.2090  222.3520 O   0  0  0  0  0  0  0  0  0  0  0  0
  139.8850   77.2190  221.1840 N   0  0  0  0  0  0  0  0  0  0  0  0
  139.2230   78.2010  220.3330 C   0  0  0  0  0  0  0  0  0  0  0  0
  140.0370   78.5070  219.1010 C   0  0  0  0  0  0  0  0  0  0  0  0
  141.4970   78.7120  219.4190 C   0  0  0  0  0  0  0  0  0  0  0  0
  142.0570   77.5970  220.2400 C   0  0  0  0  0  0  0  0  0  0  0  0
  141.2650   77.4850  221.5250 C   0  0  1  0  0  0  0  0  0  0  0  0
  141.4430   78.7170  222.3310 C   0  0  0  0  0  0  0  0  0  0  0  0
  140.3950   79.2010  223.0540 N   0  0  0  0  0  0  0  0  0  0  0  0
  140.5720   80.3170  223.7780 C   0  0  0  0  0  0  0  0  0  0  0  0
  141.7580   81.0130  223.8400 C   0  0  0  0  0  0  0  0  0  0  0  0
  142.8140   80.4930  223.0890 C   0  0  0  0  0  0  0  0  0  0  0  0
  142.5840   79.3870  222.3900 N   0  0  0  0  0  0  0  0  0  0  0  0
  140.2550   71.6410  223.5200 C   0  0  0  0  0  0  0  0  0  0  0  0
  139.5790   70.4810  223.1980 C   0  0  0  0  0  0  0  0  0  0  0  0
  139.3490   69.5350  224.1890 C   0  0  0  0  0  0  0  0  0  0  0  0
  139.8010   69.7750  225.4790 C   0  0  0  0  0  0  0  0  0  0  0  0
  139.5790   68.8400  226.4810 C   0  0  0  0  0  0  0  0  0  0  0  0
  140.0680   69.1640  227.7440 C   0  0  0  0  0  0  0  0  0  0  0  0
  140.7360   70.3470  227.9870 C   0  0  0  0  0  0  0  0  0  0  0  0
  140.9500   71.2690  226.9800 C   0  0  0  0  0  0  0  0  0  0  0  0
  140.4670   70.9590  225.7110 C   0  0  0  0  0  0  0  0  0  0  0  0
  140.6890   71.8730  224.7490 N   0  0  0  0  0  0  0  0  0  0  0  0
  138.8320   73.8110  223.0580 H   0  0  0  0  0  0  0  0  0  0  0  0
  140.8583   74.8748  221.1460 H   0  0  0  0  0  0  0  0  0  0  0  0
  139.2357   74.3843  220.4428 H   0  0  0  0  0  0  0  0  0  0  0  0
  138.2444   77.8042  220.0248 H   0  0  0  0  0  0  0  0  0  0  0  0
  139.1064   79.1315  220.9080 H   0  0  0  0  0  0  0  0  0  0  0  0
  139.9424   77.6676  218.3964 H   0  0  0  0  0  0  0  0  0  0  0  0
  139.6520   79.4408  218.6653 H   0  0  0  0  0  0  0  0  0  0  0  0
  142.0597   78.7748  218.4759 H   0  0  0  0  0  0  0  0  0  0  0  0
  141.5887   79.6402  220.0022 H   0  0  0  0  0  0  0  0  0  0  0  0
  141.9848   76.6536  219.6789 H   0  0  0  0  0  0  0  0  0  0  0  0
  143.1132   77.7998  220.4710 H   0  0  0  0  0  0  0  0  0  0  0  0
  141.6237   76.6534  222.1494 H   0  0  0  0  0  0  0  0  0  0  0  0
  139.7179   80.6986  224.3568 H   0  0  0  0  0  0  0  0  0  0  0  0
  141.8673   81.9249  224.4454 H   0  0  0  0  0  0  0  0  0  0  0  0
  143.7997   80.9810  223.0766 H   0  0  0  0  0  0  0  0  0  0  0  0
  139.2271   70.3081  222.1702 H   0  0  0  0  0  0  0  0  0  0  0  0
  138.8132   68.6037  223.9532 H   0  0  0  0  0  0  0  0  0  0  0  0
  139.0470   67.8967  226.2882 H   0  0  0  0  0  0  0  0  0  0  0  0
  139.9174   68.4562  228.5724 H   0  0  0  0  0  0  0  0  0  0  0  0
  141.1050   70.5600  229.0011 H   0  0  0  0  0  0  0  0  0  0  0  0
  141.4818   72.2123  227.1735 H   0  0  0  0  0  0  0  0  0  0  0  0
  1  2  2  0
  2  3  1  0
  3  4  1  0
  4  5  1  0
  5  6  2  0
  5  7  1  0
  7  8  1  0
  8  9  1  0
  9 10  1  0
 10 11  1  0
 11 12  1  0
 12 13  1  0
 13 14  2  0
 14 15  1  0
 15 16  2  0
 16 17  1  0
 17 18  2  0
  2 19  1  0
 19 20  2  0
 20 21  1  0
 21 22  2  0
 22 23  1  0
 23 24  2  0
 24 25  1  0
 25 26  2  0
 26 27  1  0
 27 28  2  0
 12  7  1  0
 18 13  1  0
 28 19  1  0
 27 22  1  0
  3 29  1  0
  4 30  1  0
  4 31  1  0
  8 32  1  0
  8 33  1  0
  9 34  1  0
  9 35  1  0
 10 36  1  0
 10 37  1  0
 11 38  1  0
 11 39  1  0
 12 40  1  1
 15 41  1  0
 16 42  1  0
 17 43  1  0
 20 44  1  0
 21 45  1  0
 23 46  1  0
 24 47  1  0
 25 48  1  0
 26 49  1  0
M  END
>  <smiles>  (5) 
O=C(NCC(=O)N1CCCC[C@H]1c1ncccn1)c1ccc2ccccc2n1

>  <score_type>  (5) 
oracle

>  <origin>  (5) 
autodockgpu

>  <m_score__min__energy>  (5) 
-8.6099999999999994

>  <m_primary>  (5) 
energy

>  <rmsd>  (5) 
2.294405443900692

>  <m_score__min__rmsd>  (5) 
2.294405443900692

>  <meeko>  (5) 
{"free_energy": -8.34, "intermolecular_energy": -9.83, "internal_energy": -1.55, "cluster_size": 28, "cluster_id": 1, "rank_in_cluster": 13}

>  <energy>  (5) 
-8.56

>  <cluster_rmsd>  (5) 
0.18

>  <cluster>  (5) 
1

$$$$

     RDKit          3D

 49 52  0  0  0  0  0  0  0  0999 V2000
  140.5760   71.4190  221.3090 O   0  0  0  0  0  0  0  0  0  0  0  0
  140.2080   72.0250  222.3550 C   0  0  0  0  0  0  0  0  0  0  0  0
  139.8620   73.4080  222.2930 N   0  0  0  0  0  0  0  0  0  0  0  0
  139.9160   74.1460  221.0720 C   0  0  0  0  0  0  0  0  0  0  0  0
  140.6980   75.3830  221.1430 C   0  0  0  0  0  0  0  0  0  0  0  0
  140.4700   76.3140  221.9890 O   0  0  0  0  0  0  0  0  0  0  0  0
  141.7680   75.5550  220.2190 N   0  0  0  0  0  0  0  0  0  0  0  0
  142.4930   76.8150  220.1000 C   0  0  0  0  0  0  0  0  0  0  0  0
  142.5710   77.2780  218.6670 C   0  0  0  0  0  0  0  0  0  0  0  0
  142.9370   76.1570  217.7260 C   0  0  0  0  0  0  0  0  0  0  0  0
  142.0690   74.9550  217.9170 C   0  0  0  0  0  0  0  0  0  0  0  0
  142.1930   74.4800  219.3480 C   0  0  1  0  0  0  0  0  0  0  0  0
  143.5810   74.0290  219.6070 C   0  0  0  0  0  0  0  0  0  0  0  0
  144.1310   74.2250  220.8390 N   0  0  0  0  0  0  0  0  0  0  0  0
  145.3870   73.8120  221.0580 C   0  0  0  0  0  0  0  0  0  0  0  0
  146.1700   73.1940  220.1080 C   0  0  0  0  0  0  0  0  0  0  0  0
  145.5810   73.0060  218.8560 C   0  0  0  0  0  0  0  0  0  0  0  0
  144.3340   73.4360  218.6930 N   0  0  0  0  0  0  0  0  0  0  0  0
  140.1280   71.3230  223.6550 C   0  0  0  0  0  0  0  0  0  0  0  0
  139.5670   70.0630  223.6770 C   0  0  0  0  0  0  0  0  0  0  0  0
  139.4790   69.3820  224.8850 C   0  0  0  0  0  0  0  0  0  0  0  0
  139.9570   69.9820  226.0420 C   0  0  0  0  0  0  0  0  0  0  0  0
  139.8770   69.3160  227.2580 C   0  0  0  0  0  0  0  0  0  0  0  0
  140.3810   69.9940  228.3640 C   0  0  0  0  0  0  0  0  0  0  0  0
  140.9280   71.2570  228.2610 C   0  0  0  0  0  0  0  0  0  0  0  0
  141.0000   71.9090  227.0440 C   0  0  0  0  0  0  0  0  0  0  0  0
  140.5010   71.2440  225.9280 C   0  0  0  0  0  0  0  0  0  0  0  0
  140.5840   71.8990  224.7560 N   0  0  0  0  0  0  0  0  0  0  0  0
  139.5600   73.8590  223.2080 H   0  0  0  0  0  0  0  0  0  0  0  0
  140.3623   73.5013  220.3005 H   0  0  0  0  0  0  0  0  0  0  0  0
  138.8824   74.4425  220.8401 H   0  0  0  0  0  0  0  0  0  0  0  0
  141.9757   77.5819  220.6952 H   0  0  0  0  0  0  0  0  0  0  0  0
  143.5181   76.6578  220.4668 H   0  0  0  0  0  0  0  0  0  0  0  0
  141.5919   77.6832  218.3717 H   0  0  0  0  0  0  0  0  0  0  0  0
  143.3572   78.0445  218.6017 H   0  0  0  0  0  0  0  0  0  0  0  0
  142.8270   76.5128  216.6910 H   0  0  0  0  0  0  0  0  0  0  0  0
  143.9751   75.8619  217.9390 H   0  0  0  0  0  0  0  0  0  0  0  0
  141.0222   75.2187  217.7054 H   0  0  0  0  0  0  0  0  0  0  0  0
  142.3857   74.1553  217.2313 H   0  0  0  0  0  0  0  0  0  0  0  0
  141.5461   73.6121  219.5434 H   0  0  0  0  0  0  0  0  0  0  0  0
  145.8186   73.9764  222.0564 H   0  0  0  0  0  0  0  0  0  0  0  0
  147.1983   72.8679  220.3229 H   0  0  0  0  0  0  0  0  0  0  0  0
  146.1287   72.5201  218.0351 H   0  0  0  0  0  0  0  0  0  0  0  0
  139.1940   69.6032  222.7500 H   0  0  0  0  0  0  0  0  0  0  0  0
  139.0346   68.3765  224.9241 H   0  0  0  0  0  0  0  0  0  0  0  0
  139.4402   68.3100  227.3422 H   0  0  0  0  0  0  0  0  0  0  0  0
  140.3422   69.5085  229.3503 H   0  0  0  0  0  0  0  0  0  0  0  0
  141.3136   71.7538  229.1635 H   0  0  0  0  0  0  0  0  0  0  0  0
  141.4354   72.9157  226.9609 H   0  0  0  0  0  0  0  0  0  0  0  0
  1  2  2  0
  2  3  1  0
  3  4  1  0
  4  5  1  0
  5  6  2  0
  5  7  1  0
  7  8  1  0
  8  9  1  0
  9 10  1  0
 10 11  1  0
 11 12  1  0
 12 13  1  0
 13 14  2  0
 14 15  1  0
 15 16  2  0
 16 17  1  0
 17 18  2  0
  2 19  1  0
 19 20  2  0
 20 21  1  0
 21 22  2  0
 22 23  1  0
 23 24  2  0
 24 25  1  0
 25 26  2  0
 26 27  1  0
 27 28  2  0
 12  7  1  0
 18 13  1  0
 28 19  1  0
 27 22  1  0
  3 29  1  0
  4 30  1  0
  4 31  1  0
  8 32  1  0
  8 33  1  0
  9 34  1  0
  9 35  1  0
 10 36  1  0
 10 37  1  0
 11 38  1  0
 11 39  1  0
 12 40  1  6
 15 41  1  0
 16 42  1  0
 17 43  1  0
 20 44  1  0
 21 45  1  0
 23 46  1  0
 24 47  1  0
 25 48  1  0
 26 49  1  0
M  END
>  <smiles>  (6) 
O=C(NCC(=O)N1CCCC[C@H]1c1ncccn1)c1ccc2ccccc2n1

>  <score_type>  (6) 
oracle

>  <origin>  (6) 
autodockgpu

>  <m_score__min__energy>  (6) 
-8.6099999999999994

>  <m_primary>  (6) 
energy

>  <rmsd>  (6) 
3.753910872025039

>  <m_score__min__rmsd>  (6) 
3.753910872025039

>  <meeko>  (6) 
{"free_energy": -8.02, "intermolecular_energy": -9.51, "internal_energy": -1.72, "cluster_size": 9, "cluster_id": 2, "rank_in_cluster": 7}

>  <energy>  (6) 
-8.55

>  <cluster_rmsd>  (6) 
0.3

>  <cluster>  (6) 
1

$$$$

     RDKit          3D

 49 52  0  0  0  0  0  0  0  0999 V2000
  139.9670   74.4380  222.3360 O   0  0  0  0  0  0  0  0  0  0  0  0
  140.6100   75.1630  221.5240 C   0  0  0  0  0  0  0  0  0  0  0  0
  140.1400   76.4740  221.2140 N   0  0  0  0  0  0  0  0  0  0  0  0
  138.9520   77.0070  221.7960 C   0  0  0  0  0  0  0  0  0  0  0  0
  139.1530   78.2250  222.5850 C   0  0  0  0  0  0  0  0  0  0  0  0
  138.3250   78.6410  223.4650 O   0  0  0  0  0  0  0  0  0  0  0  0
  140.3370   78.9850  222.3570 N   0  0  0  0  0  0  0  0  0  0  0  0
  141.6070   78.6460  222.9900 C   0  0  0  0  0  0  0  0  0  0  0  0
  142.2270   79.8420  223.6670 C   0  0  0  0  0  0  0  0  0  0  0  0
  142.1710   81.0780  222.8040 C   0  0  0  0  0  0  0  0  0  0  0  0
  140.7950   81.3370  222.2800 C   0  0  0  0  0  0  0  0  0  0  0  0
  140.3380   80.1360  221.4810 C   0  0  1  0  0  0  0  0  0  0  0  0
  141.2050   79.9670  220.2910 C   0  0  0  0  0  0  0  0  0  0  0  0
  141.4660   78.7130  219.8250 N   0  0  0  0  0  0  0  0  0  0  0  0
  142.2530   78.5760  218.7470 C   0  0  0  0  0  0  0  0  0  0  0  0
  142.8210   79.6330  218.0710 C   0  0  0  0  0  0  0  0  0  0  0  0
  142.5370   80.9050  218.5720 C   0  0  0  0  0  0  0  0  0  0  0  0
  141.7530   80.9830  219.6420 N   0  0  0  0  0  0  0  0  0  0  0  0
  141.8510   74.6750  220.8830 C   0  0  0  0  0  0  0  0  0  0  0  0
  142.6810   75.6030  220.2870 C   0  0  0  0  0  0  0  0  0  0  0  0
  143.8520   75.1710  219.6780 C   0  0  0  0  0  0  0  0  0  0  0  0
  144.1640   73.8180  219.6820 C   0  0  0  0  0  0  0  0  0  0  0  0
  145.3310   73.3690  219.0780 C   0  0  0  0  0  0  0  0  0  0  0  0
  145.5610   71.9970  219.1300 C   0  0  0  0  0  0  0  0  0  0  0  0
  144.6810   71.1310  219.7460 C   0  0  0  0  0  0  0  0  0  0  0  0
  143.5230   71.5920  220.3430 C   0  0  0  0  0  0  0  0  0  0  0  0
  143.2780   72.9620  220.3000 C   0  0  0  0  0  0  0  0  0  0  0  0
  142.1440   73.3850  220.8880 N   0  0  0  0  0  0  0  0  0  0  0  0
  140.7270   77.0330  220.5240 H   0  0  0  0  0  0  0  0  0  0  0  0
  138.2455   77.2364  220.9847 H   0  0  0  0  0  0  0  0  0  0  0  0
  138.5759   76.2429  222.4923 H   0  0  0  0  0  0  0  0  0  0  0  0
  141.4332   77.8612  223.7409 H   0  0  0  0  0  0  0  0  0  0  0  0
  142.2981   78.2965  222.2088 H   0  0  0  0  0  0  0  0  0  0  0  0
  141.6851   80.0392  224.6038 H   0  0  0  0  0  0  0  0  0  0  0  0
  143.2854   79.6110  223.8577 H   0  0  0  0  0  0  0  0  0  0  0  0
  142.4911   81.9434  223.4029 H   0  0  0  0  0  0  0  0  0  0  0  0
  142.8369   80.9199  221.9428 H   0  0  0  0  0  0  0  0  0  0  0  0
  140.1057   81.5046  223.1207 H   0  0  0  0  0  0  0  0  0  0  0  0
  140.8040   82.2295  221.6371 H   0  0  0  0  0  0  0  0  0  0  0  0
  139.3151   80.2700  221.0994 H   0  0  0  0  0  0  0  0  0  0  0  0
  142.4567   77.5588  218.3813 H   0  0  0  0  0  0  0  0  0  0  0  0
  143.4606   79.4840  217.1885 H   0  0  0  0  0  0  0  0  0  0  0  0
  142.9472   81.8091  218.0984 H   0  0  0  0  0  0  0  0  0  0  0  0
  142.4183   76.6711  220.2943 H   0  0  0  0  0  0  0  0  0  0  0  0
  144.5265   75.8944  219.1966 H   0  0  0  0  0  0  0  0  0  0  0  0
  146.0336   74.0581  218.5865 H   0  0  0  0  0  0  0  0  0  0  0  0
  146.4719   71.5910  218.6659 H   0  0  0  0  0  0  0  0  0  0  0  0
  144.9052   70.0542  219.7622 H   0  0  0  0  0  0  0  0  0  0  0  0
  142.8208   70.9022  220.8340 H   0  0  0  0  0  0  0  0  0  0  0  0
  1  2  2  0
  2  3  1  0
  3  4  1  0
  4  5  1  0
  5  6  2  0
  5  7  1  0
  7  8  1  0
  8  9  1  0
  9 10  1  0
 10 11  1  0
 11 12  1  0
 12 13  1  0
 13 14  2  0
 14 15  1  0
 15 16  2  0
 16 17  1  0
 17 18  2  0
  2 19  1  0
 19 20  2  0
 20 21  1  0
 21 22  2  0
 22 23  1  0
 23 24  2  0
 24 25  1  0
 25 26  2  0
 26 27  1  0
 27 28  2  0
 12  7  1  0
 18 13  1  0
 28 19  1  0
 27 22  1  0
  3 29  1  0
  4 30  1  0
  4 31  1  0
  8 32  1  0
  8 33  1  0
  9 34  1  0
  9 35  1  0
 10 36  1  0
 10 37  1  0
 11 38  1  0
 11 39  1  0
 12 40  1  6
 15 41  1  0
 16 42  1  0
 17 43  1  0
 20 44  1  0
 21 45  1  0
 23 46  1  0
 24 47  1  0
 25 48  1  0
 26 49  1  0
M  END
>  <smiles>  (7) 
O=C(NCC(=O)N1CCCC[C@H]1c1ncccn1)c1ccc2ccccc2n1

>  <score_type>  (7) 
oracle

>  <origin>  (7) 
autodockgpu

>  <m_score__min__energy>  (7) 
-8.6099999999999994

>  <m_primary>  (7) 
energy

>  <rmsd>  (7) 
6.624645098464031

>  <m_score__min__rmsd>  (7) 
6.624645098464031

>  <meeko>  (7) 
{"free_energy": -6.74, "intermolecular_energy": -8.24, "internal_energy": -2.58, "cluster_size": 10, "cluster_id": 5, "rank_in_cluster": 2}

>  <energy>  (7) 
-8.54

>  <cluster_rmsd>  (7) 
0.31

>  <cluster>  (7) 
1

$$$$

     RDKit          3D

 49 52  0  0  0  0  0  0  0  0999 V2000
  141.3290   72.0970  221.7090 O   0  0  0  0  0  0  0  0  0  0  0  0
  140.3980   72.2910  222.5410 C   0  0  0  0  0  0  0  0  0  0  0  0
  139.4660   73.3510  222.3330 N   0  0  0  0  0  0  0  0  0  0  0  0
  139.5470   74.2160  221.2000 C   0  0  0  0  0  0  0  0  0  0  0  0
  140.5630   75.2660  221.3080 C   0  0  0  0  0  0  0  0  0  0  0  0
  141.8190   75.0460  221.2120 O   0  0  0  0  0  0  0  0  0  0  0  0
  140.1250   76.6040  221.5300 N   0  0  0  0  0  0  0  0  0  0  0  0
  138.9610   76.9100  222.3530 C   0  0  0  0  0  0  0  0  0  0  0  0
  138.0010   77.8280  221.6380 C   0  0  0  0  0  0  0  0  0  0  0  0
  138.7080   78.9710  220.9540 C   0  0  0  0  0  0  0  0  0  0  0  0
  139.8360   78.5020  220.0940 C   0  0  0  0  0  0  0  0  0  0  0  0
  140.8200   77.7310  220.9470 C   0  0  1  0  0  0  0  0  0  0  0  0
  141.4220   78.6350  221.9570 C   0  0  0  0  0  0  0  0  0  0  0  0
  142.0670   79.7620  221.5460 N   0  0  0  0  0  0  0  0  0  0  0  0
  142.6070   80.5700  222.4710 C   0  0  0  0  0  0  0  0  0  0  0  0
  142.5510   80.3310  223.8260 C   0  0  0  0  0  0  0  0  0  0  0  0
  141.8840   79.1690  224.2170 C   0  0  0  0  0  0  0  0  0  0  0  0
  141.3690   78.4050  223.2600 N   0  0  0  0  0  0  0  0  0  0  0  0
  140.2530   71.4330  223.7380 C   0  0  0  0  0  0  0  0  0  0  0  0
  139.6450   70.2040  223.5840 C   0  0  0  0  0  0  0  0  0  0  0  0
  139.4960   69.3790  224.6920 C   0  0  0  0  0  0  0  0  0  0  0  0
  139.9620   69.8070  225.9280 C   0  0  0  0  0  0  0  0  0  0  0  0
  139.8220   68.9950  227.0450 C   0  0  0  0  0  0  0  0  0  0  0  0
  140.3170   69.5060  228.2420 C   0  0  0  0  0  0  0  0  0  0  0  0
  140.9140   70.7480  228.3150 C   0  0  0  0  0  0  0  0  0  0  0  0
  141.0470   71.5460  227.1940 C   0  0  0  0  0  0  0  0  0  0  0  0
  140.5560   71.0500  225.9900 C   0  0  0  0  0  0  0  0  0  0  0  0
  140.6980   71.8450  224.9140 N   0  0  0  0  0  0  0  0  0  0  0  0
  138.7060   73.4610  223.0700 H   0  0  0  0  0  0  0  0  0  0  0  0
  139.7786   73.6035  220.3161 H   0  0  0  0  0  0  0  0  0  0  0  0
  138.5757   74.7272  221.1269 H   0  0  0  0  0  0  0  0  0  0  0  0
  138.4416   75.9722  222.5994 H   0  0  0  0  0  0  0  0  0  0  0  0
  139.3083   77.4181  223.2647 H   0  0  0  0  0  0  0  0  0  0  0  0
  137.4525   77.2474  220.8817 H   0  0  0  0  0  0  0  0  0  0  0  0
  137.3187   78.2537  222.3885 H   0  0  0  0  0  0  0  0  0  0  0  0
  137.9839   79.5105  220.3258 H   0  0  0  0  0  0  0  0  0  0  0  0
  139.1263   79.6248  221.7335 H   0  0  0  0  0  0  0  0  0  0  0  0
  139.4466   77.8490  219.2991 H   0  0  0  0  0  0  0  0  0  0  0  0
  140.3390   79.3671  219.6373 H   0  0  0  0  0  0  0  0  0  0  0  0
  141.6550   77.3393  220.3475 H   0  0  0  0  0  0  0  0  0  0  0  0
  143.1252   81.4771  222.1266 H   0  0  0  0  0  0  0  0  0  0  0  0
  143.0053   81.0157  224.5573 H   0  0  0  0  0  0  0  0  0  0  0  0
  141.7883   78.8959  225.2783 H   0  0  0  0  0  0  0  0  0  0  0  0
  139.2829   69.8815  222.5967 H   0  0  0  0  0  0  0  0  0  0  0  0
  139.0133   68.3958  224.5910 H   0  0  0  0  0  0  0  0  0  0  0  0
  139.3472   68.0044  226.9879 H   0  0  0  0  0  0  0  0  0  0  0  0
  140.2295   68.9015  229.1568 H   0  0  0  0  0  0  0  0  0  0  0  0
  141.2910   71.1097  229.2830 H   0  0  0  0  0  0  0  0  0  0  0  0
  141.5231   72.5360  227.2515 H   0  0  0  0  0  0  0  0  0  0  0  0
  1  2  2  0
  2  3  1  0
  3  4  1  0
  4  5  1  0
  5  6  2  0
  5  7  1  0
  7  8  1  0
  8  9  1  0
  9 10  1  0
 10 11  1  0
 11 12  1  0
 12 13  1  0
 13 14  2  0
 14 15  1  0
 15 16  2  0
 16 17  1  0
 17 18  2  0
  2 19  1  0
 19 20  2  0
 20 21  1  0
 21 22  2  0
 22 23  1  0
 23 24  2  0
 24 25  1  0
 25 26  2  0
 26 27  1  0
 27 28  2  0
 12  7  1  0
 18 13  1  0
 28 19  1  0
 27 22  1  0
  3 29  1  0
  4 30  1  0
  4 31  1  0
  8 32  1  0
  8 33  1  0
  9 34  1  0
  9 35  1  0
 10 36  1  0
 10 37  1  0
 11 38  1  0
 11 39  1  0
 12 40  1  6
 15 41  1  0
 16 42  1  0
 17 43  1  0
 20 44  1  0
 21 45  1  0
 23 46  1  0
 24 47  1  0
 25 48  1  0
 26 49  1  0
M  END
>  <smiles>  (8) 
O=C(NCC(=O)N1CCCC[C@H]1c1ncccn1)c1ccc2ccccc2n1

>  <score_type>  (8) 
oracle

>  <origin>  (8) 
autodockgpu

>  <m_score__min__energy>  (8) 
-8.6099999999999994

>  <m_primary>  (8) 
energy

>  <rmsd>  (8) 
2.63575370569123

>  <m_score__min__rmsd>  (8) 
2.63575370569123

>  <meeko>  (8) 
{"free_energy": -8.58, "intermolecular_energy": -10.07, "internal_energy": -1.36, "cluster_size": 28, "cluster_id": 1, "rank_in_cluster": 4}

>  <energy>  (8) 
-8.5

>  <cluster_rmsd>  (8) 
0.29

>  <cluster>  (8) 
1

$$$$

     RDKit          3D

 49 52  0  0  0  0  0  0  0  0999 V2000
  139.8410   74.3170  222.3190 O   0  0  0  0  0  0  0  0  0  0  0  0
  140.5310   75.1010  221.6060 C   0  0  0  0  0  0  0  0  0  0  0  0
  140.1140   76.4540  221.4270 N   0  0  0  0  0  0  0  0  0  0  0  0
  138.9280   76.9650  222.0340 C   0  0  0  0  0  0  0  0  0  0  0  0
  139.0910   78.2650  222.6890 C   0  0  0  0  0  0  0  0  0  0  0  0
  138.2160   78.7770  223.4680 O   0  0  0  0  0  0  0  0  0  0  0  0
  140.2890   78.9960  222.4440 N   0  0  0  0  0  0  0  0  0  0  0  0
  141.5590   78.6280  223.0590 C   0  0  0  0  0  0  0  0  0  0  0  0
  142.2170   79.8090  223.7260 C   0  0  0  0  0  0  0  0  0  0  0  0
  142.1780   81.0450  222.8620 C   0  0  0  0  0  0  0  0  0  0  0  0
  140.8020   81.3360  222.3570 C   0  0  0  0  0  0  0  0  0  0  0  0
  140.3040   80.1450  221.5660 C   0  0  1  0  0  0  0  0  0  0  0  0
  141.1510   79.9540  220.3640 C   0  0  0  0  0  0  0  0  0  0  0  0
  141.4250   78.6920  219.9320 N   0  0  0  0  0  0  0  0  0  0  0  0
  142.1920   78.5340  218.8430 C   0  0  0  0  0  0  0  0  0  0  0  0
  142.7290   79.5790  218.1240 C   0  0  0  0  0  0  0  0  0  0  0  0
  142.4320   80.8610  218.5900 C   0  0  0  0  0  0  0  0  0  0  0  0
  141.6680   80.9590  219.6730 N   0  0  0  0  0  0  0  0  0  0  0  0
  141.7720   74.6390  220.9470 C   0  0  0  0  0  0  0  0  0  0  0  0
  142.5850   75.5870  220.3600 C   0  0  0  0  0  0  0  0  0  0  0  0
  143.7570   75.1800  219.7350 C   0  0  0  0  0  0  0  0  0  0  0  0
  144.0860   73.8320  219.7140 C   0  0  0  0  0  0  0  0  0  0  0  0
  145.2530   73.4080  219.0930 C   0  0  0  0  0  0  0  0  0  0  0  0
  145.5010   72.0380  219.1210 C   0  0  0  0  0  0  0  0  0  0  0  0
  144.6370   71.1510  219.7300 C   0  0  0  0  0  0  0  0  0  0  0  0
  143.4780   71.5870  220.3430 C   0  0  0  0  0  0  0  0  0  0  0  0
  143.2160   72.9540  220.3250 C   0  0  0  0  0  0  0  0  0  0  0  0
  142.0820   73.3530  220.9290 N   0  0  0  0  0  0  0  0  0  0  0  0
  140.7390   77.0610  220.8160 H   0  0  0  0  0  0  0  0  0  0  0  0
  138.1597   77.0678  221.2535 H   0  0  0  0  0  0  0  0  0  0  0  0
  138.6482   76.2509  222.8226 H   0  0  0  0  0  0  0  0  0  0  0  0
  141.3774   77.8480  223.8130 H   0  0  0  0  0  0  0  0  0  0  0  0
  142.2304   78.2622  222.2681 H   0  0  0  0  0  0  0  0  0  0  0  0
  141.6934   80.0199  224.6701 H   0  0  0  0  0  0  0  0  0  0  0  0
  143.2721   79.5530  223.9024 H   0  0  0  0  0  0  0  0  0  0  0  0
  142.5268   81.9032  223.4551 H   0  0  0  0  0  0  0  0  0  0  0  0
  142.8277   80.8700  221.9918 H   0  0  0  0  0  0  0  0  0  0  0  0
  140.1289   81.5215  223.2070 H   0  0  0  0  0  0  0  0  0  0  0  0
  140.8239   82.2269  221.7122 H   0  0  0  0  0  0  0  0  0  0  0  0
  139.2792   80.3024  221.1986 H   0  0  0  0  0  0  0  0  0  0  0  0
  142.4047   77.5094  218.5041 H   0  0  0  0  0  0  0  0  0  0  0  0
  143.3551   79.4131  217.2349 H   0  0  0  0  0  0  0  0  0  0  0  0
  142.8160   81.7567  218.0798 H   0  0  0  0  0  0  0  0  0  0  0  0
  142.3086   76.6514  220.3866 H   0  0  0  0  0  0  0  0  0  0  0  0
  144.4186   75.9199  219.2608 H   0  0  0  0  0  0  0  0  0  0  0  0
  145.9424   74.1139  218.6066 H   0  0  0  0  0  0  0  0  0  0  0  0
  146.4132   71.6512  218.6432 H   0  0  0  0  0  0  0  0  0  0  0  0
  144.8753   70.0771  219.7274 H   0  0  0  0  0  0  0  0  0  0  0  0
  142.7881   70.8802  220.8272 H   0  0  0  0  0  0  0  0  0  0  0  0
  1  2  2  0
  2  3  1  0
  3  4  1  0
  4  5  1  0
  5  6  2  0
  5  7  1  0
  7  8  1  0
  8  9  1  0
  9 10  1  0
 10 11  1  0
 11 12  1  0
 12 13  1  0
 13 14  2  0
 14 15  1  0
 15 16  2  0
 16 17  1  0
 17 18  2  0
  2 19  1  0
 19 20  2  0
 20 21  1  0
 21 22  2  0
 22 23  1  0
 23 24  2  0
 24 25  1  0
 25 26  2  0
 26 27  1  0
 27 28  2  0
 12  7  1  0
 18 13  1  0
 28 19  1  0
 27 22  1  0
  3 29  1  0
  4 30  1  0
  4 31  1  0
  8 32  1  0
  8 33  1  0
  9 34  1  0
  9 35  1  0
 10 36  1  0
 10 37  1  0
 11 38  1  0
 11 39  1  0
 12 40  1  6
 15 41  1  0
 16 42  1  0
 17 43  1  0
 20 44  1  0
 21 45  1  0
 23 46  1  0
 24 47  1  0
 25 48  1  0
 26 49  1  0
M  END
>  <smiles>  (9) 
O=C(NCC(=O)N1CCCC[C@H]1c1ncccn1)c1ccc2ccccc2n1

>  <score_type>  (9) 
oracle

>  <origin>  (9) 
autodockgpu

>  <m_score__min__energy>  (9) 
-8.6099999999999994

>  <m_primary>  (9) 
energy

>  <rmsd>  (9) 
6.607626389116529

>  <m_score__min__rmsd>  (9) 
6.607626389116529

>  <meeko>  (9) 
{"free_energy": -6.86, "intermolecular_energy": -8.35, "internal_energy": -2.56, "cluster_size": 10, "cluster_id": 5, "rank_in_cluster": 1}

>  <energy>  (9) 
-8.48

>  <cluster_rmsd>  (9) 
0.41

>  <cluster>  (9) 
1

$$$$

     RDKit          3D

 49 52  0  0  0  0  0  0  0  0999 V2000
  141.3480   72.2550  221.7960 O   0  0  0  0  0  0  0  0  0  0  0  0
  140.3720   72.4000  222.5850 C   0  0  0  0  0  0  0  0  0  0  0  0
  139.4100   73.4260  222.3470 N   0  0  0  0  0  0  0  0  0  0  0  0
  139.5090   74.3100  221.2310 C   0  0  0  0  0  0  0  0  0  0  0  0
  140.6270   75.2550  221.3020 C   0  0  0  0  0  0  0  0  0  0  0  0
  141.8470   74.8970  221.4330 O   0  0  0  0  0  0  0  0  0  0  0  0
  140.3350   76.6470  221.2180 N   0  0  0  0  0  0  0  0  0  0  0  0
  139.0180   77.1830  221.5440 C   0  0  0  0  0  0  0  0  0  0  0  0
  138.4960   78.0770  220.4480 C   0  0  0  0  0  0  0  0  0  0  0  0
  139.5470   79.0340  219.9430 C   0  0  0  0  0  0  0  0  0  0  0  0
  140.8190   78.3360  219.5860 C   0  0  0  0  0  0  0  0  0  0  0  0
  141.3390   77.6040  220.8050 C   0  0  1  0  0  0  0  0  0  0  0  0
  141.6890   78.5810  221.8630 C   0  0  0  0  0  0  0  0  0  0  0  0
  141.4860   78.2540  223.1700 N   0  0  0  0  0  0  0  0  0  0  0  0
  141.8080   79.1480  224.1170 C   0  0  0  0  0  0  0  0  0  0  0  0
  142.3380   80.3910  223.8510 C   0  0  0  0  0  0  0  0  0  0  0  0
  142.5350   80.6990  222.5030 C   0  0  0  0  0  0  0  0  0  0  0  0
  142.1980   79.7770  221.6070 N   0  0  0  0  0  0  0  0  0  0  0  0
  140.2050   71.5190  223.7620 C   0  0  0  0  0  0  0  0  0  0  0  0
  139.5420   70.3210  223.5860 C   0  0  0  0  0  0  0  0  0  0  0  0
  139.3720   69.4760  224.6750 C   0  0  0  0  0  0  0  0  0  0  0  0
  139.8710   69.8510  225.9140 C   0  0  0  0  0  0  0  0  0  0  0  0
  139.7100   69.0180  227.0130 C   0  0  0  0  0  0  0  0  0  0  0  0
  140.2430   69.4760  228.2150 C   0  0  0  0  0  0  0  0  0  0  0  0
  140.8940   70.6880  228.3110 C   0  0  0  0  0  0  0  0  0  0  0  0
  141.0480   71.5080  227.2090 C   0  0  0  0  0  0  0  0  0  0  0  0
  140.5200   71.0650  225.9990 C   0  0  0  0  0  0  0  0  0  0  0  0
  140.6830   71.8810  224.9420 N   0  0  0  0  0  0  0  0  0  0  0  0
  138.6120   73.4940  223.0480 H   0  0  0  0  0  0  0  0  0  0  0  0
  139.6293   73.7031  220.3215 H   0  0  0  0  0  0  0  0  0  0  0  0
  138.5891   74.9131  221.2269 H   0  0  0  0  0  0  0  0  0  0  0  0
  138.3176   76.3469  221.6867 H   0  0  0  0  0  0  0  0  0  0  0  0
  139.1077   77.7813  222.4627 H   0  0  0  0  0  0  0  0  0  0  0  0
  138.1568   77.4495  219.6106 H   0  0  0  0  0  0  0  0  0  0  0  0
  137.6694   78.6723  220.8632 H   0  0  0  0  0  0  0  0  0  0  0  0
  139.1605   79.5457  219.0492 H   0  0  0  0  0  0  0  0  0  0  0  0
  139.7683   79.7495  220.7487 H   0  0  0  0  0  0  0  0  0  0  0  0
  140.6297   77.6158  218.7764 H   0  0  0  0  0  0  0  0  0  0  0  0
  141.5641   79.0714  219.2484 H   0  0  0  0  0  0  0  0  0  0  0  0
  142.2621   77.0492  220.5813 H   0  0  0  0  0  0  0  0  0  0  0  0
  141.6387   78.8719  225.1682 H   0  0  0  0  0  0  0  0  0  0  0  0
  142.5913   81.0997  224.6532 H   0  0  0  0  0  0  0  0  0  0  0  0
  142.9534   81.6684  222.1945 H   0  0  0  0  0  0  0  0  0  0  0  0
  139.1535   70.0394  222.5962 H   0  0  0  0  0  0  0  0  0  0  0  0
  138.8460   68.5173  224.5561 H   0  0  0  0  0  0  0  0  0  0  0  0
  139.1909   68.0511  226.9383 H   0  0  0  0  0  0  0  0  0  0  0  0
  140.1418   68.8522  229.1153 H   0  0  0  0  0  0  0  0  0  0  0  0
  141.2982   71.0081  229.2827 H   0  0  0  0  0  0  0  0  0  0  0  0
  141.5681   72.4743  227.2850 H   0  0  0  0  0  0  0  0  0  0  0  0
  1  2  2  0
  2  3  1  0
  3  4  1  0
  4  5  1  0
  5  6  2  0
  5  7  1  0
  7  8  1  0
  8  9  1  0
  9 10  1  0
 10 11  1  0
 11 12  1  0
 12 13  1  0
 13 14  2  0
 14 15  1  0
 15 16  2  0
 16 17  1  0
 17 18  2  0
  2 19  1  0
 19 20  2  0
 20 21  1  0
 21 22  2  0
 22 23  1  0
 23 24  2  0
 24 25  1  0
 25 26  2  0
 26 27  1  0
 27 28  2  0
 12  7  1  0
 18 13  1  0
 28 19  1  0
 27 22  1  0
  3 29  1  0
  4 30  1  0
  4 31  1  0
  8 32  1  0
  8 33  1  0
  9 34  1  0
  9 35  1  0
 10 36  1  0
 10 37  1  0
 11 38  1  0
 11 39  1  0
 12 40  1  6
 15 41  1  0
 16 42  1  0
 17 43  1  0
 20 44  1  0
 21 45  1  0
 23 46  1  0
 24 47  1  0
 25 48  1  0
 26 49  1  0
M  END
>  <smiles>  (10) 
O=C(NCC(=O)N1CCCC[C@H]1c1ncccn1)c1ccc2ccccc2n1

>  <score_type>  (10) 
oracle

>  <origin>  (10) 
autodockgpu

>  <m_score__min__energy>  (10) 
-8.6099999999999994

>  <m_primary>  (10) 
energy

>  <rmsd>  (10) 
2.16998256720772

>  <m_score__min__rmsd>  (10) 
2.16998256720772

>  <meeko>  (10) 
{"free_energy": -8.48, "intermolecular_energy": -9.97, "internal_energy": -1.35, "cluster_size": 28, "cluster_id": 1, "rank_in_cluster": 9}

>  <energy>  (10) 
-8.4

>  <cluster_rmsd>  (10) 
0.45

>  <cluster>  (10) 
1

$$$$

     RDKit          3D

 49 52  0  0  0  0  0  0  0  0999 V2000
  141.3740   72.1160  221.7550 O   0  0  0  0  0  0  0  0  0  0  0  0
  140.4240   72.3160  222.5650 C   0  0  0  0  0  0  0  0  0  0  0  0
  139.4920   73.3690  222.3250 N   0  0  0  0  0  0  0  0  0  0  0  0
  139.5940   74.2220  221.1850 C   0  0  0  0  0  0  0  0  0  0  0  0
  140.6020   75.2790  221.3030 C   0  0  0  0  0  0  0  0  0  0  0  0
  141.8600   75.0680  221.2150 O   0  0  0  0  0  0  0  0  0  0  0  0
  140.1530   76.6120  221.5270 N   0  0  0  0  0  0  0  0  0  0  0  0
  138.9850   76.9080  222.3500 C   0  0  0  0  0  0  0  0  0  0  0  0
  138.0190   77.8180  221.6360 C   0  0  0  0  0  0  0  0  0  0  0  0
  138.7170   78.9690  220.9550 C   0  0  0  0  0  0  0  0  0  0  0  0
  139.8500   78.5110  220.0940 C   0  0  0  0  0  0  0  0  0  0  0  0
  140.8390   77.7460  220.9470 C   0  0  1  0  0  0  0  0  0  0  0  0
  141.4330   78.6530  221.9590 C   0  0  0  0  0  0  0  0  0  0  0  0
  142.0470   79.7990  221.5530 N   0  0  0  0  0  0  0  0  0  0  0  0
  142.5790   80.6100  222.4790 C   0  0  0  0  0  0  0  0  0  0  0  0
  142.5460   80.3560  223.8320 C   0  0  0  0  0  0  0  0  0  0  0  0
  141.9120   79.1740  224.2190 C   0  0  0  0  0  0  0  0  0  0  0  0
  141.4020   78.4080  223.2600 N   0  0  0  0  0  0  0  0  0  0  0  0
  140.2570   71.4700  223.7680 C   0  0  0  0  0  0  0  0  0  0  0  0
  139.6230   70.2530  223.6210 C   0  0  0  0  0  0  0  0  0  0  0  0
  139.4530   69.4400  224.7350 C   0  0  0  0  0  0  0  0  0  0  0  0
  139.9230   69.8680  225.9690 C   0  0  0  0  0  0  0  0  0  0  0  0
  139.7620   69.0680  227.0920 C   0  0  0  0  0  0  0  0  0  0  0  0
  140.2640   69.5770  228.2870 C   0  0  0  0  0  0  0  0  0  0  0  0
  140.8870   70.8070  228.3520 C   0  0  0  0  0  0  0  0  0  0  0  0
  141.0410   71.5930  227.2260 C   0  0  0  0  0  0  0  0  0  0  0  0
  140.5440   71.0970  226.0240 C   0  0  0  0  0  0  0  0  0  0  0  0
  140.7060   71.8820  224.9420 N   0  0  0  0  0  0  0  0  0  0  0  0
  138.7160   73.4840  223.0440 H   0  0  0  0  0  0  0  0  0  0  0  0
  139.8482   73.6010  220.3134 H   0  0  0  0  0  0  0  0  0  0  0  0
  138.6221   74.7274  221.0855 H   0  0  0  0  0  0  0  0  0  0  0  0
  138.4730   75.9658  222.5951 H   0  0  0  0  0  0  0  0  0  0  0  0
  139.3276   77.4180  223.2624 H   0  0  0  0  0  0  0  0  0  0  0  0
  137.4768   77.2340  220.8778 H   0  0  0  0  0  0  0  0  0  0  0  0
  137.3319   78.2362  222.3863 H   0  0  0  0  0  0  0  0  0  0  0  0
  137.9888   79.5040  220.3277 H   0  0  0  0  0  0  0  0  0  0  0  0
  139.1294   79.6245  221.7362 H   0  0  0  0  0  0  0  0  0  0  0  0
  139.4666   77.8567  219.2972 H   0  0  0  0  0  0  0  0  0  0  0  0
  140.3464   79.3809  219.6391 H   0  0  0  0  0  0  0  0  0  0  0  0
  141.6776   77.3618  220.3477 H   0  0  0  0  0  0  0  0  0  0  0  0
  143.0709   81.5328  222.1376 H   0  0  0  0  0  0  0  0  0  0  0  0
  142.9929   81.0440  224.5648 H   0  0  0  0  0  0  0  0  0  0  0  0
  141.8373   78.8872  225.2783 H   0  0  0  0  0  0  0  0  0  0  0  0
  139.2571   69.9308  222.6350 H   0  0  0  0  0  0  0  0  0  0  0  0
  138.9505   68.4661  224.6399 H   0  0  0  0  0  0  0  0  0  0  0  0
  139.2659   68.0875  227.0408 H   0  0  0  0  0  0  0  0  0  0  0  0
  140.1611   68.9814  229.2061 H   0  0  0  0  0  0  0  0  0  0  0  0
  141.2681   71.1684  229.3185 H   0  0  0  0  0  0  0  0  0  0  0  0
  141.5374   72.5733  227.2775 H   0  0  0  0  0  0  0  0  0  0  0  0
  1  2  2  0
  2  3  1  0
  3  4  1  0
  4  5  1  0
  5  6  2  0
  5  7  1  0
  7  8  1  0
  8  9  1  0
  9 10  1  0
 10 11  1  0
 11 12  1  0
 12 13  1  0
 13 14  2  0
 14 15  1  0
 15 16  2  0
 16 17  1  0
 17 18  2  0
  2 19  1  0
 19 20  2  0
 20 21  1  0
 21 22  2  0
 22 23  1  0
 23 24  2  0
 24 25  1  0
 25 26  2  0
 26 27  1  0
 27 28  2  0
 12  7  1  0
 18 13  1  0
 28 19  1  0
 27 22  1  0
  3 29  1  0
  4 30  1  0
  4 31  1  0
  8 32  1  0
  8 33  1  0
  9 34  1  0
  9 35  1  0
 10 36  1  0
 10 37  1  0
 11 38  1  0
 11 39  1  0
 12 40  1  6
 15 41  1  0
 16 42  1  0
 17 43  1  0
 20 44  1  0
 21 45  1  0
 23 46  1  0
 24 47  1  0
 25 48  1  0
 26 49  1  0
M  END
>  <smiles>  (11) 
O=C(NCC(=O)N1CCCC[C@H]1c1ncccn1)c1ccc2ccccc2n1

>  <score_type>  (11) 
oracle

>  <origin>  (11) 
autodockgpu

>  <m_score__min__energy>  (11) 
-8.6099999999999994

>  <m_primary>  (11) 
energy

>  <rmsd>  (11) 
2.6471448290543935

>  <m_score__min__rmsd>  (11) 
2.6471448290543935

>  <meeko>  (11) 
{"free_energy": -8.58, "intermolecular_energy": -10.08, "internal_energy": -1.37, "cluster_size": 28, "cluster_id": 1, "rank_in_cluster": 3}

>  <energy>  (11) 
-8.38

>  <cluster_rmsd>  (11) 
0.39

>  <cluster>  (11) 
1

$$$$

     RDKit          3D

 49 52  0  0  0  0  0  0  0  0999 V2000
  138.6230   74.3950  222.3320 O   0  0  0  0  0  0  0  0  0  0  0  0
  139.7120   74.9390  221.9910 C   0  0  0  0  0  0  0  0  0  0  0  0
  139.8340   76.3600  222.0060 N   0  0  0  0  0  0  0  0  0  0  0  0
  138.7540   77.2060  222.3990 C   0  0  0  0  0  0  0  0  0  0  0  0
  139.1590   78.5430  222.8420 C   0  0  0  0  0  0  0  0  0  0  0  0
  138.4190   79.3040  223.5550 O   0  0  0  0  0  0  0  0  0  0  0  0
  140.4460   79.0180  222.4560 N   0  0  0  0  0  0  0  0  0  0  0  0
  141.6540   78.6650  223.1930 C   0  0  0  0  0  0  0  0  0  0  0  0
  142.4660   79.8850  223.5470 C   0  0  0  0  0  0  0  0  0  0  0  0
  142.5960   80.8390  222.3850 C   0  0  0  0  0  0  0  0  0  0  0  0
  141.2730   81.1620  221.7700 C   0  0  0  0  0  0  0  0  0  0  0  0
  140.6180   79.8790  221.3060 C   0  0  1  0  0  0  0  0  0  0  0  0
  141.4320   79.2630  220.2300 C   0  0  0  0  0  0  0  0  0  0  0  0
  141.7010   77.9280  220.2740 N   0  0  0  0  0  0  0  0  0  0  0  0
  142.4370   77.3850  219.2930 C   0  0  0  0  0  0  0  0  0  0  0  0
  142.9470   78.0980  218.2310 C   0  0  0  0  0  0  0  0  0  0  0  0
  142.6560   79.4640  218.2120 C   0  0  0  0  0  0  0  0  0  0  0  0
  141.9220   79.9490  219.2090 N   0  0  0  0  0  0  0  0  0  0  0  0
  140.8730   74.1230  221.5720 C   0  0  0  0  0  0  0  0  0  0  0  0
  140.7290   72.7500  221.5580 C   0  0  0  0  0  0  0  0  0  0  0  0
  141.8050   71.9620  221.1690 C   0  0  0  0  0  0  0  0  0  0  0  0
  142.9980   72.5680  220.8030 C   0  0  0  0  0  0  0  0  0  0  0  0
  144.0830   71.7950  220.4110 C   0  0  0  0  0  0  0  0  0  0  0  0
  145.2380   72.4890  220.0620 C   0  0  0  0  0  0  0  0  0  0  0  0
  145.3030   73.8660  220.1010 C   0  0  0  0  0  0  0  0  0  0  0  0
  144.2160   74.6240  220.4930 C   0  0  0  0  0  0  0  0  0  0  0  0
  143.0530   73.9450  220.8460 C   0  0  0  0  0  0  0  0  0  0  0  0
  142.0090   74.7050  221.2240 N   0  0  0  0  0  0  0  0  0  0  0  0
  140.7770   76.7540  221.7080 H   0  0  0  0  0  0  0  0  0  0  0  0
  138.0763   77.3194  221.5400 H   0  0  0  0  0  0  0  0  0  0  0  0
  138.2760   76.7217  223.2633 H   0  0  0  0  0  0  0  0  0  0  0  0
  141.3677   78.1458  224.1195 H   0  0  0  0  0  0  0  0  0  0  0  0
  142.2699   78.0164  222.5527 H   0  0  0  0  0  0  0  0  0  0  0  0
  141.9752   80.4075  224.3813 H   0  0  0  0  0  0  0  0  0  0  0  0
  143.4764   79.5499  223.8240 H   0  0  0  0  0  0  0  0  0  0  0  0
  143.0580   81.7713  222.7419 H   0  0  0  0  0  0  0  0  0  0  0  0
  143.2162   80.3537  221.6170 H   0  0  0  0  0  0  0  0  0  0  0  0
  140.6310   81.6553  222.5146 H   0  0  0  0  0  0  0  0  0  0  0  0
  141.4167   81.8365  220.9131 H   0  0  0  0  0  0  0  0  0  0  0  0
  139.6243   80.0663  220.8730 H   0  0  0  0  0  0  0  0  0  0  0  0
  142.6456   76.3060  219.3395 H   0  0  0  0  0  0  0  0  0  0  0  0
  143.5483   77.6198  217.4438 H   0  0  0  0  0  0  0  0  0  0  0  0
  143.0203   80.1140  217.4028 H   0  0  0  0  0  0  0  0  0  0  0  0
  139.7754   72.2864  221.8508 H   0  0  0  0  0  0  0  0  0  0  0  0
  141.7117   70.8661  221.1514 H   0  0  0  0  0  0  0  0  0  0  0  0
  144.0325   70.6966  220.3782 H   0  0  0  0  0  0  0  0  0  0  0  0
  146.1258   71.9219  219.7455 H   0  0  0  0  0  0  0  0  0  0  0  0
  146.2376   74.3705  219.8147 H   0  0  0  0  0  0  0  0  0  0  0  0
  144.2677   75.7223  220.5249 H   0  0  0  0  0  0  0  0  0  0  0  0
  1  2  2  0
  2  3  1  0
  3  4  1  0
  4  5  1  0
  5  6  2  0
  5  7  1  0
  7  8  1  0
  8  9  1  0
  9 10  1  0
 10 11  1  0
 11 12  1  0
 12 13  1  0
 13 14  2  0
 14 15  1  0
 15 16  2  0
 16 17  1  0
 17 18  2  0
  2 19  1  0
 19 20  2  0
 20 21  1  0
 21 22  2  0
 22 23  1  0
 23 24  2  0
 24 25  1  0
 25 26  2  0
 26 27  1  0
 27 28  2  0
 12  7  1  0
 18 13  1  0
 28 19  1  0
 27 22  1  0
  3 29  1  0
  4 30  1  0
  4 31  1  0
  8 32  1  0
  8 33  1  0
  9 34  1  0
  9 35  1  0
 10 36  1  0
 10 37  1  0
 11 38  1  0
 11 39  1  0
 12 40  1  6
 15 41  1  0
 16 42  1  0
 17 43  1  0
 20 44  1  0
 21 45  1  0
 23 46  1  0
 24 47  1  0
 25 48  1  0
 26 49  1  0
M  END
>  <smiles>  (12) 
O=C(NCC(=O)N1CCCC[C@H]1c1ncccn1)c1ccc2ccccc2n1

>  <score_type>  (12) 
oracle

>  <origin>  (12) 
autodockgpu

>  <m_score__min__energy>  (12) 
-8.6099999999999994

>  <m_primary>  (12) 
energy

>  <rmsd>  (12) 
5.898377043264223

>  <m_score__min__rmsd>  (12) 
5.898377043264223

>  <meeko>  (12) 
{"free_energy": -6.55, "intermolecular_energy": -8.04, "internal_energy": -3.04, "cluster_size": 10, "cluster_id": 5, "rank_in_cluster": 7}

>  <energy>  (12) 
-8.36

>  <cluster_rmsd>  (12) 
1.14

>  <cluster>  (12) 
1

$$$$

     RDKit          3D

 49 52  0  0  0  0  0  0  0  0999 V2000
  138.9770   74.2350  222.3460 O   0  0  0  0  0  0  0  0  0  0  0  0
  139.9870   74.7950  221.8320 C   0  0  0  0  0  0  0  0  0  0  0  0
  140.0090   76.2120  221.6680 N   0  0  0  0  0  0  0  0  0  0  0  0
  138.9150   77.0360  222.0680 C   0  0  0  0  0  0  0  0  0  0  0  0
  139.3030   78.2930  222.7140 C   0  0  0  0  0  0  0  0  0  0  0  0
  138.6010   78.8700  223.6130 O   0  0  0  0  0  0  0  0  0  0  0  0
  140.5300   78.9000  222.3180 N   0  0  0  0  0  0  0  0  0  0  0  0
  141.7910   78.6080  222.9900 C   0  0  0  0  0  0  0  0  0  0  0  0
  142.5100   79.8680  223.3960 C   0  0  0  0  0  0  0  0  0  0  0  0
  142.5140   80.9010  222.2970 C   0  0  0  0  0  0  0  0  0  0  0  0
  141.1460   81.1470  221.7490 C   0  0  0  0  0  0  0  0  0  0  0  0
  140.5850   79.8440  221.2230 C   0  0  1  0  0  0  0  0  0  0  0  0
  141.4040   79.3700  220.0820 C   0  0  0  0  0  0  0  0  0  0  0  0
  141.8420   80.2670  219.1540 N   0  0  0  0  0  0  0  0  0  0  0  0
  142.5830   79.8240  218.1270 C   0  0  0  0  0  0  0  0  0  0  0  0
  142.9350   78.5050  217.9470 C   0  0  0  0  0  0  0  0  0  0  0  0
  142.4730   77.6090  218.9130 C   0  0  0  0  0  0  0  0  0  0  0  0
  141.7430   78.1010  219.9080 N   0  0  0  0  0  0  0  0  0  0  0  0
  141.1570   74.0030  221.3940 C   0  0  0  0  0  0  0  0  0  0  0  0
  141.0080   72.6370  221.2760 C   0  0  0  0  0  0  0  0  0  0  0  0
  142.0920   71.8700  220.8670 C   0  0  0  0  0  0  0  0  0  0  0  0
  143.3000   72.4930  220.5860 C   0  0  0  0  0  0  0  0  0  0  0  0
  144.3930   71.7410  220.1750 C   0  0  0  0  0  0  0  0  0  0  0  0
  145.5630   72.4500  219.9160 C   0  0  0  0  0  0  0  0  0  0  0  0
  145.6340   73.8210  220.0580 C   0  0  0  0  0  0  0  0  0  0  0  0
  144.5380   74.5560  220.4670 C   0  0  0  0  0  0  0  0  0  0  0  0
  143.3600   73.8620  220.7310 C   0  0  0  0  0  0  0  0  0  0  0  0
  142.3080   74.6010  221.1270 N   0  0  0  0  0  0  0  0  0  0  0  0
  140.8890   76.6210  221.2290 H   0  0  0  0  0  0  0  0  0  0  0  0
  138.3228   77.2785  221.1732 H   0  0  0  0  0  0  0  0  0  0  0  0
  138.3495   76.4620  222.8168 H   0  0  0  0  0  0  0  0  0  0  0  0
  141.5854   78.0091  223.8895 H   0  0  0  0  0  0  0  0  0  0  0  0
  142.4342   78.0567  222.2883 H   0  0  0  0  0  0  0  0  0  0  0  0
  142.0100   80.2923  224.2792 H   0  0  0  0  0  0  0  0  0  0  0  0
  143.5552   79.6046  223.6156 H   0  0  0  0  0  0  0  0  0  0  0  0
  142.9094   81.8452  222.6997 H   0  0  0  0  0  0  0  0  0  0  0  0
  143.1425   80.5207  221.4782 H   0  0  0  0  0  0  0  0  0  0  0  0
  140.4938   81.5347  222.5454 H   0  0  0  0  0  0  0  0  0  0  0  0
  141.1987   81.8848  220.9348 H   0  0  0  0  0  0  0  0  0  0  0  0
  139.5631   79.9722  220.8366 H   0  0  0  0  0  0  0  0  0  0  0  0
  142.9299   80.5580  217.3848 H   0  0  0  0  0  0  0  0  0  0  0  0
  143.5445   78.1765  217.0922 H   0  0  0  0  0  0  0  0  0  0  0  0
  142.7049   76.5354  218.8524 H   0  0  0  0  0  0  0  0  0  0  0  0
  140.0428   72.1606  221.5029 H   0  0  0  0  0  0  0  0  0  0  0  0
  141.9937   70.7790  220.7668 H   0  0  0  0  0  0  0  0  0  0  0  0
  144.3375   70.6484  220.0607 H   0  0  0  0  0  0  0  0  0  0  0  0
  146.4579   71.9007  219.5883 H   0  0  0  0  0  0  0  0  0  0  0  0
  146.5805   74.3379  219.8416 H   0  0  0  0  0  0  0  0  0  0  0  0
  144.5938   75.6488  220.5799 H   0  0  0  0  0  0  0  0  0  0  0  0
  1  2  2  0
  2  3  1  0
  3  4  1  0
  4  5  1  0
  5  6  2  0
  5  7  1  0
  7  8  1  0
  8  9  1  0
  9 10  1  0
 10 11  1  0
 11 12  1  0
 12 13  1  0
 13 14  2  0
 14 15  1  0
 15 16  2  0
 16 17  1  0
 17 18  2  0
  2 19  1  0
 19 20  2  0
 20 21  1  0
 21 22  2  0
 22 23  1  0
 23 24  2  0
 24 25  1  0
 25 26  2  0
 26 27  1  0
 27 28  2  0
 12  7  1  0
 18 13  1  0
 28 19  1  0
 27 22  1  0
  3 29  1  0
  4 30  1  0
  4 31  1  0
  8 32  1  0
  8 33  1  0
  9 34  1  0
  9 35  1  0
 10 36  1  0
 10 37  1  0
 11 38  1  0
 11 39  1  0
 12 40  1  6
 15 41  1  0
 16 42  1  0
 17 43  1  0
 20 44  1  0
 21 45  1  0
 23 46  1  0
 24 47  1  0
 25 48  1  0
 26 49  1  0
M  END
>  <smiles>  (13) 
O=C(NCC(=O)N1CCCC[C@H]1c1ncccn1)c1ccc2ccccc2n1

>  <score_type>  (13) 
oracle

>  <origin>  (13) 
autodockgpu

>  <m_score__min__energy>  (13) 
-8.6099999999999994

>  <m_primary>  (13) 
energy

>  <rmsd>  (13) 
6.021711477277044

>  <m_score__min__rmsd>  (13) 
6.021711477277044

>  <meeko>  (13) 
{"free_energy": -6.59, "intermolecular_energy": -8.08, "internal_energy": -2.91, "cluster_size": 10, "cluster_id": 5, "rank_in_cluster": 4}

>  <energy>  (13) 
-8.34

>  <cluster_rmsd>  (13) 
1.14

>  <cluster>  (13) 
1

$$$$

     RDKit          3D

 49 52  0  0  0  0  0  0  0  0999 V2000
  140.3190   71.7670  221.1290 O   0  0  0  0  0  0  0  0  0  0  0  0
  139.9840   72.2370  222.2540 C   0  0  0  0  0  0  0  0  0  0  0  0
  139.5550   73.5940  222.3590 N   0  0  0  0  0  0  0  0  0  0  0  0
  139.4880   74.4550  221.2230 C   0  0  0  0  0  0  0  0  0  0  0  0
  139.0040   75.8070  221.5120 C   0  0  0  0  0  0  0  0  0  0  0  0
  137.9120   76.0480  222.1320 O   0  0  0  0  0  0  0  0  0  0  0  0
  139.7930   76.9110  221.0770 N   0  0  0  0  0  0  0  0  0  0  0  0
  139.2970   77.8840  220.1100 C   0  0  0  0  0  0  0  0  0  0  0  0
  140.2720   78.0890  218.9790 C   0  0  0  0  0  0  0  0  0  0  0  0
  141.6920   78.2340  219.4690 C   0  0  0  0  0  0  0  0  0  0  0  0
  142.0820   77.1320  220.3990 C   0  0  0  0  0  0  0  0  0  0  0  0
  141.1340   77.1220  221.5780 C   0  0  1  0  0  0  0  0  0  0  0  0
  141.2800   78.3800  222.3490 C   0  0  0  0  0  0  0  0  0  0  0  0
  142.4720   79.0400  222.3350 N   0  0  0  0  0  0  0  0  0  0  0  0
  142.5900   80.1770  223.0360 C   0  0  0  0  0  0  0  0  0  0  0  0
  141.5710   80.7290  223.7800 C   0  0  0  0  0  0  0  0  0  0  0  0
  140.3610   80.0320  223.7760 C   0  0  0  0  0  0  0  0  0  0  0  0
  140.3000   78.9110  223.0650 N   0  0  0  0  0  0  0  0  0  0  0  0
  140.0290   71.4020  223.4740 C   0  0  0  0  0  0  0  0  0  0  0  0
  139.5690   70.1040  223.3880 C   0  0  0  0  0  0  0  0  0  0  0  0
  139.6000   69.2980  224.5190 C   0  0  0  0  0  0  0  0  0  0  0  0
  140.0920   69.8140  225.7100 C   0  0  0  0  0  0  0  0  0  0  0  0
  140.1300   69.0230  226.8500 C   0  0  0  0  0  0  0  0  0  0  0  0
  140.6380   69.6240  227.9990 C   0  0  0  0  0  0  0  0  0  0  0  0
  141.0800   70.9310  228.0050 C   0  0  0  0  0  0  0  0  0  0  0  0
  141.0360   71.7070  226.8630 C   0  0  0  0  0  0  0  0  0  0  0  0
  140.5300   71.1210  225.7060 C   0  0  0  0  0  0  0  0  0  0  0  0
  140.4980   71.8980  224.6080 N   0  0  0  0  0  0  0  0  0  0  0  0
  139.2880   73.9280  223.3340 H   0  0  0  0  0  0  0  0  0  0  0  0
  140.4975   74.5361  220.7937 H   0  0  0  0  0  0  0  0  0  0  0  0
  138.7609   74.0040  220.5317 H   0  0  0  0  0  0  0  0  0  0  0  0
  138.3430   77.5233  219.6979 H   0  0  0  0  0  0  0  0  0  0  0  0
  139.1631   78.8455  220.6273 H   0  0  0  0  0  0  0  0  0  0  0  0
  140.2173   77.2230  218.3030 H   0  0  0  0  0  0  0  0  0  0  0  0
  139.9971   79.0196  218.4610 H   0  0  0  0  0  0  0  0  0  0  0  0
  142.3690   78.2225  218.6021 H   0  0  0  0  0  0  0  0  0  0  0  0
  141.7644   79.1832  220.0201 H   0  0  0  0  0  0  0  0  0  0  0  0
  142.0254   76.1679  219.8724 H   0  0  0  0  0  0  0  0  0  0  0  0
  143.1116   77.2913  220.7520 H   0  0  0  0  0  0  0  0  0  0  0  0
  141.3665   76.3043  222.2761 H   0  0  0  0  0  0  0  0  0  0  0  0
  143.5577   80.6996  223.0156 H   0  0  0  0  0  0  0  0  0  0  0  0
  141.7025   81.6640  224.3443 H   0  0  0  0  0  0  0  0  0  0  0  0
  139.4905   80.3974  224.3405 H   0  0  0  0  0  0  0  0  0  0  0  0
  139.1825   69.7122  222.4356 H   0  0  0  0  0  0  0  0  0  0  0  0
  139.2380   68.2604  224.4712 H   0  0  0  0  0  0  0  0  0  0  0  0
  139.7788   67.9806  226.8461 H   0  0  0  0  0  0  0  0  0  0  0  0
  140.6884   69.0393  228.9294 H   0  0  0  0  0  0  0  0  0  0  0  0
  141.4747   71.3631  228.9364 H   0  0  0  0  0  0  0  0  0  0  0  0
  141.3877   72.7492  226.8677 H   0  0  0  0  0  0  0  0  0  0  0  0
  1  2  2  0
  2  3  1  0
  3  4  1  0
  4  5  1  0
  5  6  2  0
  5  7  1  0
  7  8  1  0
  8  9  1  0
  9 10  1  0
 10 11  1  0
 11 12  1  0
 12 13  1  0
 13 14  2  0
 14 15  1  0
 15 16  2  0
 16 17  1  0
 17 18  2  0
  2 19  1  0
 19 20  2  0
 20 21  1  0
 21 22  2  0
 22 23  1  0
 23 24  2  0
 24 25  1  0
 25 26  2  0
 26 27  1  0
 27 28  2  0
 12  7  1  0
 18 13  1  0
 28 19  1  0
 27 22  1  0
  3 29  1  0
  4 30  1  0
  4 31  1  0
  8 32  1  0
  8 33  1  0
  9 34  1  0
  9 35  1  0
 10 36  1  0
 10 37  1  0
 11 38  1  0
 11 39  1  0
 12 40  1  1
 15 41  1  0
 16 42  1  0
 17 43  1  0
 20 44  1  0
 21 45  1  0
 23 46  1  0
 24 47  1  0
 25 48  1  0
 26 49  1  0
M  END
>  <smiles>  (14) 
O=C(NCC(=O)N1CCCC[C@H]1c1ncccn1)c1ccc2ccccc2n1

>  <score_type>  (14) 
oracle

>  <origin>  (14) 
autodockgpu

>  <m_score__min__energy>  (14) 
-8.6099999999999994

>  <m_primary>  (14) 
energy

>  <rmsd>  (14) 
2.2000944672438303

>  <m_score__min__rmsd>  (14) 
2.2000944672438303

>  <meeko>  (14) 
{"free_energy": -8.08, "intermolecular_energy": -9.57, "internal_energy": -1.56, "cluster_size": 28, "cluster_id": 1, "rank_in_cluster": 23}

>  <energy>  (14) 
-8.34

>  <cluster_rmsd>  (14) 
1.12

>  <cluster>  (14) 
1

$$$$

     RDKit          3D

 49 52  0  0  0  0  0  0  0  0999 V2000
  140.3230   71.4710  221.2760 O   0  0  0  0  0  0  0  0  0  0  0  0
  139.6830   71.8760  222.2880 C   0  0  0  0  0  0  0  0  0  0  0  0
  138.7920   72.9840  222.1710 N   0  0  0  0  0  0  0  0  0  0  0  0
  138.5930   73.6650  220.9330 C   0  0  0  0  0  0  0  0  0  0  0  0
  138.6690   75.1260  221.0230 C   0  0  0  0  0  0  0  0  0  0  0  0
  137.6420   75.8870  221.0310 O   0  0  0  0  0  0  0  0  0  0  0  0
  139.9580   75.7280  221.1060 N   0  0  0  0  0  0  0  0  0  0  0  0
  140.4470   76.3410  222.3360 C   0  0  0  0  0  0  0  0  0  0  0  0
  140.9660   77.7360  222.0930 C   0  0  0  0  0  0  0  0  0  0  0  0
  141.8380   77.8130  220.8650 C   0  0  0  0  0  0  0  0  0  0  0  0
  141.1810   77.2060  219.6680 C   0  0  0  0  0  0  0  0  0  0  0  0
  140.8500   75.7600  219.9680 C   0  0  1  0  0  0  0  0  0  0  0  0
  142.1010   74.9940  220.1820 C   0  0  0  0  0  0  0  0  0  0  0  0
  142.0340   73.7200  220.6610 N   0  0  0  0  0  0  0  0  0  0  0  0
  143.1740   73.0400  220.8490 C   0  0  0  0  0  0  0  0  0  0  0  0
  144.4260   73.5510  220.5870 C   0  0  0  0  0  0  0  0  0  0  0  0
  144.4650   74.8580  220.0980 C   0  0  0  0  0  0  0  0  0  0  0  0
  143.3050   75.4860  219.9310 N   0  0  0  0  0  0  0  0  0  0  0  0
  139.8400   71.2170  223.6030 C   0  0  0  0  0  0  0  0  0  0  0  0
  139.4330   69.9030  223.7230 C   0  0  0  0  0  0  0  0  0  0  0  0
  139.5690   69.2610  224.9470 C   0  0  0  0  0  0  0  0  0  0  0  0
  140.1110   69.9520  226.0220 C   0  0  0  0  0  0  0  0  0  0  0  0
  140.2540   69.3250  227.2530 C   0  0  0  0  0  0  0  0  0  0  0  0
  140.8060   70.0940  228.2740 C   0  0  0  0  0  0  0  0  0  0  0  0
  141.1890   71.4050  228.0750 C   0  0  0  0  0  0  0  0  0  0  0  0
  141.0410   72.0160  226.8450 C   0  0  0  0  0  0  0  0  0  0  0  0
  140.4900   71.2600  225.8140 C   0  0  0  0  0  0  0  0  0  0  0  0
  140.3560   71.8780  224.6260 N   0  0  0  0  0  0  0  0  0  0  0  0
  138.2840   73.2740  223.0600 H   0  0  0  0  0  0  0  0  0  0  0  0
  139.3634   73.3240  220.2258 H   0  0  0  0  0  0  0  0  0  0  0  0
  137.5708   73.4249  220.6051 H   0  0  0  0  0  0  0  0  0  0  0  0
  139.6231   76.3883  223.0633 H   0  0  0  0  0  0  0  0  0  0  0  0
  141.2755   75.7278  222.7202 H   0  0  0  0  0  0  0  0  0  0  0  0
  140.1102   78.4148  221.9630 H   0  0  0  0  0  0  0  0  0  0  0  0
  141.5777   78.0248  222.9604 H   0  0  0  0  0  0  0  0  0  0  0  0
  142.0568   78.8697  220.6515 H   0  0  0  0  0  0  0  0  0  0  0  0
  142.7590   77.2470  221.0684 H   0  0  0  0  0  0  0  0  0  0  0  0
  140.2567   77.7555  219.4362 H   0  0  0  0  0  0  0  0  0  0  0  0
  141.8596   77.2604  218.8039 H   0  0  0  0  0  0  0  0  0  0  0  0
  140.3358   75.2795  219.1226 H   0  0  0  0  0  0  0  0  0  0  0  0
  143.1054   72.0125  221.2356 H   0  0  0  0  0  0  0  0  0  0  0  0
  145.3412   72.9638  220.7533 H   0  0  0  0  0  0  0  0  0  0  0  0
  145.4196   75.3499  219.8598 H   0  0  0  0  0  0  0  0  0  0  0  0
  139.0063   69.3713  222.8598 H   0  0  0  0  0  0  0  0  0  0  0  0
  139.2502   68.2147  225.0635 H   0  0  0  0  0  0  0  0  0  0  0  0
  139.9485   68.2803  227.4123 H   0  0  0  0  0  0  0  0  0  0  0  0
  140.9408   69.6435  229.2684 H   0  0  0  0  0  0  0  0  0  0  0  0
  141.6203   71.9741  228.9117 H   0  0  0  0  0  0  0  0  0  0  0  0
  141.3470   73.0606  226.6861 H   0  0  0  0  0  0  0  0  0  0  0  0
  1  2  2  0
  2  3  1  0
  3  4  1  0
  4  5  1  0
  5  6  2  0
  5  7  1  0
  7  8  1  0
  8  9  1  0
  9 10  1  0
 10 11  1  0
 11 12  1  0
 12 13  1  0
 13 14  2  0
 14 15  1  0
 15 16  2  0
 16 17  1  0
 17 18  2  0
  2 19  1  0
 19 20  2  0
 20 21  1  0
 21 22  2  0
 22 23  1  0
 23 24  2  0
 24 25  1  0
 25 26  2  0
 26 27  1  0
 27 28  2  0
 12  7  1  0
 18 13  1  0
 28 19  1  0
 27 22  1  0
  3 29  1  0
  4 30  1  0
  4 31  1  0
  8 32  1  0
  8 33  1  0
  9 34  1  0
  9 35  1  0
 10 36  1  0
 10 37  1  0
 11 38  1  0
 11 39  1  0
 12 40  1  6
 15 41  1  0
 16 42  1  0
 17 43  1  0
 20 44  1  0
 21 45  1  0
 23 46  1  0
 24 47  1  0
 25 48  1  0
 26 49  1  0
M  END
>  <smiles>  (15) 
O=C(NCC(=O)N1CCCC[C@H]1c1ncccn1)c1ccc2ccccc2n1

>  <score_type>  (15) 
oracle

>  <origin>  (15) 
autodockgpu

>  <m_score__min__energy>  (15) 
-8.6099999999999994

>  <m_primary>  (15) 
energy

>  <rmsd>  (15) 
3.396463467487768

>  <m_score__min__rmsd>  (15) 
3.396463467487768

>  <meeko>  (15) 
{"free_energy": -7.7, "intermolecular_energy": -9.19, "internal_energy": -1.78, "cluster_size": 9, "cluster_id": 2, "rank_in_cluster": 9}

>  <energy>  (15) 
-8.33

>  <cluster_rmsd>  (15) 
1.16

>  <cluster>  (15) 
1

$$$$

     RDKit          3D

 49 52  0  0  0  0  0  0  0  0999 V2000
  138.6040   71.1390  221.7010 O   0  0  0  0  0  0  0  0  0  0  0  0
  138.2320   71.3930  222.8820 C   0  0  0  0  0  0  0  0  0  0  0  0
  137.2850   72.4330  223.1230 N   0  0  0  0  0  0  0  0  0  0  0  0
  136.7330   73.2120  222.0620 C   0  0  0  0  0  0  0  0  0  0  0  0
  136.2060   74.5160  222.4740 C   0  0  0  0  0  0  0  0  0  0  0  0
  136.7060   75.6300  222.0960 O   0  0  0  0  0  0  0  0  0  0  0  0
  135.0770   74.5400  223.3420 N   0  0  0  0  0  0  0  0  0  0  0  0
  133.7100   74.5130  222.8340 C   0  0  0  0  0  0  0  0  0  0  0  0
  132.8740   75.6170  223.4300 C   0  0  0  0  0  0  0  0  0  0  0  0
  133.0750   75.7450  224.9190 C   0  0  0  0  0  0  0  0  0  0  0  0
  134.5210   75.8290  225.2870 C   0  0  0  0  0  0  0  0  0  0  0  0
  135.2320   74.5920  224.7800 C   0  0  1  0  0  0  0  0  0  0  0  0
  134.7020   73.3920  225.4700 C   0  0  0  0  0  0  0  0  0  0  0  0
  135.0420   72.1530  225.0170 N   0  0  0  0  0  0  0  0  0  0  0  0
  134.5540   71.0770  225.6520 C   0  0  0  0  0  0  0  0  0  0  0  0
  133.7220   71.1430  226.7470 C   0  0  0  0  0  0  0  0  0  0  0  0
  133.3900   72.4250  227.1890 C   0  0  0  0  0  0  0  0  0  0  0  0
  133.9000   73.4560  226.5230 N   0  0  0  0  0  0  0  0  0  0  0  0
  138.7620   70.6260  224.0300 C   0  0  0  0  0  0  0  0  0  0  0  0
  138.5690   69.2590  224.0410 C   0  0  0  0  0  0  0  0  0  0  0  0
  139.0570   68.5160  225.1080 C   0  0  0  0  0  0  0  0  0  0  0  0
  139.7280   69.1600  226.1380 C   0  0  0  0  0  0  0  0  0  0  0  0
  140.2230   68.4320  227.2120 C   0  0  0  0  0  0  0  0  0  0  0  0
  140.8820   69.1610  228.1980 C   0  0  0  0  0  0  0  0  0  0  0  0
  141.0350   70.5300  228.1140 C   0  0  0  0  0  0  0  0  0  0  0  0
  140.5380   71.2420  227.0400 C   0  0  0  0  0  0  0  0  0  0  0  0
  139.8760   70.5270  226.0450 C   0  0  0  0  0  0  0  0  0  0  0  0
  139.4010   71.2440  225.0100 N   0  0  0  0  0  0  0  0  0  0  0  0
  137.0140   72.5960  224.1390 H   0  0  0  0  0  0  0  0  0  0  0  0
  137.5217   73.3812  221.3141 H   0  0  0  0  0  0  0  0  0  0  0  0
  135.8797   72.6412  221.6669 H   0  0  0  0  0  0  0  0  0  0  0  0
  133.7331   74.6333  221.7408 H   0  0  0  0  0  0  0  0  0  0  0  0
  133.2581   73.5500  223.1141 H   0  0  0  0  0  0  0  0  0  0  0  0
  133.1512   76.5683  222.9523 H   0  0  0  0  0  0  0  0  0  0  0  0
  131.8164   75.3723  223.2524 H   0  0  0  0  0  0  0  0  0  0  0  0
  132.5668   76.6559  225.2683 H   0  0  0  0  0  0  0  0  0  0  0  0
  132.6564   74.8462  225.3953 H   0  0  0  0  0  0  0  0  0  0  0  0
  134.9666   76.7242  224.8288 H   0  0  0  0  0  0  0  0  0  0  0  0
  134.6228   75.8940  226.3804 H   0  0  0  0  0  0  0  0  0  0  0  0
  136.3087   74.6249  225.0027 H   0  0  0  0  0  0  0  0  0  0  0  0
  134.8353   70.0825  225.2754 H   0  0  0  0  0  0  0  0  0  0  0  0
  133.3412   70.2388  227.2444 H   0  0  0  0  0  0  0  0  0  0  0  0
  132.7307   72.5763  228.0564 H   0  0  0  0  0  0  0  0  0  0  0  0
  138.0357   68.7649  223.2155 H   0  0  0  0  0  0  0  0  0  0  0  0
  138.9129   67.4259  225.1365 H   0  0  0  0  0  0  0  0  0  0  0  0
  140.1012   67.3409  227.2798 H   0  0  0  0  0  0  0  0  0  0  0  0
  141.2928   68.6303  229.0696 H   0  0  0  0  0  0  0  0  0  0  0  0
  141.5628   71.0642  228.9177 H   0  0  0  0  0  0  0  0  0  0  0  0
  140.6605   72.3331  226.9730 H   0  0  0  0  0  0  0  0  0  0  0  0
  1  2  2  0
  2  3  1  0
  3  4  1  0
  4  5  1  0
  5  6  2  0
  5  7  1  0
  7  8  1  0
  8  9  1  0
  9 10  1  0
 10 11  1  0
 11 12  1  0
 12 13  1  0
 13 14  2  0
 14 15  1  0
 15 16  2  0
 16 17  1  0
 17 18  2  0
  2 19  1  0
 19 20  2  0
 20 21  1  0
 21 22  2  0
 22 23  1  0
 23 24  2  0
 24 25  1  0
 25 26  2  0
 26 27  1  0
 27 28  2  0
 12  7  1  0
 18 13  1  0
 28 19  1  0
 27 22  1  0
  3 29  1  0
  4 30  1  0
  4 31  1  0
  8 32  1  0
  8 33  1  0
  9 34  1  0
  9 35  1  0
 10 36  1  0
 10 37  1  0
 11 38  1  0
 11 39  1  0
 12 40  1  6
 15 41  1  0
 16 42  1  0
 17 43  1  0
 20 44  1  0
 21 45  1  0
 23 46  1  0
 24 47  1  0
 25 48  1  0
 26 49  1  0
M  END
>  <smiles>  (16) 
O=C(NCC(=O)N1CCCC[C@H]1c1ncccn1)c1ccc2ccccc2n1

>  <score_type>  (16) 
oracle

>  <origin>  (16) 
autodockgpu

>  <m_score__min__energy>  (16) 
-8.6099999999999994

>  <m_primary>  (16) 
energy

>  <rmsd>  (16) 
6.632583919518265

>  <m_score__min__rmsd>  (16) 
6.632583919518265

>  <meeko>  (16) 
{"free_energy": -7.05, "intermolecular_energy": -8.55, "internal_energy": -2.38, "cluster_size": 2, "cluster_id": 4, "rank_in_cluster": 1}

>  <energy>  (16) 
-8.26

>  <cluster_rmsd>  (16) 
1.26

>  <cluster>  (16) 
1

$$$$

     RDKit          3D

 49 52  0  0  0  0  0  0  0  0999 V2000
  139.2770   71.0140  221.5000 O   0  0  0  0  0  0  0  0  0  0  0  0
  139.5280   71.5460  222.6190 C   0  0  0  0  0  0  0  0  0  0  0  0
  139.6850   72.9600  222.7160 N   0  0  0  0  0  0  0  0  0  0  0  0
  139.5660   73.8130  221.5790 C   0  0  0  0  0  0  0  0  0  0  0  0
  140.5650   74.8830  221.5130 C   0  0  0  0  0  0  0  0  0  0  0  0
  141.8190   74.6710  221.3770 O   0  0  0  0  0  0  0  0  0  0  0  0
  140.1130   76.2310  221.6050 N   0  0  0  0  0  0  0  0  0  0  0  0
  138.8900   76.5910  222.3140 C   0  0  0  0  0  0  0  0  0  0  0  0
  137.9870   77.4490  221.4660 C   0  0  0  0  0  0  0  0  0  0  0  0
  138.7440   78.5440  220.7550 C   0  0  0  0  0  0  0  0  0  0  0  0
  139.9330   78.0190  220.0170 C   0  0  0  0  0  0  0  0  0  0  0  0
  140.8500   77.3170  220.9950 C   0  0  1  0  0  0  0  0  0  0  0  0
  141.3760   78.2940  221.9790 C   0  0  0  0  0  0  0  0  0  0  0  0
  141.3450   77.9900  223.3060 N   0  0  0  0  0  0  0  0  0  0  0  0
  141.8250   78.8840  224.1840 C   0  0  0  0  0  0  0  0  0  0  0  0
  142.3520   80.1050  223.8270 C   0  0  0  0  0  0  0  0  0  0  0  0
  142.3700   80.3890  222.4600 C   0  0  0  0  0  0  0  0  0  0  0  0
  141.8820   79.4680  221.6350 N   0  0  0  0  0  0  0  0  0  0  0  0
  139.6640   70.7220  223.8410 C   0  0  0  0  0  0  0  0  0  0  0  0
  139.2130   69.4190  223.7970 C   0  0  0  0  0  0  0  0  0  0  0  0
  139.3290   68.6250  224.9310 C   0  0  0  0  0  0  0  0  0  0  0  0
  139.8950   69.1570  226.0810 C   0  0  0  0  0  0  0  0  0  0  0  0
  140.0180   68.3770  227.2240 C   0  0  0  0  0  0  0  0  0  0  0  0
  140.5970   68.9940  228.3290 C   0  0  0  0  0  0  0  0  0  0  0  0
  141.0240   70.3050  228.2940 C   0  0  0  0  0  0  0  0  0  0  0  0
  140.8950   71.0700  227.1510 C   0  0  0  0  0  0  0  0  0  0  0  0
  140.3180   70.4680  226.0360 C   0  0  0  0  0  0  0  0  0  0  0  0
  140.2040   71.2340  224.9350 N   0  0  0  0  0  0  0  0  0  0  0  0
  139.8940   73.3440  223.6870 H   0  0  0  0  0  0  0  0  0  0  0  0
  139.6647   73.1950  220.6744 H   0  0  0  0  0  0  0  0  0  0  0  0
  138.5858   74.3057  221.6596 H   0  0  0  0  0  0  0  0  0  0  0  0
  138.3531   75.6711  222.5887 H   0  0  0  0  0  0  0  0  0  0  0  0
  139.1689   77.1664  223.2091 H   0  0  0  0  0  0  0  0  0  0  0  0
  137.4962   76.8124  220.7151 H   0  0  0  0  0  0  0  0  0  0  0  0
  137.2506   77.9242  222.1308 H   0  0  0  0  0  0  0  0  0  0  0  0
  138.0690   79.0333  220.0374 H   0  0  0  0  0  0  0  0  0  0  0  0
  139.1035   79.2545  221.5139 H   0  0  0  0  0  0  0  0  0  0  0  0
  139.6034   77.3080  219.2451 H   0  0  0  0  0  0  0  0  0  0  0  0
  140.4691   78.8508  219.5367 H   0  0  0  0  0  0  0  0  0  0  0  0
  141.7272   76.8876  220.4889 H   0  0  0  0  0  0  0  0  0  0  0  0
  141.7957   78.6260  225.2529 H   0  0  0  0  0  0  0  0  0  0  0  0
  142.7361   80.8147  224.5745 H   0  0  0  0  0  0  0  0  0  0  0  0
  142.7729   81.3394  222.0800 H   0  0  0  0  0  0  0  0  0  0  0  0
  138.7675   69.0142  222.8763 H   0  0  0  0  0  0  0  0  0  0  0  0
  138.9752   67.5835  224.9175 H   0  0  0  0  0  0  0  0  0  0  0  0
  139.6773   67.3315  227.2540 H   0  0  0  0  0  0  0  0  0  0  0  0
  140.7178   68.4185  229.2586 H   0  0  0  0  0  0  0  0  0  0  0  0
  141.4757   70.7497  229.1930 H   0  0  0  0  0  0  0  0  0  0  0  0
  141.2354   72.1156  227.1228 H   0  0  0  0  0  0  0  0  0  0  0  0
  1  2  2  0
  2  3  1  0
  3  4  1  0
  4  5  1  0
  5  6  2  0
  5  7  1  0
  7  8  1  0
  8  9  1  0
  9 10  1  0
 10 11  1  0
 11 12  1  0
 12 13  1  0
 13 14  2  0
 14 15  1  0
 15 16  2  0
 16 17  1  0
 17 18  2  0
  2 19  1  0
 19 20  2  0
 20 21  1  0
 21 22  2  0
 22 23  1  0
 23 24  2  0
 24 25  1  0
 25 26  2  0
 26 27  1  0
 27 28  2  0
 12  7  1  0
 18 13  1  0
 28 19  1  0
 27 22  1  0
  3 29  1  0
  4 30  1  0
  4 31  1  0
  8 32  1  0
  8 33  1  0
  9 34  1  0
  9 35  1  0
 10 36  1  0
 10 37  1  0
 11 38  1  0
 11 39  1  0
 12 40  1  6
 15 41  1  0
 16 42  1  0
 17 43  1  0
 20 44  1  0
 21 45  1  0
 23 46  1  0
 24 47  1  0
 25 48  1  0
 26 49  1  0
M  END
>  <smiles>  (17) 
O=C(NCC(=O)N1CCCC[C@H]1c1ncccn1)c1ccc2ccccc2n1

>  <score_type>  (17) 
oracle

>  <origin>  (17) 
autodockgpu

>  <m_score__min__energy>  (17) 
-8.6099999999999994

>  <m_primary>  (17) 
energy

>  <rmsd>  (17) 
2.2559790326519855

>  <m_score__min__rmsd>  (17) 
2.2559790326519855

>  <meeko>  (17) 
{"free_energy": -8.14, "intermolecular_energy": -9.63, "internal_energy": -1.63, "cluster_size": 28, "cluster_id": 1, "rank_in_cluster": 20}

>  <energy>  (17) 
-8.23

>  <cluster_rmsd>  (17) 
0.56

>  <cluster>  (17) 
1

$$$$

     RDKit          3D

 49 52  0  0  0  0  0  0  0  0999 V2000
  141.2560   71.9220  221.6570 O   0  0  0  0  0  0  0  0  0  0  0  0
  140.3870   72.2370  222.5190 C   0  0  0  0  0  0  0  0  0  0  0  0
  139.5610   73.3820  222.3130 N   0  0  0  0  0  0  0  0  0  0  0  0
  139.6810   74.1990  221.1500 C   0  0  0  0  0  0  0  0  0  0  0  0
  140.6580   75.2850  221.2670 C   0  0  0  0  0  0  0  0  0  0  0  0
  141.9200   75.1130  221.1540 O   0  0  0  0  0  0  0  0  0  0  0  0
  140.1740   76.6010  221.5190 N   0  0  0  0  0  0  0  0  0  0  0  0
  139.0130   76.8490  222.3660 C   0  0  0  0  0  0  0  0  0  0  0  0
  138.0070   77.7400  221.6830 C   0  0  0  0  0  0  0  0  0  0  0  0
  138.6580   78.9210  221.0070 C   0  0  0  0  0  0  0  0  0  0  0  0
  139.7890   78.5100  220.1200 C   0  0  0  0  0  0  0  0  0  0  0  0
  140.8150   77.7630  220.9440 C   0  0  1  0  0  0  0  0  0  0  0  0
  141.4000   78.6720  221.9590 C   0  0  0  0  0  0  0  0  0  0  0  0
  141.3330   78.3360  223.2780 N   0  0  0  0  0  0  0  0  0  0  0  0
  141.8670   79.1680  224.1840 C   0  0  0  0  0  0  0  0  0  0  0  0
  142.4850   80.3560  223.8660 C   0  0  0  0  0  0  0  0  0  0  0  0
  142.5380   80.6760  222.5070 C   0  0  0  0  0  0  0  0  0  0  0  0
  141.9940   79.8160  221.6530 N   0  0  0  0  0  0  0  0  0  0  0  0
  140.2070   71.4340  223.7490 C   0  0  0  0  0  0  0  0  0  0  0  0
  139.5350   70.2330  223.6460 C   0  0  0  0  0  0  0  0  0  0  0  0
  139.3520   69.4600  224.7860 C   0  0  0  0  0  0  0  0  0  0  0  0
  139.8490   69.9100  226.0010 C   0  0  0  0  0  0  0  0  0  0  0  0
  139.6750   69.1500  227.1500 C   0  0  0  0  0  0  0  0  0  0  0  0
  140.2050   69.6800  228.3230 C   0  0  0  0  0  0  0  0  0  0  0  0
  140.8660   70.8910  228.3450 C   0  0  0  0  0  0  0  0  0  0  0  0
  141.0310   71.6370  227.1940 C   0  0  0  0  0  0  0  0  0  0  0  0
  140.5070   71.1210  226.0120 C   0  0  0  0  0  0  0  0  0  0  0  0
  140.6810   71.8670  224.9060 N   0  0  0  0  0  0  0  0  0  0  0  0
  138.8490   73.5910  223.0760 H   0  0  0  0  0  0  0  0  0  0  0  0
  139.9806   73.5568  220.3087 H   0  0  0  0  0  0  0  0  0  0  0  0
  138.7009   74.6754  221.0005 H   0  0  0  0  0  0  0  0  0  0  0  0
  138.5341   75.8881  222.6053 H   0  0  0  0  0  0  0  0  0  0  0  0
  139.3563   77.3557  223.2800 H   0  0  0  0  0  0  0  0  0  0  0  0
  137.4685   77.1510  220.9259 H   0  0  0  0  0  0  0  0  0  0  0  0
  137.3215   78.1265  222.4516 H   0  0  0  0  0  0  0  0  0  0  0  0
  137.9031   79.4425  220.4002 H   0  0  0  0  0  0  0  0  0  0  0  0
  139.0642   79.5774  221.7906 H   0  0  0  0  0  0  0  0  0  0  0  0
  139.4115   77.8561  219.3201 H   0  0  0  0  0  0  0  0  0  0  0  0
  140.2511   79.4011  219.6700 H   0  0  0  0  0  0  0  0  0  0  0  0
  141.6535   77.4131  220.3239 H   0  0  0  0  0  0  0  0  0  0  0  0
  141.8076   78.8840  225.2450 H   0  0  0  0  0  0  0  0  0  0  0  0
  142.9121   81.0148  224.6365 H   0  0  0  0  0  0  0  0  0  0  0  0
  143.0122   81.6049  222.1574 H   0  0  0  0  0  0  0  0  0  0  0  0
  139.1492   69.8921  222.6739 H   0  0  0  0  0  0  0  0  0  0  0  0
  138.8181   68.5001  224.7259 H   0  0  0  0  0  0  0  0  0  0  0  0
  139.1485   68.1843  227.1342 H   0  0  0  0  0  0  0  0  0  0  0  0
  140.0935   69.1162  229.2609 H   0  0  0  0  0  0  0  0  0  0  0  0
  141.2688   71.2692  229.2961 H   0  0  0  0  0  0  0  0  0  0  0  0
  141.5570   72.6030  227.2109 H   0  0  0  0  0  0  0  0  0  0  0  0
  1  2  2  0
  2  3  1  0
  3  4  1  0
  4  5  1  0
  5  6  2  0
  5  7  1  0
  7  8  1  0
  8  9  1  0
  9 10  1  0
 10 11  1  0
 11 12  1  0
 12 13  1  0
 13 14  2  0
 14 15  1  0
 15 16  2  0
 16 17  1  0
 17 18  2  0
  2 19  1  0
 19 20  2  0
 20 21  1  0
 21 22  2  0
 22 23  1  0
 23 24  2  0
 24 25  1  0
 25 26  2  0
 26 27  1  0
 27 28  2  0
 12  7  1  0
 18 13  1  0
 28 19  1  0
 27 22  1  0
  3 29  1  0
  4 30  1  0
  4 31  1  0
  8 32  1  0
  8 33  1  0
  9 34  1  0
  9 35  1  0
 10 36  1  0
 10 37  1  0
 11 38  1  0
 11 39  1  0
 12 40  1  6
 15 41  1  0
 16 42  1  0
 17 43  1  0
 20 44  1  0
 21 45  1  0
 23 46  1  0
 24 47  1  0
 25 48  1  0
 26 49  1  0
M  END
>  <smiles>  (18) 
O=C(NCC(=O)N1CCCC[C@H]1c1ncccn1)c1ccc2ccccc2n1

>  <score_type>  (18) 
oracle

>  <origin>  (18) 
autodockgpu

>  <m_score__min__energy>  (18) 
-8.6099999999999994

>  <m_primary>  (18) 
energy

>  <rmsd>  (18) 
2.4606767056075802

>  <m_score__min__rmsd>  (18) 
2.4606767056075802

>  <meeko>  (18) 
{"free_energy": -8.61, "intermolecular_energy": -10.1, "internal_energy": -1.35, "cluster_size": 28, "cluster_id": 1, "rank_in_cluster": 1}

>  <energy>  (18) 
-8.17

>  <cluster_rmsd>  (18) 
0.72

>  <cluster>  (18) 
1

$$$$

     RDKit          3D

 49 52  0  0  0  0  0  0  0  0999 V2000
  141.4350   72.5390  221.6430 O   0  0  0  0  0  0  0  0  0  0  0  0
  140.4700   72.6490  222.4520 C   0  0  0  0  0  0  0  0  0  0  0  0
  139.5640   73.7450  222.3350 N   0  0  0  0  0  0  0  0  0  0  0  0
  139.7090   74.7400  221.3220 C   0  0  0  0  0  0  0  0  0  0  0  0
  139.1950   76.0620  221.6880 C   0  0  0  0  0  0  0  0  0  0  0  0
  138.1580   76.2390  222.4150 O   0  0  0  0  0  0  0  0  0  0  0  0
  139.8890   77.2090  221.2080 N   0  0  0  0  0  0  0  0  0  0  0  0
  139.2530   78.1890  220.3340 C   0  0  0  0  0  0  0  0  0  0  0  0
  140.0890   78.4680  219.1110 C   0  0  0  0  0  0  0  0  0  0  0  0
  141.5470   78.6580  219.4480 C   0  0  0  0  0  0  0  0  0  0  0  0
  142.0800   77.5460  220.2930 C   0  0  0  0  0  0  0  0  0  0  0  0
  141.2670   77.4620  221.5670 C   0  0  1  0  0  0  0  0  0  0  0  0
  141.4490   78.7020  222.3590 C   0  0  0  0  0  0  0  0  0  0  0  0
  140.4110   79.1840  223.0970 N   0  0  0  0  0  0  0  0  0  0  0  0
  140.5900   80.3070  223.8080 C   0  0  0  0  0  0  0  0  0  0  0  0
  141.7720   81.0140  223.8430 C   0  0  0  0  0  0  0  0  0  0  0  0
  142.8190   80.4960  223.0770 C   0  0  0  0  0  0  0  0  0  0  0  0
  142.5860   79.3820  222.3910 N   0  0  0  0  0  0  0  0  0  0  0  0
  140.2580   71.6550  223.5270 C   0  0  0  0  0  0  0  0  0  0  0  0
  139.5790   70.4950  223.2120 C   0  0  0  0  0  0  0  0  0  0  0  0
  139.3670   69.5450  224.2030 C   0  0  0  0  0  0  0  0  0  0  0  0
  139.8410   69.7810  225.4860 C   0  0  0  0  0  0  0  0  0  0  0  0
  139.6370   68.8420  226.4890 C   0  0  0  0  0  0  0  0  0  0  0  0
  140.1460   69.1630  227.7440 C   0  0  0  0  0  0  0  0  0  0  0  0
  140.8150   70.3470  227.9800 C   0  0  0  0  0  0  0  0  0  0  0  0
  141.0100   71.2730  226.9730 C   0  0  0  0  0  0  0  0  0  0  0  0
  140.5070   70.9660  225.7120 C   0  0  0  0  0  0  0  0  0  0  0  0
  140.7110   71.8840  224.7490 N   0  0  0  0  0  0  0  0  0  0  0  0
  138.7730   73.7790  223.0460 H   0  0  0  0  0  0  0  0  0  0  0  0
  140.7796   74.8402  221.0902 H   0  0  0  0  0  0  0  0  0  0  0  0
  139.1117   74.4000  220.4632 H   0  0  0  0  0  0  0  0  0  0  0  0
  138.2739   77.8014  220.0161 H   0  0  0  0  0  0  0  0  0  0  0  0
  139.1406   79.1284  220.8952 H   0  0  0  0  0  0  0  0  0  0  0  0
  139.9937   77.6207  218.4160 H   0  0  0  0  0  0  0  0  0  0  0  0
  139.7230   79.4011  218.6577 H   0  0  0  0  0  0  0  0  0  0  0  0
  142.1243   78.7004  218.5126 H   0  0  0  0  0  0  0  0  0  0  0  0
  141.6427   79.5928  220.0198 H   0  0  0  0  0  0  0  0  0  0  0  0
  142.0037   76.5961  219.7435 H   0  0  0  0  0  0  0  0  0  0  0  0
  143.1352   77.7379  220.5375 H   0  0  0  0  0  0  0  0  0  0  0  0
  141.6050   76.6346  222.2083 H   0  0  0  0  0  0  0  0  0  0  0  0
  139.7428   80.6861  224.3983 H   0  0  0  0  0  0  0  0  0  0  0  0
  141.8846   81.9318  224.4388 H   0  0  0  0  0  0  0  0  0  0  0  0
  143.8002   80.9920  223.0429 H   0  0  0  0  0  0  0  0  0  0  0  0
  139.2106   70.3252  222.1895 H   0  0  0  0  0  0  0  0  0  0  0  0
  138.8283   68.6139  223.9730 H   0  0  0  0  0  0  0  0  0  0  0  0
  139.1035   67.8984  226.3021 H   0  0  0  0  0  0  0  0  0  0  0  0
  140.0111   68.4520  228.5724 H   0  0  0  0  0  0  0  0  0  0  0  0
  141.2002   70.5574  228.9886 H   0  0  0  0  0  0  0  0  0  0  0  0
  141.5425   72.2170  227.1609 H   0  0  0  0  0  0  0  0  0  0  0  0
  1  2  2  0
  2  3  1  0
  3  4  1  0
  4  5  1  0
  5  6  2  0
  5  7  1  0
  7  8  1  0
  8  9  1  0
  9 10  1  0
 10 11  1  0
 11 12  1  0
 12 13  1  0
 13 14  2  0
 14 15  1  0
 15 16  2  0
 16 17  1  0
 17 18  2  0
  2 19  1  0
 19 20  2  0
 20 21  1  0
 21 22  2  0
 22 23  1  0
 23 24  2  0
 24 25  1  0
 25 26  2  0
 26 27  1  0
 27 28  2  0
 12  7  1  0
 18 13  1  0
 28 19  1  0
 27 22  1  0
  3 29  1  0
  4 30  1  0
  4 31  1  0
  8 32  1  0
  8 33  1  0
  9 34  1  0
  9 35  1  0
 10 36  1  0
 10 37  1  0
 11 38  1  0
 11 39  1  0
 12 40  1  1
 15 41  1  0
 16 42  1  0
 17 43  1  0
 20 44  1  0
 21 45  1  0
 23 46  1  0
 24 47  1  0
 25 48  1  0
 26 49  1  0
M  END
>  <smiles>  (19) 
O=C(NCC(=O)N1CCCC[C@H]1c1ncccn1)c1ccc2ccccc2n1

>  <score_type>  (19) 
oracle

>  <origin>  (19) 
autodockgpu

>  <m_score__min__energy>  (19) 
-8.6099999999999994

>  <m_primary>  (19) 
energy

>  <rmsd>  (19) 
2.291753876359583

>  <m_score__min__rmsd>  (19) 
2.291753876359583

>  <meeko>  (19) 
{"free_energy": -8.36, "intermolecular_energy": -9.85, "internal_energy": -1.54, "cluster_size": 28, "cluster_id": 1, "rank_in_cluster": 12}

>  <energy>  (19) 
-8.16

>  <cluster_rmsd>  (19) 
0.71

>  <cluster>  (19) 
1

$$$$

     RDKit          3D

 49 52  0  0  0  0  0  0  0  0999 V2000
  140.2860   71.6660  221.1410 O   0  0  0  0  0  0  0  0  0  0  0  0
  140.0440   72.1870  222.2670 C   0  0  0  0  0  0  0  0  0  0  0  0
  139.7510   73.5800  222.3590 N   0  0  0  0  0  0  0  0  0  0  0  0
  139.7200   74.4220  221.2070 C   0  0  0  0  0  0  0  0  0  0  0  0
  139.1090   75.7360  221.4300 C   0  0  0  0  0  0  0  0  0  0  0  0
  137.9650   75.8980  221.9770 O   0  0  0  0  0  0  0  0  0  0  0  0
  139.8310   76.8910  221.0150 N   0  0  0  0  0  0  0  0  0  0  0  0
  139.2520   77.8850  220.1180 C   0  0  0  0  0  0  0  0  0  0  0  0
  140.1640   78.1840  218.9560 C   0  0  0  0  0  0  0  0  0  0  0  0
  141.5970   78.3690  219.3900 C   0  0  0  0  0  0  0  0  0  0  0  0
  142.0760   77.2430  220.2480 C   0  0  0  0  0  0  0  0  0  0  0  0
  141.1830   77.1380  221.4660 C   0  0  1  0  0  0  0  0  0  0  0  0
  141.3130   78.3650  222.2880 C   0  0  0  0  0  0  0  0  0  0  0  0
  142.4880   79.0530  222.2840 N   0  0  0  0  0  0  0  0  0  0  0  0
  142.5900   80.1610  223.0330 C   0  0  0  0  0  0  0  0  0  0  0  0
  141.5710   80.6550  223.8170 C   0  0  0  0  0  0  0  0  0  0  0  0
  140.3780   79.9290  223.8020 C   0  0  0  0  0  0  0  0  0  0  0  0
  140.3320   78.8390  223.0430 N   0  0  0  0  0  0  0  0  0  0  0  0
  140.0590   71.3740  223.5030 C   0  0  0  0  0  0  0  0  0  0  0  0
  139.5760   70.0830  223.4350 C   0  0  0  0  0  0  0  0  0  0  0  0
  139.5780   69.2980  224.5810 C   0  0  0  0  0  0  0  0  0  0  0  0
  140.0660   69.8270  225.7680 C   0  0  0  0  0  0  0  0  0  0  0  0
  140.0760   69.0560  226.9230 C   0  0  0  0  0  0  0  0  0  0  0  0
  140.5830   69.6680  228.0660 C   0  0  0  0  0  0  0  0  0  0  0  0
  141.0490   70.9670  228.0540 C   0  0  0  0  0  0  0  0  0  0  0  0
  141.0330   71.7230  226.8970 C   0  0  0  0  0  0  0  0  0  0  0  0
  140.5290   71.1250  225.7450 C   0  0  0  0  0  0  0  0  0  0  0  0
  140.5250   71.8810  224.6320 N   0  0  0  0  0  0  0  0  0  0  0  0
  139.5560   73.9560  223.3350 H   0  0  0  0  0  0  0  0  0  0  0  0
  140.7546   74.5775  220.8673 H   0  0  0  0  0  0  0  0  0  0  0  0
  139.0947   73.9089  220.4615 H   0  0  0  0  0  0  0  0  0  0  0  0
  138.2956   77.5028  219.7317 H   0  0  0  0  0  0  0  0  0  0  0  0
  139.1035   78.8151  220.6861 H   0  0  0  0  0  0  0  0  0  0  0  0
  140.1149   77.3480  218.2427 H   0  0  0  0  0  0  0  0  0  0  0  0
  139.8266   79.1238  218.4946 H   0  0  0  0  0  0  0  0  0  0  0  0
  142.2336   78.4281  218.4949 H   0  0  0  0  0  0  0  0  0  0  0  0
  141.6539   79.2937  219.9830 H   0  0  0  0  0  0  0  0  0  0  0  0
  142.0358   76.3025  219.6789 H   0  0  0  0  0  0  0  0  0  0  0  0
  143.1134   77.4302  220.5624 H   0  0  0  0  0  0  0  0  0  0  0  0
  141.4796   76.3002  222.1142 H   0  0  0  0  0  0  0  0  0  0  0  0
  143.5444   80.7078  223.0204 H   0  0  0  0  0  0  0  0  0  0  0  0
  141.6898   81.5676  224.4195 H   0  0  0  0  0  0  0  0  0  0  0  0
  139.5088   80.2475  224.3962 H   0  0  0  0  0  0  0  0  0  0  0  0
  139.1942   69.6806  222.4851 H   0  0  0  0  0  0  0  0  0  0  0  0
  139.1965   68.2668  224.5482 H   0  0  0  0  0  0  0  0  0  0  0  0
  139.7045   68.0207  226.9341 H   0  0  0  0  0  0  0  0  0  0  0  0
  140.6131   69.0991  229.0070 H   0  0  0  0  0  0  0  0  0  0  0  0
  141.4403   71.4088  228.9823 H   0  0  0  0  0  0  0  0  0  0  0  0
  141.4045   72.7583  226.8867 H   0  0  0  0  0  0  0  0  0  0  0  0
  1  2  2  0
  2  3  1  0
  3  4  1  0
  4  5  1  0
  5  6  2  0
  5  7  1  0
  7  8  1  0
  8  9  1  0
  9 10  1  0
 10 11  1  0
 11 12  1  0
 12 13  1  0
 13 14  2  0
 14 15  1  0
 15 16  2  0
 16 17  1  0
 17 18  2  0
  2 19  1  0
 19 20  2  0
 20 21  1  0
 21 22  2  0
 22 23  1  0
 23 24  2  0
 24 25  1  0
 25 26  2  0
 26 27  1  0
 27 28  2  0
 12  7  1  0
 18 13  1  0
 28 19  1  0
 27 22  1  0
  3 29  1  0
  4 30  1  0
  4 31  1  0
  8 32  1  0
  8 33  1  0
  9 34  1  0
  9 35  1  0
 10 36  1  0
 10 37  1  0
 11 38  1  0
 11 39  1  0
 12 40  1  1
 15 41  1  0
 16 42  1  0
 17 43  1  0
 20 44  1  0
 21 45  1  0
 23 46  1  0
 24 47  1  0
 25 48  1  0
 26 49  1  0
M  END
>  <smiles>  (20) 
O=C(NCC(=O)N1CCCC[C@H]1c1ncccn1)c1ccc2ccccc2n1

>  <score_type>  (20) 
oracle

>  <origin>  (20) 
autodockgpu

>  <m_score__min__energy>  (20) 
-8.6099999999999994

>  <m_primary>  (20) 
energy

>  <rmsd>  (20) 
2.206340140959613

>  <m_score__min__rmsd>  (20) 
2.206340140959613

>  <meeko>  (20) 
{"free_energy": -8.09, "intermolecular_energy": -9.58, "internal_energy": -1.58, "cluster_size": 28, "cluster_id": 1, "rank_in_cluster": 22}

>  <energy>  (20) 
-8.14

>  <cluster_rmsd>  (20) 
0.74

>  <cluster>  (20) 
1

$$$$

     RDKit          3D

 49 52  0  0  0  0  0  0  0  0999 V2000
  139.0720   71.7830  221.3580 O   0  0  0  0  0  0  0  0  0  0  0  0
  139.9340   72.0300  222.2490 C   0  0  0  0  0  0  0  0  0  0  0  0
  140.9860   72.9570  221.9840 N   0  0  0  0  0  0  0  0  0  0  0  0
  141.1050   73.6270  220.7300 C   0  0  0  0  0  0  0  0  0  0  0  0
  141.6830   74.9710  220.8100 C   0  0  0  0  0  0  0  0  0  0  0  0
  142.8810   75.2460  220.4590 O   0  0  0  0  0  0  0  0  0  0  0  0
  140.8630   76.0260  221.3050 N   0  0  0  0  0  0  0  0  0  0  0  0
  139.8430   75.8020  222.3230 C   0  0  0  0  0  0  0  0  0  0  0  0
  138.5100   76.3700  221.9100 C   0  0  0  0  0  0  0  0  0  0  0  0
  138.6380   77.7550  221.3260 C   0  0  0  0  0  0  0  0  0  0  0  0
  139.6720   77.8200  220.2500 C   0  0  0  0  0  0  0  0  0  0  0  0
  141.0040   77.3820  220.8190 C   0  0  1  0  0  0  0  0  0  0  0  0
  141.4400   78.3370  221.8650 C   0  0  0  0  0  0  0  0  0  0  0  0
  141.4370   77.9490  223.1710 N   0  0  0  0  0  0  0  0  0  0  0  0
  141.8350   78.8240  224.1060 C   0  0  0  0  0  0  0  0  0  0  0  0
  142.2500   80.1080  223.8300 C   0  0  0  0  0  0  0  0  0  0  0  0
  142.2420   80.4790  222.4830 C   0  0  0  0  0  0  0  0  0  0  0  0
  141.8390   79.5720  221.5990 N   0  0  0  0  0  0  0  0  0  0  0  0
  139.8720   71.3720  223.5720 C   0  0  0  0  0  0  0  0  0  0  0  0
  139.1450   70.2050  223.6820 C   0  0  0  0  0  0  0  0  0  0  0  0
  139.0720   69.5670  224.9150 C   0  0  0  0  0  0  0  0  0  0  0  0
  139.7290   70.1160  226.0070 C   0  0  0  0  0  0  0  0  0  0  0  0
  139.6670   69.4910  227.2450 C   0  0  0  0  0  0  0  0  0  0  0  0
  140.3560   70.1130  228.2820 C   0  0  0  0  0  0  0  0  0  0  0  0
  141.0630   71.2830  228.0920 C   0  0  0  0  0  0  0  0  0  0  0  0
  141.1170   71.8930  226.8540 C   0  0  0  0  0  0  0  0  0  0  0  0
  140.4320   71.2850  225.8060 C   0  0  0  0  0  0  0  0  0  0  0  0
  140.5010   71.8990  224.6110 N   0  0  0  0  0  0  0  0  0  0  0  0
  141.6780   73.1210  222.7760 H   0  0  0  0  0  0  0  0  0  0  0  0
  141.7437   73.0171  220.0742 H   0  0  0  0  0  0  0  0  0  0  0  0
  140.0825   73.7494  220.3432 H   0  0  0  0  0  0  0  0  0  0  0  0
  139.7342   74.7197  222.4866 H   0  0  0  0  0  0  0  0  0  0  0  0
  140.1614   76.3098  223.2453 H   0  0  0  0  0  0  0  0  0  0  0  0
  138.0608   75.7074  221.1556 H   0  0  0  0  0  0  0  0  0  0  0  0
  137.8789   76.4389  222.8083 H   0  0  0  0  0  0  0  0  0  0  0  0
  137.6671   78.0522  220.9028 H   0  0  0  0  0  0  0  0  0  0  0  0
  138.9476   78.4348  222.1335 H   0  0  0  0  0  0  0  0  0  0  0  0
  139.3866   77.1524  219.4236 H   0  0  0  0  0  0  0  0  0  0  0  0
  139.7503   78.8500  219.8718 H   0  0  0  0  0  0  0  0  0  0  0  0
  141.7920   77.3855  220.0516 H   0  0  0  0  0  0  0  0  0  0  0  0
  141.8297   78.4967  225.1562 H   0  0  0  0  0  0  0  0  0  0  0  0
  142.5688   80.8004  224.6231 H   0  0  0  0  0  0  0  0  0  0  0  0
  142.5574   81.4840  222.1660 H   0  0  0  0  0  0  0  0  0  0  0  0
  138.6298   69.7847  222.8057 H   0  0  0  0  0  0  0  0  0  0  0  0
  138.4983   68.6348  225.0240 H   0  0  0  0  0  0  0  0  0  0  0  0
  139.1054   68.5575  227.3976 H   0  0  0  0  0  0  0  0  0  0  0  0
  140.3365   69.6583  229.2834 H   0  0  0  0  0  0  0  0  0  0  0  0
  141.5930   71.7379  228.9418 H   0  0  0  0  0  0  0  0  0  0  0  0
  141.6808   72.8252  226.7019 H   0  0  0  0  0  0  0  0  0  0  0  0
  1  2  2  0
  2  3  1  0
  3  4  1  0
  4  5  1  0
  5  6  2  0
  5  7  1  0
  7  8  1  0
  8  9  1  0
  9 10  1  0
 10 11  1  0
 11 12  1  0
 12 13  1  0
 13 14  2  0
 14 15  1  0
 15 16  2  0
 16 17  1  0
 17 18  2  0
  2 19  1  0
 19 20  2  0
 20 21  1  0
 21 22  2  0
 22 23  1  0
 23 24  2  0
 24 25  1  0
 25 26  2  0
 26 27  1  0
 27 28  2  0
 12  7  1  0
 18 13  1  0
 28 19  1  0
 27 22  1  0
  3 29  1  0
  4 30  1  0
  4 31  1  0
  8 32  1  0
  8 33  1  0
  9 34  1  0
  9 35  1  0
 10 36  1  0
 10 37  1  0
 11 38  1  0
 11 39  1  0
 12 40  1  6
 15 41  1  0
 16 42  1  0
 17 43  1  0
 20 44  1  0
 21 45  1  0
 23 46  1  0
 24 47  1  0
 25 48  1  0
 26 49  1  0
M  END
>  <smiles>  (21) 
O=C(NCC(=O)N1CCCC[C@H]1c1ncccn1)c1ccc2ccccc2n1

>  <score_type>  (21) 
oracle

>  <origin>  (21) 
autodockgpu

>  <m_score__min__energy>  (21) 
-8.6099999999999994

>  <m_primary>  (21) 
energy

>  <rmsd>  (21) 
2.51793911398671

>  <m_score__min__rmsd>  (21) 
2.51793911398671

>  <meeko>  (21) 
{"free_energy": -7.75, "intermolecular_energy": -9.24, "internal_energy": -1.67, "cluster_size": 28, "cluster_id": 1, "rank_in_cluster": 27}

>  <energy>  (21) 
-8.11

>  <cluster_rmsd>  (21) 
0.75

>  <cluster>  (21) 
1

$$$$

     RDKit          3D

 49 52  0  0  0  0  0  0  0  0999 V2000
  139.2920   71.0230  221.5220 O   0  0  0  0  0  0  0  0  0  0  0  0
  139.5530   71.5620  222.6350 C   0  0  0  0  0  0  0  0  0  0  0  0
  139.7170   72.9770  222.7210 N   0  0  0  0  0  0  0  0  0  0  0  0
  139.5960   73.8220  221.5770 C   0  0  0  0  0  0  0  0  0  0  0  0
  140.5760   74.9090  221.5170 C   0  0  0  0  0  0  0  0  0  0  0  0
  141.8290   74.7210  221.3440 O   0  0  0  0  0  0  0  0  0  0  0  0
  140.1060   76.2460  221.6580 N   0  0  0  0  0  0  0  0  0  0  0  0
  138.9220   76.5710  222.4460 C   0  0  0  0  0  0  0  0  0  0  0  0
  137.9530   77.4250  221.6680 C   0  0  0  0  0  0  0  0  0  0  0  0
  138.6450   78.5440  220.9310 C   0  0  0  0  0  0  0  0  0  0  0  0
  139.7960   78.0540  220.1140 C   0  0  0  0  0  0  0  0  0  0  0  0
  140.7840   77.3550  221.0220 C   0  0  1  0  0  0  0  0  0  0  0  0
  141.3500   78.3270  221.9880 C   0  0  0  0  0  0  0  0  0  0  0  0
  141.9130   79.4790  221.5270 N   0  0  0  0  0  0  0  0  0  0  0  0
  142.4210   80.3490  222.4120 C   0  0  0  0  0  0  0  0  0  0  0  0
  142.4120   80.1510  223.7750 C   0  0  0  0  0  0  0  0  0  0  0  0
  141.8300   78.9620  224.2190 C   0  0  0  0  0  0  0  0  0  0  0  0
  141.3420   78.1360  223.2990 N   0  0  0  0  0  0  0  0  0  0  0  0
  139.6920   70.7480  223.8630 C   0  0  0  0  0  0  0  0  0  0  0  0
  139.2440   69.4430  223.8290 C   0  0  0  0  0  0  0  0  0  0  0  0
  139.3630   68.6570  224.9680 C   0  0  0  0  0  0  0  0  0  0  0  0
  139.9290   69.1980  226.1140 C   0  0  0  0  0  0  0  0  0  0  0  0
  140.0560   68.4270  227.2610 C   0  0  0  0  0  0  0  0  0  0  0  0
  140.6360   69.0520  228.3620 C   0  0  0  0  0  0  0  0  0  0  0  0
  141.0600   70.3640  228.3170 C   0  0  0  0  0  0  0  0  0  0  0  0
  140.9280   71.1210  227.1680 C   0  0  0  0  0  0  0  0  0  0  0  0
  140.3500   70.5100  226.0580 C   0  0  0  0  0  0  0  0  0  0  0  0
  140.2330   71.2680  224.9530 N   0  0  0  0  0  0  0  0  0  0  0  0
  139.9350   73.3670  223.6870 H   0  0  0  0  0  0  0  0  0  0  0  0
  139.7165   73.2010  220.6771 H   0  0  0  0  0  0  0  0  0  0  0  0
  138.6061   74.2972  221.6430 H   0  0  0  0  0  0  0  0  0  0  0  0
  138.4198   75.6367  222.7372 H   0  0  0  0  0  0  0  0  0  0  0  0
  139.2441   77.1374  223.3322 H   0  0  0  0  0  0  0  0  0  0  0  0
  137.4289   76.7908  220.9379 H   0  0  0  0  0  0  0  0  0  0  0  0
  137.2500   77.8759  222.3838 H   0  0  0  0  0  0  0  0  0  0  0  0
  137.9188   79.0312  220.2637 H   0  0  0  0  0  0  0  0  0  0  0  0
  139.0372   79.2492  221.6785 H   0  0  0  0  0  0  0  0  0  0  0  0
  139.4332   77.3488  219.3518 H   0  0  0  0  0  0  0  0  0  0  0  0
  140.2862   78.9037  219.6163 H   0  0  0  0  0  0  0  0  0  0  0  0
  141.6363   76.9504  220.4564 H   0  0  0  0  0  0  0  0  0  0  0  0
  142.8715   81.2756  222.0266 H   0  0  0  0  0  0  0  0  0  0  0  0
  142.8384   80.8866  224.4729 H   0  0  0  0  0  0  0  0  0  0  0  0
  141.7773   78.7179  225.2903 H   0  0  0  0  0  0  0  0  0  0  0  0
  138.7984   69.0307  222.9117 H   0  0  0  0  0  0  0  0  0  0  0  0
  139.0117   67.6146  224.9618 H   0  0  0  0  0  0  0  0  0  0  0  0
  139.7175   67.3810  227.2983 H   0  0  0  0  0  0  0  0  0  0  0  0
  140.7597   68.4828  229.2951 H   0  0  0  0  0  0  0  0  0  0  0  0
  141.5116   70.8162  229.2123 H   0  0  0  0  0  0  0  0  0  0  0  0
  141.2668   72.1669  227.1317 H   0  0  0  0  0  0  0  0  0  0  0  0
  1  2  2  0
  2  3  1  0
  3  4  1  0
  4  5  1  0
  5  6  2  0
  5  7  1  0
  7  8  1  0
  8  9  1  0
  9 10  1  0
 10 11  1  0
 11 12  1  0
 12 13  1  0
 13 14  2  0
 14 15  1  0
 15 16  2  0
 16 17  1  0
 17 18  2  0
  2 19  1  0
 19 20  2  0
 20 21  1  0
 21 22  2  0
 22 23  1  0
 23 24  2  0
 24 25  1  0
 25 26  2  0
 26 27  1  0
 27 28  2  0
 12  7  1  0
 18 13  1  0
 28 19  1  0
 27 22  1  0
  3 29  1  0
  4 30  1  0
  4 31  1  0
  8 32  1  0
  8 33  1  0
  9 34  1  0
  9 35  1  0
 10 36  1  0
 10 37  1  0
 11 38  1  0
 11 39  1  0
 12 40  1  6
 15 41  1  0
 16 42  1  0
 17 43  1  0
 20 44  1  0
 21 45  1  0
 23 46  1  0
 24 47  1  0
 25 48  1  0
 26 49  1  0
M  END
>  <smiles>  (22) 
O=C(NCC(=O)N1CCCC[C@H]1c1ncccn1)c1ccc2ccccc2n1

>  <score_type>  (22) 
oracle

>  <origin>  (22) 
autodockgpu

>  <m_score__min__energy>  (22) 
-8.6099999999999994

>  <m_primary>  (22) 
energy

>  <rmsd>  (22) 
2.5145864115452348

>  <m_score__min__rmsd>  (22) 
2.5145864115452348

>  <meeko>  (22) 
{"free_energy": -8.17, "intermolecular_energy": -9.66, "internal_energy": -1.63, "cluster_size": 28, "cluster_id": 1, "rank_in_cluster": 18}

>  <energy>  (22) 
-8.09

>  <cluster_rmsd>  (22) 
1.16

>  <cluster>  (22) 
1

$$$$

     RDKit          3D

 49 52  0  0  0  0  0  0  0  0999 V2000
  139.3040   71.0350  221.4920 O   0  0  0  0  0  0  0  0  0  0  0  0
  139.5410   71.5740  222.6110 C   0  0  0  0  0  0  0  0  0  0  0  0
  139.6900   72.9900  222.7030 N   0  0  0  0  0  0  0  0  0  0  0  0
  139.5790   73.8360  221.5590 C   0  0  0  0  0  0  0  0  0  0  0  0
  140.5700   74.9140  221.5010 C   0  0  0  0  0  0  0  0  0  0  0  0
  141.8250   74.7120  221.3580 O   0  0  0  0  0  0  0  0  0  0  0  0
  140.1090   76.2580  221.6090 N   0  0  0  0  0  0  0  0  0  0  0  0
  138.8960   76.6030  222.3420 C   0  0  0  0  0  0  0  0  0  0  0  0
  137.9710   77.4590  221.5140 C   0  0  0  0  0  0  0  0  0  0  0  0
  138.7070   78.5640  220.7980 C   0  0  0  0  0  0  0  0  0  0  0  0
  139.8870   78.0540  220.0360 C   0  0  0  0  0  0  0  0  0  0  0  0
  140.8260   77.3530  220.9940 C   0  0  1  0  0  0  0  0  0  0  0  0
  141.3610   78.3280  221.9740 C   0  0  0  0  0  0  0  0  0  0  0  0
  141.3220   78.0320  223.3030 N   0  0  0  0  0  0  0  0  0  0  0  0
  141.8090   78.9230  224.1780 C   0  0  0  0  0  0  0  0  0  0  0  0
  142.3540   80.1360  223.8170 C   0  0  0  0  0  0  0  0  0  0  0  0
  142.3810   80.4130  222.4490 C   0  0  0  0  0  0  0  0  0  0  0  0
  141.8840   79.4940  221.6260 N   0  0  0  0  0  0  0  0  0  0  0  0
  139.6680   70.7590  223.8390 C   0  0  0  0  0  0  0  0  0  0  0  0
  139.2130   69.4560  223.8010 C   0  0  0  0  0  0  0  0  0  0  0  0
  139.3200   68.6690  224.9410 C   0  0  0  0  0  0  0  0  0  0  0  0
  139.8820   69.2070  226.0910 C   0  0  0  0  0  0  0  0  0  0  0  0
  139.9970   68.4340  227.2380 C   0  0  0  0  0  0  0  0  0  0  0  0
  140.5720   69.0560  228.3430 C   0  0  0  0  0  0  0  0  0  0  0  0
  141.0030   70.3660  228.3020 C   0  0  0  0  0  0  0  0  0  0  0  0
  140.8820   71.1240  227.1530 C   0  0  0  0  0  0  0  0  0  0  0  0
  140.3090   70.5160  226.0390 C   0  0  0  0  0  0  0  0  0  0  0  0
  140.2030   71.2750  224.9330 N   0  0  0  0  0  0  0  0  0  0  0  0
  139.8880   73.3800  223.6730 H   0  0  0  0  0  0  0  0  0  0  0  0
  139.6952   73.2139  220.6593 H   0  0  0  0  0  0  0  0  0  0  0  0
  138.5936   74.3206  221.6231 H   0  0  0  0  0  0  0  0  0  0  0  0
  138.3717   75.6769  222.6203 H   0  0  0  0  0  0  0  0  0  0  0  0
  139.1854   77.1748  223.2360 H   0  0  0  0  0  0  0  0  0  0  0  0
  137.4731   76.8230  220.7673 H   0  0  0  0  0  0  0  0  0  0  0  0
  137.2416   77.9237  222.1937 H   0  0  0  0  0  0  0  0  0  0  0  0
  138.0159   79.0529  220.0956 H   0  0  0  0  0  0  0  0  0  0  0  0
  139.0742   79.2718  221.5558 H   0  0  0  0  0  0  0  0  0  0  0  0
  139.5500   77.3455  219.2650 H   0  0  0  0  0  0  0  0  0  0  0  0
  140.4080   78.8931  219.5518 H   0  0  0  0  0  0  0  0  0  0  0  0
  141.6977   76.9332  220.4707 H   0  0  0  0  0  0  0  0  0  0  0  0
  141.7713   78.6708  225.2480 H   0  0  0  0  0  0  0  0  0  0  0  0
  142.7447   80.8441  224.5626 H   0  0  0  0  0  0  0  0  0  0  0  0
  142.7978   81.3562  222.0660 H   0  0  0  0  0  0  0  0  0  0  0  0
  138.7716   69.0464  222.8804 H   0  0  0  0  0  0  0  0  0  0  0  0
  138.9626   67.6287  224.9325 H   0  0  0  0  0  0  0  0  0  0  0  0
  139.6535   67.3896  227.2721 H   0  0  0  0  0  0  0  0  0  0  0  0
  140.6861   68.4858  229.2768 H   0  0  0  0  0  0  0  0  0  0  0  0
  141.4512   70.8153  229.2005 H   0  0  0  0  0  0  0  0  0  0  0  0
  141.2254   72.1685  227.1196 H   0  0  0  0  0  0  0  0  0  0  0  0
  1  2  2  0
  2  3  1  0
  3  4  1  0
  4  5  1  0
  5  6  2  0
  5  7  1  0
  7  8  1  0
  8  9  1  0
  9 10  1  0
 10 11  1  0
 11 12  1  0
 12 13  1  0
 13 14  2  0
 14 15  1  0
 15 16  2  0
 16 17  1  0
 17 18  2  0
  2 19  1  0
 19 20  2  0
 20 21  1  0
 21 22  2  0
 22 23  1  0
 23 24  2  0
 24 25  1  0
 25 26  2  0
 26 27  1  0
 27 28  2  0
 12  7  1  0
 18 13  1  0
 28 19  1  0
 27 22  1  0
  3 29  1  0
  4 30  1  0
  4 31  1  0
  8 32  1  0
  8 33  1  0
  9 34  1  0
  9 35  1  0
 10 36  1  0
 10 37  1  0
 11 38  1  0
 11 39  1  0
 12 40  1  6
 15 41  1  0
 16 42  1  0
 17 43  1  0
 20 44  1  0
 21 45  1  0
 23 46  1  0
 24 47  1  0
 25 48  1  0
 26 49  1  0
M  END
>  <smiles>  (23) 
O=C(NCC(=O)N1CCCC[C@H]1c1ncccn1)c1ccc2ccccc2n1

>  <score_type>  (23) 
oracle

>  <origin>  (23) 
autodockgpu

>  <m_score__min__energy>  (23) 
-8.6099999999999994

>  <m_primary>  (23) 
energy

>  <rmsd>  (23) 
2.271735948878943

>  <m_score__min__rmsd>  (23) 
2.271735948878943

>  <meeko>  (23) 
{"free_energy": -8.16, "intermolecular_energy": -9.65, "internal_energy": -1.63, "cluster_size": 28, "cluster_id": 1, "rank_in_cluster": 19}

>  <energy>  (23) 
-8.08

>  <cluster_rmsd>  (23) 
1.18

>  <cluster>  (23) 
1

$$$$

     RDKit          3D

 49 52  0  0  0  0  0  0  0  0999 V2000
  141.0580   71.6090  221.4420 O   0  0  0  0  0  0  0  0  0  0  0  0
  140.4270   72.1060  222.4170 C   0  0  0  0  0  0  0  0  0  0  0  0
  139.8420   73.4020  222.3020 N   0  0  0  0  0  0  0  0  0  0  0  0
  139.9460   74.1740  221.1060 C   0  0  0  0  0  0  0  0  0  0  0  0
  140.8630   75.3130  221.1940 C   0  0  0  0  0  0  0  0  0  0  0  0
  140.7300   76.2610  222.0420 O   0  0  0  0  0  0  0  0  0  0  0  0
  141.9590   75.3650  220.2860 N   0  0  0  0  0  0  0  0  0  0  0  0
  142.7160   76.5910  220.0560 C   0  0  0  0  0  0  0  0  0  0  0  0
  142.8410   76.8990  218.5850 C   0  0  0  0  0  0  0  0  0  0  0  0
  143.2020   75.6780  217.7760 C   0  0  0  0  0  0  0  0  0  0  0  0
  142.3020   74.5210  218.0680 C   0  0  0  0  0  0  0  0  0  0  0  0
  142.3790   74.1970  219.5440 C   0  0  1  0  0  0  0  0  0  0  0  0
  143.7500   73.7460  219.8860 C   0  0  0  0  0  0  0  0  0  0  0  0
  144.1680   72.5110  219.4900 N   0  0  0  0  0  0  0  0  0  0  0  0
  145.4100   72.1180  219.8060 C   0  0  0  0  0  0  0  0  0  0  0  0
  146.3040   72.8900  220.5150 C   0  0  0  0  0  0  0  0  0  0  0  0
  145.8480   74.1500  220.9080 C   0  0  0  0  0  0  0  0  0  0  0  0
  144.6090   74.4890  220.5680 N   0  0  0  0  0  0  0  0  0  0  0  0
  140.2790   71.3620  223.6880 C   0  0  0  0  0  0  0  0  0  0  0  0
  139.6660   70.1260  223.6480 C   0  0  0  0  0  0  0  0  0  0  0  0
  139.5150   69.4080  224.8280 C   0  0  0  0  0  0  0  0  0  0  0  0
  139.9820   69.9460  226.0180 C   0  0  0  0  0  0  0  0  0  0  0  0
  139.8400   69.2410  227.2060 C   0  0  0  0  0  0  0  0  0  0  0  0
  140.3380   69.8580  228.3500 C   0  0  0  0  0  0  0  0  0  0  0  0
  140.9390   71.0990  228.3090 C   0  0  0  0  0  0  0  0  0  0  0  0
  141.0740   71.7900  227.1200 C   0  0  0  0  0  0  0  0  0  0  0  0
  140.5810   71.1870  225.9660 C   0  0  0  0  0  0  0  0  0  0  0  0
  140.7260   71.8790  224.8210 N   0  0  0  0  0  0  0  0  0  0  0  0
  139.3240   73.7620  223.1590 H   0  0  0  0  0  0  0  0  0  0  0  0
  140.2965   73.5126  220.3000 H   0  0  0  0  0  0  0  0  0  0  0  0
  138.9464   74.5921  220.9165 H   0  0  0  0  0  0  0  0  0  0  0  0
  142.2017   77.4266  220.5532 H   0  0  0  0  0  0  0  0  0  0  0  0
  143.7275   76.4526  220.4655 H   0  0  0  0  0  0  0  0  0  0  0  0
  141.8799   77.2927  218.2226 H   0  0  0  0  0  0  0  0  0  0  0  0
  143.6478   77.6365  218.4617 H   0  0  0  0  0  0  0  0  0  0  0  0
  143.1249   75.9258  216.7070 H   0  0  0  0  0  0  0  0  0  0  0  0
  144.2273   75.3849  218.0461 H   0  0  0  0  0  0  0  0  0  0  0  0
  141.2673   74.7822  217.8013 H   0  0  0  0  0  0  0  0  0  0  0  0
  142.6172   73.6472  217.4788 H   0  0  0  0  0  0  0  0  0  0  0  0
  141.7063   73.3688  219.8115 H   0  0  0  0  0  0  0  0  0  0  0  0
  145.7349   71.1190  219.4796 H   0  0  0  0  0  0  0  0  0  0  0  0
  147.3166   72.5350  220.7571 H   0  0  0  0  0  0  0  0  0  0  0  0
  146.4909   74.8367  221.4782 H   0  0  0  0  0  0  0  0  0  0  0  0
  139.3019   69.7149  222.6949 H   0  0  0  0  0  0  0  0  0  0  0  0
  139.0291   68.4212  224.8184 H   0  0  0  0  0  0  0  0  0  0  0  0
  139.3612   68.2513  227.2409 H   0  0  0  0  0  0  0  0  0  0  0  0
  140.2496   69.3401  229.3164 H   0  0  0  0  0  0  0  0  0  0  0  0
  141.3176   71.5466  229.2397 H   0  0  0  0  0  0  0  0  0  0  0  0
  141.5531   72.7796  227.0865 H   0  0  0  0  0  0  0  0  0  0  0  0
  1  2  2  0
  2  3  1  0
  3  4  1  0
  4  5  1  0
  5  6  2  0
  5  7  1  0
  7  8  1  0
  8  9  1  0
  9 10  1  0
 10 11  1  0
 11 12  1  0
 12 13  1  0
 13 14  2  0
 14 15  1  0
 15 16  2  0
 16 17  1  0
 17 18  2  0
  2 19  1  0
 19 20  2  0
 20 21  1  0
 21 22  2  0
 22 23  1  0
 23 24  2  0
 24 25  1  0
 25 26  2  0
 26 27  1  0
 27 28  2  0
 12  7  1  0
 18 13  1  0
 28 19  1  0
 27 22  1  0
  3 29  1  0
  4 30  1  0
  4 31  1  0
  8 32  1  0
  8 33  1  0
  9 34  1  0
  9 35  1  0
 10 36  1  0
 10 37  1  0
 11 38  1  0
 11 39  1  0
 12 40  1  6
 15 41  1  0
 16 42  1  0
 17 43  1  0
 20 44  1  0
 21 45  1  0
 23 46  1  0
 24 47  1  0
 25 48  1  0
 26 49  1  0
M  END
>  <smiles>  (24) 
O=C(NCC(=O)N1CCCC[C@H]1c1ncccn1)c1ccc2ccccc2n1

>  <score_type>  (24) 
oracle

>  <origin>  (24) 
autodockgpu

>  <m_score__min__energy>  (24) 
-8.6099999999999994

>  <m_primary>  (24) 
energy

>  <rmsd>  (24) 
3.9668979308980696

>  <m_score__min__rmsd>  (24) 
3.9668979308980696

>  <meeko>  (24) 
{"free_energy": -8.28, "intermolecular_energy": -9.77, "internal_energy": -1.62, "cluster_size": 9, "cluster_id": 2, "rank_in_cluster": 1}

>  <energy>  (24) 
-8.06

>  <cluster_rmsd>  (24) 
0.77

>  <cluster>  (24) 
1

$$$$

     RDKit          3D

 49 52  0  0  0  0  0  0  0  0999 V2000
  140.7530   71.4450  221.3040 O   0  0  0  0  0  0  0  0  0  0  0  0
  140.3130   72.0290  222.3360 C   0  0  0  0  0  0  0  0  0  0  0  0
  139.9110   73.3960  222.2630 N   0  0  0  0  0  0  0  0  0  0  0  0
  139.9870   74.1430  221.0500 C   0  0  0  0  0  0  0  0  0  0  0  0
  140.7870   75.3670  221.1370 C   0  0  0  0  0  0  0  0  0  0  0  0
  140.5650   76.2960  221.9870 O   0  0  0  0  0  0  0  0  0  0  0  0
  141.8700   75.5290  220.2260 N   0  0  0  0  0  0  0  0  0  0  0  0
  142.5920   76.7900  220.0970 C   0  0  0  0  0  0  0  0  0  0  0  0
  142.6900   77.2300  218.6590 C   0  0  0  0  0  0  0  0  0  0  0  0
  143.0730   76.0960  217.7410 C   0  0  0  0  0  0  0  0  0  0  0  0
  142.2070   74.8940  217.9380 C   0  0  0  0  0  0  0  0  0  0  0  0
  142.3110   74.4420  219.3790 C   0  0  1  0  0  0  0  0  0  0  0  0
  143.6970   74.0000  219.6650 C   0  0  0  0  0  0  0  0  0  0  0  0
  144.4300   73.4110  218.6790 N   0  0  0  0  0  0  0  0  0  0  0  0
  145.6820   73.0170  218.9530 C   0  0  0  0  0  0  0  0  0  0  0  0
  146.2850   73.1700  220.1820 C   0  0  0  0  0  0  0  0  0  0  0  0
  145.5100   73.7760  221.1730 C   0  0  0  0  0  0  0  0  0  0  0  0
  144.2760   74.1470  220.8480 N   0  0  0  0  0  0  0  0  0  0  0  0
  140.2060   71.3170  223.6280 C   0  0  0  0  0  0  0  0  0  0  0  0
  139.6070   70.0740  223.6350 C   0  0  0  0  0  0  0  0  0  0  0  0
  139.4930   69.3840  224.8350 C   0  0  0  0  0  0  0  0  0  0  0  0
  139.9840   69.9570  226.0000 C   0  0  0  0  0  0  0  0  0  0  0  0
  139.8800   69.2810  227.2080 C   0  0  0  0  0  0  0  0  0  0  0  0
  140.3990   69.9320  228.3240 C   0  0  0  0  0  0  0  0  0  0  0  0
  140.9850   71.1780  228.2350 C   0  0  0  0  0  0  0  0  0  0  0  0
  141.0830   71.8400  227.0260 C   0  0  0  0  0  0  0  0  0  0  0  0
  140.5680   71.2020  225.9010 C   0  0  0  0  0  0  0  0  0  0  0  0
  140.6750   71.8670  224.7360 N   0  0  0  0  0  0  0  0  0  0  0  0
  139.5500   73.8280  223.1670 H   0  0  0  0  0  0  0  0  0  0  0  0
  140.4298   73.4979  220.2769 H   0  0  0  0  0  0  0  0  0  0  0  0
  138.9601   74.4578  220.8128 H   0  0  0  0  0  0  0  0  0  0  0  0
  142.0629   77.5644  220.6718 H   0  0  0  0  0  0  0  0  0  0  0  0
  143.6120   76.6427  220.4814 H   0  0  0  0  0  0  0  0  0  0  0  0
  141.7143   77.6276  218.3429 H   0  0  0  0  0  0  0  0  0  0  0  0
  143.4753   77.9975  218.5934 H   0  0  0  0  0  0  0  0  0  0  0  0
  142.9764   76.4354  216.6991 H   0  0  0  0  0  0  0  0  0  0  0  0
  144.1089   75.8080  217.9735 H   0  0  0  0  0  0  0  0  0  0  0  0
  141.1626   75.1500  217.7063 H   0  0  0  0  0  0  0  0  0  0  0  0
  142.5372   74.0848  217.2701 H   0  0  0  0  0  0  0  0  0  0  0  0
  141.6638   73.5753  219.5792 H   0  0  0  0  0  0  0  0  0  0  0  0
  146.2626   72.5430  218.1478 H   0  0  0  0  0  0  0  0  0  0  0  0
  147.3154   72.8348  220.3715 H   0  0  0  0  0  0  0  0  0  0  0  0
  145.9065   73.9403  222.1858 H   0  0  0  0  0  0  0  0  0  0  0  0
  139.2245   69.6350  222.7017 H   0  0  0  0  0  0  0  0  0  0  0  0
  139.0178   68.3923  224.8619 H   0  0  0  0  0  0  0  0  0  0  0  0
  139.4139   68.2872  227.2795 H   0  0  0  0  0  0  0  0  0  0  0  0
  140.3401   69.4385  229.3053 H   0  0  0  0  0  0  0  0  0  0  0  0
  141.3818   71.6536  229.1440 H   0  0  0  0  0  0  0  0  0  0  0  0
  141.5502   72.8333  226.9552 H   0  0  0  0  0  0  0  0  0  0  0  0
  1  2  2  0
  2  3  1  0
  3  4  1  0
  4  5  1  0
  5  6  2  0
  5  7  1  0
  7  8  1  0
  8  9  1  0
  9 10  1  0
 10 11  1  0
 11 12  1  0
 12 13  1  0
 13 14  2  0
 14 15  1  0
 15 16  2  0
 16 17  1  0
 17 18  2  0
  2 19  1  0
 19 20  2  0
 20 21  1  0
 21 22  2  0
 22 23  1  0
 23 24  2  0
 24 25  1  0
 25 26  2  0
 26 27  1  0
 27 28  2  0
 12  7  1  0
 18 13  1  0
 28 19  1  0
 27 22  1  0
  3 29  1  0
  4 30  1  0
  4 31  1  0
  8 32  1  0
  8 33  1  0
  9 34  1  0
  9 35  1  0
 10 36  1  0
 10 37  1  0
 11 38  1  0
 11 39  1  0
 12 40  1  6
 15 41  1  0
 16 42  1  0
 17 43  1  0
 20 44  1  0
 21 45  1  0
 23 46  1  0
 24 47  1  0
 25 48  1  0
 26 49  1  0
M  END
>  <smiles>  (25) 
O=C(NCC(=O)N1CCCC[C@H]1c1ncccn1)c1ccc2ccccc2n1

>  <score_type>  (25) 
oracle

>  <origin>  (25) 
autodockgpu

>  <m_score__min__energy>  (25) 
-8.6099999999999994

>  <m_primary>  (25) 
energy

>  <rmsd>  (25) 
3.917290361331221

>  <m_score__min__rmsd>  (25) 
3.917290361331221

>  <meeko>  (25) 
{"free_energy": -8.14, "intermolecular_energy": -9.63, "internal_energy": -1.7, "cluster_size": 9, "cluster_id": 2, "rank_in_cluster": 4}

>  <energy>  (25) 
-8.04

>  <cluster_rmsd>  (25) 
1.82

>  <cluster>  (25) 
1

$$$$

     RDKit          3D

 49 52  0  0  0  0  0  0  0  0999 V2000
  140.6860   71.5930  221.2630 O   0  0  0  0  0  0  0  0  0  0  0  0
  140.2700   72.1300  222.3300 C   0  0  0  0  0  0  0  0  0  0  0  0
  139.8600   73.4960  222.3270 N   0  0  0  0  0  0  0  0  0  0  0  0
  139.9020   74.2950  221.1450 C   0  0  0  0  0  0  0  0  0  0  0  0
  140.9040   75.3630  221.1670 C   0  0  0  0  0  0  0  0  0  0  0  0
  140.8780   76.3380  221.9930 O   0  0  0  0  0  0  0  0  0  0  0  0
  141.9650   75.3090  220.2170 N   0  0  0  0  0  0  0  0  0  0  0  0
  142.7160   76.4970  219.8270 C   0  0  0  0  0  0  0  0  0  0  0  0
  142.7840   76.6440  218.3290 C   0  0  0  0  0  0  0  0  0  0  0  0
  143.1100   75.3410  217.6420 C   0  0  0  0  0  0  0  0  0  0  0  0
  142.2180   74.2290  218.0910 C   0  0  0  0  0  0  0  0  0  0  0  0
  142.3520   74.0640  219.5900 C   0  0  1  0  0  0  0  0  0  0  0  0
  143.7330   73.6430  219.9250 C   0  0  0  0  0  0  0  0  0  0  0  0
  144.1590   72.3990  219.5690 N   0  0  0  0  0  0  0  0  0  0  0  0
  145.4120   72.0320  219.8790 C   0  0  0  0  0  0  0  0  0  0  0  0
  146.3070   72.8410  220.5430 C   0  0  0  0  0  0  0  0  0  0  0  0
  145.8430   74.1090  220.8950 C   0  0  0  0  0  0  0  0  0  0  0  0
  144.5940   74.4210  220.5640 N   0  0  0  0  0  0  0  0  0  0  0  0
  140.1990   71.3620  223.5920 C   0  0  0  0  0  0  0  0  0  0  0  0
  139.6430   70.0990  223.5520 C   0  0  0  0  0  0  0  0  0  0  0  0
  139.5640   69.3570  224.7240 C   0  0  0  0  0  0  0  0  0  0  0  0
  140.0460   69.8990  225.9080 C   0  0  0  0  0  0  0  0  0  0  0  0
  139.9750   69.1710  227.0880 C   0  0  0  0  0  0  0  0  0  0  0  0
  140.4820   69.7940  228.2250 C   0  0  0  0  0  0  0  0  0  0  0  0
  141.0240   71.0620  228.1840 C   0  0  0  0  0  0  0  0  0  0  0  0
  141.0880   71.7750  227.0030 C   0  0  0  0  0  0  0  0  0  0  0  0
  140.5850   71.1670  225.8560 C   0  0  0  0  0  0  0  0  0  0  0  0
  140.6590   71.8820  224.7190 N   0  0  0  0  0  0  0  0  0  0  0  0
  139.5200   73.8870  223.2570 H   0  0  0  0  0  0  0  0  0  0  0  0
  140.1220   73.6355  220.2926 H   0  0  0  0  0  0  0  0  0  0  0  0
  138.9219   74.7882  221.0668 H   0  0  0  0  0  0  0  0  0  0  0  0
  142.2243   77.3851  220.2508 H   0  0  0  0  0  0  0  0  0  0  0  0
  143.7424   76.3958  220.2094 H   0  0  0  0  0  0  0  0  0  0  0  0
  141.8104   77.0029  217.9639 H   0  0  0  0  0  0  0  0  0  0  0  0
  143.5874   77.3584  218.0962 H   0  0  0  0  0  0  0  0  0  0  0  0
  142.9923   75.4735  216.5564 H   0  0  0  0  0  0  0  0  0  0  0  0
  144.1442   75.0710  217.9019 H   0  0  0  0  0  0  0  0  0  0  0  0
  141.1745   74.4683  217.8382 H   0  0  0  0  0  0  0  0  0  0  0  0
  142.5065   73.2947  217.5871 H   0  0  0  0  0  0  0  0  0  0  0  0
  141.6884   73.2739  219.9711 H   0  0  0  0  0  0  0  0  0  0  0  0
  145.7439   71.0252  219.5853 H   0  0  0  0  0  0  0  0  0  0  0  0
  147.3276   72.5073  220.7818 H   0  0  0  0  0  0  0  0  0  0  0  0
  146.4873   74.8244  221.4270 H   0  0  0  0  0  0  0  0  0  0  0  0
  139.2674   69.6854  222.6044 H   0  0  0  0  0  0  0  0  0  0  0  0
  139.1235   68.3491  224.7140 H   0  0  0  0  0  0  0  0  0  0  0  0
  139.5430   68.1600  227.1225 H   0  0  0  0  0  0  0  0  0  0  0  0
  140.4494   69.2589  229.1855 H   0  0  0  0  0  0  0  0  0  0  0  0
  141.4123   71.5134  229.1089 H   0  0  0  0  0  0  0  0  0  0  0  0
  141.5204   72.7859  226.9698 H   0  0  0  0  0  0  0  0  0  0  0  0
  1  2  2  0
  2  3  1  0
  3  4  1  0
  4  5  1  0
  5  6  2  0
  5  7  1  0
  7  8  1  0
  8  9  1  0
  9 10  1  0
 10 11  1  0
 11 12  1  0
 12 13  1  0
 13 14  2  0
 14 15  1  0
 15 16  2  0
 16 17  1  0
 17 18  2  0
  2 19  1  0
 19 20  2  0
 20 21  1  0
 21 22  2  0
 22 23  1  0
 23 24  2  0
 24 25  1  0
 25 26  2  0
 26 27  1  0
 27 28  2  0
 12  7  1  0
 18 13  1  0
 28 19  1  0
 27 22  1  0
  3 29  1  0
  4 30  1  0
  4 31  1  0
  8 32  1  0
  8 33  1  0
  9 34  1  0
  9 35  1  0
 10 36  1  0
 10 37  1  0
 11 38  1  0
 11 39  1  0
 12 40  1  1
 15 41  1  0
 16 42  1  0
 17 43  1  0
 20 44  1  0
 21 45  1  0
 23 46  1  0
 24 47  1  0
 25 48  1  0
 26 49  1  0
M  END
>  <smiles>  (26) 
O=C(NCC(=O)N1CCCC[C@H]1c1ncccn1)c1ccc2ccccc2n1

>  <score_type>  (26) 
oracle

>  <origin>  (26) 
autodockgpu

>  <m_score__min__energy>  (26) 
-8.6099999999999994

>  <m_primary>  (26) 
energy

>  <rmsd>  (26) 
3.967716185457227

>  <m_score__min__rmsd>  (26) 
3.967716185457227

>  <meeko>  (26) 
{"free_energy": -8.13, "intermolecular_energy": -9.62, "internal_energy": -1.7, "cluster_size": 9, "cluster_id": 2, "rank_in_cluster": 5}

>  <energy>  (26) 
-7.88

>  <cluster_rmsd>  (26) 
0.98

>  <cluster>  (26) 
1

$$$$

     RDKit          3D

 49 52  0  0  0  0  0  0  0  0999 V2000
  138.6200   74.3820  222.3290 O   0  0  0  0  0  0  0  0  0  0  0  0
  139.7010   74.9160  221.9490 C   0  0  0  0  0  0  0  0  0  0  0  0
  139.8170   76.3370  221.9030 N   0  0  0  0  0  0  0  0  0  0  0  0
  138.7390   77.1940  222.2770 C   0  0  0  0  0  0  0  0  0  0  0  0
  139.1520   78.4980  222.8030 C   0  0  0  0  0  0  0  0  0  0  0  0
  138.4280   79.2050  223.5850 O   0  0  0  0  0  0  0  0  0  0  0  0
  140.4290   79.0020  222.4210 N   0  0  0  0  0  0  0  0  0  0  0  0
  141.6450   78.6570  223.1480 C   0  0  0  0  0  0  0  0  0  0  0  0
  142.4370   79.8850  223.5200 C   0  0  0  0  0  0  0  0  0  0  0  0
  142.5460   80.8620  222.3760 C   0  0  0  0  0  0  0  0  0  0  0  0
  141.2150   81.1720  221.7720 C   0  0  0  0  0  0  0  0  0  0  0  0
  140.5820   79.8860  221.2870 C   0  0  1  0  0  0  0  0  0  0  0  0
  141.4020   79.3050  220.1970 C   0  0  0  0  0  0  0  0  0  0  0  0
  141.8610   80.1120  219.2000 N   0  0  0  0  0  0  0  0  0  0  0  0
  142.6020   79.5720  218.2210 C   0  0  0  0  0  0  0  0  0  0  0  0
  142.9330   78.2370  218.1560 C   0  0  0  0  0  0  0  0  0  0  0  0
  142.4480   77.4330  219.1900 C   0  0  0  0  0  0  0  0  0  0  0  0
  141.7190   78.0200  220.1340 N   0  0  0  0  0  0  0  0  0  0  0  0
  140.8600   74.0880  221.5470 C   0  0  0  0  0  0  0  0  0  0  0  0
  140.7130   72.7160  221.5620 C   0  0  0  0  0  0  0  0  0  0  0  0
  141.7860   71.9170  221.1890 C   0  0  0  0  0  0  0  0  0  0  0  0
  142.9810   72.5120  220.8100 C   0  0  0  0  0  0  0  0  0  0  0  0
  144.0630   71.7280  220.4340 C   0  0  0  0  0  0  0  0  0  0  0  0
  145.2200   72.4110  220.0700 C   0  0  0  0  0  0  0  0  0  0  0  0
  145.2890   73.7890  220.0810 C   0  0  0  0  0  0  0  0  0  0  0  0
  144.2040   74.5580  220.4570 C   0  0  0  0  0  0  0  0  0  0  0  0
  143.0390   73.8900  220.8250 C   0  0  0  0  0  0  0  0  0  0  0  0
  141.9980   74.6600  221.1870 N   0  0  0  0  0  0  0  0  0  0  0  0
  140.7530   76.7220  221.5750 H   0  0  0  0  0  0  0  0  0  0  0  0
  138.1123   77.3647  221.3893 H   0  0  0  0  0  0  0  0  0  0  0  0
  138.2030   76.6844  223.0912 H   0  0  0  0  0  0  0  0  0  0  0  0
  141.3708   78.1174  224.0665 H   0  0  0  0  0  0  0  0  0  0  0  0
  142.2697   78.0296  222.4952 H   0  0  0  0  0  0  0  0  0  0  0  0
  141.9406   80.3838  224.3655 H   0  0  0  0  0  0  0  0  0  0  0  0
  143.4544   79.5624  223.7861 H   0  0  0  0  0  0  0  0  0  0  0  0
  142.9925   81.7958  222.7485 H   0  0  0  0  0  0  0  0  0  0  0  0
  143.1724   80.4026  221.5971 H   0  0  0  0  0  0  0  0  0  0  0  0
  140.5670   81.6397  222.5279 H   0  0  0  0  0  0  0  0  0  0  0  0
  141.3428   81.8648  220.9272 H   0  0  0  0  0  0  0  0  0  0  0  0
  139.5835   80.0629  220.8607 H   0  0  0  0  0  0  0  0  0  0  0  0
  142.9669   80.2350  217.4227 H   0  0  0  0  0  0  0  0  0  0  0  0
  143.5436   77.8277  217.3377 H   0  0  0  0  0  0  0  0  0  0  0  0
  142.6613   76.3544  219.2220 H   0  0  0  0  0  0  0  0  0  0  0  0
  139.7585   72.2611  221.8654 H   0  0  0  0  0  0  0  0  0  0  0  0
  141.6894   70.8213  221.1940 H   0  0  0  0  0  0  0  0  0  0  0  0
  144.0092   70.6294  220.4242 H   0  0  0  0  0  0  0  0  0  0  0  0
  146.1058   71.8349  219.7644 H   0  0  0  0  0  0  0  0  0  0  0  0
  146.2252   74.2848  219.7849 H   0  0  0  0  0  0  0  0  0  0  0  0
  144.2587   75.6566  220.4653 H   0  0  0  0  0  0  0  0  0  0  0  0
  1  2  2  0
  2  3  1  0
  3  4  1  0
  4  5  1  0
  5  6  2  0
  5  7  1  0
  7  8  1  0
  8  9  1  0
  9 10  1  0
 10 11  1  0
 11 12  1  0
 12 13  1  0
 13 14  2  0
 14 15  1  0
 15 16  2  0
 16 17  1  0
 17 18  2  0
  2 19  1  0
 19 20  2  0
 20 21  1  0
 21 22  2  0
 22 23  1  0
 23 24  2  0
 24 25  1  0
 25 26  2  0
 26 27  1  0
 27 28  2  0
 12  7  1  0
 18 13  1  0
 28 19  1  0
 27 22  1  0
  3 29  1  0
  4 30  1  0
  4 31  1  0
  8 32  1  0
  8 33  1  0
  9 34  1  0
  9 35  1  0
 10 36  1  0
 10 37  1  0
 11 38  1  0
 11 39  1  0
 12 40  1  6
 15 41  1  0
 16 42  1  0
 17 43  1  0
 20 44  1  0
 21 45  1  0
 23 46  1  0
 24 47  1  0
 25 48  1  0
 26 49  1  0
M  END
>  <smiles>  (27) 
O=C(NCC(=O)N1CCCC[C@H]1c1ncccn1)c1ccc2ccccc2n1

>  <score_type>  (27) 
oracle

>  <origin>  (27) 
autodockgpu

>  <m_score__min__energy>  (27) 
-8.6099999999999994

>  <m_primary>  (27) 
energy

>  <rmsd>  (27) 
5.960084777805944

>  <m_score__min__rmsd>  (27) 
5.960084777805944

>  <meeko>  (27) 
{"free_energy": -6.58, "intermolecular_energy": -8.08, "internal_energy": -3.0, "cluster_size": 10, "cluster_id": 5, "rank_in_cluster": 5}

>  <energy>  (27) 
-7.75

>  <cluster_rmsd>  (27) 
0.98

>  <cluster>  (27) 
1

$$$$

     RDKit          3D

 49 52  0  0  0  0  0  0  0  0999 V2000
  138.9280   73.7350  221.6760 O   0  0  0  0  0  0  0  0  0  0  0  0
  140.0220   74.3680  221.6390 C   0  0  0  0  0  0  0  0  0  0  0  0
  140.0590   75.7480  222.0000 N   0  0  0  0  0  0  0  0  0  0  0  0
  138.8870   76.4530  222.4090 C   0  0  0  0  0  0  0  0  0  0  0  0
  139.0840   77.8890  222.6190 C   0  0  0  0  0  0  0  0  0  0  0  0
  138.1830   78.6620  223.0940 O   0  0  0  0  0  0  0  0  0  0  0  0
  140.3460   78.4520  222.2750 N   0  0  0  0  0  0  0  0  0  0  0  0
  141.5270   78.2720  223.1120 C   0  0  0  0  0  0  0  0  0  0  0  0
  142.2010   79.5870  223.4130 C   0  0  0  0  0  0  0  0  0  0  0  0
  142.3260   80.4570  222.1860 C   0  0  0  0  0  0  0  0  0  0  0  0
  141.0250   80.6050  221.4660 C   0  0  0  0  0  0  0  0  0  0  0  0
  140.5210   79.2340  221.0710 C   0  0  1  0  0  0  0  0  0  0  0  0
  141.4580   78.6170  220.1010 C   0  0  0  0  0  0  0  0  0  0  0  0
  141.8500   77.3240  220.2790 N   0  0  0  0  0  0  0  0  0  0  0  0
  142.6980   76.7800  219.3940 C   0  0  0  0  0  0  0  0  0  0  0  0
  143.2060   77.4500  218.3030 C   0  0  0  0  0  0  0  0  0  0  0  0
  142.7870   78.7730  218.1470 C   0  0  0  0  0  0  0  0  0  0  0  0
  141.9470   79.2620  219.0530 N   0  0  0  0  0  0  0  0  0  0  0  0
  141.2760   73.7000  221.2250 C   0  0  0  0  0  0  0  0  0  0  0  0
  141.2140   72.3680  220.8690 C   0  0  0  0  0  0  0  0  0  0  0  0
  142.3770   71.7180  220.4770 C   0  0  0  0  0  0  0  0  0  0  0  0
  143.5750   72.4200  220.4510 C   0  0  0  0  0  0  0  0  0  0  0  0
  144.7470   71.7850  220.0610 C   0  0  0  0  0  0  0  0  0  0  0  0
  145.8990   72.5660  220.0650 C   0  0  0  0  0  0  0  0  0  0  0  0
  145.8790   73.8950  220.4360 C   0  0  0  0  0  0  0  0  0  0  0  0
  144.7060   74.5140  220.8210 C   0  0  0  0  0  0  0  0  0  0  0  0
  143.5440   73.7470  220.8220 C   0  0  0  0  0  0  0  0  0  0  0  0
  142.4150   74.3730  221.2020 N   0  0  0  0  0  0  0  0  0  0  0  0
  141.0100   76.2220  221.9480 H   0  0  0  0  0  0  0  0  0  0  0  0
  138.1187   76.3216  221.6329 H   0  0  0  0  0  0  0  0  0  0  0  0
  138.5924   76.0322  223.3817 H   0  0  0  0  0  0  0  0  0  0  0  0
  141.2247   77.8010  224.0590 H   0  0  0  0  0  0  0  0  0  0  0  0
  142.2408   77.6368  222.5670 H   0  0  0  0  0  0  0  0  0  0  0  0
  141.6091   80.1237  224.1691 H   0  0  0  0  0  0  0  0  0  0  0  0
  143.2156   79.3707  223.7787 H   0  0  0  0  0  0  0  0  0  0  0  0
  142.6771   81.4535  222.4922 H   0  0  0  0  0  0  0  0  0  0  0  0
  143.0391   79.9753  221.5008 H   0  0  0  0  0  0  0  0  0  0  0  0
  140.2916   81.0913  222.1260 H   0  0  0  0  0  0  0  0  0  0  0  0
  141.1665   81.2220  220.5664 H   0  0  0  0  0  0  0  0  0  0  0  0
  139.5468   79.2925  220.5636 H   0  0  0  0  0  0  0  0  0  0  0  0
  143.0066   75.7356  219.5487 H   0  0  0  0  0  0  0  0  0  0  0  0
  143.9003   76.9715  217.5967 H   0  0  0  0  0  0  0  0  0  0  0  0
  143.1393   79.3875  217.3054 H   0  0  0  0  0  0  0  0  0  0  0  0
  140.2559   71.8282  220.8954 H   0  0  0  0  0  0  0  0  0  0  0  0
  142.3495   70.6566  220.1897 H   0  0  0  0  0  0  0  0  0  0  0  0
  144.7638   70.7255  219.7659 H   0  0  0  0  0  0  0  0  0  0  0  0
  146.8537   72.1104  219.7635 H   0  0  0  0  0  0  0  0  0  0  0  0
  146.8152   74.4724  220.4249 H   0  0  0  0  0  0  0  0  0  0  0  0
  144.6903   75.5736  221.1159 H   0  0  0  0  0  0  0  0  0  0  0  0
  1  2  2  0
  2  3  1  0
  3  4  1  0
  4  5  1  0
  5  6  2  0
  5  7  1  0
  7  8  1  0
  8  9  1  0
  9 10  1  0
 10 11  1  0
 11 12  1  0
 12 13  1  0
 13 14  2  0
 14 15  1  0
 15 16  2  0
 16 17  1  0
 17 18  2  0
  2 19  1  0
 19 20  2  0
 20 21  1  0
 21 22  2  0
 22 23  1  0
 23 24  2  0
 24 25  1  0
 25 26  2  0
 26 27  1  0
 27 28  2  0
 12  7  1  0
 18 13  1  0
 28 19  1  0
 27 22  1  0
  3 29  1  0
  4 30  1  0
  4 31  1  0
  8 32  1  0
  8 33  1  0
  9 34  1  0
  9 35  1  0
 10 36  1  0
 10 37  1  0
 11 38  1  0
 11 39  1  0
 12 40  1  6
 15 41  1  0
 16 42  1  0
 17 43  1  0
 20 44  1  0
 21 45  1  0
 23 46  1  0
 24 47  1  0
 25 48  1  0
 26 49  1  0
M  END
>  <smiles>  (28) 
O=C(NCC(=O)N1CCCC[C@H]1c1ncccn1)c1ccc2ccccc2n1

>  <score_type>  (28) 
oracle

>  <origin>  (28) 
autodockgpu

>  <m_score__min__energy>  (28) 
-8.6099999999999994

>  <m_primary>  (28) 
energy

>  <rmsd>  (28) 
5.8279880980916765

>  <m_score__min__rmsd>  (28) 
5.8279880980916765

>  <meeko>  (28) 
{"free_energy": -6.32, "intermolecular_energy": -7.82, "internal_energy": -3.08, "cluster_size": 10, "cluster_id": 5, "rank_in_cluster": 10}

>  <energy>  (28) 
-7.72

>  <cluster_rmsd>  (28) 
1.4

>  <cluster>  (28) 
1

$$$$

     RDKit          3D

 49 52  0  0  0  0  0  0  0  0999 V2000
  140.5520   71.4090  221.3280 O   0  0  0  0  0  0  0  0  0  0  0  0
  140.2000   71.9930  222.3920 C   0  0  0  0  0  0  0  0  0  0  0  0
  139.8520   73.3770  222.3640 N   0  0  0  0  0  0  0  0  0  0  0  0
  139.8850   74.1390  221.1590 C   0  0  0  0  0  0  0  0  0  0  0  0
  140.8160   75.2710  221.1800 C   0  0  0  0  0  0  0  0  0  0  0  0
  142.0680   75.1590  220.9440 O   0  0  0  0  0  0  0  0  0  0  0  0
  140.2960   76.5630  221.4780 N   0  0  0  0  0  0  0  0  0  0  0  0
  139.1340   76.7500  222.3400 C   0  0  0  0  0  0  0  0  0  0  0  0
  138.0990   77.6330  221.6920 C   0  0  0  0  0  0  0  0  0  0  0  0
  138.7110   78.8540  221.0520 C   0  0  0  0  0  0  0  0  0  0  0  0
  139.8460   78.5050  220.1450 C   0  0  0  0  0  0  0  0  0  0  0  0
  140.9000   77.7620  220.9380 C   0  0  1  0  0  0  0  0  0  0  0  0
  141.4650   78.6540  221.9780 C   0  0  0  0  0  0  0  0  0  0  0  0
  141.3810   78.2920  223.2890 N   0  0  0  0  0  0  0  0  0  0  0  0
  141.8970   79.1090  224.2190 C   0  0  0  0  0  0  0  0  0  0  0  0
  142.5150   80.3060  223.9330 C   0  0  0  0  0  0  0  0  0  0  0  0
  142.5860   80.6510  222.5820 C   0  0  0  0  0  0  0  0  0  0  0  0
  142.0590   79.8050  221.7030 N   0  0  0  0  0  0  0  0  0  0  0  0
  140.1430   71.2640  223.6790 C   0  0  0  0  0  0  0  0  0  0  0  0
  139.5820   70.0030  223.6840 C   0  0  0  0  0  0  0  0  0  0  0  0
  139.5160   69.2980  224.8790 C   0  0  0  0  0  0  0  0  0  0  0  0
  140.0130   69.8740  226.0390 C   0  0  0  0  0  0  0  0  0  0  0  0
  139.9550   69.1820  227.2420 C   0  0  0  0  0  0  0  0  0  0  0  0
  140.4770   69.8380  228.3540 C   0  0  0  0  0  0  0  0  0  0  0  0
  141.0220   71.1030  228.2670 C   0  0  0  0  0  0  0  0  0  0  0  0
  141.0730   71.7790  227.0640 C   0  0  0  0  0  0  0  0  0  0  0  0
  140.5550   71.1380  225.9420 C   0  0  0  0  0  0  0  0  0  0  0  0
  140.6180   71.8170  224.7830 N   0  0  0  0  0  0  0  0  0  0  0  0
  139.5650   73.8080  223.2940 H   0  0  0  0  0  0  0  0  0  0  0  0
  140.1774   73.4691  220.3370 H   0  0  0  0  0  0  0  0  0  0  0  0
  138.8787   74.5644  221.0306 H   0  0  0  0  0  0  0  0  0  0  0  0
  138.6843   75.7685  222.5509 H   0  0  0  0  0  0  0  0  0  0  0  0
  139.4688   77.2363  223.2681 H   0  0  0  0  0  0  0  0  0  0  0  0
  137.5733   77.0537  220.9187 H   0  0  0  0  0  0  0  0  0  0  0  0
  137.4075   77.9740  222.4765 H   0  0  0  0  0  0  0  0  0  0  0  0
  137.9372   79.3736  220.4678 H   0  0  0  0  0  0  0  0  0  0  0  0
  139.1040   79.4956  221.8544 H   0  0  0  0  0  0  0  0  0  0  0  0
  139.4814   77.8663  219.3270 H   0  0  0  0  0  0  0  0  0  0  0  0
  140.2786   79.4231  219.7207 H   0  0  0  0  0  0  0  0  0  0  0  0
  141.7446   77.4574  220.3025 H   0  0  0  0  0  0  0  0  0  0  0  0
  141.8221   78.8048  225.2734 H   0  0  0  0  0  0  0  0  0  0  0  0
  142.9280   80.9518  224.7219 H   0  0  0  0  0  0  0  0  0  0  0  0
  143.0607   81.5886  222.2571 H   0  0  0  0  0  0  0  0  0  0  0  0
  139.1925   69.5623  222.7544 H   0  0  0  0  0  0  0  0  0  0  0  0
  139.0733   68.2913  224.9053 H   0  0  0  0  0  0  0  0  0  0  0  0
  139.5215   68.1735  227.3123 H   0  0  0  0  0  0  0  0  0  0  0  0
  140.4543   69.3328  229.3309 H   0  0  0  0  0  0  0  0  0  0  0  0
  141.4231   71.5815  229.1726 H   0  0  0  0  0  0  0  0  0  0  0  0
  141.5071   72.7873  226.9947 H   0  0  0  0  0  0  0  0  0  0  0  0
  1  2  2  0
  2  3  1  0
  3  4  1  0
  4  5  1  0
  5  6  2  0
  5  7  1  0
  7  8  1  0
  8  9  1  0
  9 10  1  0
 10 11  1  0
 11 12  1  0
 12 13  1  0
 13 14  2  0
 14 15  1  0
 15 16  2  0
 16 17  1  0
 17 18  2  0
  2 19  1  0
 19 20  2  0
 20 21  1  0
 21 22  2  0
 22 23  1  0
 23 24  2  0
 24 25  1  0
 25 26  2  0
 26 27  1  0
 27 28  2  0
 12  7  1  0
 18 13  1  0
 28 19  1  0
 27 22  1  0
  3 29  1  0
  4 30  1  0
  4 31  1  0
  8 32  1  0
  8 33  1  0
  9 34  1  0
  9 35  1  0
 10 36  1  0
 10 37  1  0
 11 38  1  0
 11 39  1  0
 12 40  1  6
 15 41  1  0
 16 42  1  0
 17 43  1  0
 20 44  1  0
 21 45  1  0
 23 46  1  0
 24 47  1  0
 25 48  1  0
 26 49  1  0
M  END
>  <smiles>  (29) 
O=C(NCC(=O)N1CCCC[C@H]1c1ncccn1)c1ccc2ccccc2n1

>  <score_type>  (29) 
oracle

>  <origin>  (29) 
autodockgpu

>  <m_score__min__energy>  (29) 
-8.6099999999999994

>  <m_primary>  (29) 
energy

>  <rmsd>  (29) 
2.4423971685972847

>  <m_score__min__rmsd>  (29) 
2.4423971685972847

>  <meeko>  (29) 
{"free_energy": -8.5, "intermolecular_energy": -9.99, "internal_energy": -1.44, "cluster_size": 28, "cluster_id": 1, "rank_in_cluster": 8}

>  <energy>  (29) 
-8.28

>  <cluster_rmsd>  (29) 
0.0

>  <cluster>  (29) 
2

$$$$

     RDKit          3D

 49 52  0  0  0  0  0  0  0  0999 V2000
  141.0930   73.2100  221.9930 O   0  0  0  0  0  0  0  0  0  0  0  0
  140.0140   72.9140  222.5830 C   0  0  0  0  0  0  0  0  0  0  0  0
  138.8340   73.6740  222.3310 N   0  0  0  0  0  0  0  0  0  0  0  0
  138.8240   74.7750  221.4220 C   0  0  0  0  0  0  0  0  0  0  0  0
  138.8260   76.0930  222.0630 C   0  0  0  0  0  0  0  0  0  0  0  0
  138.1450   76.3700  223.1090 O   0  0  0  0  0  0  0  0  0  0  0  0
  139.6300   77.1180  221.4870 N   0  0  0  0  0  0  0  0  0  0  0  0
  139.0870   78.0940  220.5490 C   0  0  0  0  0  0  0  0  0  0  0  0
  139.9220   78.1870  219.2980 C   0  0  0  0  0  0  0  0  0  0  0  0
  141.3990   78.2400  219.6010 C   0  0  0  0  0  0  0  0  0  0  0  0
  141.8250   77.1420  220.5210 C   0  0  0  0  0  0  0  0  0  0  0  0
  141.0350   77.2430  221.8080 C   0  0  1  0  0  0  0  0  0  0  0  0
  141.3680   78.5110  222.5010 C   0  0  0  0  0  0  0  0  0  0  0  0
  140.4030   79.1600  223.2110 N   0  0  0  0  0  0  0  0  0  0  0  0
  140.7190   80.3060  223.8320 C   0  0  0  0  0  0  0  0  0  0  0  0
  141.9710   80.8780  223.7990 C   0  0  0  0  0  0  0  0  0  0  0  0
  142.9400   80.1920  223.0640 C   0  0  0  0  0  0  0  0  0  0  0  0
  142.5730   79.0620  222.4680 N   0  0  0  0  0  0  0  0  0  0  0  0
  139.9510   71.7850  223.5370 C   0  0  0  0  0  0  0  0  0  0  0  0
  139.2900   70.6400  223.1430 C   0  0  0  0  0  0  0  0  0  0  0  0
  139.2160   69.5650  224.0210 C   0  0  0  0  0  0  0  0  0  0  0  0
  139.8070   69.6660  225.2720 C   0  0  0  0  0  0  0  0  0  0  0  0
  139.7430   68.6010  226.1620 C   0  0  0  0  0  0  0  0  0  0  0  0
  140.3640   68.7910  227.3930 C   0  0  0  0  0  0  0  0  0  0  0  0
  141.0060   69.9690  227.7140 C   0  0  0  0  0  0  0  0  0  0  0  0
  141.0620   71.0210  226.8190 C   0  0  0  0  0  0  0  0  0  0  0  0
  140.4470   70.8470  225.5830 C   0  0  0  0  0  0  0  0  0  0  0  0
  140.5160   71.8850  224.7300 N   0  0  0  0  0  0  0  0  0  0  0  0
  137.9600   73.3740  222.8580 H   0  0  0  0  0  0  0  0  0  0  0  0
  139.7172   74.7019  220.7842 H   0  0  0  0  0  0  0  0  0  0  0  0
  137.8837   74.7043  220.8556 H   0  0  0  0  0  0  0  0  0  0  0  0
  138.0649   77.7944  220.2742 H   0  0  0  0  0  0  0  0  0  0  0  0
  139.0902   79.0792  221.0382 H   0  0  0  0  0  0  0  0  0  0  0  0
  139.7204   77.3058  218.6713 H   0  0  0  0  0  0  0  0  0  0  0  0
  139.6502   79.1181  218.7792 H   0  0  0  0  0  0  0  0  0  0  0  0
  141.9578   78.1491  218.6579 H   0  0  0  0  0  0  0  0  0  0  0  0
  141.6080   79.1985  220.0986 H   0  0  0  0  0  0  0  0  0  0  0  0
  141.6338   76.1682  220.0464 H   0  0  0  0  0  0  0  0  0  0  0  0
  142.8998   77.2338  220.7365 H   0  0  0  0  0  0  0  0  0  0  0  0
  141.2942   76.4332  222.5059 H   0  0  0  0  0  0  0  0  0  0  0  0
  139.9307   80.8197  224.4018 H   0  0  0  0  0  0  0  0  0  0  0  0
  142.1947   81.8201  224.3210 H   0  0  0  0  0  0  0  0  0  0  0  0
  143.9688   80.5726  222.9813 H   0  0  0  0  0  0  0  0  0  0  0  0
  138.8275   70.5786  222.1469 H   0  0  0  0  0  0  0  0  0  0  0  0
  138.6937   68.6428  223.7266 H   0  0  0  0  0  0  0  0  0  0  0  0
  139.2307   67.6612  225.9082 H   0  0  0  0  0  0  0  0  0  0  0  0
  140.3422   67.9770  228.1325 H   0  0  0  0  0  0  0  0  0  0  0  0
  141.4821   70.0731  228.7002 H   0  0  0  0  0  0  0  0  0  0  0  0
  141.5737   71.9607  227.0744 H   0  0  0  0  0  0  0  0  0  0  0  0
  1  2  2  0
  2  3  1  0
  3  4  1  0
  4  5  1  0
  5  6  2  0
  5  7  1  0
  7  8  1  0
  8  9  1  0
  9 10  1  0
 10 11  1  0
 11 12  1  0
 12 13  1  0
 13 14  2  0
 14 15  1  0
 15 16  2  0
 16 17  1  0
 17 18  2  0
  2 19  1  0
 19 20  2  0
 20 21  1  0
 21 22  2  0
 22 23  1  0
 23 24  2  0
 24 25  1  0
 25 26  2  0
 26 27  1  0
 27 28  2  0
 12  7  1  0
 18 13  1  0
 28 19  1  0
 27 22  1  0
  3 29  1  0
  4 30  1  0
  4 31  1  0
  8 32  1  0
  8 33  1  0
  9 34  1  0
  9 35  1  0
 10 36  1  0
 10 37  1  0
 11 38  1  0
 11 39  1  0
 12 40  1  1
 15 41  1  0
 16 42  1  0
 17 43  1  0
 20 44  1  0
 21 45  1  0
 23 46  1  0
 24 47  1  0
 25 48  1  0
 26 49  1  0
M  END
>  <smiles>  (30) 
O=C(NCC(=O)N1CCCC[C@H]1c1ncccn1)c1ccc2ccccc2n1

>  <score_type>  (30) 
oracle

>  <origin>  (30) 
autodockgpu

>  <m_score__min__energy>  (30) 
-8.6099999999999994

>  <m_primary>  (30) 
energy

>  <rmsd>  (30) 
2.292631256105466

>  <m_score__min__rmsd>  (30) 
2.292631256105466

>  <meeko>  (30) 
{"free_energy": -8.26, "intermolecular_energy": -9.75, "internal_energy": -1.49, "cluster_size": 28, "cluster_id": 1, "rank_in_cluster": 16}

>  <energy>  (30) 
-8.25

>  <cluster_rmsd>  (30) 
0.28

>  <cluster>  (30) 
2

$$$$

     RDKit          3D

 49 52  0  0  0  0  0  0  0  0999 V2000
  140.4270   71.5900  221.3570 O   0  0  0  0  0  0  0  0  0  0  0  0
  139.7220   71.9320  222.3490 C   0  0  0  0  0  0  0  0  0  0  0  0
  138.7890   73.0040  222.2240 N   0  0  0  0  0  0  0  0  0  0  0  0
  138.6200   73.7190  221.0010 C   0  0  0  0  0  0  0  0  0  0  0  0
  138.6940   75.1760  221.1310 C   0  0  0  0  0  0  0  0  0  0  0  0
  137.6660   75.9290  221.2360 O   0  0  0  0  0  0  0  0  0  0  0  0
  139.9820   75.7840  221.1430 N   0  0  0  0  0  0  0  0  0  0  0  0
  140.5090   76.4580  222.3250 C   0  0  0  0  0  0  0  0  0  0  0  0
  141.0140   77.8400  221.9980 C   0  0  0  0  0  0  0  0  0  0  0  0
  141.8460   77.8600  220.7390 C   0  0  0  0  0  0  0  0  0  0  0  0
  141.1530   77.1930  219.5950 C   0  0  0  0  0  0  0  0  0  0  0  0
  140.8370   75.7630  219.9770 C   0  0  1  0  0  0  0  0  0  0  0  0
  142.0980   75.0110  220.1870 C   0  0  0  0  0  0  0  0  0  0  0  0
  142.0460   73.7390  220.6730 N   0  0  0  0  0  0  0  0  0  0  0  0
  143.1950   73.0720  220.8580 C   0  0  0  0  0  0  0  0  0  0  0  0
  144.4400   73.5940  220.5860 C   0  0  0  0  0  0  0  0  0  0  0  0
  144.4620   74.9000  220.0910 C   0  0  0  0  0  0  0  0  0  0  0  0
  143.2950   75.5140  219.9270 N   0  0  0  0  0  0  0  0  0  0  0  0
  139.8450   71.2350  223.6480 C   0  0  0  0  0  0  0  0  0  0  0  0
  139.4420   69.9170  223.7170 C   0  0  0  0  0  0  0  0  0  0  0  0
  139.5460   69.2400  224.9260 C   0  0  0  0  0  0  0  0  0  0  0  0
  140.0530   69.9000  226.0360 C   0  0  0  0  0  0  0  0  0  0  0  0
  140.1650   69.2380  227.2510 C   0  0  0  0  0  0  0  0  0  0  0  0
  140.6830   69.9800  228.3090 C   0  0  0  0  0  0  0  0  0  0  0  0
  141.0650   71.2970  228.1610 C   0  0  0  0  0  0  0  0  0  0  0  0
  140.9480   71.9440  226.9450 C   0  0  0  0  0  0  0  0  0  0  0  0
  140.4310   71.2170  225.8770 C   0  0  0  0  0  0  0  0  0  0  0  0
  140.3280   71.8690  224.7040 N   0  0  0  0  0  0  0  0  0  0  0  0
  138.2260   73.2410  223.0960 H   0  0  0  0  0  0  0  0  0  0  0  0
  139.4070   73.3964  220.3035 H   0  0  0  0  0  0  0  0  0  0  0  0
  137.6055   73.4892  220.6433 H   0  0  0  0  0  0  0  0  0  0  0  0
  139.7093   76.5388  223.0759 H   0  0  0  0  0  0  0  0  0  0  0  0
  141.3524   75.8663  222.7106 H   0  0  0  0  0  0  0  0  0  0  0  0
  140.1517   78.5096  221.8634 H   0  0  0  0  0  0  0  0  0  0  0  0
  141.6526   78.1717  222.8300 H   0  0  0  0  0  0  0  0  0  0  0  0
  142.0526   78.9057  220.4672 H   0  0  0  0  0  0  0  0  0  0  0  0
  142.7760   77.3078  220.9394 H   0  0  0  0  0  0  0  0  0  0  0  0
  140.2198   77.7285  219.3661 H   0  0  0  0  0  0  0  0  0  0  0  0
  141.8032   77.2059  218.7078 H   0  0  0  0  0  0  0  0  0  0  0  0
  140.2968   75.2406  219.1737 H   0  0  0  0  0  0  0  0  0  0  0  0
  143.1394   72.0460  221.2507 H   0  0  0  0  0  0  0  0  0  0  0  0
  145.3622   73.0169  220.7488 H   0  0  0  0  0  0  0  0  0  0  0  0
  145.4099   75.4015  219.8461 H   0  0  0  0  0  0  0  0  0  0  0  0
  139.0436   69.4089  222.8264 H   0  0  0  0  0  0  0  0  0  0  0  0
  139.2290   68.1894  225.0023 H   0  0  0  0  0  0  0  0  0  0  0  0
  139.8618   68.1874  227.3710 H   0  0  0  0  0  0  0  0  0  0  0  0
  140.7910   69.5011  229.2934 H   0  0  0  0  0  0  0  0  0  0  0  0
  141.4701   71.8423  229.0262 H   0  0  0  0  0  0  0  0  0  0  0  0
  141.2522   72.9944  226.8261 H   0  0  0  0  0  0  0  0  0  0  0  0
  1  2  2  0
  2  3  1  0
  3  4  1  0
  4  5  1  0
  5  6  2  0
  5  7  1  0
  7  8  1  0
  8  9  1  0
  9 10  1  0
 10 11  1  0
 11 12  1  0
 12 13  1  0
 13 14  2  0
 14 15  1  0
 15 16  2  0
 16 17  1  0
 17 18  2  0
  2 19  1  0
 19 20  2  0
 20 21  1  0
 21 22  2  0
 22 23  1  0
 23 24  2  0
 24 25  1  0
 25 26  2  0
 26 27  1  0
 27 28  2  0
 12  7  1  0
 18 13  1  0
 28 19  1  0
 27 22  1  0
  3 29  1  0
  4 30  1  0
  4 31  1  0
  8 32  1  0
  8 33  1  0
  9 34  1  0
  9 35  1  0
 10 36  1  0
 10 37  1  0
 11 38  1  0
 11 39  1  0
 12 40  1  6
 15 41  1  0
 16 42  1  0
 17 43  1  0
 20 44  1  0
 21 45  1  0
 23 46  1  0
 24 47  1  0
 25 48  1  0
 26 49  1  0
M  END
>  <smiles>  (31) 
O=C(NCC(=O)N1CCCC[C@H]1c1ncccn1)c1ccc2ccccc2n1

>  <score_type>  (31) 
oracle

>  <origin>  (31) 
autodockgpu

>  <m_score__min__energy>  (31) 
-8.6099999999999994

>  <m_primary>  (31) 
energy

>  <rmsd>  (31) 
3.3832136656674234

>  <m_score__min__rmsd>  (31) 
3.3832136656674234

>  <meeko>  (31) 
{"free_energy": -7.77, "intermolecular_energy": -9.26, "internal_energy": -1.72, "cluster_size": 9, "cluster_id": 2, "rank_in_cluster": 8}

>  <energy>  (31) 
-8.19

>  <cluster_rmsd>  (31) 
0.36

>  <cluster>  (31) 
2

$$$$

     RDKit          3D

 49 52  0  0  0  0  0  0  0  0999 V2000
  140.5510   74.0150  220.2930 O   0  0  0  0  0  0  0  0  0  0  0  0
  140.2480   74.7690  221.2610 C   0  0  0  0  0  0  0  0  0  0  0  0
  139.4030   74.2850  222.3040 N   0  0  0  0  0  0  0  0  0  0  0  0
  138.8770   72.9590  222.2950 C   0  0  0  0  0  0  0  0  0  0  0  0
  139.8370   71.9210  222.6790 C   0  0  0  0  0  0  0  0  0  0  0  0
  141.1010   72.1080  222.7200 O   0  0  0  0  0  0  0  0  0  0  0  0
  139.3320   70.6350  223.0270 N   0  0  0  0  0  0  0  0  0  0  0  0
  139.4810   69.4810  222.1470 C   0  0  0  0  0  0  0  0  0  0  0  0
  138.1660   68.7790  221.9220 C   0  0  0  0  0  0  0  0  0  0  0  0
  137.3900   68.6000  223.2030 C   0  0  0  0  0  0  0  0  0  0  0  0
  137.2600   69.8770  223.9670 C   0  0  0  0  0  0  0  0  0  0  0  0
  138.6430   70.4080  224.2780 C   0  0  1  0  0  0  0  0  0  0  0  0
  139.3510   69.4640  225.1750 C   0  0  0  0  0  0  0  0  0  0  0  0
  140.6060   69.7660  225.6110 N   0  0  0  0  0  0  0  0  0  0  0  0
  141.2340   68.9020  226.4220 C   0  0  0  0  0  0  0  0  0  0  0  0
  140.6860   67.7130  226.8490 C   0  0  0  0  0  0  0  0  0  0  0  0
  139.4000   67.4290  226.3870 C   0  0  0  0  0  0  0  0  0  0  0  0
  138.8240   68.3190  225.5850 N   0  0  0  0  0  0  0  0  0  0  0  0
  140.7570   76.1560  221.3360 C   0  0  0  0  0  0  0  0  0  0  0  0
  141.2360   76.7340  220.1770 C   0  0  0  0  0  0  0  0  0  0  0  0
  141.7200   78.0350  220.2200 C   0  0  0  0  0  0  0  0  0  0  0  0
  141.7120   78.7260  221.4240 C   0  0  0  0  0  0  0  0  0  0  0  0
  142.1920   80.0280  221.4850 C   0  0  0  0  0  0  0  0  0  0  0  0
  142.1450   80.6420  222.7330 C   0  0  0  0  0  0  0  0  0  0  0  0
  141.6510   79.9960  223.8470 C   0  0  0  0  0  0  0  0  0  0  0  0
  141.1760   78.7010  223.7730 C   0  0  0  0  0  0  0  0  0  0  0  0
  141.2160   78.0720  222.5310 C   0  0  0  0  0  0  0  0  0  0  0  0
  140.7480   76.8110  222.4850 N   0  0  0  0  0  0  0  0  0  0  0  0
  139.1860   74.9700  223.0890 H   0  0  0  0  0  0  0  0  0  0  0  0
  138.0307   72.9205  222.9966 H   0  0  0  0  0  0  0  0  0  0  0  0
  138.5851   72.7457  221.2561 H   0  0  0  0  0  0  0  0  0  0  0  0
  139.8746   69.8203  221.1775 H   0  0  0  0  0  0  0  0  0  0  0  0
  140.1716   68.7711  222.6257 H   0  0  0  0  0  0  0  0  0  0  0  0
  137.5617   69.3744  221.2218 H   0  0  0  0  0  0  0  0  0  0  0  0
  138.3814   67.7801  221.5149 H   0  0  0  0  0  0  0  0  0  0  0  0
  136.3836   68.2293  222.9587 H   0  0  0  0  0  0  0  0  0  0  0  0
  137.9383   67.8840  223.8328 H   0  0  0  0  0  0  0  0  0  0  0  0
  136.7093   70.6135  223.3634 H   0  0  0  0  0  0  0  0  0  0  0  0
  136.7121   69.6958  224.9035 H   0  0  0  0  0  0  0  0  0  0  0  0
  138.5963   71.3668  224.8151 H   0  0  0  0  0  0  0  0  0  0  0  0
  142.2467   69.1583  226.7665 H   0  0  0  0  0  0  0  0  0  0  0  0
  141.2300   67.0272  227.5152 H   0  0  0  0  0  0  0  0  0  0  0  0
  138.8820   66.5026  226.6759 H   0  0  0  0  0  0  0  0  0  0  0  0
  141.2342   76.1712  219.2319 H   0  0  0  0  0  0  0  0  0  0  0  0
  142.1063   78.5137  219.3081 H   0  0  0  0  0  0  0  0  0  0  0  0
  142.5867   80.5443  220.5975 H   0  0  0  0  0  0  0  0  0  0  0  0
  142.5130   81.6737  222.8341 H   0  0  0  0  0  0  0  0  0  0  0  0
  141.6350   80.5221  224.8129 H   0  0  0  0  0  0  0  0  0  0  0  0
  140.7811   78.1861  224.6612 H   0  0  0  0  0  0  0  0  0  0  0  0
  1  2  2  0
  2  3  1  0
  3  4  1  0
  4  5  1  0
  5  6  2  0
  5  7  1  0
  7  8  1  0
  8  9  1  0
  9 10  1  0
 10 11  1  0
 11 12  1  0
 12 13  1  0
 13 14  2  0
 14 15  1  0
 15 16  2  0
 16 17  1  0
 17 18  2  0
  2 19  1  0
 19 20  2  0
 20 21  1  0
 21 22  2  0
 22 23  1  0
 23 24  2  0
 24 25  1  0
 25 26  2  0
 26 27  1  0
 27 28  2  0
 12  7  1  0
 18 13  1  0
 28 19  1  0
 27 22  1  0
  3 29  1  0
  4 30  1  0
  4 31  1  0
  8 32  1  0
  8 33  1  0
  9 34  1  0
  9 35  1  0
 10 36  1  0
 10 37  1  0
 11 38  1  0
 11 39  1  0
 12 40  1  1
 15 41  1  0
 16 42  1  0
 17 43  1  0
 20 44  1  0
 21 45  1  0
 23 46  1  0
 24 47  1  0
 25 48  1  0
 26 49  1  0
M  END
>  <smiles>  (32) 
O=C(NCC(=O)N1CCCC[C@H]1c1ncccn1)c1ccc2ccccc2n1

>  <score_type>  (32) 
oracle

>  <origin>  (32) 
autodockgpu

>  <m_score__min__energy>  (32) 
-8.6099999999999994

>  <m_primary>  (32) 
energy

>  <rmsd>  (32) 
9.046028991527509

>  <m_score__min__rmsd>  (32) 
9.046028991527509

>  <meeko>  (32) 
{"free_energy": -7.71, "intermolecular_energy": -9.2, "internal_energy": -1.53, "cluster_size": 1, "cluster_id": 3, "rank_in_cluster": 1}

>  <energy>  (32) 
-8.14

>  <cluster_rmsd>  (32) 
0.42

>  <cluster>  (32) 
2

$$$$

     RDKit          3D

 49 52  0  0  0  0  0  0  0  0999 V2000
  139.1860   71.0470  221.5420 O   0  0  0  0  0  0  0  0  0  0  0  0
  139.4910   71.5830  222.6460 C   0  0  0  0  0  0  0  0  0  0  0  0
  139.6760   72.9950  222.7240 N   0  0  0  0  0  0  0  0  0  0  0  0
  139.5280   73.8410  221.5840 C   0  0  0  0  0  0  0  0  0  0  0  0
  140.5630   74.8700  221.4510 C   0  0  0  0  0  0  0  0  0  0  0  0
  141.8080   74.6070  221.3270 O   0  0  0  0  0  0  0  0  0  0  0  0
  140.1570   76.2360  221.4590 N   0  0  0  0  0  0  0  0  0  0  0  0
  138.8780   76.6590  222.0180 C   0  0  0  0  0  0  0  0  0  0  0  0
  138.1100   77.5260  221.0530 C   0  0  0  0  0  0  0  0  0  0  0  0
  138.9830   78.5720  220.4060 C   0  0  0  0  0  0  0  0  0  0  0  0
  140.2250   77.9840  219.8190 C   0  0  0  0  0  0  0  0  0  0  0  0
  140.9990   77.2760  220.9100 C   0  0  1  0  0  0  0  0  0  0  0  0
  141.4500   78.2600  221.9230 C   0  0  0  0  0  0  0  0  0  0  0  0
  141.4170   77.9260  223.2430 N   0  0  0  0  0  0  0  0  0  0  0  0
  141.8290   78.8270  224.1480 C   0  0  0  0  0  0  0  0  0  0  0  0
  142.2890   80.0840  223.8260 C   0  0  0  0  0  0  0  0  0  0  0  0
  142.3110   80.3990  222.4650 C   0  0  0  0  0  0  0  0  0  0  0  0
  141.8920   79.4700  221.6130 N   0  0  0  0  0  0  0  0  0  0  0  0
  139.6600   70.7680  223.8690 C   0  0  0  0  0  0  0  0  0  0  0  0
  139.2400   69.4540  223.8350 C   0  0  0  0  0  0  0  0  0  0  0  0
  139.3880   68.6670  224.9700 C   0  0  0  0  0  0  0  0  0  0  0  0
  139.9540   69.2160  226.1120 C   0  0  0  0  0  0  0  0  0  0  0  0
  140.1100   68.4430  227.2550 C   0  0  0  0  0  0  0  0  0  0  0  0
  140.6860   69.0780  228.3520 C   0  0  0  0  0  0  0  0  0  0  0  0
  141.0820   70.3990  228.3070 C   0  0  0  0  0  0  0  0  0  0  0  0
  140.9210   71.1570  227.1630 C   0  0  0  0  0  0  0  0  0  0  0  0
  140.3460   70.5370  226.0570 C   0  0  0  0  0  0  0  0  0  0  0  0
  140.2000   71.2960  224.9550 N   0  0  0  0  0  0  0  0  0  0  0  0
  139.9320   73.3830  223.6820 H   0  0  0  0  0  0  0  0  0  0  0  0
  139.5529   73.2105  220.6830 H   0  0  0  0  0  0  0  0  0  0  0  0
  138.5735   74.3727  221.7114 H   0  0  0  0  0  0  0  0  0  0  0  0
  138.2781   75.7671  222.2517 H   0  0  0  0  0  0  0  0  0  0  0  0
  139.0771   77.2475  222.9257 H   0  0  0  0  0  0  0  0  0  0  0  0
  137.6814   76.8870  220.2669 H   0  0  0  0  0  0  0  0  0  0  0  0
  137.3238   78.0465  221.6196 H   0  0  0  0  0  0  0  0  0  0  0  0
  138.4117   79.0651  219.6057 H   0  0  0  0  0  0  0  0  0  0  0  0
  139.2832   79.2901  221.1833 H   0  0  0  0  0  0  0  0  0  0  0  0
  139.9558   77.2646  219.0316 H   0  0  0  0  0  0  0  0  0  0  0  0
  140.8436   78.7822  219.3829 H   0  0  0  0  0  0  0  0  0  0  0  0
  141.9091   76.8004  220.5157 H   0  0  0  0  0  0  0  0  0  0  0  0
  141.7973   78.5444  225.2106 H   0  0  0  0  0  0  0  0  0  0  0  0
  142.6196   80.7980  224.5947 H   0  0  0  0  0  0  0  0  0  0  0  0
  142.6623   81.3799  222.1121 H   0  0  0  0  0  0  0  0  0  0  0  0
  138.7938   69.0352  222.9210 H   0  0  0  0  0  0  0  0  0  0  0  0
  139.0593   67.6173  224.9637 H   0  0  0  0  0  0  0  0  0  0  0  0
  139.7964   67.3893  227.2916 H   0  0  0  0  0  0  0  0  0  0  0  0
  140.8297   68.5094  229.2826 H   0  0  0  0  0  0  0  0  0  0  0  0
  141.5344   70.8574  229.1988 H   0  0  0  0  0  0  0  0  0  0  0  0
  141.2353   72.2105  227.1275 H   0  0  0  0  0  0  0  0  0  0  0  0
  1  2  2  0
  2  3  1  0
  3  4  1  0
  4  5  1  0
  5  6  2  0
  5  7  1  0
  7  8  1  0
  8  9  1  0
  9 10  1  0
 10 11  1  0
 11 12  1  0
 12 13  1  0
 13 14  2  0
 14 15  1  0
 15 16  2  0
 16 17  1  0
 17 18  2  0
  2 19  1  0
 19 20  2  0
 20 21  1  0
 21 22  2  0
 22 23  1  0
 23 24  2  0
 24 25  1  0
 25 26  2  0
 26 27  1  0
 27 28  2  0
 12  7  1  0
 18 13  1  0
 28 19  1  0
 27 22  1  0
  3 29  1  0
  4 30  1  0
  4 31  1  0
  8 32  1  0
  8 33  1  0
  9 34  1  0
  9 35  1  0
 10 36  1  0
 10 37  1  0
 11 38  1  0
 11 39  1  0
 12 40  1  6
 15 41  1  0
 16 42  1  0
 17 43  1  0
 20 44  1  0
 21 45  1  0
 23 46  1  0
 24 47  1  0
 25 48  1  0
 26 49  1  0
M  END
>  <smiles>  (33) 
O=C(NCC(=O)N1CCCC[C@H]1c1ncccn1)c1ccc2ccccc2n1

>  <score_type>  (33) 
oracle

>  <origin>  (33) 
autodockgpu

>  <m_score__min__energy>  (33) 
-8.6099999999999994

>  <m_primary>  (33) 
energy

>  <rmsd>  (33) 
2.1428651541066013

>  <m_score__min__rmsd>  (33) 
2.1428651541066013

>  <meeko>  (33) 
{"free_energy": -8.06, "intermolecular_energy": -9.55, "internal_energy": -1.66, "cluster_size": 28, "cluster_id": 1, "rank_in_cluster": 24}

>  <energy>  (33) 
-8.13

>  <cluster_rmsd>  (33) 
0.19

>  <cluster>  (33) 
2

$$$$

     RDKit          3D

 49 52  0  0  0  0  0  0  0  0999 V2000
  139.2440   71.0350  221.5160 O   0  0  0  0  0  0  0  0  0  0  0  0
  139.5200   71.5660  222.6300 C   0  0  0  0  0  0  0  0  0  0  0  0
  139.6920   72.9790  222.7210 N   0  0  0  0  0  0  0  0  0  0  0  0
  139.5610   73.8310  221.5840 C   0  0  0  0  0  0  0  0  0  0  0  0
  140.5760   74.8840  221.4920 C   0  0  0  0  0  0  0  0  0  0  0  0
  141.8270   74.6480  221.3640 O   0  0  0  0  0  0  0  0  0  0  0  0
  140.1450   76.2400  221.5460 N   0  0  0  0  0  0  0  0  0  0  0  0
  138.8950   76.6290  222.1890 C   0  0  0  0  0  0  0  0  0  0  0  0
  138.0510   77.4940  221.2860 C   0  0  0  0  0  0  0  0  0  0  0  0
  138.8630   78.5660  220.6040 C   0  0  0  0  0  0  0  0  0  0  0  0
  140.0780   78.0130  219.9320 C   0  0  0  0  0  0  0  0  0  0  0  0
  140.9310   77.3050  220.9630 C   0  0  1  0  0  0  0  0  0  0  0  0
  141.4240   78.2840  221.9610 C   0  0  0  0  0  0  0  0  0  0  0  0
  141.9170   79.4820  221.5380 N   0  0  0  0  0  0  0  0  0  0  0  0
  142.3600   80.3570  222.4530 C   0  0  0  0  0  0  0  0  0  0  0  0
  142.3480   80.1220  223.8100 C   0  0  0  0  0  0  0  0  0  0  0  0
  141.8380   78.8870  224.2140 C   0  0  0  0  0  0  0  0  0  0  0  0
  141.4140   78.0570  223.2660 N   0  0  0  0  0  0  0  0  0  0  0  0
  139.6700   70.7440  223.8510 C   0  0  0  0  0  0  0  0  0  0  0  0
  139.2310   69.4360  223.8090 C   0  0  0  0  0  0  0  0  0  0  0  0
  139.3600   68.6430  224.9420 C   0  0  0  0  0  0  0  0  0  0  0  0
  139.9260   69.1800  226.0900 C   0  0  0  0  0  0  0  0  0  0  0  0
  140.0630   68.4020  227.2310 C   0  0  0  0  0  0  0  0  0  0  0  0
  140.6410   69.0240  228.3340 C   0  0  0  0  0  0  0  0  0  0  0  0
  141.0560   70.3390  228.2970 C   0  0  0  0  0  0  0  0  0  0  0  0
  140.9140   71.1030  227.1540 C   0  0  0  0  0  0  0  0  0  0  0  0
  140.3370   70.4960  226.0420 C   0  0  0  0  0  0  0  0  0  0  0  0
  140.2100   71.2600  224.9430 N   0  0  0  0  0  0  0  0  0  0  0  0
  139.9220   73.3630  223.6870 H   0  0  0  0  0  0  0  0  0  0  0  0
  139.6286   73.2090  220.6793 H   0  0  0  0  0  0  0  0  0  0  0  0
  138.5912   74.3401  221.6853 H   0  0  0  0  0  0  0  0  0  0  0  0
  138.3284   75.7218  222.4458 H   0  0  0  0  0  0  0  0  0  0  0  0
  139.1385   77.2090  223.0914 H   0  0  0  0  0  0  0  0  0  0  0  0
  137.5874   76.8578  220.5177 H   0  0  0  0  0  0  0  0  0  0  0  0
  137.2902   77.9897  221.9069 H   0  0  0  0  0  0  0  0  0  0  0  0
  138.2342   79.0597  219.8485 H   0  0  0  0  0  0  0  0  0  0  0  0
  139.1973   79.2771  221.3738 H   0  0  0  0  0  0  0  0  0  0  0  0
  139.7754   77.3000  219.1510 H   0  0  0  0  0  0  0  0  0  0  0  0
  140.6527   78.8300  219.4713 H   0  0  0  0  0  0  0  0  0  0  0  0
  141.8242   76.8531  220.5070 H   0  0  0  0  0  0  0  0  0  0  0  0
  142.7566   81.3198  222.0984 H   0  0  0  0  0  0  0  0  0  0  0  0
  142.7185   80.8638  224.5328 H   0  0  0  0  0  0  0  0  0  0  0  0
  141.7887   78.6107  225.2776 H   0  0  0  0  0  0  0  0  0  0  0  0
  138.7849   69.0271  222.8904 H   0  0  0  0  0  0  0  0  0  0  0  0
  139.0165   67.5981  224.9296 H   0  0  0  0  0  0  0  0  0  0  0  0
  139.7334   67.3530  227.2620 H   0  0  0  0  0  0  0  0  0  0  0  0
  140.7707   68.4496  229.2631 H   0  0  0  0  0  0  0  0  0  0  0  0
  141.5083   70.7878  229.1937 H   0  0  0  0  0  0  0  0  0  0  0  0
  141.2446   72.1517  227.1241 H   0  0  0  0  0  0  0  0  0  0  0  0
  1  2  2  0
  2  3  1  0
  3  4  1  0
  4  5  1  0
  5  6  2  0
  5  7  1  0
  7  8  1  0
  8  9  1  0
  9 10  1  0
 10 11  1  0
 11 12  1  0
 12 13  1  0
 13 14  2  0
 14 15  1  0
 15 16  2  0
 16 17  1  0
 17 18  2  0
  2 19  1  0
 19 20  2  0
 20 21  1  0
 21 22  2  0
 22 23  1  0
 23 24  2  0
 24 25  1  0
 25 26  2  0
 26 27  1  0
 27 28  2  0
 12  7  1  0
 18 13  1  0
 28 19  1  0
 27 22  1  0
  3 29  1  0
  4 30  1  0
  4 31  1  0
  8 32  1  0
  8 33  1  0
  9 34  1  0
  9 35  1  0
 10 36  1  0
 10 37  1  0
 11 38  1  0
 11 39  1  0
 12 40  1  6
 15 41  1  0
 16 42  1  0
 17 43  1  0
 20 44  1  0
 21 45  1  0
 23 46  1  0
 24 47  1  0
 25 48  1  0
 26 49  1  0
M  END
>  <smiles>  (34) 
O=C(NCC(=O)N1CCCC[C@H]1c1ncccn1)c1ccc2ccccc2n1

>  <score_type>  (34) 
oracle

>  <origin>  (34) 
autodockgpu

>  <m_score__min__energy>  (34) 
-8.6099999999999994

>  <m_primary>  (34) 
energy

>  <rmsd>  (34) 
2.4140042986187282

>  <m_score__min__rmsd>  (34) 
2.4140042986187282

>  <meeko>  (34) 
{"free_energy": -8.11, "intermolecular_energy": -9.6, "internal_energy": -1.65, "cluster_size": 28, "cluster_id": 1, "rank_in_cluster": 21}

>  <energy>  (34) 
-8.1

>  <cluster_rmsd>  (34) 
0.25

>  <cluster>  (34) 
2

$$$$

     RDKit          3D

 49 52  0  0  0  0  0  0  0  0999 V2000
  140.3300   71.3720  221.3120 O   0  0  0  0  0  0  0  0  0  0  0  0
  140.0660   71.9590  222.4010 C   0  0  0  0  0  0  0  0  0  0  0  0
  139.7690   73.3540  222.4040 N   0  0  0  0  0  0  0  0  0  0  0  0
  139.7580   74.1270  221.2040 C   0  0  0  0  0  0  0  0  0  0  0  0
  140.7580   75.1970  221.1600 C   0  0  0  0  0  0  0  0  0  0  0  0
  142.0070   74.9890  220.9890 O   0  0  0  0  0  0  0  0  0  0  0  0
  140.3100   76.5410  221.3160 N   0  0  0  0  0  0  0  0  0  0  0  0
  139.0530   76.8660  221.9800 C   0  0  0  0  0  0  0  0  0  0  0  0
  138.2040   77.7870  221.1420 C   0  0  0  0  0  0  0  0  0  0  0  0
  139.0060   78.9180  220.5480 C   0  0  0  0  0  0  0  0  0  0  0  0
  140.2300   78.4310  219.8430 C   0  0  0  0  0  0  0  0  0  0  0  0
  141.0870   77.6560  220.8210 C   0  0  1  0  0  0  0  0  0  0  0  0
  141.5640   78.5610  221.8940 C   0  0  0  0  0  0  0  0  0  0  0  0
  142.1620   79.7390  221.5610 N   0  0  0  0  0  0  0  0  0  0  0  0
  142.5880   80.5470  222.5430 C   0  0  0  0  0  0  0  0  0  0  0  0
  142.4600   80.2610  223.8840 C   0  0  0  0  0  0  0  0  0  0  0  0
  141.8450   79.0470  224.1950 C   0  0  0  0  0  0  0  0  0  0  0  0
  141.4420   78.2850  223.1840 N   0  0  0  0  0  0  0  0  0  0  0  0
  140.0580   71.2210  223.6830 C   0  0  0  0  0  0  0  0  0  0  0  0
  139.5720   69.9290  223.6840 C   0  0  0  0  0  0  0  0  0  0  0  0
  139.5540   69.2140  224.8750 C   0  0  0  0  0  0  0  0  0  0  0  0
  140.0230   69.8110  226.0360 C   0  0  0  0  0  0  0  0  0  0  0  0
  140.0120   69.1110  227.2350 C   0  0  0  0  0  0  0  0  0  0  0  0
  140.5020   69.7890  228.3470 C   0  0  0  0  0  0  0  0  0  0  0  0
  140.9710   71.0840  228.2660 C   0  0  0  0  0  0  0  0  0  0  0  0
  140.9770   71.7690  227.0660 C   0  0  0  0  0  0  0  0  0  0  0  0
  140.4900   71.1050  225.9430 C   0  0  0  0  0  0  0  0  0  0  0  0
  140.5060   71.7940  224.7880 N   0  0  0  0  0  0  0  0  0  0  0  0
  139.5540   73.7870  223.3520 H   0  0  0  0  0  0  0  0  0  0  0  0
  139.9427   73.4494  220.3574 H   0  0  0  0  0  0  0  0  0  0  0  0
  138.7742   74.6168  221.1570 H   0  0  0  0  0  0  0  0  0  0  0  0
  138.4956   75.9357  222.1639 H   0  0  0  0  0  0  0  0  0  0  0  0
  139.2859   77.3782  222.9252 H   0  0  0  0  0  0  0  0  0  0  0  0
  137.7516   77.2061  220.3247 H   0  0  0  0  0  0  0  0  0  0  0  0
  137.4349   78.2250  221.7952 H   0  0  0  0  0  0  0  0  0  0  0  0
  138.3749   79.4605  219.8287 H   0  0  0  0  0  0  0  0  0  0  0  0
  139.3278   79.5730  221.3710 H   0  0  0  0  0  0  0  0  0  0  0  0
  139.9389   77.7762  219.0085 H   0  0  0  0  0  0  0  0  0  0  0  0
  140.7974   79.2872  219.4493 H   0  0  0  0  0  0  0  0  0  0  0  0
  141.9879   77.2508  220.3370 H   0  0  0  0  0  0  0  0  0  0  0  0
  143.0686   81.4952  222.2603 H   0  0  0  0  0  0  0  0  0  0  0  0
  142.8208   80.9481  224.6635 H   0  0  0  0  0  0  0  0  0  0  0  0
  141.6994   78.7327  225.2391 H   0  0  0  0  0  0  0  0  0  0  0  0
  139.2038   69.4715  222.7539 H   0  0  0  0  0  0  0  0  0  0  0  0
  139.1710   68.1831  224.8972 H   0  0  0  0  0  0  0  0  0  0  0  0
  139.6372   68.0790  227.3021 H   0  0  0  0  0  0  0  0  0  0  0  0
  140.5159   69.2768  229.3204 H   0  0  0  0  0  0  0  0  0  0  0  0
  141.3469   71.5801  229.1730 H   0  0  0  0  0  0  0  0  0  0  0  0
  141.3526   72.8008  227.0002 H   0  0  0  0  0  0  0  0  0  0  0  0
  1  2  2  0
  2  3  1  0
  3  4  1  0
  4  5  1  0
  5  6  2  0
  5  7  1  0
  7  8  1  0
  8  9  1  0
  9 10  1  0
 10 11  1  0
 11 12  1  0
 12 13  1  0
 13 14  2  0
 14 15  1  0
 15 16  2  0
 16 17  1  0
 17 18  2  0
  2 19  1  0
 19 20  2  0
 20 21  1  0
 21 22  2  0
 22 23  1  0
 23 24  2  0
 24 25  1  0
 25 26  2  0
 26 27  1  0
 27 28  2  0
 12  7  1  0
 18 13  1  0
 28 19  1  0
 27 22  1  0
  3 29  1  0
  4 30  1  0
  4 31  1  0
  8 32  1  0
  8 33  1  0
  9 34  1  0
  9 35  1  0
 10 36  1  0
 10 37  1  0
 11 38  1  0
 11 39  1  0
 12 40  1  6
 15 41  1  0
 16 42  1  0
 17 43  1  0
 20 44  1  0
 21 45  1  0
 23 46  1  0
 24 47  1  0
 25 48  1  0
 26 49  1  0
M  END
>  <smiles>  (35) 
O=C(NCC(=O)N1CCCC[C@H]1c1ncccn1)c1ccc2ccccc2n1

>  <score_type>  (35) 
oracle

>  <origin>  (35) 
autodockgpu

>  <m_score__min__energy>  (35) 
-8.6099999999999994

>  <m_primary>  (35) 
energy

>  <rmsd>  (35) 
2.478131760312709

>  <m_score__min__rmsd>  (35) 
2.478131760312709

>  <meeko>  (35) 
{"free_energy": -8.38, "intermolecular_energy": -9.87, "internal_energy": -1.52, "cluster_size": 28, "cluster_id": 1, "rank_in_cluster": 11}

>  <energy>  (35) 
-8.02

>  <cluster_rmsd>  (35) 
0.46

>  <cluster>  (35) 
2

$$$$

     RDKit          3D

 49 52  0  0  0  0  0  0  0  0999 V2000
  141.3080   72.0560  221.6940 O   0  0  0  0  0  0  0  0  0  0  0  0
  140.4000   72.3030  222.5370 C   0  0  0  0  0  0  0  0  0  0  0  0
  139.5090   73.3970  222.3250 N   0  0  0  0  0  0  0  0  0  0  0  0
  139.6070   74.2380  221.1760 C   0  0  0  0  0  0  0  0  0  0  0  0
  140.6370   75.2770  221.2680 C   0  0  0  0  0  0  0  0  0  0  0  0
  141.8910   75.0330  221.2220 O   0  0  0  0  0  0  0  0  0  0  0  0
  140.2150   76.6300  221.4140 N   0  0  0  0  0  0  0  0  0  0  0  0
  138.9760   76.9850  222.0970 C   0  0  0  0  0  0  0  0  0  0  0  0
  138.1270   77.9100  221.2630 C   0  0  0  0  0  0  0  0  0  0  0  0
  138.9370   79.0190  220.6400 C   0  0  0  0  0  0  0  0  0  0  0  0
  140.1400   78.5020  219.9180 C   0  0  0  0  0  0  0  0  0  0  0  0
  141.0010   77.7250  220.8900 C   0  0  1  0  0  0  0  0  0  0  0  0
  141.5140   78.6350  221.9420 C   0  0  0  0  0  0  0  0  0  0  0  0
  142.1320   79.7950  221.5820 N   0  0  0  0  0  0  0  0  0  0  0  0
  142.5910   80.6080  222.5450 C   0  0  0  0  0  0  0  0  0  0  0  0
  142.4760   80.3440  223.8920 C   0  0  0  0  0  0  0  0  0  0  0  0
  141.8390   79.1490  224.2310 C   0  0  0  0  0  0  0  0  0  0  0  0
  141.4050   78.3810  223.2380 N   0  0  0  0  0  0  0  0  0  0  0  0
  140.2400   71.4720  223.7510 C   0  0  0  0  0  0  0  0  0  0  0  0
  139.6090   70.2520  223.6230 C   0  0  0  0  0  0  0  0  0  0  0  0
  139.4460   69.4530  224.7470 C   0  0  0  0  0  0  0  0  0  0  0  0
  139.9200   69.8970  225.9740 C   0  0  0  0  0  0  0  0  0  0  0  0
  139.7650   69.1100  227.1080 C   0  0  0  0  0  0  0  0  0  0  0  0
  140.2710   69.6360  228.2930 C   0  0  0  0  0  0  0  0  0  0  0  0
  140.8910   70.8680  228.3410 C   0  0  0  0  0  0  0  0  0  0  0  0
  141.0380   71.6400  227.2040 C   0  0  0  0  0  0  0  0  0  0  0  0
  140.5370   71.1290  226.0100 C   0  0  0  0  0  0  0  0  0  0  0  0
  140.6930   71.9000  224.9190 N   0  0  0  0  0  0  0  0  0  0  0  0
  138.7670   73.5510  223.0720 H   0  0  0  0  0  0  0  0  0  0  0  0
  139.8345   73.6051  220.3056 H   0  0  0  0  0  0  0  0  0  0  0  0
  138.6431   74.7606  221.0883 H   0  0  0  0  0  0  0  0  0  0  0  0
  138.4065   76.0668  222.3032 H   0  0  0  0  0  0  0  0  0  0  0  0
  139.2353   77.5051  223.0310 H   0  0  0  0  0  0  0  0  0  0  0  0
  137.6495   77.3268  220.4618 H   0  0  0  0  0  0  0  0  0  0  0  0
  137.3777   78.3693  221.9245 H   0  0  0  0  0  0  0  0  0  0  0  0
  138.3019   79.5635  219.9257 H   0  0  0  0  0  0  0  0  0  0  0  0
  139.2856   79.6782  221.4487 H   0  0  0  0  0  0  0  0  0  0  0  0
  139.8224   77.8419  219.0974 H   0  0  0  0  0  0  0  0  0  0  0  0
  140.7144   79.3431  219.5026 H   0  0  0  0  0  0  0  0  0  0  0  0
  141.8853   77.2980  220.3944 H   0  0  0  0  0  0  0  0  0  0  0  0
  143.0887   81.5407  222.2411 H   0  0  0  0  0  0  0  0  0  0  0  0
  142.8634   81.0343  224.6558 H   0  0  0  0  0  0  0  0  0  0  0  0
  141.7015   78.8542  225.2818 H   0  0  0  0  0  0  0  0  0  0  0  0
  139.2395   69.9163  222.6428 H   0  0  0  0  0  0  0  0  0  0  0  0
  138.9457   68.4767  224.6659 H   0  0  0  0  0  0  0  0  0  0  0  0
  139.2709   68.1279  227.0716 H   0  0  0  0  0  0  0  0  0  0  0  0
  140.1737   69.0517  229.2199 H   0  0  0  0  0  0  0  0  0  0  0  0
  141.2751   71.2423  229.3014 H   0  0  0  0  0  0  0  0  0  0  0  0
  141.5326   72.6218  227.2412 H   0  0  0  0  0  0  0  0  0  0  0  0
  1  2  2  0
  2  3  1  0
  3  4  1  0
  4  5  1  0
  5  6  2  0
  5  7  1  0
  7  8  1  0
  8  9  1  0
  9 10  1  0
 10 11  1  0
 11 12  1  0
 12 13  1  0
 13 14  2  0
 14 15  1  0
 15 16  2  0
 16 17  1  0
 17 18  2  0
  2 19  1  0
 19 20  2  0
 20 21  1  0
 21 22  2  0
 22 23  1  0
 23 24  2  0
 24 25  1  0
 25 26  2  0
 26 27  1  0
 27 28  2  0
 12  7  1  0
 18 13  1  0
 28 19  1  0
 27 22  1  0
  3 29  1  0
  4 30  1  0
  4 31  1  0
  8 32  1  0
  8 33  1  0
  9 34  1  0
  9 35  1  0
 10 36  1  0
 10 37  1  0
 11 38  1  0
 11 39  1  0
 12 40  1  6
 15 41  1  0
 16 42  1  0
 17 43  1  0
 20 44  1  0
 21 45  1  0
 23 46  1  0
 24 47  1  0
 25 48  1  0
 26 49  1  0
M  END
>  <smiles>  (36) 
O=C(NCC(=O)N1CCCC[C@H]1c1ncccn1)c1ccc2ccccc2n1

>  <score_type>  (36) 
oracle

>  <origin>  (36) 
autodockgpu

>  <m_score__min__energy>  (36) 
-8.6099999999999994

>  <m_primary>  (36) 
energy

>  <rmsd>  (36) 
2.5642349860758795

>  <m_score__min__rmsd>  (36) 
2.5642349860758795

>  <meeko>  (36) 
{"free_energy": -8.56, "intermolecular_energy": -10.05, "internal_energy": -1.37, "cluster_size": 28, "cluster_id": 1, "rank_in_cluster": 5}

>  <energy>  (36) 
-7.77

>  <cluster_rmsd>  (36) 
1.45

>  <cluster>  (36) 
2

$$$$

     RDKit          3D

 49 52  0  0  0  0  0  0  0  0999 V2000
  138.8580   71.1210  221.5090 O   0  0  0  0  0  0  0  0  0  0  0  0
  139.2590   71.7020  222.5580 C   0  0  0  0  0  0  0  0  0  0  0  0
  139.4450   73.1160  222.5620 N   0  0  0  0  0  0  0  0  0  0  0  0
  139.1910   73.9150  221.4070 C   0  0  0  0  0  0  0  0  0  0  0  0
  138.8050   75.2980  221.6960 C   0  0  0  0  0  0  0  0  0  0  0  0
  137.7900   75.6130  222.4060 O   0  0  0  0  0  0  0  0  0  0  0  0
  139.6050   76.3460  221.1560 N   0  0  0  0  0  0  0  0  0  0  0  0
  139.1240   77.2160  220.0900 C   0  0  0  0  0  0  0  0  0  0  0  0
  140.1090   77.2970  218.9510 C   0  0  0  0  0  0  0  0  0  0  0  0
  141.5250   77.4850  219.4360 C   0  0  0  0  0  0  0  0  0  0  0  0
  141.9010   76.4820  220.4780 C   0  0  0  0  0  0  0  0  0  0  0  0
  140.9430   76.6000  221.6440 C   0  0  1  0  0  0  0  0  0  0  0  0
  141.0920   77.9310  222.2810 C   0  0  0  0  0  0  0  0  0  0  0  0
  140.0750   78.4290  223.0380 N   0  0  0  0  0  0  0  0  0  0  0  0
  140.2240   79.6330  223.6090 C   0  0  0  0  0  0  0  0  0  0  0  0
  141.3530   80.4110  223.4780 C   0  0  0  0  0  0  0  0  0  0  0  0
  142.3790   79.8750  222.6960 C   0  0  0  0  0  0  0  0  0  0  0  0
  142.1780   78.6790  222.1540 N   0  0  0  0  0  0  0  0  0  0  0  0
  139.5420   70.9370  223.7930 C   0  0  0  0  0  0  0  0  0  0  0  0
  139.2980   69.5790  223.7840 C   0  0  0  0  0  0  0  0  0  0  0  0
  139.5540   68.8370  224.9300 C   0  0  0  0  0  0  0  0  0  0  0  0
  140.0500   69.4760  226.0580 C   0  0  0  0  0  0  0  0  0  0  0  0
  140.3120   68.7500  227.2130 C   0  0  0  0  0  0  0  0  0  0  0  0
  140.8070   69.4740  228.2940 C   0  0  0  0  0  0  0  0  0  0  0  0
  141.0250   70.8340  228.2250 C   0  0  0  0  0  0  0  0  0  0  0  0
  140.7590   71.5450  227.0700 C   0  0  0  0  0  0  0  0  0  0  0  0
  140.2640   70.8360  225.9790 C   0  0  0  0  0  0  0  0  0  0  0  0
  140.0140   71.5500  224.8660 N   0  0  0  0  0  0  0  0  0  0  0  0
  139.7840   73.5430  223.4770 H   0  0  0  0  0  0  0  0  0  0  0  0
  140.1050   73.9344  220.7953 H   0  0  0  0  0  0  0  0  0  0  0  0
  138.3363   73.4539  220.8904 H   0  0  0  0  0  0  0  0  0  0  0  0
  138.1706   76.8206  219.7097 H   0  0  0  0  0  0  0  0  0  0  0  0
  138.9936   78.2268  220.5040 H   0  0  0  0  0  0  0  0  0  0  0  0
  140.0546   76.3655  218.3684 H   0  0  0  0  0  0  0  0  0  0  0  0
  139.8436   78.1694  218.3358 H   0  0  0  0  0  0  0  0  0  0  0  0
  142.2093   77.3815  218.5810 H   0  0  0  0  0  0  0  0  0  0  0  0
  141.5980   78.4855  219.8874 H   0  0  0  0  0  0  0  0  0  0  0  0
  141.8419   75.4691  220.0532 H   0  0  0  0  0  0  0  0  0  0  0  0
  142.9290   76.6702  220.8211 H   0  0  0  0  0  0  0  0  0  0  0  0
  141.1637   75.8579  222.4254 H   0  0  0  0  0  0  0  0  0  0  0  0
  139.3952   80.0226  224.2183 H   0  0  0  0  0  0  0  0  0  0  0  0
  141.4415   81.3956  223.9604 H   0  0  0  0  0  0  0  0  0  0  0  0
  143.3189   80.4233  222.5349 H   0  0  0  0  0  0  0  0  0  0  0  0
  138.9055   69.0899  222.8803 H   0  0  0  0  0  0  0  0  0  0  0  0
  139.3655   67.7534  224.9435 H   0  0  0  0  0  0  0  0  0  0  0  0
  140.1383   67.6653  227.2701 H   0  0  0  0  0  0  0  0  0  0  0  0
  141.0312   68.9451  229.2321 H   0  0  0  0  0  0  0  0  0  0  0  0
  141.4180   71.3629  229.1058 H   0  0  0  0  0  0  0  0  0  0  0  0
  140.9319   72.6299  227.0149 H   0  0  0  0  0  0  0  0  0  0  0  0
  1  2  2  0
  2  3  1  0
  3  4  1  0
  4  5  1  0
  5  6  2  0
  5  7  1  0
  7  8  1  0
  8  9  1  0
  9 10  1  0
 10 11  1  0
 11 12  1  0
 12 13  1  0
 13 14  2  0
 14 15  1  0
 15 16  2  0
 16 17  1  0
 17 18  2  0
  2 19  1  0
 19 20  2  0
 20 21  1  0
 21 22  2  0
 22 23  1  0
 23 24  2  0
 24 25  1  0
 25 26  2  0
 26 27  1  0
 27 28  2  0
 12  7  1  0
 18 13  1  0
 28 19  1  0
 27 22  1  0
  3 29  1  0
  4 30  1  0
  4 31  1  0
  8 32  1  0
  8 33  1  0
  9 34  1  0
  9 35  1  0
 10 36  1  0
 10 37  1  0
 11 38  1  0
 11 39  1  0
 12 40  1  1
 15 41  1  0
 16 42  1  0
 17 43  1  0
 20 44  1  0
 21 45  1  0
 23 46  1  0
 24 47  1  0
 25 48  1  0
 26 49  1  0
M  END
>  <smiles>  (37) 
O=C(NCC(=O)N1CCCC[C@H]1c1ncccn1)c1ccc2ccccc2n1

>  <score_type>  (37) 
oracle

>  <origin>  (37) 
autodockgpu

>  <m_score__min__energy>  (37) 
-8.6099999999999994

>  <m_primary>  (37) 
energy

>  <rmsd>  (37) 
1.8747919696105428

>  <m_score__min__rmsd>  (37) 
1.8747919696105428

>  <meeko>  (37) 
{"free_energy": -7.72, "intermolecular_energy": -9.21, "internal_energy": -1.69, "cluster_size": 28, "cluster_id": 1, "rank_in_cluster": 28}

>  <energy>  (37) 
-7.7

>  <cluster_rmsd>  (37) 
1.45

>  <cluster>  (37) 
2

$$$$

     RDKit          3D

 49 52  0  0  0  0  0  0  0  0999 V2000
  141.0140   71.7780  221.4060 O   0  0  0  0  0  0  0  0  0  0  0  0
  140.3740   72.2260  222.4000 C   0  0  0  0  0  0  0  0  0  0  0  0
  139.7790   73.5210  222.3380 N   0  0  0  0  0  0  0  0  0  0  0  0
  139.8800   74.3440  221.1770 C   0  0  0  0  0  0  0  0  0  0  0  0
  140.9610   75.3320  221.2230 C   0  0  0  0  0  0  0  0  0  0  0  0
  141.0180   76.2770  222.0820 O   0  0  0  0  0  0  0  0  0  0  0  0
  142.0050   75.2310  220.2580 N   0  0  0  0  0  0  0  0  0  0  0  0
  142.7670   76.3940  219.8180 C   0  0  0  0  0  0  0  0  0  0  0  0
  142.8120   76.4920  218.3140 C   0  0  0  0  0  0  0  0  0  0  0  0
  143.1070   75.1630  217.6650 C   0  0  0  0  0  0  0  0  0  0  0  0
  142.2060   74.0800  218.1640 C   0  0  0  0  0  0  0  0  0  0  0  0
  142.3630   73.9610  219.6650 C   0  0  1  0  0  0  0  0  0  0  0  0
  143.7430   73.5300  219.9910 C   0  0  0  0  0  0  0  0  0  0  0  0
  144.4790   74.2540  220.8800 N   0  0  0  0  0  0  0  0  0  0  0  0
  145.7260   73.8510  221.1660 C   0  0  0  0  0  0  0  0  0  0  0  0
  146.3200   72.7390  220.6120 C   0  0  0  0  0  0  0  0  0  0  0  0
  145.5430   72.0170  219.7040 C   0  0  0  0  0  0  0  0  0  0  0  0
  144.3150   72.4600  219.4580 N   0  0  0  0  0  0  0  0  0  0  0  0
  140.2290   71.4270  223.6370 C   0  0  0  0  0  0  0  0  0  0  0  0
  139.6340   70.1860  223.5400 C   0  0  0  0  0  0  0  0  0  0  0  0
  139.4850   69.4160  224.6860 C   0  0  0  0  0  0  0  0  0  0  0  0
  139.9370   69.9090  225.9020 C   0  0  0  0  0  0  0  0  0  0  0  0
  139.7960   69.1520  227.0580 C   0  0  0  0  0  0  0  0  0  0  0  0
  140.2770   69.7270  228.2310 C   0  0  0  0  0  0  0  0  0  0  0  0
  140.8610   70.9770  228.2470 C   0  0  0  0  0  0  0  0  0  0  0  0
  140.9940   71.7200  227.0890 C   0  0  0  0  0  0  0  0  0  0  0  0
  140.5180   71.1590  225.9070 C   0  0  0  0  0  0  0  0  0  0  0  0
  140.6600   71.9020  224.7940 N   0  0  0  0  0  0  0  0  0  0  0  0
  139.2540   73.8390  223.2080 H   0  0  0  0  0  0  0  0  0  0  0  0
  140.0479   73.6917  220.3074 H   0  0  0  0  0  0  0  0  0  0  0  0
  138.9402   74.9122  221.1144 H   0  0  0  0  0  0  0  0  0  0  0  0
  142.2959   77.3027  220.2209 H   0  0  0  0  0  0  0  0  0  0  0  0
  143.7980   76.2892  220.1868 H   0  0  0  0  0  0  0  0  0  0  0  0
  141.8379   76.8539  217.9533 H   0  0  0  0  0  0  0  0  0  0  0  0
  143.6217   77.1863  218.0449 H   0  0  0  0  0  0  0  0  0  0  0  0
  142.9736   75.2621  216.5776 H   0  0  0  0  0  0  0  0  0  0  0  0
  144.1411   74.8856  217.9172 H   0  0  0  0  0  0  0  0  0  0  0  0
  141.1621   74.3274  217.9208 H   0  0  0  0  0  0  0  0  0  0  0  0
  142.4716   73.1257  217.6857 H   0  0  0  0  0  0  0  0  0  0  0  0
  141.6943   73.1935  220.0819 H   0  0  0  0  0  0  0  0  0  0  0  0
  146.3089   74.4441  221.8860 H   0  0  0  0  0  0  0  0  0  0  0  0
  147.3460   72.4374  220.8696 H   0  0  0  0  0  0  0  0  0  0  0  0
  145.9333   71.1147  219.2106 H   0  0  0  0  0  0  0  0  0  0  0  0
  139.2822   69.8113  222.5674 H   0  0  0  0  0  0  0  0  0  0  0  0
  139.0129   68.4240  224.6304 H   0  0  0  0  0  0  0  0  0  0  0  0
  139.3309   68.1552  227.0472 H   0  0  0  0  0  0  0  0  0  0  0  0
  140.1888   69.1677  229.1741 H   0  0  0  0  0  0  0  0  0  0  0  0
  141.2274   71.3897  229.1985 H   0  0  0  0  0  0  0  0  0  0  0  0
  141.4585   72.7171  227.1009 H   0  0  0  0  0  0  0  0  0  0  0  0
  1  2  2  0
  2  3  1  0
  3  4  1  0
  4  5  1  0
  5  6  2  0
  5  7  1  0
  7  8  1  0
  8  9  1  0
  9 10  1  0
 10 11  1  0
 11 12  1  0
 12 13  1  0
 13 14  2  0
 14 15  1  0
 15 16  2  0
 16 17  1  0
 17 18  2  0
  2 19  1  0
 19 20  2  0
 20 21  1  0
 21 22  2  0
 22 23  1  0
 23 24  2  0
 24 25  1  0
 25 26  2  0
 26 27  1  0
 27 28  2  0
 12  7  1  0
 18 13  1  0
 28 19  1  0
 27 22  1  0
  3 29  1  0
  4 30  1  0
  4 31  1  0
  8 32  1  0
  8 33  1  0
  9 34  1  0
  9 35  1  0
 10 36  1  0
 10 37  1  0
 11 38  1  0
 11 39  1  0
 12 40  1  1
 15 41  1  0
 16 42  1  0
 17 43  1  0
 20 44  1  0
 21 45  1  0
 23 46  1  0
 24 47  1  0
 25 48  1  0
 26 49  1  0
M  END
>  <smiles>  (38) 
O=C(NCC(=O)N1CCCC[C@H]1c1ncccn1)c1ccc2ccccc2n1

>  <score_type>  (38) 
oracle

>  <origin>  (38) 
autodockgpu

>  <m_score__min__energy>  (38) 
-8.6099999999999994

>  <m_primary>  (38) 
energy

>  <rmsd>  (38) 
3.9655938404999644

>  <m_score__min__rmsd>  (38) 
3.9655938404999644

>  <meeko>  (38) 
{"free_energy": -8.1, "intermolecular_energy": -9.59, "internal_energy": -1.71, "cluster_size": 9, "cluster_id": 2, "rank_in_cluster": 6}

>  <energy>  (38) 
-7.71

>  <cluster_rmsd>  (38) 
0.0

>  <cluster>  (38) 
3

$$$$

     RDKit          3D

 49 52  0  0  0  0  0  0  0  0999 V2000
  138.6310   74.4100  222.3370 O   0  0  0  0  0  0  0  0  0  0  0  0
  139.7090   74.9640  221.9790 C   0  0  0  0  0  0  0  0  0  0  0  0
  139.8130   76.3870  221.9770 N   0  0  0  0  0  0  0  0  0  0  0  0
  138.7260   77.2230  222.3710 C   0  0  0  0  0  0  0  0  0  0  0  0
  139.1180   78.5690  222.7970 C   0  0  0  0  0  0  0  0  0  0  0  0
  138.3600   79.3430  223.4780 O   0  0  0  0  0  0  0  0  0  0  0  0
  140.4130   79.0390  222.4340 N   0  0  0  0  0  0  0  0  0  0  0  0
  141.6110   78.6550  223.1720 C   0  0  0  0  0  0  0  0  0  0  0  0
  142.4330   79.8570  223.5610 C   0  0  0  0  0  0  0  0  0  0  0  0
  142.5830   80.8370  222.4240 C   0  0  0  0  0  0  0  0  0  0  0  0
  141.2690   81.1890  221.8060 C   0  0  0  0  0  0  0  0  0  0  0  0
  140.6050   79.9250  221.3060 C   0  0  1  0  0  0  0  0  0  0  0  0
  141.4200   79.3260  220.2220 C   0  0  0  0  0  0  0  0  0  0  0  0
  141.6940   77.9920  220.2490 N   0  0  0  0  0  0  0  0  0  0  0  0
  142.4330   77.4650  219.2610 C   0  0  0  0  0  0  0  0  0  0  0  0
  142.9400   78.1940  218.2080 C   0  0  0  0  0  0  0  0  0  0  0  0
  142.6430   79.5580  218.2070 C   0  0  0  0  0  0  0  0  0  0  0  0
  141.9080   80.0280  219.2100 N   0  0  0  0  0  0  0  0  0  0  0  0
  140.8770   74.1580  221.5580 C   0  0  0  0  0  0  0  0  0  0  0  0
  140.7460   72.7840  221.5480 C   0  0  0  0  0  0  0  0  0  0  0  0
  141.8280   72.0050  221.1570 C   0  0  0  0  0  0  0  0  0  0  0  0
  143.0140   72.6220  220.7850 C   0  0  0  0  0  0  0  0  0  0  0  0
  144.1050   71.8580  220.3910 C   0  0  0  0  0  0  0  0  0  0  0  0
  145.2510   72.5620  220.0360 C   0  0  0  0  0  0  0  0  0  0  0  0
  145.3040   73.9410  220.0720 C   0  0  0  0  0  0  0  0  0  0  0  0
  144.2110   74.6890  220.4650 C   0  0  0  0  0  0  0  0  0  0  0  0
  143.0550   74.0000  220.8250 C   0  0  0  0  0  0  0  0  0  0  0  0
  142.0060   74.7510  221.2040 N   0  0  0  0  0  0  0  0  0  0  0  0
  140.7480   76.7890  221.6650 H   0  0  0  0  0  0  0  0  0  0  0  0
  138.0395   77.3193  221.5169 H   0  0  0  0  0  0  0  0  0  0  0  0
  138.2615   76.7414  223.2441 H   0  0  0  0  0  0  0  0  0  0  0  0
  141.3115   78.1173  224.0837 H   0  0  0  0  0  0  0  0  0  0  0  0
  142.2249   78.0146  222.5216 H   0  0  0  0  0  0  0  0  0  0  0  0
  141.9412   80.3648  224.4038 H   0  0  0  0  0  0  0  0  0  0  0  0
  143.4375   79.5040  223.8373 H   0  0  0  0  0  0  0  0  0  0  0  0
  143.0517   81.7554  222.8072 H   0  0  0  0  0  0  0  0  0  0  0  0
  143.2046   80.3637  221.6497 H   0  0  0  0  0  0  0  0  0  0  0  0
  140.6258   81.6712  222.5568 H   0  0  0  0  0  0  0  0  0  0  0  0
  141.4271   81.8825  220.9669 H   0  0  0  0  0  0  0  0  0  0  0  0
  139.6173   80.1335  220.8689 H   0  0  0  0  0  0  0  0  0  0  0  0
  142.6468   76.3865  219.2938 H   0  0  0  0  0  0  0  0  0  0  0  0
  143.5434   77.7288  217.4146 H   0  0  0  0  0  0  0  0  0  0  0  0
  143.0039   80.2196  217.4057 H   0  0  0  0  0  0  0  0  0  0  0  0
  139.7979   72.3122  221.8455 H   0  0  0  0  0  0  0  0  0  0  0  0
  141.7452   70.9082  221.1424 H   0  0  0  0  0  0  0  0  0  0  0  0
  144.0651   70.7591  220.3614 H   0  0  0  0  0  0  0  0  0  0  0  0
  146.1427   72.0025  219.7167 H   0  0  0  0  0  0  0  0  0  0  0  0
  146.2333   74.4535  219.7826 H   0  0  0  0  0  0  0  0  0  0  0  0
  144.2520   75.7879  220.4926 H   0  0  0  0  0  0  0  0  0  0  0  0
  1  2  2  0
  2  3  1  0
  3  4  1  0
  4  5  1  0
  5  6  2  0
  5  7  1  0
  7  8  1  0
  8  9  1  0
  9 10  1  0
 10 11  1  0
 11 12  1  0
 12 13  1  0
 13 14  2  0
 14 15  1  0
 15 16  2  0
 16 17  1  0
 17 18  2  0
  2 19  1  0
 19 20  2  0
 20 21  1  0
 21 22  2  0
 22 23  1  0
 23 24  2  0
 24 25  1  0
 25 26  2  0
 26 27  1  0
 27 28  2  0
 12  7  1  0
 18 13  1  0
 28 19  1  0
 27 22  1  0
  3 29  1  0
  4 30  1  0
  4 31  1  0
  8 32  1  0
  8 33  1  0
  9 34  1  0
  9 35  1  0
 10 36  1  0
 10 37  1  0
 11 38  1  0
 11 39  1  0
 12 40  1  6
 15 41  1  0
 16 42  1  0
 17 43  1  0
 20 44  1  0
 21 45  1  0
 23 46  1  0
 24 47  1  0
 25 48  1  0
 26 49  1  0
M  END
>  <smiles>  (39) 
O=C(NCC(=O)N1CCCC[C@H]1c1ncccn1)c1ccc2ccccc2n1

>  <score_type>  (39) 
oracle

>  <origin>  (39) 
autodockgpu

>  <m_score__min__energy>  (39) 
-8.6099999999999994

>  <m_primary>  (39) 
energy

>  <rmsd>  (39) 
5.919405644573628

>  <m_score__min__rmsd>  (39) 
5.919405644573628

>  <meeko>  (39) 
{"free_energy": -6.57, "intermolecular_energy": -8.06, "internal_energy": -3.03, "cluster_size": 10, "cluster_id": 5, "rank_in_cluster": 6}

>  <energy>  (39) 
-7.05

>  <cluster_rmsd>  (39) 
0.0

>  <cluster>  (39) 
4

$$$$

     RDKit          3D

 49 52  0  0  0  0  0  0  0  0999 V2000
  141.0800   71.6580  221.4550 O   0  0  0  0  0  0  0  0  0  0  0  0
  140.3870   72.1260  222.4030 C   0  0  0  0  0  0  0  0  0  0  0  0
  139.7400   73.3880  222.2560 N   0  0  0  0  0  0  0  0  0  0  0  0
  139.8460   74.1570  221.0580 C   0  0  0  0  0  0  0  0  0  0  0  0
  140.7790   75.2840  221.1380 C   0  0  0  0  0  0  0  0  0  0  0  0
  142.0360   75.1750  220.9350 O   0  0  0  0  0  0  0  0  0  0  0  0
  140.2540   76.5680  221.4600 N   0  0  0  0  0  0  0  0  0  0  0  0
  139.1140   76.7370  222.3540 C   0  0  0  0  0  0  0  0  0  0  0  0
  138.0520   77.6150  221.7420 C   0  0  0  0  0  0  0  0  0  0  0  0
  138.6350   78.8460  221.0930 C   0  0  0  0  0  0  0  0  0  0  0  0
  139.7480   78.5150  220.1530 C   0  0  0  0  0  0  0  0  0  0  0  0
  140.8300   77.7770  220.9110 C   0  0  1  0  0  0  0  0  0  0  0  0
  141.4150   78.6680  221.9420 C   0  0  0  0  0  0  0  0  0  0  0  0
  142.0400   79.8160  221.5590 N   0  0  0  0  0  0  0  0  0  0  0  0
  142.5640   80.6120  222.5030 C   0  0  0  0  0  0  0  0  0  0  0  0
  142.5110   80.3410  223.8530 C   0  0  0  0  0  0  0  0  0  0  0  0
  141.8640   79.1580  224.2160 C   0  0  0  0  0  0  0  0  0  0  0  0
  141.3640   78.4070  223.2400 N   0  0  0  0  0  0  0  0  0  0  0  0
  140.2330   71.3830  223.6730 C   0  0  0  0  0  0  0  0  0  0  0  0
  139.6020   70.1570  223.6350 C   0  0  0  0  0  0  0  0  0  0  0  0
  139.4440   69.4390  224.8140 C   0  0  0  0  0  0  0  0  0  0  0  0
  139.9230   69.9700  226.0040 C   0  0  0  0  0  0  0  0  0  0  0  0
  139.7740   69.2660  227.1910 C   0  0  0  0  0  0  0  0  0  0  0  0
  140.2850   69.8750  228.3340 C   0  0  0  0  0  0  0  0  0  0  0  0
  140.9040   71.1070  228.2920 C   0  0  0  0  0  0  0  0  0  0  0  0
  141.0460   71.7960  227.1030 C   0  0  0  0  0  0  0  0  0  0  0  0
  140.5400   71.2010  225.9500 C   0  0  0  0  0  0  0  0  0  0  0  0
  140.6910   71.8930  224.8060 N   0  0  0  0  0  0  0  0  0  0  0  0
  139.1720   73.7250  223.0910 H   0  0  0  0  0  0  0  0  0  0  0  0
  140.1820   73.4899  220.2505 H   0  0  0  0  0  0  0  0  0  0  0  0
  138.8507   74.5882  220.8748 H   0  0  0  0  0  0  0  0  0  0  0  0
  138.6799   75.7494  222.5691 H   0  0  0  0  0  0  0  0  0  0  0  0
  139.4695   77.2201  223.2761 H   0  0  0  0  0  0  0  0  0  0  0  0
  137.5094   77.0361  220.9802 H   0  0  0  0  0  0  0  0  0  0  0  0
  137.3800   77.9443  222.5482 H   0  0  0  0  0  0  0  0  0  0  0  0
  137.8404   79.3616  220.5337 H   0  0  0  0  0  0  0  0  0  0  0  0
  139.0441   79.4857  221.8889 H   0  0  0  0  0  0  0  0  0  0  0  0
  139.3675   77.8787  219.3404 H   0  0  0  0  0  0  0  0  0  0  0  0
  140.1599   79.4404  219.7242 H   0  0  0  0  0  0  0  0  0  0  0  0
  141.6588   77.4849  220.2493 H   0  0  0  0  0  0  0  0  0  0  0  0
  143.0659   81.5361  222.1802 H   0  0  0  0  0  0  0  0  0  0  0  0
  142.9523   81.0166  224.6005 H   0  0  0  0  0  0  0  0  0  0  0  0
  141.7716   78.8588  225.2705 H   0  0  0  0  0  0  0  0  0  0  0  0
  139.2284   69.7526  222.6827 H   0  0  0  0  0  0  0  0  0  0  0  0
  138.9441   68.4592  224.8046 H   0  0  0  0  0  0  0  0  0  0  0  0
  139.2806   68.2835  227.2265 H   0  0  0  0  0  0  0  0  0  0  0  0
  140.1922   69.3577  229.3004 H   0  0  0  0  0  0  0  0  0  0  0  0
  141.2915   71.5488  229.2219 H   0  0  0  0  0  0  0  0  0  0  0  0
  141.5404   72.7780  227.0683 H   0  0  0  0  0  0  0  0  0  0  0  0
  1  2  2  0
  2  3  1  0
  3  4  1  0
  4  5  1  0
  5  6  2  0
  5  7  1  0
  7  8  1  0
  8  9  1  0
  9 10  1  0
 10 11  1  0
 11 12  1  0
 12 13  1  0
 13 14  2  0
 14 15  1  0
 15 16  2  0
 16 17  1  0
 17 18  2  0
  2 19  1  0
 19 20  2  0
 20 21  1  0
 21 22  2  0
 22 23  1  0
 23 24  2  0
 24 25  1  0
 25 26  2  0
 26 27  1  0
 27 28  2  0
 12  7  1  0
 18 13  1  0
 28 19  1  0
 27 22  1  0
  3 29  1  0
  4 30  1  0
  4 31  1  0
  8 32  1  0
  8 33  1  0
  9 34  1  0
  9 35  1  0
 10 36  1  0
 10 37  1  0
 11 38  1  0
 11 39  1  0
 12 40  1  6
 15 41  1  0
 16 42  1  0
 17 43  1  0
 20 44  1  0
 21 45  1  0
 23 46  1  0
 24 47  1  0
 25 48  1  0
 26 49  1  0
M  END
>  <smiles>  (40) 
O=C(NCC(=O)N1CCCC[C@H]1c1ncccn1)c1ccc2ccccc2n1

>  <score_type>  (40) 
oracle

>  <origin>  (40) 
autodockgpu

>  <m_score__min__energy>  (40) 
-8.6099999999999994

>  <m_primary>  (40) 
energy

>  <rmsd>  (40) 
2.6561658011007325

>  <m_score__min__rmsd>  (40) 
2.6561658011007325

>  <meeko>  (40) 
{"free_energy": -8.59, "intermolecular_energy": -10.08, "internal_energy": -1.39, "cluster_size": 28, "cluster_id": 1, "rank_in_cluster": 2}

>  <energy>  (40) 
-7.0

>  <cluster_rmsd>  (40) 
0.24

>  <cluster>  (40) 
4

$$$$

     RDKit          3D

 49 52  0  0  0  0  0  0  0  0999 V2000
  141.2790   72.4680  221.5140 O   0  0  0  0  0  0  0  0  0  0  0  0
  140.3890   72.6610  222.3910 C   0  0  0  0  0  0  0  0  0  0  0  0
  139.5510   73.8130  222.3140 N   0  0  0  0  0  0  0  0  0  0  0  0
  139.6820   74.7730  221.2660 C   0  0  0  0  0  0  0  0  0  0  0  0
  140.9130   75.5670  221.3180 C   0  0  0  0  0  0  0  0  0  0  0  0
  142.0840   75.0570  221.2700 O   0  0  0  0  0  0  0  0  0  0  0  0
  140.7950   76.9820  221.4270 N   0  0  0  0  0  0  0  0  0  0  0  0
  140.7330   77.8470  220.2540 C   0  0  0  0  0  0  0  0  0  0  0  0
  141.7300   78.9740  220.3400 C   0  0  0  0  0  0  0  0  0  0  0  0
  141.7380   79.6240  221.7010 C   0  0  0  0  0  0  0  0  0  0  0  0
  141.8740   78.6240  222.8030 C   0  0  0  0  0  0  0  0  0  0  0  0
  140.7300   77.6360  222.7160 C   0  0  1  0  0  0  0  0  0  0  0  0
  139.4450   78.3370  222.9540 C   0  0  0  0  0  0  0  0  0  0  0  0
  138.2910   77.8050  222.4640 N   0  0  0  0  0  0  0  0  0  0  0  0
  137.1360   78.4500  222.6870 C   0  0  0  0  0  0  0  0  0  0  0  0
  137.0400   79.6310  223.3890 C   0  0  0  0  0  0  0  0  0  0  0  0
  138.2380   80.1530  223.8790 C   0  0  0  0  0  0  0  0  0  0  0  0
  139.3520   79.4740  223.6280 N   0  0  0  0  0  0  0  0  0  0  0  0
  140.1960   71.7060  223.5050 C   0  0  0  0  0  0  0  0  0  0  0  0
  139.4830   70.5520  223.2530 C   0  0  0  0  0  0  0  0  0  0  0  0
  139.2880   69.6390  224.2830 C   0  0  0  0  0  0  0  0  0  0  0  0
  139.8130   69.9070  225.5390 C   0  0  0  0  0  0  0  0  0  0  0  0
  139.6270   69.0050  226.5790 C   0  0  0  0  0  0  0  0  0  0  0  0
  140.1890   69.3560  227.8040 C   0  0  0  0  0  0  0  0  0  0  0  0
  140.8890   70.5320  227.9770 C   0  0  0  0  0  0  0  0  0  0  0  0
  141.0660   71.4200  226.9330 C   0  0  0  0  0  0  0  0  0  0  0  0
  140.5110   71.0840  225.7010 C   0  0  0  0  0  0  0  0  0  0  0  0
  140.6980   71.9650  224.7020 N   0  0  0  0  0  0  0  0  0  0  0  0
  138.8220   73.9160  223.0820 H   0  0  0  0  0  0  0  0  0  0  0  0
  139.6589   74.2378  220.3053 H   0  0  0  0  0  0  0  0  0  0  0  0
  138.8485   75.4809  221.3849 H   0  0  0  0  0  0  0  0  0  0  0  0
  140.9487   77.2477  219.3572 H   0  0  0  0  0  0  0  0  0  0  0  0
  139.7248   78.2839  220.2026 H   0  0  0  0  0  0  0  0  0  0  0  0
  142.7339   78.5757  220.1316 H   0  0  0  0  0  0  0  0  0  0  0  0
  141.4416   79.7375  219.6025 H   0  0  0  0  0  0  0  0  0  0  0  0
  142.5832   80.3261  221.7534 H   0  0  0  0  0  0  0  0  0  0  0  0
  140.7774   80.1435  221.8329 H   0  0  0  0  0  0  0  0  0  0  0  0
  142.8306   78.0906  222.7010 H   0  0  0  0  0  0  0  0  0  0  0  0
  141.8488   79.1371  223.7757 H   0  0  0  0  0  0  0  0  0  0  0  0
  140.8061   76.8599  223.4918 H   0  0  0  0  0  0  0  0  0  0  0  0
  136.2113   78.0097  222.2856 H   0  0  0  0  0  0  0  0  0  0  0  0
  136.0754   80.1335  223.5539 H   0  0  0  0  0  0  0  0  0  0  0  0
  138.2591   81.0919  224.4518 H   0  0  0  0  0  0  0  0  0  0  0  0
  139.0743   70.3570  222.2505 H   0  0  0  0  0  0  0  0  0  0  0  0
  138.7226   68.7126  224.1039 H   0  0  0  0  0  0  0  0  0  0  0  0
  139.0680   68.0675  226.4428 H   0  0  0  0  0  0  0  0  0  0  0  0
  140.0711   68.6748  228.6596 H   0  0  0  0  0  0  0  0  0  0  0  0
  141.3141   70.7672  228.9639 H   0  0  0  0  0  0  0  0  0  0  0  0
  141.6247   72.3576  227.0702 H   0  0  0  0  0  0  0  0  0  0  0  0
  1  2  2  0
  2  3  1  0
  3  4  1  0
  4  5  1  0
  5  6  2  0
  5  7  1  0
  7  8  1  0
  8  9  1  0
  9 10  1  0
 10 11  1  0
 11 12  1  0
 12 13  1  0
 13 14  2  0
 14 15  1  0
 15 16  2  0
 16 17  1  0
 17 18  2  0
  2 19  1  0
 19 20  2  0
 20 21  1  0
 21 22  2  0
 22 23  1  0
 23 24  2  0
 24 25  1  0
 25 26  2  0
 26 27  1  0
 27 28  2  0
 12  7  1  0
 18 13  1  0
 28 19  1  0
 27 22  1  0
  3 29  1  0
  4 30  1  0
  4 31  1  0
  8 32  1  0
  8 33  1  0
  9 34  1  0
  9 35  1  0
 10 36  1  0
 10 37  1  0
 11 38  1  0
 11 39  1  0
 12 40  1  1
 15 41  1  0
 16 42  1  0
 17 43  1  0
 20 44  1  0
 21 45  1  0
 23 46  1  0
 24 47  1  0
 25 48  1  0
 26 49  1  0
M  END
>  <smiles>  (41) 
O=C(NCC(=O)N1CCCC[C@H]1c1ncccn1)c1ccc2ccccc2n1

>  <score_type>  (41) 
oracle

>  <origin>  (41) 
autodockgpu

>  <m_score__min__energy>  (41) 
-8.6099999999999994

>  <m_primary>  (41) 
energy

>  <rmsd>  (41) 
3.0890885805729873

>  <m_score__min__rmsd>  (41) 
3.0890885805729873

>  <meeko>  (41) 
{"free_energy": -8.04, "intermolecular_energy": -9.53, "internal_energy": -1.42, "cluster_size": 28, "cluster_id": 1, "rank_in_cluster": 25}

>  <energy>  (41) 
-6.86

>  <cluster_rmsd>  (41) 
0.0

>  <cluster>  (41) 
5

$$$$

     RDKit          3D

 49 52  0  0  0  0  0  0  0  0999 V2000
  140.3090   71.3220  221.2740 O   0  0  0  0  0  0  0  0  0  0  0  0
  140.0670   71.9450  222.3480 C   0  0  0  0  0  0  0  0  0  0  0  0
  139.7920   73.3440  222.3130 N   0  0  0  0  0  0  0  0  0  0  0  0
  139.7800   74.0810  221.0910 C   0  0  0  0  0  0  0  0  0  0  0  0
  140.6320   75.2730  221.0900 C   0  0  0  0  0  0  0  0  0  0  0  0
  141.8340   75.2810  220.6550 O   0  0  0  0  0  0  0  0  0  0  0  0
  140.0890   76.4870  221.6010 N   0  0  0  0  0  0  0  0  0  0  0  0
  139.1190   76.5030  222.6910 C   0  0  0  0  0  0  0  0  0  0  0  0
  137.9090   77.3320  222.3460 C   0  0  0  0  0  0  0  0  0  0  0  0
  138.2820   78.6480  221.7080 C   0  0  0  0  0  0  0  0  0  0  0  0
  139.2280   78.4710  220.5650 C   0  0  0  0  0  0  0  0  0  0  0  0
  140.4750   77.7720  221.0610 C   0  0  1  0  0  0  0  0  0  0  0  0
  141.1750   78.6350  222.0440 C   0  0  0  0  0  0  0  0  0  0  0  0
  141.2290   78.2540  223.3510 N   0  0  0  0  0  0  0  0  0  0  0  0
  141.8650   79.0440  224.2280 C   0  0  0  0  0  0  0  0  0  0  0  0
  142.4760   80.2310  223.8900 C   0  0  0  0  0  0  0  0  0  0  0  0
  142.4040   80.5970  222.5450 C   0  0  0  0  0  0  0  0  0  0  0  0
  141.7610   79.7770  221.7190 N   0  0  0  0  0  0  0  0  0  0  0  0
  140.0630   71.2450  223.6510 C   0  0  0  0  0  0  0  0  0  0  0  0
  139.5650   69.9580  223.6940 C   0  0  0  0  0  0  0  0  0  0  0  0
  139.5500   69.2790  224.9060 C   0  0  0  0  0  0  0  0  0  0  0  0
  140.0350   69.9060  226.0450 C   0  0  0  0  0  0  0  0  0  0  0  0
  140.0270   69.2410  227.2640 C   0  0  0  0  0  0  0  0  0  0  0  0
  140.5320   69.9470  228.3520 C   0  0  0  0  0  0  0  0  0  0  0  0
  141.0130   71.2340  228.2280 C   0  0  0  0  0  0  0  0  0  0  0  0
  141.0150   71.8840  227.0090 C   0  0  0  0  0  0  0  0  0  0  0  0
  140.5130   71.1920  225.9100 C   0  0  0  0  0  0  0  0  0  0  0  0
  140.5260   71.8460  224.7350 N   0  0  0  0  0  0  0  0  0  0  0  0
  139.5970   73.8080  223.2510 H   0  0  0  0  0  0  0  0  0  0  0  0
  140.1210   73.4147  220.2850 H   0  0  0  0  0  0  0  0  0  0  0  0
  138.7481   74.4349  220.9502 H   0  0  0  0  0  0  0  0  0  0  0  0
  138.7976   75.4715  222.8978 H   0  0  0  0  0  0  0  0  0  0  0  0
  139.6010   76.9492  223.5734 H   0  0  0  0  0  0  0  0  0  0  0  0
  137.2791   76.7646  221.6451 H   0  0  0  0  0  0  0  0  0  0  0  0
  137.3718   77.5504  223.2807 H   0  0  0  0  0  0  0  0  0  0  0  0
  137.3673   79.1351  221.3391 H   0  0  0  0  0  0  0  0  0  0  0  0
  138.7829   79.2636  222.4697 H   0  0  0  0  0  0  0  0  0  0  0  0
  138.7510   77.8629  219.7823 H   0  0  0  0  0  0  0  0  0  0  0  0
  139.4939   79.4532  220.1473 H   0  0  0  0  0  0  0  0  0  0  0  0
  141.1894   77.5930  220.2439 H   0  0  0  0  0  0  0  0  0  0  0  0
  141.9009   78.7250  225.2801 H   0  0  0  0  0  0  0  0  0  0  0  0
  142.9906   80.8541  224.6363 H   0  0  0  0  0  0  0  0  0  0  0  0
  142.8620   81.5289  222.1819 H   0  0  0  0  0  0  0  0  0  0  0  0
  139.1852   69.4766  222.7808 H   0  0  0  0  0  0  0  0  0  0  0  0
  139.1570   68.2531  224.9623 H   0  0  0  0  0  0  0  0  0  0  0  0
  139.6435   68.2149  227.3641 H   0  0  0  0  0  0  0  0  0  0  0  0
  140.5481   69.4643  229.3403 H   0  0  0  0  0  0  0  0  0  0  0  0
  141.4023   71.7525  229.1166 H   0  0  0  0  0  0  0  0  0  0  0  0
  141.3989   72.9101  226.9103 H   0  0  0  0  0  0  0  0  0  0  0  0
  1  2  2  0
  2  3  1  0
  3  4  1  0
  4  5  1  0
  5  6  2  0
  5  7  1  0
  7  8  1  0
  8  9  1  0
  9 10  1  0
 10 11  1  0
 11 12  1  0
 12 13  1  0
 13 14  2  0
 14 15  1  0
 15 16  2  0
 16 17  1  0
 17 18  2  0
  2 19  1  0
 19 20  2  0
 20 21  1  0
 21 22  2  0
 22 23  1  0
 23 24  2  0
 24 25  1  0
 25 26  2  0
 26 27  1  0
 27 28  2  0
 12  7  1  0
 18 13  1  0
 28 19  1  0
 27 22  1  0
  3 29  1  0
  4 30  1  0
  4 31  1  0
  8 32  1  0
  8 33  1  0
  9 34  1  0
  9 35  1  0
 10 36  1  0
 10 37  1  0
 11 38  1  0
 11 39  1  0
 12 40  1  6
 15 41  1  0
 16 42  1  0
 17 43  1  0
 20 44  1  0
 21 45  1  0
 23 46  1  0
 24 47  1  0
 25 48  1  0
 26 49  1  0
M  END
>  <smiles>  (42) 
O=C(NCC(=O)N1CCCC[C@H]1c1ncccn1)c1ccc2ccccc2n1

>  <score_type>  (42) 
oracle

>  <origin>  (42) 
autodockgpu

>  <m_score__min__energy>  (42) 
-8.6099999999999994

>  <m_primary>  (42) 
energy

>  <rmsd>  (42) 
2.5946131477641066

>  <m_score__min__rmsd>  (42) 
2.5946131477641066

>  <meeko>  (42) 
{"free_energy": -8.4, "intermolecular_energy": -9.89, "internal_energy": -1.46, "cluster_size": 28, "cluster_id": 1, "rank_in_cluster": 10}

>  <energy>  (42) 
-6.74

>  <cluster_rmsd>  (42) 
0.13

>  <cluster>  (42) 
5

$$$$

     RDKit          3D

 49 52  0  0  0  0  0  0  0  0999 V2000
  138.5500   74.3780  222.1230 O   0  0  0  0  0  0  0  0  0  0  0  0
  139.6820   74.9110  221.9430 C   0  0  0  0  0  0  0  0  0  0  0  0
  139.8470   76.3160  222.1300 N   0  0  0  0  0  0  0  0  0  0  0  0
  138.7620   77.1570  222.5200 C   0  0  0  0  0  0  0  0  0  0  0  0
  139.1490   78.5270  222.8670 C   0  0  0  0  0  0  0  0  0  0  0  0
  138.3920   79.3330  223.5090 O   0  0  0  0  0  0  0  0  0  0  0  0
  140.4390   78.9830  222.4690 N   0  0  0  0  0  0  0  0  0  0  0  0
  141.6430   78.6530  223.2230 C   0  0  0  0  0  0  0  0  0  0  0  0
  142.4580   79.8830  223.5330 C   0  0  0  0  0  0  0  0  0  0  0  0
  142.5960   80.7920  222.3370 C   0  0  0  0  0  0  0  0  0  0  0  0
  141.2760   81.0960  221.7050 C   0  0  0  0  0  0  0  0  0  0  0  0
  140.6190   79.7990  221.2880 C   0  0  1  0  0  0  0  0  0  0  0  0
  141.4330   79.1400  220.2380 C   0  0  0  0  0  0  0  0  0  0  0  0
  141.7080   77.8100  220.3400 N   0  0  0  0  0  0  0  0  0  0  0  0
  142.4460   77.2280  219.3830 C   0  0  0  0  0  0  0  0  0  0  0  0
  142.9510   77.8960  218.2900 C   0  0  0  0  0  0  0  0  0  0  0  0
  142.6530   79.2580  218.2120 C   0  0  0  0  0  0  0  0  0  0  0  0
  141.9190   79.7830  219.1870 N   0  0  0  0  0  0  0  0  0  0  0  0
  140.8510   74.0990  221.5390 C   0  0  0  0  0  0  0  0  0  0  0  0
  140.7190   72.7250  221.5450 C   0  0  0  0  0  0  0  0  0  0  0  0
  141.8020   71.9400  221.1700 C   0  0  0  0  0  0  0  0  0  0  0  0
  142.9900   72.5510  220.7960 C   0  0  0  0  0  0  0  0  0  0  0  0
  144.0820   71.7810  220.4180 C   0  0  0  0  0  0  0  0  0  0  0  0
  145.2320   72.4790  220.0600 C   0  0  0  0  0  0  0  0  0  0  0  0
  145.2850   73.8580  220.0790 C   0  0  0  0  0  0  0  0  0  0  0  0
  144.1910   74.6120  220.4580 C   0  0  0  0  0  0  0  0  0  0  0  0
  143.0330   73.9290  220.8190 C   0  0  0  0  0  0  0  0  0  0  0  0
  141.9820   74.6860  221.1830 N   0  0  0  0  0  0  0  0  0  0  0  0
  140.8240   76.7010  221.9630 H   0  0  0  0  0  0  0  0  0  0  0  0
  138.0461   77.2030  221.6861 H   0  0  0  0  0  0  0  0  0  0  0  0
  138.3338   76.7128  223.4307 H   0  0  0  0  0  0  0  0  0  0  0  0
  141.3517   78.1704  224.1676 H   0  0  0  0  0  0  0  0  0  0  0  0
  142.2584   77.9777  222.6104 H   0  0  0  0  0  0  0  0  0  0  0  0
  141.9660   80.4384  224.3451 H   0  0  0  0  0  0  0  0  0  0  0  0
  143.4663   79.5549  223.8257 H   0  0  0  0  0  0  0  0  0  0  0  0
  143.0598   81.7355  222.6605 H   0  0  0  0  0  0  0  0  0  0  0  0
  143.2177   80.2764  221.5903 H   0  0  0  0  0  0  0  0  0  0  0  0
  140.6329   81.6194  222.4278 H   0  0  0  0  0  0  0  0  0  0  0  0
  141.4249   81.7372  220.8237 H   0  0  0  0  0  0  0  0  0  0  0  0
  139.6275   79.9732  220.8446 H   0  0  0  0  0  0  0  0  0  0  0  0
  142.6605   76.1532  219.4770 H   0  0  0  0  0  0  0  0  0  0  0  0
  143.5536   77.3868  217.5235 H   0  0  0  0  0  0  0  0  0  0  0  0
  143.0127   79.8735  217.3743 H   0  0  0  0  0  0  0  0  0  0  0  0
  139.7687   72.2578  221.8428 H   0  0  0  0  0  0  0  0  0  0  0  0
  141.7183   70.8432  221.1696 H   0  0  0  0  0  0  0  0  0  0  0  0
  144.0407   70.6819  220.4023 H   0  0  0  0  0  0  0  0  0  0  0  0
  146.1249   71.9148  219.7529 H   0  0  0  0  0  0  0  0  0  0  0  0
  146.2157   74.3664  219.7869 H   0  0  0  0  0  0  0  0  0  0  0  0
  144.2335   75.7111  220.4739 H   0  0  0  0  0  0  0  0  0  0  0  0
  1  2  2  0
  2  3  1  0
  3  4  1  0
  4  5  1  0
  5  6  2  0
  5  7  1  0
  7  8  1  0
  8  9  1  0
  9 10  1  0
 10 11  1  0
 11 12  1  0
 12 13  1  0
 13 14  2  0
 14 15  1  0
 15 16  2  0
 16 17  1  0
 17 18  2  0
  2 19  1  0
 19 20  2  0
 20 21  1  0
 21 22  2  0
 22 23  1  0
 23 24  2  0
 24 25  1  0
 25 26  2  0
 26 27  1  0
 27 28  2  0
 12  7  1  0
 18 13  1  0
 28 19  1  0
 27 22  1  0
  3 29  1  0
  4 30  1  0
  4 31  1  0
  8 32  1  0
  8 33  1  0
  9 34  1  0
  9 35  1  0
 10 36  1  0
 10 37  1  0
 11 38  1  0
 11 39  1  0
 12 40  1  6
 15 41  1  0
 16 42  1  0
 17 43  1  0
 20 44  1  0
 21 45  1  0
 23 46  1  0
 24 47  1  0
 25 48  1  0
 26 49  1  0
M  END
>  <smiles>  (43) 
O=C(NCC(=O)N1CCCC[C@H]1c1ncccn1)c1ccc2ccccc2n1

>  <score_type>  (43) 
oracle

>  <origin>  (43) 
autodockgpu

>  <m_score__min__energy>  (43) 
-8.6099999999999994

>  <m_primary>  (43) 
energy

>  <rmsd>  (43) 
5.886235206568393

>  <m_score__min__rmsd>  (43) 
5.886235206568393

>  <meeko>  (43) 
{"free_energy": -6.6, "intermolecular_energy": -8.09, "internal_energy": -3.02, "cluster_size": 10, "cluster_id": 5, "rank_in_cluster": 3}

>  <energy>  (43) 
-6.6

>  <cluster_rmsd>  (43) 
1.04

>  <cluster>  (43) 
5

$$$$

     RDKit          3D

 49 52  0  0  0  0  0  0  0  0999 V2000
  141.4100   72.3990  221.6530 O   0  0  0  0  0  0  0  0  0  0  0  0
  140.4720   72.5760  222.4820 C   0  0  0  0  0  0  0  0  0  0  0  0
  139.6140   73.7090  222.3560 N   0  0  0  0  0  0  0  0  0  0  0  0
  139.7780   74.6680  221.3120 C   0  0  0  0  0  0  0  0  0  0  0  0
  139.2050   75.9850  221.5990 C   0  0  0  0  0  0  0  0  0  0  0  0
  138.1160   76.1540  222.2490 O   0  0  0  0  0  0  0  0  0  0  0  0
  139.8990   77.1370  221.1300 N   0  0  0  0  0  0  0  0  0  0  0  0
  139.2680   78.1190  220.2560 C   0  0  0  0  0  0  0  0  0  0  0  0
  140.1120   78.4060  219.0410 C   0  0  0  0  0  0  0  0  0  0  0  0
  141.5670   78.5980  219.3900 C   0  0  0  0  0  0  0  0  0  0  0  0
  142.0960   77.4830  220.2330 C   0  0  0  0  0  0  0  0  0  0  0  0
  141.2740   77.3910  221.5010 C   0  0  1  0  0  0  0  0  0  0  0  0
  141.4470   78.6270  222.3000 C   0  0  0  0  0  0  0  0  0  0  0  0
  140.4150   79.0810  223.0650 N   0  0  0  0  0  0  0  0  0  0  0  0
  140.5860   80.2010  223.7830 C   0  0  0  0  0  0  0  0  0  0  0  0
  141.7530   80.9320  223.7980 C   0  0  0  0  0  0  0  0  0  0  0  0
  142.7940   80.4440  223.0060 C   0  0  0  0  0  0  0  0  0  0  0  0
  142.5700   79.3310  222.3150 N   0  0  0  0  0  0  0  0  0  0  0  0
  140.2430   71.6220  223.5890 C   0  0  0  0  0  0  0  0  0  0  0  0
  139.5560   70.4580  223.3100 C   0  0  0  0  0  0  0  0  0  0  0  0
  139.3270   69.5450  224.3320 C   0  0  0  0  0  0  0  0  0  0  0  0
  139.7940   69.8220  225.6100 C   0  0  0  0  0  0  0  0  0  0  0  0
  139.5750   68.9200  226.6430 C   0  0  0  0  0  0  0  0  0  0  0  0
  140.0780   69.2810  227.8900 C   0  0  0  0  0  0  0  0  0  0  0  0
  140.7560   70.4650  228.0900 C   0  0  0  0  0  0  0  0  0  0  0  0
  140.9680   71.3530  227.0520 C   0  0  0  0  0  0  0  0  0  0  0  0
  140.4700   71.0080  225.7990 C   0  0  0  0  0  0  0  0  0  0  0  0
  140.6890   71.8890  224.8060 N   0  0  0  0  0  0  0  0  0  0  0  0
  138.8440   73.7980  223.0850 H   0  0  0  0  0  0  0  0  0  0  0  0
  140.8552   74.7949  221.1287 H   0  0  0  0  0  0  0  0  0  0  0  0
  139.2355   74.2751  220.4395 H   0  0  0  0  0  0  0  0  0  0  0  0
  138.2923   77.7305  219.9288 H   0  0  0  0  0  0  0  0  0  0  0  0
  139.1496   79.0555  220.8208 H   0  0  0  0  0  0  0  0  0  0  0  0
  140.0240   77.5619  218.3412 H   0  0  0  0  0  0  0  0  0  0  0  0
  139.7470   79.3403  218.5894 H   0  0  0  0  0  0  0  0  0  0  0  0
  142.1513   78.6467  218.4593 H   0  0  0  0  0  0  0  0  0  0  0  0
  141.6562   79.5301  219.9672 H   0  0  0  0  0  0  0  0  0  0  0  0
  142.0255   76.5358  219.6782 H   0  0  0  0  0  0  0  0  0  0  0  0
  143.1490   77.6757  220.4859 H   0  0  0  0  0  0  0  0  0  0  0  0
  141.6093   76.5615  222.1409 H   0  0  0  0  0  0  0  0  0  0  0  0
  139.7446   80.5565  224.3959 H   0  0  0  0  0  0  0  0  0  0  0  0
  141.8588   81.8472  224.3991 H   0  0  0  0  0  0  0  0  0  0  0  0
  143.7634   80.9614  222.9557 H   0  0  0  0  0  0  0  0  0  0  0  0
  139.1942   70.2556  222.2911 H   0  0  0  0  0  0  0  0  0  0  0  0
  138.7809   68.6116  224.1306 H   0  0  0  0  0  0  0  0  0  0  0  0
  139.0351   67.9747  226.4851 H   0  0  0  0  0  0  0  0  0  0  0  0
  139.9301   68.6009  228.7418 H   0  0  0  0  0  0  0  0  0  0  0  0
  141.1350   70.7073  229.0938 H   0  0  0  0  0  0  0  0  0  0  0  0
  141.5100   72.2970  227.2104 H   0  0  0  0  0  0  0  0  0  0  0  0
  1  2  2  0
  2  3  1  0
  3  4  1  0
  4  5  1  0
  5  6  2  0
  5  7  1  0
  7  8  1  0
  8  9  1  0
  9 10  1  0
 10 11  1  0
 11 12  1  0
 12 13  1  0
 13 14  2  0
 14 15  1  0
 15 16  2  0
 16 17  1  0
 17 18  2  0
  2 19  1  0
 19 20  2  0
 20 21  1  0
 21 22  2  0
 22 23  1  0
 23 24  2  0
 24 25  1  0
 25 26  2  0
 26 27  1  0
 27 28  2  0
 12  7  1  0
 18 13  1  0
 28 19  1  0
 27 22  1  0
  3 29  1  0
  4 30  1  0
  4 31  1  0
  8 32  1  0
  8 33  1  0
  9 34  1  0
  9 35  1  0
 10 36  1  0
 10 37  1  0
 11 38  1  0
 11 39  1  0
 12 40  1  1
 15 41  1  0
 16 42  1  0
 17 43  1  0
 20 44  1  0
 21 45  1  0
 23 46  1  0
 24 47  1  0
 25 48  1  0
 26 49  1  0
M  END
>  <smiles>  (44) 
O=C(NCC(=O)N1CCCC[C@H]1c1ncccn1)c1ccc2ccccc2n1

>  <score_type>  (44) 
oracle

>  <origin>  (44) 
autodockgpu

>  <m_score__min__energy>  (44) 
-8.6099999999999994

>  <m_primary>  (44) 
energy

>  <rmsd>  (44) 
2.247190026376876

>  <m_score__min__rmsd>  (44) 
2.247190026376876

>  <meeko>  (44) 
{"free_energy": -8.34, "intermolecular_energy": -9.83, "internal_energy": -1.54, "cluster_size": 28, "cluster_id": 1, "rank_in_cluster": 14}

>  <energy>  (44) 
-6.59

>  <cluster_rmsd>  (44) 
0.88

>  <cluster>  (44) 
5

$$$$

     RDKit          3D

 49 52  0  0  0  0  0  0  0  0999 V2000
  139.8770   71.0320  221.3350 O   0  0  0  0  0  0  0  0  0  0  0  0
  139.8930   71.6210  222.4530 C   0  0  0  0  0  0  0  0  0  0  0  0
  139.8850   73.0470  222.5070 N   0  0  0  0  0  0  0  0  0  0  0  0
  139.8610   73.8470  221.3250 C   0  0  0  0  0  0  0  0  0  0  0  0
  140.7910   74.9790  221.3370 C   0  0  0  0  0  0  0  0  0  0  0  0
  142.0540   74.8570  221.1840 O   0  0  0  0  0  0  0  0  0  0  0  0
  140.2560   76.2850  221.5290 N   0  0  0  0  0  0  0  0  0  0  0  0
  139.0600   76.5220  222.3300 C   0  0  0  0  0  0  0  0  0  0  0  0
  138.0480   77.3560  221.5860 C   0  0  0  0  0  0  0  0  0  0  0  0
  138.6820   78.5350  220.8920 C   0  0  0  0  0  0  0  0  0  0  0  0
  139.8540   78.1340  220.0550 C   0  0  0  0  0  0  0  0  0  0  0  0
  140.8770   77.4490  220.9360 C   0  0  1  0  0  0  0  0  0  0  0  0
  141.3980   78.4110  221.9370 C   0  0  0  0  0  0  0  0  0  0  0  0
  141.3520   78.0910  223.2600 N   0  0  0  0  0  0  0  0  0  0  0  0
  141.8280   78.9700  224.1540 C   0  0  0  0  0  0  0  0  0  0  0  0
  142.3660   80.1920  223.8180 C   0  0  0  0  0  0  0  0  0  0  0  0
  142.3990   80.4940  222.4550 C   0  0  0  0  0  0  0  0  0  0  0  0
  141.9150   79.5870  221.6130 N   0  0  0  0  0  0  0  0  0  0  0  0
  139.9180   70.8560  223.7190 C   0  0  0  0  0  0  0  0  0  0  0  0
  139.4650   69.5520  223.6970 C   0  0  0  0  0  0  0  0  0  0  0  0
  139.4780   68.8110  224.8720 C   0  0  0  0  0  0  0  0  0  0  0  0
  139.9450   69.3960  226.0410 C   0  0  0  0  0  0  0  0  0  0  0  0
  139.9650   68.6700  227.2250 C   0  0  0  0  0  0  0  0  0  0  0  0
  140.4490   69.3370  228.3470 C   0  0  0  0  0  0  0  0  0  0  0  0
  140.8840   70.6450  228.2880 C   0  0  0  0  0  0  0  0  0  0  0  0
  140.8580   71.3560  227.1030 C   0  0  0  0  0  0  0  0  0  0  0  0
  140.3770   70.7030  225.9720 C   0  0  0  0  0  0  0  0  0  0  0  0
  140.3630   71.4170  224.8310 N   0  0  0  0  0  0  0  0  0  0  0  0
  139.8990   73.4810  223.4780 H   0  0  0  0  0  0  0  0  0  0  0  0
  140.1145   73.2035  220.4697 H   0  0  0  0  0  0  0  0  0  0  0  0
  138.8497   74.2744  221.2577 H   0  0  0  0  0  0  0  0  0  0  0  0
  138.6050   75.5540  222.5866 H   0  0  0  0  0  0  0  0  0  0  0  0
  139.3568   77.0701  223.2364 H   0  0  0  0  0  0  0  0  0  0  0  0
  137.5540   76.7250  220.8325 H   0  0  0  0  0  0  0  0  0  0  0  0
  137.3254   77.7439  222.3190 H   0  0  0  0  0  0  0  0  0  0  0  0
  137.9307   79.0111  220.2448 H   0  0  0  0  0  0  0  0  0  0  0  0
  139.0413   79.2293  221.6658 H   0  0  0  0  0  0  0  0  0  0  0  0
  139.5243   77.4421  219.2660 H   0  0  0  0  0  0  0  0  0  0  0  0
  140.3010   79.0250  219.5899 H   0  0  0  0  0  0  0  0  0  0  0  0
  141.7466   77.1069  220.3556 H   0  0  0  0  0  0  0  0  0  0  0  0
  141.7861   78.6985  225.2192 H   0  0  0  0  0  0  0  0  0  0  0  0
  142.7474   80.8894  224.5784 H   0  0  0  0  0  0  0  0  0  0  0  0
  142.8104   81.4473  222.0918 H   0  0  0  0  0  0  0  0  0  0  0  0
  139.0984   69.1054  222.7609 H   0  0  0  0  0  0  0  0  0  0  0  0
  139.1215   67.7704  224.8760 H   0  0  0  0  0  0  0  0  0  0  0  0
  139.6181   67.6273  227.2734 H   0  0  0  0  0  0  0  0  0  0  0  0
  140.4857   68.8053  229.3093 H   0  0  0  0  0  0  0  0  0  0  0  0
  141.2585   71.1310  229.2010 H   0  0  0  0  0  0  0  0  0  0  0  0
  141.2045   72.3989  227.0556 H   0  0  0  0  0  0  0  0  0  0  0  0
  1  2  2  0
  2  3  1  0
  3  4  1  0
  4  5  1  0
  5  6  2  0
  5  7  1  0
  7  8  1  0
  8  9  1  0
  9 10  1  0
 10 11  1  0
 11 12  1  0
 12 13  1  0
 13 14  2  0
 14 15  1  0
 15 16  2  0
 16 17  1  0
 17 18  2  0
  2 19  1  0
 19 20  2  0
 20 21  1  0
 21 22  2  0
 22 23  1  0
 23 24  2  0
 24 25  1  0
 25 26  2  0
 26 27  1  0
 27 28  2  0
 12  7  1  0
 18 13  1  0
 28 19  1  0
 27 22  1  0
  3 29  1  0
  4 30  1  0
  4 31  1  0
  8 32  1  0
  8 33  1  0
  9 34  1  0
  9 35  1  0
 10 36  1  0
 10 37  1  0
 11 38  1  0
 11 39  1  0
 12 40  1  6
 15 41  1  0
 16 42  1  0
 17 43  1  0
 20 44  1  0
 21 45  1  0
 23 46  1  0
 24 47  1  0
 25 48  1  0
 26 49  1  0
M  END
>  <smiles>  (45) 
O=C(NCC(=O)N1CCCC[C@H]1c1ncccn1)c1ccc2ccccc2n1

>  <score_type>  (45) 
oracle

>  <origin>  (45) 
autodockgpu

>  <m_score__min__energy>  (45) 
-8.6099999999999994

>  <m_primary>  (45) 
energy

>  <rmsd>  (45) 
2.2971604052187753

>  <m_score__min__rmsd>  (45) 
2.2971604052187753

>  <meeko>  (45) 
{"free_energy": -8.23, "intermolecular_energy": -9.72, "internal_energy": -1.58, "cluster_size": 28, "cluster_id": 1, "rank_in_cluster": 17}

>  <energy>  (45) 
-6.58

>  <cluster_rmsd>  (45) 
0.97

>  <cluster>  (45) 
5

$$$$

     RDKit          3D

 49 52  0  0  0  0  0  0  0  0999 V2000
  141.3720   71.9950  221.7050 O   0  0  0  0  0  0  0  0  0  0  0  0
  140.4820   72.3020  222.5490 C   0  0  0  0  0  0  0  0  0  0  0  0
  139.6790   73.4640  222.3460 N   0  0  0  0  0  0  0  0  0  0  0  0
  139.8460   74.3080  221.2080 C   0  0  0  0  0  0  0  0  0  0  0  0
  140.9350   75.2810  221.3250 C   0  0  0  0  0  0  0  0  0  0  0  0
  140.9990   76.1600  222.2510 O   0  0  0  0  0  0  0  0  0  0  0  0
  141.9780   75.2420  220.3560 N   0  0  0  0  0  0  0  0  0  0  0  0
  142.7430   76.4300  219.9940 C   0  0  0  0  0  0  0  0  0  0  0  0
  142.7880   76.6290  218.5000 C   0  0  0  0  0  0  0  0  0  0  0  0
  143.0790   75.3460  217.7630 C   0  0  0  0  0  0  0  0  0  0  0  0
  142.1760   74.2340  218.1890 C   0  0  0  0  0  0  0  0  0  0  0  0
  142.3320   74.0140  219.6780 C   0  0  1  0  0  0  0  0  0  0  0  0
  143.7120   73.5580  219.9740 C   0  0  0  0  0  0  0  0  0  0  0  0
  144.2090   72.4650  219.3290 N   0  0  0  0  0  0  0  0  0  0  0  0
  145.4580   72.0640  219.6070 C   0  0  0  0  0  0  0  0  0  0  0  0
  146.2830   72.6930  220.5140 C   0  0  0  0  0  0  0  0  0  0  0  0
  145.7470   73.8090  221.1590 C   0  0  0  0  0  0  0  0  0  0  0  0
  144.5050   74.1620  220.8460 N   0  0  0  0  0  0  0  0  0  0  0  0
  140.2540   71.4720  223.7520 C   0  0  0  0  0  0  0  0  0  0  0  0
  139.5730   70.2820  223.5990 C   0  0  0  0  0  0  0  0  0  0  0  0
  139.3450   69.4840  224.7140 C   0  0  0  0  0  0  0  0  0  0  0  0
  139.8060   69.9000  225.9550 C   0  0  0  0  0  0  0  0  0  0  0  0
  139.5870   69.1150  227.0800 C   0  0  0  0  0  0  0  0  0  0  0  0
  140.0840   69.6110  228.2810 C   0  0  0  0  0  0  0  0  0  0  0  0
  140.7560   70.8140  228.3530 C   0  0  0  0  0  0  0  0  0  0  0  0
  140.9670   71.5850  227.2260 C   0  0  0  0  0  0  0  0  0  0  0  0
  140.4760   71.1030  226.0160 C   0  0  0  0  0  0  0  0  0  0  0  0
  140.6940   71.8730  224.9340 N   0  0  0  0  0  0  0  0  0  0  0  0
  138.9480   73.6660  223.0930 H   0  0  0  0  0  0  0  0  0  0  0  0
  140.0479   73.6704  220.3346 H   0  0  0  0  0  0  0  0  0  0  0  0
  138.9172   74.8896  221.1121 H   0  0  0  0  0  0  0  0  0  0  0  0
  142.2745   77.3108  220.4572 H   0  0  0  0  0  0  0  0  0  0  0  0
  143.7739   76.2975  220.3540 H   0  0  0  0  0  0  0  0  0  0  0  0
  141.8149   77.0172  218.1649 H   0  0  0  0  0  0  0  0  0  0  0  0
  143.5996   77.3375  218.2780 H   0  0  0  0  0  0  0  0  0  0  0  0
  142.9448   75.5183  216.6849 H   0  0  0  0  0  0  0  0  0  0  0  0
  144.1127   75.0498  217.9950 H   0  0  0  0  0  0  0  0  0  0  0  0
  141.1327   74.4993  217.9629 H   0  0  0  0  0  0  0  0  0  0  0  0
  142.4403   73.3134  217.6481 H   0  0  0  0  0  0  0  0  0  0  0  0
  141.6605   73.2224  220.0420 H   0  0  0  0  0  0  0  0  0  0  0  0
  145.8471   71.1805  219.0797 H   0  0  0  0  0  0  0  0  0  0  0  0
  147.3036   72.3368  220.7177 H   0  0  0  0  0  0  0  0  0  0  0  0
  146.3314   74.3753  221.8991 H   0  0  0  0  0  0  0  0  0  0  0  0
  139.2150   69.9687  222.6072 H   0  0  0  0  0  0  0  0  0  0  0  0
  138.8041   68.5315  224.6136 H   0  0  0  0  0  0  0  0  0  0  0  0
  139.0512   68.1559  227.0244 H   0  0  0  0  0  0  0  0  0  0  0  0
  139.9368   69.0264  229.2011 H   0  0  0  0  0  0  0  0  0  0  0  0
  141.1306   71.1657  229.3256 H   0  0  0  0  0  0  0  0  0  0  0  0
  141.5030   72.5439  227.2829 H   0  0  0  0  0  0  0  0  0  0  0  0
  1  2  2  0
  2  3  1  0
  3  4  1  0
  4  5  1  0
  5  6  2  0
  5  7  1  0
  7  8  1  0
  8  9  1  0
  9 10  1  0
 10 11  1  0
 11 12  1  0
 12 13  1  0
 13 14  2  0
 14 15  1  0
 15 16  2  0
 16 17  1  0
 17 18  2  0
  2 19  1  0
 19 20  2  0
 20 21  1  0
 21 22  2  0
 22 23  1  0
 23 24  2  0
 24 25  1  0
 25 26  2  0
 26 27  1  0
 27 28  2  0
 12  7  1  0
 18 13  1  0
 28 19  1  0
 27 22  1  0
  3 29  1  0
  4 30  1  0
  4 31  1  0
  8 32  1  0
  8 33  1  0
  9 34  1  0
  9 35  1  0
 10 36  1  0
 10 37  1  0
 11 38  1  0
 11 39  1  0
 12 40  1  1
 15 41  1  0
 16 42  1  0
 17 43  1  0
 20 44  1  0
 21 45  1  0
 23 46  1  0
 24 47  1  0
 25 48  1  0
 26 49  1  0
M  END
>  <smiles>  (46) 
O=C(NCC(=O)N1CCCC[C@H]1c1ncccn1)c1ccc2ccccc2n1

>  <score_type>  (46) 
oracle

>  <origin>  (46) 
autodockgpu

>  <m_score__min__energy>  (46) 
-8.6099999999999994

>  <m_primary>  (46) 
energy

>  <rmsd>  (46) 
4.036778085269109

>  <m_score__min__rmsd>  (46) 
4.036778085269109

>  <meeko>  (46) 
{"free_energy": -8.25, "intermolecular_energy": -9.74, "internal_energy": -1.68, "cluster_size": 9, "cluster_id": 2, "rank_in_cluster": 2}

>  <energy>  (46) 
-6.57

>  <cluster_rmsd>  (46) 
0.98

>  <cluster>  (46) 
5

$$$$

     RDKit          3D

 49 52  0  0  0  0  0  0  0  0999 V2000
  138.4950   71.0310  221.7060 O   0  0  0  0  0  0  0  0  0  0  0  0
  138.1440   71.3370  222.8810 C   0  0  0  0  0  0  0  0  0  0  0  0
  137.2530   72.4300  223.0960 N   0  0  0  0  0  0  0  0  0  0  0  0
  136.7330   73.2050  222.0160 C   0  0  0  0  0  0  0  0  0  0  0  0
  136.0840   74.4550  222.4200 C   0  0  0  0  0  0  0  0  0  0  0  0
  136.4660   75.6090  222.0230 O   0  0  0  0  0  0  0  0  0  0  0  0
  134.9680   74.3770  223.3020 N   0  0  0  0  0  0  0  0  0  0  0  0
  133.6010   74.2480  222.8100 C   0  0  0  0  0  0  0  0  0  0  0  0
  132.6870   75.2740  223.4310 C   0  0  0  0  0  0  0  0  0  0  0  0
  132.8980   75.3980  224.9200 C   0  0  0  0  0  0  0  0  0  0  0  0
  134.3370   75.5920  225.2710 C   0  0  0  0  0  0  0  0  0  0  0  0
  135.1370   74.4230  224.7380 C   0  0  1  0  0  0  0  0  0  0  0  0
  134.7130   73.1750  225.4180 C   0  0  0  0  0  0  0  0  0  0  0  0
  135.0630   71.9700  224.8860 N   0  0  0  0  0  0  0  0  0  0  0  0
  134.6720   70.8510  225.5130 C   0  0  0  0  0  0  0  0  0  0  0  0
  133.9310   70.8380  226.6740 C   0  0  0  0  0  0  0  0  0  0  0  0
  133.5870   72.0870  227.1950 C   0  0  0  0  0  0  0  0  0  0  0  0
  133.9990   73.1630  226.5340 N   0  0  0  0  0  0  0  0  0  0  0  0
  138.6430   70.5770  224.0480 C   0  0  0  0  0  0  0  0  0  0  0  0
  138.3050   69.2430  224.1450 C   0  0  0  0  0  0  0  0  0  0  0  0
  138.7610   68.5070  225.2320 C   0  0  0  0  0  0  0  0  0  0  0  0
  139.5450   69.1270  226.1950 C   0  0  0  0  0  0  0  0  0  0  0  0
  140.0100   68.4060  227.2870 C   0  0  0  0  0  0  0  0  0  0  0  0
  140.7880   69.1100  228.2010 C   0  0  0  0  0  0  0  0  0  0  0  0
  141.0830   70.4470  228.0340 C   0  0  0  0  0  0  0  0  0  0  0  0
  140.6150   71.1530  226.9420 C   0  0  0  0  0  0  0  0  0  0  0  0
  139.8340   70.4630  226.0180 C   0  0  0  0  0  0  0  0  0  0  0  0
  139.3900   71.1720  224.9640 N   0  0  0  0  0  0  0  0  0  0  0  0
  136.9970   72.6360  224.1090 H   0  0  0  0  0  0  0  0  0  0  0  0
  137.5646   73.4529  221.3400 H   0  0  0  0  0  0  0  0  0  0  0  0
  135.9563   72.5908  221.5369 H   0  0  0  0  0  0  0  0  0  0  0  0
  133.6004   74.3839  221.7184 H   0  0  0  0  0  0  0  0  0  0  0  0
  133.2308   73.2486  223.0823 H   0  0  0  0  0  0  0  0  0  0  0  0
  132.8808   76.2505  222.9632 H   0  0  0  0  0  0  0  0  0  0  0  0
  131.6498   74.9484  223.2627 H   0  0  0  0  0  0  0  0  0  0  0  0
  132.3239   76.2608  225.2887 H   0  0  0  0  0  0  0  0  0  0  0  0
  132.5589   74.4623  225.3885 H   0  0  0  0  0  0  0  0  0  0  0  0
  134.7038   76.5259  224.8201 H   0  0  0  0  0  0  0  0  0  0  0  0
  134.4480   75.6504  226.3638 H   0  0  0  0  0  0  0  0  0  0  0  0
  136.2105   74.5393  224.9478 H   0  0  0  0  0  0  0  0  0  0  0  0
  134.9605   69.8848  225.0735 H   0  0  0  0  0  0  0  0  0  0  0  0
  133.6283   69.8996  227.1617 H   0  0  0  0  0  0  0  0  0  0  0  0
  132.9966   72.1766  228.1188 H   0  0  0  0  0  0  0  0  0  0  0  0
  137.6827   68.7682  223.3721 H   0  0  0  0  0  0  0  0  0  0  0  0
  138.5028   67.4421  225.3284 H   0  0  0  0  0  0  0  0  0  0  0  0
  139.7767   67.3395  227.4217 H   0  0  0  0  0  0  0  0  0  0  0  0
  141.1799   68.5840  229.0840 H   0  0  0  0  0  0  0  0  0  0  0  0
  141.7023   70.9609  228.7839 H   0  0  0  0  0  0  0  0  0  0  0  0
  140.8503   72.2191  226.8077 H   0  0  0  0  0  0  0  0  0  0  0  0
  1  2  2  0
  2  3  1  0
  3  4  1  0
  4  5  1  0
  5  6  2  0
  5  7  1  0
  7  8  1  0
  8  9  1  0
  9 10  1  0
 10 11  1  0
 11 12  1  0
 12 13  1  0
 13 14  2  0
 14 15  1  0
 15 16  2  0
 16 17  1  0
 17 18  2  0
  2 19  1  0
 19 20  2  0
 20 21  1  0
 21 22  2  0
 22 23  1  0
 23 24  2  0
 24 25  1  0
 25 26  2  0
 26 27  1  0
 27 28  2  0
 12  7  1  0
 18 13  1  0
 28 19  1  0
 27 22  1  0
  3 29  1  0
  4 30  1  0
  4 31  1  0
  8 32  1  0
  8 33  1  0
  9 34  1  0
  9 35  1  0
 10 36  1  0
 10 37  1  0
 11 38  1  0
 11 39  1  0
 12 40  1  6
 15 41  1  0
 16 42  1  0
 17 43  1  0
 20 44  1  0
 21 45  1  0
 23 46  1  0
 24 47  1  0
 25 48  1  0
 26 49  1  0
M  END
>  <smiles>  (47) 
O=C(NCC(=O)N1CCCC[C@H]1c1ncccn1)c1ccc2ccccc2n1

>  <score_type>  (47) 
oracle

>  <origin>  (47) 
autodockgpu

>  <m_score__min__energy>  (47) 
-8.6099999999999994

>  <m_primary>  (47) 
energy

>  <rmsd>  (47) 
6.707623659077078

>  <m_score__min__rmsd>  (47) 
6.707623659077078

>  <meeko>  (47) 
{"free_energy": -7.0, "intermolecular_energy": -8.49, "internal_energy": -2.49, "cluster_size": 2, "cluster_id": 4, "rank_in_cluster": 2}

>  <energy>  (47) 
-6.55

>  <cluster_rmsd>  (47) 
1.0

>  <cluster>  (47) 
5

$$$$

     RDKit          3D

 49 52  0  0  0  0  0  0  0  0999 V2000
  140.1000   71.4330  221.2450 O   0  0  0  0  0  0  0  0  0  0  0  0
  139.9370   72.0290  222.3480 C   0  0  0  0  0  0  0  0  0  0  0  0
  139.6900   73.4340  222.3690 N   0  0  0  0  0  0  0  0  0  0  0  0
  139.6180   74.2060  221.1700 C   0  0  0  0  0  0  0  0  0  0  0  0
  140.8410   74.9470  220.8500 C   0  0  0  0  0  0  0  0  0  0  0  0
  142.0050   74.4200  220.8480 O   0  0  0  0  0  0  0  0  0  0  0  0
  140.7220   76.3290  220.5220 N   0  0  0  0  0  0  0  0  0  0  0  0
  139.4990   76.8880  219.9590 C   0  0  0  0  0  0  0  0  0  0  0  0
  139.7770   77.6950  218.7160 C   0  0  0  0  0  0  0  0  0  0  0  0
  140.9640   78.6090  218.8850 C   0  0  0  0  0  0  0  0  0  0  0  0
  142.1640   77.8860  219.4060 C   0  0  0  0  0  0  0  0  0  0  0  0
  141.8170   77.2500  220.7350 C   0  0  1  0  0  0  0  0  0  0  0  0
  141.5100   78.3060  221.7300 C   0  0  0  0  0  0  0  0  0  0  0  0
  140.4580   78.1400  222.5800 N   0  0  0  0  0  0  0  0  0  0  0  0
  140.1930   79.1040  223.4740 C   0  0  0  0  0  0  0  0  0  0  0  0
  140.9230   80.2650  223.5910 C   0  0  0  0  0  0  0  0  0  0  0  0
  141.9950   80.4080  222.7070 C   0  0  0  0  0  0  0  0  0  0  0  0
  142.2120   79.4240  221.8410 N   0  0  0  0  0  0  0  0  0  0  0  0
  139.9980   71.2920  223.6290 C   0  0  0  0  0  0  0  0  0  0  0  0
  139.5570   69.9840  223.6460 C   0  0  0  0  0  0  0  0  0  0  0  0
  139.6040   69.2700  224.8370 C   0  0  0  0  0  0  0  0  0  0  0  0
  140.0900   69.8840  225.9820 C   0  0  0  0  0  0  0  0  0  0  0  0
  140.1440   69.1850  227.1800 C   0  0  0  0  0  0  0  0  0  0  0  0
  140.6460   69.8810  228.2760 C   0  0  0  0  0  0  0  0  0  0  0  0
  141.0670   71.1910  228.1790 C   0  0  0  0  0  0  0  0  0  0  0  0
  141.0090   71.8750  226.9800 C   0  0  0  0  0  0  0  0  0  0  0  0
  140.5090   71.1930  225.8740 C   0  0  0  0  0  0  0  0  0  0  0  0
  140.4620   71.8820  224.7190 N   0  0  0  0  0  0  0  0  0  0  0  0
  139.5610   73.8740  223.3290 H   0  0  0  0  0  0  0  0  0  0  0  0
  139.4011   73.5239  220.3347 H   0  0  0  0  0  0  0  0  0  0  0  0
  138.8297   74.9567  221.3282 H   0  0  0  0  0  0  0  0  0  0  0  0
  138.8148   76.0651  219.7045 H   0  0  0  0  0  0  0  0  0  0  0  0
  139.0496   77.5558  220.7087 H   0  0  0  0  0  0  0  0  0  0  0  0
  139.9767   77.0051  217.8829 H   0  0  0  0  0  0  0  0  0  0  0  0
  138.8948   78.3204  218.5147 H   0  0  0  0  0  0  0  0  0  0  0  0
  141.2128   79.0507  217.9088 H   0  0  0  0  0  0  0  0  0  0  0  0
  140.6922   79.3835  219.6173 H   0  0  0  0  0  0  0  0  0  0  0  0
  142.4640   77.1059  218.6909 H   0  0  0  0  0  0  0  0  0  0  0  0
  142.9959   78.5934  219.5382 H   0  0  0  0  0  0  0  0  0  0  0  0
  142.6638   76.6789  221.1434 H   0  0  0  0  0  0  0  0  0  0  0  0
  139.3412   78.9581  224.1545 H   0  0  0  0  0  0  0  0  0  0  0  0
  140.6767   81.0350  224.3369 H   0  0  0  0  0  0  0  0  0  0  0  0
  142.6357   81.3020  222.7271 H   0  0  0  0  0  0  0  0  0  0  0  0
  139.1735   69.5132  222.7288 H   0  0  0  0  0  0  0  0  0  0  0  0
  139.2586   68.2262  224.8717 H   0  0  0  0  0  0  0  0  0  0  0  0
  139.8091   68.1402  227.2588 H   0  0  0  0  0  0  0  0  0  0  0  0
  140.7088   69.3710  229.2486 H   0  0  0  0  0  0  0  0  0  0  0  0
  141.4561   71.7005  229.0729 H   0  0  0  0  0  0  0  0  0  0  0  0
  141.3453   72.9194  226.9021 H   0  0  0  0  0  0  0  0  0  0  0  0
  1  2  2  0
  2  3  1  0
  3  4  1  0
  4  5  1  0
  5  6  2  0
  5  7  1  0
  7  8  1  0
  8  9  1  0
  9 10  1  0
 10 11  1  0
 11 12  1  0
 12 13  1  0
 13 14  2  0
 14 15  1  0
 15 16  2  0
 16 17  1  0
 17 18  2  0
  2 19  1  0
 19 20  2  0
 20 21  1  0
 21 22  2  0
 22 23  1  0
 23 24  2  0
 24 25  1  0
 25 26  2  0
 26 27  1  0
 27 28  2  0
 12  7  1  0
 18 13  1  0
 28 19  1  0
 27 22  1  0
  3 29  1  0
  4 30  1  0
  4 31  1  0
  8 32  1  0
  8 33  1  0
  9 34  1  0
  9 35  1  0
 10 36  1  0
 10 37  1  0
 11 38  1  0
 11 39  1  0
 12 40  1  1
 15 41  1  0
 16 42  1  0
 17 43  1  0
 20 44  1  0
 21 45  1  0
 23 46  1  0
 24 47  1  0
 25 48  1  0
 26 49  1  0
M  END
>  <smiles>  (48) 
O=C(NCC(=O)N1CCCC[C@H]1c1ncccn1)c1ccc2ccccc2n1

>  <score_type>  (48) 
oracle

>  <origin>  (48) 
autodockgpu

>  <m_score__min__energy>  (48) 
-8.6099999999999994

>  <m_primary>  (48) 
energy

>  <rmsd>  (48) 
1.731596561841256

>  <m_score__min__rmsd>  (48) 
1.731596561841256

>  <meeko>  (48) 
{"free_energy": -7.88, "intermolecular_energy": -9.37, "internal_energy": -1.57, "cluster_size": 28, "cluster_id": 1, "rank_in_cluster": 26}

>  <energy>  (48) 
-6.46

>  <cluster_rmsd>  (48) 
1.04

>  <cluster>  (48) 
5

$$$$

     RDKit          3D

 49 52  0  0  0  0  0  0  0  0999 V2000
  138.8780   74.0010  222.2930 O   0  0  0  0  0  0  0  0  0  0  0  0
  139.9220   74.6070  221.9170 C   0  0  0  0  0  0  0  0  0  0  0  0
  139.9710   76.0320  221.9580 N   0  0  0  0  0  0  0  0  0  0  0  0
  138.8680   76.8130  222.4150 C   0  0  0  0  0  0  0  0  0  0  0  0
  139.2030   78.1960  222.7640 C   0  0  0  0  0  0  0  0  0  0  0  0
  138.4220   78.9680  223.4180 O   0  0  0  0  0  0  0  0  0  0  0  0
  140.4680   78.7050  222.3510 N   0  0  0  0  0  0  0  0  0  0  0  0
  141.6920   78.4370  223.0990 C   0  0  0  0  0  0  0  0  0  0  0  0
  142.4530   79.7040  223.3910 C   0  0  0  0  0  0  0  0  0  0  0  0
  142.5410   80.6080  222.1870 C   0  0  0  0  0  0  0  0  0  0  0  0
  141.2040   80.8470  221.5630 C   0  0  0  0  0  0  0  0  0  0  0  0
  140.6020   79.5180  221.1620 C   0  0  1  0  0  0  0  0  0  0  0  0
  141.4380   78.8870  220.1120 C   0  0  0  0  0  0  0  0  0  0  0  0
  141.8550   79.6320  219.0500 N   0  0  0  0  0  0  0  0  0  0  0  0
  142.6110   79.0470  218.1080 C   0  0  0  0  0  0  0  0  0  0  0  0
  142.9970   77.7260  218.1440 C   0  0  0  0  0  0  0  0  0  0  0  0
  142.5550   76.9870  219.2430 C   0  0  0  0  0  0  0  0  0  0  0  0
  141.8090   77.6160  220.1460 N   0  0  0  0  0  0  0  0  0  0  0  0
  141.1040   73.8620  221.4320 C   0  0  0  0  0  0  0  0  0  0  0  0
  140.9770   72.5010  221.2370 C   0  0  0  0  0  0  0  0  0  0  0  0
  142.0730   71.7780  220.7830 C   0  0  0  0  0  0  0  0  0  0  0  0
  143.2690   72.4360  220.5340 C   0  0  0  0  0  0  0  0  0  0  0  0
  144.3730   71.7280  220.0790 C   0  0  0  0  0  0  0  0  0  0  0  0
  145.5300   72.4710  219.8570 C   0  0  0  0  0  0  0  0  0  0  0  0
  145.5780   73.8320  220.0760 C   0  0  0  0  0  0  0  0  0  0  0  0
  144.4710   74.5240  220.5290 C   0  0  0  0  0  0  0  0  0  0  0  0
  143.3060   73.7960  220.7560 C   0  0  0  0  0  0  0  0  0  0  0  0
  142.2430   74.4930  221.1970 N   0  0  0  0  0  0  0  0  0  0  0  0
  140.8790   76.4810  221.6290 H   0  0  0  0  0  0  0  0  0  0  0  0
  138.1093   76.8342  221.6188 H   0  0  0  0  0  0  0  0  0  0  0  0
  138.5101   76.3361  223.3394 H   0  0  0  0  0  0  0  0  0  0  0  0
  141.4297   77.9510  224.0503 H   0  0  0  0  0  0  0  0  0  0  0  0
  142.3326   77.7844  222.4876 H   0  0  0  0  0  0  0  0  0  0  0  0
  141.9433   80.2440  224.2025 H   0  0  0  0  0  0  0  0  0  0  0  0
  143.4774   79.4234  223.6773 H   0  0  0  0  0  0  0  0  0  0  0  0
  142.9642   81.5741  222.4993 H   0  0  0  0  0  0  0  0  0  0  0  0
  143.1797   80.1147  221.4396 H   0  0  0  0  0  0  0  0  0  0  0  0
  140.5437   81.3475  222.2865 H   0  0  0  0  0  0  0  0  0  0  0  0
  141.3176   81.4862  220.6750 H   0  0  0  0  0  0  0  0  0  0  0  0
  139.6003   79.6438  220.7251 H   0  0  0  0  0  0  0  0  0  0  0  0
  142.9420   79.6595  217.2564 H   0  0  0  0  0  0  0  0  0  0  0  0
  143.6173   77.2789  217.3532 H   0  0  0  0  0  0  0  0  0  0  0  0
  142.8143   75.9241  219.3575 H   0  0  0  0  0  0  0  0  0  0  0  0
  140.0208   71.9959  221.4384 H   0  0  0  0  0  0  0  0  0  0  0  0
  141.9933   70.6927  220.6222 H   0  0  0  0  0  0  0  0  0  0  0  0
  144.3362   70.6427  219.9039 H   0  0  0  0  0  0  0  0  0  0  0  0
  146.4329   71.9568  219.4960 H   0  0  0  0  0  0  0  0  0  0  0  0
  146.5148   74.3766  219.8866 H   0  0  0  0  0  0  0  0  0  0  0  0
  144.5087   75.6094  220.7037 H   0  0  0  0  0  0  0  0  0  0  0  0
  1  2  2  0
  2  3  1  0
  3  4  1  0
  4  5  1  0
  5  6  2  0
  5  7  1  0
  7  8  1  0
  8  9  1  0
  9 10  1  0
 10 11  1  0
 11 12  1  0
 12 13  1  0
 13 14  2  0
 14 15  1  0
 15 16  2  0
 16 17  1  0
 17 18  2  0
  2 19  1  0
 19 20  2  0
 20 21  1  0
 21 22  2  0
 22 23  1  0
 23 24  2  0
 24 25  1  0
 25 26  2  0
 26 27  1  0
 27 28  2  0
 12  7  1  0
 18 13  1  0
 28 19  1  0
 27 22  1  0
  3 29  1  0
  4 30  1  0
  4 31  1  0
  8 32  1  0
  8 33  1  0
  9 34  1  0
  9 35  1  0
 10 36  1  0
 10 37  1  0
 11 38  1  0
 11 39  1  0
 12 40  1  6
 15 41  1  0
 16 42  1  0
 17 43  1  0
 20 44  1  0
 21 45  1  0
 23 46  1  0
 24 47  1  0
 25 48  1  0
 26 49  1  0
M  END
>  <smiles>  (49) 
O=C(NCC(=O)N1CCCC[C@H]1c1ncccn1)c1ccc2ccccc2n1

>  <score_type>  (49) 
oracle

>  <origin>  (49) 
autodockgpu

>  <m_score__min__energy>  (49) 
-8.6099999999999994

>  <m_primary>  (49) 
energy

>  <rmsd>  (49) 
5.957896008286473

>  <m_score__min__rmsd>  (49) 
5.957896008286473

>  <meeko>  (49) 
{"free_energy": -6.43, "intermolecular_energy": -7.92, "internal_energy": -3.08, "cluster_size": 10, "cluster_id": 5, "rank_in_cluster": 9}

>  <energy>  (49) 
-6.43

>  <cluster_rmsd>  (49) 
1.03

>  <cluster>  (49) 
5

$$$$

     RDKit          3D

 49 52  0  0  0  0  0  0  0  0999 V2000
  138.6480   74.0570  222.0590 O   0  0  0  0  0  0  0  0  0  0  0  0
  139.7470   74.6390  221.8360 C   0  0  0  0  0  0  0  0  0  0  0  0
  139.8550   76.0510  222.0160 N   0  0  0  0  0  0  0  0  0  0  0  0
  138.7490   76.8440  222.4450 C   0  0  0  0  0  0  0  0  0  0  0  0
  139.0780   78.2410  222.7360 C   0  0  0  0  0  0  0  0  0  0  0  0
  138.2690   79.0530  223.3030 O   0  0  0  0  0  0  0  0  0  0  0  0
  140.3690   78.7180  222.3690 N   0  0  0  0  0  0  0  0  0  0  0  0
  141.5650   78.3810  223.1330 C   0  0  0  0  0  0  0  0  0  0  0  0
  142.3640   79.6100  223.4850 C   0  0  0  0  0  0  0  0  0  0  0  0
  142.5110   80.5490  222.3140 C   0  0  0  0  0  0  0  0  0  0  0  0
  141.1980   80.8570  221.6700 C   0  0  0  0  0  0  0  0  0  0  0  0
  140.5590   79.5640  221.2110 C   0  0  1  0  0  0  0  0  0  0  0  0
  141.3950   78.9390  220.1580 C   0  0  0  0  0  0  0  0  0  0  0  0
  141.7250   77.6210  220.2590 N   0  0  0  0  0  0  0  0  0  0  0  0
  142.4820   77.0690  219.2990 C   0  0  0  0  0  0  0  0  0  0  0  0
  142.9550   77.7570  218.2030 C   0  0  0  0  0  0  0  0  0  0  0  0
  142.6020   79.1060  218.1270 C   0  0  0  0  0  0  0  0  0  0  0  0
  141.8510   79.6010  219.1050 N   0  0  0  0  0  0  0  0  0  0  0  0
  140.9360   73.8800  221.3900 C   0  0  0  0  0  0  0  0  0  0  0  0
  140.8100   72.5150  221.2310 C   0  0  0  0  0  0  0  0  0  0  0  0
  141.9120   71.7780  220.8120 C   0  0  0  0  0  0  0  0  0  0  0  0
  143.1120   72.4290  220.5630 C   0  0  0  0  0  0  0  0  0  0  0  0
  144.2220   71.7080  220.1440 C   0  0  0  0  0  0  0  0  0  0  0  0
  145.3830   72.4430  219.9180 C   0  0  0  0  0  0  0  0  0  0  0  0
  145.4290   73.8100  220.1000 C   0  0  0  0  0  0  0  0  0  0  0  0
  144.3160   74.5150  220.5170 C   0  0  0  0  0  0  0  0  0  0  0  0
  143.1470   73.7950  220.7480 C   0  0  0  0  0  0  0  0  0  0  0  0
  142.0780   74.5040  221.1530 N   0  0  0  0  0  0  0  0  0  0  0  0
  140.8070   76.4790  221.8120 H   0  0  0  0  0  0  0  0  0  0  0  0
  137.9874   76.8288  221.6514 H   0  0  0  0  0  0  0  0  0  0  0  0
  138.3965   76.4032  223.3892 H   0  0  0  0  0  0  0  0  0  0  0  0
  141.2642   77.8730  224.0611 H   0  0  0  0  0  0  0  0  0  0  0  0
  142.1958   77.7267  222.5133 H   0  0  0  0  0  0  0  0  0  0  0  0
  141.8552   80.1409  224.3031 H   0  0  0  0  0  0  0  0  0  0  0  0
  143.3709   79.2837  223.7845 H   0  0  0  0  0  0  0  0  0  0  0  0
  142.9614   81.4883  222.6673 H   0  0  0  0  0  0  0  0  0  0  0  0
  143.1481   80.0571  221.5642 H   0  0  0  0  0  0  0  0  0  0  0  0
  140.5394   81.3565  222.3958 H   0  0  0  0  0  0  0  0  0  0  0  0
  141.3540   81.5213  220.8072 H   0  0  0  0  0  0  0  0  0  0  0  0
  139.5726   79.7395  220.7568 H   0  0  0  0  0  0  0  0  0  0  0  0
  142.7404   76.0039  219.3923 H   0  0  0  0  0  0  0  0  0  0  0  0
  143.5740   77.2725  217.4335 H   0  0  0  0  0  0  0  0  0  0  0  0
  142.9335   79.7357  217.2882 H   0  0  0  0  0  0  0  0  0  0  0  0
  139.8504   72.0166  221.4331 H   0  0  0  0  0  0  0  0  0  0  0  0
  141.8334   70.6889  220.6791 H   0  0  0  0  0  0  0  0  0  0  0  0
  144.1864   70.6182  219.9988 H   0  0  0  0  0  0  0  0  0  0  0  0
  146.2904   71.9182  219.5845 H   0  0  0  0  0  0  0  0  0  0  0  0
  146.3691   74.3486  219.9096 H   0  0  0  0  0  0  0  0  0  0  0  0
  144.3523   75.6049  220.6611 H   0  0  0  0  0  0  0  0  0  0  0  0
  1  2  2  0
  2  3  1  0
  3  4  1  0
  4  5  1  0
  5  6  2  0
  5  7  1  0
  7  8  1  0
  8  9  1  0
  9 10  1  0
 10 11  1  0
 11 12  1  0
 12 13  1  0
 13 14  2  0
 14 15  1  0
 15 16  2  0
 16 17  1  0
 17 18  2  0
  2 19  1  0
 19 20  2  0
 20 21  1  0
 21 22  2  0
 22 23  1  0
 23 24  2  0
 24 25  1  0
 25 26  2  0
 26 27  1  0
 27 28  2  0
 12  7  1  0
 18 13  1  0
 28 19  1  0
 27 22  1  0
  3 29  1  0
  4 30  1  0
  4 31  1  0
  8 32  1  0
  8 33  1  0
  9 34  1  0
  9 35  1  0
 10 36  1  0
 10 37  1  0
 11 38  1  0
 11 39  1  0
 12 40  1  6
 15 41  1  0
 16 42  1  0
 17 43  1  0
 20 44  1  0
 21 45  1  0
 23 46  1  0
 24 47  1  0
 25 48  1  0
 26 49  1  0
M  END
>  <smiles>  (50) 
O=C(NCC(=O)N1CCCC[C@H]1c1ncccn1)c1ccc2ccccc2n1

>  <score_type>  (50) 
oracle

>  <origin>  (50) 
autodockgpu

>  <m_score__min__energy>  (50) 
-8.6099999999999994

>  <m_primary>  (50) 
energy

>  <rmsd>  (50) 
5.831099687188401

>  <m_score__min__rmsd>  (50) 
5.831099687188401

>  <meeko>  (50) 
{"free_energy": -6.46, "intermolecular_energy": -7.95, "internal_energy": -3.05, "cluster_size": 10, "cluster_id": 5, "rank_in_cluster": 8}

>  <energy>  (50) 
-6.32

>  <cluster_rmsd>  (50) 
1.12

>  <cluster>  (50) 
5

$$$$
